#------------------------------------------------------------------------------
#$Date: 2019-11-26 03:04:06 +0200 (Tue, 26 Nov 2019) $
#$Revision: 242463 $
#$URL: file:///home/coder/svn-repositories/cod/cif/4/13/24/4132490.cif $
#------------------------------------------------------------------------------
#
# This file is available in the Crystallography Open Database (COD),
# http://www.crystallography.net/
#
# All data on this site have been placed in the public domain by the
# contributors.
#
data_4132490
loop_
_publ_author_name
'Zhang, Xin'
'Frey, Brandon L.'
'Chen, Yu-Sheng'
'Zhang, Jian'
_publ_section_title
;
 Topology-Guided Stepwise Insertion of Three Secondary Linkers in
 Zirconium Metal-Organic Frameworks.
;
_journal_issue                   24
_journal_name_full               'Journal of the American Chemical Society'
_journal_page_first              7710
_journal_page_last               7715
_journal_paper_doi               10.1021/jacs.8b04277
_journal_volume                  140
_journal_year                    2018
_chemical_formula_moiety         'C54 H26 O18 Zr3'
_chemical_formula_sum            'C54 H26 O18 Zr3'
_chemical_formula_weight         1236.41
_space_group_crystal_system      orthorhombic
_space_group_IT_number           65
_space_group_name_Hall           '-C 2 2'
_space_group_name_H-M_alt        'C m m m'
_atom_sites_solution_hydrogens   geom
_atom_sites_solution_primary     direct
_audit_creation_date             2016-03-18
_audit_creation_method
;
Olex2 1.2
(compiled 2016.02.19 svn.r3266 for OlexSys, GUI svn.r5155)
;
_cell_angle_alpha                90
_cell_angle_beta                 90
_cell_angle_gamma                90
_cell_formula_units_Z            4
_cell_length_a                   23.361(3)
_cell_length_b                   33.409(4)
_cell_length_c                   20.691(2)
_cell_measurement_reflns_used    9987
_cell_measurement_temperature    296(2)
_cell_measurement_theta_max      14.91
_cell_measurement_theta_min      2.18
_cell_volume                     16149(3)
_computing_molecular_graphics    'Olex2 (Dolomanov et al., 2009)'
_computing_publication_material  'Olex2 (Dolomanov et al., 2009)'
_computing_structure_refinement  'ShelXL (Sheldrick, 2015)'
_computing_structure_solution    'ShelXS (Sheldrick, 2008)'
_diffrn_ambient_temperature      296.15
_diffrn_measured_fraction_theta_full 0.945
_diffrn_measured_fraction_theta_max 0.945
_diffrn_measurement_device_type  'Bruker APEX-II CCD'
_diffrn_measurement_method       '\f and \w scans'
_diffrn_radiation_wavelength     0.41325
_diffrn_reflns_av_R_equivalents  0.1027
_diffrn_reflns_av_unetI/netI     0.0450
_diffrn_reflns_Laue_measured_fraction_full 0.945
_diffrn_reflns_Laue_measured_fraction_max 0.945
_diffrn_reflns_limit_h_max       19
_diffrn_reflns_limit_h_min       -22
_diffrn_reflns_limit_k_max       31
_diffrn_reflns_limit_k_min       -32
_diffrn_reflns_limit_l_max       20
_diffrn_reflns_limit_l_min       -20
_diffrn_reflns_number            31483
_diffrn_reflns_point_group_measured_fraction_full 0.945
_diffrn_reflns_point_group_measured_fraction_max 0.945
_diffrn_reflns_theta_full        11.572
_diffrn_reflns_theta_max         11.572
_diffrn_reflns_theta_min         1.178
_diffrn_standards_number         0
_exptl_absorpt_coefficient_mu    0.292
_exptl_absorpt_correction_type   multi-scan
_exptl_crystal_colour            'light yellow'
_exptl_crystal_density_diffrn    0.509
_exptl_crystal_description       block
_exptl_crystal_F_000             13420
_exptl_crystal_size_max          0.5
_exptl_crystal_size_mid          0.3
_exptl_crystal_size_min          0.2
_refine_diff_density_max         1.569
_refine_diff_density_min         -0.811
_refine_diff_density_rms         0.115
_refine_ls_extinction_coef       0.031(4)
_refine_ls_extinction_expression Fc^*^=kFc[1+0.001xFc^2^\l^3^/sin(2\q)]^-1/4^
_refine_ls_extinction_method     'SHELXL-2014/7 (Sheldrick 2014'
_refine_ls_goodness_of_fit_ref   1.109
_refine_ls_hydrogen_treatment    constr
_refine_ls_matrix_type           full
_refine_ls_number_parameters     201
_refine_ls_number_reflns         4011
_refine_ls_number_restraints     73
_refine_ls_restrained_S_all      1.117
_refine_ls_R_factor_all          0.1032
_refine_ls_R_factor_gt           0.0886
_refine_ls_shift/su_max          0.000
_refine_ls_shift/su_mean         0.000
_refine_ls_structure_factor_coef Fsqd
_refine_ls_weighting_details
'w=1/[\s^2^(Fo^2^)+(0.1739P)^2^+109.5548P] where P=(Fo^2^+2Fc^2^)/3'
_refine_ls_weighting_scheme      calc
_refine_ls_wR_factor_gt          0.2616
_refine_ls_wR_factor_ref         0.2858
_reflns_Friedel_coverage         0.000
_reflns_number_gt                3408
_reflns_number_total             4011
_reflns_threshold_expression     'I > 2\s(I)'
_cod_data_source_file            ja8b04277_si_010.cif
_cod_data_source_block           NPF-300-6
_cod_database_code               4132490
_shelx_space_group_comment
;
The symmetry employed for this shelxl refinement is uniquely defined
by the following loop, which should always be used as a source of
symmetry information in preference to the above space-group names.
They are only intended as comments.
;
_olex2_refinement_description
;
1. Fixed Uiso
 At 1.2 times of:
  All C(H) groups
2. Restrained distances
 C16-C15 = C16-C17 = C18-C17 = C19-C20
 1.38 with sigma of 0.02
 C14-C15 = C18-C19
 1.46 with sigma of 0.02
 O7-C20
 1.35 with sigma of 0.02
 C17-C15 = C16-C18
 2.42 with sigma of 0.04
 C18-C20
 2.48 with sigma of 0.04
3. Rigid bond restraints
 O6, C14, C15, C16, C17, C18, C19, C20, O7
 with sigma for 1-2 distances of 0.01 and sigma for 1-3 distances of 0.01
4. Uiso/Uaniso restraints and constraints
O6 \\sim C14 \\sim C15 \\sim C16 \\sim C17 \\sim C18 \\sim C19 \\sim C20 \\sim
O7: within 1.7A with sigma of 0.04 and sigma for terminal atoms of 0.08
5. Others
 Fixed Sof: C20(0.5) O7(0.5)
6.a Aromatic/amide H refined with riding coordinates:
 C7(H7), C6(H6), C3(H3), C4(H4), C9(H9), C10(H10), C16(H16), C17(H17)
;
_shelx_res_file
;
    z.res created by SHELXL-2014/7

TITL z in Cmmm #65
REM reset to Cmmm #65
CELL 0.41325 23.3613 33.409 20.6915 90 90 90
ZERR 244 0.0028 0.0035 0.0023 0 0 0
LATT 7
SYMM -X,-Y,+Z
SYMM +X,-Y,-Z
SYMM -X,+Y,-Z
SFAC C H O Zr
UNIT 244 244 244 244
DFIX 1.38 C16 C15 C16 C17 C18 C17 C19 C20
DFIX 1.46 C14 C15 C18 C19
DFIX 1.35 O7 C20
DANG 2.42 C17 C15 C16 C18
DANG 2.48 C18 C20
DELU O6 C14 C15 C16 C17 C18 C19 C20 O7
SIMU 0.04 0.08 1.7 O6 C14 C15 C16 C17 C18 C19 C20 O7

L.S. 10
PLAN  400
TEMP 23
BOND
fmap 2
MORE -1
BOND $H
CONF
ACTA
REM <olex2.extras>
REM <HklSrc "%.\\z.hkl">
REM </olex2.extras>

WGHT    0.173900  109.554802
EXTI    0.030580
FVAR       0.15115
ZR1   4    0.000000    0.073905    0.500000    10.25000    0.03784    0.02360 =
         0.06065    0.00000    0.00000    0.00000
ZR2   4    0.075388    0.000000    0.414659    10.50000    0.04049    0.02963 =
         0.06911    0.00000    0.00869    0.00000
O5    3    0.106333    0.060931    0.380721    11.00000    0.08266    0.04288 =
         0.11059   -0.00766    0.03618   -0.01676
O1    3    0.000000    0.036161    0.415025    10.50000    0.04130    0.03642 =
         0.15312   -0.03541    0.00000    0.00000
C2    1    0.128734    0.128220    0.360873    11.00000    0.07613    0.03934 =
         0.08385   -0.00334    0.00725   -0.02071
O4    3    0.057793    0.108055    0.435873    11.00000    0.05594    0.03748 =
         0.07725   -0.00201    0.01388   -0.00359
O2    3    0.074012    0.035975    0.500000    10.50000    0.12625    0.08541 =
         0.06703    0.00000    0.00000    0.07943
C7    1    0.127740    0.167449    0.381459    11.00000    0.10870    0.06218 =
         0.08398   -0.01478    0.03353   -0.04070
AFIX  43
H7    2    0.106823    0.173918    0.418247    11.00000   -1.20000
AFIX   0
C6    1    0.156617    0.197361    0.349468    11.00000    0.12284    0.05112 =
         0.08342   -0.01255    0.03325   -0.03485
AFIX  43
H6    2    0.154562    0.223632    0.364147    11.00000   -1.20000
AFIX   0
C3    1    0.159943    0.119648    0.307603    11.00000    0.11396    0.04036 =
         0.10458   -0.01911    0.03643   -0.03102
AFIX  43
H3    2    0.160279    0.093409    0.292599    11.00000   -1.20000
AFIX   0
C5    1    0.188555    0.188171    0.295628    11.00000    0.11460    0.06050 =
         0.07236   -0.00410    0.00178   -0.05140
C1    1    0.094782    0.097239    0.396016    11.00000    0.07245    0.02891 =
         0.08145    0.00051    0.00166   -0.01533
C4    1    0.191821    0.148442    0.273918    11.00000    0.13822    0.06752 =
         0.09285   -0.02208    0.04770   -0.05560
AFIX  43
H4    2    0.214270    0.141480    0.238543    11.00000   -1.20000
AFIX   0
O3    3    0.068157    0.000000    0.310310    10.50000    0.13408    0.05078 =
         0.07117    0.00000    0.01290    0.00000
O6    3    0.168120    0.000000    0.425933    10.50000    0.03989    0.08137 =
         0.22782    0.00000    0.01904    0.00000
C9    1    0.250000    0.250000    0.291722    10.50000    0.10284    0.07319 =
         0.06661    0.00000    0.00000   -0.04822
AFIX  43
H9    2    0.250002    0.249999    0.336668    10.50000   -1.20000
AFIX   0
C8    1    0.220713    0.219795    0.259016    11.00000    0.11773    0.06931 =
         0.06592   -0.00098    0.00669   -0.05161
C10   1    0.220374    0.220315    0.192461    11.00000    0.15771    0.09184 =
         0.06809   -0.00175    0.01089   -0.08244
AFIX  43
H10   2    0.200351    0.200831    0.169669    11.00000   -1.20000
AFIX   0
C11   1    0.250000    0.250000    0.159457    10.50000    0.17287    0.13099 =
         0.04746    0.00000    0.00000   -0.06572
C12   1    0.250000    0.250000    0.087877    10.50000    0.22082    0.12341 =
         0.10739    0.00000    0.00000   -0.11449
C13   1    0.250000    0.250000    0.032445    10.50000    0.24489    0.13781 =
         0.05522    0.00000    0.00000   -0.09784
C15   1    0.254884    0.000000    0.500000    10.25000    0.08444    0.51406 =
         0.28201    0.00000    0.00000    0.00000
C16   1    0.285585    0.000000    0.441828    10.50000    0.11585    0.65617 =
         0.39013    0.00000    0.09585    0.00000
AFIX  43
H16   2    0.266342    0.000000    0.402482    10.50000   -1.20000
AFIX   0
C14   1    0.192015    0.000000    0.500000    10.25000    0.08037    0.34092 =
         0.24351    0.00000    0.00000    0.00000
C17   1    0.344290    0.000000    0.443444    10.50000    0.12076    0.74351 =
         0.47197    0.00000    0.07223    0.00000
AFIX  43
H17   2    0.363861    0.000000    0.404305    10.50000   -1.20000
AFIX   0
C20   1    0.469909    0.024301    0.458645    10.50000    0.18368    0.82619 =
         0.61791    0.01883    0.03135    0.00979
C19   1    0.438826    0.000000    0.500000    10.25000    0.17211    0.80190 =
         0.58350    0.00000    0.00000    0.00000
C18   1    0.376205    0.000000    0.500000    10.25000    0.17400    0.78233 =
         0.54274    0.00000    0.00000    0.00000
O7    3    0.461341    0.026399    0.393808    10.50000    0.24586    0.83168 =
         0.62522    0.05131    0.02099    0.01687
HKLF 4

REM  z in Cmmm #65
REM R1 =  0.0886 for    3408 Fo > 4sig(Fo)  and  0.1032 for all    4011 data
REM    201 parameters refined using     73 restraints

END

WGHT      0.1738    109.5113

REM Highest difference peak  1.569,  deepest hole -0.811,  1-sigma level  0.115
Q1    1   0.0000  0.2115  0.5000  10.25000  0.05    1.10
Q2    1   0.0000  0.0742  0.3302  10.50000  0.05    0.91
Q3    1   0.1492  0.0729  0.5000  10.50000  0.05    0.89
Q4    1   0.0000  0.0000  0.5000  10.12500  0.05    0.59
Q5    1   0.1609  0.0000  0.2379  10.50000  0.05    0.54
Q6    1   0.2633  0.1822  0.5000  10.50000  0.05    0.54
Q7    1   0.0000  0.0903  0.2821  10.50000  0.05    0.53
Q8    1   0.1305  0.0162  0.2178  11.00000  0.05    0.49
Q9    1   0.0414  0.0182  0.4723  11.00000  0.05    0.46
Q10   1   0.1890  0.0658  0.4568  11.00000  0.05    0.46
Q11   1   0.0000  0.0252  0.5000  10.25000  0.05    0.45
Q12   1   0.0445  0.0635  0.2781  11.00000  0.05    0.44
Q13   1   0.1019  0.1063  0.5000  10.50000  0.05    0.43
Q14   1   0.0742  0.1504  0.4184  11.00000  0.05    0.41
Q15   1   0.0934  0.0417  0.5000  10.50000  0.05    0.39
Q16   1   0.3114  0.0476  0.5000  10.50000  0.05    0.39
Q17   1   0.0380  0.1376  0.4698  11.00000  0.05    0.37
Q18   1   0.0000  0.1601  0.2694  10.50000  0.05    0.37
Q19   1   0.2231  0.0000  0.2458  10.50000  0.05    0.37
Q20   1   0.0770  0.0000  0.0000  10.25000  0.05    0.36
Q21   1   0.2640  0.0301  0.4117  11.00000  0.05    0.36
Q22   1   0.1165  0.1381  0.4739  11.00000  0.05    0.35
Q23   1   0.2641  0.0000  0.3822  10.50000  0.05    0.35
Q24   1   0.0137  0.0469  0.3968  11.00000  0.05    0.34
Q25   1   0.0505  0.1089  0.4213  11.00000  0.05    0.33
Q26   1   0.5000  0.1385  0.5000  10.25000  0.05    0.33
Q27   1   0.0247  0.0551  0.3930  11.00000  0.05    0.33
Q28   1   0.3020  0.0603  0.4584  11.00000  0.05    0.33
Q29   1   0.0295  0.0191  0.2632  11.00000  0.05    0.33
Q30   1   0.2269  0.1286  0.5000  10.50000  0.05    0.32
Q31   1   0.1641  0.1603  0.0000  10.50000  0.05    0.32
Q32   1   0.0000  0.0430  0.1575  10.50000  0.05    0.32
Q33   1   0.2060  0.0000  0.4123  10.50000  0.05    0.31
Q34   1   0.0000  0.1297  0.2471  10.50000  0.05    0.31
Q35   1   0.1502  0.0703  0.3299  11.00000  0.05    0.31
Q36   1   0.4122  0.0000  0.1806  10.50000  0.05    0.31
Q37   1   0.1186  0.3085  0.2564  11.00000  0.05    0.31
Q38   1   0.1635  0.0493  0.1696  11.00000  0.05    0.31
Q39   1   0.0678  0.0204  0.2669  11.00000  0.05    0.30
Q40   1   0.0000  0.0000  0.1314  10.25000  0.05    0.30
Q41   1   0.0819  0.1075  0.4387  11.00000  0.05    0.30
Q42   1   0.0937  0.0886  0.0000  10.50000  0.05    0.29
Q43   1   0.0000  0.2556  0.4112  10.50000  0.05    0.29
Q44   1   0.2069  0.0315  0.4333  11.00000  0.05    0.29
Q45   1   0.4328  0.1324  0.4687  11.00000  0.05    0.28
Q46   1   0.0366  0.0307  0.1576  11.00000  0.05    0.27
Q47   1   0.0517  0.0618  0.2389  11.00000  0.05    0.27
Q48   1   0.1141  0.2592  0.2107  11.00000  0.05    0.26
Q49   1   0.1818  0.0000  0.2972  10.50000  0.05    0.26
Q50   1   0.1076  0.2673  0.2196  11.00000  0.05    0.26
Q51   1   0.1867  0.0666  0.1519  11.00000  0.05    0.26
Q52   1   0.1686  0.3047  0.4126  11.00000  0.05    0.26
Q53   1   0.5000  0.0321  0.0000  10.25000  0.05    0.25
Q54   1   0.0526  0.1677  0.4824  11.00000  0.05    0.25
Q55   1   0.0932  0.0770  0.3815  11.00000  0.05    0.25
Q56   1   0.2134  0.0536  0.1657  11.00000  0.05    0.25
Q57   1   0.1728  0.1442  0.5000  10.50000  0.05    0.25
Q58   1   0.0807  0.2952  0.3209  11.00000  0.05    0.25
Q59   1   0.0134  0.0357  0.0000  10.50000  0.05    0.25
Q60   1   0.4276  0.0000  0.2948  10.50000  0.05    0.25
Q61   1   0.0874  0.1825  0.1522  11.00000  0.05    0.24
Q62   1   0.0601  0.1975  0.1985  11.00000  0.05    0.24
Q63   1   0.0390  0.0566  0.4400  11.00000  0.05    0.24
Q64   1   0.2192  0.1386  0.3744  11.00000  0.05    0.24
Q65   1   0.1569  0.1718  0.0597  11.00000  0.05    0.24
Q66   1   0.1080  0.2309  0.2409  11.00000  0.05    0.23
Q67   1   0.3062  0.1320  0.3968  11.00000  0.05    0.23
Q68   1   0.0504  0.0887  0.3009  11.00000  0.05    0.23
Q69   1   0.0967  0.0000  0.4778  10.50000  0.05    0.23
Q70   1   0.4104  0.0000  0.3230  10.50000  0.05    0.23
Q71   1   0.1215  0.0107  0.2695  11.00000  0.05    0.23
Q72   1   0.1226  0.0605  0.4253  11.00000  0.05    0.23
Q73   1   0.4769  0.1235  0.4420  11.00000  0.05    0.22
Q74   1   0.0628  0.1722  0.1998  11.00000  0.05    0.22
Q75   1   0.1519  0.1466  0.0969  11.00000  0.05    0.22
Q76   1   0.0916  0.2735  0.2469  11.00000  0.05    0.22
Q77   1   0.2409  0.1187  0.3343  11.00000  0.05    0.22
Q78   1   0.1052  0.2965  0.1954  11.00000  0.05    0.21
Q79   1   0.2760  0.0980  0.5000  10.50000  0.05    0.21
Q80   1   0.1689  0.2579  0.1950  11.00000  0.05    0.21
Q81   1   0.2615  0.1111  0.3644  11.00000  0.05    0.21
Q82   1   0.0287  0.1490  0.3683  11.00000  0.05    0.21
Q83   1   0.1079  0.2175  0.2990  11.00000  0.05    0.20
Q84   1   0.0682  0.2518  0.2304  11.00000  0.05    0.20
Q85   1   0.3533  0.1718  0.1841  11.00000  0.05    0.20
Q86   1   0.2530  0.2029  0.3505  11.00000  0.05    0.20
Q87   1   0.1187  0.1707  0.1025  11.00000  0.05    0.20
Q88   1   0.0722  0.2571  0.5000  10.50000  0.05    0.20
Q89   1   0.3442  0.1511  0.1980  11.00000  0.05    0.20
Q90   1   0.2523  0.0997  0.3094  11.00000  0.05    0.20
Q91   1   0.1784  0.2714  0.2135  11.00000  0.05    0.20
Q92   1   0.3530  0.0565  0.0000  10.50000  0.05    0.20
Q93   1   0.1603  0.1015  0.1054  11.00000  0.05    0.20
Q94   1   0.1223  0.1010  0.4579  11.00000  0.05    0.19
Q95   1   0.5000  0.0000  0.0992  10.25000  0.05    0.19
Q96   1   0.0000  0.1511  0.5000  10.25000  0.05    0.19
Q97   1   0.2711  0.0000  0.0000  10.25000  0.05    0.19
Q98   1   0.1357  0.1371  0.0000  10.50000  0.05    0.19
Q99   1   0.1320  0.2603  0.1612  11.00000  0.05    0.19
Q100  1   0.2876  0.0000  0.0766  10.50000  0.05    0.19
Q101  1   0.1276  0.2401  0.2706  11.00000  0.05    0.18
Q102  1   0.1063  0.2862  0.1530  11.00000  0.05    0.18
Q103  1   0.1941  0.1489  0.4304  11.00000  0.05    0.18
Q104  1   0.1472  0.0000  0.0973  10.50000  0.05    0.18
Q105  1   0.5000  0.0861  0.2852  10.50000  0.05    0.18
Q106  1   0.1859  0.2294  0.0510  11.00000  0.05    0.18
Q107  1   0.3554  0.0355  0.1497  11.00000  0.05    0.18
Q108  1   0.1594  0.2219  0.1720  11.00000  0.05    0.18
Q109  1   0.0220  0.1418  0.3225  11.00000  0.05    0.17
Q110  1   0.5000  0.0907  0.4343  10.50000  0.05    0.17
Q111  1   0.0928  0.2485  0.0773  11.00000  0.05    0.17
Q112  1   0.1851  0.2376  0.0000  10.50000  0.05    0.17
Q113  1   0.1430  0.1599  0.4394  11.00000  0.05    0.17
Q114  1   0.4045  0.1024  0.5000  10.50000  0.05    0.17
Q115  1   0.0888  0.0471  0.0831  11.00000  0.05    0.17
Q116  1   0.1211  0.3073  0.3468  11.00000  0.05    0.17
Q117  1   0.1449  0.0321  0.3379  11.00000  0.05    0.17
Q118  1   0.1411  0.0990  0.2818  11.00000  0.05    0.17
Q119  1   0.1877  0.0997  0.2330  11.00000  0.05    0.17
Q120  1   0.3695  0.0489  0.4236  11.00000  0.05    0.17
Q121  1   0.5000  0.0819  0.3728  10.50000  0.05    0.17
Q122  1   0.1030  0.1034  0.3447  11.00000  0.05    0.16
Q123  1   0.2091  0.1277  0.1079  11.00000  0.05    0.16
Q124  1   0.4649  0.0324  0.3407  11.00000  0.05    0.16
Q125  1   0.3814  0.0000  0.4034  10.50000  0.05    0.16
Q126  1   0.0683  0.4030  0.0207  11.00000  0.05    0.16
Q127  1   0.1709  0.1105  0.3002  11.00000  0.05    0.15
Q128  1   0.0818  0.1502  0.0649  11.00000  0.05    0.15
Q129  1   0.2269  0.0871  0.3998  11.00000  0.05    0.15
Q130  1   0.4391  0.0000  0.4137  10.50000  0.05    0.15
Q131  1   0.4005  0.0828  0.4410  11.00000  0.05    0.15
Q132  1   0.2273  0.1726  0.4159  11.00000  0.05    0.14
Q133  1   0.0000  0.3090  0.5000  10.25000  0.05    0.14
Q134  1   0.0765  0.1991  0.3274  11.00000  0.05    0.14
Q135  1   0.0000  0.1285  0.3791  10.50000  0.05    0.14
Q136  1   0.0000  0.2223  0.3807  10.50000  0.05    0.14
Q137  1   0.2367  0.1337  0.2536  11.00000  0.05    0.14
Q138  1   0.1072  0.1204  0.1272  11.00000  0.05    0.14
Q139  1   0.3678  0.0000  0.3397  10.50000  0.05    0.14
Q140  1   0.2596  0.0998  0.1594  11.00000  0.05    0.14
Q141  1   0.3030  0.0770  0.0000  10.50000  0.05    0.14
Q142  1   0.4045  0.0864  0.3763  11.00000  0.05    0.14
Q143  1   0.5000  0.0410  0.1652  10.50000  0.05    0.13
Q144  1   0.2516  0.2437  0.4317  11.00000  0.05    0.13
Q145  1   0.4428  0.0496  0.2385  11.00000  0.05    0.13
Q146  1   0.2264  0.1131  0.2698  11.00000  0.05    0.13
Q147  1   0.0000  0.2329  0.1449  10.50000  0.05    0.13
Q148  1   0.1483  0.1230  0.4026  11.00000  0.05    0.13
Q149  1   0.0468  0.2796  0.0434  11.00000  0.05    0.13
Q150  1   0.1607  0.3290  0.1309  11.00000  0.05    0.13
Q151  1   0.3047  0.0293  0.3515  11.00000  0.05    0.13
Q152  1   0.1542  0.3500  0.0000  10.50000  0.05    0.13
Q153  1   0.2298  0.1885  0.1697  11.00000  0.05    0.13
Q154  1   0.3049  0.0000  0.3267  10.50000  0.05    0.12
Q155  1   0.4749  0.0587  0.2970  11.00000  0.05    0.12
Q156  1   0.2013  0.2908  0.3483  11.00000  0.05    0.12
Q157  1   0.0383  0.0000  0.0950  10.50000  0.05    0.12
Q158  1   0.1027  0.3880  0.0000  10.50000  0.05    0.12
Q159  1   0.1482  0.2408  0.3298  11.00000  0.05    0.12
Q160  1   0.1444  0.0770  0.0000  10.50000  0.05    0.12
Q161  1   0.2249  0.0971  0.4566  11.00000  0.05    0.12
Q162  1   0.0774  0.2573  0.0000  10.50000  0.05    0.12
Q163  1   0.2072  0.1424  0.0574  11.00000  0.05    0.12
Q164  1   0.2725  0.0455  0.0903  11.00000  0.05    0.12
Q165  1   0.0318  0.2912  0.0995  11.00000  0.05    0.12
Q166  1   0.0000  0.2122  0.0817  10.50000  0.05    0.12
Q167  1   0.1987  0.0000  0.1292  10.50000  0.05    0.12
Q168  1   0.1327  0.0674  0.1197  11.00000  0.05    0.12
Q169  1   0.3388  0.0000  0.2352  10.50000  0.05    0.12
Q170  1   0.0551  0.2716  0.1085  11.00000  0.05    0.11
Q171  1   0.0884  0.3481  0.0866  11.00000  0.05    0.11
Q172  1   0.2374  0.0000  0.1028  10.50000  0.05    0.11
Q173  1   0.1184  0.2804  0.0000  10.50000  0.05    0.11
Q174  1   0.0000  0.1515  0.4405  10.50000  0.05    0.11
Q175  1   0.0446  0.2192  0.3374  11.00000  0.05    0.11
Q176  1   0.2093  0.3749  0.0000  10.50000  0.05    0.11
Q177  1   0.5000  0.0774  0.5000  10.25000  0.05    0.11
Q178  1   0.2556  0.0000  0.1305  10.50000  0.05    0.11
Q179  1   0.3525  0.0391  0.3703  11.00000  0.05    0.11
Q180  1   0.2100  0.2164  0.2080  11.00000  0.05    0.11
Q181  1   0.0082  0.2969  0.4026  11.00000  0.05    0.11
Q182  1   0.3705  0.0000  0.0407  10.50000  0.05    0.11
Q183  1   0.3426  0.0463  0.3600  11.00000  0.05    0.11
Q184  1   0.2926  0.1974  0.1829  11.00000  0.05    0.10
Q185  1   0.4299  0.0540  0.0915  11.00000  0.05    0.10
Q186  1   0.1022  0.4151  0.0000  10.50000  0.05    0.10
Q187  1   0.4523  0.0715  0.3415  11.00000  0.05    0.10
Q188  1   0.1947  0.0591  0.2850  11.00000  0.05    0.10
Q189  1   0.1982  0.0000  0.0813  10.50000  0.05    0.10
Q190  1   0.0692  0.1186  0.1598  11.00000  0.05    0.10
Q191  1   0.0905  0.2119  0.0000  10.50000  0.05    0.09
Q192  1   0.0000  0.2533  0.0000  10.25000  0.05    0.09
Q193  1   0.3441  0.0000  0.0985  10.50000  0.05    0.09
Q194  1   0.0000  0.0271  0.3474  10.50000  0.05    0.09
Q195  1   0.0000  0.2523  0.3373  10.50000  0.05    0.09
Q196  1   0.2060  0.0213  0.3673  11.00000  0.05    0.09
Q197  1   0.0228  0.2634  0.1603  11.00000  0.05    0.09
Q198  1   0.0989  0.0769  0.2916  11.00000  0.05    0.08
Q199  1   0.2748  0.1588  0.2497  11.00000  0.05    0.08
Q200  1   0.4766  0.0686  0.1657  11.00000  0.05    0.08
Q201  1   0.1838  0.2078  0.1082  11.00000  0.05    0.08
Q202  1   0.2461  0.1280  0.1114  11.00000  0.05    0.08
Q203  1   0.4749  0.0667  0.1083  11.00000  0.05    0.08
Q204  1   0.4631  0.0772  0.2450  11.00000  0.05    0.08
Q205  1   0.2542  0.0474  0.2603  11.00000  0.05    0.08
Q206  1   0.3268  0.0762  0.0710  11.00000  0.05    0.08
Q207  1   0.3719  0.0000  0.2662  10.50000  0.05    0.08
Q208  1   0.4480  0.0758  0.3858  11.00000  0.05    0.08
Q209  1   0.2862  0.1828  0.3072  11.00000  0.05    0.07
Q210  1   0.2582  0.1233  0.1210  11.00000  0.05    0.07
Q211  1   0.1781  0.2596  0.3634  11.00000  0.05    0.07
Q212  1   0.0749  0.3056  0.0000  10.50000  0.05    0.07
Q213  1   0.2310  0.2078  0.0000  10.50000  0.05    0.07
Q214  1   0.5000  0.1264  0.3514  10.50000  0.05    0.07
Q215  1   0.1055  0.0368  0.1513  11.00000  0.05    0.07
Q216  1   0.0421  0.2316  0.0969  11.00000  0.05    0.07
Q217  1   0.0000  0.2042  0.2856  10.50000  0.05    0.07
Q218  1   0.0638  0.1670  0.3506  11.00000  0.05    0.07
Q219  1   0.0265  0.3210  0.1289  11.00000  0.05    0.07
Q220  1   0.5000  0.0000  0.1728  10.25000  0.05    0.07
Q221  1   0.0641  0.1925  0.3905  11.00000  0.05    0.07
Q222  1   0.4519  0.0606  0.0308  11.00000  0.05    0.06
Q223  1   0.1881  0.1516  0.1975  11.00000  0.05    0.06
Q224  1   0.1999  0.1977  0.2808  11.00000  0.05    0.06
Q225  1   0.2919  0.0598  0.2891  11.00000  0.05    0.06
Q226  1   0.1889  0.3073  0.0719  11.00000  0.05    0.06
Q227  1   0.1914  0.1839  0.4508  11.00000  0.05    0.06
Q228  1   0.0069  0.2086  0.0180  11.00000  0.05    0.06
Q229  1   0.0345  0.2364  0.0278  11.00000  0.05    0.06
Q230  1   0.2835  0.1887  0.1314  11.00000  0.05    0.06
Q231  1   0.5000  0.0990  0.0985  10.50000  0.05    0.05
Q232  1   0.4173  0.0000  0.0264  10.50000  0.05    0.05
Q233  1   0.3425  0.1075  0.2601  11.00000  0.05    0.05
Q234  1   0.0000  0.2687  0.2236  10.50000  0.05    0.05
Q235  1   0.3085  0.1923  0.2264  11.00000  0.05    0.04
Q236  1   0.3679  0.1295  0.2859  11.00000  0.05    0.04
Q237  1   0.0885  0.1675  0.2690  11.00000  0.05    0.04
Q238  1   0.0000  0.2696  0.0664  10.50000  0.05    0.03
Q239  1   0.0808  0.1641  0.2826  11.00000  0.05    0.03
Q240  1   0.2223  0.0000  0.0000  10.25000  0.05    0.03
Q241  1   0.4254  0.1020  0.1314  11.00000  0.05    0.03
Q242  1   0.5000  0.1705  0.3187  10.50000  0.05    0.03
Q243  1   0.4223  0.0912  0.1950  11.00000  0.05    0.03
Q244  1   0.2490  0.1498  0.0837  11.00000  0.05    0.02
Q245  1   0.1664  0.1792  0.3835  11.00000  0.05    0.02
Q246  1   0.3869  0.0899  0.3098  11.00000  0.05    0.02
Q247  1   0.0000  0.3711  0.0360  10.50000  0.05    0.01
Q248  1   0.0000  0.1229  0.0000  10.25000  0.05    0.01
Q249  1   0.0000  0.1805  0.0395  10.50000  0.05    0.01
Q250  1   0.5000  0.0000  0.4272  10.25000  0.05    0.01
Q251  1   0.0000  0.1017  0.0689  10.50000  0.05    0.01
Q252  1   0.0000  0.3071  0.0431  10.50000  0.05    0.01
Q253  1   0.1234  0.3167  0.0389  11.00000  0.05    0.00
Q254  1   0.0000  0.3005  0.2553  10.50000  0.05    0.00
Q255  1   0.1962  0.1900  0.3364  11.00000  0.05    0.00
;
_shelx_res_checksum              64600
_shelx_hkl_file
;
   0   0  -3   89.57    2.07
   0   0  -3   93.99    1.80
   0   0   3   81.67    2.01
   0   0   3   86.34    1.75
   0   0  -7  511.86    6.39
   0   0  -8   60.60    4.36
   0   0  -8   58.77    3.68
   0   0   8   58.09    4.26
   0   0   8   62.53    3.58
   0   0 -11  601.51    8.81
   0   0 -11  587.17    7.54
   0   0  11  585.93    8.52
   0   0  11  596.50    7.56
   0   0 -12  742.15    9.90
   0   0 -12  690.85    8.42
   0   0  12  729.22    9.49
   0   0  12  702.13    8.49
   0   0 -13  815.40   10.65
   0   0 -13  780.72    9.23
   0   0  13  748.87   10.10
   0   0  13  793.42    9.38
   0   0 -14  418.47    9.02
   0   0 -14  373.96    7.60
   0   0  14  431.58    9.00
   0   0  14  421.90    7.99
   0   0 -15  250.02    8.32
   0   0 -15  231.42    7.16
   0   0  15  251.87    8.23
   0   0  15  254.39    7.42
   0   0 -16   21.07    4.45
   0   0 -16   19.33    3.70
   0   0  16   21.37    4.43
   0   0  16   29.46    3.94
   0   0 -17   -0.34    4.32
   0   0 -17    1.84    3.78
   0   0  17    2.64    4.26
   0   0  17    1.03    3.48
   0   0 -18   20.59    5.05
   0   0 -18   13.70    4.03
   0   0  18   20.40    4.77
   0   0  18   20.04    4.05
   0   0 -19   -6.17    4.59
   0   0 -19   -4.09    3.59
   0   0  19   -6.30    4.37
   0   0  19   -3.10    3.82
   0   0 -20   34.88    5.65
   0   0 -20   32.07    4.57
   0   0  20   37.48    5.43
   0   0  20   34.56    5.54
   0   2  -7  724.75    7.16
   0  -2  -8    5.98    2.44
   0  -2  -8    4.04    1.92
   0  -2   8    2.17    2.24
   0  -2   8    1.97    1.88
   0   2  -8    5.02    2.39
   0   2  -8    2.45    2.01
   0   2   8    3.33    2.27
   0   2   8    1.02    1.80
   0  -2  -9   39.43    3.27
   0  -2  -9   29.48    3.62
   0  -2   9   28.94    3.01
   0  -2   9   30.42    2.62
   0   2  -9   32.38    3.06
   0   2  -9   29.58    2.60
   0   2   9   39.29    3.25
   0   2   9   30.22    3.54
   0  -2 -12  890.60   10.45
   0  -2  12  921.16   10.39
   0  -2  12  905.18    9.39
   0   2 -12  920.35   10.63
   0   2 -12  863.25    9.16
   0   2  12  913.72   10.27
   0   2  12  914.52    9.33
   0  -2 -13  217.39    7.57
   0  -2 -13  189.00    6.11
   0  -2  13  209.07    7.24
   0  -2  13  187.77    6.25
   0   2 -13  190.31    7.24
   0   2 -13  194.92    6.32
   0   2  13  216.69    7.09
   0   2  13  203.87    6.43
   0  -2 -14  130.10    7.26
   0  -2 -14  126.84    6.14
   0  -2  14  142.60    7.41
   0  -2  14  122.70    6.14
   0   2 -14  138.90    7.33
   0   2 -14  108.18    6.16
   0   2  14  130.99    6.88
   0   2  14  123.27    6.14
   0  -2 -15   13.34    4.12
   0  -2 -15    7.19    3.29
   0  -2  15   12.91    4.18
   0  -2  15    9.27    3.47
   0   2 -15    7.48    4.18
   0   2 -15   14.47    3.49
   0   2  15   10.28    3.99
   0   2  15    6.95    3.33
   0  -2 -16   -1.79    4.09
   0  -2 -16    0.90    3.47
   0  -2  16    3.70    3.97
   0  -2  16    3.95    3.31
   0   2 -16    6.68    4.25
   0   2 -16    1.27    3.39
   0   2  16    4.53    3.95
   0   2  16    2.38    3.38
   0  -2 -17   17.45    4.66
   0  -2 -17   11.55    3.75
   0  -2  17   17.43    4.59
   0  -2  17   11.39    3.79
   0   2 -17   16.45    4.78
   0   2 -17   16.82    3.86
   0   2  17   17.44    4.55
   0   2  17   17.86    4.03
   0  -2 -18    5.21    4.56
   0  -2 -18    2.32    3.72
   0  -2  18    7.56    4.63
   0  -2  18    3.08    3.91
   0   2 -18    3.43    4.75
   0   2 -18    1.85    3.86
   0   2  18    4.43    4.38
   0   2  18    3.92    3.79
   0  -2 -19   12.93    4.82
   0  -2 -19   17.72    4.03
   0  -2  19   18.77    5.19
   0  -2  19   13.72    4.28
   0   2 -19   16.44    5.26
   0   2 -19   12.96    4.14
   0   2  19   15.24    5.53
   0  -2 -20    0.77    4.80
   0  -2 -20    2.05    3.78
   0  -2  20   -2.71    4.60
   0  -2  20    0.28    4.05
   0   2 -20   -5.54    4.87
   0   2 -20   -2.98    3.68
   0   4   1    0.36    0.10
   0  -4  -2   55.86    1.69
   0  -4  -2   58.00    1.25
   0  -4   2   53.36    1.74
   0  -4   2   55.85    1.29
   0   4  -2   61.66    1.81
   0   4  -2   60.64    1.43
   0   4   2   56.65    1.66
   0   4   2    1.64    0.31
   0  -4  -4   33.93    3.09
   0  -4  -4   30.61    2.50
   0  -4   4   29.42    3.06
   0  -4   4   31.09    2.49
   0   4  -4   29.89    3.23
   0   4  -4   32.03    2.71
   0   4   4   35.31    3.00
   0   4   4   31.31    2.49
   0   4  -7  539.69    6.53
   0   4   7  532.18    6.30
   0   4   7  484.98    5.44
   0  -4   8  510.67    6.57
   0  -4   8  500.64    5.77
   0   4  -8  532.92    6.88
   0   4  -8  511.47    6.03
   0   4   8  512.74    6.56
   0   4   8  527.55    5.91
   0  -4  -9   35.77    3.21
   0  -4  -9   33.02    2.57
   0  -4   9   27.38    2.93
   0  -4   9   29.00    2.49
   0   4  -9   29.09    3.01
   0   4  -9   28.03    2.62
   0   4   9   30.90    2.92
   0   4   9   32.17    2.56
   0  -4 -10  293.69    6.58
   0  -4 -10  267.25    5.43
   0  -4  10  272.76    6.35
   0  -4  10  293.27    5.77
   0   4 -10  301.41    6.74
   0   4 -10  307.40    6.01
   0   4  10  303.55    6.41
   0   4  10  287.01    5.57
   0  -4 -11  565.95    8.48
   0  -4 -11  499.44    6.94
   0  -4  11  521.95    8.13
   0  -4  11  557.99    7.45
   0   4 -11  557.99    8.55
   0   4 -11  546.41    7.52
   0   4  11  590.87    8.29
   0   4  11  542.83    7.23
   0  -4 -12  721.76    9.70
   0  -4 -12  688.81    8.18
   0  -4  12  667.70    9.34
   0  -4  12  698.69    8.50
   0   4 -12  714.72    9.74
   0   4 -12  641.10    8.29
   0   4  12  732.16    9.42
   0   4  12  691.13    8.34
   0  -4 -13  258.49    7.75
   0  -4 -13  241.88    6.33
   0  -4  13  253.57    7.40
   0  -4  13  248.98    6.60
   0   4 -13  252.61    7.67
   0   4 -13  229.14    6.60
   0   4  13  274.72    7.46
   0   4  13  245.78    6.60
   0  -4 -14   -4.02    3.60
   0  -4 -14   -3.86    2.86
   0  -4  14    1.58    3.55
   0  -4  14   -0.19    3.03
   0   4 -14    0.72    3.58
   0   4 -14   -0.23    2.97
   0   4  14   -4.84    3.43
   0   4  14   -2.59    3.04
   0  -4 -15   37.17    4.65
   0  -4 -15   38.23    3.86
   0  -4  15   47.74    4.88
   0  -4  15   46.78    5.77
   0   4 -15   42.48    4.87
   0   4 -15   44.42    4.11
   0   4  15   44.37    4.83
   0   4  15   39.34    4.01
   0  -4 -16  178.43    8.47
   0  -4 -16  161.53    7.21
   0  -4  16  182.25    8.43
   0  -4  16  168.70    7.11
   0   4 -16  179.11    8.49
   0   4 -16  157.73    7.20
   0   4  16  177.14    8.11
   0   4  16  166.19    7.09
   0  -4 -17  113.20    8.39
   0  -4 -17  114.64    7.20
   0  -4  17  128.41    8.60
   0  -4  17  118.30    7.27
   0   4 -17  133.48    8.67
   0   4 -17  113.28    7.58
   0   4  17  127.01    8.22
   0  -4 -18  228.01    9.34
   0  -4 -18  215.76    8.11
   0  -4  18  247.22    9.65
   0  -4  18  232.46    8.30
   0   4 -18  281.01   10.14
   0   4 -18  207.49    8.37
   0  -4 -19   58.82    5.94
   0  -4 -19   63.41    7.15
   0  -4  19   51.30    5.84
   0  -4  19   70.09    7.81
   0   4 -19   55.01    5.93
   0   4 -19   41.29    4.62
   0   6   3  223.92    2.30
   0  -6  -8  637.74    7.30
   0   6  -8  701.11    7.75
   0   6   8  658.72    6.51
   0  -6  -9  233.33    5.97
   0  -6  -9  217.02    4.76
   0  -6   9  234.65    5.68
   0  -6   9  230.00    4.93
   0   6  -9  211.73    5.88
   0   6  -9  222.77    5.15
   0   6   9  228.82    5.79
   0   6   9  223.92    4.87
   0  -6 -10   43.94    3.48
   0  -6 -10   39.26    3.95
   0  -6  10   40.90    3.57
   0  -6  10   36.40    4.10
   0   6 -10   37.30    3.49
   0   6 -10   38.27    4.45
   0   6  10   41.77    4.88
   0   6  10   39.75    3.96
   0  -6 -11  183.86    6.35
   0  -6 -11  153.88    5.06
   0  -6  11  167.73    6.02
   0  -6  11  175.59    5.41
   0   6 -11  176.35    6.50
   0   6 -11  164.75    5.49
   0   6  11  176.42    6.08
   0   6  11  173.11    5.26
   0  -6 -12   80.72    6.03
   0  -6 -12   74.71    4.86
   0  -6  12   68.58    5.62
   0  -6  12   73.40    5.13
   0   6 -12   73.47    6.18
   0   6 -12   73.68    5.24
   0   6  12   80.94    5.82
   0   6  12   75.83    4.99
   0  -6 -13   47.58    4.31
   0  -6 -13   40.47    3.45
   0  -6  13   49.88    4.45
   0  -6  13   34.64    3.47
   0   6 -13   55.76    4.93
   0   6 -13   34.26    3.42
   0   6  13   51.13    4.42
   0   6  13   45.03    3.76
   0  -6 -14    0.33    3.86
   0  -6 -14    2.86    2.97
   0  -6  14    4.52    3.65
   0  -6  14    6.03    3.08
   0   6 -14    7.82    3.98
   0   6 -14    2.68    3.05
   0   6  14    5.20    3.73
   0   6  14    0.64    2.99
   0  -6 -15  125.24    7.70
   0  -6 -15  127.81    6.45
   0  -6  15  136.45    7.54
   0  -6  15  121.73    6.42
   0   6 -15  129.60    7.85
   0   6 -15  112.24    6.57
   0   6  15  128.95    7.52
   0   6  15  124.18    6.42
   0  -6 -16  184.71    8.43
   0  -6 -16  178.46    7.18
   0  -6  16  193.18    8.51
   0  -6  16  188.99    7.26
   0   6 -16  198.33    8.93
   0   6 -16  181.42    7.42
   0   6  16  196.12    8.40
   0  -6 -17  382.67   10.24
   0  -6 -17  385.96    8.94
   0  -6  17  415.04   10.37
   0  -6  17  392.81    9.14
   0   6 -17  417.09   10.85
   0   6 -17  361.81    9.17
   0  -6 -18  252.59    9.73
   0  -6 -18  237.97    8.09
   0  -6  18  276.47    9.82
   0  -6  18  261.75    8.87
   0   6 -18  285.93   10.37
   0   6 -18  236.79    8.72
   0  -6 -19  177.10    9.44
   0  -6 -19  151.93    7.73
   0  -6  19  197.77   10.37
   0   6 -19  190.83   10.07
   0   6 -19  177.56    8.75
   0  -8  -2  323.88    3.83
   0   8  -2  267.90    2.77
   0   8   2    0.19    0.27
   0   8   2  264.37    2.53
   0  -8  -3  226.68    3.85
   0  -8  -3  210.95    2.52
   0  -8   3  238.50    4.05
   0  -8   3  221.85    2.78
   0   8  -3  247.99    4.15
   0   8  -3  220.20    3.15
   0   8   3  262.77    4.00
   0   8   3  240.55    2.99
   0  -8  -4  208.12    4.06
   0  -8  -4  186.31    2.90
   0  -8   4  199.73    4.22
   0  -8   4  187.14    3.18
   0   8  -4  205.91    4.21
   0   8  -4  191.76    3.47
   0   8   4  208.46    4.21
   0   8   4   15.59    1.43
   0  -8  -9  535.46    7.47
   0  -8  -9  511.02    6.09
   0  -8   9  533.18    7.43
   0  -8   9  560.21    6.64
   0   8  -9  561.41    7.72
   0   8  -9  553.21    6.84
   0   8   9  581.06    7.58
   0   8   9  515.97    6.30
   0  -8 -10    4.01    2.93
   0  -8 -10    1.85    2.15
   0  -8  10    0.55    2.77
   0  -8  10    5.66    2.47
   0   8 -10    6.17    3.12
   0   8 -10    3.41    2.43
   0   8  10    2.16    2.77
   0   8  10    3.13    2.27
   0  -8 -11  180.63    6.47
   0  -8 -11  173.45    5.17
   0  -8  11  178.99    6.24
   0  -8  11  190.20    5.48
   0   8 -11  186.60    6.64
   0   8 -11  175.27    5.73
   0   8  11  184.66    6.25
   0   8  11  181.03    5.36
   0  -8 -12  215.80    7.05
   0  -8 -12  205.27    5.74
   0  -8  12  214.32    6.73
   0  -8  12  211.51    5.96
   0   8 -12  210.53    7.30
   0   8 -12  194.65    6.09
   0   8  12  237.00    7.00
   0   8  12  197.85    5.97
   0  -8 -13   57.96    6.30
   0  -8 -13   57.50    5.24
   0  -8  13   60.42    6.14
   0  -8  13   54.16    5.30
   0   8 -13   67.99    6.81
   0   8 -13   53.75    5.61
   0   8  13   64.28    6.20
   0   8  13   55.45    5.31
   0  -8 -14   -1.82    3.65
   0  -8 -14    1.10    2.93
   0  -8  14   -1.57    3.57
   0  -8  14    4.55    3.17
   0   8 -14    0.25    3.96
   0   8 -14    0.53    3.05
   0   8  14    1.39    3.56
   0  -8 -15   15.01    4.18
   0  -8 -15   14.23    3.46
   0  -8  15   15.73    4.25
   0  -8  15    9.06    3.33
   0   8 -15   13.70    4.28
   0   8 -15   13.44    3.60
   0  -8 -16  176.16    8.43
   0  -8 -16  171.86    7.16
   0  -8  16  182.65    8.46
   0  -8  16  180.00    7.49
   0   8 -16  184.23    9.08
   0   8 -16  169.04    7.68
   0  -8 -17  194.57    8.99
   0  -8 -17  184.46    7.37
   0  -8  17  209.08    9.04
   0  -8  17  201.21    8.33
   0   8 -17  225.71    9.90
   0   8 -17  175.44    8.19
   0  -8 -18  332.72   10.15
   0  -8 -18  294.66    8.22
   0  -8  18  317.51   10.14
   0  -8  18  323.90    9.64
   0   8 -18  396.59   11.42
   0   8 -18  296.84    9.44
   0  -8 -19  154.35    9.18
   0  -8 -19  154.45    7.81
   0   8 -19  204.41   10.47
   0   8 -19  152.32    8.52
   0 -10  -2   70.91    3.13
   0 -10   2   75.86    3.13
   0  10  -2   88.53    2.54
   0  10  -2   68.49    2.23
   0  10   2   59.12    2.07
   0  10   2   64.81    2.37
   0 -10  -3  188.84    3.80
   0 -10   3  185.16    3.89
   0  10  -3  187.63    4.06
   0  10  -3  182.01    3.04
   0  10   3  193.27    3.38
   0  10   3  181.92    2.79
   0 -10  -4  393.43    4.82
   0 -10   4  420.18    5.15
   0 -10   4  428.23    3.75
   0  10  -4  406.19    4.17
   0 -10  -9  339.79    6.48
   0 -10  -9  320.40    5.21
   0 -10   9  314.51    6.44
   0 -10   9  329.06    5.58
   0  10  -9  367.48    7.06
   0  10  -9  337.16    5.97
   0  10   9  355.02    6.60
   0  10   9  330.16    5.54
   0 -10 -10  149.32    5.88
   0 -10 -10  135.02    4.60
   0 -10  10  133.32    5.62
   0 -10  10  150.53    4.96
   0  10 -10  145.33    6.16
   0  10 -10  138.08    5.20
   0  10  10  148.42    5.89
   0  10  10  138.57    4.86
   0 -10 -11  582.20    8.65
   0 -10 -11  562.20    7.12
   0 -10  11  577.66    8.62
   0 -10  11  570.90    7.51
   0  10 -11  611.59    9.28
   0  10 -11  548.08    7.82
   0  10  11  626.27    8.73
   0  10  11  557.08    7.52
   0 -10 -12  399.30    8.38
   0 -10 -12  355.26    6.58
   0 -10  12  387.27    8.12
   0 -10  12  385.74    7.09
   0  10 -12  432.12    8.76
   0  10 -12  372.52    7.40
   0  10  12  423.97    8.14
   0  10  12  386.12    7.15
   0 -10 -13  200.38    7.59
   0 -10 -13  182.61    6.07
   0 -10  13  198.27    7.28
   0 -10  13  205.04    6.34
   0  10 -13  213.64    7.82
   0  10 -13  183.78    6.52
   0  10  13  233.68    7.58
   0 -10 -14   27.51    4.37
   0 -10 -14   20.58    3.29
   0 -10  14   25.04    4.44
   0 -10  14   21.36    3.55
   0  10 -14   20.56    4.27
   0  10 -14   24.13    3.79
   0 -10 -15   20.09    4.54
   0 -10 -15    9.61    3.21
   0 -10  15   14.15    4.19
   0 -10  15   17.88    3.82
   0  10 -15   13.38    4.37
   0  10 -15   10.85    3.49
   0 -10 -16   11.41    4.39
   0 -10 -16   10.94    3.48
   0 -10  16    6.45    4.38
   0 -10  16    3.27    3.90
   0  10 -16    9.35    4.75
   0  10 -16    7.37    3.93
   0 -10 -17  197.26    8.78
   0 -10 -17  177.72    7.28
   0 -10  17  189.90    8.96
   0 -10  17  186.73    7.86
   0  10 -17  211.31    9.64
   0  10 -17  183.35    8.26
   0 -10 -18  163.72    8.78
   0 -10 -18  136.88    7.26
   0  10 -18  173.63    9.75
   0  10 -18  139.66    8.33
   0 -10 -19   24.32    5.30
   0 -10 -19   16.78    4.09
   0  10 -19   27.75    4.71
   0 -12  -3   96.08    3.51
   0 -12   3   93.31    3.46
   0  12  -3   78.91    2.60
   0  12   3    0.23    0.42
   0  12   3   79.73    2.49
   0  12   3   88.90    2.73
   0 -12  -4   28.69    3.38
   0 -12   4   29.38    3.45
   0 -12   4   43.38    2.47
   0 -12   4   28.94    2.21
   0  12  -4   37.83    3.52
   0  12  -4   30.62    2.64
   0  12   4   37.84    3.36
   0  12   4   33.25    2.53
   0 -12  -5  188.74    4.39
   0 -12  -5  183.87    2.93
   0 -12   5  181.36    4.47
   0 -12   5  182.65    3.29
   0  12  -5  207.29    4.73
   0  12  -5  181.13    3.77
   0  12   5  219.34    4.57
   0  12   5  194.09    3.55
   0 -12  -6  736.50    7.05
   0 -12   6  767.75    7.46
   0 -12   6  762.09    5.80
   0  12  -6  745.15    6.36
   0 -12  -7  511.37    6.63
   0 -12   7  526.71    6.92
   0 -12   7  511.92    5.48
   0  12  -7  574.00    7.24
   0  12  -7  502.98    5.95
   0  12   7  572.23    6.92
   0  12   7  525.30    5.74
   0 -12  -8   10.13    2.92
   0 -12  -8    6.23    1.90
   0 -12   8   10.73    2.75
   0 -12   8    7.19    2.16
   0  12  -8   12.64    2.93
   0  12  -8    7.30    2.26
   0  12   8   11.89    2.80
   0  12   8    6.25    2.10
   0 -12  -9  340.22    6.73
   0 -12  -9  336.38    5.26
   0 -12   9  324.46    6.59
   0 -12   9  338.04    5.51
   0  12  -9  372.65    7.22
   0  12  -9  331.74    5.96
   0  12   9  360.56    6.55
   0  12   9  339.83    5.70
   0 -12 -10  749.31    8.95
   0 -12 -10  698.90    7.12
   0 -12  10  739.57    9.21
   0 -12  10  763.30    7.80
   0  12 -10  799.37    9.70
   0  12 -10  731.09    8.20
   0  12  10  764.02    9.04
   0  12  10  761.70    7.97
   0 -12 -11  909.13   10.25
   0 -12 -11  877.46    8.29
   0 -12  11  850.97   10.15
   0 -12  11  909.10    8.93
   0  12 -11  857.17   10.41
   0  12 -11  819.93    9.10
   0  12  11  915.42   10.10
   0 -12 -12  434.08    8.77
   0 -12 -12  406.70    6.81
   0 -12  12  414.15    8.39
   0 -12  12  430.65    7.39
   0  12 -12  434.55    8.91
   0  12 -12  383.31    7.48
   0 -12 -13   74.94    6.71
   0 -12 -13   60.76    5.36
   0 -12  13   74.00    6.67
   0 -12  13   75.59    5.77
   0  12 -13   78.82    7.21
   0  12 -13   64.73    5.84
   0 -12 -14   26.70    4.44
   0 -12 -14   18.53    3.22
   0 -12  14   22.68    4.25
   0 -12  14   20.59    3.69
   0  12 -14   21.96    4.62
   0  12 -14   23.22    3.77
   0 -12 -15    5.64    4.16
   0 -12 -15    8.36    3.25
   0 -12  15    2.80    4.12
   0 -12  15    6.67    3.70
   0  12 -15   13.35    4.64
   0  12 -15    3.67    3.43
   0 -12 -16   39.31    4.94
   0 -12 -16   31.04    3.86
   0 -12  16   39.18    5.00
   0 -12  16   36.12    4.44
   0  12 -16   50.11    5.92
   0  12 -16   28.90    4.27
   0 -12 -17   10.62    4.43
   0 -12 -17   10.90    3.50
   0  12 -17   15.48    5.29
   0  12 -17    4.81    3.91
   0 -12 -18    5.23    4.45
   0 -12 -18    4.96    3.47
   0  12 -18    7.29    4.31
   0 -14  -2   32.94    2.25
   0  14  -2   33.14    2.45
   0  14  -2   24.71    2.16
   0 -14  -3   53.64    3.50
   0 -14   3   47.49    3.49
   0  14  -3   66.33    2.94
   0  14  -3   47.68    2.52
   0  14   3   48.22    2.41
   0  14   3   54.66    2.76
   0 -14  -4   50.65    3.64
   0 -14   4   42.36    3.66
   0  14  -4   33.66    2.86
   0  14   4   53.96    3.17
   0  14   4   38.51    2.70
   0 -14  -5  163.26    4.61
   0 -14   5  151.26    4.61
   0 -14   5  195.10    3.45
   0 -14   5  150.51    3.05
   0  14  -5  179.20    5.00
   0  14  -5  143.66    3.77
   0  14   5  173.40    4.63
   0  14   5  152.03    3.58
   0 -14  -6  135.37    4.62
   0 -14  -6  137.86    3.11
   0 -14   6  130.99    4.71
   0 -14   6  147.02    3.54
   0  14  -6  161.68    5.14
   0  14  -6  137.06    4.11
   0  14   6  166.19    4.96
   0  14   6  145.16    3.86
   0 -14  -7    4.58    2.58
   0 -14  -7    5.38    1.74
   0 -14   7    5.66    2.64
   0 -14   7    4.30    1.96
   0  14  -7    4.63    2.66
   0  14  -7    3.06    2.13
   0  14   7    4.70    2.61
   0 -14  -8  134.74    5.27
   0 -14  -8  127.49    3.83
   0 -14   8  133.64    5.37
   0 -14   8  131.99    4.30
   0  14  -8  137.22    5.54
   0  14  -8  127.07    4.63
   0  14   8  143.23    5.48
   0  14   8  134.04    4.39
   0 -14  -9  230.15    6.22
   0 -14  -9  214.98    4.65
   0 -14   9  211.30    6.22
   0 -14   9  222.86    5.19
   0  14  -9  233.06    6.59
   0  14  -9  215.11    5.57
   0  14   9  231.91    6.06
   0  14   9  227.72    5.20
   0 -14 -10  319.30    7.11
   0 -14 -10  294.54    5.44
   0 -14  10  284.99    7.16
   0 -14  10  304.43    6.07
   0  14 -10  317.18    7.47
   0  14 -10  273.48    6.29
   0  14  10  336.18    7.36
   0 -14 -11  319.77    7.63
   0 -14 -11  320.35    6.03
   0 -14  11  311.40    7.76
   0 -14  11  326.24    6.61
   0  14 -11  334.30    8.15
   0  14 -11  294.12    6.87
   0 -14 -12  590.31    9.54
   0 -14 -12  541.39    7.40
   0 -14  12  569.52    9.59
   0 -14  12  595.50    8.24
   0  14 -12  627.62   10.26
   0  14 -12  532.06    8.51
   0 -14 -13  504.41    9.48
   0 -14 -13  464.59    7.45
   0 -14  13  494.91    9.45
   0 -14  13  489.33    8.25
   0  14 -13  555.53   10.33
   0  14 -13  469.56    8.68
   0 -14 -14   41.85    4.76
   0 -14 -14   33.68    3.58
   0 -14  14   56.60    7.02
   0 -14  14   38.45    4.02
   0  14 -14   46.52    5.17
   0  14 -14   37.21    4.34
   0 -14 -15   14.73    4.58
   0 -14 -15    8.82    3.29
   0 -14  15   10.35    4.54
   0 -14  15   12.73    3.79
   0  14 -15   17.72    5.07
   0  14 -15   13.45    3.99
   0 -14 -16   -6.06    4.06
   0 -14 -16   -0.99    3.16
   0  14 -16   -2.91    4.80
   0  14 -16   -0.74    3.76
   0 -14 -17   27.25    5.10
   0 -14 -17   13.78    3.70
   0  14 -17   16.72    4.30
   0 -14 -18   29.82    5.06
   0 -14 -18   28.75    4.04
   0  14 -18   26.11    4.60
   0 -16  -2  308.53    4.75
   0  16  -2  370.24    3.93
   0  16  -2  240.92    3.29
   0 -16  -3  524.89    5.80
   0 -16   3  469.63    5.65
   0  16  -3  546.25    4.83
   0  16  -3  418.92    4.23
   0  16   3  470.61    4.17
   0  16   3  469.43    4.38
   0 -16  -4  769.76    6.92
   0 -16   4  712.32    6.90
   0  16  -4  638.70    5.38
   0  16   4    1.04    0.65
   0 -16  -5   33.28    2.82
   0 -16   5   29.24    2.92
   0  16  -5   25.13    2.20
   0  16   5   40.42    3.02
   0  16   5   24.26    2.08
   0 -16  -6   13.48    2.70
   0 -16   6   18.12    2.87
   0 -16   6   27.76    2.08
   0 -16   6   18.91    1.85
   0  16  -6   22.41    3.03
   0  16  -6   13.18    2.19
   0  16   6   22.37    2.91
   0  16   6   15.36    2.12
   0 -16  -7  176.87    5.49
   0 -16  -7  175.06    3.54
   0 -16   7  184.93    5.60
   0 -16   7  189.66    4.02
   0  16  -7  204.48    5.91
   0  16  -7  174.95    4.76
   0  16   7  208.48    5.64
   0  16   7  174.93    4.45
   0 -16  -8  119.11    5.31
   0 -16  -8  103.81    3.71
   0 -16   8  108.82    5.28
   0 -16   8  109.31    4.13
   0  16  -8  131.35    5.76
   0  16  -8  110.51    4.68
   0  16   8  119.24    5.41
   0 -16  -9   10.47    3.12
   0 -16  -9    9.97    2.25
   0 -16   9    7.43    3.19
   0 -16   9    9.93    2.56
   0  16  -9   12.36    3.39
   0  16  -9    5.91    2.68
   0 -16 -10  227.17    6.75
   0 -16 -10  228.16    5.16
   0 -16  10  208.91    6.97
   0 -16  10  221.14    5.60
   0  16 -10  252.39    7.30
   0  16 -10  207.99    6.10
   0 -16 -11  374.62    8.13
   0 -16 -11  356.14    6.11
   0 -16  11  334.82    8.08
   0 -16  11  363.38    6.72
   0  16 -11  365.95    8.41
   0  16 -11  323.12    7.16
   0 -16 -12  109.09    6.78
   0 -16 -12  110.05    5.27
   0 -16  12  104.35    6.98
   0 -16  12  108.75    5.82
   0  16 -12  117.85    7.25
   0  16 -12   90.49    6.17
   0 -16 -13   18.05    4.35
   0 -16 -13   13.80    3.06
   0 -16  13   18.16    4.39
   0 -16  13   17.07    3.51
   0  16 -13   15.98    4.36
   0  16 -13   12.37    3.58
   0 -16 -14  119.87    7.92
   0 -16 -14  117.14    6.04
   0 -16  14  113.83    7.62
   0 -16  14  133.82    6.63
   0  16 -14  128.80    8.40
   0  16 -14  130.45    7.35
   0 -16 -15  121.47    8.07
   0 -16 -15  104.46    6.10
   0  16 -15  145.92    8.84
   0  16 -15  118.58    7.50
   0 -16 -16   36.39    4.99
   0 -16 -16   36.04    3.86
   0  16 -16   28.03    4.53
   0 -16 -17  143.67    8.55
   0 -16 -17  148.92    6.96
   0 -18  -2   72.37    4.04
   0  18  -2   93.28    3.33
   0  18  -2   65.38    2.84
   0  18   2   53.99    2.94
   0 -18  -3   46.37    4.07
   0 -18   3   35.34    3.97
   0  18  -3   59.84    3.43
   0  18  -3   37.33    3.02
   0  18   3   47.76    2.97
   0  18   3   47.10    3.17
   0 -18  -4  884.78    7.58
   0 -18   4  820.65    7.60
   0  18  -4  732.57    5.95
   0  18   4  890.20    5.99
   0 -18   6 1632.00   10.98
   0 -18  -7  791.17    8.45
   0 -18   7  741.52    8.46
   0 -18   7  877.96    6.03
   0  18  -7  926.45    9.36
   0  18  -7  719.58    7.34
   0 -18  -8  276.25    6.56
   0 -18  -8  258.99    4.13
   0 -18   8  284.81    6.78
   0 -18   8  307.16    4.89
   0  18  -8  336.86    7.40
   0  18  -8  276.43    5.94
   0 -18  -9   12.97    3.50
   0 -18  -9   17.06    2.27
   0 -18   9   20.17    3.62
   0 -18   9   18.71    2.62
   0  18  -9   21.23    3.75
   0  18  -9   17.31    2.97
   0 -18 -10   57.85    6.05
   0 -18 -10   49.22    4.15
   0 -18  10   52.22    4.36
   0 -18  10   48.72    4.65
   0  18 -10   58.55    6.27
   0  18 -10   53.76    5.38
   0 -18 -11  102.33    6.70
   0 -18 -11  106.87    4.80
   0 -18  11   95.87    6.68
   0 -18  11  105.90    5.42
   0  18 -11  123.96    7.23
   0  18 -11  101.91    6.23
   0 -18 -12   80.53    6.71
   0 -18 -12   84.06    5.14
   0 -18  12   85.29    7.13
   0 -18  12   93.41    5.68
   0  18 -12   90.92    7.36
   0  18 -12   69.83    6.36
   0 -18 -13    7.62    4.15
   0 -18 -13    8.33    3.00
   0 -18  13    8.00    4.14
   0 -18  13    9.96    3.35
   0  18 -13   11.51    4.50
   0  18 -13   12.68    3.74
   0 -18 -14   29.10    4.56
   0 -18 -14   35.48    3.59
   0  18 -14   35.03    5.10
   0  18 -14   24.56    4.22
   0 -18 -15   39.18    5.00
   0 -18 -15   34.22    3.70
   0  18 -15   29.90    4.28
   0 -18 -16   -5.74    4.16
   0 -18 -16    0.49    3.21
   0  20  -1  230.88    3.63
   0 -20  -2   21.59    2.67
   0  20  -2   14.72    2.17
   0  20  -2    9.85    1.82
   0  20   2   11.88    1.93
   0  20   2   10.25    1.89
   0 -20  -3  385.23    5.87
   0 -20   3  319.85    5.73
   0  20  -3  412.29    5.08
   0  20  -3  270.50    4.33
   0  20   3  350.30    4.36
   0  20   3  316.32    4.47
   0 -20   4  808.89    7.91
   0  20  -4  703.51    6.18
   0  20   4  865.21    6.23
   0  20   4  847.32    6.41
   0 -20   5  910.19    8.67
   0  20  -5  801.35    7.01
   0 -20   6 1339.00   10.59
   0  20  -6 1227.00    8.79
   0 -20   7 1322.00   10.94
   0  20  -7 1270.00    9.45
   0 -20  -8  505.45    7.96
   0 -20   8  504.10    8.20
   0 -20   8  682.22    5.90
   0 -20   8  586.61    5.70
   0  20  -8  609.32    8.87
   0  20  -8  473.62    7.08
   0 -20  -9   41.11    3.98
   0 -20   9   35.45    3.96
   0 -20   9   43.40    4.38
   0  20  -9   41.83    4.31
   0  20  -9   30.36    3.38
   0 -20 -10    7.08    3.58
   0 -20 -10    5.92    2.21
   0 -20  10    5.38    3.71
   0 -20  10    2.96    2.68
   0  20 -10    3.24    3.94
   0  20 -10    6.06    3.12
   0 -20 -11   83.55    6.65
   0 -20 -11   72.63    4.45
   0 -20  11   75.99    6.75
   0 -20  11   75.31    5.22
   0  20 -11   73.97    7.08
   0  20 -11   63.87    6.03
   0 -20 -12   70.85    7.05
   0 -20 -12   67.42    4.91
   0 -20  12   62.38    7.02
   0 -20  12   70.51    5.57
   0  20 -12   80.93    7.65
   0  20 -12   62.02    6.55
   0 -20 -13   -0.60    3.83
   0 -20 -13    3.60    2.74
   0 -20  13    1.26    3.22
   0  20 -13   -2.32    4.27
   0  20 -13    4.38    3.55
   0 -20 -14    7.66    4.14
   0 -20 -14    5.88    2.85
   0 -20 -15   55.77    5.20
   0 -20 -15   54.67    5.59
   0  22   0  219.42    4.50
   0  22  -1  196.82    6.65
   0  22  -1  109.21    3.53
   0  22   1  152.84    4.49
   0 -22  -2    5.74    2.65
   0  22  -2   -1.53    1.88
   0  22   2   -0.63    1.96
   0 -22  -3  105.03    4.93
   0 -22   3   81.57    4.94
   0  22  -3   74.73    3.78
   0  22   3   92.26    4.02
   0 -22  -4  370.42    6.41
   0 -22   4  297.38    6.27
   0  22  -4  271.03    4.97
   0  22   4  320.04    5.14
   0 -22  -5  763.80    8.22
   0 -22   5  664.52    8.12
   0  22  -5  621.58    6.68
   0 -22  -6  825.59    8.77
   0 -22   6  756.80    8.88
   0  22  -6  713.10    7.48
   0 -22  -7  527.16    7.81
   0 -22   7  505.32    8.16
   0  22  -7  449.34    6.89
   0 -22  -8  177.13    6.37
   0 -22   8  172.58    6.73
   0  22  -8  160.85    5.89
   0 -22  -9    1.28    3.41
   0 -22   9    5.66    3.61
   0  22  -9   -2.57    3.80
   0  22  -9    0.80    3.00
   0 -22 -10   61.19    6.40
   0 -22  10   57.04    6.68
   0 -22  10   79.55    4.70
   0 -22  10   68.11    4.91
   0  22 -10   61.00    7.29
   0  22 -10   61.78    5.94
   0 -22 -11  113.44    7.01
   0 -22 -11  102.96    4.33
   0 -22  11  110.37    7.29
   0 -22  11  118.82    5.62
   0  22 -11  133.90    8.12
   0  22 -11   90.36    6.51
   0 -22 -12   75.19    7.00
   0 -22 -12   71.62    4.52
   0 -22  12   81.51    5.79
   0  22 -12   79.82    9.50
   0  22 -12   73.21    7.57
   0 -22 -13   13.93    4.29
   0 -22 -13   11.24    2.80
   0 -22 -14    1.45    4.10
   0 -22 -14    5.49    2.77
   0  24   0  521.96    5.38
   0  24  -1  327.31    4.82
   0  24   1  313.49    4.91
   0 -24  -2  193.64    5.65
   0  24  -2  145.84    4.20
   0  24   2  140.21    4.32
   0 -24  -3   -1.61    3.04
   0 -24   3   -0.01    2.92
   0  24  -3   -1.61    2.18
   0  24   3   -5.85    2.34
   0 -24  -4  132.70    5.61
   0 -24   4  117.62    5.65
   0  24  -4  104.61    4.45
   0  24   4  111.69    4.71
   0 -24  -5  138.51    5.89
   0 -24   5  129.46    6.00
   0  24  -5  107.10    4.69
   0 -24  -6   98.08    5.85
   0 -24   6   94.23    5.96
   0  24  -6   77.76    4.91
   0 -24  -7   82.59    5.97
   0 -24   7   85.30    6.19
   0  24  -7   79.88    5.22
   0 -24  -8   26.99    3.83
   0 -24   8   27.06    4.06
   0  24  -8   26.42    3.50
   0 -24  -9    8.65    3.58
   0 -24   9   10.18    4.02
   0  24  -9    4.52    3.38
   0 -24 -10  147.97    6.86
   0 -24  10  138.94    7.26
   0  24 -10  170.35    8.38
   0  24 -10  145.07    6.86
   0 -24 -11  321.52    8.17
   0 -24  11  400.47    6.06
   0 -24  11  350.41    6.20
   0 -24 -12  223.75    8.01
   0 -24  12  251.47    6.30
   0 -24 -13   44.27    5.01
   0 -24 -13   44.21    4.52
   0  26   0  807.25    6.89
   0  26  -1  710.98    6.57
   0  26   1  706.85    6.61
   0 -26  -2  340.82    6.75
   0  26  -2  269.47    5.15
   0  26   2  254.23    5.28
   0 -26  -3   74.94    5.70
   0 -26   3   95.51    5.71
   0  26  -3   81.59    4.46
   0  26   3   55.58    4.68
   0 -26  -4   45.11    3.85
   0 -26   4   49.12    5.52
   0  26  -4   48.35    4.43
   0  26   4   41.34    3.27
   0 -26  -5    1.61    3.43
   0 -26   5    4.88    3.43
   0  26  -5    4.03    2.72
   0  26   5   -0.28    2.88
   0 -26  -6   35.29    4.01
   0 -26   6   34.40    3.98
   0  26  -6   29.17    3.26
   0 -26  -7  139.26    6.46
   0 -26   7  136.34    6.74
   0  26  -7  121.13    5.74
   0 -26  -8   63.43    6.14
   0 -26   8   57.07    6.49
   0  26  -8   51.24    5.64
   0 -26  -9    4.32    3.58
   0 -26 -10  204.73    7.25
   0 -26 -11  430.34    8.85
   0 -26 -12  413.07    9.35
   0 -26  12  514.00    6.66
   0 -26  12  443.45   10.51
   0  28   0  967.07    7.92
   0  28  -1  645.92    6.82
   0  28   1  636.73    7.04
   0 -28  -2  486.59    7.71
   0  28  -2  415.62    6.19
   0  28   2  387.87    6.25
   0 -28  -3  201.71    6.63
   0 -28   3  233.10    6.66
   0  28  -3  194.29    5.33
   0  28   3  174.82    5.63
   0 -28  -4   22.96    3.72
   0 -28   4   26.81    3.75
   0  28  -4   22.06    3.01
   0  28   4   14.72    3.15
   0 -28  -5   18.04    3.66
   0 -28   5   27.01    3.92
   0  28  -5   16.97    3.10
   0  28   5   22.06    3.35
   0 -28  -6  171.51    6.67
   0 -28   6  180.79    6.99
   0  28  -6  161.02    5.81
   0 -28  -7  187.35    6.87
   0 -28   7  179.34    7.19
   0 -28  -8   31.71    3.94
   0 -28  -9   35.82    4.11
   0 -28 -10  221.15    7.44
   0  30   0  520.31    6.93
   0  30  -1  569.04    7.05
   0  30   1  555.64    7.17
   0 -30  -2  263.31    6.86
   0  30  -2  244.09    5.81
   0  30   2  232.01    6.02
   0 -30   3   -2.34    3.46
   0  30  -3    2.63    2.89
   0  30   3   -7.99    3.01
   0 -30  -4  274.67    6.89
   0 -30   4  246.01    7.16
   0  30   4  247.36    6.62
   0 -30  -5  372.58    7.56
   0 -30   5  341.17    7.98
   0 -30  -6  156.56    6.66
   0 -30  -7   16.20    3.83
   0 -32  -1  113.43    6.14
   0 -32  -2    3.95    3.45
   0 -32  -3  113.87    6.12
  -1  -1  -3   27.51    1.84
  -1  -1  -3   34.99    1.74
  -1  -1   3   28.34    1.84
  -1  -1   3   24.40    1.54
  -1   1  -3   31.24    1.83
  -1   1  -3   29.77    1.71
  -1   1   3   27.13    1.73
  -1   1   3   26.15    1.49
   1  -1  -3   26.42    1.78
   1  -1  -3   29.61    1.53
   1  -1   3   27.90    1.74
   1  -1   3   33.81    1.60
   1   1  -3   29.54    1.85
   1   1  -3   30.61    1.59
   1   1   3   33.17    1.85
   1   1   3   31.17    1.65
  -1  -1  -4  182.59    3.47
  -1  -1  -4  184.61    3.08
  -1  -1   4  168.99    3.37
  -1  -1   4  172.87    2.93
  -1   1  -4  169.61    3.44
  -1   1  -4  195.53    3.20
  -1   1   4  155.39    3.19
  -1   1   4  165.56    2.90
   1  -1  -4  170.77    3.33
   1  -1  -4  175.65    2.93
   1  -1   4  178.68    3.35
   1  -1   4  181.84    3.04
   1   1  -4  178.41    3.51
   1   1  -4  171.25    3.02
   1   1   4  172.27    3.41
   1   1   4  190.90    3.13
  -1  -1   6  494.04    5.83
  -1   1  -6  517.11    6.10
   1  -1   6  500.99    5.88
   1   1  -6  518.42    6.06
   1   1  -6  494.00    5.31
  -1  -1  -7  206.50    5.24
  -1  -1  -7  190.25    4.33
  -1  -1   7  178.11    4.70
  -1  -1   7  184.99    4.21
  -1   1  -7  192.82    5.00
  -1   1  -7  200.92    4.41
  -1   1   7  185.41    4.76
  -1   1   7  184.49    4.23
   1  -1  -7  199.27    4.99
   1  -1  -7  188.07    4.22
   1  -1   7  193.14    4.86
   1  -1   7  213.03    4.52
   1   1  -7  197.31    5.02
   1   1  -7  193.40    4.39
   1   1   7  209.79    4.87
   1   1   7  198.03    4.34
  -1  -1  -8   44.78    4.41
  -1  -1  -8   50.76    3.71
  -1  -1   8   39.04    3.91
  -1  -1   8   44.45    3.51
  -1   1  -8   46.13    4.38
  -1   1  -8   44.11    3.77
  -1   1   8   40.26    3.98
  -1   1   8   41.35    3.47
   1  -1  -8   42.56    4.15
   1  -1  -8   46.18    3.58
   1  -1   8   47.20    4.16
   1  -1   8   44.56    3.61
   1   1  -8   48.06    4.28
   1   1  -8   46.01    3.68
   1   1   8   49.58    4.10
   1   1   8   52.98    3.66
  -1  -1  -9  667.82    7.95
  -1  -1   9  637.95    7.59
  -1  -1   9  597.07    6.81
  -1   1  -9  645.44    7.82
  -1   1  -9  695.73    7.19
  -1   1   9  651.27    7.60
  -1   1   9  627.53    6.77
   1  -1  -9  672.59    7.69
   1   1  -9  673.85    7.95
   1   1  -9  635.56    7.01
   1   1   9  660.90    7.66
   1   1   9  668.13    6.98
  -1  -1 -10 1148.00   10.34
  -1   1 -10 1167.00   10.50
  -1  -1 -11  974.84   10.30
  -1  -1 -11  990.67    9.17
  -1  -1  11  953.75    9.04
  -1   1 -11  966.72   10.34
  -1   1 -11  922.73    9.02
  -1   1  11  949.73    9.97
   1  -1 -11  991.99   10.35
   1   1 -11 1040.00   10.51
   1   1 -11  981.51    9.28
   1   1  11 1001.00   10.04
  -1  -1 -12  698.93    9.67
  -1  -1 -12  658.62    8.31
  -1  -1  12  664.10    9.30
  -1  -1  12  619.46    8.05
  -1   1 -12  655.21    9.56
  -1   1 -12  667.86    8.44
  -1   1  12  682.36    9.48
  -1   1  12  613.87    8.03
   1  -1 -12  684.87    9.49
   1  -1 -12  637.08    8.32
   1  -1  12  690.31    9.44
   1  -1  12  674.94    8.52
   1   1 -12  692.84    9.58
   1   1 -12  652.77    8.42
   1   1  12  689.02    9.29
   1   1  12  678.91    8.44
  -1  -1 -13  418.02    8.83
  -1  -1 -13  376.41    7.43
  -1  -1  13  414.63    8.53
  -1  -1  13  395.06    7.37
  -1   1 -13  422.02    8.75
  -1   1 -13  396.20    7.55
  -1   1  13  432.55    8.74
  -1   1  13  422.59    7.51
   1  -1 -13  422.75    8.57
   1  -1 -13  400.97    7.49
   1  -1  13  435.22    8.47
   1  -1  13  448.92    7.85
   1   1 -13  442.86    8.79
   1   1 -13  401.01    7.76
   1   1  13  432.32    8.53
   1   1  13  433.03    7.82
  -1  -1 -14  256.34    8.27
  -1  -1 -14  230.88    6.91
  -1  -1  14  249.94    7.93
  -1  -1  14  240.35    6.80
  -1   1 -14  251.40    8.21
  -1   1 -14  236.10    7.00
  -1   1  14  265.10    8.09
  -1   1  14  237.67    6.82
   1  -1 -14  251.95    8.07
   1  -1 -14  239.26    6.87
   1  -1  14  256.91    7.78
   1  -1  14  264.92    7.20
   1   1 -14  257.46    8.15
   1   1 -14  235.74    7.05
   1   1  14  250.82    7.74
   1   1  14  261.20    7.28
  -1  -1 -15  107.56    7.57
  -1  -1 -15  100.97    6.38
  -1  -1  15  101.53    7.23
  -1  -1  15   93.12    5.96
  -1   1 -15  101.55    7.45
  -1   1 -15   96.21    6.33
  -1   1  15   99.11    7.07
  -1   1  15   96.40    6.14
   1  -1 -15   93.64    7.34
   1  -1 -15   95.86    6.58
   1  -1  15  105.93    6.97
   1  -1  15   99.39    6.33
   1   1 -15  106.27    7.45
   1   1 -15   90.69    6.45
   1   1  15   97.90    7.03
   1   1  15  101.23    6.41
  -1  -1 -16   21.27    4.46
  -1  -1 -16   15.32    3.72
  -1  -1  16   20.90    4.54
  -1  -1  16   18.43    3.47
  -1   1 -16   15.36    4.28
  -1   1 -16   21.85    4.04
  -1   1  16   21.88    4.40
  -1   1  16   15.53    3.35
   1  -1 -16   12.22    4.50
   1  -1 -16   16.67    3.67
   1  -1  16   14.90    4.12
   1  -1  16   21.16    3.81
   1   1 -16   23.84    4.44
   1   1 -16   19.44    3.78
   1   1  16   24.06    4.53
   1   1  16   22.80    3.96
  -1  -1 -17    4.21    4.34
  -1  -1 -17   -0.84    3.56
  -1  -1  17   -0.11    4.05
  -1  -1  17    2.70    3.47
  -1   1 -17    3.32    4.36
  -1   1 -17   -4.19    3.39
  -1   1  17   -1.96    4.21
  -1   1  17   -3.43    3.41
   1  -1 -17   -6.09    4.18
   1  -1 -17   -1.13    3.46
   1  -1  17    0.08    4.13
   1  -1  17   -4.34    3.58
   1   1 -17    1.03    4.42
   1   1 -17   -0.14    3.63
   1   1  17    1.89    4.21
   1   1  17   -3.66    3.54
  -1  -1 -18    3.61    4.56
  -1  -1 -18   -3.14    3.53
  -1  -1  18    1.11    4.38
  -1  -1  18    5.79    3.74
  -1   1 -18   -3.23    4.59
  -1   1 -18   -1.29    3.69
  -1   1  18   -0.19    4.42
  -1   1  18   -0.64    3.75
   1  -1 -18    2.46    4.50
   1  -1 -18    0.39    3.79
   1  -1  18   -6.97    4.32
   1  -1  18    1.56    3.92
   1   1 -18    1.64    4.65
   1   1 -18    3.50    3.93
   1   1  18    4.78    4.51
   1   1  18    2.90    3.87
  -1  -1 -19   -3.76    4.56
  -1  -1 -19   -1.82    3.54
  -1  -1  19   -2.65    4.39
  -1  -1  19   -2.18    3.79
  -1   1 -19   -1.19    4.72
  -1   1 -19   -4.45    3.58
  -1   1  19   -3.55    4.44
   1  -1 -19   -3.88    4.54
   1  -1 -19    1.31    3.73
   1  -1  19   -6.54    4.45
   1  -1  19   -8.61    3.86
   1   1 -19   -4.01    4.62
   1   1 -19   -5.71    3.64
   1   1  19   -7.77    4.37
   1   1  19   -4.49    3.88
  -1  -1 -20    8.28    4.99
  -1  -1 -20    4.29    3.79
  -1  -1  20   11.24    4.86
  -1  -1  20    6.89    4.13
  -1   1 -20    6.62    5.00
  -1   1 -20    4.73    4.11
   1  -1 -20    8.21    5.01
   1  -1 -20    8.98    4.06
   1  -1  20    3.05    4.71
   1  -1  20    5.18    4.26
   1   1 -20    7.42    5.03
   1   1 -20    6.16    4.09
   1   1  20   12.09    5.15
   1   3   0    0.06    0.16
  -1  -3  -3  376.08    3.60
  -1   3   3  285.47    2.47
   1  -3  -3  355.86    3.26
   1  -3   3  351.80    3.25
  -1  -3  -4   29.95    3.01
  -1  -3  -4   29.48    2.62
  -1  -3   4   28.44    3.04
  -1  -3   4   21.89    2.43
  -1   3  -4   27.92    2.97
  -1   3  -4   28.28    2.61
  -1   3   4   24.79    1.97
  -1   3   4   26.49    2.35
   1  -3  -4   23.77    2.80
   1  -3  -4   22.12    2.37
   1  -3   4   23.63    1.87
   1  -3   4   33.17    2.52
   1   3  -4   28.57    2.17
   1   3  -4   23.31    2.68
   1   3   4   27.71    3.02
   1   3   4   36.03    2.64
  -1  -3  -5  358.72    4.53
  -1  -3   5  339.39    5.12
  -1  -3   5  356.25    4.39
  -1   3  -5  365.24    5.10
  -1   3  -5  384.70    4.66
  -1   3   5  311.14    4.79
  -1   3   5  346.02    4.19
   1  -3  -5  354.79    4.91
   1  -3  -5  343.92    4.23
   1  -3   5  341.59    4.88
   1  -3   5  387.67    4.50
   1   3  -5  363.04    5.19
   1   3   5  358.31    5.02
  -1   3  -6  648.01    6.51
   1   3   6  701.30    6.11
  -1  -3  -7  460.85    6.28
  -1  -3   7  427.72    5.95
  -1  -3   7  455.94    5.43
  -1   3  -7  459.82    6.22
  -1   3  -7  462.30    5.51
  -1   3   7  427.66    5.96
  -1   3   7  430.55    5.21
   1  -3  -7  402.69    5.80
   1  -3   7  433.06    6.03
   1   3  -7  471.03    6.37
   1   3  -7  463.00    5.64
   1   3   7  430.82    6.08
   1   3   7  451.44    5.46
  -1  -3  -8   95.09    4.69
  -1  -3  -8   93.94    3.93
  -1  -3   8   97.01    4.35
  -1  -3   8   91.38    3.79
  -1   3  -8   92.72    4.68
  -1   3  -8  100.63    4.11
  -1   3   8   96.30    4.53
  -1   3   8   88.37    3.71
   1  -3  -8   91.26    4.53
   1  -3  -8   88.52    3.73
   1  -3   8   88.77    4.42
   1  -3   8  105.48    4.06
   1   3  -8   93.25    4.64
   1   3  -8   93.99    4.04
   1   3   8  106.41    4.59
   1   3   8  100.55    3.98
  -1  -3  -9   44.39    4.70
  -1  -3  -9   48.15    3.94
  -1  -3   9   45.70    4.33
  -1  -3   9   44.37    3.92
  -1   3  -9   40.89    4.69
  -1   3  -9   48.06    4.13
  -1   3   9   47.76    4.38
  -1   3   9   45.87    3.69
   1  -3  -9   48.09    4.50
   1  -3  -9   44.83    3.72
   1  -3   9   48.98    4.48
   1  -3   9   51.04    4.05
   1   3  -9   42.48    4.75
   1   3  -9   43.20    4.08
   1   3   9   46.91    4.42
   1   3   9   50.40    3.80
  -1  -3 -10  605.02    8.27
  -1  -3 -10  546.48    6.93
  -1  -3  10  555.62    7.75
  -1  -3  10  552.82    7.04
  -1   3 -10  566.54    8.07
  -1   3 -10  578.40    7.25
  -1   3  10  582.27    7.82
  -1   3  10  578.34    7.06
   1  -3 -10  567.49    7.94
   1  -3 -10  574.32    6.91
   1  -3  10  583.67    8.11
   1  -3  10  629.35    7.45
   1   3 -10  595.40    8.39
   1   3 -10  555.89    7.25
   1   3  10  600.58    8.04
   1   3  10  592.36    7.13
  -1  -3 -11  996.88   10.43
  -1  -3  11  907.31    9.93
  -1  -3  11  934.68    9.01
  -1   3 -11  971.18   10.30
  -1   3 -11  910.46    8.98
  -1   3  11  943.67    9.83
   1  -3 -11  956.55   10.17
   1  -3  11  953.28   10.18
   1   3 -11  951.07   10.36
   1   3  11 1007.00    9.32
  -1  -3 -12  661.46    9.48
  -1  -3 -12  609.44    8.04
  -1  -3  12  584.44    8.89
  -1  -3  12  570.06    7.93
  -1   3 -12  596.65    9.13
  -1   3 -12  631.83    8.30
  -1   3  12  609.80    8.90
  -1   3  12  581.67    7.78
   1  -3 -12  640.92    9.38
   1  -3 -12  605.81    7.95
   1  -3  12  645.69    9.33
   1  -3  12  662.38    8.45
   1   3 -12  636.60    9.46
   1   3 -12  595.33    8.35
   1   3  12  655.51    9.30
   1   3  12  633.66    8.25
  -1  -3 -13  172.61    7.19
  -1  -3 -13  166.80    6.04
  -1  -3  13  173.33    6.94
  -1  -3  13  157.16    6.00
  -1   3 -13  161.09    7.06
  -1   3 -13  172.77    6.29
  -1   3  13  175.91    6.85
  -1   3  13  178.26    6.10
   1  -3 -13  187.98    7.13
   1  -3 -13  166.63    5.96
   1  -3  13  181.21    7.00
   1  -3  13  177.33    6.26
   1   3 -13  171.19    7.26
   1   3 -13  169.51    6.37
   1   3  13  194.08    7.25
   1   3  13  178.63    6.31
  -1  -3 -14   10.66    3.89
  -1  -3 -14   11.53    3.21
  -1  -3  14   16.05    3.91
  -1  -3  14    8.24    3.09
  -1   3 -14   20.49    4.22
  -1   3 -14   12.32    3.42
  -1   3  14   13.38    3.82
  -1   3  14   12.20    3.11
   1  -3 -14   14.88    3.87
   1  -3 -14   11.69    3.13
   1  -3  14   19.84    4.00
   1  -3  14   15.08    3.31
   1   3 -14   15.76    4.11
   1   3 -14   14.94    3.46
   1   3  14    9.84    3.94
   1   3  14   13.66    3.50
  -1  -3 -15   -1.87    4.04
  -1  -3 -15   -1.12    3.25
  -1  -3  15    2.25    3.78
  -1  -3  15    3.70    3.02
  -1   3 -15    5.62    3.87
  -1   3 -15    7.58    3.51
  -1   3  15   -1.88    3.76
  -1   3  15    4.49    3.19
   1  -3 -15   -0.54    3.84
   1  -3 -15    1.91    3.20
   1  -3  15    5.33    3.98
   1  -3  15    0.96    3.28
   1   3 -15    5.09    3.93
   1   3 -15    5.30    3.22
   1   3  15    4.09    4.04
   1   3  15   -0.66    3.30
  -1  -3 -16   23.78    4.66
  -1  -3 -16   28.82    4.00
  -1  -3  16   22.99    4.45
  -1  -3  16   24.25    3.68
  -1   3 -16   24.11    4.79
  -1   3 -16   22.14    4.07
  -1   3  16   20.90    4.33
  -1   3  16   21.94    3.64
   1  -3 -16   21.96    4.60
   1  -3 -16   21.78    3.80
   1  -3  16   28.45    4.58
   1  -3  16   27.29    3.92
   1   3 -16   31.20    4.80
   1   3 -16   22.51    3.77
   1   3  16   33.58    4.79
   1   3  16   29.01    4.09
  -1  -3 -17   34.61    4.93
  -1  -3 -17   29.22    4.13
  -1  -3  17   42.60    5.20
  -1  -3  17   38.65    4.51
  -1   3 -17   41.47    5.38
  -1   3 -17   27.70    3.99
  -1   3  17   38.62    4.91
   1  -3 -17   30.63    4.87
   1  -3 -17   31.67    4.28
   1  -3  17   35.81    5.17
   1  -3  17   36.27    4.44
   1   3 -17   40.30    5.31
   1   3 -17   30.54    4.20
   1   3  17   43.14    5.17
   1   3  17   54.33    6.78
  -1  -3 -18   66.69    8.20
  -1  -3 -18   59.41    6.84
  -1  -3  18   73.19    8.34
  -1  -3  18   61.95    7.06
  -1   3 -18   61.56    5.98
  -1   3 -18   40.44    4.56
   1  -3 -18   44.86    5.33
   1  -3 -18   45.43    4.78
   1  -3  18   55.60    5.59
   1  -3  18   54.74    5.17
   1   3 -18   45.83    5.61
   1   3 -18   44.13    4.81
   1   3  18   48.74    5.46
   1   3  18   63.59    7.14
  -1  -3 -19   31.36    5.19
  -1  -3 -19   22.24    4.09
  -1  -3  19   24.30    5.35
  -1  -3  19   20.99    4.34
  -1   3 -19   25.45    5.48
  -1   3 -19   21.40    4.48
   1  -3 -19   18.32    4.97
   1  -3 -19   23.98    4.32
   1  -3  19   27.71    5.31
   1  -3  19   26.69    4.89
   1   3 -19   27.09    5.26
   1   3 -19   18.59    4.19
  -1  -5   0  153.11    1.73
   1   5   0   15.63    0.89
   1   5   0  167.73    1.89
  -1  -5  -1   17.47    1.38
  -1  -5  -1   16.83    1.42
  -1  -5   1   21.60    1.41
  -1  -5   1   16.73    1.31
  -1   5  -1   16.86    1.21
  -1   5   1   17.54    1.17
   1  -5  -1   16.62    1.12
   1  -5   1   17.48    1.18
   1   5  -1   -0.21    0.13
   1   5  -1   15.80    1.43
   1   5   1   18.14    1.50
  -1  -5  -2  114.96    2.56
  -1  -5  -2  101.28    2.02
  -1  -5   2  100.10    2.48
  -1  -5   2   96.31    2.01
  -1   5  -2   98.44    2.11
  -1   5  -2  121.04    1.63
   1  -5  -2   88.36    1.92
   1  -5   2   88.11    1.97
   1   5  -2  108.35    2.65
   1   5  -2   94.73    2.10
   1   5   2  109.26    2.48
   1   5   2   50.63    1.45
  -1  -5  -3  254.28    3.74
  -1  -5  -3  245.40    3.19
  -1  -5   3  241.26    3.71
  -1  -5   3  222.91    3.00
  -1   5  -3  232.04    3.40
  -1   5  -3  262.65    2.96
  -1   5   3  220.76    3.17
  -1   5   3  225.12    2.57
   1  -5  -3  229.78    3.16
   1  -5  -3  233.65    2.37
   1  -5   3  209.66    3.19
   1  -5   3  258.99    2.74
   1   5  -3  269.68    3.87
   1   5  -3  233.98    3.22
   1   5   3  260.36    3.77
   1   5   3  251.96    3.19
  -1  -5  -4  321.80    4.62
  -1  -5   4  295.03    4.51
  -1  -5   4  277.21    3.74
  -1   5  -4  298.95    4.34
  -1   5  -4  314.22    3.78
  -1   5   4  286.57    4.10
  -1   5   4   49.05    1.73
   1  -5  -4  286.77    4.12
   1  -5  -4  295.57    3.30
   1  -5   4  280.26    4.11
   1   5  -4  322.42    4.75
   1   5  -4  302.88    4.07
   1   5   4  318.91    4.60
   1   5   4  323.05    3.98
  -1  -5  -6  660.68    6.64
  -1  -5   6  610.21    5.65
  -1   5  -6  629.34    6.39
   1  -5   6  560.80    6.05
   1   5  -6  631.14    5.91
  -1  -5  -7  569.05    6.65
  -1  -5   7  560.21    6.64
  -1  -5   7  540.53    5.77
  -1   5  -7  580.20    6.69
  -1   5  -7  565.88    5.88
  -1   5   7  527.40    5.55
   1  -5  -7  524.72    6.30
   1  -5  -7  529.35    5.45
   1  -5   7  510.63    6.27
   1   5  -7  582.94    6.94
   1   5  -7  560.62    6.05
   1   5   7  563.95    5.93
  -1  -5  -8  355.05    6.05
  -1  -5  -8  345.36    5.23
  -1  -5   8  364.72    6.14
  -1  -5   8  340.12    5.28
  -1   5  -8  371.99    6.24
  -1   5  -8  361.04    5.38
  -1   5   8  325.15    5.65
  -1   5   8  323.51    5.01
   1  -5  -8  336.80    5.84
   1  -5  -8  320.51    4.92
   1  -5   8  352.29    5.88
   1  -5   8  365.08    5.31
   1   5  -8  368.06    6.22
   1   5  -8  336.16    5.38
   1   5   8  356.70    6.00
   1   5   8  372.92    5.42
  -1  -5  -9   18.81    3.07
  -1  -5  -9   14.17    2.34
  -1  -5   9   18.08    2.80
  -1  -5   9   12.74    2.33
  -1   5  -9   17.63    2.83
  -1   5  -9   13.09    2.47
  -1   5   9   19.18    2.89
  -1   5   9   12.80    2.26
   1  -5  -9   12.69    2.83
   1  -5  -9   16.10    2.37
   1  -5   9   18.09    2.73
   1  -5   9   15.84    2.41
   1   5  -9   20.31    3.15
   1   5  -9   15.19    2.46
   1   5   9   15.97    2.83
   1   5   9   14.85    2.33
  -1  -5 -10   84.37    5.33
  -1  -5 -10   86.18    4.47
  -1  -5  10   80.76    4.99
  -1  -5  10   82.22    4.57
  -1   5 -10   87.29    5.35
  -1   5 -10   85.68    4.75
  -1   5  10   78.03    4.88
  -1   5  10   82.36    4.32
   1  -5 -10   84.53    5.20
   1  -5 -10   86.24    4.37
   1  -5  10   83.11    5.16
   1  -5  10   91.74    4.65
   1   5 -10   74.02    5.54
   1   5 -10   82.34    4.79
   1   5  10   88.59    5.19
   1   5  10   82.61    4.55
  -1  -5 -11  191.81    6.68
  -1  -5 -11  177.29    5.38
  -1  -5  11  171.41    6.06
  -1  -5  11  170.32    5.43
  -1   5 -11  192.73    6.47
  -1   5 -11  178.17    5.57
  -1   5  11  180.32    5.97
  -1   5  11  183.04    5.38
   1  -5 -11  190.28    6.36
   1  -5 -11  172.77    5.24
   1  -5  11  182.67    6.20
   1  -5  11  193.24    5.64
   1   5 -11  189.97    6.77
   1   5 -11  173.45    5.82
   1   5  11  195.89    6.30
   1   5  11  187.72    5.50
  -1  -5 -12  166.42    6.79
  -1  -5 -12  147.86    5.56
  -1  -5  12  159.58    6.24
  -1  -5  12  147.96    5.56
  -1   5 -12  178.10    6.79
  -1   5 -12  161.67    5.83
  -1   5  12  151.36    6.14
  -1   5  12  152.95    5.42
   1  -5 -12  173.59    6.63
   1  -5 -12  157.09    5.46
   1  -5  12  163.08    6.48
   1  -5  12  174.12    5.76
   1   5 -12  162.76    6.94
   1   5 -12  140.05    6.02
   1   5  12  165.97    6.69
   1   5  12  155.73    5.67
  -1  -5 -13   55.78    4.61
  -1  -5 -13   47.29    5.24
  -1  -5  13   49.88    5.82
  -1  -5  13   50.66    5.21
  -1   5 -13   59.85    6.37
  -1   5 -13   52.11    5.32
  -1   5  13   56.99    5.86
  -1   5  13   52.22    4.99
   1  -5 -13   51.10    6.27
   1  -5 -13   47.84    5.21
   1  -5  13   56.70    6.15
   1  -5  13   59.35    5.31
   1   5 -13   55.16    4.73
   1   5 -13   46.90    5.60
   1   5  13   58.44    6.23
   1   5  13   49.92    5.45
  -1  -5 -14   -2.19    3.77
  -1  -5 -14   -4.98    2.86
  -1  -5  14    1.72    3.47
  -1  -5  14    0.96    2.89
  -1   5 -14    1.42    3.61
  -1   5 -14   -1.12    3.06
  -1   5  14    2.11    3.49
  -1   5  14    0.31    2.83
   1  -5 -14   -0.20    3.77
   1  -5 -14    0.97    3.10
   1  -5  14    0.50    3.68
   1  -5  14   -0.35    2.98
   1   5 -14    1.37    3.73
   1   5 -14    1.44    3.14
   1   5  14   -6.84    3.70
   1   5  14   -6.95    3.11
  -1  -5 -15   91.81    7.46
  -1  -5 -15   85.31    6.13
  -1  -5  15   95.28    7.17
  -1  -5  15   95.27    6.05
  -1   5 -15   98.72    7.42
  -1   5 -15   94.47    6.42
  -1   5  15   92.53    6.87
  -1   5  15   94.93    6.04
   1  -5 -15   90.38    7.36
   1  -5 -15   90.56    6.37
   1  -5  15  108.79    7.50
   1  -5  15   98.60    6.45
   1   5 -15  106.04    7.76
   1   5 -15   88.40    6.47
   1   5  15   89.82    7.41
   1   5  15   97.51    6.49
  -1  -5 -16  176.01    8.48
  -1  -5 -16  176.57    7.05
  -1  -5  16  193.56    8.37
  -1  -5  16  174.43    7.19
  -1   5 -16  189.44    8.48
  -1   5 -16  167.88    7.33
  -1   5  16  179.05    7.98
   1  -5 -16  189.76    8.48
   1  -5 -16  176.92    7.35
   1  -5  16  192.42    8.39
   1  -5  16  188.81    7.43
   1   5 -16  176.47    8.73
   1   5 -16  160.86    7.44
   1   5  16  210.96    8.75
   1   5  16  177.36    7.30
  -1  -5 -17  230.53    9.28
  -1  -5 -17  224.03    7.77
  -1  -5  17  249.44    9.17
  -1  -5  17  224.12    8.02
  -1   5 -17  244.04    9.47
  -1   5 -17  198.75    7.80
   1  -5 -17  221.16    9.04
   1  -5 -17  209.38    7.89
   1  -5  17  231.66    9.10
   1  -5  17  247.25    8.33
   1   5 -17  268.00    9.87
   1   5 -17  221.56    8.42
   1   5  17  245.68    9.43
  -1  -5 -18  222.34    9.47
  -1  -5 -18  222.16    7.94
  -1  -5  18  222.78    9.30
  -1  -5  18  208.16    8.38
  -1   5 -18  243.66    9.88
  -1   5 -18  207.86    8.22
   1  -5 -18  218.41    9.31
   1  -5 -18  197.40    8.04
   1  -5  18  236.51    9.64
   1  -5  18  223.12    8.40
   1   5 -18  272.15   10.26
   1   5 -18  208.56    8.59
  -1  -5 -19  107.88    8.81
  -1  -5 -19   96.26    7.31
  -1  -5  19  115.29    8.85
  -1  -5  19   99.38    7.62
  -1   5 -19  114.75    9.29
  -1   5 -19   87.73    7.45
   1  -5 -19   93.50    8.56
   1  -5 -19   82.02    7.45
   1  -5  19  101.64    8.86
   1  -5  19  111.08   10.06
   1   5 -19  130.19    9.64
   1   5 -19   92.18    7.85
  -1  -7   0  284.89    2.47
  -1  -7  -1    6.33    1.17
  -1  -7  -1    7.55    1.20
  -1  -7   1   13.31    1.39
  -1  -7   1    7.41    1.12
   1  -7  -1    8.88    1.23
   1  -7   1    6.49    1.15
   1   7  -1   13.84    1.46
   1   7  -1    5.15    1.30
   1   7   1   10.32    1.32
   1   7   1    7.21    1.41
  -1  -7  -2  206.29    3.65
  -1  -7  -2  179.71    2.73
  -1  -7  -2  185.61    2.84
  -1  -7   2  179.81    3.60
  -1  -7   2  219.03    3.03
  -1  -7   2  155.26    2.59
  -1   7  -2  185.63    3.04
  -1   7   2  192.44    2.72
   1  -7  -2  171.30    2.78
   1  -7   2  168.91    2.88
   1   7  -2  167.35    2.95
   1   7   2  212.28    3.51
   1   7   2   61.79    1.85
  -1  -7  -9  325.59    6.46
  -1  -7  -9  311.58    5.43
  -1  -7   9  345.12    6.49
  -1  -7   9  345.60    5.63
  -1   7  -9  337.34    6.56
  -1   7  -9  325.13    5.79
  -1   7   9  338.73    6.33
  -1   7   9  317.21    5.41
   1  -7  -9  341.71    6.46
   1  -7  -9  321.08    5.35
   1  -7   9  316.87    6.24
   1  -7   9  357.82    5.67
   1   7  -9  357.31    6.85
   1   7  -9  339.54    5.93
   1   7   9  348.81    6.57
   1   7   9  343.15    5.73
  -1  -7 -10    2.31    2.86
  -1  -7 -10    0.15    2.22
  -1  -7  10    1.34    2.76
  -1  -7  10    0.57    2.27
  -1   7 -10    0.05    2.79
  -1   7 -10    2.46    2.32
  -1   7  10    1.39    2.63
  -1   7  10    2.11    2.21
   1  -7 -10    2.30    2.70
   1  -7 -10   -1.69    2.19
   1  -7  10   -0.57    2.58
   1  -7  10    1.44    2.36
   1   7 -10   -0.37    2.95
   1   7 -10   -0.09    2.41
   1   7  10   -0.29    2.69
   1   7  10   -2.00    2.26
  -1  -7 -11   75.52    5.78
  -1  -7 -11   67.26    4.58
  -1  -7  11   73.35    5.28
  -1  -7  11   69.68    4.61
  -1   7 -11   74.70    5.72
  -1   7 -11   75.46    5.09
  -1   7  11   79.49    5.30
  -1   7  11   68.36    4.46
   1  -7 -11   71.08    5.51
   1  -7 -11   73.21    4.62
   1  -7  11   66.99    5.46
   1  -7  11   64.02    4.78
   1   7 -11   68.70    5.80
   1   7 -11   71.58    5.17
   1   7  11   85.81    5.63
   1   7  11   74.95    4.83
  -1  -7 -12   51.00    6.04
  -1  -7 -12   46.98    4.74
  -1  -7  12   53.89    5.57
  -1  -7  12   45.81    4.74
  -1   7 -12   49.70    6.06
  -1   7 -12   43.91    5.07
  -1   7  12   57.41    5.67
  -1   7  12   41.56    4.65
   1  -7 -12   50.21    5.78
   1  -7 -12   47.74    4.80
   1  -7  12   49.68    5.70
   1  -7  12   51.76    5.04
   1   7 -12   55.84    6.16
   1   7 -12   49.10    5.32
   1   7  12   56.33    5.82
   1   7  12   54.80    5.04
  -1  -7 -13    8.40    3.83
  -1  -7 -13    4.83    2.85
  -1  -7  13    7.37    3.41
  -1  -7  13    6.53    2.99
  -1   7 -13    2.34    3.65
  -1   7 -13    6.68    3.11
  -1   7  13   10.97    3.57
  -1   7  13    3.61    2.69
   1  -7 -13    3.88    3.46
   1  -7 -13    7.57    2.93
   1  -7  13    5.66    3.48
   1  -7  13    3.41    3.02
   1   7 -13    7.19    3.73
   1   7 -13    3.33    3.02
   1   7  13    5.88    3.54
   1   7  13    5.63    3.06
  -1  -7 -14    0.02    3.87
  -1  -7 -14   -0.27    2.94
  -1  -7  14    4.46    3.65
  -1  -7  14    5.96    3.00
  -1   7 -14    6.41    4.00
  -1   7 -14    1.60    3.12
  -1   7  14    2.54    3.58
  -1   7  14    6.47    3.56
   1  -7 -14    5.46    3.82
   1  -7 -14    7.21    3.09
   1  -7  14    2.05    3.86
   1  -7  14    3.17    3.17
   1   7 -14    2.19    3.81
   1   7 -14    3.18    3.15
   1   7  14   -1.06    3.68
   1   7  14    5.87    3.32
  -1  -7 -15   62.77    7.28
  -1  -7 -15   60.25    5.89
  -1  -7  15   75.30    6.95
  -1  -7  15   57.43    6.02
  -1   7 -15   60.20    7.28
  -1   7 -15   67.88    6.44
  -1   7  15   78.20    7.06
   1  -7 -15   65.44    7.12
   1  -7 -15   67.30    6.04
   1  -7  15   66.93    7.06
   1  -7  15   71.38    6.19
   1   7 -15   63.70    5.43
   1   7 -15   60.00    6.41
   1   7  15   61.33    7.04
  -1  -7 -16  170.05    8.53
  -1  -7 -16  166.14    6.89
  -1  -7  16  162.48    8.03
  -1  -7  16  152.55    7.18
  -1   7 -16  176.06    8.67
  -1   7 -16  160.80    7.32
   1  -7 -16  166.52    8.42
   1  -7 -16  165.71    7.14
   1  -7  16  178.51    8.57
   1  -7  16  193.74    7.58
   1   7 -16  189.13    9.07
   1   7 -16  152.70    7.51
   1   7  16  190.08   10.00
  -1  -7 -17  231.80    9.13
  -1  -7 -17  222.50    7.59
  -1  -7  17  242.15    9.31
  -1  -7  17  243.66    8.29
  -1   7 -17  262.34    9.85
  -1   7 -17  216.20    8.08
   1  -7 -17  259.43    9.47
   1  -7 -17  223.31    7.95
   1  -7  17  259.99    9.56
   1  -7  17  247.61    8.18
   1   7 -17  274.93   10.23
   1   7 -17  212.28    8.38
  -1  -7 -18  287.21    9.82
  -1  -7 -18  258.07    8.24
  -1  -7  18  272.15    9.97
  -1  -7  18  258.22    8.76
  -1   7 -18  310.23   10.51
  -1   7 -18  230.01    8.41
   1  -7 -18  252.32    9.49
   1  -7 -18  249.73    8.39
   1  -7  18  290.92   10.02
   1  -7  18  270.33    8.75
   1   7 -18  307.73   10.78
   1   7 -18  226.63    8.78
  -1  -7 -19  164.76    9.32
  -1  -7 -19  150.46    7.76
  -1   7 -19  186.27    9.99
  -1   7 -19  162.67    8.33
   1  -7 -19  166.17    9.12
   1  -7 -19  155.02    8.11
   1   7 -19  194.65   10.30
   1   7 -19  150.20    8.43
  -1  -9  -2    3.31    1.84
  -1  -9  -2    4.07    1.26
  -1  -9  -2    3.01    1.40
  -1  -9   2    6.86    1.52
  -1  -9   2    3.18    1.21
  -1   9  -2    4.08    1.70
  -1   9   2    4.86    1.56
   1  -9  -2    2.34    1.52
   1  -9   2    4.10    1.58
   1   9  -2    7.96    1.71
   1   9  -2    5.00    1.53
   1   9   2    2.77    1.50
   1   9   2    5.79    1.65
  -1  -9  -3  211.09    4.12
  -1  -9  -3  177.18    2.95
  -1  -9  -3  190.51    3.22
  -1  -9   3  191.88    4.12
  -1  -9   3  240.10    3.50
  -1  -9   3  169.32    2.93
  -1   9  -3  189.56    3.71
  -1   9  -3  190.78    2.74
   1  -9  -3  178.87    3.47
   1  -9   3  170.63    3.52
   1   9  -3  174.07    3.40
   1   9   3  229.54    4.23
   1   9   3  116.56    2.51
  -1  -9  -4  365.97    5.02
  -1  -9  -4  334.97    3.75
  -1  -9   4  337.22    5.00
  -1  -9   4  310.94    3.84
  -1   9  -4  345.00    4.61
  -1   9  -4  339.05    3.72
  -1   9   4  350.05    4.37
  -1   9   4  326.97    3.32
   1  -9  -4  324.19    4.29
   1  -9   4  318.85    4.42
   1  -9   4  385.72    3.37
   1   9  -4  370.39    5.22
   1   9  -4  333.57    4.26
   1   9   4  405.90    5.15
  -1  -9  -9  410.41    7.05
  -1  -9  -9  411.86    5.85
  -1  -9   9  418.21    7.04
  -1  -9   9  399.19    5.93
  -1   9  -9  430.10    7.28
  -1   9  -9  410.47    6.19
  -1   9   9  426.74    6.76
  -1   9   9  393.79    5.82
   1  -9  -9  393.83    6.80
   1  -9  -9  393.14    5.59
   1  -9   9  397.65    6.71
   1  -9   9  440.98    6.01
   1   9  -9  440.74    7.36
   1   9  -9  406.56    6.33
   1   9   9  436.87    7.06
   1   9   9  422.97    6.26
  -1  -9 -10    5.96    3.00
  -1  -9 -10    7.50    2.40
  -1  -9  10   12.04    3.05
  -1  -9  10    8.80    2.41
  -1   9 -10    7.61    3.19
  -1   9 -10    7.85    2.51
  -1   9  10    9.85    2.89
  -1   9  10   10.25    2.33
   1  -9 -10    9.13    2.96
   1  -9 -10   10.92    2.33
   1  -9  10    6.45    2.77
   1  -9  10    7.93    2.56
   1   9 -10   11.12    3.15
   1   9 -10    9.46    2.74
   1   9  10   14.95    3.06
   1   9  10    9.66    2.55
  -1  -9 -11  182.16    6.54
  -1  -9 -11  172.48    5.22
  -1  -9  11  181.68    6.36
  -1  -9  11  168.68    5.34
  -1   9 -11  178.28    6.77
  -1   9 -11  175.19    5.82
  -1   9  11  181.11    6.24
  -1   9  11  167.28    5.15
   1  -9 -11  178.02    6.40
   1  -9 -11  162.87    5.20
   1  -9  11  167.97    6.29
   1  -9  11  186.81    5.60
   1   9 -11  192.58    6.94
   1   9 -11  174.03    5.86
   1   9  11  192.74    6.41
   1   9  11  199.97    5.79
  -1  -9 -12  211.82    7.34
  -1  -9 -12  188.06    5.67
  -1  -9  12  195.81    6.73
  -1  -9  12  205.37    5.91
  -1   9 -12  194.59    7.25
  -1   9 -12  180.69    6.30
  -1   9  12  185.51    6.86
  -1   9  12  188.35    5.77
   1  -9 -12  200.77    6.95
   1  -9 -12  185.73    5.73
   1  -9  12  186.04    6.84
   1  -9  12  206.24    6.17
   1   9 -12  216.67    7.53
   1   9 -12  194.28    6.44
   1   9  12  228.13    7.25
   1   9  12  221.89    6.32
  -1  -9 -13   95.51    6.78
  -1  -9 -13   94.85    5.46
  -1  -9  13   94.58    6.48
  -1  -9  13   88.96    5.53
  -1   9 -13   75.05    6.86
  -1   9 -13   74.39    5.96
  -1   9  13   95.95    6.61
   1  -9 -13   85.97    6.67
   1  -9 -13   80.82    5.48
   1  -9  13   77.47    6.55
   1  -9  13   88.58    5.82
   1   9 -13  101.09    7.26
   1   9 -13   88.49    6.02
   1   9  13  104.14    6.80
   1   9  13   97.14    5.77
  -1  -9 -14    1.57    3.87
  -1  -9 -14    2.44    2.92
  -1  -9  14    7.38    3.81
  -1  -9  14    1.82    2.86
  -1   9 -14   -1.24    4.05
  -1   9 -14    1.39    3.34
   1  -9 -14    1.63    3.65
   1  -9 -14   -0.46    2.97
   1  -9  14    1.16    3.81
   1  -9  14    0.58    3.21
   1   9 -14   -0.31    4.09
   1   9 -14    1.96    3.23
   1   9  14    3.72    3.74
  -1  -9 -15   16.44    4.47
  -1  -9 -15   15.51    3.57
  -1  -9  15   14.51    4.13
  -1  -9  15   15.36    3.70
  -1   9 -15   13.10    4.50
  -1   9 -15   15.09    3.61
   1  -9 -15   18.92    4.30
   1  -9 -15   16.54    3.53
   1  -9  15   17.32    4.43
   1  -9  15   15.95    3.61
   1   9 -15   22.17    4.64
   1   9 -15   15.15    3.76
  -1  -9 -16   51.34    5.05
  -1  -9 -16   53.40    6.17
  -1  -9  16   53.00    5.45
  -1  -9  16   45.54    4.41
  -1   9 -16   72.97    8.24
  -1   9 -16   61.72    6.74
   1  -9 -16   63.96    7.49
   1  -9 -16   65.96    6.54
   1  -9  16   64.78    7.70
   1  -9  16   73.48    6.64
   1   9 -16   56.02    5.68
   1   9 -16   46.05    4.56
  -1  -9 -17  176.40    8.81
  -1  -9 -17  164.31    7.22
  -1  -9  17  142.19    8.55
  -1  -9  17  152.84    7.65
  -1   9 -17  167.69    9.32
  -1   9 -17  152.85    7.59
   1  -9 -17  176.20    8.66
   1  -9 -17  173.81    7.50
   1  -9  17  180.01    8.82
   1  -9  17  189.81    7.91
   1   9 -17  172.14    9.63
   1   9 -17  135.05    8.04
  -1  -9 -18  186.08    9.03
  -1  -9 -18  174.44    7.53
  -1  -9  18  194.02    9.96
  -1   9 -18  230.46   10.12
  -1   9 -18  167.81    8.03
   1  -9 -18  194.74    9.18
   1  -9 -18  181.69    7.62
   1   9 -18  212.16    9.99
   1   9 -18  169.78    8.60
  -1  -9 -19   42.20    5.51
  -1  -9 -19   47.75    4.67
  -1   9 -19   75.13    7.70
   1  -9 -19   76.09    8.44
   1  -9 -19   65.43    7.05
   1   9 -19   87.81    9.53
   1   9 -19   41.77    5.02
  -1 -11  -2  442.98    4.87
  -1 -11   2  343.13    2.94
   1 -11  -2  425.72    4.08
   1 -11   2  389.99    4.00
   1  11  -2  362.82    3.78
   1  11   2  426.65    3.97
   1  11   2  396.85    4.00
  -1 -11  -3    6.01    2.00
  -1 -11  -3    4.40    1.25
  -1 -11  -3    6.72    1.51
  -1 -11   3    4.80    2.00
  -1 -11   3    8.25    1.57
  -1 -11   3    4.07    1.31
  -1  11  -3    8.67    1.91
  -1  11  -3    9.33    1.42
  -1  11   3    8.66    1.70
   1 -11  -3    2.91    1.77
   1 -11   3    6.58    1.82
   1  11  -3    6.15    1.63
   1  11   3   10.57    2.06
   1  11   3    6.40    1.61
  -1 -11  -4  139.42    4.08
  -1 -11  -4  131.27    2.85
  -1 -11  -4  145.15    3.23
  -1 -11   4  130.96    4.14
  -1 -11   4  119.86    2.97
  -1  11  -4  146.17    3.82
  -1  11  -4  130.62    2.88
  -1  11   4  137.53    2.64
   1 -11  -4  140.04    3.61
   1 -11   4  131.15    3.69
   1  11  -4  156.04    4.44
   1  11  -4  127.87    3.45
   1  11   4  157.48    4.13
   1  11   4   68.38    2.39
  -1 -11  -5  314.62    5.18
  -1 -11  -5  298.84    3.85
  -1 -11   5  302.53    5.27
  -1 -11   5  290.08    4.03
  -1  11  -5  326.73    4.99
  -1  11  -5  309.30    4.02
  -1  11   5  342.36    4.86
  -1  11   5  317.59    3.77
   1 -11  -5  290.79    4.58
   1 -11   5  286.35    4.74
   1 -11   5  346.22    3.61
   1  11  -5  350.97    5.65
   1  11  -5  296.96    4.56
   1  11   5  364.85    5.37
   1  11   5  121.03    2.71
  -1 -11  -6  663.32    6.92
  -1 -11  -6  617.92    5.34
  -1 -11   6  656.78    7.08
  -1 -11   6  606.36    5.60
  -1  11  -6  718.08    7.02
  -1  11  -6  635.92    5.66
  -1  11   6  668.86    6.43
   1 -11  -6  611.32    6.24
   1 -11   6  597.05    6.43
   1 -11   6  690.15    5.33
   1  11  -6  708.60    7.30
   1  11  -6  589.96    6.06
   1  11   6  697.25    6.08
  -1 -11   7  726.83    7.88
  -1 -11   7  676.52    6.25
  -1  11  -7  774.65    7.76
  -1  11  -7  725.81    6.55
  -1  11   7  287.74    3.97
   1 -11  -7  715.36    7.15
   1 -11  -7  752.65    5.64
   1 -11   7  699.76    7.35
   1 -11   7  776.69    6.07
   1  11  -7  777.03    8.15
   1  11  -7  688.71    6.85
   1  11   7  820.23    8.08
   1  11   7  750.53    6.76
  -1 -11  -8  233.40    5.83
  -1 -11  -8  223.04    4.62
  -1 -11   8  233.84    5.90
  -1 -11   8  215.57    4.73
  -1  11  -8  247.85    6.02
  -1  11  -8  237.39    5.09
  -1  11   8  262.37    5.66
  -1  11   8  228.06    4.60
   1 -11  -8  238.89    5.56
   1 -11  -8  232.08    4.37
   1 -11   8  229.92    5.60
   1 -11   8  252.67    4.72
   1  11  -8  245.63    6.10
   1  11  -8  213.32    5.13
   1  11   8  246.50    5.80
   1  11   8  227.03    4.97
  -1 -11  -9    4.32    2.90
  -1 -11  -9    5.26    2.21
  -1 -11   9    5.04    2.69
  -1 -11   9    4.66    2.20
  -1  11  -9    5.31    2.98
  -1  11  -9    7.54    2.39
  -1  11   9    4.13    2.67
  -1  11   9    4.53    2.11
   1 -11  -9    6.76    2.80
   1 -11  -9    7.00    2.04
   1 -11   9    5.07    2.58
   1 -11   9    7.06    2.31
   1  11  -9    5.38    3.10
   1  11  -9    7.47    2.45
   1  11   9    8.77    2.82
   1  11   9    6.27    2.34
  -1 -11 -10  320.03    7.19
  -1 -11 -10  324.78    5.74
  -1 -11  10  315.52    7.05
  -1 -11  10  315.96    5.95
  -1  11 -10  343.97    7.29
  -1  11 -10  318.41    6.21
  -1  11  10  334.37    6.70
  -1  11  10  316.16    5.76
   1 -11 -10  325.11    6.86
   1 -11 -10  321.98    5.52
   1 -11  10  305.29    6.82
   1 -11  10  347.23    6.10
   1  11 -10  357.03    7.59
   1  11 -10  318.86    6.47
   1  11  10  374.30    7.11
   1  11  10  343.86    6.29
  -1 -11 -11  550.18    8.61
  -1 -11 -11  506.21    6.96
  -1 -11  11  532.18    8.69
  -1 -11  11  521.74    7.37
  -1  11 -11  535.07    8.76
  -1  11 -11  493.69    7.59
  -1  11  11  548.98    8.34
  -1  11  11  487.84    7.01
   1 -11 -11  508.35    8.35
   1 -11 -11  500.66    6.77
   1 -11  11  502.07    8.43
   1 -11  11  516.41    7.27
   1  11 -11  542.45    9.03
   1  11 -11  511.28    7.94
   1  11  11  579.34    8.76
   1  11  11  529.53    7.63
  -1 -11 -12  309.54    8.02
  -1 -11 -12  288.88    6.28
  -1 -11  12  290.69    7.70
  -1 -11  12  282.72    6.50
  -1  11 -12  285.61    7.96
  -1  11 -12  256.99    6.76
  -1  11  12  316.39    7.72
   1 -11 -12  277.35    7.46
   1 -11 -12  284.03    6.34
   1 -11  12  273.86    7.44
   1 -11  12  306.44    6.82
   1  11 -12  319.46    8.25
   1  11 -12  286.85    7.11
   1  11  12  332.22    7.94
  -1 -11 -13  105.99    7.17
  -1 -11 -13   92.03    5.42
  -1 -11  13   99.36    6.66
  -1 -11  13   92.36    5.78
  -1  11 -13   90.51    7.18
  -1  11 -13   86.02    6.14
   1 -11 -13   96.62    6.84
   1 -11 -13   92.87    5.74
   1 -11  13  100.94    6.82
   1 -11  13   93.52    5.94
   1  11 -13  105.98    7.39
   1  11 -13   97.23    6.17
   1  11  13  138.06    8.66
  -1 -11 -14   26.85    4.33
  -1 -11 -14   15.17    3.16
  -1 -11  14   24.48    4.41
  -1 -11  14   16.10    3.41
  -1  11 -14   21.19    4.58
  -1  11 -14   11.38    3.48
   1 -11 -14   24.14    4.42
   1 -11 -14   19.62    3.37
   1 -11  14   23.51    4.30
   1 -11  14   19.61    3.75
   1  11 -14   22.89    4.42
   1  11 -14   18.10    3.55
  -1 -11 -15   -2.29    4.20
  -1 -11 -15   -3.05    3.07
  -1 -11  15   -3.15    3.82
  -1 -11  15    0.82    3.31
  -1  11 -15   -2.25    4.39
  -1  11 -15   -0.97    3.47
   1 -11 -15   -7.05    3.76
   1 -11 -15    0.64    3.12
   1 -11  15    0.99    3.99
   1 -11  15   -0.81    3.38
   1  11 -15   -0.13    4.26
   1  11 -15   -3.12    3.35
  -1 -11 -16   13.19    4.45
  -1 -11 -16   11.18    3.53
  -1 -11  16    7.91    4.46
  -1 -11  16   10.66    3.74
  -1  11 -16   13.11    4.74
  -1  11 -16   13.75    3.87
   1 -11 -16   12.93    4.48
   1 -11 -16   15.16    3.62
   1 -11  16   16.00    4.59
   1 -11  16   13.38    3.99
   1  11 -16   15.76    5.09
   1  11 -16    7.48    4.02
  -1 -11 -17   48.02    5.47
  -1 -11 -17   33.06    4.07
  -1 -11  17   31.67    5.05
  -1 -11  17   25.06    7.05
  -1  11 -17   40.73    5.44
  -1  11 -17   30.43    4.32
   1 -11 -17   36.99    4.95
   1 -11 -17   34.34    3.99
   1  11 -17   36.17    5.71
   1  11 -17   27.37    4.81
  -1 -11 -18   20.89    4.81
  -1 -11 -18   21.17    3.92
  -1  11 -18   27.21    4.39
   1 -11 -18   24.56    4.88
   1 -11 -18   29.21    4.13
   1  11 -18   30.94    5.65
   1  11 -18   19.56    4.43
   1  13  -1  673.79    4.61
  -1 -13  -2  274.76    4.46
   1 -13  -2  259.64    3.75
   1 -13   2  234.68    3.71
   1  13  -2  307.12    3.83
   1  13  -2  222.93    3.43
   1  13   2  266.75    3.64
   1  13   2  229.73    3.59
  -1 -13  -3   69.14    3.62
  -1 -13   3   65.33    3.64
  -1 -13   3   84.35    2.77
  -1 -13   3   53.36    2.21
  -1  13   3   77.46    3.19
   1 -13  -3   59.01    3.13
   1 -13   3   63.38    3.22
   1  13  -3   57.74    2.88
   1  13   3   71.26    3.00
   1  13   3   66.73    3.15
  -1 -13  -4    6.29    2.23
  -1 -13  -4    4.60    1.30
  -1 -13  -4    5.65    1.57
  -1 -13   4    2.19    2.10
  -1 -13   4    7.47    1.74
  -1 -13   4    2.82    1.37
  -1  13  -4    5.76    2.02
  -1  13  -4    4.21    1.41
  -1  13   4    4.51    1.26
   1 -13  -4    4.82    1.92
   1 -13   4    2.57    1.91
   1  13  -4    6.45    1.76
   1  13   4    5.75    2.06
   1  13   4    6.14    1.70
  -1 -13  -5   61.23    4.21
  -1 -13  -5   52.83    2.74
  -1 -13  -5   56.55    3.11
  -1 -13   5   50.57    4.10
  -1 -13   5   38.81    2.87
  -1  13  -5   56.47    3.88
  -1  13  -5   51.78    3.01
  -1  13   5   62.86    3.48
  -1  13   5   50.69    2.73
   1 -13  -5   45.73    3.56
   1 -13   5   47.97    3.76
   1  13  -5   45.98    4.46
   1  13  -5   43.69    3.41
   1  13   5   66.38    4.01
   1  13   5   16.14    1.95
  -1 -13  -6  120.21    4.73
  -1 -13  -6  115.09    3.41
  -1 -13   6  117.05    4.89
  -1 -13   6  102.81    3.54
  -1  13  -6  128.47    4.56
  -1  13  -6  115.15    3.81
  -1  13   6  125.18    4.53
  -1  13   6  115.86    3.42
   1 -13  -6  114.73    4.30
   1 -13   6  115.81    4.46
   1 -13   6  128.19    3.31
   1  13  -6  131.84    5.23
   1  13  -6  106.62    4.11
   1  13   6  136.07    4.85
   1  13   6   93.70    3.22
  -1 -13  -7   14.79    2.83
  -1 -13  -7    8.31    1.88
  -1 -13   7   11.69    2.77
  -1 -13   7    8.54    1.97
  -1  13  -7   12.04    2.73
  -1  13  -7   10.22    2.17
  -1  13   7   14.23    2.52
  -1  13   7    9.26    1.78
   1 -13  -7   12.38    2.49
   1 -13  -7    9.87    1.70
   1 -13   7   15.55    2.70
   1 -13   7   11.58    2.07
   1  13  -7   10.97    2.86
   1  13  -7    9.04    2.32
   1  13   7   16.77    2.95
   1  13   7   14.90    2.33
  -1 -13  -8   70.61    4.94
  -1 -13  -8   66.39    3.73
  -1 -13   8   62.97    4.91
  -1 -13   8   66.74    3.90
  -1  13  -8   76.14    5.12
  -1  13  -8   73.81    4.13
  -1  13   8   71.00    4.59
  -1  13   8   65.53    3.28
   1 -13  -8   59.44    4.65
   1 -13  -8   71.96    3.43
   1 -13   8   60.77    4.69
   1 -13   8   68.46    3.77
   1  13  -8   68.66    5.21
   1  13  -8   65.14    4.37
   1  13   8   80.20    5.09
   1  13   8   74.22    4.16
  -1 -13  -9  346.06    6.93
  -1 -13  -9  340.67    5.41
  -1 -13   9  322.70    6.97
  -1 -13   9  328.72    5.59
  -1  13  -9  357.28    7.01
  -1  13  -9  326.83    5.92
  -1  13   9  354.73    6.59
  -1  13   9  323.99    5.40
   1 -13  -9  317.42    6.43
   1 -13  -9  343.31    5.13
   1 -13   9  334.90    6.71
   1 -13   9  357.12    5.54
   1  13  -9  371.04    7.25
   1  13  -9  325.94    6.26
   1  13   9  381.41    7.06
   1  13   9  349.71    5.97
  -1 -13 -10  571.41    8.53
  -1 -13 -10  506.77    6.53
  -1 -13  10  505.34    8.39
  -1 -13  10  484.92    6.81
  -1  13 -10  548.26    8.45
  -1  13 -10  507.45    7.29
  -1  13  10  584.20    8.13
   1 -13 -10  537.37    8.07
   1 -13 -10  554.78    6.39
   1 -13  10  514.13    8.00
   1 -13  10  566.59    6.89
   1  13 -10  579.43    8.92
   1  13 -10  504.41    7.66
   1  13  10  630.64    8.66
   1  13  10  519.95    7.17
  -1 -13 -11  524.20    8.78
  -1 -13 -11  483.86    6.79
  -1 -13  11  499.45    8.84
  -1 -13  11  487.02    7.27
  -1  13 -11  545.23    9.10
  -1  13 -11  470.14    7.60
   1 -13 -11  517.74    8.32
   1 -13 -11  489.80    6.71
   1 -13  11  496.24    8.41
   1 -13  11  523.08    7.26
   1  13 -11  531.86    9.20
   1  13 -11  463.37    7.91
   1  13  11  589.96    8.97
  -1 -13 -12  425.29    8.73
  -1 -13 -12  398.33    6.84
  -1 -13  12  427.72    8.88
  -1 -13  12  396.60    7.40
  -1  13 -12  424.59    8.98
  -1  13 -12  371.13    7.61
   1 -13 -12  405.64    8.44
   1 -13 -12  396.86    6.75
   1 -13  12  407.03    8.53
   1 -13  12  429.82    7.46
   1  13 -12  438.13    9.19
   1  13 -12  385.02    7.84
  -1 -13 -13  212.02    7.99
  -1 -13 -13  171.49    5.85
  -1 -13  13  189.95    7.69
  -1 -13  13  188.51    6.55
  -1  13 -13  206.61    8.36
  -1  13 -13  178.15    6.74
   1 -13 -13  178.94    7.52
   1 -13 -13  177.05    6.19
   1 -13  13  188.57    7.48
   1 -13  13  202.83    6.63
   1  13 -13  212.67    8.23
   1  13 -13  177.73    7.04
  -1 -13 -14   22.93    4.61
  -1 -13 -14   19.23    3.40
  -1 -13  14   22.88    4.33
  -1 -13  14   17.09    3.52
  -1  13 -14   21.22    4.59
  -1  13 -14   14.91    3.60
   1 -13 -14   19.45    4.29
   1 -13 -14   14.69    3.34
   1 -13  14   24.22    4.34
   1 -13  14   21.10    3.74
   1  13 -14   26.09    4.79
   1  13 -14   17.07    3.89
  -1 -13 -15   -0.10    4.00
  -1 -13 -15   -0.85    3.06
  -1 -13  15    1.78    4.07
  -1 -13  15   -1.03    3.43
  -1  13 -15    2.40    4.69
  -1  13 -15    0.88    3.49
   1 -13 -15   -0.96    4.16
   1 -13 -15   -1.97    3.18
   1 -13  15    0.58    4.19
   1 -13  15   -1.78    3.65
   1  13 -15    0.15    4.71
   1  13 -15    1.42    3.70
  -1 -13 -16   -2.20    4.34
  -1 -13 -16   -2.65    3.17
  -1 -13  16    3.58    4.31
  -1 -13  16   -3.61    3.76
  -1  13 -16   -4.07    4.71
  -1  13 -16   -2.26    3.74
   1 -13 -16   -0.50    4.06
   1 -13 -16    1.48    3.28
   1 -13  16   -1.79    4.17
   1  13 -16   -3.70    4.67
   1  13 -16    1.60    3.94
  -1 -13 -17    5.04    4.38
  -1 -13 -17    6.10    3.42
  -1  13 -17    1.20    3.86
   1 -13 -17    2.52    4.25
   1 -13 -17    5.70    3.39
   1  13 -17    3.85    4.93
   1  13 -17    5.94    4.15
  -1 -13 -18    6.76    4.71
  -1 -13 -18    7.15    3.55
  -1  13 -18    5.64    4.09
   1 -13 -18    8.38    4.49
   1 -13 -18    8.40    3.54
   1  13 -18    4.63    4.16
   1  15  -1  699.12    4.98
   1  15   1  728.65    5.05
  -1 -15  -2   88.42    3.98
   1 -15  -2   75.85    3.33
   1 -15   2   74.21    3.27
   1  15  -2  103.30    3.40
   1  15  -2   68.95    3.00
   1  15   2   74.30    3.20
   1  15   2   65.65    3.21
  -1 -15  -3   50.71    3.84
  -1 -15   3   40.59    3.84
   1 -15  -3   43.99    3.40
   1 -15   3   40.56    3.36
   1  15  -3   58.10    3.44
   1  15  -3   37.17    3.03
   1  15   3   45.66    3.14
   1  15   3   45.15    3.17
  -1 -15  -4   47.37    4.07
  -1 -15   4   39.68    3.93
  -1 -15   4   50.94    2.98
  -1 -15   4   32.88    2.42
  -1  15  -4   35.80    2.71
  -1  15   4   45.62    3.19
  -1  15   4   36.23    2.42
  -1  15   4   37.04    2.70
   1 -15  -4   35.64    3.60
   1 -15   4   35.24    3.65
   1  15  -4   37.06    3.35
   1  15   4   48.30    4.09
   1  15   4   50.20    3.38
  -1 -15  -5    1.60    2.32
  -1 -15  -5    0.94    1.42
  -1 -15  -5    1.75    1.72
  -1 -15   5    1.34    2.37
  -1 -15   5   -0.65    1.85
  -1 -15   5   -0.20    1.54
  -1  15  -5    0.78    2.37
  -1  15  -5   -1.69    1.73
  -1  15   5    1.37    0.56
  -1  15   5   -1.18    1.57
   1 -15  -5   -1.61    2.19
   1 -15   5    0.61    2.18
   1  15  -5   -0.13    1.97
   1  15   5    0.92    2.29
   1  15   5    1.76    1.92
  -1 -15  -6   -0.91    2.51
  -1 -15  -6    2.01    1.57
  -1 -15  -6    2.11    1.94
  -1 -15   6    2.01    2.63
  -1 -15   6    2.05    1.68
  -1  15  -6    1.27    2.42
  -1  15  -6    0.64    1.91
  -1  15   6   -0.22    2.34
  -1  15   6    0.39    1.76
   1 -15  -6    0.95    2.24
   1 -15   6    1.29    2.32
   1  15  -6   -0.16    2.71
   1  15  -6    2.94    2.16
   1  15   6    0.68    2.54
  -1 -15  -7   -1.16    2.66
  -1 -15  -7    0.04    1.77
  -1 -15   7    2.80    2.62
  -1 -15   7   -0.32    1.84
  -1  15  -7    0.34    2.59
  -1  15  -7    0.96    2.09
  -1  15   7   -1.99    2.48
  -1  15   7   -2.15    1.85
   1 -15  -7   -1.97    2.35
   1 -15   7   -3.52    2.49
   1 -15   7    0.63    1.85
   1  15  -7    1.51    2.93
   1  15  -7   -1.82    2.22
   1  15   7    1.13    2.73
   1  15   7    1.36    2.07
  -1 -15  -8    3.02    2.83
  -1 -15  -8    4.18    2.05
  -1 -15   8    2.81    2.95
  -1 -15   8    2.11    2.18
  -1  15  -8    6.26    2.96
  -1  15  -8    3.06    2.28
  -1  15   8    3.42    2.73
   1 -15  -8    1.38    2.66
   1 -15  -8    2.81    1.86
   1 -15   8    5.93    2.74
   1 -15   8    6.61    2.11
   1  15  -8    7.95    3.09
   1  15  -8    3.51    2.47
   1  15   8    4.45    2.89
   1  15   8    5.08    2.33
  -1 -15  -9   77.06    5.50
  -1 -15  -9   80.69    4.09
  -1 -15   9   66.63    5.38
  -1 -15   9   69.19    4.35
  -1  15  -9   79.43    5.61
  -1  15  -9   72.71    4.73
  -1  15   9   90.92    6.97
   1 -15  -9   75.13    5.22
   1 -15  -9   77.38    3.81
   1 -15   9   62.11    5.27
   1 -15   9   74.20    4.38
   1  15  -9   78.86    5.82
   1  15  -9   59.51    5.05
   1  15   9   91.87    5.64
  -1 -15 -10  226.82    6.77
  -1 -15 -10  209.01    5.10
  -1 -15  10  216.47    6.93
  -1 -15  10  204.58    5.51
  -1  15 -10  222.89    7.08
  -1  15 -10  207.52    6.02
   1 -15 -10  214.61    6.47
   1 -15 -10  222.23    4.92
   1 -15  10  206.25    6.68
   1 -15  10  226.61    5.40
   1  15 -10  236.93    7.27
   1  15 -10  185.27    6.17
  -1 -15 -11  310.39    7.81
  -1 -15 -11  295.40    5.90
  -1 -15  11  293.60    7.83
  -1 -15  11  284.59    6.41
  -1  15 -11  323.77    8.02
  -1  15 -11  272.96    6.76
   1 -15 -11  300.03    7.54
   1 -15 -11  310.75    5.86
   1 -15  11  287.16    7.49
   1 -15  11  315.40    6.38
   1  15 -11  316.78    8.28
   1  15 -11  271.23    7.14
  -1 -15 -12  275.42    8.01
  -1 -15 -12  255.71    6.05
  -1 -15  12  257.49    8.03
  -1 -15  12  247.80    6.62
  -1  15 -12  294.01    8.37
  -1  15 -12  256.77    7.07
   1 -15 -12  275.19    7.56
   1 -15 -12  265.52    6.11
   1 -15  12  274.46    7.77
   1 -15  12  286.21    6.56
   1  15 -12  290.71    8.62
   1  15 -12  226.14    7.35
  -1 -15 -13  175.60    7.69
  -1 -15 -13  157.36    5.86
  -1 -15  13  161.46    7.67
  -1 -15  13  168.58    6.55
  -1  15 -13  170.17    7.92
  -1  15 -13  162.24    6.79
   1 -15 -13  175.77    7.46
   1 -15 -13  165.71    5.89
   1 -15  13  169.30    7.51
   1 -15  13  177.23    6.45
   1  15 -13  178.00    8.18
   1  15 -13  151.32    7.21
  -1 -15 -14   84.51    7.57
  -1 -15 -14   76.17    5.78
  -1 -15  14   81.32    7.32
  -1 -15  14   87.29    6.43
  -1  15 -14  101.90    8.28
  -1  15 -14   83.23    6.69
   1 -15 -14   75.25    7.01
   1 -15 -14   80.13    5.79
   1 -15  14   84.78    7.35
   1 -15  14   86.24    6.27
   1  15 -14   99.92    8.07
   1  15 -14   86.94    6.93
  -1 -15 -15   17.20    4.73
  -1 -15 -15   20.03    3.53
  -1 -15  15   18.27    4.48
  -1 -15  15   13.66    3.73
  -1  15 -15   20.10    4.97
  -1  15 -15   17.88    3.97
   1 -15 -15   15.66    4.57
   1 -15 -15   13.26    3.42
   1 -15  15   18.20    4.53
   1 -15  15   16.08    3.83
   1  15 -15   23.91    4.95
   1  15 -15   18.43    4.10
  -1 -15 -16    3.16    4.40
  -1 -15 -16    3.69    3.23
  -1  15 -16    2.60    3.66
   1 -15 -16    4.24    4.27
   1 -15 -16   10.14    3.37
   1  15 -16    6.12    4.88
   1  15 -16    6.84    3.95
  -1 -15 -17   49.89    5.44
  -1 -15 -17   38.08    3.92
  -1  15 -17   38.16    4.76
   1 -15 -17   48.80    5.30
   1 -15 -17   41.44    4.05
   1  15 -17   67.12    7.72
   1  17  -1  825.44    5.68
   1  17   1  827.96    5.73
  -1 -17  -2   92.39    4.32
   1 -17  -2   78.53    3.71
   1 -17   2   87.26    3.67
   1  17  -2  104.91    3.70
   1  17  -2   69.09    3.32
   1  17   2   77.78    3.49
   1  17   2   63.64    3.55
  -1 -17  -3  171.63    4.80
  -1 -17   3  153.48    4.76
   1 -17  -3  170.84    4.25
   1 -17   3  151.77    4.17
   1  17  -3  204.61    4.34
   1  17  -3  141.24    3.77
   1  17   3  171.61    4.02
   1  17   3  162.84    4.08
  -1 -17  -4  630.43    6.89
  -1 -17   4  575.68    6.86
  -1  17  -4  518.63    4.61
  -1  17   4  710.46    6.50
  -1  17   4  545.79    4.28
  -1  17   4  591.24    4.59
   1 -17  -4  593.58    6.15
   1 -17   4  562.84    6.23
   1  17  -4  522.62    5.56
   1  17   4  638.20    5.84
  -1 -17  -5  630.18    7.20
  -1 -17   5  611.30    7.36
  -1 -17   5  569.69    4.58
  -1  17  -5  563.83    5.33
  -1  17   5    1.06    0.58
  -1  17   5  591.34    4.97
   1 -17  -5  629.11    6.58
   1 -17   5  589.69    6.71
   1  17  -5  574.43    6.17
   1  17   5  756.72    7.55
   1  17   5  655.37    6.15
  -1 -17  -6  515.19    7.14
  -1 -17  -6  447.38    4.33
  -1 -17  -6  488.43    4.75
  -1 -17   6  476.29    7.17
  -1 -17   6  625.47    5.59
  -1 -17   6  453.41    4.81
  -1  17  -6  507.25    6.89
  -1  17  -6  460.39    5.50
  -1  17   6  503.19    6.34
  -1  17   6  447.74    5.04
   1 -17  -6  454.98    6.37
   1 -17   6  449.31    6.47
   1  17  -6  443.35    6.03
   1  17   6  552.24    7.26
   1  17   6  505.87    5.95
  -1 -17  -7  381.32    6.78
  -1 -17  -7  341.29    4.48
  -1 -17  -7  363.82    4.89
  -1 -17   7  355.56    6.88
  -1 -17   7  334.74    4.88
  -1  17  -7  397.25    6.85
  -1  17  -7  339.62    5.51
  -1  17   7  413.52    7.35
  -1  17   7  327.10    5.01
   1 -17  -7  326.32    6.14
   1 -17   7  342.09    6.34
   1  17  -7  408.18    7.31
   1  17  -7  349.30    6.00
   1  17   7  436.35    7.04
  -1 -17  -8  143.74    5.83
  -1 -17  -8  129.70    4.06
  -1 -17   8  146.28    6.02
  -1 -17   8  129.72    4.42
  -1  17  -8  164.61    5.99
  -1  17  -8  125.64    4.81
   1 -17  -8  120.86    5.58
   1 -17   8  128.74    5.55
   1 -17   8  168.19    4.20
   1  17  -8  154.25    6.37
   1  17  -8  124.00    5.14
  -1 -17  -9    3.85    3.18
  -1 -17  -9   -1.88    2.08
  -1 -17   9   -4.44    3.11
  -1 -17   9   -4.44    2.31
  -1  17  -9   -2.75    3.15
  -1  17  -9    0.31    2.57
   1 -17  -9   -5.27    2.93
   1 -17  -9   -4.76    1.99
   1 -17   9   -0.23    2.97
   1 -17   9   -0.69    2.35
   1  17  -9   -4.66    3.41
   1  17  -9   -2.24    2.75
  -1 -17 -10   90.59    6.17
  -1 -17 -10   85.33    4.58
  -1 -17  10   82.69    6.35
  -1 -17  10   72.35    4.87
  -1  17 -10   76.85    6.27
  -1  17 -10   83.05    5.25
   1 -17 -10   87.51    5.94
   1 -17 -10   83.10    4.15
   1 -17  10   90.28    6.05
   1 -17  10   97.41    4.89
   1  17 -10   82.50    6.57
   1  17 -10   70.97    5.68
  -1 -17 -11  131.78    6.91
  -1 -17 -11  120.77    5.11
  -1 -17  11  113.41    6.84
  -1 -17  11  120.04    5.45
  -1  17 -11  147.76    7.11
  -1  17 -11  123.09    6.08
   1 -17 -11  129.73    6.52
   1 -17 -11  130.85    4.79
   1 -17  11  115.28    6.59
   1 -17  11  131.04    5.58
   1  17 -11  136.94    7.40
   1  17 -11  117.50    6.34
  -1 -17 -12   54.56    6.60
  -1 -17 -12   49.19    5.02
  -1 -17  12   62.70    6.93
  -1 -17  12   48.06    5.35
  -1  17 -12   58.61    6.97
  -1  17 -12   55.05    5.84
   1 -17 -12   59.38    6.56
   1 -17 -12   56.24    4.76
   1 -17  12   57.87    6.46
   1 -17  12   59.20    5.62
   1  17 -12   60.57    7.03
   1  17 -12   54.57    6.33
  -1 -17 -13   10.55    4.25
  -1 -17 -13    6.32    3.05
  -1 -17  13    8.14    4.30
  -1 -17  13    5.71    3.19
  -1  17 -13   17.88    4.54
  -1  17 -13   11.58    3.74
   1 -17 -13   10.12    3.95
   1 -17 -13   10.10    2.89
   1 -17  13   12.27    4.15
   1 -17  13    6.03    3.25
   1  17 -13    8.54    4.45
   1  17 -13    7.62    3.85
  -1 -17 -14    0.41    4.25
  -1 -17 -14   -0.71    2.96
  -1 -17  14   -1.63    4.22
  -1 -17  14   -0.75    3.40
  -1  17 -14    1.59    4.66
  -1  17 -14    3.85    3.54
   1 -17 -14    6.16    4.14
   1 -17 -14    4.64    3.00
   1 -17  14    6.18    4.23
   1 -17  14    4.13    3.39
   1  17 -14    5.29    4.52
   1  17 -14    0.67    3.80
  -1 -17 -15   -3.90    4.19
  -1 -17 -15   -3.43    2.93
  -1  17 -15   -1.64    3.72
   1 -17 -15    2.75    4.05
   1 -17 -15    1.61    3.04
   1  17 -15    1.40    5.25
   1  17 -15   -2.58    3.76
  -1 -17 -16    1.79    4.50
  -1 -17 -16   -1.73    2.97
   1 -17 -16    4.14    4.23
   1 -17 -16    2.80    3.16
   1  17 -16   -3.05    4.10
  -1 -17 -17   51.81    5.53
  -1 -17 -17   30.55    3.73
   1 -17 -17   40.41    5.15
   1 -17 -17   34.75    3.88
   1  19   0  752.25    5.82
   1  19   0  536.05    5.25
   1  19  -1  447.69    5.09
   1  19  -1  296.54    4.40
   1  19   1  403.61    4.93
   1  19   1  301.29    4.56
  -1 -19  -2   21.30    2.79
   1 -19  -2   19.97    2.47
   1 -19   2   18.48    2.53
   1  19  -2   25.69    2.39
   1  19  -2   13.62    2.12
   1  19   2   18.45    2.20
   1  19   2   15.81    2.23
  -1 -19  -3  217.26    5.33
   1 -19  -3  204.44    4.64
   1 -19   3  179.64    4.59
   1  19  -3  234.51    4.79
   1  19  -3  153.03    4.20
   1  19   3  220.85    4.45
   1  19   3  186.47    4.40
  -1 -19  -4  872.99    8.10
  -1 -19   4  755.66    7.95
  -1  19  -4  697.44    5.38
  -1  19   4  808.44    5.44
   1 -19  -4  860.46    7.27
   1 -19   4  748.50    7.17
   1  19  -4  678.17    6.48
   1  19   4  884.16    6.85
   1  19   4  814.01    6.79
  -1 -19   5 1244.00    9.94
  -1  19  -5 1139.00    7.24
   1 -19  -5 1289.00    9.01
   1  19  -5 1118.00    8.20
   1  19   5 1429.00   10.36
  -1 -19   6 1331.00   10.70
  -1 -19   6 1331.00    6.83
  -1  19  -6 1199.00    8.08
   1 -19  -6 1348.00    9.63
   1  19  -6 1207.00    9.00
  -1 -19  -7 1048.00    9.87
  -1 -19  -7  928.13    5.86
  -1 -19  -7 1005.00    6.30
  -1 -19   7  958.62    9.75
  -1 -19   7  987.69    6.86
  -1  19  -7 1121.00   10.03
  -1  19  -7  930.60    7.89
   1 -19  -7  983.81    8.97
   1 -19   7  940.49    9.20
   1  19  -7  908.72    8.51
  -1 -19  -8  422.90    7.78
  -1 -19  -8  370.93    4.89
  -1 -19  -8  433.60    5.47
  -1 -19   8  414.26    7.81
  -1 -19   8  545.00    6.34
  -1 -19   8  401.82    5.66
  -1  19  -8  436.59    7.77
  -1  19  -8  384.77    6.37
   1 -19  -8  387.09    7.12
   1 -19   8  390.84    7.29
   1  19  -8  472.48    8.40
   1  19  -8  374.68    6.77
  -1 -19  -9   47.29    5.80
  -1 -19  -9   45.89    3.89
  -1 -19   9   49.12    5.88
  -1 -19   9   43.71    4.44
  -1  19  -9   58.38    5.95
  -1  19  -9   49.99    5.02
   1 -19  -9   40.96    3.89
   1 -19   9   50.02    5.58
   1 -19   9   61.05    4.22
   1  19  -9   58.10    6.51
   1  19  -9   46.39    5.30
  -1 -19 -10    2.21    3.51
  -1 -19 -10    6.61    2.36
  -1 -19  10    4.19    3.53
  -1 -19  10    2.24    2.77
  -1  19 -10    5.45    3.65
  -1  19 -10    3.55    2.97
   1 -19 -10    3.94    3.46
   1 -19 -10    3.03    2.12
   1 -19  10    1.43    3.42
   1 -19  10    4.06    2.65
   1  19 -10    4.69    3.95
   1  19 -10    6.46    3.17
  -1 -19 -11   42.64    4.30
  -1 -19 -11   49.24    4.52
  -1 -19  11   41.55    4.52
  -1 -19  11   43.64    5.34
  -1  19 -11   44.77    4.55
  -1  19 -11   31.39    3.52
   1 -19 -11   43.31    4.22
   1 -19 -11   43.45    4.19
   1 -19  11   40.03    4.32
   1 -19  11   54.27    5.09
   1  19 -11   47.35    4.86
   1  19 -11   33.94    3.80
  -1 -19 -12   38.40    4.53
  -1 -19 -12   41.90    4.83
  -1 -19  12   33.65    4.47
  -1 -19  12   47.41    5.68
  -1  19 -12   39.06    4.68
  -1  19 -12   28.28    3.85
   1 -19 -12   31.52    4.24
   1 -19 -12   31.48    3.02
   1 -19  12   32.24    4.38
   1 -19  12   36.29    3.60
   1  19 -12   41.49    4.97
   1  19 -12   27.47    3.84
  -1 -19 -13   -2.40    4.12
  -1 -19 -13    2.50    2.82
  -1 -19  13    0.66    4.14
  -1 -19  13    0.95    3.28
  -1  19 -13   -0.60    4.33
  -1  19 -13   -0.65    3.45
   1 -19 -13   -3.85    3.85
   1 -19 -13    1.58    2.77
   1 -19  13   -0.16    3.94
   1 -19  13    2.70    3.32
   1  19 -13    5.53    4.46
   1  19 -13    4.71    3.63
  -1 -19 -14   13.24    4.39
  -1 -19 -14   13.86    3.13
  -1  19 -14   15.52    3.78
   1 -19 -14   15.54    4.13
   1 -19 -14   17.46    3.03
   1  19 -14   18.50    4.31
  -1 -19 -15   32.66    4.80
  -1 -19 -15   32.81    3.67
   1 -19 -15   39.85    4.81
   1 -19 -15   30.94    3.42
  -1 -19 -16   49.91    5.32
  -1 -19 -16   62.05    5.99
   1 -19 -16   47.79    5.05
   1 -19 -16   61.21    5.75
   1  21   0  180.40    4.53
   1  21   0  125.93    4.09
   1  21  -1   84.55    4.12
   1  21  -1   56.29    3.76
   1  21   1   78.82    3.94
   1  21   1   57.94    3.90
  -1 -21  -2   11.98    2.92
   1 -21  -2    9.77    2.53
   1  21  -2    1.05    2.16
   1  21   2   10.38    3.54
   1  21   2    4.80    2.31
  -1 -21  -3  272.01    5.93
   1 -21  -3  266.82    5.30
   1 -21   3  225.56    5.20
   1  21  -3  189.36    4.66
   1  21   3  225.65    4.96
  -1 -21  -4  604.54    7.48
  -1 -21   4  506.37    7.28
  -1  21  -4  450.14    4.96
  -1  21   4  529.14    5.18
  -1  21   4  526.29    5.09
   1 -21  -4  570.10    6.70
   1 -21   4  506.41    6.72
   1  21  -4  447.78    6.01
   1  21   4  544.15    6.24
  -1 -21  -5  759.38    8.37
  -1 -21   5  711.45    8.46
  -1  21  -5  646.07    6.07
   1 -21  -5  796.80    7.79
   1 -21   5  690.15    7.80
   1  21  -5  614.40    6.93
  -1 -21  -6  892.93    9.17
  -1 -21   6  867.61    9.48
  -1  21  -6  787.64    7.07
   1 -21  -6  920.69    8.63
   1 -21   6  813.80    8.56
   1  21  -6  774.33    7.89
  -1 -21  -7  783.52    9.11
  -1 -21   7  729.75    9.30
  -1  21  -7  863.62    9.36
  -1  21  -7  669.66    7.22
   1 -21  -7  724.22    8.35
   1 -21   7  719.65    8.61
   1  21  -7  694.01    8.01
  -1 -21  -8  347.85    7.47
  -1 -21   8  308.95    7.55
  -1 -21   8  429.14    5.66
  -1 -21   8  337.10    5.23
  -1  21  -8  364.16    7.75
  -1  21  -8  293.59    6.12
   1 -21  -8  320.91    6.89
   1 -21   8  308.82    7.03
   1  21  -8  301.13    6.63
  -1 -21  -9   36.14    4.01
  -1 -21  -9   32.41    3.77
  -1 -21  -9   36.22    4.27
  -1 -21   9   38.64    4.26
  -1 -21   9   44.85    4.60
  -1 -21   9   36.00    4.41
  -1  21  -9   38.27    4.27
  -1  21  -9   24.45    3.18
   1 -21  -9   31.37    3.69
   1 -21   9   27.99    3.88
   1  21  -9   41.87    4.54
   1  21  -9   44.47    5.52
  -1 -21 -10   11.22    3.69
  -1 -21 -10    9.69    2.38
  -1 -21  10    5.70    3.72
  -1 -21  10    5.48    2.77
  -1  21 -10   12.11    4.07
  -1  21 -10    5.14    3.18
   1 -21 -10    8.85    3.59
   1 -21  10    6.07    3.67
   1 -21  10    8.42    2.58
   1  21 -10    9.30    4.29
   1  21 -10   12.25    3.44
  -1 -21 -11   48.40    4.52
  -1 -21 -11   47.45    4.57
  -1 -21  11   60.77    7.10
  -1 -21  11   51.43    5.28
  -1  21 -11   57.26    7.06
  -1  21 -11   49.45    5.79
   1 -21 -11   54.73    6.48
   1 -21  11   38.89    4.45
   1 -21  11   60.76    5.20
   1  21 -11   57.44    5.30
   1  21 -11   38.20    4.21
  -1 -21 -12   45.95    4.68
  -1 -21 -12   29.65    3.04
  -1 -21  12   39.36    4.91
  -1 -21  12   44.44    5.51
  -1  21 -12   36.82    4.87
  -1  21 -12   24.32    3.74
   1 -21 -12   35.36    4.30
   1 -21 -12   29.47    2.77
   1 -21  12   34.17    4.59
   1 -21  12   33.49    3.52
   1  21 -12   42.61    5.13
   1  21 -12   29.99    4.05
  -1 -21 -13   -1.36    4.01
  -1 -21 -13    1.33    2.72
   1 -21 -13   -0.46    3.88
   1 -21 -13   -1.80    2.56
   1 -21  13   -1.40    3.22
   1  21 -13    0.20    4.02
  -1 -21 -14   13.51    4.38
  -1 -21 -14   14.64    3.09
   1 -21 -14   13.28    4.27
   1 -21 -14    9.35    2.84
  -1 -21 -15   73.49    7.59
  -1 -21 -15   75.66    5.68
   1 -21 -15   79.66    7.35
   1 -21 -15   78.53    5.52
   1  23   0  193.27    4.77
   1  23  -1  116.42    4.45
   1  23   1  107.90    4.39
  -1 -23  -2   16.36    3.24
   1 -23  -2   12.49    2.84
   1  23  -2    7.88    2.43
   1  23   2    7.46    2.55
  -1 -23  -3   42.87    5.26
   1 -23  -3   39.82    4.59
   1 -23   3   36.75    3.23
   1  23  -3   26.91    2.78
   1  23   3   36.85    4.46
  -1 -23  -4  240.52    6.28
  -1 -23   4  183.88    6.20
  -1  23  -4  163.18    4.18
  -1  23   4  191.91    4.37
   1 -23  -4  218.06    5.67
   1 -23   4  193.51    5.70
   1  23  -4  165.20    5.08
   1  23   4  200.71    5.15
  -1 -23  -5  332.94    6.87
  -1 -23   5  294.82    6.94
  -1  23  -5  262.01    4.97
  -1  23   5  280.95    4.99
   1 -23  -5  309.43    6.33
   1 -23   5  300.18    6.49
   1  23  -5  252.64    5.74
  -1 -23  -6  293.08    6.91
  -1 -23   6  267.06    7.06
  -1  23  -6  237.50    5.22
   1 -23  -6  279.59    6.36
   1 -23   6  268.67    6.64
   1  23  -6  236.77    5.91
  -1 -23  -7  182.05    6.64
  -1 -23   7  179.14    6.77
  -1  23  -7  164.40    5.25
   1 -23  -7  171.11    6.02
   1 -23   7  166.84    6.32
   1  23  -7  163.16    5.81
  -1 -23  -8   50.59    4.23
  -1 -23   8   50.43    6.19
  -1  23  -8   39.82    4.98
   1 -23  -8   51.90    5.66
   1 -23   8   43.18    4.06
   1  23  -8   48.74    5.53
  -1 -23  -9    2.36    3.67
  -1 -23   9    1.85    3.78
  -1 -23   9    4.74    2.58
  -1 -23   9   -1.55    2.42
  -1  23  -9   -4.18    3.87
  -1  23  -9    0.54    3.00
   1 -23  -9    7.38    3.45
   1 -23   9   -3.64    3.53
   1  23  -9    1.22    3.30
  -1 -23 -10   92.19    6.78
  -1 -23 -10   88.87    4.15
  -1 -23 -10   96.86    4.73
  -1 -23  10   82.24    7.18
  -1 -23  10  113.76    5.18
  -1 -23  10   91.11    5.03
  -1  23 -10   95.20    7.31
  -1  23 -10   72.17    5.93
   1 -23 -10   82.62    6.50
   1 -23  10   78.51    6.66
   1  23 -10   91.66    7.81
   1  23 -10   77.47    6.30
  -1 -23 -11  149.59    7.22
  -1 -23 -11  132.37    4.71
  -1 -23 -11  161.42    5.45
  -1 -23  11  158.42    5.74
  -1  23 -11  168.97    8.27
  -1  23 -11  129.58    6.69
   1 -23 -11  144.48    7.21
   1 -23  11  126.34    7.51
   1 -23  11  186.37    4.96
   1 -23  11  165.49    5.19
   1  23 -11  175.66    8.46
   1  23 -11  146.23    6.98
  -1 -23 -12   87.20    7.04
  -1 -23 -12   81.18    4.80
  -1 -23  12   94.32    9.25
   1 -23 -12   69.27    6.83
   1 -23  12  104.24    5.51
  -1 -23 -13    9.83    4.18
  -1 -23 -13    6.91    2.73
   1 -23 -13    3.48    4.08
   1 -23 -13    5.76    2.61
  -1 -23 -14    0.65    4.21
  -1 -23 -14    0.04    2.80
   1 -23 -14   -9.57    3.94
   1 -23 -14   -3.19    2.60
   1  25   0  572.14    6.67
   1  25  -1  457.80    6.28
   1  25   1  441.06    6.14
  -1 -25  -2  226.61    6.34
   1 -25  -2  197.80    5.72
   1  25  -2  171.66    5.10
   1  25   2  165.92    5.36
  -1 -25  -3   24.61    3.58
  -1  25  -3   14.10    2.18
   1 -25  -3   12.96    3.12
   1 -25   3   20.35    3.15
   1  25  -3   13.38    2.76
   1  25   3   14.88    2.96
  -1 -25  -4   -4.14    3.23
  -1 -25   4   -0.65    3.15
  -1  25  -4    3.40    2.19
  -1  25   4   -5.15    2.35
   1 -25  -4   -6.38    3.01
   1 -25   4   -1.32    2.93
   1  25  -4    2.27    2.70
   1  25   4   -4.61    2.82
  -1 -25  -5    7.42    3.42
  -1 -25   5    8.11    3.43
  -1  25  -5    3.19    2.36
  -1  25   5   -0.80    2.51
   1 -25  -5    1.03    3.13
   1 -25   5    8.13    3.28
   1  25  -5    3.73    2.84
  -1 -25  -6   27.95    3.78
  -1 -25   6   28.96    3.97
  -1  25  -6   21.05    2.80
   1 -25  -6   31.26    3.65
   1 -25   6   22.39    3.60
   1  25  -6   19.32    3.25
  -1 -25  -7   58.35    6.17
  -1 -25   7   51.34    4.50
  -1  25  -7   52.66    5.00
   1 -25  -7   49.04    4.04
   1 -25   7   54.34    5.96
   1  25  -7   58.67    5.51
  -1 -25  -8   17.18    3.81
  -1 -25   8   15.48    4.05
  -1  25  -8   10.16    3.10
   1 -25  -8   14.21    3.56
   1 -25   8   15.79    3.86
   1  25  -8   13.25    3.47
  -1 -25  -9   13.50    3.88
  -1 -25   9    9.73    4.07
  -1  25  -9    5.33    3.27
   1 -25  -9   16.68    3.63
   1 -25   9    9.62    3.86
   1  25  -9    8.26    3.47
  -1 -25 -10  161.93    7.24
  -1 -25  10  190.79    5.12
  -1 -25  10  156.04    5.21
  -1  25 -10  165.93    9.48
   1 -25 -10  153.12    6.79
  -1 -25 -11  302.87    8.30
  -1 -25  11  368.93    6.39
  -1 -25  11  319.63    6.34
   1 -25 -11  305.69    8.06
  -1 -25 -12  250.37    8.26
  -1 -25 -12  237.54    5.11
  -1 -25 -12  268.61    5.82
   1 -25 -12  230.30    8.10
   1  27   0  820.46    7.97
   1 -27  -1  801.18    8.18
   1  27  -1  617.48    7.38
   1  27   1  624.60    7.30
  -1 -27  -2  463.08    7.77
   1 -27  -2  418.27    7.07
   1 -27   2  441.29    7.09
   1  27  -2  364.67    6.41
   1  27   2  352.46    6.57
  -1 -27  -3  206.59    6.84
  -1  27  -3  174.33    4.53
  -1  27   3  149.90    4.66
   1 -27  -3  163.61    6.04
   1 -27   3  202.16    6.17
   1  27  -3  178.88    5.82
   1  27   3  150.98    5.84
  -1 -27  -4   50.53    5.92
  -1 -27   4   60.69    6.03
  -1  27  -4   51.26    4.21
  -1  27   4   40.50    3.10
   1 -27  -4   53.73    4.00
   1 -27   4   63.10    5.50
   1  27  -4   52.13    5.24
   1  27   4   46.33    3.71
  -1 -27  -5   -4.08    3.36
  -1 -27   5   -3.37    3.50
  -1  27  -5    1.00    2.52
  -1  27   5   -6.97    2.60
   1 -27   5    1.90    3.31
   1  27  -5   -0.83    3.01
  -1 -27  -6   58.00    6.12
  -1 -27   6   54.04    6.31
  -1  27  -6   53.88    4.86
   1 -27  -6   45.99    5.73
   1 -27   6   54.49    5.84
   1  27  -6   50.23    5.52
  -1 -27  -7  109.66    6.55
  -1 -27   7   97.51    6.83
  -1  27  -7   99.37    5.41
   1 -27  -7   92.61    6.06
   1 -27   7   94.05    6.43
   1  27  -7  105.07    5.97
  -1 -27  -8   22.38    4.00
   1 -27  -8   23.20    3.74
   1 -27   8   16.92    3.84
  -1 -27  -9   30.89    4.15
   1 -27  -9   25.37    3.85
  -1 -27 -10  214.13    7.59
   1 -27 -10  195.98    7.12
  -1 -27 -11  363.92    8.64
   1 -27 -11  358.49    8.49
   1  29   0  658.42    7.94
  -1  29  -1  547.04    5.96
   1 -29  -1  706.82    8.26
   1  29  -1  595.15    7.64
   1  29   1  594.16    7.68
  -1 -29  -2  381.67    7.61
  -1  29  -2  296.77    5.23
   1 -29  -2  316.27    6.89
   1 -29   2  369.65    7.00
   1  29  -2  317.90    6.67
   1  29   2  311.67    6.77
  -1 -29  -3   36.57    4.14
  -1  29  -3   40.84    4.16
  -1  29   3   19.20    2.90
   1 -29  -3   19.91    3.65
   1 -29   3   34.29    3.72
   1  29  -3   23.87    3.30
   1  29   3   22.98    3.58
  -1 -29  -4   26.57    3.94
  -1 -29   4   23.27    3.96
  -1  29  -4   18.36    2.73
  -1  29   4   15.69    3.01
   1 -29  -4   20.92    3.55
   1 -29   4   24.58    3.58
   1  29  -4   13.36    3.30
   1  29   4   24.35    3.56
  -1 -29  -5  123.19    6.41
  -1 -29   5  109.36    6.62
  -1  29  -5  100.13    4.97
  -1  29   5   95.27    5.18
   1 -29  -5   97.63    5.90
   1 -29   5  106.82    6.23
  -1 -29  -6  122.29    6.58
   1 -29  -6   87.49    6.01
   1 -29   6  105.73    6.37
  -1 -29  -7   44.95    4.35
   1 -29  -7   34.22    3.94
  -1 -29  -8    1.73    3.65
   1 -29  -8   -0.87    3.42
  -1  31   0  336.78    5.66
  -1  31  -1  183.98    5.11
   1 -31  -1  207.66    6.27
  -1 -31  -2   11.37    3.60
  -1  31  -2    7.96    2.60
  -1  31   2    3.74    2.68
   1 -31  -2   -2.94    3.39
   1 -31   2   12.06    3.49
  -1 -31  -3   49.70    4.26
  -1  31  -3   35.29    3.88
  -1  31   3   34.59    3.29
   1 -31  -3   39.29    3.86
   1 -31   3   39.70    3.98
  -1 -31  -4  220.06    6.93
   1 -31  -4  202.34    6.37
   1 -31   4  194.90    6.74
  -1 -31  -5  266.35    7.36
   1 -31  -5  225.28    6.64
  -2   0  -4   50.11    3.14
  -2   0  -4   59.34    3.13
  -2   0   4   42.96    3.02
  -2   0   4   42.21    2.72
   2   0  -4   49.56    3.13
   2   0  -4   50.47    2.63
   2   0   4   49.37    2.97
   2   0   4   53.62    3.00
  -2   0  -6  157.56    4.71
  -2   0  -6  177.95    4.48
  -2   0   6  163.58    4.59
  -2   0   6  145.93    3.88
   2   0  -6  170.61    4.77
   2   0  -6  160.68    4.02
   2   0   6  154.95    4.54
   2   0   6  179.82    4.41
  -2   0  -7    3.57    2.43
  -2   0  -7    5.42    2.10
  -2   0   7    6.07    2.34
  -2   0   7    4.07    1.95
   2   0  -7    4.72    2.43
   2   0  -7    5.06    1.96
   2   0   7    5.55    2.33
   2   0   7    7.69    2.06
  -2   0  -8  140.08    5.05
  -2   0  -8  163.88    4.72
  -2   0   8  143.25    4.68
  -2   0   8  139.73    4.03
   2   0  -8  147.61    4.99
   2   0  -8  145.31    4.28
   2   0   8  147.29    4.93
   2   0   8  167.98    4.44
  -2   0  -9   10.40    2.71
  -2   0  -9    7.23    2.27
  -2   0   9    4.29    2.47
  -2   0   9    7.39    2.07
   2   0  -9    7.53    2.72
   2   0  -9    4.92    2.19
   2   0   9    7.58    2.72
   2   0   9    9.21    2.28
  -2   0 -10  485.87    7.72
  -2   0 -10  502.05    6.98
  -2   0  10  432.46    7.24
  -2   0  10  461.77    6.56
   2   0 -10  478.31    7.62
   2   0 -10  460.28    6.82
   2   0  10  489.02    7.53
   2   0  10  521.39    6.98
  -2   0 -12  651.81    9.53
  -2   0 -12  666.11    8.54
  -2   0  12  635.86    9.10
  -2   0  12  577.69    7.93
   2   0 -12  665.71    9.54
   2   0 -12  612.19    8.27
   2   0  12  654.97    9.23
   2   0  12  670.76    8.47
  -2   0 -13  203.19    7.53
  -2   0 -13  201.34    6.58
  -2   0  13  203.83    7.12
  -2   0  13  186.48    6.19
   2   0 -13  206.56    7.47
   2   0 -13  190.60    6.51
   2   0  13  204.52    7.16
   2   0  13  208.90    6.43
  -2   0 -14  200.08    7.88
  -2   0 -14  177.50    6.69
  -2   0  14  189.01    7.35
  -2   0  14  176.23    6.46
   2   0 -14  203.01    7.84
   2   0 -14  187.25    6.90
   2   0  14  195.23    7.48
   2   0  14  203.12    6.79
  -2   0 -15   48.68    5.02
  -2   0 -15   43.23    3.99
  -2   0  15   54.37    4.78
  -2   0  15   46.61    5.71
   2   0 -15   54.90    4.93
   2   0 -15   52.53    6.28
   2   0  15   56.38    6.90
   2   0  15   56.73    6.29
  -2   0 -16   57.04    5.24
  -2   0 -16   37.52    4.19
  -2   0  16   52.78    4.97
  -2   0  16   49.11    6.01
   2   0 -16   46.51    5.03
   2   0 -16   40.81    4.34
   2   0  16   55.27    5.30
   2   0  16   58.67    6.57
  -2   0 -17    3.55    4.61
  -2   0 -17    3.20    3.68
  -2   0  17    3.18    4.34
  -2   0  17    3.30    3.45
   2   0 -17    2.81    4.36
   2   0 -17    2.38    3.64
   2   0  17    3.95    4.50
   2   0  17    4.95    3.83
  -2   0 -18   12.45    4.91
  -2   0 -18   11.28    3.99
  -2   0  18    8.17    4.65
  -2   0  18    7.25    3.64
   2   0 -18    9.72    4.86
   2   0 -18   13.23    4.01
   2   0  18    6.92    4.89
   2   0  18   14.00    4.34
  -2   0 -19    0.52    4.67
  -2   0 -19   -2.21    3.64
  -2   0  19   -4.69    4.60
   2   0 -19   -5.75    4.62
   2   0 -19   -2.31    3.81
   2   0  19   -9.64    4.56
   2   0  19   -5.11    3.91
  -2   0 -20   -3.97    4.71
  -2   0 -20   -1.42    3.69
   2   0 -20    4.33    4.92
   2   0 -20    5.02    3.93
   2   0  20   -3.73    4.79
   2   0  20   -1.11    4.26
  -2  -2  -2   17.65    1.69
  -2  -2  -2   18.44    1.66
  -2  -2   2   17.26    1.66
  -2  -2   2   14.40    1.49
  -2   2  -2   14.36    1.38
  -2   2  -2   22.67    1.33
  -2   2   2   12.95    1.31
  -2   2   2    0.26    0.25
   2  -2  -2   15.56    1.37
   2  -2  -2   14.55    1.14
   2  -2   2   16.09    1.37
   2  -2   2   21.40    1.30
   2   2  -2   17.16    1.69
   2   2  -2   15.93    1.53
   2   2   2   15.30    1.65
   2   2   2   18.11    1.56
  -2  -2  -3    6.65    1.47
  -2  -2  -3    6.23    1.22
  -2  -2   3    5.97    1.37
  -2  -2   3    5.30    1.18
  -2   2  -3    4.65    1.27
  -2   2  -3    6.14    1.16
  -2   2   3    5.39    1.20
  -2   2   3    4.92    1.01
   2  -2  -3    5.07    1.16
   2  -2  -3    4.37    1.03
   2  -2   3    5.38    1.17
   2  -2   3    6.97    1.13
   2   2  -3    5.12    1.39
   2   2  -3    4.77    1.19
   2   2   3    7.29    1.45
   2   2   3    5.53    1.22
  -2  -2  -4   44.36    3.34
  -2  -2  -4   45.32    3.23
  -2  -2   4   40.96    3.19
  -2  -2   4   40.93    2.83
  -2   2  -4   44.06    3.16
  -2   2  -4   46.31    3.07
  -2   2   4   40.69    2.92
  -2   2   4   37.38    2.65
   2  -2  -4   43.53    3.09
   2  -2  -4   37.03    2.65
   2  -2   4   40.42    2.98
   2  -2   4   45.70    2.92
   2   2  -4   48.78    3.35
   2   2  -4   41.66    2.87
   2   2   4   40.82    3.11
   2   2   4   45.82    3.07
  -2  -2  -5   98.59    4.21
  -2  -2  -5  102.09    3.93
  -2  -2   5   92.04    3.99
  -2  -2   5   90.19    3.60
  -2   2  -5   86.97    4.06
  -2   2  -5  112.37    3.81
  -2   2   5   83.03    3.74
  -2   2   5   80.95    3.41
   2  -2  -5   88.52    3.85
   2  -2  -5   87.58    3.34
   2  -2   5   87.06    3.89
   2  -2   5   99.57    3.65
   2   2  -5   96.91    4.29
   2   2  -5   90.95    3.61
   2   2   5   96.73    4.00
   2   2   5  100.90    3.80
  -2  -2  -6   26.57    2.66
  -2  -2  -6   26.18    2.38
  -2  -2   6   18.38    2.46
  -2  -2   6   22.94    2.14
  -2   2  -6   24.65    2.70
  -2   2  -6   21.27    2.31
  -2   2   6   19.68    2.42
  -2   2   6   17.82    2.02
   2  -2  -6   26.36    2.60
   2  -2  -6   20.66    2.06
   2  -2   6   30.86    2.68
   2  -2   6   29.06    2.38
   2   2  -6   24.68    2.73
   2   2  -6   26.27    2.27
   2   2   6   22.87    2.57
   2   2   6   33.03    3.61
  -2  -2  -7  127.06    4.60
  -2  -2  -7  121.18    4.17
  -2  -2   7  117.66    4.55
  -2  -2   7  110.47    3.80
  -2   2  -7  109.97    4.69
  -2   2  -7  125.87    4.16
  -2   2   7   96.51    4.11
  -2   2   7  106.19    3.69
   2  -2  -7  113.04    4.42
   2  -2  -7  110.16    3.89
   2  -2   7  117.45    4.38
   2  -2   7  125.26    3.98
   2   2  -7  121.65    4.70
   2   2  -7  111.79    4.09
   2   2   7  113.67    4.54
   2   2   7  131.01    4.13
  -2  -2  -8   10.91    2.66
  -2  -2  -8    5.27    2.16
  -2  -2   8    2.90    2.27
  -2  -2   8    6.78    2.05
  -2   2  -8    4.15    2.59
  -2   2  -8    6.45    2.14
  -2   2   8    4.82    2.26
  -2   2   8    3.45    1.85
   2  -2  -8    4.25    2.42
   2  -2  -8    2.91    1.93
   2  -2   8    9.26    2.39
   2  -2   8    4.38    2.06
   2   2  -8    5.17    2.48
   2   2  -8    3.26    2.08
   2   2   8    5.60    2.47
   2   2   8    5.90    2.13
  -2  -2  -9  693.44    8.18
  -2  -2  -9  702.78    7.21
  -2  -2   9  653.88    7.65
  -2  -2   9  681.02    7.02
  -2   2  -9  686.88    8.05
  -2   2  -9  719.14    7.31
   2  -2  -9  631.94    6.73
   2  -2   9  654.78    7.69
   2   2  -9  741.75    8.45
   2   2  -9  708.09    7.37
  -2  -2 -10  491.20    7.75
  -2  -2 -10  457.72    6.66
  -2  -2  10  461.29    7.51
  -2  -2  10  434.96    6.55
  -2   2 -10  461.12    7.58
  -2   2 -10  483.16    6.84
  -2   2  10  454.16    7.30
  -2   2  10  441.61    6.36
   2  -2 -10  474.91    7.52
   2  -2 -10  450.09    6.55
   2  -2  10  471.00    7.43
   2  -2  10  521.64    6.97
   2   2 -10  488.57    7.92
   2   2 -10  450.41    6.85
   2   2  10  516.90    7.82
   2   2  10  519.97    7.05
  -2  -2 -11  190.23    6.65
  -2  -2 -11  189.63    5.68
  -2  -2  11  170.88    6.00
  -2  -2  11  176.68    5.53
  -2   2 -11  203.70    6.68
  -2   2 -11  186.04    5.70
  -2   2  11  182.48    6.23
  -2   2  11  175.51    5.48
   2  -2 -11  181.21    6.50
   2  -2 -11  176.85    5.56
   2  -2  11  179.37    6.15
   2  -2  11  202.64    5.71
   2   2 -11  184.08    6.66
   2   2 -11  171.25    5.86
   2   2  11  204.38    6.54
   2   2  11  213.03    5.77
  -2  -2 -12  334.86    7.94
  -2  -2 -12  346.05    7.02
  -2  -2  12  319.89    7.35
  -2  -2  12  322.81    6.75
  -2   2 -12  351.11    7.97
  -2   2 -12  364.71    7.08
  -2   2  12  342.04    7.63
  -2   2  12  315.25    6.52
   2  -2 -12  322.37    7.63
   2  -2 -12  329.61    6.78
   2  -2  12  362.17    7.66
   2  -2  12  376.89    7.08
   2   2 -12  332.08    7.84
   2   2 -12  347.72    7.22
   2   2  12  375.67    7.98
   2   2  12  367.63    7.11
  -2  -2 -13  323.26    8.31
  -2  -2 -13  309.72    7.18
  -2  -2  13  325.58    7.89
  -2  -2  13  315.19    7.03
  -2   2 -13  325.51    8.19
  -2   2 -13  328.63    7.33
  -2   2  13  326.19    7.85
  -2   2  13  312.77    6.97
   2  -2 -13  324.80    8.02
   2  -2 -13  324.63    7.12
   2  -2  13  335.69    7.94
   2  -2  13  356.77    7.41
   2   2 -13  329.45    8.33
   2   2 -13  321.50    7.47
   2   2  13  356.56    8.32
   2   2  13  336.85    7.31
  -2  -2 -14   56.41    7.04
  -2  -2 -14   53.76    5.88
  -2  -2  14   61.75    6.23
  -2  -2  14   57.83    5.64
  -2   2 -14   65.07    6.93
  -2   2 -14   65.42    5.82
  -2   2  14   65.33    6.46
  -2   2  14   61.61    5.57
   2  -2 -14   70.85    6.71
   2  -2 -14   63.84    5.90
   2  -2  14   69.45    6.39
   2  -2  14   75.78    6.01
   2   2 -14   66.51    5.14
   2   2 -14   63.72    6.25
   2   2  14   64.88    6.67
   2   2  14   61.33    5.91
  -2  -2 -15   32.98    4.73
  -2  -2 -15   27.54    3.84
  -2  -2  15   27.06    4.32
  -2  -2  15   25.60    3.61
  -2   2 -15   31.32    4.48
  -2   2 -15   23.31    3.78
  -2   2  15   24.81    4.30
  -2   2  15   26.69    3.71
   2  -2 -15   35.09    4.79
   2  -2 -15   25.48    3.85
   2  -2  15   29.25    4.39
   2  -2  15   29.85    3.92
   2   2 -15   35.45    4.81
   2   2 -15   27.68    3.92
   2   2  15   28.61    4.56
   2   2  15   28.09    3.93
  -2  -2 -16    4.68    4.16
  -2  -2 -16   -0.66    3.33
  -2  -2  16   -1.80    3.89
  -2  -2  16    2.19    3.29
  -2   2 -16    0.60    4.27
  -2   2 -16   -2.18    3.34
  -2   2  16   -2.65    3.94
  -2   2  16   -1.96    3.27
   2  -2 -16   -1.71    4.05
   2  -2 -16   -1.17    3.47
   2  -2  16   -3.79    3.99
   2  -2  16   -1.09    3.55
   2   2 -16    0.98    4.12
   2   2 -16    0.56    3.39
   2   2  16    1.32    4.19
   2   2  16    3.03    3.53
  -2  -2 -17    1.63    4.30
  -2  -2 -17    0.44    3.67
  -2  -2  17    4.12    4.28
  -2  -2  17    1.83    3.40
  -2   2 -17   -2.00    4.36
  -2   2 -17    0.10    3.56
  -2   2  17   -9.53    4.11
  -2   2  17   -3.68    3.82
   2  -2 -17   -7.72    4.11
   2  -2 -17   -6.06    3.83
   2  -2  17    1.90    4.24
   2  -2  17   -0.42    3.96
   2   2 -17    1.31    4.47
   2   2 -17    4.03    3.78
   2   2  17    4.58    4.42
   2   2  17   -1.56    3.71
  -2  -2 -18   19.82    4.99
  -2  -2 -18   13.56    3.93
  -2  -2  18   26.56    4.86
  -2  -2  18   16.60    4.13
  -2   2 -18   14.33    4.82
  -2   2 -18   11.80    4.00
  -2   2  18    5.22    7.44
   2  -2 -18    8.37    4.77
   2  -2 -18   12.07    4.10
   2  -2  18   15.24    4.87
   2  -2  18   14.82    4.32
   2   2 -18   20.31    5.08
   2   2 -18   18.92    4.05
   2   2  18   21.14    5.09
   2   2  18   22.06    4.26
  -2  -2 -19   -6.54    4.66
  -2  -2 -19    0.21    3.55
  -2  -2  19   -2.56    4.41
  -2  -2  19   -1.10    3.72
  -2   2 -19   -8.18    4.63
  -2   2 -19   -7.11    3.77
   2  -2 -19   -6.34    4.54
   2  -2 -19   -3.91    3.63
   2  -2  19   -9.68    4.61
   2  -2  19   -9.34    3.94
   2   2 -19    0.68    4.82
   2   2 -19   -2.40    3.79
   2   2  19    0.62    4.76
   2   2  19   -3.58    3.96
  -2  -4   0    5.04    0.87
  -2  -4   0    3.99    0.90
   2   4   0    4.97    0.93
   2   4   0    3.49    0.91
  -2   4  -1  297.37    1.80
   2  -4   1  294.71    1.78
  -2  -4  -3  365.23    4.19
  -2  -4  -3  402.07    3.98
  -2  -4   3  331.99    3.71
  -2   4  -3  338.47    3.59
  -2   4   3  300.47    3.27
   2  -4  -3  307.80    3.32
   2  -4   3  312.25    3.44
   2   4  -3  352.39    3.90
   2   4   3  409.56    4.03
  -2  -4  -4  167.15    4.14
  -2  -4  -4  178.80    3.89
  -2  -4   4  151.79    4.10
  -2  -4   4  135.52    3.53
  -2   4  -4  144.87    3.78
  -2   4  -4  190.74    3.55
  -2   4   4  133.44    3.46
  -2   4   4   46.25    1.89
   2  -4  -4  150.36    3.51
   2  -4  -4  148.10    2.97
   2  -4   4  133.33    3.60
   2  -4   4  195.68    3.39
   2   4  -4  168.75    4.29
   2   4  -4  155.15    3.69
   2   4   4  177.20    4.23
   2   4   4  176.65    3.83
  -2  -4  -5   39.94    4.01
  -2  -4  -5   49.14    3.61
  -2  -4   5   33.95    3.89
  -2  -4   5   33.01    3.38
  -2   4  -5   33.13    3.62
  -2   4  -5   46.62    3.47
  -2   4   5   31.69    3.43
  -2   4   5   32.72    3.00
   2  -4  -5   35.25    3.50
   2  -4  -5   36.50    2.97
   2  -4   5   38.63    3.61
   2  -4   5   43.88    3.33
   2   4  -5   39.47    4.08
   2   4  -5   33.45    3.39
   2   4   5   42.51    3.87
   2   4   5   44.14    3.56
  -2  -4  -6  100.27    4.42
  -2  -4  -6  103.21    3.99
  -2  -4   6  107.33    4.21
  -2  -4   6   94.55    3.62
  -2   4  -6   90.91    4.20
  -2   4  -6  108.42    3.94
  -2   4   6   95.33    4.03
  -2   4   6   89.01    3.45
   2  -4  -6   82.74    3.92
   2  -4  -6   91.12    3.40
   2  -4   6  102.37    4.09
   2  -4   6  116.07    3.86
   2   4  -6   99.22    4.55
   2   4  -6  104.40    3.92
   2   4   6   96.13    4.29
   2   4   6  111.06    3.97
  -2  -4  -7  167.55    5.02
  -2  -4  -7  160.29    4.32
  -2  -4   7  144.89    4.70
  -2  -4   7  160.70    4.11
  -2   4  -7  158.31    4.81
  -2   4  -7  166.01    4.33
  -2   4   7  153.63    4.50
  -2   4   7  148.75    3.93
   2  -4  -7  140.76    4.46
   2  -4  -7  156.39    3.89
   2  -4   7  159.25    4.65
   2  -4   7  177.08    4.39
   2   4  -7  169.07    5.08
   2   4  -7  166.28    4.37
   2   4   7  180.03    4.92
   2   4   7  177.85    4.30
  -2  -4  -8    2.97    2.48
  -2  -4  -8    1.57    2.02
  -2  -4   8    0.72    2.32
  -2  -4   8    1.59    1.89
  -2   4  -8    1.40    2.44
  -2   4  -8    2.45    2.03
  -2   4   8   -2.91    2.23
  -2   4   8   -0.80    1.70
   2  -4  -8   -2.12    2.29
   2  -4  -8   -1.30    1.82
   2  -4   8   -0.40    2.31
   2  -4   8    1.26    1.99
   2   4  -8    2.19    2.48
   2   4  -8    0.25    2.05
   2   4   8    2.73    2.42
   2   4   8    3.95    2.02
  -2  -4  -9   -0.15    2.55
  -2  -4  -9   -0.58    2.14
  -2  -4   9   -2.16    2.48
  -2  -4   9   -1.05    1.98
  -2   4  -9   -3.88    2.47
  -2   4  -9   -1.32    2.14
  -2   4   9   -1.36    2.29
  -2   4   9    0.10    1.98
   2  -4  -9   -1.19    2.60
   2  -4  -9   -1.41    2.04
   2  -4   9    3.29    2.47
   2  -4   9   -1.00    2.13
   2   4  -9   -1.50    2.57
   2   4  -9   -1.96    2.14
   2   4   9   -0.98    2.52
   2   4   9    0.93    2.21
  -2  -4 -10  226.92    6.36
  -2  -4 -10  218.06    5.43
  -2  -4  10  201.13    6.05
  -2  -4  10  193.33    5.25
  -2   4 -10  197.04    6.15
  -2   4 -10  202.58    5.38
  -2   4  10  200.91    5.84
  -2   4  10  197.25    4.98
   2  -4 -10  214.87    5.93
   2  -4 -10  203.46    5.20
   2  -4  10  215.18    6.04
   2  -4  10  232.12    5.46
   2   4 -10  215.83    6.45
   2   4 -10  197.09    5.65
   2   4  10  228.75    6.20
   2   4  10  222.28    5.59
  -2  -4 -11  299.99    7.31
  -2  -4 -11  272.25    6.11
  -2  -4  11  249.58    6.63
  -2  -4  11  259.49    6.07
  -2   4 -11  286.02    7.14
  -2   4 -11  285.41    6.19
  -2   4  11  273.78    6.76
  -2   4  11  274.31    5.87
   2  -4 -11  286.08    6.81
   2  -4 -11  278.43    5.93
   2  -4  11  285.02    6.88
   2  -4  11  312.82    6.25
   2   4 -11  278.46    7.20
   2   4 -11  260.05    6.37
   2   4  11  293.65    7.06
   2   4  11  298.44    6.26
  -2  -4 -12   44.48    4.17
  -2  -4 -12   44.11    3.61
  -2  -4  12   47.58    4.22
  -2  -4  12   37.68    3.36
  -2   4 -12   51.85    5.97
  -2   4 -12   48.57    5.12
  -2   4  12   50.72    5.78
  -2   4  12   43.12    4.56
   2  -4 -12   48.19    5.74
   2  -4 -12   48.67    4.97
   2  -4  12   50.80    5.59
   2  -4  12   54.92    5.10
   2   4 -12   41.22    4.22
   2   4 -12   36.95    3.56
   2   4  12   58.73    4.51
   2   4  12   51.77    3.92
  -2  -4 -13   -5.19    3.55
  -2  -4 -13   -4.31    2.81
  -2  -4  13   -1.96    3.23
  -2  -4  13   -1.18    2.72
  -2   4 -13   -3.23    3.55
  -2   4 -13   -0.36    2.93
  -2   4  13    0.06    3.24
  -2   4  13    1.70    2.78
   2  -4 -13    0.91    3.34
   2  -4 -13   -1.69    2.71
   2  -4  13   -1.11    3.35
   2  -4  13   -2.72    2.88
   2   4 -13    1.49    3.58
   2   4 -13   -0.13    3.00
   2   4  13   -5.20    3.47
   2   4  13   -3.67    2.91
  -2  -4 -14  -10.17    3.70
  -2  -4 -14   -6.47    3.08
  -2  -4  14   -3.69    3.58
  -2  -4  14   -2.12    2.94
  -2   4 -14   -0.72    3.58
  -2   4 -14    0.07    3.15
  -2   4  14   -2.85    3.40
  -2   4  14    0.15    2.92
   2  -4 -14   -1.01    3.57
   2  -4 -14    1.82    2.96
   2  -4  14   -4.30    3.53
   2  -4  14   -0.51    3.13
   2   4 -14   -1.23    3.75
   2   4 -14   -4.36    3.04
   2   4  14   -8.95    3.16
  -2  -4 -15   44.39    5.06
  -2  -4 -15   43.19    4.07
  -2  -4  15   54.59    6.52
  -2  -4  15   47.12    4.22
  -2   4 -15   46.78    4.79
  -2   4 -15   40.46    3.91
  -2   4  15   47.59    4.74
  -2   4  15   42.67    3.90
   2  -4 -15   43.16    4.65
   2  -4 -15   42.60    3.99
   2  -4  15   56.06    6.79
   2  -4  15   48.97    6.08
   2   4 -15   53.33    5.21
   2   4 -15   53.36    6.42
   2   4  15   45.02    4.85
   2   4  15   49.46    4.57
  -2  -4 -16   34.37    4.92
  -2  -4 -16   30.77    4.02
  -2  -4  16   37.76    4.98
  -2  -4  16   32.38    3.91
  -2   4 -16   38.59    5.06
  -2   4 -16   31.71    4.18
  -2   4  16   29.56    4.59
   2  -4 -16   29.09    4.75
   2  -4 -16   31.29    4.00
   2  -4  16   43.06    4.95
   2  -4  16   36.39    4.18
   2   4 -16   29.47    4.83
   2   4 -16   32.87    4.39
   2   4  16   42.69    5.13
   2   4  16   41.62    4.28
  -2  -4 -17  111.75    8.45
  -2  -4 -17   99.45    6.91
  -2  -4  17  130.19    8.29
  -2  -4  17   99.44    7.01
  -2   4 -17  117.81    8.55
  -2   4 -17   81.39    6.99
   2  -4 -17   78.30    8.13
   2  -4 -17   84.48    7.21
   2  -4  17  109.10    8.18
   2  -4  17  117.14    7.43
   2   4 -17  115.93    8.81
   2   4 -17  107.60    7.62
   2   4  17  116.80    8.28
   2   4  17  118.34    7.50
  -2  -4 -18   39.09    5.30
  -2  -4 -18   32.14    4.16
  -2  -4  18   41.39    5.23
  -2  -4  18   32.44    4.13
  -2   4 -18   26.30    5.20
  -2   4 -18   25.32    4.37
   2  -4 -18   22.86    4.94
   2  -4 -18   25.83    4.48
   2  -4  18   36.39    5.31
   2  -4  18   32.17    4.51
   2   4 -18   40.59    5.49
   2   4 -18   30.21    4.44
   2   4  18   38.74    5.41
  -2  -4 -19   38.76    5.56
  -2  -4 -19   33.73    4.26
  -2  -4  19   43.74    5.49
  -2  -4  19   30.18    4.22
  -2   4 -19   31.57    5.48
  -2   4 -19   32.39    4.82
   2  -4 -19   33.16    5.29
   2  -4 -19   32.24    4.74
   2  -4  19   42.98    5.76
   2  -4  19   39.48    5.42
   2   4 -19   48.97    5.84
   2   4 -19   43.60    4.91
  -2  -6   0   52.42    2.36
  -2  -6   0   34.67    2.24
   2   6   0   50.58    2.30
   2   6   0   37.49    2.36
  -2  -6  -3  262.42    3.97
  -2  -6   3  250.48    4.38
  -2  -6   3  215.95    3.68
  -2   6  -3  224.06    3.49
  -2   6  -3  312.80    3.00
  -2   6   3    3.89    0.42
   2  -6  -3  211.17    3.21
   2  -6   3  207.59    3.31
   2   6  -3  278.55    4.58
   2   6  -3  245.62    3.97
   2   6   3  287.79    4.04
  -2  -6  -5  575.16    6.18
  -2   6  -5  530.78    5.56
   2  -6   5  526.84    5.43
  -2  -6  -6  303.88    5.42
  -2  -6  -6  298.78    4.77
  -2  -6   6  304.09    5.42
  -2  -6   6  290.87    4.67
  -2   6  -6  294.71    5.13
  -2   6  -6  315.80    4.68
  -2   6   6  270.83    4.85
  -2   6   6  269.56    4.10
   2  -6  -6  270.47    4.81
   2  -6  -6  287.42    4.05
   2  -6   6  297.43    4.94
   2  -6   6  325.82    4.56
   2   6  -6  325.18    5.68
   2   6  -6  293.20    4.91
   2   6   6  305.17    5.36
   2   6   6  331.99    4.91
  -2  -6  -7  549.28    6.69
  -2  -6  -7  535.79    5.90
  -2  -6   7  533.74    6.57
  -2  -6   7  480.54    5.57
  -2   6  -7  499.97    6.29
  -2   6  -7  541.21    5.80
  -2   6   7  496.17    6.19
  -2   6   7  489.15    5.33
   2  -6  -7  455.38    5.99
   2  -6   7  499.45    6.29
   2   6  -7  564.89    6.98
   2   6  -7  524.10    6.01
   2   6   7  567.31    6.68
   2   6   7  571.60    6.09
  -2  -6  -8  550.58    7.28
  -2  -6  -8  524.97    6.16
  -2  -6   8  529.07    7.05
  -2  -6   8  532.88    6.17
  -2   6  -8  517.95    6.81
  -2   6  -8  554.41    6.31
  -2   6   8  502.39    6.55
  -2   6   8  498.79    5.71
   2  -6  -8  519.24    6.63
   2  -6   8  511.19    6.70
   2  -6   8  624.53    6.37
   2   6  -8  539.52    7.24
   2   6  -8  524.97    6.43
   2   6   8  590.82    7.25
   2   6   8  579.43    6.46
  -2  -6  -9   69.44    5.14
  -2  -6  -9   65.49    4.28
  -2  -6   9   68.36    4.85
  -2  -6   9   66.75    4.07
  -2   6  -9   71.66    4.91
  -2   6  -9   62.84    4.31
  -2   6   9   56.37    4.59
  -2   6   9   52.57    3.79
   2  -6  -9   52.84    4.67
   2  -6  -9   61.02    4.02
   2  -6   9   71.27    4.76
   2  -6   9   80.17    4.21
   2   6  -9   74.83    5.25
   2   6  -9   64.05    4.48
   2   6   9   72.21    4.89
   2   6   9   66.73    4.38
  -2  -6 -10    0.54    2.82
  -2  -6 -10    5.16    2.37
  -2  -6  10    2.55    2.84
  -2  -6  10    0.65    2.23
  -2   6 -10    4.01    2.95
  -2   6 -10    2.79    2.40
  -2   6  10    2.31    2.61
  -2   6  10    3.48    2.27
   2  -6 -10    4.90    2.77
   2  -6 -10    3.94    2.24
   2  -6  10    4.99    2.89
   2  -6  10    5.91    2.50
   2   6 -10    1.57    3.07
   2   6 -10    1.42    2.48
   2   6  10   -0.62    2.83
   2   6  10    5.48    2.47
  -2  -6 -11    4.31    3.29
  -2  -6 -11    4.08    2.53
  -2  -6  11    4.23    3.14
  -2  -6  11    2.00    2.48
  -2   6 -11    4.30    3.24
  -2   6 -11    6.62    2.71
  -2   6  11    7.62    2.91
  -2   6  11    8.37    2.46
   2  -6 -11    7.23    3.15
   2  -6 -11    8.50    2.46
   2  -6  11    4.68    3.10
   2  -6  11    5.62    2.65
   2   6 -11    3.87    3.53
   2   6 -11    3.09    2.73
   2   6  11   10.09    3.22
   2   6  11    8.81    2.78
  -2  -6 -12   13.65    3.73
  -2  -6 -12   12.14    2.90
  -2  -6  12   11.13    3.45
  -2  -6  12   10.83    2.84
  -2   6 -12   14.30    3.63
  -2   6 -12   10.40    2.89
  -2   6  12   12.93    3.37
  -2   6  12   12.14    2.76
   2  -6 -12   16.28    3.51
   2  -6 -12   12.52    2.76
   2  -6  12   10.06    3.31
   2  -6  12   16.45    3.08
   2   6 -12   13.74    3.81
   2   6 -12   10.91    2.98
   2   6  12   16.85    3.68
   2   6  12   14.57    3.09
  -2  -6 -13    1.01    3.65
  -2  -6 -13    2.43    2.96
  -2  -6  13    2.64    3.33
  -2  -6  13   10.76    2.96
  -2   6 -13    4.62    3.54
  -2   6 -13    1.63    3.11
  -2   6  13    3.43    3.37
  -2   6  13    4.62    2.86
   2  -6 -13    6.01    3.50
   2  -6 -13    5.93    2.89
   2  -6  13    4.63    3.73
   2  -6  13    0.29    3.03
   2   6 -13   11.35    3.94
   2   6 -13    4.38    3.07
   2   6  13    1.22    3.70
   2   6  13    3.52    3.27
  -2  -6 -14   83.52    7.41
  -2  -6 -14   77.32    6.02
  -2  -6  14   80.05    6.48
  -2  -6  14   76.59    5.70
  -2   6 -14   86.76    7.08
  -2   6 -14   86.12    6.05
  -2   6  14   89.32    6.48
  -2   6  14   87.26    5.78
   2  -6 -14   92.44    6.91
   2  -6 -14   89.17    5.80
   2  -6  14   77.74    6.75
   2  -6  14   93.32    6.18
   2   6 -14   92.25    7.18
   2   6 -14   92.36    6.40
   2   6  14   97.31    7.28
   2   6  14   81.58    6.16
  -2  -6 -15   68.85    7.51
  -2  -6 -15   51.72    5.98
  -2  -6  15   73.45    6.71
  -2  -6  15   56.69    5.93
  -2   6 -15   68.09    7.19
  -2   6 -15   68.80    6.24
  -2   6  15   70.68    6.66
   2  -6 -15   73.12    7.03
   2  -6 -15   71.29    5.98
   2  -6  15   79.80    7.23
   2  -6  15   85.51    6.42
   2   6 -15   63.51    7.31
   2   6 -15   62.36    6.58
   2   6  15   67.81    7.21
   2   6  15   65.15    6.29
  -2  -6 -16  177.07    8.54
  -2  -6 -16  155.23    7.01
  -2  -6  16  158.07    8.04
  -2  -6  16  154.92    7.01
  -2   6 -16  174.71    8.57
  -2   6 -16  155.23    7.33
   2  -6 -16  168.05    8.20
   2  -6 -16  148.95    6.98
   2  -6  16  175.74    8.44
   2  -6  16  185.38    7.66
   2   6 -16  174.39    8.86
   2   6 -16  144.07    7.65
   2   6  16  184.55    8.54
   2   6  16  176.87    7.39
  -2  -6 -17  117.97    8.47
  -2  -6 -17  100.71    6.84
  -2  -6  17  101.06    7.85
  -2  -6  17   94.61    6.96
  -2   6 -17  120.27    8.72
  -2   6 -17  104.56    7.30
   2  -6 -17   99.00    8.17
   2  -6 -17   95.11    7.16
   2  -6  17  116.38    8.48
   2  -6  17  110.49    7.48
   2   6 -17  122.21    9.04
   2   6 -17  100.06    7.70
   2   6  17  131.60    8.45
  -2  -6 -18  214.83    9.28
  -2  -6 -18  210.28    7.79
  -2  -6  18  235.00    9.50
  -2  -6  18  190.51    7.94
  -2   6 -18  218.18    9.65
  -2   6 -18  186.55    8.09
   2  -6 -18  186.06    9.09
   2  -6 -18  186.72    7.87
   2  -6  18  231.50    9.40
   2  -6  18  213.72    8.62
   2   6 -18  238.49   10.13
   2   6 -18  192.03    8.41
  -2  -6 -19  100.69    8.81
  -2  -6 -19   79.24    6.96
  -2  -6  19  105.00    8.84
  -2  -6  19   77.70    7.28
  -2   6 -19   92.30    9.02
  -2   6 -19   78.84    7.60
   2  -6 -19   82.49    8.55
   2  -6 -19   68.50    7.41
   2   6 -19  113.42    9.49
   2   6 -19   87.91    7.79
  -2  -8   0  288.50    3.67
  -2  -8   0  208.75    3.35
   2   8   0    0.04    0.36
   2   8   0  222.27    3.63
   2   8  -1  252.89    3.00
  -2  -8  -2    7.96    2.09
  -2  -8  -2    8.69    1.72
  -2  -8  -2   10.12    1.83
  -2  -8   2   12.13    1.81
  -2  -8   2    6.65    1.68
  -2   8  -2    8.58    1.50
  -2   8   2    7.03    1.38
   2  -8  -2    5.22    1.35
   2  -8   2    6.06    1.41
   2   8  -2    5.61    1.78
   2   8   2    6.98    1.66
  -2  -8  -3  163.40    4.20
  -2  -8  -3  156.49    3.66
  -2  -8   3  150.65    4.11
  -2  -8   3  127.29    3.41
  -2   8  -3  137.42    3.30
  -2   8   3  130.30    2.88
   2  -8  -3  128.55    3.01
   2  -8   3  122.48    3.07
   2   8  -3  130.04    3.58
   2   8   3  153.37    4.05
   2   8   3  162.74    3.67
  -2  -8   4  558.30    5.11
  -2   8  -4  583.42    5.24
  -2   8   4  183.50    2.93
   2  -8   4  543.43    4.99
   2   8  -4  571.50    5.36
   2   8   4  686.49    5.68
  -2  -8  -6  662.68    6.98
  -2  -8   6  677.22    7.19
  -2  -8   6  654.15    5.97
  -2   8  -6  679.56    6.55
  -2   8  -6  724.78    5.97
   2  -8  -6  642.58    6.21
   2   8  -6  698.38    7.37
  -2   8  -7  809.60    7.50
   2   8  -7  864.23    8.27
   2   8  -7  817.38    7.29
  -2  -8  -8  718.24    7.96
  -2  -8  -8  729.54    6.92
  -2  -8   8  726.23    8.12
  -2  -8   8  689.42    6.85
  -2   8  -8  715.59    7.72
  -2   8  -8  718.61    6.99
  -2   8   8  712.53    7.33
  -2   8   8  666.21    6.35
   2  -8  -8  687.30    7.40
   2  -8   8  666.34    7.42
   2   8  -8  777.11    8.48
   2   8  -8  688.14    7.26
  -2  -8  -9  312.17    6.70
  -2  -8  -9  303.10    5.58
  -2  -8   9  289.62    6.43
  -2  -8   9  292.18    5.60
  -2   8  -9  312.99    6.37
  -2   8  -9  299.78    5.63
  -2   8   9  300.94    5.98
  -2   8   9  273.27    5.06
   2  -8  -9  281.94    6.12
   2  -8  -9  281.63    4.96
   2  -8   9  294.40    6.18
   2  -8   9  336.56    5.73
   2   8  -9  335.01    6.89
   2   8  -9  288.49    5.88
   2   8   9  315.17    6.46
   2   8   9  330.58    5.84
  -2  -8 -10   11.63    3.18
  -2  -8 -10   11.75    2.62
  -2  -8  10   12.37    3.07
  -2  -8  10    8.09    2.43
  -2   8 -10   11.53    3.09
  -2   8 -10   12.14    2.59
  -2   8  10   18.61    2.99
  -2   8  10   11.69    2.41
   2  -8 -10   14.63    2.95
   2  -8 -10   15.82    2.48
   2  -8  10   12.52    3.03
   2  -8  10    8.50    2.52
   2   8 -10   16.91    3.28
   2   8 -10   12.68    2.78
   2   8  10   14.54    3.19
   2   8  10   14.61    2.75
  -2  -8 -11    2.21    3.29
  -2  -8 -11    3.39    2.58
  -2  -8  11    1.76    2.96
  -2  -8  11    5.16    2.62
  -2   8 -11   -1.23    3.06
  -2   8 -11   -2.73    2.60
  -2   8  11    3.57    2.96
  -2   8  11    0.89    2.40
   2  -8 -11    2.90    3.09
   2  -8 -11    2.59    2.48
   2  -8  11    0.62    2.99
   2  -8  11   -0.15    2.68
   2   8 -11    7.53    3.45
   2   8 -11    3.52    2.81
   2   8  11    6.40    3.19
   2   8  11    5.68    2.70
  -2  -8 -12    2.20    3.52
  -2  -8 -12   -1.51    2.68
  -2  -8  12    2.11    3.18
  -2  -8  12    3.46    2.59
  -2   8 -12   -4.66    3.36
  -2   8 -12   -5.91    2.89
  -2   8  12    0.15    3.16
  -2   8  12   -1.49    2.51
   2  -8 -12   -3.11    3.20
   2  -8 -12   -2.79    2.58
   2  -8  12   -1.10    3.22
   2  -8  12   -4.82    2.77
   2   8 -12    5.60    3.50
   2   8 -12    1.21    2.86
   2   8  12    1.43    3.30
   2   8  12    3.29    2.83
  -2  -8 -13   -2.75    3.60
  -2  -8 -13   -4.22    2.80
  -2  -8  13    0.51    3.35
  -2  -8  13    1.27    2.78
  -2   8 -13   -1.10    3.58
  -2   8 -13   -7.31    2.95
  -2   8  13   -3.01    3.18
   2  -8 -13   -2.45    3.37
   2  -8 -13    2.02    2.79
   2  -8  13   -7.50    3.55
   2  -8  13   -5.83    2.96
   2   8 -13    0.90    3.68
   2   8 -13    0.11    3.12
   2   8  13   -1.24    3.54
   2   8  13   -1.55    3.07
  -2  -8 -14    4.65    3.91
  -2  -8 -14    4.52    3.12
  -2  -8  14    7.07    3.82
  -2  -8  14   10.55    3.29
  -2   8 -14    2.78    3.96
  -2   8 -14   -1.37    3.20
  -2   8  14    6.21    6.12
   2  -8 -14    4.68    3.67
   2  -8 -14    6.90    3.12
   2  -8  14    3.57    3.92
   2  -8  14    2.73    3.44
   2   8 -14   11.29    4.10
   2   8 -14    8.01    3.45
   2   8  14   12.04    4.13
   2   8  14    5.55    3.38
  -2  -8 -15   92.46    7.70
  -2  -8 -15   75.64    6.08
  -2  -8  15   72.28    6.91
  -2  -8  15   74.32    6.26
  -2   8 -15   91.39    7.52
  -2   8 -15   76.99    6.43
   2  -8 -15   81.16    7.22
   2  -8 -15   87.22    6.18
   2  -8  15   80.02    7.52
   2  -8  15   80.40    6.38
   2   8 -15   81.35    7.94
   2   8 -15   72.46    6.80
   2   8  15   91.34    7.41
  -2  -8 -16   43.99    5.23
  -2  -8 -16   32.89    3.92
  -2  -8  16   33.63    4.77
  -2  -8  16   31.83    4.24
  -2   8 -16   45.89    5.35
  -2   8 -16   35.25    4.29
   2  -8 -16   42.75    4.98
   2  -8 -16   39.53    4.10
   2  -8  16   42.35    5.27
   2  -8  16   52.50    6.56
   2   8 -16   34.04    5.39
   2   8 -16   34.79    4.34
  -2  -8 -17  187.76    8.96
  -2  -8 -17  183.39    7.45
  -2  -8  17  146.76    8.50
  -2  -8  17  162.50    7.75
  -2   8 -17  190.47    9.10
  -2   8 -17  175.64    7.85
   2  -8 -17  178.13    8.53
   2  -8 -17  180.03    7.34
   2  -8  17  195.77    9.00
   2  -8  17  185.88    7.95
   2   8 -17  181.28    9.97
   2   8 -17  141.33    8.12
  -2  -8 -18  109.10    8.69
  -2  -8 -18   94.75    7.09
  -2  -8  18   94.78    8.38
  -2  -8  18   95.93    7.39
  -2   8 -18  113.33    8.84
  -2   8 -18  103.84    7.61
   2  -8 -18  119.57    8.42
   2  -8 -18  102.33    7.21
   2   8 -18  109.17    9.76
   2   8 -18   96.40    8.03
  -2  -8 -19   34.67    5.41
  -2  -8 -19   35.24    4.29
  -2   8 -19   61.79    7.43
   2  -8 -19   45.25    5.45
   2  -8 -19   44.39    4.71
   2   8 -19   51.24    6.23
   2   8 -19   41.20    5.04
  -2 -10  -1   25.41    2.80
  -2 -10  -1   27.54    1.83
  -2 -10   1   32.36    2.91
  -2 -10   1   24.09    2.60
   2  10  -1   -0.25    0.48
   2  10  -1   27.08    3.11
   2  10   1    2.13    0.96
   2  10   1   26.74    3.10
  -2 -10  -2  123.90    3.92
  -2 -10  -2  113.90    3.19
  -2 -10  -2  104.06    3.17
  -2 -10   2  143.77    3.42
  -2 -10   2   99.07    2.94
  -2  10  -2  116.25    2.83
  -2  10   2  130.23    2.73
   2 -10  -2  103.55    2.59
   2 -10   2   99.74    2.68
   2  10  -2    0.89    0.52
   2  10  -2  107.98    3.38
   2  10   2  116.38    3.53
  -2 -10  -3   78.45    3.79
  -2 -10  -3   80.89    3.12
  -2 -10  -3   73.11    3.22
  -2 -10   3   70.32    3.90
  -2 -10   3   86.23    3.30
  -2 -10   3   63.22    3.01
  -2  10  -3   70.13    3.02
  -2  10   3   78.81    2.97
   2 -10  -3   68.20    2.78
   2 -10   3   58.36    2.88
   2  10  -3   66.03    3.34
   2  10   3   85.06    3.86
   2  10   3   56.30    2.61
  -2 -10  -4   93.57    4.03
  -2 -10  -4   85.62    3.28
  -2 -10   4   87.67    4.10
  -2 -10   4   73.65    3.13
  -2  10  -4   88.48    3.42
  -2  10  -4   94.11    2.75
  -2  10   4   83.00    2.26
   2 -10  -4   83.88    3.20
   2 -10   4   78.41    3.29
   2  10  -4   77.17    3.47
   2  10   4  109.81    4.06
   2  10   4  104.45    3.68
  -2 -10  -5  169.30    4.67
  -2 -10  -5  160.25    3.72
  -2 -10   5  154.03    4.62
  -2 -10   5  143.55    3.67
  -2  10  -5  156.05    4.15
  -2  10  -5  173.74    3.53
  -2  10   5  160.80    3.87
  -2  10   5  159.42    3.06
   2 -10  -5  150.31    3.83
   2 -10   5  144.28    3.85
   2 -10   5  199.35    2.94
   2  10  -5  165.94    4.82
   2  10  -5  136.71    3.92
   2  10   5  171.83    4.71
   2  10   5  173.46    4.06
  -2 -10  -6  600.93    6.83
  -2 -10  -6  578.60    5.66
  -2 -10   6  575.32    6.92
  -2 -10   6  528.27    5.55
  -2  10  -6  580.71    6.29
  -2  10  -6  637.05    5.62
  -2  10   6  574.93    4.96
   2 -10  -6  529.29    5.77
   2 -10   6  531.69    5.97
   2  10  -6  647.53    7.36
   2  10  -6  555.92    6.09
   2  10   6  641.61    6.96
   2  10   6  653.16    6.40
  -2 -10  -7  704.73    7.70
  -2 -10  -7  678.88    6.35
  -2 -10   7  682.12    7.71
  -2 -10   7  625.15    6.30
  -2  10  -7  700.62    7.33
  -2  10  -7  714.74    6.43
   2 -10  -7  637.64    6.83
   2 -10  -7  700.22    5.34
   2 -10   7  630.39    6.86
   2  10  -7  757.74    8.18
   2  10  -7  673.44    7.01
   2  10   7  745.92    7.88
  -2 -10  -8  250.64    6.01
  -2 -10  -8  230.86    4.90
  -2 -10   8  249.66    6.08
  -2 -10   8  230.46    5.02
  -2  10  -8  255.56    5.86
  -2  10  -8  243.44    5.00
  -2  10   8  226.60    5.31
  -2  10   8  230.14    4.46
   2 -10  -8  219.30    5.38
   2 -10  -8  247.41    4.37
   2 -10   8  230.26    5.41
   2 -10   8  280.73    4.92
   2  10  -8  270.10    6.24
   2  10  -8  217.18    5.35
   2  10   8  285.21    6.24
   2  10   8  262.48    5.23
  -2 -10  -9   -2.16    2.66
  -2 -10  -9   -1.67    2.17
  -2 -10   9   -5.32    2.77
  -2 -10   9   -1.04    2.13
  -2  10  -9   -0.95    2.69
  -2  10  -9   -0.03    2.33
  -2  10   9    1.84    2.53
  -2  10   9   -0.26    2.01
   2 -10  -9   -0.95    2.50
   2 -10  -9   -0.43    2.07
   2 -10   9    2.28    2.63
   2 -10   9    0.26    2.22
   2  10  -9   -1.20    2.92
   2  10  -9    2.58    2.46
   2  10   9    1.83    2.76
   2  10   9   -1.38    2.35
  -2 -10 -10   28.08    3.70
  -2 -10 -10   25.96    2.88
  -2 -10  10   25.98    3.39
  -2 -10  10   21.64    2.78
  -2  10 -10   18.43    3.41
  -2  10 -10   23.05    2.92
  -2  10  10   27.02    3.26
  -2  10  10   22.58    2.59
   2 -10 -10   26.72    3.34
   2 -10 -10   21.35    2.52
   2 -10  10   21.64    3.30
   2 -10  10   25.36    2.94
   2  10 -10   29.23    3.57
   2  10 -10   25.47    3.11
   2  10  10   26.24    3.47
   2  10  10   30.05    3.09
  -2 -10 -11   54.54    6.05
  -2 -10 -11   51.30    4.85
  -2 -10  11   49.47    5.65
  -2 -10  11   51.50    4.82
  -2  10 -11   47.18    4.15
  -2  10 -11   39.15    3.51
  -2  10  11   43.20    5.38
  -2  10  11   40.68    3.15
   2 -10 -11   50.78    4.11
   2 -10 -11   40.18    4.35
   2 -10  11   46.86    4.18
   2 -10  11   41.86    4.97
   2  10 -11   57.25    6.13
   2  10 -11   53.40    5.33
   2  10  11   57.56    5.61
   2  10  11   55.10    4.97
  -2 -10 -12   77.36    6.44
  -2 -10 -12   67.86    5.20
  -2 -10  12   71.90    6.19
  -2 -10  12   64.41    5.24
  -2  10 -12   52.52    4.57
  -2  10 -12   46.90    3.89
  -2  10  12   52.01    5.81
   2 -10 -12   61.49    6.13
   2 -10 -12   52.83    5.04
   2 -10  12   63.60    4.80
   2 -10  12   49.02    5.31
   2  10 -12   72.69    6.66
   2  10 -12   64.16    5.85
   2  10  12   80.74    6.29
   2  10  12   75.98    5.56
  -2 -10 -13   20.89    4.12
  -2 -10 -13   18.62    3.14
  -2 -10  13   17.25    4.08
  -2 -10  13   16.24    3.19
  -2  10 -13   11.22    4.01
  -2  10 -13    7.99    3.41
   2 -10 -13    9.74    3.84
   2 -10 -13   10.82    3.11
   2 -10  13   14.54    3.96
   2 -10  13    7.10    3.34
   2  10 -13   20.98    4.14
   2  10 -13   18.78    3.48
   2  10  13   25.14    4.09
  -2 -10 -14    2.38    4.06
  -2 -10 -14   -1.12    2.99
  -2 -10  14    5.74    3.79
  -2 -10  14    1.15    3.10
  -2  10 -14   -1.92    3.88
  -2  10 -14   -4.82    3.13
   2 -10 -14    1.85    3.67
   2 -10 -14   -0.59    2.97
   2 -10  14   -3.86    3.79
   2 -10  14   -1.46    3.32
   2  10 -14    3.82    4.02
   2  10 -14    2.34    3.44
   2  10  14    4.67    4.00
  -2 -10 -15   -0.21    3.95
  -2 -10 -15    0.60    3.15
  -2 -10  15    0.48    3.84
  -2 -10  15   -3.19    3.31
  -2  10 -15   -0.99    4.29
  -2  10 -15   -1.50    3.47
   2 -10 -15   -3.17    3.75
   2 -10 -15   -0.01    3.21
   2 -10  15   -3.81    3.94
   2 -10  15   -1.81    3.57
   2  10 -15   -3.96    4.32
   2  10 -15    1.46    3.64
  -2 -10 -16   50.10    5.36
  -2 -10 -16   40.62    4.17
  -2 -10  16   47.43    5.19
  -2 -10  16   37.36    4.32
  -2  10 -16   68.15    8.18
  -2  10 -16   42.47    4.37
   2 -10 -16   50.15    5.08
   2 -10 -16   53.19    6.35
   2 -10  16   52.10    5.45
   2 -10  16   57.46    6.69
   2  10 -16   37.63    5.42
   2  10 -16   35.89    4.55
  -2 -10 -17    9.27    4.55
  -2 -10 -17   10.33    3.69
  -2 -10  17    2.12    4.57
  -2 -10  17   -0.89    3.84
  -2  10 -17   10.12    4.86
  -2  10 -17    5.72    3.81
   2 -10 -17   12.62    4.49
   2 -10 -17   12.98    3.67
   2 -10  17   10.51    4.76
   2  10 -17    4.11    5.22
   2  10 -17   -1.17    4.02
  -2 -10 -18   18.03    5.01
  -2 -10 -18   10.62    3.76
  -2  10 -18   14.14    6.78
  -2  10 -18    8.50    4.01
   2 -10 -18   17.30    4.70
   2 -10 -18   16.85    3.73
   2  10 -18    4.90    5.20
   2  10 -18    2.88    4.38
  -2 -10 -19    0.29    4.89
  -2 -10 -19    0.28    3.64
  -2  10 -19    9.37    4.08
   2 -10 -19    5.26    4.47
   2 -10 -19    6.50    3.75
   2  10 -19    4.00    4.38
  -2 -12   1  547.63    4.09
  -2 -12  -2   15.37    2.24
  -2 -12  -2   12.13    1.66
  -2 -12  -2    8.98    1.64
  -2 -12   2   17.70    1.88
  -2 -12   2   11.09    1.56
  -2  12   2   17.04    1.60
   2 -12  -2   11.56    1.63
   2 -12   2   12.30    1.66
   2  12  -2    1.60    1.08
   2  12  -2   10.46    1.85
   2  12   2   15.43    1.87
   2  12   2   12.62    2.02
  -2 -12  -3   23.35    2.47
  -2 -12  -3   17.13    1.69
  -2 -12  -3   17.64    1.90
  -2 -12   3   24.71    1.99
  -2 -12   3   12.51    1.63
  -2  12  -3   16.88    1.88
  -2  12   3   19.48    1.84
   2 -12  -3   15.51    1.81
   2 -12   3   15.48    1.80
   2  12  -3   12.90    1.94
  -2 -12  -4   24.30    2.55
  -2 -12  -4   21.12    1.93
  -2 -12  -4   20.91    2.04
  -2 -12   4   20.90    2.61
  -2 -12   4   25.59    2.12
  -2 -12   4   12.59    1.75
  -2  12  -4   19.00    2.06
  -2  12  -4   19.58    2.32
  -2  12   4   20.85    2.08
   2 -12  -4   16.77    1.92
   2 -12   4   17.50    2.03
   2  12  -4   15.47    2.06
   2  12   4   22.29    2.36
   2  12   4   14.33    1.53
  -2 -12  -5   13.58    2.48
  -2 -12  -5    7.70    1.76
  -2 -12   5    9.88    2.48
  -2 -12   5    6.47    1.76
  -2  12  -5   10.02    2.10
  -2  12  -5   10.70    1.74
  -2  12   5    9.79    1.46
   2 -12  -5   10.48    2.11
   2 -12   5    9.09    2.01
   2  12  -5    8.64    2.65
   2  12  -5    3.10    1.98
   2  12   5   19.16    2.61
   2  12   5   12.53    2.08
  -2 -12  -6    2.19    2.45
  -2 -12  -6    0.77    1.84
  -2 -12   6   -2.51    2.46
  -2 -12   6   -3.46    1.77
  -2  12  -6    0.89    2.32
  -2  12  -6    1.37    1.80
  -2  12   6   -0.76    2.03
  -2  12   6   -0.54    1.55
   2 -12  -6   -3.23    1.97
   2 -12   6    2.23    2.12
   2 -12   6    1.64    1.57
   2  12  -6   -1.99    2.66
   2  12  -6   -2.29    2.04
   2  12   6   -2.79    2.45
   2  12   6    1.11    2.12
  -2 -12  -7    7.79    2.82
  -2 -12  -7    4.74    2.03
  -2 -12   7   11.21    2.87
  -2 -12   7   11.27    2.20
  -2  12  -7    9.64    2.67
  -2  12  -7    9.37    2.17
  -2  12   7   14.28    2.58
  -2  12   7   13.48    1.93
   2 -12  -7   11.95    2.52
   2 -12  -7   11.97    1.75
   2 -12   7   11.25    2.46
   2 -12   7   13.04    2.02
   2  12  -7   11.21    3.01
   2  12  -7    7.51    2.38
   2  12   7   14.87    2.95
   2  12   7   12.49    2.40
  -2 -12  -8   16.67    2.98
  -2 -12  -8   10.36    2.24
  -2 -12   8   13.19    2.93
  -2 -12   8   11.46    2.24
  -2  12  -8   11.80    2.83
  -2  12  -8   11.61    2.28
  -2  12   8   11.32    2.56
   2 -12  -8   12.68    2.68
   2 -12  -8   13.36    2.00
   2 -12   8   12.64    2.81
   2 -12   8   15.02    2.30
   2  12  -8   13.56    3.05
   2  12  -8   12.91    2.55
   2  12   8   16.85    3.13
   2  12   8   12.77    2.49
  -2 -12  -9   64.41    5.31
  -2 -12  -9   56.12    4.22
  -2 -12   9   60.95    5.16
  -2 -12   9   58.92    4.28
  -2  12  -9   70.66    5.25
  -2  12  -9   62.81    4.40
  -2  12   9   71.71    4.78
  -2  12   9   62.31    3.94
   2 -12  -9   63.66    4.86
   2 -12  -9   67.10    3.72
   2 -12   9   55.99    4.77
   2 -12   9   76.52    4.36
   2  12  -9   70.08    5.60
   2  12  -9   58.27    4.72
   2  12   9   64.46    5.41
   2  12   9   59.30    4.54
  -2 -12 -10  260.66    6.89
  -2 -12 -10  238.44    5.61
  -2 -12  10  256.75    7.00
  -2 -12  10  230.45    5.75
  -2  12 -10  278.00    7.03
  -2  12 -10  239.48    5.78
  -2  12  10  263.37    6.39
  -2  12  10  236.80    5.25
   2 -12 -10  239.09    6.30
   2 -12 -10  248.68    5.07
   2 -12  10  250.77    6.53
   2 -12  10  277.77    5.76
   2  12 -10  275.72    7.39
   2  12 -10  240.20    6.40
   2  12  10  276.11    7.08
   2  12  10  271.02    6.13
  -2 -12 -11  219.92    7.17
  -2 -12 -11  200.74    5.73
  -2 -12  11  202.06    7.06
  -2 -12  11  190.71    5.91
  -2  12 -11  201.17    7.04
  -2  12 -11  184.98    6.13
  -2  12  11  218.10    7.44
   2 -12 -11  207.98    6.67
   2 -12 -11  197.78    5.36
   2 -12  11  199.41    6.70
   2 -12  11  215.92    6.14
   2  12 -11  225.15    7.51
   2  12 -11  188.63    6.47
   2  12  11  243.63    7.16
   2  12  11  229.31    6.29
  -2 -12 -12  206.97    7.61
  -2 -12 -12  190.33    5.96
  -2 -12  12  187.26    7.38
  -2 -12  12  187.96    6.22
  -2  12 -12  169.01    7.38
  -2  12 -12  168.81    6.41
   2 -12 -12  171.16    6.84
   2 -12 -12  188.10    5.66
   2 -12  12  187.27    7.13
   2 -12  12  201.05    6.48
   2  12 -12  189.58    7.65
   2  12 -12  185.02    6.86
   2  12  12  229.81    7.49
  -2 -12 -13  187.74    7.73
  -2 -12 -13  160.92    6.05
  -2 -12  13  184.62    7.62
  -2 -12  13  160.96    6.24
  -2  12 -13  161.16    7.77
  -2  12 -13  142.50    6.55
   2 -12 -13  155.79    7.27
   2 -12 -13  153.67    5.90
   2 -12  13  151.94    7.32
   2 -12  13  182.36    6.64
   2  12 -13  176.64    7.96
   2  12 -13  162.46    6.89
  -2 -12 -14   16.21    4.36
  -2 -12 -14   10.35    3.24
  -2 -12  14   13.53    4.12
  -2 -12  14    9.99    3.48
  -2  12 -14   12.70    4.27
  -2  12 -14    7.99    3.44
   2 -12 -14   12.03    4.01
   2 -12 -14   10.67    3.22
   2 -12  14   16.68    4.55
   2 -12  14   12.01    3.54
   2  12 -14   18.39    4.58
   2  12 -14   14.30    3.88
  -2 -12 -15    0.18    4.35
  -2 -12 -15   -1.00    3.17
  -2 -12  15   -2.56    4.06
  -2 -12  15    2.87    3.30
  -2  12 -15   -1.80    4.40
  -2  12 -15    1.12    3.38
   2 -12 -15   -0.40    3.88
   2 -12 -15    0.63    3.14
   2 -12  15   -3.46    4.11
   2 -12  15    4.20    3.61
   2  12 -15   -1.15    4.63
   2  12 -15    0.02    3.54
  -2 -12 -16   14.09    4.48
  -2 -12 -16   18.31    3.73
  -2 -12  16   13.66    4.52
  -2 -12  16    9.24    3.64
  -2  12 -16   25.98    5.21
  -2  12 -16   14.83    3.96
   2 -12 -16   21.78    4.48
   2 -12 -16   16.39    3.50
   2 -12  16   14.14    4.78
   2 -12  16   13.67    4.05
   2  12 -16   16.14    5.10
   2  12 -16   19.24    4.43
  -2 -12 -17    3.44    4.48
  -2 -12 -17    1.92    3.38
  -2  12 -17    6.32    5.09
  -2  12 -17   -0.62    3.73
   2 -12 -17    7.67    4.37
   2 -12 -17    4.68    3.37
   2  12 -17   -6.27    4.78
   2  12 -17    0.18    4.03
  -2 -12 -18    8.82    4.75
  -2 -12 -18    4.10    3.56
  -2  12 -18    9.31    4.12
   2 -12 -18   12.86    4.52
   2 -12 -18    7.31    3.53
   2  12 -18    5.40    4.27
  -2 -14   0  324.16    3.41
  -2 -14   0  247.04    3.01
   2  14   0  388.69    4.56
   2  14   0  274.73    4.18
  -2 -14  -1  214.23    3.13
  -2 -14  -1  183.73    2.91
  -2 -14   1  253.06    3.35
  -2 -14   1  178.89    2.86
   2 -14  -1  236.20    3.17
   2  14  -1  289.27    4.26
   2  14  -1  196.52    3.85
   2  14   1  267.19    4.12
   2  14   1  204.34    3.94
  -2 -14  -2  252.21    3.30
  -2 -14  -2  221.43    3.22
  -2 -14   2  335.68    3.87
  -2 -14   2  219.55    3.18
   2 -14  -2  268.97    3.56
   2 -14   2  251.72    3.57
   2  14  -2  329.50    4.45
   2  14  -2  236.37    4.01
   2  14   2  320.36    4.46
   2  14   2  258.51    4.34
  -2 -14  -3   18.07    2.53
  -2 -14  -3   12.47    1.64
  -2 -14  -3   14.18    1.76
  -2 -14   3   19.16    1.95
  -2 -14   3   10.04    1.52
  -2  14   3   16.91    1.87
   2 -14  -3    9.51    1.79
   2 -14   3   12.32    1.91
   2  14  -3   10.84    2.06
   2  14   3   15.05    2.05
  -2 -14  -4    8.00    2.51
  -2 -14  -4    4.98    1.66
  -2 -14  -4    8.76    1.89
  -2 -14   4    5.85    2.45
  -2 -14   4    8.38    1.93
  -2 -14   4    4.42    1.63
  -2  14  -4    6.82    2.07
  -2  14   4    8.13    2.06
   2 -14  -4    6.84    2.01
   2 -14   4    2.64    1.90
   2  14  -4    1.54    1.98
   2  14   4    7.70    2.40
  -2 -14  -5  285.11    5.68
  -2 -14  -5  267.25    4.13
  -2 -14  -5  287.17    4.45
  -2 -14   5  278.47    5.64
  -2 -14   5  350.33    4.91
  -2 -14   5  240.55    4.12
  -2  14  -5  273.67    4.98
  -2  14  -5  256.06    3.93
  -2  14   5   55.69    2.51
  -2  14   5  265.27    3.38
   2 -14  -5  268.86    4.60
   2 -14   5  237.26    4.73
   2  14  -5  252.04    4.83
   2  14   5  306.81    5.62
   2  14   5  223.45    4.03
  -2 -14  -6  253.45    5.85
  -2 -14  -6  216.49    4.20
  -2 -14   6  218.66    5.67
  -2 -14   6  207.00    4.30
  -2  14  -6  234.63    5.21
  -2  14  -6  219.48    4.26
  -2  14   6  247.93    4.53
  -2  14   6  218.46    3.70
   2 -14  -6  209.22    4.73
   2 -14   6  200.71    4.92
   2  14  -6  266.60    6.18
   2  14  -6  216.45    4.90
   2  14   6  265.53    5.77
   2  14   6  247.46    5.04
  -2 -14  -7   27.52    3.22
  -2 -14  -7   19.73    2.20
  -2 -14   7   25.70    3.15
  -2 -14   7   21.87    2.36
  -2  14  -7   29.05    3.05
  -2  14  -7   19.44    2.33
  -2  14   7   26.61    2.74
  -2  14   7   20.63    2.08
   2 -14  -7   21.34    2.63
   2 -14   7   21.88    2.80
   2 -14   7   25.41    3.07
   2  14  -7   31.13    3.49
   2  14  -7   25.03    2.65
   2  14   7   36.85    3.35
   2  14   7   25.17    2.73
  -2 -14  -8   38.79    3.75
  -2 -14  -8   24.46    2.55
  -2 -14   8   26.38    3.42
  -2 -14   8   22.76    2.50
  -2  14  -8   26.77    3.20
  -2  14  -8   21.37    2.48
  -2  14   8   24.88    2.96
  -2  14   8   27.30    2.42
   2 -14  -8   28.30    2.96
   2 -14  -8   27.96    2.07
   2 -14   8   27.08    3.00
   2 -14   8   34.43    3.59
   2  14  -8   27.72    3.41
   2  14  -8   18.03    2.82
   2  14   8   36.90    3.63
   2  14   8   31.30    2.95
  -2 -14  -9  209.33    6.37
  -2 -14  -9  200.06    5.09
  -2 -14   9  198.10    6.41
  -2 -14   9  189.56    5.19
  -2  14  -9  217.80    6.29
  -2  14  -9  199.86    5.23
  -2  14   9  228.13    5.85
  -2  14   9   56.35    2.75
   2 -14  -9  196.02    5.70
   2 -14  -9  204.94    4.25
   2 -14   9  199.63    5.85
   2 -14   9  245.11    5.09
   2  14  -9  215.47    6.70
   2  14  -9  187.99    5.77
   2  14   9  234.18    6.59
   2  14   9  238.12    5.71
  -2 -14 -10  467.57    8.11
  -2 -14 -10  417.85    6.38
  -2 -14  10  427.21    8.07
  -2 -14  10  415.09    6.81
  -2  14 -10  458.48    8.16
  -2  14 -10  432.84    6.91
   2 -14 -10  435.62    7.49
   2 -14 -10  443.63    5.75
   2 -14  10  415.28    7.54
   2 -14  10  502.37    6.64
   2  14 -10  469.83    8.76
   2  14 -10  384.10    7.18
   2  14  10  525.68    8.58
  -2 -14 -11  496.10    8.82
  -2 -14 -11  488.92    7.18
  -2 -14  11  485.36    9.02
  -2 -14  11  435.84    7.24
  -2  14 -11  513.57    9.01
  -2  14 -11  447.30    7.54
   2 -14 -11  456.76    8.01
   2 -14 -11  475.47    6.40
   2 -14  11  460.87    8.28
   2 -14  11  535.31    7.29
   2  14 -11  503.08    9.35
   2  14 -11  445.85    8.04
  -2 -14 -12  164.06    7.41
  -2 -14 -12  136.72    5.67
  -2 -14  12  137.79    7.13
  -2 -14  12  144.87    6.01
  -2  14 -12  158.60    7.35
  -2  14 -12  134.11    6.04
   2 -14 -12  142.94    6.75
   2 -14 -12  137.57    5.29
   2 -14  12  153.58    6.96
   2 -14  12  163.52    6.19
   2  14 -12  155.54    7.50
   2  14 -12  140.82    6.76
  -2 -14 -13   19.50    4.27
  -2 -14 -13   17.08    3.18
  -2 -14  13   19.14    4.13
  -2 -14  13   16.12    3.33
  -2  14 -13   19.69    4.38
  -2  14 -13   20.34    3.51
   2 -14 -13   15.24    3.99
   2 -14 -13   16.74    3.00
   2 -14  13   14.79    3.97
   2 -14  13   21.61    3.65
   2  14 -13   22.88    4.41
   2  14 -13   14.50    3.60
  -2 -14 -14   60.74    7.36
  -2 -14 -14   61.53    5.67
  -2 -14  14   56.85    5.12
  -2 -14  14   59.50    5.94
  -2  14 -14   57.55    5.38
  -2  14 -14   63.48    6.52
   2 -14 -14   59.27    6.87
   2 -14 -14   66.17    5.61
   2 -14  14   67.95    7.30
   2 -14  14   66.57    6.45
   2  14 -14   68.41    7.99
   2  14 -14   57.99    6.67
  -2 -14 -15   90.71    8.06
  -2 -14 -15   82.51    6.06
  -2 -14  15   87.59    7.74
  -2 -14  15   78.52    6.27
  -2  14 -15   92.49    8.20
  -2  14 -15   78.96    7.00
   2 -14 -15   81.41    7.50
   2 -14 -15   80.69    5.95
   2 -14  15   86.48    7.78
   2 -14  15  100.65    7.23
   2  14 -15  104.43    8.54
   2  14 -15   85.47    7.30
  -2 -14 -16    2.47    4.47
  -2 -14 -16   -0.78    3.26
  -2  14 -16    3.90    4.68
  -2  14 -16    3.66    3.86
   2 -14 -16    5.32    4.13
   2 -14 -16    3.61    3.20
   2  14 -16    9.27    4.87
   2  14 -16   -0.13    3.95
  -2 -14 -17    6.44    4.65
  -2 -14 -17    2.42    3.30
  -2  14 -17   -1.07    3.97
   2 -14 -17    6.11    4.19
   2 -14 -17    3.97    3.35
   2  14 -17   12.41    4.34
  -2 -14 -18   -3.31    4.70
  -2 -14 -18    2.21    3.40
   2 -14 -18   -2.50    4.33
   2 -14 -18    0.54    3.46
   2  14 -18    7.38    4.25
   2  16   0  196.91    4.16
   2  16   0  145.64    3.95
   2 -16  -1  294.67    3.75
   2  16  -1  340.74    4.66
   2  16  -1  230.38    4.37
   2  16   1  325.23    4.65
   2  16   1  241.60    4.42
  -2 -16   2   10.16    1.73
   2 -16  -2    7.11    1.87
   2 -16   2    6.78    1.86
   2  16  -2   12.27    2.15
   2  16  -2    7.23    2.05
   2  16   2   13.93    2.17
   2  16   2    5.88    2.19
  -2 -16  -3   69.03    4.32
  -2 -16  -3   59.14    2.68
  -2 -16  -3   57.51    2.82
  -2 -16   3   79.17    3.38
  -2 -16   3   51.97    2.65
   2 -16  -3   64.29    3.38
   2 -16   3   56.98    3.38
   2  16  -3   77.93    3.96
   2  16  -3   56.92    3.71
   2  16   3   76.21    3.80
   2  16   3   64.04    3.80
  -2 -16  -4   12.64    2.69
  -2 -16  -4   10.77    1.65
  -2 -16  -4   16.03    1.92
  -2 -16   4   18.45    2.79
  -2 -16   4   19.79    2.16
  -2 -16   4    9.28    1.71
  -2  16  -4   17.00    2.41
  -2  16   4   20.00    2.28
   2 -16  -4   13.24    2.15
   2 -16   4   14.03    2.27
   2  16  -4   12.23    2.28
   2  16   4   16.85    2.35
  -2 -16  -5  178.97    5.40
  -2 -16  -5  148.32    3.53
  -2 -16  -5  153.54    3.87
  -2 -16   5  163.98    5.28
  -2 -16   5  209.06    4.34
  -2 -16   5  139.16    3.65
  -2  16  -5  161.40    4.74
  -2  16  -5  146.20    3.44
  -2  16   5  174.78    4.53
  -2  16   5  144.16    2.97
   2 -16  -5  142.71    4.27
   2 -16   5  133.56    4.25
   2  16  -5  153.39    4.59
   2  16   5  184.96    5.42
  -2 -16  -6  111.31    5.18
  -2 -16  -6  100.33    3.67
  -2 -16  -6  104.77    4.04
  -2 -16   6  114.19    5.24
  -2 -16   6  138.07    4.38
  -2 -16   6   96.36    3.71
  -2  16  -6  102.46    4.59
  -2  16  -6   96.98    3.63
  -2  16   6   91.81    3.28
   2 -16  -6   92.82    4.45
   2 -16   6   81.97    4.39
   2  16  -6  105.16    4.53
   2  16   6  137.59    5.21
   2  16   6  110.37    4.11
  -2 -16  -7   -3.83    2.70
  -2 -16  -7   -0.98    1.99
  -2 -16   7    2.49    2.85
  -2 -16   7    0.17    2.03
  -2  16  -7    0.19    2.59
  -2  16  -7    0.61    2.07
   2 -16  -7   -7.42    2.48
   2 -16   7   -0.89    2.43
   2  16  -7   -1.17    3.06
   2  16  -7   -0.40    2.33
   2  16   7   -0.97    2.80
   2  16   7    2.05    2.43
  -2 -16  -8   22.61    3.42
  -2 -16  -8   13.55    2.30
  -2 -16   8   16.34    3.42
  -2 -16   8   11.08    2.29
  -2  16  -8   16.44    3.17
  -2  16  -8   11.90    2.47
   2 -16  -8    5.92    2.90
   2 -16   8   15.57    3.04
   2 -16   8   17.01    2.12
   2  16  -8   19.10    3.59
   2  16  -8   14.47    2.91
   2  16   8   22.30    3.44
  -2 -16  -9   32.72    3.71
  -2 -16  -9   32.14    2.85
  -2 -16   9   22.94    3.64
  -2 -16   9   20.53    2.82
  -2  16  -9   31.52    3.66
  -2  16  -9   21.86    2.86
   2 -16  -9   22.05    3.31
   2 -16  -9   25.44    2.21
   2 -16   9   26.61    3.41
   2 -16   9   33.18    2.76
   2  16  -9   32.47    4.11
   2  16  -9   22.02    3.19
  -2 -16 -10   59.41    6.00
  -2 -16 -10   54.58    4.70
  -2 -16  10   54.50    4.49
  -2 -16  10   40.47    4.69
  -2  16 -10   53.99    6.10
  -2  16 -10   51.34    5.09
   2 -16 -10   50.77    5.57
   2 -16 -10   55.93    4.00
   2 -16  10   55.97    5.58
   2 -16  10   60.09    4.67
   2  16 -10   56.54    4.65
   2  16 -10   45.91    3.93
  -2 -16 -11   70.56    6.45
  -2 -16 -11   58.92    4.82
  -2 -16  11   59.92    6.56
  -2 -16  11   44.79    5.03
  -2  16 -11   70.81    6.45
  -2  16 -11   62.59    5.35
   2 -16 -11   54.82    5.88
   2 -16 -11   63.95    4.40
   2 -16  11   63.82    6.05
   2 -16  11   69.53    5.15
   2  16 -11   53.82    4.81
   2  16 -11   51.16    5.85
  -2 -16 -12  141.38    7.47
  -2 -16 -12  124.81    5.46
  -2 -16  12  125.35    7.45
  -2 -16  12  127.66    6.00
  -2  16 -12  154.05    7.48
  -2  16 -12  128.65    6.21
   2 -16 -12  147.65    6.77
   2 -16 -12  136.57    5.21
   2 -16  12  139.04    6.94
   2 -16  12  160.33    6.10
   2  16 -12  144.05    7.83
   2  16 -12  117.74    6.52
  -2 -16 -13  137.48    7.77
  -2 -16 -13  122.64    5.81
  -2 -16  13  147.74    7.93
  -2 -16  13  130.41    6.29
  -2  16 -13  157.47    8.03
  -2  16 -13  138.96    6.77
   2 -16 -13  134.23    7.08
   2 -16 -13  149.04    5.63
   2 -16  13  145.42    7.32
   2 -16  13  169.13    6.62
   2  16 -13  156.73    8.21
   2  16 -13  133.76    7.15
  -2 -16 -14   -8.64    4.12
  -2 -16 -14   -3.49    3.03
  -2 -16  14   -0.93    4.26
  -2 -16  14   -4.52    3.18
  -2  16 -14    1.79    4.32
  -2  16 -14    1.51    3.40
   2 -16 -14   -1.39    3.88
   2 -16 -14    0.36    2.89
   2 -16  14    5.25    4.15
   2 -16  14    1.32    3.50
   2  16 -14    3.52    4.60
   2  16 -14    1.14    3.67
  -2 -16 -15   12.29    4.62
  -2 -16 -15   15.80    3.38
  -2  16 -15   15.31    4.97
  -2  16 -15   13.35    4.15
   2 -16 -15   20.02    4.33
   2 -16 -15   20.43    3.37
   2  16 -15   17.71    4.98
   2  16 -15   23.40    4.28
  -2 -16 -16    3.09    4.42
  -2 -16 -16    2.36    3.15
  -2  16 -16   -3.23    4.19
   2 -16 -16    3.42    4.08
   2 -16 -16    1.10    3.09
   2  16 -16    4.42    3.95
  -2 -16 -17   -3.25    4.63
  -2 -16 -17   -4.55    3.13
   2 -16 -17    1.69    4.28
   2 -16 -17    1.57    3.28
   2  16 -17   -3.04    4.09
   2  18   0  427.90    5.25
   2  18   0  296.69    4.90
   2 -18  -1   64.26    3.29
   2  18  -1   72.81    3.85
   2  18  -1   55.99    3.83
   2  18   1   70.74    3.91
   2  18   1   52.29    3.86
   2 -18  -2    5.09    1.99
   2 -18   2    2.24    1.95
   2  18  -2    5.32    2.29
   2  18  -2    0.36    2.11
   2  18   2    2.42    2.16
   2  18   2    2.45    2.24
  -2 -18  -3  345.42    5.94
   2 -18  -3  332.35    4.66
   2 -18   3  312.42    4.81
   2  18  -3  427.70    5.71
   2  18  -3  288.45    5.15
   2  18   3  400.41    5.39
   2  18   3  320.20    5.10
  -2 -18  -4  522.74    6.96
  -2 -18   4  459.49    6.88
  -2 -18   4  602.30    5.24
  -2 -18   4  389.42    4.23
  -2  18   4  574.45    5.81
   2 -18  -4  453.08    5.42
   2 -18   4  427.43    5.53
   2  18  -4  416.36    5.84
   2  18   4  526.33    6.05
  -2 -18  -5  231.51    5.89
  -2 -18  -5  191.35    3.56
  -2 -18  -5  204.97    3.92
  -2 -18   5  203.28    5.82
  -2 -18   5  276.41    4.61
  -2 -18   5  187.12    3.82
  -2  18  -5  224.98    5.23
  -2  18  -5  191.04    3.70
  -2  18   5  243.63    5.08
   2 -18  -5  196.86    4.81
   2 -18   5  181.98    4.89
   2  18  -5  191.34    5.03
   2  18   5  231.37    4.98
  -2 -18  -6  385.22    6.94
  -2 -18  -6  347.59    4.53
  -2 -18  -6  369.91    5.00
  -2 -18   6  355.48    6.98
  -2 -18   6  481.89    5.73
  -2 -18   6  331.63    4.82
  -2  18  -6  394.80    6.38
  -2  18  -6  339.27    4.81
  -2  18   6  337.04    4.40
   2 -18  -6  341.42    5.82
   2 -18   6  335.79    5.95
   2  18  -6  334.72    5.97
   2  18   6  451.25    7.25
  -2 -18  -7  574.69    8.12
  -2 -18  -7  507.48    5.52
  -2 -18  -7  547.43    5.98
  -2 -18   7  536.24    8.18
  -2 -18   7  703.51    6.86
  -2 -18   7  468.65    5.70
  -2  18  -7  559.85    7.41
  -2  18  -7  485.27    5.89
   2 -18  -7  494.92    7.03
   2 -18   7  475.81    6.92
   2  18  -7  472.23    6.93
  -2 -18  -8  266.35    6.92
  -2 -18  -8  235.97    4.84
  -2 -18   8  261.63    7.07
  -2 -18   8  233.57    5.13
  -2  18  -8  271.13    6.53
  -2  18  -8  252.14    5.47
   2 -18  -8  222.75    6.18
   2 -18   8  239.70    6.21
   2  18  -8  280.29    7.55
   2  18  -8  229.24    6.03
  -2 -18  -9   29.32    3.79
  -2 -18  -9   23.31    2.66
  -2 -18   9   27.16    3.93
  -2 -18   9   16.71    2.72
  -2  18  -9   28.39    3.72
  -2  18  -9   22.60    3.03
   2 -18  -9   23.43    3.40
   2 -18   9   23.97    3.43
   2  18  -9   31.25    4.22
   2  18  -9   19.33    3.19
  -2 -18 -10   -4.10    3.36
  -2 -18 -10   -0.55    2.41
  -2 -18  10   -3.49    3.42
  -2 -18  10   -1.58    2.65
  -2  18 -10   -2.54    3.36
  -2  18 -10    0.69    2.78
   2 -18 -10   -2.79    3.19
   2 -18  10    0.11    3.24
   2 -18  10    4.19    2.52
   2  18 -10    0.01    3.78
   2  18 -10    0.53    3.11
  -2 -18 -11   14.20    3.85
  -2 -18 -11   10.25    2.71
  -2 -18  11    6.45    3.80
  -2 -18  11    6.39    2.88
  -2  18 -11   12.42    3.95
  -2  18 -11    9.33    3.09
   2 -18 -11   11.20    3.54
   2 -18 -11   11.87    2.45
   2 -18  11    8.37    3.63
   2 -18  11   13.12    3.00
   2  18 -11    6.31    4.20
   2  18 -11    6.31    3.35
  -2 -18 -12    0.36    3.89
  -2 -18 -12   -4.01    2.76
  -2 -18  12    1.39    3.98
  -2 -18  12   -4.58    2.94
  -2  18 -12   -4.47    3.89
  -2  18 -12   -1.73    3.12
   2 -18 -12   -0.93    3.52
   2 -18 -12   -0.03    2.54
   2 -18  12   -2.16    3.68
   2 -18  12    3.37    3.09
   2  18 -12    0.67    4.19
   2  18 -12   -0.80    3.38
  -2 -18 -13   -2.59    4.21
  -2 -18 -13   -3.04    2.92
  -2 -18  13    1.83    4.27
  -2 -18  13    1.00    3.24
  -2  18 -13    2.27    4.21
  -2  18 -13    2.24    3.49
   2 -18 -13    2.48    3.75
   2 -18 -13    0.42    2.66
   2 -18  13   -3.10    3.88
   2 -18  13    4.32    3.21
   2  18 -13   -3.30    4.36
   2  18 -13   -0.33    3.65
  -2 -18 -14   -2.89    4.28
  -2 -18 -14    0.06    3.01
  -2  18 -14    1.17    4.43
  -2  18 -14    5.36    3.69
   2 -18 -14    3.63    3.86
   2 -18 -14    5.62    2.87
   2 -18  14    3.55    3.63
   2  18 -14    4.67    4.70
   2  18 -14    4.68    3.82
  -2 -18 -15   -3.85    4.27
  -2 -18 -15   -6.10    2.93
   2 -18 -15   -2.64    3.91
   2 -18 -15   -0.87    2.90
   2  18 -15   -1.63    4.01
  -2 -18 -16   87.79    8.12
  -2 -18 -16   74.60    5.94
   2 -18 -16   78.79    7.48
   2 -18 -16   83.70    5.87
   2  20   0    2.25    2.34
   2  20   0    1.77    2.33
   2 -20  -1   17.14    2.28
   2  20  -1   14.50    2.49
   2  20  -1    9.96    2.43
   2  20   1   17.49    2.50
   2  20   1   10.16    2.44
   2 -20  -2   58.62    3.71
   2 -20   2   47.71    3.68
   2  20  -2   60.83    4.27
   2  20  -2   39.26    2.84
   2  20   2   63.53    4.19
   2  20   2   48.15    4.22
  -2 -20  -3  197.32    5.62
   2 -20  -3  186.23    4.45
   2 -20   3  174.82    4.50
   2  20  -3  146.43    4.77
   2  20   3  179.86    5.01
  -2 -20  -4  531.31    7.30
  -2 -20   4  451.69    7.23
   2 -20  -4  480.01    5.90
   2 -20   4  456.81    5.98
   2  20  -4  403.46    6.27
  -2 -20  -5  879.92    8.87
  -2 -20   5  813.87    9.03
  -2 -20   5  735.81    5.53
  -2  20  -5  716.69    5.63
   2 -20  -5  810.37    7.35
   2 -20   5  781.64    7.60
   2  20  -5  724.31    7.66
  -2 -20  -6  687.35    8.52
  -2 -20  -6  605.23    5.07
  -2 -20  -6  653.05    5.57
  -2 -20   6  635.32    8.61
  -2 -20   6  898.37    6.76
  -2 -20   6  609.19    5.71
  -2  20  -6  704.45    7.96
  -2  20  -6  618.83    6.02
   2 -20  -6  642.44    7.19
   2 -20   6  600.16    7.26
   2  20  -6  603.09    7.51
  -2 -20  -7  469.52    8.00
  -2 -20  -7  396.75    4.88
  -2 -20  -7  441.45    5.58
  -2 -20   7  422.40    7.96
  -2 -20   7  564.30    6.33
  -2 -20   7  398.61    5.41
  -2  20  -7  464.60    7.37
  -2  20  -7  392.71    5.81
   2 -20  -7  399.47    6.72
   2 -20   7  394.29    6.87
   2  20  -7  397.07    6.81
  -2 -20  -8  300.99    7.43
  -2 -20  -8  278.53    4.84
  -2 -20  -8  301.70    5.41
  -2 -20   8  290.89    7.49
  -2 -20   8  375.52    6.07
  -2 -20   8  261.74    5.24
  -2  20  -8  305.61    7.07
  -2  20  -8  267.86    5.74
   2 -20  -8  261.09    6.55
   2 -20   8  268.21    6.69
   2  20  -8  266.99    6.48
  -2 -20  -9  128.51    6.67
  -2 -20  -9   97.04    4.34
  -2 -20   9  111.13    6.78
  -2 -20   9  102.79    4.82
  -2  20  -9  121.46    6.35
  -2  20  -9  100.65    5.26
   2 -20  -9  102.54    5.99
   2 -20   9   98.26    6.04
   2  20  -9  127.74    7.19
   2  20  -9   96.02    5.70
  -2 -20 -10   -0.13    3.63
  -2 -20 -10    0.12    2.39
  -2 -20  10    1.52    3.79
  -2 -20  10    1.78    2.71
  -2  20 -10    0.16    3.58
  -2  20 -10   -3.92    2.90
   2 -20 -10    2.08    3.28
   2 -20  10   -1.16    3.46
   2 -20  10   -0.63    2.33
   2  20 -10   -2.61    4.02
   2  20 -10   -2.54    3.26
  -2 -20 -11    5.91    3.85
  -2 -20 -11    0.52    2.54
  -2 -20  11    2.17    3.89
  -2 -20  11   -0.48    2.92
  -2  20 -11   -1.67    3.82
  -2  20 -11    1.87    3.28
   2 -20 -11    0.53    3.48
   2 -20  11   -3.52    3.60
   2 -20  11   -0.68    2.75
   2  20 -11    0.92    4.19
   2  20 -11    0.46    3.41
  -2 -20 -12   -1.72    3.92
  -2 -20 -12   -2.62    2.74
  -2 -20  12   -1.98    3.97
  -2 -20  12   -0.23    3.21
  -2  20 -12    1.08    4.10
  -2  20 -12    1.37    3.41
   2 -20 -12   -0.79    3.64
   2 -20 -12   -1.04    2.44
   2 -20  12   -2.02    3.83
   2 -20  12   -1.92    3.07
   2  20 -12    3.56    4.45
   2  20 -12    2.42    3.59
  -2 -20 -13   -0.02    4.16
  -2 -20 -13    2.72    2.90
  -2  20 -13    1.93    4.40
  -2  20 -13    4.03    3.56
   2 -20 -13    4.53    3.85
   2 -20 -13    4.32    2.63
   2 -20  13    7.61    3.26
   2  20 -13    9.83    4.73
   2  20 -13    4.26    3.76
  -2 -20 -14   54.51    5.38
  -2 -20 -14   39.90    3.60
   2 -20 -14   55.26    6.75
   2 -20 -14   59.03    4.93
   2  20 -14   43.77    5.33
  -2 -20 -15   76.41    7.97
  -2 -20 -15   67.78    5.78
   2 -20 -15   89.02    7.23
   2 -20 -15   80.33    5.38
   2  22   0   15.20    2.73
   2 -22  -1   -0.46    2.27
   2  22  -1   -1.87    2.51
   2  22   1   -2.51    2.46
   2 -22  -2   20.78    2.62
   2 -22   2   18.22    2.59
   2  22  -2    9.57    2.77
   2  22   2   15.29    2.71
  -2 -22  -3  226.40    6.15
   2 -22  -3  220.36    4.94
   2 -22   3  196.96    5.00
   2  22  -3  172.73    5.27
   2  22   3  202.77    5.47
  -2 -22  -4  414.10    7.23
  -2 -22   4  353.12    7.13
   2 -22  -4  395.81    5.90
   2 -22   4  364.32    6.02
   2  22  -4  331.76    6.34
   2  22   4  381.52    6.28
  -2 -22  -5  292.08    6.84
  -2 -22   5  260.31    6.92
  -2  22  -5  234.11    4.38
   2 -22  -5  273.19    5.66
   2 -22   5  264.51    5.86
   2  22  -5  228.61    6.02
  -2 -22  -6  261.87    6.91
  -2 -22   6  225.91    6.84
  -2  22  -6  210.46    4.70
   2 -22  -6  218.61    5.70
   2 -22   6  230.02    6.14
   2  22  -6  200.51    5.95
  -2 -22  -7  264.59    7.10
  -2 -22   7  223.92    7.16
  -2 -22   7  317.31    5.30
  -2 -22   7  224.51    4.68
  -2  22  -7  250.08    6.70
  -2  22  -7  213.94    5.16
   2 -22  -7  221.87    6.00
   2 -22   7  218.99    6.27
   2  22  -7  223.91    6.36
  -2 -22  -8  111.12    6.47
  -2 -22  -8  102.97    3.92
  -2 -22  -8  118.24    4.64
  -2 -22   8  111.47    6.78
  -2 -22   8  142.51    4.98
  -2 -22   8   98.51    4.54
  -2  22  -8  117.90    6.41
  -2  22  -8  105.04    5.07
   2 -22  -8  104.18    5.77
   2 -22   8  101.54    5.91
   2  22  -8  102.85    5.76
  -2 -22  -9    7.66    3.65
  -2 -22  -9   11.11    2.33
  -2 -22  -9   11.18    2.91
  -2 -22   9   12.59    4.02
  -2 -22   9   10.08    2.96
  -2 -22   9    8.24    2.67
  -2  22  -9    7.04    3.71
  -2  22  -9    2.98    2.96
   2 -22  -9   11.22    3.46
   2 -22   9    4.73    3.49
   2  22  -9    6.87    3.34
  -2 -22 -10    6.23    3.83
  -2 -22 -10    6.22    2.42
  -2 -22  10    3.05    3.96
  -2 -22  10    0.69    2.72
  -2  22 -10   -0.58    3.81
  -2  22 -10   -2.62    3.04
   2 -22 -10    3.78    3.50
   2 -22  10   -2.62    3.60
   2  22 -10    7.22    4.47
   2  22 -10    1.33    3.45
  -2 -22 -11   33.94    4.45
  -2 -22 -11   24.45    2.92
  -2 -22  11   28.99    4.71
  -2 -22  11   21.43    3.23
  -2  22 -11   26.84    4.61
  -2  22 -11   15.93    3.64
   2 -22 -11   24.73    4.04
   2 -22  11   19.42    4.19
   2  22 -11   33.54    5.06
   2  22 -11   20.25    3.82
  -2 -22 -12    5.17    4.04
  -2 -22 -12    2.30    2.66
  -2  22 -12    5.70    5.01
   2 -22 -12   -2.38    3.68
   2 -22  12    1.02    2.95
   2  22 -12    7.09    3.84
  -2 -22 -13    7.03    4.11
  -2 -22 -13    9.48    2.89
   2 -22 -13    6.04    3.89
   2 -22  13    7.43    3.13
  -2 -22 -14   22.97    4.73
  -2 -22 -14   17.09    3.16
   2 -22 -14   10.83    4.20
   2 -22 -14   13.62    2.79
   2  24   0  139.99    5.25
   2 -24  -1  154.27    4.74
   2  24  -1  122.15    5.23
   2  24   1  124.10    5.22
   2 -24  -2    1.03    2.58
   2 -24   2    7.06    2.64
   2  24  -2    1.82    2.86
   2  24   2    3.25    2.79
  -2 -24  -3    0.94    3.16
   2 -24  -3   -2.90    2.61
   2 -24   3    0.37    2.65
   2  24  -3   -2.18    2.79
   2  24   3   -1.04    2.89
  -2 -24  -4    2.01    3.30
  -2 -24   4    2.95    3.28
   2 -24  -4    1.85    2.83
   2 -24   4    2.28    2.75
   2  24  -4    0.71    2.95
   2  24   4    3.26    2.97
  -2 -24  -5   26.38    3.77
  -2 -24   5   23.06    3.82
  -2  24  -5   15.15    2.26
   2 -24  -5   19.94    3.13
   2 -24   5   20.75    3.24
   2  24  -5   15.09    3.28
  -2 -24  -6   64.10    6.03
  -2 -24   6   57.19    6.02
  -2  24  -6   42.67    4.09
   2 -24  -6   43.53    4.92
   2 -24   6   47.04    5.29
   2  24  -6   42.61    5.28
  -2 -24  -7   46.40    4.25
  -2 -24   7   42.89    4.26
  -2  24  -7   32.76    3.02
   2 -24  -7   37.78    3.53
   2 -24   7   28.53    3.54
   2  24  -7   31.57    3.62
  -2 -24  -8   -2.04    3.57
  -2 -24   8   -0.28    3.78
  -2 -24   8    0.15    2.50
  -2 -24   8    1.77    2.44
  -2  24  -8   -4.28    3.61
  -2  24  -8   -2.43    2.75
   2 -24  -8   -0.23    3.23
   2 -24   8    0.25    3.41
   2  24  -8    3.47    3.28
  -2 -24  -9   20.50    4.06
  -2 -24  -9   17.27    2.26
  -2 -24   9   16.04    4.24
  -2 -24   9   28.62    3.03
  -2 -24   9   16.31    2.84
  -2  24  -9   17.20    4.21
  -2  24  -9   10.49    3.25
   2 -24  -9   19.39    3.64
   2 -24   9   12.96    3.80
   2  24  -9   15.19    3.77
  -2 -24 -10   78.17    7.04
  -2 -24 -10   71.35    4.22
  -2 -24 -10   87.46    5.10
  -2 -24  10  103.93    5.41
  -2 -24  10   76.13    5.25
  -2  24 -10   80.39    7.34
  -2  24 -10   64.57    5.94
   2 -24 -10   84.01    6.29
   2 -24  10   58.29    6.58
   2  24 -10   75.38    6.54
  -2 -24 -11   86.13    7.04
  -2 -24 -11   82.40    4.58
  -2 -24 -11   88.46    5.41
  -2 -24  11   82.65    5.54
   2 -24 -11   75.52    6.46
  -2 -24 -12   60.46    6.98
  -2 -24 -12   53.88    4.69
   2 -24 -12   49.49    4.61
  -2 -24 -13   26.61    4.67
  -2 -24 -13   25.50    3.05
   2 -24 -13   18.31    4.43
   2 -24  13   31.88    3.45
   2  26   0  502.29    7.12
   2 -26  -1  360.73    6.00
   2  26  -1  340.59    6.60
   2  26   1  335.46    6.61
  -2 -26  -2  360.75    7.30
   2 -26  -2  297.08    5.85
   2 -26   2  292.55    5.84
   2  26  -2  265.31    6.45
   2  26   2  270.88    6.44
  -2 -26  -3  157.87    6.37
   2 -26  -3  121.57    5.30
   2 -26   3  148.68    5.38
   2  26  -3  116.31    5.68
   2  26   3  122.10    5.95
  -2 -26  -4   13.16    3.76
  -2 -26   4   17.56    3.80
   2 -26  -4    2.98    3.01
   2 -26   4   16.43    3.22
   2  26  -4   11.53    3.24
   2  26   4   10.87    3.33
  -2 -26  -5   -3.92    3.45
  -2 -26   5    1.66    3.55
  -2  26  -5    1.84    2.25
   2 -26  -5   -6.73    3.00
   2 -26   5    1.51    3.13
   2  26  -5    2.30    3.16
  -2 -26  -6    7.35    3.65
  -2 -26   6    1.57    3.67
  -2  26  -6    5.21    2.50
   2 -26  -6   -0.81    3.20
   2 -26   6    4.77    3.27
   2  26  -6    4.45    3.33
  -2 -26  -7    6.03    3.65
  -2 -26   7    2.27    3.83
  -2  26  -7    2.12    2.67
   2 -26  -7    0.10    3.19
   2 -26   7    0.20    3.30
   2  26  -7   -1.53    3.41
  -2 -26  -8    3.02    3.74
  -2 -26   8   -2.36    3.90
  -2  26  -8   -0.55    2.83
   2 -26  -8   -4.99    3.22
   2 -26   8    0.31    3.42
   2  26  -8   -1.41    3.55
  -2 -26  -9   50.27    4.64
  -2 -26   9   51.85    4.57
  -2 -26   9   36.38    4.35
   2 -26  -9   44.66    4.14
   2 -26   9   41.40    4.33
  -2 -26 -10  144.53    7.42
  -2 -26  10  154.72    5.39
  -2 -26  10  120.64    5.23
   2 -26 -10  138.28    6.79
  -2 -26 -11  198.75    7.93
  -2 -26 -11  174.14    4.77
  -2 -26 -11  200.49    5.45
  -2 -26  11  240.97    6.26
   2 -26 -11  182.70    7.21
   2  28   0  441.80    7.38
   2 -28  -1  605.05    7.21
   2  28  -1  547.47    7.93
   2  28   1  546.05    7.92
  -2 -28  -2  425.37    7.93
   2 -28  -2  314.18    6.31
   2 -28   2  360.84    6.44
   2  28  -2  334.48    6.99
   2  28   2  313.78    7.00
  -2 -28  -3   60.90    6.08
   2 -28  -3   50.83    3.67
   2 -28   3   65.65    5.24
   2  28  -3   51.58    5.90
   2  28   3   50.31    4.10
  -2 -28  -4   -1.33    3.50
  -2 -28   4   -3.41    3.67
  -2  28  -4   -0.39    2.19
   2 -28   4   -2.82    3.05
   2  28  -4   -1.39    3.18
   2  28   4   -6.47    3.27
  -2 -28  -5    6.60    3.61
  -2 -28   5    3.64    3.79
  -2  28  -5    0.75    2.37
  -2  28   5   -1.15    2.53
   2 -28  -5   -1.74    3.17
   2 -28   5    1.48    3.23
   2  28  -5    2.51    3.44
  -2 -28  -6    0.94    3.59
  -2 -28   6    0.93    3.79
  -2  28  -6   -1.47    2.56
   2 -28  -6   -2.13    3.10
   2 -28   6   -0.22    3.28
  -2 -28  -7    2.84    3.64
  -2  28  -7   -0.72    2.76
   2 -28  -7   -7.10    3.11
   2 -28   7    0.29    3.47
  -2 -28  -8    4.22    3.80
   2 -28  -8   -5.87    3.20
   2 -28   8    0.05    4.06
  -2 -28  -9   20.68    4.15
   2 -28  -9   20.20    3.71
   2 -30  -1  127.67    5.42
  -2 -30  -2   10.22    3.65
   2 -30  -2   -8.86    3.00
   2 -30   2    7.07    3.11
  -2 -30  -3   -2.16    3.39
   2 -30   3   -2.30    3.03
  -2 -30  -4    8.45    3.67
  -2  30  -4    3.12    2.40
   2 -30  -4    3.23    3.05
   2 -30   4   -1.80    3.23
  -2 -30  -5   21.78    3.95
  -2  30  -5   12.76    2.78
  -2  30   5   15.58    2.90
   2 -30  -5   14.17    3.36
   2 -30   5   15.28    3.48
  -2 -30  -6   64.59    6.37
   2 -30  -6   46.94    3.94
   2 -30   6   54.43    5.92
  -2 -30  -7   57.57    6.49
   2 -30  -7   49.80    4.00
   2 -32  -1    2.18    2.95
  -2 -32  -2   -1.48    3.63
   2 -32  -2    2.69    3.01
   2 -32   2   -3.26    3.13
  -3  -1   1  258.57    2.50
  -3   1  -1  300.48    2.55
   3   1  -1  266.60    2.47
  -3  -1  -5    9.07    2.49
  -3  -1  -5    9.52    2.24
  -3  -1   5    4.82    2.21
  -3  -1   5    7.40    2.04
  -3   1  -5    6.05    2.34
  -3   1  -5    2.42    2.12
  -3   1   5    6.46    2.24
  -3   1   5    4.63    1.89
   3  -1  -5    8.20    2.22
   3  -1  -5    7.49    1.90
   3  -1   5    3.13    2.16
   3  -1   5    2.40    2.08
   3   1  -5    4.71    2.32
   3   1  -5    3.40    1.99
   3   1   5    5.10    2.23
   3   1   5    7.14    2.15
  -3  -1  -6   10.27    2.49
  -3  -1  -6    7.71    2.29
  -3  -1   6    6.64    2.29
  -3  -1   6    9.69    2.11
  -3   1  -6    8.65    2.50
  -3   1  -6    4.26    2.29
  -3   1   6    6.45    2.30
  -3   1   6    9.34    2.11
   3  -1  -6    9.22    2.42
   3  -1  -6    6.33    2.05
   3  -1   6    7.43    2.44
   3  -1   6    7.98    2.20
   3   1  -6    7.75    2.49
   3   1  -6   11.92    2.11
   3   1   6    8.69    2.37
   3   1   6   10.76    2.25
  -3  -1  -7    8.82    2.58
  -3  -1  -7    9.58    2.33
  -3  -1   7   11.42    2.38
  -3  -1   7    4.69    1.98
  -3   1  -7    8.73    2.56
  -3   1  -7    8.48    2.29
  -3   1   7   12.43    2.47
  -3   1   7    8.36    2.08
   3  -1  -7    7.44    2.34
   3  -1  -7    8.80    2.03
   3  -1   7    7.19    2.50
   3  -1   7    9.21    2.30
   3   1  -7    7.73    2.43
   3   1  -7    6.90    2.11
   3   1   7    9.90    2.52
   3   1   7    9.64    2.24
  -3  -1  -8   19.27    2.85
  -3  -1  -8   22.37    2.58
  -3  -1   8   20.32    2.63
  -3  -1   8   18.86    2.34
  -3   1  -8   20.09    2.80
  -3   1  -8   25.16    2.58
  -3   1   8   20.11    2.69
  -3   1   8   17.53    2.20
   3  -1  -8   20.62    2.74
   3  -1  -8   18.67    2.33
   3  -1   8   23.71    2.82
   3  -1   8   22.88    2.51
   3   1  -8   22.64    2.87
   3   1  -8   20.08    2.34
   3   1   8   22.79    2.79
   3   1   8   23.03    2.53
  -3  -1  -9   27.94    3.16
  -3  -1  -9   32.47    2.87
  -3  -1   9   25.67    2.99
  -3  -1   9   22.64    2.46
  -3   1  -9   25.40    3.02
  -3   1  -9   30.77    2.90
  -3   1   9   23.23    2.84
  -3   1   9   20.91    2.39
   3  -1  -9   29.78    3.16
   3  -1  -9   26.14    2.60
   3  -1   9   33.18    3.30
   3  -1   9   33.53    2.82
   3   1  -9   29.97    3.24
   3   1  -9   22.15    2.63
   3   1   9   30.55    3.15
   3   1   9   30.31    2.80
  -3  -1 -10   96.56    5.79
  -3  -1 -10   99.27    5.14
  -3  -1  10   85.26    5.15
  -3  -1  10   78.27    4.46
  -3   1 -10  102.60    5.79
  -3   1 -10   98.51    5.11
  -3   1  10   79.41    5.07
  -3   1  10   84.04    4.37
   3  -1 -10   89.14    5.52
   3  -1 -10   84.62    4.58
   3  -1  10  100.55    5.51
   3  -1  10  112.84    5.07
   3   1 -10   91.29    5.59
   3   1 -10   74.66    4.53
   3   1  10  102.20    5.51
   3   1  10  117.76    5.22
  -3  -1 -11  331.59    7.43
  -3  -1 -11  349.86    7.02
  -3  -1  11  307.74    7.03
  -3  -1  11  281.48    6.04
  -3   1 -11  330.48    7.51
  -3   1 -11  332.70    6.76
  -3   1  11  318.78    6.92
  -3   1  11  292.57    6.02
   3  -1 -11  319.34    7.37
   3  -1 -11  305.39    6.19
   3  -1  11  351.30    7.32
   3  -1  11  374.84    6.99
   3   1 -11  316.84    7.50
   3   1 -11  301.40    6.38
   3   1  11  338.17    7.30
   3   1  11  361.46    6.90
  -3  -1 -12  362.10    8.25
  -3  -1 -12  361.25    7.24
  -3  -1  12  335.12    7.50
  -3  -1  12  308.42    6.45
  -3   1 -12  375.44    8.14
  -3   1 -12  373.51    7.26
  -3   1  12  348.17    7.57
  -3   1  12  326.64    6.50
   3  -1 -12  352.23    7.95
   3  -1 -12  326.99    6.70
   3  -1  12  386.13    8.01
   3  -1  12  413.18    7.46
   3   1 -12  352.01    8.09
   3   1 -12  347.46    6.97
   3   1  12  343.21    7.73
   3   1  12  400.98    7.39
  -3  -1 -13  176.59    7.48
  -3  -1 -13  170.20    6.44
  -3  -1  13  176.65    6.81
  -3  -1  13  161.72    5.97
  -3   1 -13  180.18    7.45
  -3   1 -13  171.48    6.61
  -3   1  13  162.86    6.66
  -3   1  13  163.65    5.94
   3  -1 -13  186.22    7.33
   3  -1 -13  168.36    6.16
   3  -1  13  195.10    7.19
   3  -1  13  193.66    6.56
   3   1 -13  175.31    7.49
   3   1 -13  180.91    6.50
   3   1  13  188.32    7.12
   3   1  13  189.37    6.41
  -3  -1 -14   73.39    6.99
  -3  -1 -14   59.54    6.11
  -3  -1  14   66.29    6.40
  -3  -1  14   62.89    5.74
  -3   1 -14   77.36    7.01
  -3   1 -14   60.02    6.03
  -3   1  14   71.56    6.46
  -3   1  14   69.54    5.58
   3  -1 -14   69.13    6.88
   3  -1 -14   67.58    5.93
   3  -1  14   72.31    6.79
   3  -1  14   69.68    5.84
   3   1 -14   67.25    7.16
   3   1 -14   63.82    6.11
   3   1  14   60.52    6.72
   3   1  14   66.92    5.93
  -3  -1 -15   30.45    4.92
  -3  -1 -15   23.28    3.78
  -3  -1  15   20.29    3.97
  -3  -1  15   20.87    3.60
  -3   1 -15   25.51    4.41
  -3   1 -15   22.21    3.68
  -3   1  15   30.12    4.45
  -3   1  15   25.39    3.70
   3  -1 -15   25.92    4.54
   3  -1 -15   23.12    3.75
   3  -1  15   27.40    4.51
   3  -1  15   33.02    4.06
   3   1 -15   25.95    4.65
   3   1 -15   25.41    3.83
   3   1  15   26.18    4.49
   3   1  15   21.29    3.76
  -3  -1 -16   22.45    4.61
  -3  -1 -16   21.09    3.83
  -3  -1  16   27.84    4.47
  -3  -1  16   21.13    3.78
  -3   1 -16   26.09    4.88
  -3   1 -16   14.52    3.81
  -3   1  16   13.82    4.30
  -3   1  16   16.87    3.82
   3  -1 -16   20.79    4.47
   3  -1 -16   15.33    3.76
   3  -1  16   21.45    4.62
   3  -1  16   22.64    3.94
   3   1 -16   23.98    4.67
   3   1 -16   20.14    3.90
   3   1  16   19.26    4.50
   3   1  16   23.89    3.97
  -3  -1 -17   24.25    5.07
  -3  -1 -17   17.07    3.97
  -3  -1  17   25.02    4.94
  -3  -1  17   17.53    3.78
  -3   1 -17   15.07    4.78
  -3   1 -17   19.78    4.20
  -3   1  17   21.44    4.78
  -3   1  17    8.53    4.40
   3  -1 -17   13.20    4.77
   3  -1 -17   18.77    4.09
   3  -1  17   19.38    4.91
   3  -1  17   19.77    4.18
   3   1 -17   24.03    5.01
   3   1 -17   24.60    4.14
   3   1  17   20.99    4.95
   3   1  17   22.83    4.20
  -3  -1 -18    4.75    4.90
  -3  -1 -18    6.25    3.79
  -3  -1  18   19.66    4.73
  -3  -1  18   10.63    3.79
  -3   1 -18    1.99    4.74
  -3   1 -18    5.95    3.93
  -3   1  18    5.25    6.36
   3  -1 -18    3.03    4.80
   3  -1 -18    3.59    3.93
   3  -1  18   14.06    4.98
   3  -1  18   10.04    4.40
   3   1 -18   17.00    5.06
   3   1 -18   11.00    3.84
   3   1  18   15.59    5.05
   3   1  18   13.82    4.22
  -3  -1 -19   10.39    4.97
  -3  -1 -19    5.28    3.83
  -3  -1  19    9.84    4.63
  -3   1 -19   -0.12    5.05
  -3   1 -19    3.59    4.05
   3  -1 -19    4.93    4.87
   3  -1 -19    2.53    3.86
   3  -1  19   14.37    5.31
   3  -1  19    0.98    4.17
   3   1 -19   10.55    5.09
   3   1 -19    6.41    3.92
   3   1  19    6.41    4.96
   3   1  19    8.37    4.43
  -3   3  -1  352.72    2.50
   3  -3   1  342.49    2.46
   3   3  -1  346.86    3.27
  -3  -3  -2  106.04    2.86
  -3  -3  -2  125.29    2.81
  -3  -3   2   94.47    2.58
  -3   3  -2   94.33    2.21
  -3   3  -2  132.34    1.95
  -3   3   2   11.94    1.12
  -3   3   2  108.58    1.70
   3  -3  -2   97.03    2.13
   3  -3   2   94.84    2.22
   3  -3   2  114.15    1.66
   3   3  -2   99.42    2.66
   3   3   2  108.45    2.81
   3   3   2  127.09    2.74
  -3  -3  -4  160.97    4.36
  -3  -3  -4  174.40    4.28
  -3  -3   4  150.37    4.25
  -3  -3   4  130.56    3.85
  -3   3  -4  146.87    3.97
  -3   3  -4  192.07    3.74
  -3   3   4  129.81    3.55
  -3   3   4  146.39    3.28
   3  -3  -4  141.96    3.84
   3  -3  -4  147.09    3.25
   3  -3   4  138.74    3.78
   3  -3   4  196.93    3.52
   3   3  -4  168.60    4.44
   3   3  -4  148.90    3.92
   3   3   4  161.36    4.35
   3   3   4  190.32    4.25
  -3  -3  -5  237.32    5.03
  -3  -3  -5  252.88    4.78
  -3  -3   5  238.00    4.93
  -3  -3   5  208.42    4.30
  -3   3  -5  224.86    4.69
  -3   3  -5  274.97    4.55
  -3   3   5  220.08    4.34
  -3   3   5  228.03    3.96
   3  -3  -5  222.55    4.45
   3  -3  -5  224.09    3.95
   3  -3   5  221.70    4.42
   3  -3   5  269.57    4.28
   3   3  -5  252.13    5.06
   3   3  -5  225.76    4.56
   3   3   5  241.05    4.96
   3   3   5  266.02    4.71
  -3  -3  -6   42.37    4.21
  -3  -3  -6   42.28    3.96
  -3  -3   6   37.37    4.04
  -3  -3   6   32.40    3.59
  -3   3  -6   30.10    2.67
  -3   3  -6   33.00    2.58
  -3   3   6   34.75    3.61
  -3   3   6   28.24    3.26
   3  -3  -6   37.06    2.78
   3  -3  -6   27.38    2.16
   3  -3   6   29.90    2.71
   3  -3   6   30.47    3.58
   3   3  -6   33.62    4.14
   3   3  -6   35.02    3.69
   3   3   6   33.69    4.06
   3   3   6   39.56    3.87
  -3  -3  -7    4.15    2.44
  -3  -3  -7    4.42    2.23
  -3  -3   7    2.61    2.24
  -3  -3   7    2.86    1.98
  -3   3  -7    0.24    2.42
  -3   3  -7    2.22    2.17
  -3   3   7    0.09    2.14
  -3   3   7    4.73    1.98
   3  -3  -7    0.09    2.21
   3  -3  -7   -0.72    1.83
   3  -3   7    0.56    2.32
   3  -3   7    3.16    2.14
   3   3  -7    6.85    2.65
   3   3  -7    3.58    2.14
   3   3   7    5.80    2.56
   3   3   7    4.00    2.12
  -3  -3  -8   39.68    4.45
  -3  -3  -8   46.36    4.05
  -3  -3   8   38.77    4.20
  -3  -3   8   34.03    3.61
  -3   3  -8   38.42    4.41
  -3   3  -8   43.09    4.14
  -3   3   8   33.10    3.98
  -3   3   8   40.38    3.49
   3  -3  -8   36.47    4.18
   3  -3  -8   35.72    3.57
   3  -3   8   36.28    4.25
   3  -3   8   46.89    3.97
   3   3  -8   45.81    4.54
   3   3  -8   41.20    3.81
   3   3   8   45.14    4.28
   3   3   8   49.25    4.06
  -3  -3  -9  247.64    6.17
  -3  -3  -9  261.14    5.59
  -3  -3   9  232.06    5.91
  -3  -3   9  218.62    5.09
  -3   3  -9  238.26    6.04
  -3   3  -9  258.35    5.76
  -3   3   9  213.19    5.41
  -3   3   9  226.34    4.91
   3  -3  -9  250.46    5.85
   3  -3  -9  229.26    4.96
   3  -3   9  256.76    5.90
   3  -3   9  291.00    5.61
   3   3  -9  244.12    6.22
   3   3  -9  217.85    5.28
   3   3   9  244.34    6.07
   3   3   9  277.96    5.69
  -3  -3 -10   74.73    5.42
  -3  -3 -10   83.03    5.00
  -3  -3  10   63.84    5.21
  -3  -3  10   62.38    4.35
  -3   3 -10   75.24    5.50
  -3   3 -10   74.76    5.10
  -3   3  10   73.85    4.93
  -3   3  10   71.72    4.24
   3  -3 -10   71.11    5.17
   3  -3 -10   64.21    4.23
   3  -3  10   73.77    5.15
   3  -3  10   84.48    4.92
   3   3 -10   58.39    5.63
   3   3 -10   57.04    4.65
   3   3  10   84.04    5.26
   3   3  10   86.97    5.10
  -3  -3 -11    4.04    3.35
  -3  -3 -11    2.39    2.69
  -3  -3  11   -0.28    2.86
  -3  -3  11    0.05    2.44
  -3   3 -11    2.30    3.20
  -3   3 -11    4.08    2.71
  -3   3  11    2.42    2.89
  -3   3  11    3.09    2.38
   3  -3 -11    4.61    3.10
   3  -3 -11    0.00    2.41
   3  -3  11    4.74    3.02
   3  -3  11    1.73    2.71
   3   3 -11    4.19    3.35
   3   3 -11    0.16    2.71
   3   3  11    2.08    3.09
   3   3  11    1.92    2.73
  -3  -3 -12   -6.86    3.49
  -3  -3  12   -6.20    3.05
  -3  -3  12   -6.08    2.50
  -3   3 -12    0.04    3.24
  -3   3 -12   -1.75    2.73
  -3   3  12   -1.40    2.97
  -3   3  12   -0.31    2.37
   3  -3 -12   -1.65    3.02
   3  -3 -12    0.01    2.53
   3  -3  12   -0.55    3.08
   3  -3  12    0.64    3.01
   3   3 -12   -7.83    3.28
   3   3 -12   -6.63    2.83
   3   3  12   -7.60    3.27
   3   3  12   -6.79    2.81
  -3  -3 -13   14.98    4.24
  -3  -3 -13   12.30    3.42
  -3  -3  13   20.36    3.74
  -3  -3  13   14.02    3.14
  -3   3 -13   24.62    3.97
  -3   3 -13   22.08    3.38
  -3   3  13   19.82    3.69
  -3   3  13   20.87    3.10
   3  -3 -13   21.34    3.76
   3  -3 -13   25.10    3.22
   3  -3  13   22.77    3.85
   3  -3  13   27.47    3.61
   3   3 -13   16.95    3.95
   3   3 -13   18.71    3.29
   3   3  13   19.58    4.22
   3   3  13   12.12    3.40
  -3  -3 -14    9.97    4.31
  -3  -3 -14    9.58    3.42
  -3  -3  14   16.14    3.90
  -3  -3  14   10.86    3.17
  -3   3 -14   18.28    4.23
  -3   3 -14   11.25    3.35
  -3   3  14   18.36    3.90
  -3   3  14   10.40    3.12
   3  -3 -14   18.31    3.90
   3  -3 -14    9.44    3.25
   3  -3  14   11.16    3.82
   3  -3  14   19.95    3.56
   3   3 -14   12.96    4.20
   3   3 -14   15.31    3.61
   3   3  14    8.38    4.17
   3   3  14    7.87    3.50
  -3  -3 -15   -7.82    3.86
  -3  -3 -15   -5.93    3.37
  -3  -3  15    1.21    3.81
  -3  -3  15   -0.14    3.19
  -3   3 -15    3.80    3.97
  -3   3 -15    1.74    3.26
  -3   3  15   -4.34    3.59
  -3   3  15   -1.00    3.12
   3  -3 -15   -1.26    4.02
   3  -3 -15   -0.60    3.22
   3  -3  15    3.12    3.87
   3  -3  15   -1.06    3.30
   3   3 -15    0.77    3.99
   3   3 -15   -0.76    3.32
   3   3  15    0.87    4.05
   3   3  15   -3.66    3.46
  -3  -3 -16   -6.33    4.23
  -3  -3 -16    0.88    3.55
  -3  -3  16    2.34    3.94
  -3  -3  16   -4.05    3.26
  -3   3 -16   -2.84    4.22
  -3   3 -16    0.67    3.55
  -3   3  16   -5.69    3.94
   3  -3 -16   -6.32    4.04
   3  -3 -16   -2.13    3.52
   3  -3  16   -4.33    4.10
   3  -3  16    0.90    3.62
   3   3 -16   -0.35    4.23
   3   3 -16    0.76    3.45
   3   3  16    1.00    4.30
   3   3  16    2.17    3.70
  -3  -3 -17    2.51    4.45
  -3  -3 -17    2.27    3.67
  -3  -3  17   -1.40    4.02
  -3  -3  17    2.92    3.56
  -3   3 -17   -0.39    4.39
  -3   3 -17    0.48    3.74
   3  -3 -17   -9.99    4.40
   3  -3 -17   -4.78    3.71
   3  -3  17    4.45    4.50
   3  -3  17   -1.05    3.81
   3   3 -17   -0.66    4.36
   3   3 -17    4.46    3.64
   3   3  17    3.03    4.51
   3   3  17    4.25    3.92
  -3  -3 -18   11.45    4.70
  -3  -3 -18   -0.91    3.71
  -3  -3  18    5.23    4.33
  -3  -3  18    4.15    3.60
  -3   3 -18   -0.08    4.87
  -3   3 -18   -2.76    3.80
   3  -3 -18   -4.11    4.52
   3  -3 -18   -5.88    3.77
   3  -3  18   -2.21    4.65
   3  -3  18   -7.02    3.93
   3   3 -18    8.75    4.82
   3   3 -18    2.01    3.73
   3   3  18   -1.16    4.59
   3   3  18    0.66    3.89
  -3  -3 -19   -2.07    4.67
  -3  -3 -19   -3.21    3.60
  -3  -3  19    1.71    4.45
  -3  -3  19   -3.46    3.62
  -3   3 -19   -4.33    4.82
  -3   3 -19   -6.57    3.84
   3  -3 -19   -9.77    4.55
   3  -3  19   -6.82    4.87
   3  -3  19  -11.03    4.25
   3   3 -19   -0.15    4.81
   3   3 -19   -0.64    3.67
   3   3  19    3.98    4.92
   3   3  19   -2.98    3.95
  -3  -5   0  237.76    3.33
  -3  -5   0  178.95    3.16
   3   5   0  228.84    3.27
   3   5   0  196.56    3.28
  -3  -5  -1   87.59    2.97
  -3  -5   1   78.77    2.73
  -3  -5   1   67.37    2.71
  -3   5  -1   61.42    1.66
   3  -5   1   65.21    1.66
   3   5  -1   68.50    2.87
   3   5   1   77.35    2.80
  -3  -5  -2   17.15    1.96
  -3  -5  -2   20.28    1.88
  -3  -5   2   13.91    1.80
  -3   5  -2   11.03    1.36
  -3   5   2   10.87    1.31
   3  -5  -2   12.98    1.29
   3  -5   2    9.62    1.28
   3   5  -2   13.52    1.87
   3   5   2   18.15    1.91
  -3  -5  -3   85.60    3.94
  -3  -5  -3   99.38    3.74
  -3  -5   3   84.97    3.77
  -3  -5   3   73.68    3.44
  -3   5  -3   77.22    3.08
  -3   5  -3  104.71    2.66
  -3   5   3    0.64    0.35
  -3   5   3   80.90    2.27
   3  -5  -3   71.74    2.83
   3  -5   3   70.49    2.88
   3   5  -3   72.16    3.66
   3   5   3   81.91    3.81
   3   5   3   99.12    3.55
  -3  -5  -4  253.62    4.93
  -3  -5  -4  264.54    4.66
  -3  -5   4  241.59    4.78
  -3  -5   4  217.68    4.35
  -3   5  -4  217.79    4.10
  -3   5  -4  292.87    3.80
  -3   5   4  198.40    3.76
  -3   5   4  226.34    3.40
   3  -5  -4  204.66    3.81
   3  -5  -4  234.88    3.10
   3  -5   4  209.18    3.98
   3  -5   4  307.42    3.64
   3   5  -4  268.85    5.10
   3   5  -4  235.98    4.44
   3   5   4  273.60    4.94
   3   5   4  291.75    4.72
  -3  -5  -5   21.76    2.63
  -3  -5  -5   20.88    2.30
  -3  -5   5   23.18    2.70
  -3  -5   5   18.43    2.22
  -3   5  -5   20.40    2.43
  -3   5  -5   25.45    2.16
  -3   5   5   19.99    2.24
  -3   5   5    2.29    0.90
   3  -5  -5   19.55    2.14
   3  -5  -5   22.60    1.95
   3  -5   5   18.12    2.14
   3  -5   5   27.54    3.18
   3   5  -5   22.42    2.70
   3   5  -5   18.59    2.32
   3   5   5   27.22    2.72
   3   5   5   27.74    2.39
  -3  -5  -6   99.03    4.63
  -3  -5  -6  108.57    4.26
  -3  -5   6   96.82    4.51
  -3  -5   6   88.75    3.88
  -3   5  -6   91.67    4.26
  -3   5  -6  105.56    3.97
  -3   5   6   76.13    3.83
  -3   5   6   76.82    3.47
   3  -5  -6   86.79    3.96
   3  -5  -6   88.64    3.39
   3  -5   6   90.57    3.90
   3  -5   6  115.21    3.78
   3   5  -6   99.73    4.54
   3   5  -6   90.44    3.98
   3   5   6  107.08    4.64
   3   5   6  107.04    4.34
  -3  -5  -7   87.51    4.59
  -3  -5  -7   91.65    4.21
  -3  -5   7   83.08    4.45
  -3  -5   7   81.60    3.90
  -3   5  -7   82.15    4.40
  -3   5  -7   91.86    4.03
  -3   5   7   63.12    4.00
  -3   5   7   65.57    3.55
   3  -5  -7   66.45    4.02
   3  -5  -7   68.64    3.47
   3  -5   7   80.45    4.07
   3  -5   7  100.13    3.99
   3   5  -7   94.88    4.76
   3   5  -7   86.76    4.08
   3   5   7   92.50    4.58
   3   5   7   95.97    4.23
  -3  -5  -8   36.61    3.21
  -3  -5  -8   34.47    4.15
  -3  -5   8   29.79    2.92
  -3  -5   8   32.96    3.55
  -3   5  -8   33.29    3.05
  -3   5  -8   35.18    4.05
  -3   5   8   28.82    2.82
  -3   5   8   29.50    2.51
   3  -5  -8   28.31    2.75
   3  -5  -8   27.55    2.34
   3  -5   8   31.17    2.84
   3  -5   8   39.17    3.95
   3   5  -8   37.50    4.47
   3   5  -8   34.41    3.78
   3   5   8   34.72    2.98
   3   5   8   40.20    4.03
  -3  -5  -9   18.72    3.04
  -3  -5  -9   17.24    2.61
  -3  -5   9   19.90    3.15
  -3  -5   9   16.59    2.50
  -3   5  -9   18.74    3.13
  -3   5  -9   20.71    2.73
  -3   5   9   23.33    3.00
  -3   5   9   18.14    2.33
   3  -5  -9   14.68    2.76
   3  -5  -9   16.07    2.42
   3  -5   9   21.22    2.93
   3  -5   9   24.96    2.73
   3   5  -9   27.22    3.26
   3   5  -9   17.86    2.60
   3   5   9   22.53    3.02
   3   5   9   23.95    2.77
  -3  -5 -10    3.89    3.16
  -3  -5 -10    4.96    2.53
  -3  -5  10    0.01    2.95
  -3  -5  10   -2.33    2.33
  -3   5 -10    1.26    3.00
  -3   5 -10   -1.79    2.51
  -3   5  10    0.58    2.56
  -3   5  10    1.60    2.09
   3  -5 -10    4.60    2.81
   3  -5 -10    2.66    2.28
   3  -5  10    3.49    2.83
   3  -5  10    4.13    2.56
   3   5 -10   -2.06    3.16
   3   5 -10   -3.38    2.48
   3   5  10    2.27    2.85
   3   5  10    4.22    2.72
  -3  -5 -11    7.56    3.37
  -3  -5 -11    5.38    2.77
  -3  -5  11    0.59    3.11
  -3  -5  11    2.74    2.60
  -3   5 -11    1.74    3.20
  -3   5 -11    4.08    2.80
  -3   5  11    2.72    2.90
  -3   5  11    6.42    2.39
   3  -5 -11    5.74    3.13
   3  -5 -11    6.89    2.52
   3  -5  11    7.51    3.05
   3  -5  11    7.65    2.96
   3   5 -11    1.68    3.20
   3   5 -11    2.62    2.82
   3   5  11    9.72    3.34
   3   5  11    6.78    2.80
  -3  -5 -12   20.81    3.92
  -3  -5 -12   23.19    3.33
  -3  -5  12   21.41    3.58
  -3  -5  12   17.82    2.95
  -3   5 -12   16.54    3.61
  -3   5 -12   23.86    3.25
  -3   5  12   23.43    3.46
  -3   5  12   21.82    2.85
   3  -5 -12   21.33    3.50
   3  -5 -12   24.72    2.99
   3  -5  12   24.79    3.61
   3  -5  12   26.69    3.37
   3   5 -12   21.71    3.86
   3   5 -12   20.48    3.25
   3   5  12   26.01    3.96
   3   5  12   17.90    3.28
  -3  -5 -13  103.35    7.32
  -3  -5 -13   95.32    6.24
  -3  -5  13  111.41    6.28
  -3  -5  13  117.47    5.79
  -3   5 -13  115.87    6.98
  -3   5 -13  105.52    5.97
  -3   5  13  125.01    6.51
  -3   5  13  103.34    5.41
   3  -5 -13  124.02    6.63
   3  -5 -13  107.02    5.42
   3  -5  13  119.15    6.57
   3  -5  13  134.11    6.46
   3   5 -13  127.79    7.37
   3   5 -13  111.51    6.22
   3   5  13  102.99    6.86
   3   5  13  103.55    5.98
  -3  -5 -14   68.61    7.08
  -3  -5 -14   65.35    6.36
  -3  -5  14   93.20    6.67
  -3  -5  14   82.49    5.78
  -3   5 -14   89.70    7.20
  -3   5 -14   87.42    6.21
  -3   5  14   95.45    6.91
  -3   5  14   85.10    5.59
   3  -5 -14   87.88    6.86
   3  -5 -14   80.93    5.69
   3  -5  14   76.42    6.69
   3  -5  14   95.84    6.62
   3   5 -14   87.06    7.44
   3   5 -14   83.49    6.24
   3   5  14   67.39    7.08
   3   5  14   71.41    6.14
  -3  -5 -15   39.10    4.89
  -3  -5 -15   32.30    4.13
  -3  -5  15   37.46    4.63
  -3  -5  15   37.28    3.90
  -3   5 -15   35.23    4.67
  -3   5 -15   33.36    3.97
  -3   5  15   41.74    4.64
   3  -5 -15   45.83    4.80
   3  -5 -15   50.03    5.97
   3  -5  15   40.25    4.73
   3  -5  15   57.37    6.42
   3   5 -15   49.15    5.21
   3   5 -15   36.84    4.00
   3   5  15   38.45    4.74
   3   5  15   40.14    4.34
  -3  -5 -16   37.24    4.92
  -3  -5 -16   32.12    4.01
  -3  -5  16   31.53    4.66
  -3  -5  16   26.77    3.96
  -3   5 -16   32.46    4.74
  -3   5 -16   30.24    4.17
   3  -5 -16   30.16    4.76
   3  -5 -16   23.49    3.75
   3  -5  16   23.19    4.52
   3  -5  16   33.48    4.33
   3   5 -16   39.75    5.26
   3   5 -16   23.46    3.97
   3   5  16   38.53    5.20
   3   5  16   37.50    4.56
  -3  -5 -17   24.06    4.99
  -3  -5 -17   19.35    3.97
  -3  -5  17   15.14    4.46
  -3  -5  17   14.14    3.88
  -3   5 -17   14.39    4.73
  -3   5 -17   19.13    3.98
   3  -5 -17   10.87    4.65
   3  -5 -17   13.53    3.84
   3  -5  17   22.78    4.76
   3  -5  17   22.53    4.38
   3   5 -17   22.80    5.19
   3   5 -17   18.18    4.21
   3   5  17   21.71    4.87
   3   5  17   21.70    4.43
  -3  -5 -18   22.95    4.85
  -3  -5 -18   19.08    3.90
  -3  -5  18   23.80    4.95
  -3  -5  18   21.25    4.13
  -3   5 -18   25.42    5.40
  -3   5 -18   20.14    4.19
   3  -5 -18   12.64    4.97
   3  -5 -18   13.29    4.07
   3  -5  18   23.11    5.01
   3  -5  18   24.58    4.64
   3   5 -18   28.51    5.29
   3   5 -18   25.43    4.38
   3   5  18   35.00    5.41
  -3  -5 -19   32.22    5.46
  -3  -5 -19   19.76    3.99
  -3  -5  19   31.25    5.02
  -3  -5  19   27.73    4.39
  -3   5 -19   24.12    5.34
  -3   5 -19   17.40    4.54
   3  -5 -19   25.41    5.36
   3  -5 -19   21.24    4.31
   3   5 -19   36.40    5.70
   3   5 -19   26.95    4.49
  -3  -7   0  234.90    3.89
  -3  -7   0  185.02    3.72
   3   7   0  243.69    3.95
   3   7   0  202.28    3.91
  -3  -7  -1  418.81    4.62
  -3  -7   1  392.58    4.47
   3   7  -1  415.98    4.71
   3  -7  -2  671.52    3.60
  -3  -7  -3  291.09    4.93
  -3  -7  -3  301.16    4.48
  -3  -7   3  290.45    5.00
  -3  -7   3  231.99    4.18
  -3   7  -3  234.48    3.54
  -3   7   3  240.44    3.30
   3  -7  -3  231.40    3.29
   3  -7   3  224.00    3.39
   3   7  -3  241.48    4.42
   3   7   3  290.92    4.80
   3   7   3  309.80    4.60
  -3  -7  -4  787.96    6.18
  -3   7  -4  669.31    5.40
  -3   7   4   97.52    2.27
   3  -7  -4  653.54    5.04
   3  -7   4  645.73    5.22
   3   7  -4  704.94    6.12
  -3  -7   5  696.12    6.10
  -3   7  -5  697.44    6.13
  -3   7   5  661.11    5.64
   3  -7  -5  652.82    5.62
   3  -7   5  661.16    5.83
   3   7  -5  701.00    6.38
  -3  -7  -6  111.98    4.61
  -3  -7  -6  116.32    4.18
  -3  -7   6  109.37    4.56
  -3  -7   6   98.70    3.91
  -3   7  -6  101.20    4.12
  -3   7  -6  118.38    3.91
  -3   7   6   92.19    3.83
   3  -7  -6   88.55    3.76
   3  -7  -6   93.84    3.24
   3  -7   6   95.92    3.96
   3  -7   6  137.52    3.66
   3   7  -6  115.41    4.70
   3   7  -6   99.16    4.13
   3   7   6  112.53    4.65
   3   7   6  126.04    4.37
  -3  -7  -7  142.05    5.05
  -3  -7  -7  148.13    4.52
  -3  -7   7  135.77    4.87
  -3  -7   7  133.15    4.22
  -3   7  -7  136.14    4.67
  -3   7  -7  154.49    4.24
  -3   7   7  115.57    4.29
  -3   7   7  121.17    3.71
   3  -7  -7  121.43    4.31
   3  -7  -7  134.52    3.77
   3  -7   7  123.24    4.42
   3  -7   7  172.49    4.15
   3   7  -7  150.51    5.15
   3   7  -7  129.52    4.37
   3   7   7  159.50    5.10
   3   7   7  170.03    4.73
  -3  -7  -8  266.95    6.06
  -3  -7  -8  258.11    5.50
  -3  -7   8  257.57    6.02
  -3  -7   8  237.40    5.06
  -3   7  -8  255.46    5.78
  -3   7  -8  271.01    5.24
  -3   7   8  224.15    5.40
  -3   7   8  229.43    4.60
   3  -7  -8  220.48    5.27
   3  -7  -8  231.04    4.54
   3  -7   8  243.58    5.47
   3  -7   8  308.62    5.28
   3   7  -8  270.11    6.21
   3   7  -8  247.39    5.30
   3   7   8  254.95    5.87
   3   7   8  300.62    5.72
  -3  -7  -9  150.28    5.70
  -3  -7  -9  150.38    5.22
  -3  -7   9  150.21    5.67
  -3  -7   9  139.69    4.80
  -3   7  -9  150.54    5.66
  -3   7  -9  150.50    5.12
  -3   7   9  135.41    5.29
  -3   7   9  131.66    4.32
   3  -7  -9  128.49    5.09
   3  -7  -9  127.99    4.23
   3  -7   9  145.28    5.28
   3  -7   9  176.40    5.04
   3   7  -9  161.94    5.94
   3   7  -9  144.10    5.03
   3   7   9  165.39    5.81
   3   7   9  159.42    5.20
  -3  -7 -10   96.84    5.94
  -3  -7 -10   91.41    5.02
  -3  -7  10   94.56    5.59
  -3  -7  10   86.07    4.56
  -3   7 -10   88.09    5.59
  -3   7 -10   95.02    5.17
  -3   7  10  100.26    5.33
  -3   7  10   90.85    4.25
   3  -7 -10  100.80    5.18
   3  -7 -10   94.09    4.34
   3  -7  10   89.87    5.32
   3  -7  10  105.56    5.06
   3   7 -10  108.45    6.02
   3   7 -10   89.70    4.94
   3   7  10  106.05    5.62
   3   7  10  114.84    5.46
  -3  -7 -11   59.37    6.07
  -3  -7 -11   68.76    5.13
  -3  -7  11   63.65    5.68
  -3  -7  11   60.72    4.66
  -3   7 -11   54.83    5.70
  -3   7 -11   55.89    5.08
  -3   7  11   66.53    5.41
  -3   7  11   60.31    4.29
   3  -7 -11   67.66    5.54
   3  -7 -11   63.84    4.57
   3  -7  11   65.70    5.72
   3  -7  11   62.24    5.19
   3   7 -11   67.23    6.19
   3   7 -11   62.62    5.14
   3   7  11   71.30    5.80
   3   7  11   74.81    5.30
  -3  -7 -12   43.23    4.43
  -3  -7 -12   29.38    3.35
  -3  -7  12   40.47    4.14
  -3  -7  12   41.37    4.87
  -3   7 -12   32.35    3.95
  -3   7 -12   31.97    3.50
  -3   7  12   34.57    3.92
  -3   7  12   33.26    3.17
   3  -7 -12   33.63    3.91
   3  -7 -12   30.69    3.13
   3  -7  12   34.96    3.95
   3  -7  12   33.41    3.56
   3   7 -12   33.52    4.09
   3   7 -12   34.21    3.50
   3   7  12   39.52    4.21
   3   7  12   38.90    3.65
  -3  -7 -13   45.62    4.71
  -3  -7 -13   39.12    3.72
  -3  -7  13   48.93    4.63
  -3  -7  13   46.73    5.30
  -3   7 -13   28.37    4.17
  -3   7 -13   39.04    3.78
  -3   7  13   40.88    4.15
  -3   7  13   45.88    6.12
   3  -7 -13   43.48    4.19
   3  -7 -13   43.26    5.16
   3  -7  13   40.28    4.48
   3  -7  13   47.35    4.14
   3   7 -13   53.59    4.71
   3   7 -13   48.39    5.85
   3   7  13   58.32    5.01
   3   7  13   42.85    4.08
  -3  -7 -14  105.89    7.66
  -3  -7 -14  107.89    6.48
  -3  -7  14  113.46    6.90
  -3  -7  14  106.57    6.07
  -3   7 -14  110.54    7.37
  -3   7 -14  105.98    6.56
  -3   7  14  115.67    6.91
   3  -7 -14  107.09    7.00
   3  -7 -14  108.13    5.93
   3  -7  14   99.54    7.08
   3  -7  14  122.15    6.74
   3   7 -14  120.01    7.76
   3   7 -14  104.99    6.52
   3   7  14  112.70    7.32
   3   7  14  102.90    6.45
  -3  -7 -15   89.85    7.63
  -3  -7 -15  100.98    6.80
  -3  -7  15   82.54    7.10
  -3  -7  15   90.37    6.35
  -3   7 -15  106.54    7.70
  -3   7 -15   90.71    6.86
   3  -7 -15  101.32    7.35
   3  -7 -15  100.24    6.15
   3  -7  15  102.48    7.45
   3  -7  15  123.63    7.25
   3   7 -15   96.80    8.06
   3   7 -15   76.62    6.62
   3   7  15  106.09    7.68
   3   7  15   99.65    6.64
  -3  -7 -16   33.27    5.08
  -3  -7 -16   36.60    4.13
  -3  -7  16   34.44    4.83
  -3  -7  16   27.81    4.02
  -3   7 -16   43.59    5.03
  -3   7 -16   37.06    4.42
   3  -7 -16   44.81    5.03
   3  -7 -16   34.47    3.94
   3  -7  16   38.82    5.13
   3  -7  16   66.56    7.13
   3   7 -16   38.45    5.39
   3   7 -16   23.65    4.32
   3   7  16   39.08    5.10
  -3  -7 -17   76.08    8.14
  -3  -7 -17   63.78    6.73
  -3  -7  17   56.86    5.79
  -3  -7  17   42.53    4.63
  -3   7 -17   72.20    8.30
  -3   7 -17   68.59    7.03
   3  -7 -17   54.31    5.44
   3  -7 -17   63.40    6.60
   3  -7  17   70.66    8.03
   3  -7  17   87.60    7.59
   3   7 -17   53.53    6.08
   3   7 -17   35.56    4.63
  -3  -7 -18   51.91    5.63
  -3  -7 -18   44.29    4.58
  -3  -7  18   45.82    5.40
  -3  -7  18   45.07    4.76
  -3   7 -18   49.74    5.62
  -3   7 -18   41.34    4.74
   3  -7 -18   54.86    5.79
   3  -7 -18   47.20    4.46
   3   7 -18   55.23    6.08
   3   7 -18   39.47    4.71
  -3  -7 -19   10.13    5.04
  -3  -7 -19   11.69    4.12
  -3  -7  19   13.83    4.90
  -3  -7  19   15.68    4.47
  -3   7 -19   14.39    4.33
   3  -7 -19    7.09    4.75
   3  -7 -19   10.16    3.93
   3   7 -19   21.86    5.51
   3   7 -19   12.53    4.37
  -3  -9   0  193.90    3.95
  -3  -9   0  158.37    3.69
   3   9   0  202.97    3.94
   3   9   0  171.23    4.00
  -3  -9  -1    3.12    1.86
  -3  -9  -1    5.46    1.91
  -3  -9   1    9.10    1.87
  -3  -9   1    5.87    1.86
   3   9  -1    6.97    1.99
   3   9  -1    5.59    2.03
   3   9   1    5.94    1.94
   3   9   1    7.81    2.03
  -3  -9  -2  118.19    4.02
  -3  -9  -2  113.19    3.62
  -3  -9  -2  103.13    3.60
  -3  -9   2  118.23    3.66
  -3  -9   2   87.87    3.53
  -3   9  -2   99.37    2.51
   3  -9   2   84.04    2.33
   3   9  -2   94.75    3.78
   3   9   2  126.46    3.83
  -3  -9  -3   53.52    3.94
  -3  -9  -3   56.75    3.56
  -3  -9   3   47.57    3.42
  -3   9  -3   44.41    2.79
  -3   9   3   44.70    2.57
   3  -9  -3   43.34    2.50
   3  -9   3   38.24    2.63
   3   9  -3   47.72    3.56
   3   9   3   58.92    3.77
   3   9   3   59.66    3.63
  -3  -9  -4  258.60    5.09
  -3  -9  -4  252.31    4.48
  -3  -9   4  235.15    4.99
  -3  -9   4  205.28    4.19
  -3   9  -4  210.16    3.85
  -3   9  -4  278.38    3.19
  -3   9   4  100.21    2.55
   3  -9  -4  204.86    3.57
   3  -9   4  192.99    3.66
   3   9  -4  217.44    4.53
   3   9   4  270.46    5.03
   3   9   4  276.79    4.64
  -3  -9  -5  184.63    4.86
  -3  -9  -5  184.68    4.24
  -3  -9   5  169.64    4.85
  -3  -9   5  155.20    4.11
  -3   9  -5  160.98    4.02
  -3   9  -5  205.76    3.59
  -3   9   5  158.13    3.45
  -3   9   5  174.53    3.16
   3  -9  -5  156.77    3.73
   3  -9   5  159.73    3.89
   3   9  -5  190.15    5.14
   3   9  -5  161.53    4.47
   3   9   5  188.08    4.90
   3   9   5  206.33    4.52
  -3  -9  -6  246.72    5.36
  -3  -9  -6  239.46    4.70
  -3  -9   6  234.70    5.49
  -3  -9   6  221.38    4.64
  -3   9  -6  221.44    4.67
  -3   9  -6  266.96    4.41
  -3   9   6  210.65    4.31
  -3   9   6  224.04    3.77
   3  -9  -6  199.13    4.30
   3  -9  -6  235.44    3.27
   3  -9   6  212.13    4.54
   3  -9   6  298.45    3.89
   3   9  -6  244.52    5.68
   3   9  -6  215.02    4.77
   3   9   6  277.31    5.63
   3   9   6  271.44    5.01
  -3  -9  -7  195.10    5.45
  -3  -9  -7  189.06    4.75
  -3  -9   7  188.22    5.49
  -3  -9   7  165.59    4.43
  -3   9  -7  176.71    4.86
  -3   9  -7  208.71    4.56
  -3   9   7  162.88    4.48
   3  -9  -7  155.51    4.43
   3  -9  -7  179.39    3.67
   3  -9   7  166.40    4.67
   3  -9   7  236.13    4.27
   3   9  -7  200.98    5.62
   3   9  -7  170.51    4.78
   3   9   7  223.06    5.62
   3   9   7  210.71    4.95
  -3  -9  -8   27.30    3.31
  -3  -9  -8   26.98    2.77
  -3  -9   8   26.42    3.15
  -3  -9   8   20.81    2.43
  -3   9  -8   25.32    2.90
  -3   9  -8   27.59    2.62
  -3   9   8   27.48    2.81
  -3   9   8   25.74    2.30
   3  -9  -8   22.32    2.69
   3  -9  -8   24.94    2.34
   3  -9   8   26.93    2.90
   3  -9   8   32.75    3.88
   3   9  -8   34.95    3.38
   3   9  -8   25.80    2.73
   3   9   8   34.73    3.48
   3   9   8   31.12    2.97
  -3  -9  -9   -1.65    2.89
  -3  -9  -9   -2.61    2.36
  -3  -9   9   -1.04    2.64
  -3  -9   9   -0.69    2.18
  -3   9  -9   -0.73    2.63
  -3   9  -9    1.00    2.35
  -3   9   9    0.49    2.45
  -3   9   9    0.74    2.00
   3  -9  -9    2.59    2.52
   3  -9  -9    3.61    2.15
   3  -9   9    3.28    2.76
   3  -9   9   -0.50    2.34
   3   9  -9   -0.11    2.84
   3   9  -9    1.66    2.45
   3   9   9   -1.44    2.85
   3   9   9   -1.19    2.48
  -3  -9 -10   14.53    3.39
  -3  -9 -10   13.02    2.78
  -3  -9  10   17.56    3.35
  -3  -9  10   13.64    2.63
  -3   9 -10   10.40    3.08
  -3   9 -10   13.75    2.84
  -3   9  10   16.53    2.96
  -3   9  10   13.36    2.37
   3  -9 -10   13.85    2.99
   3  -9 -10   13.16    2.35
   3  -9  10   12.29    3.20
   3  -9  10   14.82    2.84
   3   9 -10   17.97    3.42
   3   9 -10   15.70    2.89
   3   9  10   23.86    3.52
   3   9  10   13.68    2.85
  -3  -9 -11   30.26    3.89
  -3  -9 -11   26.63    3.12
  -3  -9  11   28.60    3.64
  -3  -9  11   24.30    3.06
  -3   9 -11   17.24    3.51
  -3   9 -11   18.80    3.28
  -3   9  11   23.55    3.32
  -3   9  11   22.33    2.75
   3  -9 -11   23.15    3.55
   3  -9 -11   25.57    2.91
   3  -9  11   19.36    3.74
   3  -9  11   21.14    3.25
   3   9 -11   29.81    3.97
   3   9 -11   24.30    3.23
   3   9  11   34.15    3.88
   3   9  11   34.09    3.55
  -3  -9 -12   48.95    4.42
  -3  -9 -12   53.17    5.48
  -3  -9  12   49.32    6.01
  -3  -9  12   47.31    5.03
  -3   9 -12   39.57    4.33
  -3   9 -12   34.21    3.65
  -3   9  12   42.82    3.93
   3  -9 -12   36.25    3.88
   3  -9 -12   39.68    3.32
   3  -9  12   42.51    4.23
   3  -9  12   39.40    3.86
   3   9 -12   58.54    6.51
   3   9 -12   48.09    5.59
   3   9  12   59.08    6.20
   3   9  12   60.09    5.72
  -3  -9 -13   55.07    6.81
  -3  -9 -13   47.36    5.79
  -3  -9  13   44.85    4.46
  -3  -9  13   51.62    5.32
  -3   9 -13   43.26    4.72
  -3   9 -13   36.52    3.98
   3  -9 -13   48.45    4.47
   3  -9 -13   43.37    3.61
   3  -9  13   34.56    4.46
   3  -9  13   39.50    3.96
   3   9 -13   71.31    7.13
   3   9 -13   51.53    5.98
   3   9  13   65.62    6.57
   3   9  13   55.02    6.06
  -3  -9 -14   15.71    4.21
  -3  -9 -14   11.89    3.42
  -3  -9  14    9.33    4.06
  -3  -9  14   11.41    3.35
  -3   9 -14    7.65    4.15
  -3   9 -14    7.83    3.48
   3  -9 -14   14.70    4.06
   3  -9 -14   10.50    3.13
   3  -9  14    8.25    4.03
   3  -9  14    9.32    3.66
   3   9 -14   13.62    4.22
   3   9 -14   15.00    3.64
   3   9  14   16.81    4.26
   3   9  14   11.39    3.91
  -3  -9 -15    9.13    4.49
  -3  -9 -15    4.55    3.41
  -3  -9  15    3.87    4.08
  -3  -9  15    3.43    3.48
  -3   9 -15    4.24    4.10
  -3   9 -15    5.16    3.52
   3  -9 -15    7.93    3.95
   3  -9 -15    9.03    3.29
   3  -9  15   -0.21    4.05
   3  -9  15    7.82    3.72
   3   9 -15    7.24    4.42
   3   9 -15    5.59    3.74
   3   9  15    7.39    4.19
  -3  -9 -16   26.79    4.85
  -3  -9 -16   17.30    3.82
  -3  -9  16   14.55    4.68
  -3  -9  16   13.19    3.88
  -3   9 -16   22.74    4.79
  -3   9 -16   20.47    4.03
   3  -9 -16   23.06    4.50
   3  -9 -16   26.61    3.78
   3  -9  16   20.83    4.73
   3  -9  16   23.91    4.28
   3   9 -16    9.53    4.89
   3   9 -16   13.91    4.09
  -3  -9 -17    1.48    4.51
  -3  -9 -17   -1.05    3.51
  -3  -9  17   -3.72    4.37
  -3   9 -17    1.15    4.50
  -3   9 -17    2.11    3.77
   3  -9 -17   -0.68    4.16
   3  -9 -17    3.52    3.44
   3  -9  17    1.11    4.41
   3  -9  17    5.25    5.29
   3   9 -17   -8.67    4.87
   3   9 -17   -5.17    3.80
  -3  -9 -18   -6.38    4.56
  -3  -9 -18   -2.90    3.74
  -3  -9  18  -12.75    4.37
  -3   9 -18    0.82    4.96
  -3   9 -18   -0.28    3.93
   3  -9 -18   -2.59    4.22
   3  -9 -18    0.02    3.39
   3   9 -18  -10.52    4.98
   3   9 -18   -7.41    3.98
  -3  -9 -19   -5.47    4.91
  -3  -9 -19   -7.19    3.56
  -3   9 -19   10.40    4.35
   3  -9 -19    0.78    4.62
   3  -9 -19    4.09    3.71
   3   9 -19    1.28    5.19
   3   9 -19   -0.34    4.09
  -3 -11   0  166.13    3.86
  -3 -11   0  123.12    3.42
   3  11   0  165.97    3.75
   3  11   0  135.35    3.95
  -3 -11  -1    4.30    1.78
  -3 -11  -1    4.89    1.80
  -3 -11   1    4.62    1.84
  -3 -11   1    4.52    1.73
   3  11  -1    7.80    1.92
   3  11  -1    6.46    1.96
   3  11   1    5.28    1.96
   3  11   1    5.65    2.08
  -3 -11  -2   41.23    3.30
  -3 -11  -2   37.39    3.26
  -3 -11   2   49.95    3.34
  -3 -11   2   34.04    3.15
  -3  11  -2   38.23    2.27
   3  11  -2   37.76    3.37
   3  11  -2   28.96    3.46
   3  11   2   51.12    3.46
  -3 -11  -3   24.97    2.44
  -3 -11  -3   25.71    2.10
  -3 -11  -3   25.46    2.16
  -3 -11   3   31.86    3.26
  -3 -11   3   21.81    2.07
  -3  11  -3   23.63    2.65
  -3  11   3   22.76    2.48
   3 -11  -3   19.07    1.66
   3 -11   3   16.25    1.57
   3  11  -3   22.81    2.25
   3  11   3   28.29    2.27
  -3 -11  -4  109.13    4.34
  -3 -11  -4   94.58    3.67
  -3 -11   4  106.30    4.37
  -3 -11   4   86.99    3.59
  -3  11  -4   99.27    3.42
  -3  11   4   97.46    3.12
   3 -11  -4   94.10    3.13
   3 -11   4   80.88    3.10
   3  11  -4   87.52    3.86
   3  11   4  114.76    4.27
   3  11   4  123.15    3.98
  -3 -11  -5   23.00    2.79
  -3 -11  -5   21.27    2.24
  -3 -11   5   17.61    2.65
  -3 -11   5   12.96    2.12
  -3  11  -5   14.56    2.17
  -3  11  -5   23.28    2.73
  -3  11   5   20.49    2.37
   3 -11  -5   15.70    1.97
   3 -11   5   15.35    2.06
   3  11  -5   14.16    2.31
   3  11   5   29.71    2.85
   3  11   5   23.91    2.40
  -3 -11  -6   24.81    2.96
  -3 -11  -6   18.17    2.29
  -3 -11   6   23.71    2.92
  -3 -11   6   17.05    2.34
  -3  11  -6   22.78    2.58
  -3  11  -6   23.42    2.12
  -3  11   6   25.68    2.38
  -3  11   6   23.58    2.78
   3 -11  -6   17.63    2.24
   3 -11   6   17.64    2.25
   3 -11   6   29.34    2.60
   3  11  -6   26.46    3.23
   3  11  -6   14.10    2.46
   3  11   6   28.08    3.07
   3  11   6   27.78    2.66
  -3 -11  -7   46.22    5.02
  -3 -11  -7   48.07    4.13
  -3 -11   7   56.88    4.90
  -3 -11   7   49.20    3.90
  -3  11  -7   59.98    4.47
  -3  11  -7   60.66    3.92
  -3  11   7   62.72    4.01
  -3  11   7   61.86    3.33
   3 -11  -7   54.08    3.97
   3 -11  -7   65.49    3.00
   3 -11   7   56.60    4.10
   3 -11   7   70.73    3.45
   3  11  -7   64.75    5.23
   3  11  -7   52.26    4.36
   3  11   7   53.58    4.95
   3  11   7   60.03    4.41
  -3 -11  -8   37.80    3.71
  -3 -11  -8   28.58    2.77
  -3 -11   8   37.19    3.48
  -3 -11   8   33.51    3.88
  -3  11  -8   39.49    4.57
  -3  11  -8   36.90    4.05
  -3  11   8   40.93    4.11
   3 -11  -8   39.42    4.30
   3 -11  -8   37.81    3.28
   3 -11   8   32.29    2.96
   3 -11   8   46.24    3.78
   3  11  -8   43.44    5.20
   3  11  -8   35.27    4.26
   3  11   8   47.50    3.77
   3  11   8   37.36    3.11
  -3 -11  -9   37.18    3.93
  -3 -11  -9   31.96    2.95
  -3 -11   9   38.22    3.61
  -3 -11   9   30.13    2.77
  -3  11  -9   32.41    3.41
  -3  11  -9   29.78    2.82
  -3  11   9   33.47    3.11
  -3  11   9   33.29    3.58
   3 -11  -9   30.54    3.06
   3 -11  -9   34.46    3.74
   3 -11   9   27.74    3.11
   3 -11   9   44.80    4.24
   3  11  -9   34.55    3.63
   3  11  -9   28.53    3.00
   3  11   9   39.43    3.74
   3  11   9   35.77    3.18
  -3 -11 -10    7.34    3.35
  -3 -11 -10    4.53    2.65
  -3 -11  10    5.15    3.07
  -3 -11  10    2.36    2.44
  -3  11 -10    4.41    3.14
  -3  11 -10    3.54    2.71
  -3  11  10    5.46    2.93
  -3  11  10    5.39    2.27
   3 -11 -10    5.98    2.97
   3 -11 -10    3.36    2.30
   3 -11  10    4.87    2.99
   3 -11  10    3.96    2.60
   3  11 -10    9.67    3.41
   3  11 -10    7.30    2.82
   3  11  10    6.41    3.31
   3  11  10    9.21    2.90
  -3 -11 -11   -1.05    3.25
  -3 -11 -11    1.30    2.67
  -3 -11  11    0.40    3.30
  -3 -11  11   -1.16    2.59
  -3  11 -11   -9.60    3.29
  -3  11  11   -4.12    2.91
   3 -11 -11   -2.20    3.01
   3 -11 -11   -4.41    2.39
   3 -11  11   -7.40    3.00
   3  11 -11    1.13    3.37
   3  11 -11   -1.36    2.80
   3  11  11   -1.37    3.37
   3  11  11    1.86    3.07
  -3 -11 -12   20.81    3.95
  -3 -11 -12   20.32    3.21
  -3 -11  12   17.45    3.79
  -3 -11  12   14.86    3.15
  -3  11 -12    7.54    3.87
  -3  11 -12    5.75    3.39
   3 -11 -12   16.54    3.61
   3 -11 -12   17.08    3.04
   3 -11  12   11.72    3.75
   3 -11  12   12.28    3.54
   3  11 -12   23.97    4.26
   3  11 -12   21.09    3.53
   3  11  12   21.38    3.95
   3  11  12   21.51    3.48
  -3 -11 -13   56.47    5.13
  -3 -11 -13   47.26    5.83
  -3 -11  13   54.17    6.65
  -3 -11  13   44.05    5.36
  -3  11 -13   36.47    4.50
  -3  11 -13   33.17    3.78
   3 -11 -13   39.32    4.24
   3 -11 -13   41.01    3.60
   3 -11  13   34.65    4.56
   3 -11  13   37.79    3.98
   3  11 -13   67.22    7.14
   3  11 -13   40.16    3.98
   3  11  13   49.95    4.73
  -3 -11 -14    0.88    4.21
  -3 -11 -14    0.19    3.20
  -3 -11  14    2.25    3.83
  -3 -11  14   -0.29    3.15
  -3  11 -14   -1.78    4.04
  -3  11 -14   -4.22    3.22
   3 -11 -14   -3.71    3.72
   3 -11 -14    0.63    3.06
   3 -11  14   -1.10    4.04
   3 -11  14   -0.06    3.57
   3  11 -14    2.53    4.11
   3  11 -14    0.97    3.57
  -3 -11 -15    1.24    4.17
  -3 -11 -15   -4.41    3.24
  -3 -11  15   -2.20    4.14
  -3 -11  15   -5.94    3.18
  -3  11 -15    0.62    4.16
  -3  11 -15    4.12    3.65
   3 -11 -15   -1.30    3.87
   3 -11 -15   -0.24    3.12
   3 -11  15   -2.36    3.98
   3 -11  15    2.61    3.76
   3  11 -15   -4.16    4.36
   3  11 -15   -1.41    3.53
  -3 -11 -16   19.06    4.91
  -3 -11 -16   11.35    3.62
  -3 -11  16   12.87    4.74
  -3 -11  16    8.25    3.82
  -3  11 -16   18.37    4.92
  -3  11 -16   15.71    4.12
   3 -11 -16   18.96    4.40
   3 -11 -16   18.68    3.59
   3 -11  16   12.70    4.56
   3 -11  16   26.77    4.43
   3  11 -16   12.63    5.09
   3  11 -16   10.25    4.03
  -3 -11 -17    1.81    4.54
  -3 -11 -17    2.83    3.44
  -3 -11  17   -5.79    4.56
  -3 -11  17    0.29    3.88
  -3  11 -17    7.70    4.69
  -3  11 -17    4.26    3.87
   3 -11 -17    6.76    4.28
   3 -11 -17    7.25    3.38
   3  11 -17  -11.27    4.88
   3  11 -17   -2.55    3.97
  -3 -11 -18  -10.89    4.41
  -3 -11 -18   -6.09    3.61
  -3  11 -18    0.17    3.89
   3 -11 -18   -1.55    4.27
   3 -11 -18   -0.49    3.44
   3  11 -18  -11.49    4.94
   3  11 -18   -7.27    4.05
  -3 -13   0  227.26    3.91
  -3 -13   0  165.97    3.59
   3  13   0  176.75    4.14
  -3 -13  -1  170.50    3.69
  -3 -13  -1  136.67    3.51
  -3 -13   1  190.75    3.85
  -3 -13   1  127.10    3.41
   3  13  -1   72.93    2.63
   3  13  -1  146.07    4.01
   3  13   1  145.53    4.08
  -3 -13  -2   32.71    3.18
  -3 -13  -2   25.92    2.10
  -3 -13   2   36.67    3.27
  -3 -13   2   23.17    1.97
   3 -13   2   25.63    2.25
   3  13  -2   33.45    3.32
   3  13  -2   22.34    2.28
   3  13   2   24.80    1.92
   3  13   2   32.06    2.43
  -3 -13  -3   16.66    2.51
  -3 -13  -3    9.11    1.86
  -3 -13  -3   11.59    2.04
  -3 -13   3   16.68    2.09
  -3 -13   3    6.99    1.79
  -3  13  -3   10.78    1.70
  -3  13   3   12.68    1.67
   3 -13  -3    9.61    1.52
   3 -13   3    8.47    1.60
   3  13  -3    9.56    2.16
   3  13   3   14.01    2.16
  -3 -13  -4   92.99    4.46
  -3 -13  -4   92.64    3.68
  -3 -13  -4   83.65    3.73
  -3 -13   4   84.25    4.46
  -3 -13   4   99.21    3.83
  -3 -13   4   66.57    3.51
  -3  13  -4   82.11    3.39
  -3  13   4   88.91    3.26
   3 -13  -4   76.03    3.10
   3 -13   4   68.02    3.21
   3  13  -4   77.07    4.00
   3  13   4  102.66    4.00
  -3 -13  -5  974.99    7.03
  -3 -13   5  848.36    6.82
   3 -13   5  828.61    6.58
   3  13  -5  908.75    7.68
  -3 -13   6 1059.00    9.44
  -3 -13   6  945.59    7.46
  -3  13  -6 1010.00    7.94
  -3  13   6 1004.00    5.85
   3 -13  -6  978.27    7.34
   3 -13   6  918.16    7.49
   3  13  -6  990.51    8.23
  -3 -13  -7  287.09    6.47
  -3 -13  -7  269.49    5.18
  -3 -13   7  294.18    6.48
  -3 -13   7  258.10    5.00
  -3  13  -7  276.40    5.77
  -3  13  -7  286.17    4.98
  -3  13   7  278.27    5.17
  -3  13   7  276.55    4.29
   3 -13  -7  256.15    5.15
   3 -13   7  240.46    5.23
   3 -13   7  354.96    4.03
   3  13  -7  328.19    6.86
   3  13  -7  266.49    5.68
   3  13   7  320.21    6.63
   3  13   7  328.61    5.98
  -3 -13  -8   41.70    3.59
  -3 -13  -8   36.80    2.88
  -3 -13   8   42.81    5.23
  -3 -13   8   38.90    3.99
  -3  13  -8   42.22    3.32
  -3  13  -8   33.53    4.06
  -3  13   8   38.98    4.15
  -3  13   8   39.90    3.45
   3 -13  -8   40.19    4.28
   3 -13  -8   46.90    3.06
   3 -13   8   37.18    4.35
   3 -13   8   50.01    3.64
   3  13  -8   48.53    5.66
   3  13  -8   44.77    4.46
   3  13   8   51.42    3.90
   3  13   8   41.77    3.20
  -3 -13  -9   59.41    5.59
  -3 -13  -9   56.53    4.62
  -3 -13   9   54.12    5.57
  -3 -13   9   58.95    4.41
  -3  13  -9   75.06    5.38
  -3  13  -9   70.53    4.55
  -3  13   9   68.46    4.78
   3 -13  -9   56.31    4.69
   3 -13  -9   65.69    3.63
   3 -13   9   55.85    4.92
   3 -13   9   85.26    4.24
   3  13  -9   63.16    5.96
   3  13  -9   52.72    4.95
   3  13   9   59.55    5.67
   3  13   9   67.00    5.08
  -3 -13 -10  205.55    6.88
  -3 -13 -10  172.68    5.55
  -3 -13  10  182.29    6.87
  -3 -13  10  168.89    5.57
  -3  13 -10  189.73    6.63
  -3  13 -10  190.03    5.70
   3 -13 -10  177.62    5.93
   3 -13 -10  188.15    4.78
   3 -13  10  167.81    6.12
   3 -13  10  221.29    5.44
   3  13 -10  198.41    7.14
   3  13 -10  172.51    6.05
   3  13  10  203.57    7.09
   3  13  10  206.71    6.22
  -3 -13 -11  166.47    6.95
  -3 -13 -11  148.50    5.73
  -3 -13  11  152.87    6.76
  -3 -13  11  145.60    5.75
  -3  13 -11  159.00    7.00
  -3  13 -11  143.47    5.84
   3 -13 -11  153.41    6.28
   3 -13 -11  155.63    5.07
   3 -13  11  137.84    6.49
   3 -13  11  174.97    5.90
   3  13 -11  146.03    7.28
   3  13 -11  126.69    5.96
   3  13  11  171.93    7.12
  -3 -13 -12   39.40    4.49
  -3 -13 -12   35.32    3.50
  -3 -13  12   29.38    4.21
  -3 -13  12   29.12    3.50
  -3  13 -12   30.20    4.27
  -3  13 -12   22.63    3.55
   3 -13 -12   35.37    4.11
   3 -13 -12   34.76    3.12
   3 -13  12   25.98    4.20
   3 -13  12   32.69    3.77
   3  13 -12   39.32    4.52
   3  13 -12   30.48    3.62
  -3 -13 -13   17.13    4.23
  -3 -13 -13    8.36    3.19
  -3 -13  13   18.10    4.13
  -3 -13  13   14.46    3.35
  -3  13 -13   13.80    4.16
  -3  13 -13   12.73    3.64
   3 -13 -13   13.60    3.85
   3 -13 -13   10.98    2.99
   3 -13  13    5.16    3.97
   3 -13  13   12.62    3.54
   3  13 -13   18.70    4.34
   3  13 -13   10.90    3.57
  -3 -13 -14   75.40    7.69
  -3 -13 -14   70.19    6.08
  -3 -13  14   78.37    7.32
  -3 -13  14   69.14    6.20
  -3  13 -14   86.28    7.66
  -3  13 -14   73.60    6.49
   3 -13 -14   75.32    6.92
   3 -13 -14   69.05    5.63
   3 -13  14   71.93    7.19
   3 -13  14   90.12    6.66
   3  13 -14   80.99    7.86
   3  13 -14   79.59    6.95
  -3 -13 -15   98.16    8.07
  -3 -13 -15   93.10    6.50
  -3 -13  15  109.31    8.02
  -3 -13  15   94.52    6.62
  -3  13 -15  113.40    8.34
  -3  13 -15  103.17    7.19
   3 -13 -15  106.54    7.66
   3 -13 -15   91.35    6.03
   3 -13  15  112.76    8.29
   3 -13  15  121.98    7.14
   3  13 -15  114.33    8.71
   3  13 -15  107.42    7.42
  -3 -13 -16    3.77    4.53
  -3 -13 -16    4.26    3.45
  -3 -13  16    6.23    4.48
  -3 -13  16    3.31    3.69
  -3  13 -16    7.82    4.75
  -3  13 -16    9.00    3.98
   3 -13 -16   10.57    4.27
   3 -13 -16    5.59    3.29
   3  13 -16    4.74    4.97
   3  13 -16    2.08    4.08
  -3 -13 -17    0.10    4.63
  -3 -13 -17    0.01    3.43
  -3  13 -17   -3.41    3.81
   3 -13 -17    7.11    4.20
   3 -13 -17    1.37    3.33
   3  13 -17   -2.28    5.01
   3  13 -17   -4.73    4.14
  -3 -13 -18   -2.24    4.54
  -3 -13 -18   -3.44    3.47
   3 -13 -18    5.36    4.47
   3 -13 -18    1.84    3.48
   3  13 -18   -0.45    4.20
  -3 -15   0   61.04    3.32
  -3 -15   0   39.78    3.04
   3  15   0    0.83    0.72
   3  15   0   43.26    3.82
  -3 -15  -1    2.24    1.82
  -3 -15  -1    2.20    1.75
  -3 -15   1    2.63    1.84
  -3 -15   1    1.14    1.64
   3  15  -1   -0.56    0.36
   3  15  -1    1.18    2.13
   3  15   1    0.90    0.64
   3  15   1    0.18    2.11
  -3 -15  -2   87.65    3.49
  -3 -15  -2   76.31    3.35
  -3 -15   2  106.25    3.79
  -3 -15   2   72.17    3.23
   3  15  -2   -0.79    0.62
   3  15  -2   78.08    4.10
   3  15   2    0.62    0.35
   3  15   2   90.26    4.10
  -3 -15  -3  336.35    5.86
  -3 -15  -3  306.01    4.42
  -3 -15  -3  279.33    4.39
  -3 -15   3  392.73    4.93
  -3 -15   3  264.05    4.25
  -3  15  -3  298.20    4.17
  -3  15   3  363.18    4.08
   3 -15  -3  274.59    3.69
   3 -15   3  258.20    3.88
   3  15  -3  283.78    5.18
  -3 -15  -4  295.96    5.87
  -3 -15  -4  272.13    4.48
  -3 -15  -4  266.50    4.61
  -3 -15   4  277.86    5.86
  -3 -15   4  351.44    5.04
  -3 -15   4  228.70    4.32
  -3  15  -4  268.99    4.40
  -3  15   4  315.27    4.39
   3 -15  -4  247.95    4.03
   3 -15   4  230.28    4.19
   3  15  -4  252.67    5.12
   3  15   4  319.93    5.26
  -3 -15  -5   68.05    4.87
  -3 -15  -5   56.04    3.79
  -3 -15  -5   53.76    3.90
  -3 -15   5   62.95    4.85
  -3 -15   5   76.16    4.12
  -3 -15   5   54.77    3.59
  -3  15  -5   58.64    3.84
  -3  15  -5   57.30    2.99
  -3  15   5   65.67    3.79
   3 -15  -5   56.88    3.55
   3 -15   5   50.13    3.68
   3  15  -5   60.15    4.32
   3  15   5   73.68    4.88
   3  15   5   68.30    4.34
  -3 -15  -6   43.21    4.99
  -3 -15  -6   35.76    3.75
  -3 -15   6   47.93    4.89
  -3 -15   6   36.31    3.56
  -3  15  -6   38.68    4.11
  -3  15  -6   32.46    3.42
  -3  15   6   17.31    1.76
  -3  15   6   39.60    2.85
   3 -15  -6   40.91    3.86
   3 -15   6   34.42    2.77
   3  15  -6   40.04    4.34
   3  15   6   40.41    4.74
   3  15   6   39.76    4.46
  -3 -15  -7  106.81    5.64
  -3 -15  -7   92.84    4.36
  -3 -15   7   95.26    5.50
  -3 -15   7   93.23    4.17
  -3  15  -7   92.37    4.89
  -3  15  -7   84.70    4.09
  -3  15   7   95.47    3.90
  -3  15   7  101.90    3.54
   3 -15  -7   92.07    4.41
   3 -15   7   80.33    4.48
   3  15  -7   94.46    4.89
   3  15   7  130.92    5.49
   3  15   7  110.29    5.10
  -3 -15  -8  143.99    6.08
  -3 -15  -8  125.22    4.78
  -3 -15   8  129.61    6.05
  -3 -15   8  110.01    4.61
  -3  15  -8  125.72    5.36
  -3  15  -8  122.40    4.55
  -3  15   8  128.19    5.03
  -3  15   8  122.92    3.99
   3 -15  -8  117.93    5.01
   3 -15   8  111.64    5.08
   3  15  -8  140.19    6.41
   3  15  -8  118.07    5.35
   3  15   8  150.38    6.13
   3  15   8  150.77    5.41
  -3 -15  -9  163.48    6.61
  -3 -15  -9  151.96    5.17
  -3 -15   9  150.91    6.71
  -3 -15   9  135.43    5.15
  -3  15  -9  169.22    6.20
  -3  15  -9  171.17    5.33
   3 -15  -9  153.93    5.51
   3 -15   9  147.74    5.61
   3 -15   9  204.21    4.56
   3  15  -9  172.07    7.16
   3  15  -9  138.25    5.76
   3  15   9  200.75    6.80
  -3 -15 -10  198.21    7.03
  -3 -15 -10  182.59    5.69
  -3 -15  10  179.26    7.12
  -3 -15  10  164.61    5.62
  -3  15 -10  194.05    6.80
  -3  15 -10  175.21    5.53
   3 -15 -10  181.28    6.06
   3 -15 -10  185.02    4.42
   3 -15  10  173.95    6.28
   3 -15  10  227.81    5.30
   3  15 -10  176.15    7.60
   3  15 -10  160.70    6.26
  -3 -15 -11  128.75    6.98
  -3 -15 -11  123.93    5.78
  -3 -15  11  117.65    6.92
  -3 -15  11  105.22    5.63
  -3  15 -11  131.06    6.83
  -3  15 -11  110.82    5.57
   3 -15 -11  108.78    6.09
   3 -15 -11  127.32    4.76
   3 -15  11  112.79    6.32
   3 -15  11  141.00    5.46
   3  15 -11  121.15    7.25
   3  15 -11  105.06    6.05
  -3 -15 -12   55.83    6.68
  -3 -15 -12   55.15    5.50
  -3 -15  12   55.26    6.82
  -3 -15  12   47.18    5.50
  -3  15 -12   56.94    6.67
  -3  15 -12   51.32    5.56
   3 -15 -12   53.21    6.04
   3 -15 -12   49.16    4.82
   3 -15  12   62.38    6.44
   3 -15  12   64.29    5.43
   3  15 -12   62.52    7.12
   3  15 -12   44.42    4.10
  -3 -15 -13   18.42    4.36
  -3 -15 -13   11.65    3.30
  -3 -15  13   12.92    4.26
  -3 -15  13   12.31    3.44
  -3  15 -13   19.77    4.28
  -3  15 -13   16.91    3.47
   3 -15 -13   14.08    3.80
   3 -15 -13   16.33    3.02
   3 -15  13   13.70    4.03
   3 -15  13   16.26    3.62
   3  15 -13   15.46    4.59
   3  15 -13   11.74    3.69
  -3 -15 -14   -6.96    4.18
  -3 -15 -14   -2.21    3.23
  -3 -15  14    3.88    4.38
  -3 -15  14   -0.40    3.34
  -3  15 -14    2.97    4.35
  -3  15 -14    1.81    3.60
   3 -15 -14   -1.37    3.77
   3 -15 -14   -1.05    3.08
   3 -15  14   -0.92    3.99
   3 -15  14    1.57    3.55
   3  15 -14    2.16    4.29
   3  15 -14    1.46    3.61
  -3 -15 -15   -7.33    4.40
  -3 -15 -15   -4.81    3.17
  -3 -15  15   -0.82    4.25
  -3 -15  15   -0.04    3.41
  -3  15 -15   -4.78    4.44
  -3  15 -15   -1.88    3.73
   3 -15 -15   -0.94    3.78
   3 -15 -15   -1.39    2.98
   3  15 -15    0.51    4.66
   3  15 -15   -0.62    3.95
  -3 -15 -16   19.89    4.85
  -3 -15 -16   23.07    3.73
  -3  15 -16   12.91    4.28
   3 -15 -16   17.77    4.40
   3 -15 -16   25.74    3.61
   3  15 -16   23.71    5.40
   3  15 -16   24.25    4.40
  -3 -15 -17   25.37    5.22
  -3 -15 -17   19.45    3.65
   3 -15 -17   31.26    4.88
   3 -15 -17   24.70    3.72
   3  15 -17   23.96    4.53
  -3 -17   0   34.49    3.18
  -3 -17   0   28.40    2.92
   3  17   0   43.41    3.76
   3  17   0   31.32    2.69
  -3 -17  -1   49.63    3.25
  -3 -17  -1   43.33    3.00
  -3 -17   1   56.70    3.41
  -3 -17   1   41.04    2.96
   3  17  -1   48.95    3.37
   3  17  -1   49.89    4.06
   3  17   1   61.29    3.81
   3  17   1   45.48    4.00
  -3 -17  -2    0.96    1.83
  -3 -17  -2    1.71    1.80
  -3 -17   2    2.27    2.06
  -3 -17   2    1.49    1.68
   3 -17   2    2.59    1.72
   3  17  -2    0.56    0.79
   3  17  -2    1.12    2.27
   3  17   2    0.85    1.81
   3  17   2    2.36    2.32
  -3 -17  -3    4.74    2.69
  -3 -17  -3    3.53    1.90
  -3 -17  -3    2.34    1.92
  -3 -17   3    4.51    2.21
  -3 -17   3    7.05    1.88
   3 -17  -3    4.48    1.75
   3 -17   3    2.85    1.87
   3  17  -3    1.66    0.60
   3  17  -3    3.43    2.38
   3  17   3    0.99    0.55
   3  17   3    4.76    2.47
  -3 -17  -4   20.11    3.02
  -3 -17  -4   17.69    2.10
  -3 -17  -4   20.42    2.33
  -3 -17   4   22.50    3.10
  -3 -17   4   25.46    2.47
  -3 -17   4   15.31    2.05
  -3  17  -4   18.62    2.42
  -3  17   4   27.55    2.28
   3 -17  -4   19.08    2.13
   3 -17   4   20.41    2.29
   3  17  -4   16.98    2.62
   3  17   4    2.51    0.90
  -3 -17  -5    6.19    2.84
  -3 -17  -5    2.53    2.04
  -3 -17  -5    3.92    2.23
  -3 -17   5    5.04    2.86
  -3 -17   5    2.78    2.26
  -3 -17   5    2.67    1.94
  -3  17  -5   -1.42    2.31
  -3  17   5    3.90    2.31
   3 -17  -5   -0.55    2.03
   3 -17   5   -1.23    2.13
   3  17  -5    4.89    2.53
   3  17   5    2.21    2.43
  -3 -17  -6   18.39    3.16
  -3 -17  -6   12.92    2.30
  -3 -17  -6   15.11    2.52
  -3 -17   6   15.41    3.21
  -3 -17   6   17.49    2.59
  -3 -17   6   11.17    2.22
  -3  17  -6   12.36    2.63
  -3  17  -6    8.51    2.06
  -3  17   6   14.80    2.65
  -3  17   6   10.20    1.76
   3 -17  -6    8.72    2.49
   3 -17   6    7.47    2.38
   3  17  -6    8.45    2.66
   3  17   6   22.42    3.10
   3  17   6   13.58    2.71
  -3 -17  -7   17.17    3.41
  -3 -17  -7    8.06    2.34
  -3 -17   7    8.16    3.14
  -3 -17   7    8.41    2.30
  -3  17  -7   11.20    2.84
  -3  17  -7    5.59    2.20
  -3  17   7    2.92    1.96
   3 -17  -7    2.71    2.60
   3 -17   7    7.00    2.61
   3  17  -7    8.44    2.84
   3  17   7   15.31    3.30
  -3 -17  -8    2.94    3.32
  -3 -17  -8    0.01    2.28
  -3 -17   8   -3.11    3.13
  -3 -17   8   -0.31    2.30
  -3  17  -8    2.19    2.92
  -3  17  -8    0.52    2.38
   3 -17  -8   -2.66    2.76
   3 -17   8    0.85    2.73
   3  17  -8    1.48    3.56
   3  17  -8    0.84    2.87
  -3 -17  -9    3.41    3.35
  -3 -17  -9    2.97    2.56
  -3 -17   9    4.74    3.43
  -3 -17   9   -1.35    2.45
  -3  17  -9    5.75    3.19
  -3  17  -9    3.83    2.58
   3 -17  -9   -2.98    2.96
   3 -17   9    9.32    3.03
   3  17  -9    0.51    3.73
   3  17  -9   -1.82    2.96
  -3 -17 -10   17.75    3.98
  -3 -17 -10    8.12    2.87
  -3 -17  10    6.09    3.89
  -3 -17  10    3.44    2.77
  -3  17 -10   10.87    3.55
  -3  17 -10    9.49    2.84
   3 -17 -10    9.66    3.22
   3 -17  10    8.71    3.24
   3 -17  10   13.22    2.63
   3  17 -10    4.51    3.98
   3  17 -10    6.42    3.24
  -3 -17 -11   -0.59    3.65
  -3 -17 -11    2.07    2.83
  -3 -17  11    4.14    4.01
  -3 -17  11   -3.83    2.89
  -3  17 -11    1.09    3.66
  -3  17 -11    1.40    2.97
   3 -17 -11    3.61    3.31
   3 -17 -11    3.28    2.29
   3 -17  11    0.98    3.45
   3 -17  11    5.31    2.84
   3  17 -11   -3.39    3.98
   3  17 -11   -3.06    3.28
  -3 -17 -12    9.44    4.16
  -3 -17 -12    4.82    3.03
  -3 -17  12    4.61    3.98
  -3 -17  12    3.70    3.11
  -3  17 -12   10.23    4.01
  -3  17 -12    5.35    3.23
   3 -17 -12    5.95    3.54
   3 -17 -12    6.59    2.62
   3 -17  12    7.36    3.84
   3 -17  12    7.53    3.07
   3  17 -12    3.55    4.27
   3  17 -12    5.35    3.58
  -3 -17 -13   14.02    4.50
  -3 -17 -13   11.09    3.29
  -3 -17  13   22.17    4.65
  -3 -17  13   14.28    3.46
  -3  17 -13   22.90    4.58
  -3  17 -13   18.90    3.73
   3 -17 -13   22.17    4.01
   3 -17 -13   17.95    2.99
   3 -17  13   23.02    4.31
   3 -17  13   23.97    3.57
   3  17 -13   21.11    4.76
   3  17 -13   14.63    3.85
  -3 -17 -14   -7.74    4.20
  -3 -17 -14   -4.39    3.13
  -3 -17  14    1.34    4.28
  -3 -17  14   -0.24    3.47
  -3  17 -14   -3.72    4.28
  -3  17 -14    0.36    3.48
   3 -17 -14   -0.21    3.67
   3 -17 -14   -1.72    2.86
   3 -17  14   -0.59    4.13
   3 -17  14   -0.68    3.57
   3  17 -14   -5.32    4.56
   3  17 -14    1.83    3.75
  -3 -17 -15    1.00    4.55
  -3 -17 -15    1.40    3.23
  -3  17 -15    2.70    4.20
   3 -17 -15    5.47    3.95
   3 -17 -15   10.92    3.11
   3  17 -15   12.75    5.28
   3  17 -15    7.28    3.84
  -3 -17 -16   19.63    4.94
  -3 -17 -16   16.67    3.52
   3 -17 -16   21.89    4.47
   3 -17 -16   16.13    3.37
   3  17 -16   16.43    4.32
  -3 -19   0   76.44    3.29
  -3 -19   0   62.73    2.95
   3  19   0  103.02    4.57
   3  19   0   79.22    4.49
  -3 -19   1   56.17    3.34
   3  19  -1   61.49    4.22
   3  19  -1   42.43    4.30
   3  19   1   60.93    4.44
   3  19   1   52.11    4.43
  -3 -19  -2  144.70    3.56
  -3 -19  -2  128.24    3.43
  -3 -19   2  175.72    3.97
  -3 -19   2  117.17    3.35
   3 -19   2  146.97    3.70
   3  19  -2  190.49    4.71
   3  19  -2  128.00    4.92
   3  19   2  192.93    5.07
   3  19   2  150.71    5.05
  -3 -19  -3  284.23    6.23
  -3 -19  -3  239.46    4.03
  -3 -19  -3  224.66    3.97
  -3 -19   3  326.85    4.82
  -3 -19   3  206.22    3.87
   3 -19  -3  249.14    4.20
   3 -19   3  241.84    4.34
   3  19  -3  223.69    5.56
   3  19   3  306.09    5.37
   3  19   3  244.01    5.35
  -3 -19  -4  194.46    5.91
  -3 -19  -4  162.04    3.90
  -3 -19  -4  154.32    3.99
  -3 -19   4  221.63    4.82
  -3 -19   4  134.65    3.73
  -3  19   4  221.28    4.40
   3 -19  -4  163.88    4.17
   3 -19   4  162.85    4.35
   3  19  -4  144.96    5.17
  -3 -19  -5   78.48    5.48
  -3 -19  -5   72.30    3.73
  -3 -19  -5   72.18    3.95
  -3 -19   5   67.66    5.44
  -3 -19   5   90.36    4.51
  -3 -19   5   56.83    3.57
  -3  19  -5   80.63    4.51
   3 -19  -5   63.67    4.08
   3 -19   5   67.79    4.25
   3  19  -5   63.77    5.09
  -3 -19  -6   83.33    5.70
  -3 -19  -6   66.07    3.94
  -3 -19  -6   70.86    4.31
  -3 -19   6   70.49    5.60
  -3 -19   6   84.29    4.72
  -3 -19   6   59.01    3.91
  -3  19  -6   77.29    4.76
  -3  19  -6   67.44    3.75
  -3  19   6   56.61    3.10
   3 -19  -6   60.24    4.47
   3 -19   6   63.96    4.55
   3  19  -6   66.96    5.10
  -3 -19  -7  160.28    6.35
  -3 -19  -7  137.15    4.57
  -3 -19  -7  148.77    4.94
  -3 -19   7  139.12    6.30
  -3 -19   7  197.29    5.46
  -3 -19   7  133.97    4.67
  -3  19  -7  147.14    5.38
  -3  19  -7  135.69    4.48
   3 -19  -7  132.89    5.16
   3 -19   7  125.75    5.18
   3  19  -7  125.41    5.57
  -3 -19  -8  207.37    6.95
  -3 -19  -8  179.15    5.04
  -3 -19   8  176.86    7.01
  -3 -19   8  161.08    5.09
  -3  19  -8  192.55    6.07
  -3  19  -8  176.95    5.01
   3 -19  -8  153.60    5.64
   3 -19   8  159.52    5.73
   3  19  -8  167.10    6.19
  -3 -19  -9  121.92    6.75
  -3 -19  -9  118.22    5.05
  -3 -19   9  114.69    6.80
  -3 -19   9  103.89    5.15
  -3  19  -9  119.06    6.08
  -3  19  -9  113.44    5.06
   3 -19  -9  108.33    5.84
   3 -19   9  105.67    5.78
   3  19  -9  139.80    7.28
   3  19  -9  105.58    6.01
  -3 -19 -10   43.26    4.49
  -3 -19 -10   33.48    3.16
  -3 -19  10   33.97    4.35
  -3 -19  10   31.03    3.22
  -3  19 -10   42.43    4.17
  -3  19 -10   27.74    3.33
   3 -19 -10   32.07    3.72
   3 -19  10   33.79    3.94
   3  19 -10   38.86    4.68
   3  19 -10   29.79    3.74
  -3 -19 -11   38.47    4.57
  -3 -19 -11   29.74    3.27
  -3 -19  11   30.66    4.52
  -3 -19  11   23.83    3.31
  -3  19 -11   37.39    4.44
  -3  19 -11   29.22    3.63
   3 -19 -11   35.63    3.94
   3 -19  11   28.18    4.05
   3 -19  11   47.64    4.72
   3  19 -11   36.05    5.06
   3  19 -11   29.08    4.03
  -3 -19 -12   46.96    4.74
  -3 -19 -12   38.70    3.59
  -3 -19  12   42.45    5.00
  -3 -19  12   35.34    3.69
  -3  19 -12   50.75    4.90
  -3  19 -12   53.43    6.02
   3 -19 -12   51.01    6.20
   3 -19 -12   50.79    4.28
   3 -19  12   44.30    4.61
   3 -19  12   66.49    5.40
   3  19 -12   54.45    5.49
   3  19 -12   38.11    4.30
  -3 -19 -13   21.21    4.58
  -3 -19 -13   17.69    3.35
  -3 -19  13   21.98    4.90
  -3 -19  13   19.09    4.13
  -3  19 -13   25.29    4.72
  -3  19 -13   14.77    3.68
   3 -19 -13   22.61    4.10
   3 -19 -13   21.05    2.83
   3 -19  13   22.79    4.38
   3 -19  13   29.69    3.52
   3  19 -13   25.14    5.13
   3  19 -13   17.66    4.12
  -3 -19 -14   -2.24    4.41
  -3 -19 -14   -3.24    3.03
   3 -19 -14    7.16    3.84
   3 -19 -14    1.40    2.73
   3  19 -14    2.59    3.75
  -3 -19 -15    4.05    4.53
  -3 -19 -15    2.72    3.16
   3 -19 -15    4.99    3.96
   3 -19 -15    2.92    2.94
   3  19 -15    1.16    4.40
  -3 -19 -16   15.85    5.01
  -3 -19 -16   17.35    3.50
   3 -19 -16   18.85    4.46
   3 -19 -16   18.29    3.39
   3  21   0   75.05    4.77
   3  21  -1  107.16    5.13
   3  21   1  111.66    5.05
   3 -21  -2  129.04    3.87
   3 -21   2  121.27    3.89
   3  21  -2   97.92    4.99
   3  21   2  119.18    5.07
  -3 -21  -3  224.56    6.29
  -3 -21   3  222.45    4.38
  -3 -21   3  153.85    3.54
   3 -21  -3  205.17    4.35
   3 -21   3  192.54    4.51
   3  21  -3  164.61    5.60
   3  21   3  203.04    5.46
  -3 -21  -4  352.16    7.03
  -3 -21  -4  276.11    4.25
  -3 -21   4  376.21    5.23
  -3 -21   4  244.45    4.28
   3 -21  -4  286.61    4.95
   3 -21   4  290.18    5.22
   3  21  -4  259.46    6.26
  -3 -21  -5  294.95    7.02
  -3 -21  -5  219.39    4.19
  -3 -21  -5  230.94    4.52
  -3 -21   5  243.81    6.82
  -3 -21   5  319.54    5.49
  -3 -21   5  203.98    4.41
   3 -21  -5  237.38    5.10
   3 -21   5  230.44    5.30
   3  21  -5  224.32    6.23
  -3 -21  -6  137.02    6.33
  -3 -21  -6  114.58    4.05
  -3 -21  -6  120.54    4.47
  -3 -21   6  127.95    6.34
  -3 -21   6  160.38    5.06
  -3 -21   6  101.15    4.22
  -3  21  -6  136.93    5.37
  -3  21  -6  116.51    3.97
   3 -21  -6  115.66    5.01
   3 -21   6  111.27    5.05
   3  21  -6  104.96    5.74
  -3 -21  -7   88.17    6.21
  -3 -21  -7   81.30    4.17
  -3 -21  -7   83.90    4.80
  -3 -21   7   94.15    6.38
  -3 -21   7   97.29    4.98
  -3 -21   7   70.75    4.39
  -3  21  -7   86.97    5.54
  -3  21  -7   66.99    4.09
   3 -21  -7   65.78    5.09
   3 -21   7   77.94    5.23
   3  21  -7   64.67    5.54
  -3 -21  -8   91.19    6.50
  -3 -21  -8   77.83    4.38
  -3 -21  -8   86.01    5.06
  -3 -21   8   86.74    6.61
  -3 -21   8  113.37    5.39
  -3 -21   8   70.96    4.55
  -3  21  -8   91.13    5.76
  -3  21  -8   67.79    4.52
   3 -21  -8   73.30    5.29
   3 -21   8   74.39    5.48
   3  21  -8   75.35    6.00
  -3 -21  -9   65.76    6.60
  -3 -21  -9   49.21    4.54
  -3 -21   9   48.21    4.68
  -3 -21   9   47.42    4.74
  -3  21  -9   52.62    6.00
  -3  21  -9   41.14    4.95
   3 -21  -9   55.69    5.56
   3 -21   9   42.56    3.95
   3  21  -9   40.38    3.90
  -3 -21 -10   30.43    4.38
  -3 -21 -10   23.15    2.90
  -3 -21  10   22.10    4.34
  -3 -21  10   21.12    3.20
  -3  21 -10   16.29    3.95
  -3  21 -10   13.04    3.24
   3 -21 -10   23.99    3.74
   3 -21  10   13.41    3.79
   3  21 -10   24.53    3.89
  -3 -21 -11   24.57    4.43
  -3 -21 -11   10.56    2.84
  -3 -21  11   19.37    4.38
  -3 -21  11   12.69    3.23
  -3  21 -11    6.08    4.14
  -3  21 -11    4.69    3.50
   3 -21 -11   13.48    3.66
   3 -21  11    8.25    3.93
   3  21 -11   25.21    4.87
   3  21 -11   17.83    3.85
  -3 -21 -12   33.79    4.67
  -3 -21 -12   27.04    3.15
  -3 -21  12   30.85    4.30
  -3  21 -12   30.66    4.72
  -3  21 -12   21.33    3.78
   3 -21 -12   34.37    4.12
   3 -21  12   25.64    4.43
   3 -21  12   35.99    3.27
   3  21 -12   41.49    5.47
   3  21 -12   30.69    4.12
  -3 -21 -13   91.13    7.58
  -3 -21 -13   78.51    5.40
   3 -21 -13   80.77    6.65
   3 -21  13  105.37    5.66
   3  21 -13   85.64    7.12
  -3 -21 -14   89.58    7.64
  -3 -21 -14   82.40    5.58
   3 -21 -14   88.22    7.08
   3 -21 -14   79.92    4.75
  -3 -21 -15   32.78    5.12
  -3 -21 -15   27.58    3.53
   3 -21 -15   28.49    4.43
   3 -21 -15   30.61    3.15
   3  23   0    1.23    2.89
   3 -23  -1    6.72    2.22
   3 -23   1    6.46    2.29
   3  23  -1    4.26    2.95
   3  23   1    3.19    2.92
   3 -23  -2   50.24    3.90
   3 -23   2   57.68    3.92
   3  23  -2   46.39    5.22
   3  23   2   43.38    5.26
  -3 -23  -3   91.87    5.86
   3 -23  -3   82.13    4.20
   3 -23   3   83.11    4.34
   3  23  -3   64.49    5.36
   3  23   3   68.63    5.24
  -3 -23  -4   41.42    4.03
   3 -23  -4   25.08    2.68
   3 -23   4   24.80    2.77
   3  23  -4   20.91    3.36
  -3 -23  -5    2.39    3.37
  -3 -23   5    0.20    3.49
  -3 -23   5   -0.26    2.45
  -3 -23   5    0.00    2.03
   3 -23  -5    0.87    2.59
   3 -23   5    1.18    2.66
   3  23  -5    1.22    3.10
  -3 -23  -6    9.87    3.62
  -3 -23  -6    9.55    2.34
  -3 -23   6    8.49    3.66
  -3 -23   6   10.48    2.78
  -3 -23   6    7.87    2.25
  -3  23  -6    7.91    2.16
   3 -23  -6    3.80    2.74
   3 -23   6   10.84    2.99
   3  23  -6    3.27    3.22
  -3 -23  -7   27.68    4.10
  -3 -23  -7   17.29    2.24
  -3 -23  -7   22.35    2.72
  -3 -23   7   19.70    4.07
  -3 -23   7   30.40    3.03
  -3 -23   7   17.74    2.59
  -3  23  -7   25.94    3.55
  -3  23  -7   13.96    2.48
   3 -23  -7   17.11    3.13
   3 -23   7   16.13    3.36
   3  23  -7   12.43    3.52
  -3 -23  -8    7.11    3.86
  -3 -23  -8    6.79    2.32
  -3 -23  -8    6.63    2.86
  -3 -23   8    3.72    3.87
  -3 -23   8    8.32    2.95
  -3 -23   8    3.62    2.55
  -3  23  -8    4.05    3.37
  -3  23  -8    2.12    2.60
   3 -23  -8    9.39    3.30
   3 -23   8    9.07    3.33
   3  23  -8    2.69    3.46
  -3 -23  -9   -4.99    3.80
  -3 -23  -9   -2.65    2.33
  -3 -23  -9   -1.86    2.97
  -3 -23   9    1.13    4.10
  -3 -23   9   -1.05    2.92
  -3 -23   9   -3.00    2.63
  -3  23  -9   -5.95    3.55
  -3  23  -9   -4.52    2.83
   3 -23  -9   -6.30    3.15
   3 -23   9   -6.77    3.41
   3  23  -9   -5.00    3.41
  -3 -23 -10   -2.27    3.80
  -3 -23 -10   -2.86    2.45
  -3 -23 -10   -0.69    3.16
  -3 -23  10   -2.94    4.11
  -3 -23  10   -0.09    3.15
  -3 -23  10   -2.38    2.78
  -3  23 -10   -9.34    3.71
  -3  23 -10   -7.63    3.08
   3 -23 -10   -2.21    3.30
   3 -23  10   -4.30    3.66
   3  23 -10    2.30    3.69
  -3 -23 -11   -5.54    3.80
  -3 -23 -11    1.58    2.66
  -3 -23  11   -0.81    3.15
  -3  23 -11  -10.76    3.91
   3 -23 -11    0.72    3.40
   3 -23  11   -2.67    3.80
   3  23 -11    0.66    3.63
  -3 -23 -12   -5.30    3.92
  -3 -23 -12   -0.23    2.63
   3 -23 -12   -3.23    3.60
  -3 -23 -13   -4.06    4.03
  -3 -23 -13   -0.33    2.77
   3 -23 -13   -3.33    3.71
   3 -23  13   -0.89    2.82
   3  25   0   86.21    5.54
   3 -25  -1   43.03    4.11
   3 -25   1   55.06    4.12
   3  25  -1   45.57    3.66
   3  25   1   43.44    3.64
   3 -25  -2   51.00    4.17
   3 -25   2   47.51    4.22
   3  25  -2   42.52    3.66
   3  25   2   46.88    3.81
  -3 -25  -3   80.26    6.00
   3 -25  -3   68.01    4.43
   3 -25   3   79.41    4.59
   3  25  -3   67.10    5.62
   3  25   3   64.78    5.75
  -3 -25  -4   28.67    4.04
   3 -25  -4   19.30    2.87
   3 -25   4   23.91    3.01
   3  25  -4   24.26    3.59
   3  25   4   23.08    3.66
  -3 -25  -5   -1.36    3.50
  -3 -25   5    0.31    3.58
   3 -25  -5   -4.85    2.71
   3 -25   5    0.42    2.82
   3  25  -5   -1.67    3.24
  -3 -25  -6   -0.87    3.57
  -3 -25   6   -2.36    3.54
  -3  25  -6    1.44    2.18
   3 -25   6   -0.90    2.98
   3  25  -6    1.73    3.41
  -3 -25  -7    5.26    3.82
  -3 -25   7    3.53    3.93
  -3 -25   7    7.82    2.83
  -3 -25   7    3.91    2.32
  -3  25  -7    2.01    2.52
   3 -25  -7    0.29    3.05
   3 -25   7    4.48    3.28
   3  25  -7    3.37    3.56
  -3 -25  -8   38.75    4.42
  -3 -25  -8   30.66    3.65
  -3 -25  -8   35.41    4.38
  -3 -25   8   32.28    4.61
  -3 -25   8   39.41    4.81
  -3 -25   8   24.09    2.80
  -3  25  -8   37.60    4.19
  -3  25  -8   28.57    3.13
   3 -25  -8   29.04    3.68
   3 -25   8   29.84    3.88
   3  25  -8   25.71    4.10
  -3 -25  -9   77.76    6.94
  -3 -25  -9   69.63    4.09
  -3 -25  -9   78.39    5.02
  -3 -25   9   91.39    5.26
  -3 -25   9   70.71    4.95
  -3  25  -9   78.94    6.78
  -3  25  -9   70.27    5.43
   3 -25  -9   75.63    5.88
   3 -25   9   79.51    6.28
   3  25  -9   68.19    7.43
  -3 -25 -10   61.54    7.08
  -3 -25 -10   51.50    4.24
  -3 -25 -10   63.32    5.30
  -3 -25  10   85.85    5.58
  -3 -25  10   54.75    5.15
  -3  25 -10   72.84    6.95
   3 -25 -10   58.94    5.95
   3 -25  10   55.36    6.27
  -3 -25 -11   22.46    4.45
  -3 -25 -11   21.81    2.78
  -3 -25  11   34.19    3.64
   3 -25 -11   23.28    3.88
  -3 -25 -12   21.82    4.54
  -3 -25 -12   20.36    2.91
   3 -25 -12   14.23    3.92
   3  27   0  221.88    6.72
   3 -27  -1  322.46    5.62
   3 -27   1  342.52    5.70
   3  27  -1  311.76    7.11
   3  27   1  314.02    7.22
   3 -27  -2  254.32    5.42
   3 -27   2  279.43    5.55
   3  27  -2  268.45    7.13
   3  27   2  270.19    7.18
  -3 -27  -3   47.29    4.23
   3 -27  -3   36.55    3.16
   3 -27   3   48.49    4.79
   3  27  -3   51.07    6.14
   3  27   3   46.23    4.16
  -3 -27  -4   -1.36    3.70
   3 -27   4   -0.88    2.87
   3  27  -4    1.29    3.61
   3  27   4   -2.25    3.47
  -3 -27  -5    0.53    3.60
  -3 -27   5   -3.11    3.74
   3 -27  -5   -7.64    2.80
   3 -27   5   -2.80    3.01
   3  27  -5   -2.80    3.52
  -3 -27  -6   46.85    4.38
  -3 -27   6   39.98    4.53
  -3  27  -6   25.75    2.65
   3 -27  -6   29.32    3.37
   3 -27   6   31.35    3.53
   3  27  -6   28.47    4.06
  -3 -27  -7  101.59    6.90
  -3  27  -7   81.12    4.80
   3 -27  -7   90.37    5.58
   3 -27   7   85.60    5.89
  -3 -27  -8   84.46    6.83
  -3 -27   8  104.07    4.91
  -3  27  -8   73.12    5.16
   3 -27  -8   80.61    5.83
   3 -27   8   80.88    6.19
  -3 -27  -9   46.39    4.66
  -3 -27   9   42.05    4.96
  -3 -27   9   32.94    3.02
   3 -27  -9   42.02    3.98
  -3 -27 -10   46.46    4.81
  -3 -27 -10   41.14    3.89
  -3 -27  10   53.18    3.67
   3 -27 -10   57.72    6.05
   3  29   0  265.54    7.30
   3 -29  -1   76.20    4.81
   3 -29   1  107.97    4.92
   3  29  -1   96.42    6.24
   3  29   1  105.00    6.52
  -3 -29  -2    6.20    3.63
   3 -29  -2   -7.17    2.71
   3 -29   2    6.63    2.85
   3  29  -2    9.78    3.76
   3  29   2    0.39    3.63
  -3 -29  -3    4.07    3.65
   3 -29  -3   -1.52    2.68
   3 -29   3    4.50    2.94
  -3 -29  -4   32.86    4.11
   3 -29  -4   23.36    3.04
   3 -29   4   20.65    3.26
  -3 -29  -5   32.48    4.25
   3 -29  -5   28.46    3.26
   3 -29   5   23.41    3.48
  -3 -29  -6    8.74    3.93
  -3  29  -6    4.49    2.55
   3 -29  -6    5.27    2.93
   3 -29   6    4.18    3.23
  -3 -29  -7    1.07    3.75
   3 -29  -7   -1.78    3.05
   3 -29   7   -2.32    3.35
  -3 -29  -8    0.64    3.84
   3 -29  -8   -1.96    3.27
   3 -31   0   33.42    3.15
   3 -31  -1   10.92    2.87
   3 -31   1   10.13    2.95
  -3 -31  -2    1.61    3.67
   3 -31  -2   -6.04    2.70
   3 -31   2   -5.30    2.78
  -3 -31  -3   -0.94    3.60
   3 -31  -3   -1.09    2.78
   3 -31   3   -0.38    2.95
  -3 -31  -4    1.05    3.68
   3 -31  -4    2.68    2.85
   3 -31   4   -5.32    3.08
  -3 -31  -5    5.78    3.86
   3 -31  -5    4.59    2.95
   3 -31   5   -0.90    3.16
  -4   0  -1   40.97    2.03
  -4   0  -2  438.01    4.16
  -4   0   2  368.12    3.52
   4   0   2  423.40    4.09
  -4   0  -6  240.04    5.26
  -4   0  -6  261.08    5.11
  -4   0   6  219.79    5.03
  -4   0   6  222.04    4.48
   4   0  -6  240.73    5.16
   4   0  -6  221.45    4.50
   4   0   6  233.40    5.13
   4   0   6  272.45    5.13
  -4   0  -7    1.14    2.37
  -4   0  -7    2.30    2.31
  -4   0   7    3.06    2.27
  -4   0   7   -0.58    2.00
   4   0  -7    1.55    2.32
   4   0  -7    3.75    2.07
   4   0   7   -0.29    2.51
   4   0   7    1.12    2.22
  -4   0  -8    6.91    2.61
  -4   0  -8    5.71    2.41
  -4   0   8    5.18    2.37
  -4   0   8    2.62    2.06
   4   0  -8    5.73    2.55
   4   0  -8    5.45    2.18
   4   0   8    2.17    2.41
   4   0   8    4.08    2.28
  -4   0  -9  112.10    5.41
  -4   0  -9  121.67    5.08
  -4   0   9  101.94    5.04
  -4   0   9  106.16    4.59
   4   0  -9  121.69    5.35
   4   0  -9   97.72    4.63
   4   0   9  112.75    5.16
   4   0   9  133.53    5.09
  -4   0 -10   25.06    3.34
  -4   0 -10   26.47    3.09
  -4   0  10   24.64    3.36
  -4   0  10   20.94    2.82
   4   0 -10   23.61    3.45
   4   0 -10   20.56    2.83
   4   0  10   30.82    3.49
   4   0  10   34.61    3.17
  -4   0 -11   42.99    4.01
  -4   0 -11   36.68    3.52
  -4   0  11   30.60    3.53
  -4   0  11   29.54    3.02
   4   0 -11   33.30    3.84
   4   0 -11   30.41    3.15
   4   0  11   33.83    3.75
   4   0  11   41.05    3.52
  -4   0 -12  195.92    7.19
  -4   0 -12  195.05    6.52
  -4   0  12  183.68    6.44
  -4   0  12  179.87    5.82
   4   0 -12  193.16    7.03
   4   0 -12  193.97    6.10
   4   0  12  209.02    7.08
   4   0  12  232.09    6.74
  -4   0 -13  198.98    7.80
  -4   0 -13  189.93    6.89
  -4   0  13  186.87    6.90
  -4   0  13  185.62    6.16
   4   0 -13  198.07    7.49
   4   0 -13  176.64    6.42
   4   0  13  197.84    7.42
   4   0  13  226.85    7.13
  -4   0 -14   25.64    4.39
  -4   0 -14   26.28    3.87
  -4   0  14   21.45    3.84
  -4   0  14   21.09    3.30
   4   0 -14   25.36    4.43
   4   0 -14   25.98    3.63
   4   0  14   27.74    4.49
   4   0  14   29.05    3.86
  -4   0 -15   44.69    5.25
  -4   0 -15   38.14    4.15
  -4   0  15   38.74    4.41
  -4   0  15   33.11    3.73
   4   0 -15   39.13    4.77
   4   0 -15   36.83    4.04
   4   0  15   51.33    5.06
   4   0  15   44.56    4.30
  -4   0 -16   25.51    4.71
  -4   0 -16   16.62    3.86
  -4   0  16   27.48    4.71
  -4   0  16   20.36    3.80
   4   0 -16   19.08    4.87
   4   0 -16   22.37    3.99
   4   0  16   33.24    4.92
   4   0  16   26.82    4.41
  -4   0 -17   98.77    8.64
  -4   0 -17   82.22    7.27
  -4   0  17   89.46    7.60
  -4   0  17   83.58    8.16
   4   0 -17   92.04    8.58
   4   0 -17   86.98    7.01
   4   0  17  102.92    8.58
   4   0  17  109.49    7.84
  -4   0 -18   34.80    5.51
  -4   0 -18   22.28    4.44
  -4   0  18   34.73    8.85
   4   0 -18   23.20    5.27
   4   0 -18   27.48    4.36
   4   0  18   36.89    5.62
   4   0  18   24.77    4.71
  -4   0 -19   46.48    5.85
  -4   0 -19   39.52    4.64
   4   0 -19   41.29    5.65
   4   0 -19   40.60    4.54
   4   0  19   42.23    5.86
   4   0  19   42.42    5.15
  -4  -2  -1   65.08    2.49
  -4  -2   1   52.28    2.57
  -4   2  -1   61.37    2.22
   4   2  -1   51.67    2.44
   4   2   1   63.20    2.49
  -4  -2  -2   93.64    3.17
  -4  -2  -2  110.11    3.24
  -4  -2   2   79.32    3.05
  -4   2  -2   91.68    2.82
  -4   2  -2  103.60    2.46
  -4   2   2   80.36    2.66
  -4   2   2    4.49    0.64
   4  -2   2   85.93    2.73
   4  -2   2   94.25    2.31
   4   2  -2   77.76    3.00
   4   2   2   88.67    3.18
   4   2   2  103.15    3.11
  -4  -2  -3   27.90    2.41
  -4  -2  -3   28.62    2.29
  -4  -2   3   24.75    2.23
  -4  -2   3   21.84    2.01
  -4   2  -3   24.43    2.20
  -4   2  -3   26.62    3.02
  -4   2   3   19.64    1.95
  -4   2   3   19.91    1.56
   4  -2  -3   24.39    2.00
   4  -2  -3   26.45    2.81
   4  -2   3   20.53    2.01
   4  -2   3   22.54    2.69
   4   2  -3   21.91    2.09
   4   2   3   27.68    2.28
   4   2   3   32.80    2.36
  -4  -2  -4   26.42    2.56
  -4  -2  -4   26.02    2.50
  -4  -2   4   29.40    2.52
  -4  -2   4   22.85    2.31
  -4   2   4   29.68    3.42
  -4   2   4   26.62    3.29
   4  -2  -4   22.72    2.32
   4  -2  -4   21.49    2.03
   4  -2   4   22.92    2.22
   4  -2   4   25.06    2.17
   4   2  -4   27.76    2.64
   4   2  -4   19.06    2.22
   4   2   4   22.43    2.52
   4   2   4   31.22    3.70
  -4  -2  -5  221.63    5.17
  -4  -2  -5  278.57    5.13
  -4  -2   5  215.67    4.93
  -4  -2   5  212.59    4.56
  -4   2  -5  205.34    4.80
  -4   2  -5  264.61    4.74
  -4   2   5  216.73    4.55
  -4   2   5  209.35    3.98
   4  -2  -5  211.68    4.61
   4  -2  -5  214.94    4.11
   4  -2   5  208.88    4.71
   4  -2   5  261.84    4.49
   4   2  -5  241.53    5.05
   4   2  -5  221.62    4.69
   4   2   5  217.61    4.97
   4   2   5  267.57    4.95
  -4  -2  -6  299.46    5.56
  -4  -2  -6  330.20    5.45
  -4  -2   6  281.37    5.33
  -4  -2   6  275.61    4.92
  -4   2  -6  266.12    5.34
  -4   2  -6  328.42    5.26
  -4   2   6  270.07    5.10
  -4   2   6  272.91    4.71
   4  -2  -6  282.05    5.17
   4  -2  -6  266.50    4.60
   4  -2   6  272.92    5.25
   4  -2   6  356.52    5.13
   4   2  -6  304.74    5.55
   4   2  -6  277.52    5.00
   4   2   6  297.73    5.57
   4   2   6  345.35    5.34
  -4  -2  -7  287.96    5.83
  -4  -2  -7  318.56    5.53
  -4  -2   7  292.92    5.69
  -4  -2   7  266.98    5.02
  -4   2  -7  277.88    5.69
  -4   2  -7  325.57    5.42
  -4   2   7  275.65    5.30
  -4   2   7  272.90    4.88
   4  -2  -7  280.32    5.42
   4  -2  -7  279.33    4.78
   4  -2   7  274.96    5.44
   4  -2   7  355.26    5.48
   4   2  -7  297.94    5.83
   4   2  -7  279.68    5.26
   4   2   7  299.00    5.74
   4   2   7  354.83    5.62
  -4  -2  -8  196.73    5.58
  -4  -2  -8  211.64    5.20
  -4  -2   8  186.13    5.27
  -4  -2   8  172.31    4.72
  -4   2  -8  180.64    5.34
  -4   2  -8  214.19    5.25
  -4   2   8  172.18    4.99
  -4   2   8  182.28    4.54
   4  -2  -8  192.00    5.31
   4  -2  -8  184.96    4.57
   4  -2   8  189.68    5.29
   4  -2   8  217.49    5.05
   4   2  -8  194.41    5.53
   4   2  -8  186.40    4.92
   4   2   8  211.57    5.50
   4   2   8  231.95    5.30
  -4  -2  -9   15.03    3.18
  -4  -2  -9   11.66    2.72
  -4  -2   9   12.76    2.82
  -4  -2   9   11.72    2.43
  -4   2  -9   14.64    3.20
  -4   2  -9   12.51    2.74
  -4   2   9   13.18    2.71
  -4   2   9   13.82    2.45
   4  -2  -9   12.80    2.76
   4  -2  -9   10.49    2.36
   4  -2   9   11.39    2.90
   4  -2   9   13.49    2.70
   4   2  -9    8.53    2.98
   4   2  -9   10.89    2.46
   4   2   9   13.48    2.92
   4   2   9   15.69    2.77
  -4  -2 -10   15.74    3.35
  -4  -2 -10   15.94    2.97
  -4  -2  10    8.47    2.96
  -4  -2  10    4.79    2.58
  -4   2 -10   13.93    3.32
  -4   2 -10   13.22    2.93
  -4   2  10   15.64    2.89
  -4   2  10   10.90    2.51
   4  -2 -10    9.18    3.02
   4  -2 -10   13.41    2.67
   4  -2  10   11.78    3.08
   4  -2  10   16.09    2.85
   4   2 -10    6.46    3.10
   4   2 -10    6.80    2.72
   4   2  10   12.06    3.19
   4   2  10   16.32    2.94
  -4  -2 -11    7.09    3.28
  -4  -2 -11    4.62    2.92
  -4  -2  11   -0.53    2.98
  -4  -2  11    1.68    2.56
  -4   2 -11   11.32    3.46
  -4   2 -11    7.12    2.97
  -4   2  11    4.76    2.97
  -4   2  11    8.66    2.55
   4  -2 -11    6.05    3.19
   4  -2 -11    5.84    2.68
   4  -2  11    7.41    3.14
   4  -2  11   13.13    3.06
   4   2 -11    2.26    3.30
   4   2 -11    3.57    2.88
   4   2  11    4.73    3.33
   4   2  11    5.07    2.92
  -4  -2 -12    1.16    3.49
  -4  -2 -12   -2.75    3.06
  -4  -2  12    4.00    3.20
  -4  -2  12    1.52    2.65
  -4   2 -12    4.11    3.60
  -4   2 -12    2.05    2.92
  -4   2  12    4.43    3.13
  -4   2  12    5.25    2.70
   4  -2 -12    2.14    3.40
   4  -2 -12    2.49    2.71
   4  -2  12    3.97    3.31
   4  -2  12    7.52    3.10
   4   2 -12   -2.47    3.49
   4   2 -12    1.69    2.93
   4   2  12    0.93    3.41
   4   2  12    1.70    3.07
  -4  -2 -13   -8.45    3.71
  -4  -2 -13    0.47    3.21
  -4  -2  13    6.72    3.35
  -4  -2  13    3.71    2.92
  -4   2 -13    5.84    3.88
  -4   2 -13    2.43    3.20
  -4   2  13    3.11    3.40
  -4   2  13    2.89    2.68
   4  -2 -13    9.17    3.77
   4  -2 -13    8.28    3.07
   4  -2  13    2.39    3.55
   4  -2  13    5.81    3.29
   4   2 -13    0.68    3.74
   4   2 -13    0.51    2.97
   4   2  13    2.18    3.87
   4   2  13   -0.66    3.29
  -4  -2 -14   40.24    4.64
  -4  -2 -14   32.47    4.06
  -4  -2  14   27.35    4.17
  -4  -2  14   33.97    3.68
  -4   2 -14   46.44    4.83
  -4   2 -14   37.50    3.92
  -4   2  14   41.81    4.25
  -4   2  14   40.30    3.83
   4  -2 -14   44.41    4.53
   4  -2 -14   33.41    3.65
   4  -2  14   46.55    4.74
   4  -2  14   42.24    4.09
   4   2 -14   39.73    4.69
   4   2 -14   31.03    3.77
   4   2  14   40.01    4.73
   4   2  14   38.80    4.15
  -4  -2 -15   10.13    4.48
  -4  -2 -15    6.97    3.77
  -4  -2  15    5.95    3.88
  -4  -2  15   13.27    3.45
  -4   2 -15    9.23    4.14
  -4   2 -15    9.76    3.52
  -4   2  15    8.88    3.89
  -4   2  15    6.97    3.32
   4  -2 -15    7.14    4.37
   4  -2 -15    5.14    3.33
   4  -2  15   11.57    4.24
   4  -2  15   16.03    3.78
   4   2 -15    9.29    4.34
   4   2 -15    7.73    3.44
   4   2  15    8.12    4.33
   4   2  15    9.80    3.98
  -4  -2 -16   38.46    5.07
  -4  -2 -16   28.43    4.18
  -4  -2  16   34.52    4.48
  -4  -2  16   34.41    4.04
  -4   2 -16   35.95    5.14
  -4   2 -16   29.78    4.27
  -4   2  16   28.59    4.64
   4  -2 -16   28.39    5.04
   4  -2 -16   26.98    4.09
   4  -2  16   36.63    5.05
   4  -2  16   43.71    4.66
   4   2 -16   37.05    5.08
   4   2 -16   34.50    4.18
   4   2  16   43.10    5.01
   4   2  16   41.00    4.59
  -4  -2 -17   12.12    4.94
  -4  -2 -17   11.48    3.89
  -4  -2  17    7.75    4.25
  -4  -2  17    8.11    3.66
  -4   2 -17    5.68    4.71
  -4   2 -17    6.80    3.96
   4  -2 -17    0.92    4.75
   4  -2 -17   -3.84    3.73
   4  -2  17    7.40    4.79
   4  -2  17    7.64    4.18
   4   2 -17   11.80    4.84
   4   2 -17   11.72    3.99
   4   2  17    7.54    4.77
   4   2  17   10.93    4.21
  -4  -2 -18   74.41    8.71
  -4  -2 -18   45.67    4.80
  -4  -2  18   60.42    7.50
  -4  -2  18   62.55    6.81
  -4   2 -18   48.53    6.00
  -4   2 -18   41.13    4.67
   4  -2 -18   33.34    5.46
   4  -2 -18   40.29    4.54
   4  -2  18   53.43    5.83
   4  -2  18   55.00    5.28
   4   2 -18   52.35    5.61
   4   2 -18   67.59    6.99
   4   2  18   65.60    6.33
   4   2  18   72.52    7.89
  -4  -2 -19   20.85    5.21
  -4  -2 -19   12.22    4.02
  -4  -2  19   23.87    5.01
  -4   2 -19   12.88    5.44
  -4   2 -19   13.95    4.31
   4  -2 -19    4.62    5.02
   4  -2 -19   12.29    4.30
   4  -2  19    8.97    5.33
   4  -2  19   14.14    5.10
   4   2 -19   22.78    5.19
   4   2 -19   19.44    4.15
   4   2  19   19.18    5.50
   4   2  19   22.00    4.87
  -4  -4  -1   93.82    3.29
  -4  -4   1   66.23    3.17
  -4   4  -1   83.89    2.32
   4   4  -1   67.33    3.32
   4   4   1   90.57    3.17
  -4   4   2    0.75    0.17
  -4  -4  -4  346.74    5.51
  -4  -4  -4  414.84    5.49
  -4  -4   4  347.50    5.34
  -4  -4   4  318.20    4.80
  -4   4  -4  320.84    4.59
  -4   4  -4  453.02    4.53
  -4   4   4  308.64    4.33
   4  -4  -4  319.72    4.44
   4  -4   4  316.60    4.56
   4   4  -4  365.80    5.67
   4   4  -4  334.64    5.11
   4   4   4  363.50    5.48
   4   4   4  408.64    5.21
  -4  -4  -5    9.52    2.64
  -4  -4  -5   11.08    2.34
  -4  -4   5    7.48    2.44
  -4  -4   5    5.28    2.13
  -4   4  -5   11.19    2.34
  -4   4  -5   14.06    2.10
  -4   4   5    7.08    2.11
  -4   4   5    7.83    1.85
   4  -4  -5    6.59    2.03
   4  -4  -5   10.20    1.85
   4  -4   5   10.29    2.29
   4  -4   5   10.77    1.98
   4   4  -5    6.50    2.48
   4   4  -5    9.15    2.24
   4   4   5   10.80    2.43
   4   4   5   13.01    2.34
  -4  -4  -6   24.86    2.75
  -4  -4  -6   28.43    2.54
  -4  -4   6   23.14    2.68
  -4  -4   6   22.87    2.36
  -4   4  -6   21.62    2.53
  -4   4  -6   24.02    2.38
  -4   4   6   19.42    2.37
  -4   4   6   16.63    2.07
   4  -4  -6   20.97    2.41
   4  -4  -6   19.79    2.08
   4  -4   6   22.38    2.42
   4  -4   6   29.88    2.38
   4   4  -6   24.80    2.84
   4   4  -6   22.94    2.43
   4   4   6   28.31    2.84
   4   4   6   28.48    2.52
  -4  -4  -7    1.80    2.50
  -4  -4  -7    3.04    2.33
  -4  -4   7    2.28    2.36
  -4  -4   7    4.91    2.11
  -4   4  -7   -0.89    2.32
  -4   4  -7    2.08    2.19
  -4   4   7    0.57    2.18
  -4   4   7   -1.07    1.91
   4  -4  -7   -0.77    2.25
   4  -4  -7    0.63    1.99
   4  -4   7    1.40    2.32
   4  -4   7   -0.56    2.08
   4   4  -7    1.16    2.52
   4   4  -7    3.92    2.23
   4   4   7    2.73    2.46
   4   4   7    4.25    2.33
  -4  -4  -8   11.17    2.77
  -4  -4  -8    8.80    2.42
  -4  -4   8    5.94    2.66
  -4  -4   8    7.31    2.28
  -4   4  -8    6.55    2.61
  -4   4  -8    8.72    2.44
  -4   4   8    5.27    2.38
  -4   4   8    7.71    2.14
   4  -4  -8    5.30    2.56
   4  -4  -8    5.75    2.11
   4  -4   8    2.97    2.51
   4  -4   8    7.69    2.38
   4   4  -8   12.22    2.98
   4   4  -8    5.36    2.35
   4   4   8   10.37    2.68
   4   4   8    9.64    2.43
  -4  -4  -9   95.27    5.43
  -4  -4  -9   91.43    4.94
  -4  -4   9   74.44    5.15
  -4  -4   9   69.70    4.52
  -4   4  -9   71.51    5.28
  -4   4  -9   76.63    4.92
  -4   4   9   71.24    4.58
  -4   4   9   77.10    4.20
   4  -4  -9   77.42    5.02
   4  -4  -9   72.62    4.24
   4  -4   9   70.79    5.09
   4  -4   9   94.39    4.89
   4   4  -9   78.32    5.36
   4   4  -9   69.42    4.71
   4   4   9   84.52    5.19
   4   4   9  103.74    5.04
  -4  -4 -10   30.25    3.74
  -4  -4 -10   31.43    3.17
  -4  -4  10   20.61    3.24
  -4  -4  10   21.74    2.82
  -4   4 -10   22.45    3.41
  -4   4 -10   23.99    3.08
  -4   4  10   27.55    3.20
  -4   4  10   25.76    2.69
   4  -4 -10   25.97    3.44
   4  -4 -10   26.08    2.77
   4  -4  10   27.53    3.39
   4  -4  10   26.89    3.10
   4   4 -10   28.25    3.64
   4   4 -10   24.09    3.06
   4   4  10   30.69    3.58
   4   4  10   33.38    3.28
  -4  -4 -11  215.71    7.19
  -4  -4 -11  224.42    6.35
  -4  -4  11  204.61    6.61
  -4  -4  11  180.64    5.67
  -4   4 -11  223.32    6.91
  -4   4 -11  236.34    6.49
  -4   4  11  202.81    6.16
  -4   4  11  200.97    5.41
   4  -4 -11  210.26    6.49
   4  -4 -11  215.16    5.58
   4  -4  11  221.41    6.71
   4  -4  11  267.28    6.41
   4   4 -11  216.98    7.02
   4   4 -11  197.10    6.10
   4   4  11  233.86    7.06
   4   4  11  249.88    6.58
  -4  -4 -12  115.56    6.72
  -4  -4 -12  117.59    6.24
  -4  -4  12  130.48    6.46
  -4  -4  12  117.60    5.40
  -4   4 -12  124.18    6.70
  -4   4 -12  122.63    6.02
  -4   4  12  127.16    6.05
  -4   4  12  120.81    5.19
   4  -4 -12  136.24    6.58
   4  -4 -12  121.94    5.46
   4  -4  12  125.44    6.52
   4  -4  12  144.66    6.19
   4   4 -12  127.05    6.92
   4   4 -12  108.22    5.77
   4   4  12  130.84    6.82
   4   4  12  117.25    6.27
  -4  -4 -13   68.10    5.01
  -4  -4 -13   53.31    4.30
  -4  -4  13   56.79    6.18
  -4  -4  13   49.70    5.21
  -4   4 -13   64.85    6.62
  -4   4 -13   68.55    6.09
  -4   4  13   67.02    6.06
  -4   4  13   64.20    5.01
   4  -4 -13   65.82    6.38
   4  -4 -13   66.44    5.43
   4  -4  13   68.22    6.55
   4  -4  13   80.68    6.06
   4   4 -13   66.04    6.83
   4   4 -13   59.72    5.78
   4   4  13   75.20    5.36
   4   4  13   55.64    6.36
  -4  -4 -14   41.18    4.93
  -4  -4 -14   40.27    4.11
  -4  -4  14   43.04    4.43
  -4  -4  14   44.05    5.38
  -4   4 -14   42.63    4.64
  -4   4 -14   43.49    4.10
  -4   4  14   50.20    6.27
  -4   4  14   39.60    3.77
   4  -4 -14   46.85    4.72
   4  -4 -14   49.79    5.74
   4  -4  14   44.90    4.72
   4  -4  14   50.81    4.30
   4   4 -14   44.91    4.79
   4   4 -14   41.70    4.09
   4   4  14   45.01    4.82
   4   4  14   43.34    4.36
  -4  -4 -15   -4.78    4.08
  -4  -4 -15   -5.79    3.49
  -4  -4  15    2.17    3.71
  -4  -4  15    0.45    3.19
  -4   4 -15   -3.30    4.09
  -4   4 -15   -4.38    3.45
  -4   4  15   -2.41    3.65
   4  -4 -15   -3.84    3.98
   4  -4 -15    1.27    3.24
   4  -4  15   -5.06    3.85
   4  -4  15   -2.46    3.51
   4   4 -15   -4.44    3.94
   4   4 -15    3.13    3.36
   4   4  15   -4.72    3.98
   4   4  15   -5.41    3.53
  -4  -4 -16   -2.80    4.37
  -4  -4 -16   -1.91    3.42
  -4  -4  16    0.13    3.95
  -4  -4  16   -1.68    3.21
  -4   4 -16   -4.13    4.08
  -4   4 -16   -6.23    3.58
   4  -4 -16   -4.59    4.19
   4  -4 -16   -6.20    3.41
   4  -4  16   -1.42    4.20
   4  -4  16    2.61    3.93
   4   4 -16   -1.24    4.44
   4   4 -16   -0.44    3.48
   4   4  16    0.43    4.46
   4   4  16    2.09    3.79
  -4  -4 -17    9.15    4.73
  -4  -4 -17    2.31    3.73
  -4  -4  17    6.37    4.22
  -4  -4  17   10.14    3.61
  -4   4 -17    9.22    5.00
  -4   4 -17    0.73    4.05
   4  -4 -17   -7.75    4.42
   4  -4 -17    2.20    3.86
   4  -4  17   -0.46    4.53
   4  -4  17    1.26    4.16
   4   4 -17   13.56    4.83
   4   4 -17    4.16    3.73
   4   4  17   10.67    4.79
   4   4  17    7.06    4.19
  -4  -4 -18   -0.20    4.62
  -4  -4 -18   -0.80    3.74
  -4  -4  18    2.79    4.40
  -4  -4  18    0.80    3.60
  -4   4 -18   -5.53    4.62
  -4   4 -18   -6.72    3.87
   4  -4  18   -2.23    4.64
   4  -4  18   -4.76    4.11
   4   4 -18    8.32    4.95
   4   4 -18    4.84    3.77
   4   4  18    4.63    4.88
   4   4  18    3.64    4.25
  -4  -4 -19   -5.94    4.74
  -4  -4 -19    2.46    3.73
  -4  -4  19    3.74    4.36
  -4  -4  19    0.55    3.86
  -4   4 -19   -6.32    4.71
  -4   4 -19   -2.47    3.97
   4   4 -19    3.80    4.96
   4   4 -19    2.30    3.90
   4   4  19   -6.24    4.75
   4   4  19    5.98    5.84
  -4  -6  -1  276.40    4.50
  -4  -6   1  255.89    4.28
  -4  -6   1  227.95    4.36
  -4   6  -1  211.96    2.58
   4  -6   1  230.47    2.53
   4   6  -1  236.55    4.58
   4   6   1  278.04    4.42
  -4  -6  -2  231.27    4.66
  -4  -6  -2  227.88    4.57
  -4  -6   2  183.79    4.32
  -4   6  -2  167.93    2.94
  -4   6   2  175.61    2.85
   4  -6  -2  177.38    2.79
   4  -6   2  168.12    2.96
   4   6  -2  190.46    4.36
   4   6   2  237.22    4.49
  -4  -6  -3  241.33    4.97
  -4  -6  -3  261.45    4.76
  -4  -6   3  184.70    4.47
  -4   6  -3  184.86    3.50
  -4   6  -3  265.41    2.80
  -4   6   3   36.18    1.82
   4  -6  -3  197.34    3.42
   4  -6   3  185.64    3.45
   4   6  -3  202.60    4.58
   4   6   3  235.40    4.88
   4   6   3  250.49    4.68
  -4  -6  -4  109.50    4.56
  -4  -6  -4  120.80    4.33
  -4  -6   4  107.60    4.43
  -4  -6   4   96.70    3.98
  -4   6  -4   90.89    3.55
  -4   6  -4  133.84    3.27
  -4   6   4   84.57    3.07
  -4   6   4   97.14    2.82
   4  -6  -4   82.10    3.34
   4  -6   4   92.46    3.39
   4  -6   4  132.79    2.63
   4   6  -4   97.02    4.18
   4   6   4  115.50    4.47
   4   6   4  126.59    4.19
  -4  -6  -5   89.73    4.56
  -4  -6  -5   91.68    4.32
  -4  -6   5   89.93    4.39
  -4  -6   5   80.31    4.16
  -4   6  -5   77.28    3.92
  -4   6  -5  104.07    3.65
  -4   6   5   69.20    3.45
  -4   6   5   77.27    3.16
   4  -6  -5   68.24    3.53
   4  -6  -5   76.73    2.88
   4  -6   5   75.77    3.66
   4  -6   5  106.07    3.28
   4   6  -5   87.98    4.67
   4   6  -5   80.84    4.11
   4   6   5   88.56    4.49
   4   6   5   93.58    4.23
  -4  -6  -6   56.66    4.36
  -4  -6  -6   59.25    4.10
  -4  -6   6   46.83    4.33
  -4  -6   6   46.98    3.84
  -4   6  -6   50.29    4.03
  -4   6  -6   63.23    3.62
  -4   6   6   46.55    3.60
  -4   6   6   10.71    1.28
   4  -6  -6   41.52    3.64
   4  -6  -6   41.49    3.19
   4  -6   6   47.92    3.80
   4  -6   6   69.33    3.45
   4   6  -6   53.51    4.57
   4   6  -6   52.91    4.21
   4   6   6   56.01    4.40
   4   6   6   62.09    4.11
  -4  -6  -7   10.71    2.70
  -4  -6  -7   11.43    2.46
  -4  -6   7   13.40    2.60
  -4  -6   7   14.08    2.35
  -4   6  -7   10.03    2.54
  -4   6  -7   13.52    2.29
  -4   6   7    5.10    2.21
  -4   6   7    9.29    1.94
   4  -6  -7    7.27    2.26
   4  -6  -7    6.71    2.04
   4  -6   7   10.45    2.36
   4  -6   7   15.33    2.20
   4   6  -7   11.19    2.77
   4   6  -7   11.24    2.40
   4   6   7   14.45    2.88
   4   6   7   13.38    2.39
  -4  -6  -8   12.85    3.04
  -4  -6  -8   15.91    2.64
  -4  -6   8   13.70    2.75
  -4  -6   8   15.87    2.50
  -4   6  -8   12.24    2.81
  -4   6  -8   18.00    2.53
  -4   6   8   14.13    2.59
  -4   6   8    9.41    2.18
   4  -6  -8    7.97    2.51
   4  -6  -8    8.87    2.24
   4  -6   8   15.93    2.63
   4  -6   8   19.58    2.51
   4   6  -8   16.54    3.03
   4   6  -8   12.82    2.50
   4   6   8   20.20    3.15
   4   6   8   14.45    2.67
  -4  -6  -9  141.08    5.95
  -4  -6  -9  138.10    5.42
  -4  -6   9  135.30    5.54
  -4  -6   9  129.02    4.96
  -4   6  -9  134.78    5.49
  -4   6  -9  151.95    5.13
  -4   6   9  128.62    5.09
  -4   6   9  121.04    4.45
   4  -6  -9  120.45    5.13
   4  -6  -9  121.46    4.53
   4  -6   9  133.70    5.41
   4  -6   9  162.94    5.07
   4   6  -9  131.99    5.88
   4   6  -9  121.11    5.10
   4   6   9  139.15    5.70
   4   6   9  155.35    5.49
  -4  -6 -10  125.08    6.12
  -4  -6 -10  131.03    5.53
  -4  -6  10  114.79    5.73
  -4  -6  10  102.58    4.96
  -4   6 -10  108.23    5.94
  -4   6 -10  120.40    5.46
  -4   6  10  116.53    5.23
  -4   6  10  122.94    4.65
   4  -6 -10  123.72    5.48
   4  -6 -10  116.61    4.77
   4  -6  10  118.24    5.60
   4  -6  10  131.13    5.35
   4   6 -10  113.68    6.16
   4   6 -10  109.02    5.31
   4   6  10  136.95    6.07
   4   6  10  141.34    5.68
  -4  -6 -11  133.09    6.57
  -4  -6 -11  130.28    5.92
  -4  -6  11  120.80    6.14
  -4  -6  11  115.21    5.26
  -4   6 -11  121.10    6.39
  -4   6 -11  123.94    5.97
  -4   6  11  126.36    5.69
  -4   6  11  118.40    4.94
   4  -6 -11  127.67    5.95
   4  -6 -11  127.06    5.14
   4  -6  11  121.35    6.23
   4  -6  11  135.06    5.87
   4   6 -11  133.20    6.60
   4   6 -11  117.93    5.69
   4   6  11  133.92    6.39
   4   6  11  142.63    5.99
  -4  -6 -12  249.74    7.95
  -4  -6 -12  249.70    6.92
  -4  -6  12  245.44    7.37
  -4  -6  12  227.48    6.30
  -4   6 -12  247.16    7.60
  -4   6 -12  233.43    6.87
  -4   6  12  242.07    6.90
  -4   6  12  226.44    5.89
   4  -6 -12  250.49    7.19
   4  -6 -12  231.44    6.00
   4  -6  12  249.41    7.40
   4  -6  12  285.51    7.08
   4   6 -12  275.40    8.02
   4   6 -12  232.18    6.74
   4   6  12  277.07    7.70
   4   6  12  265.67    7.18
  -4  -6 -13  242.67    8.29
  -4  -6 -13  201.81    7.03
  -4  -6  13  226.26    7.47
  -4  -6  13  214.24    6.47
  -4   6 -13  219.69    7.90
  -4   6 -13  226.87    7.38
  -4   6  13  223.27    7.24
  -4   6  13  217.04    7.47
   4  -6 -13  240.77    7.52
   4  -6 -13  216.27    6.19
   4  -6  13  236.67    7.81
   4  -6  13  262.83    7.39
   4   6 -13  254.86    8.26
   4   6 -13  223.55    6.93
   4   6  13  219.21    7.84
   4   6  13  260.46    7.62
  -4  -6 -14  105.85    7.75
  -4  -6 -14  115.55    6.87
  -4  -6  14  126.72    7.26
  -4  -6  14  112.84    6.02
  -4   6 -14  116.60    7.54
  -4   6 -14  109.83    6.64
  -4   6  14  125.97    6.78
   4  -6 -14  133.12    7.23
   4  -6 -14  117.02    6.04
   4  -6  14  114.81    7.30
   4  -6  14  140.23    7.03
   4   6 -14  121.30    7.80
   4   6 -14  115.16    6.38
   4   6  14  118.59    7.57
   4   6  14  123.54    7.16
  -4  -6 -15  101.76    8.03
  -4  -6 -15   90.12    7.01
  -4  -6  15  100.63    7.18
  -4  -6  15   80.61    6.18
  -4   6 -15   95.59    7.80
  -4   6 -15   97.36    6.84
   4  -6 -15  101.19    7.40
   4  -6 -15  102.22    6.20
   4  -6  15  100.97    7.58
   4  -6  15  106.81    7.08
   4   6 -15  102.58    8.05
   4   6 -15   91.51    6.79
   4   6  15  103.45    7.72
   4   6  15  110.08    7.12
  -4  -6 -16    7.91    4.40
  -4  -6 -16   -1.68    3.51
  -4  -6  16   -0.47    4.14
  -4  -6  16    2.24    3.46
  -4   6 -16    2.32    4.49
  -4   6 -16    2.20    3.70
   4  -6 -16    2.87    4.20
   4  -6 -16    0.89    3.39
   4  -6  16    1.82    4.35
   4  -6  16    6.03    4.03
   4   6 -16   -1.00    4.41
   4   6 -16    0.98    3.59
   4   6  16    1.84    4.36
   4   6  16    8.74    3.93
  -4  -6 -17   11.65    4.86
  -4  -6 -17    9.46    3.90
  -4  -6  17   14.29    4.61
  -4  -6  17    9.57    3.84
  -4   6 -17   12.21    4.69
  -4   6 -17   10.02    4.07
   4  -6 -17    8.33    4.71
   4  -6 -17    8.76    3.85
   4  -6  17   15.78    4.79
   4  -6  17   20.50    4.37
   4   6 -17   12.40    5.11
   4   6 -17    5.71    3.81
   4   6  17   15.21    4.86
   4   6  17   18.46    4.53
  -4  -6 -18    1.66    4.67
  -4  -6 -18    0.18    3.68
  -4  -6  18    2.40    4.50
  -4  -6  18    2.47    3.67
  -4   6 -18   -3.18    4.64
  -4   6 -18   -4.73    3.85
   4  -6 -18   -6.97    4.43
   4  -6 -18   -5.02    3.63
   4  -6  18   -1.49    5.83
   4   6 -18   -4.17    4.80
   4   6 -18   -1.07    3.76
  -4  -6 -19    3.05    5.06
  -4  -6 -19    3.55    3.96
  -4  -6  19    2.45    4.30
  -4  -6  19    2.08    3.86
  -4   6 -19   -0.13    8.90
  -4   6 -19   -0.03    4.15
   4  -6 -19    0.22    4.62
   4  -6 -19   -0.06    3.78
   4   6 -19    1.00    4.91
   4   6 -19    3.25    3.85
  -4  -8   0   30.82    2.38
  -4  -8   0   25.23    2.32
   4   8   0   29.34    2.33
   4   8   0   17.80    2.38
  -4  -8  -2  260.65    4.51
  -4  -8   2  243.27    4.36
  -4  -8   2  198.53    4.34
  -4   8  -2  184.83    2.86
   4  -8   2  187.71    2.75
   4   8  -2  198.98    4.55
   4   8   2  258.21    4.66
  -4  -8  -3  480.43    5.94
  -4  -8  -3  515.50    5.51
  -4  -8   3  408.74    5.19
  -4   8  -3  375.49    3.95
  -4   8   3  372.49    3.67
   4  -8  -3  394.12    3.72
   4  -8   3  378.69    3.88
   4   8  -3  413.18    5.51
   4   8   3  533.12    5.81
  -4  -8  -4  525.99    6.41
  -4  -8  -4  525.36    5.78
  -4  -8   4  491.90    6.26
  -4  -8   4  436.28    5.55
  -4   8  -4  403.76    4.62
  -4   8  -4  601.89    4.04
  -4   8   4   51.47    1.93
   4  -8  -4  404.98    4.35
   4  -8   4  402.42    4.51
   4   8  -4  438.35    5.63
   4   8   4  529.84    6.30
   4   8   4  587.37    6.01
  -4  -8  -5  148.72    4.85
  -4  -8  -5  155.81    4.53
  -4  -8   5  146.35    4.78
  -4  -8   5  132.18    4.22
  -4   8  -5  138.59    4.01
  -4   8  -5  181.65    3.65
  -4   8   5  122.44    3.50
  -4   8   5  135.56    3.08
   4  -8  -5  127.70    3.64
   4  -8   5  129.58    3.80
   4  -8   5  195.09    2.98
   4   8  -5  137.77    4.43
   4   8   5  171.17    4.98
   4   8   5  176.56    4.64
  -4  -8  -6   50.53    4.47
  -4  -8  -6   49.83    3.95
  -4  -8   6   45.01    4.39
  -4  -8   6   39.39    3.77
  -4   8  -6   37.58    3.78
  -4   8  -6   55.97    3.57
  -4   8   6   41.36    3.42
  -4   8   6   38.82    3.11
   4  -8  -6   36.62    3.46
   4  -8  -6   36.06    2.67
   4  -8   6   45.92    3.58
   4  -8   6   61.68    3.19
   4   8  -6   46.43    4.57
   4   8  -6   40.08    4.22
   4   8   6   52.05    4.46
   4   8   6   53.68    4.08
  -4  -8  -7    7.10    2.81
  -4  -8  -7    5.72    2.38
  -4  -8   7    7.01    2.66
  -4  -8   7    8.15    2.32
  -4   8  -7    8.13    2.41
  -4   8  -7   12.65    2.25
  -4   8   7   10.49    2.28
   4  -8  -7    4.13    2.23
   4  -8  -7    4.24    1.83
   4  -8   7    8.73    2.39
   4  -8   7   11.44    2.03
   4   8  -7   12.25    2.78
   4   8  -7    6.22    2.37
   4   8   7   11.69    2.82
   4   8   7   11.66    2.52
  -4  -8  -8   -5.63    2.76
  -4  -8  -8   -6.55    2.40
  -4  -8   8    1.54    2.70
  -4  -8   8    1.03    2.34
  -4   8  -8    1.00    2.52
  -4   8  -8   -0.91    2.28
  -4   8   8   -2.02    2.28
  -4   8   8    1.70    2.00
   4  -8  -8   -3.57    2.26
   4  -8  -8   -2.43    1.98
   4  -8   8   -0.66    2.37
   4  -8   8    1.84    2.16
   4   8  -8   -2.29    2.85
   4   8  -8    1.38    2.41
   4   8   8   -4.30    2.82
   4   8   8   -3.68    2.48
  -4  -8  -9    2.15    3.03
  -4  -8  -9    4.99    2.74
  -4  -8   9    4.82    2.86
  -4  -8   9    5.91    2.51
  -4   8  -9    6.29    2.77
  -4   8  -9    7.92    2.68
  -4   8   9    5.62    2.59
  -4   8   9    7.41    2.28
   4  -8  -9    8.55    2.61
   4  -8  -9    8.18    2.17
   4  -8   9    8.50    2.82
   4  -8   9    7.89    2.56
   4   8  -9    7.81    3.16
   4   8  -9    3.87    2.58
   4   8   9    4.18    3.08
   4   8   9    1.90    2.70
  -4  -8 -10  179.61    6.60
  -4  -8 -10  182.23    5.94
  -4  -8  10  179.38    6.28
  -4  -8  10  161.83    5.37
  -4   8 -10  161.74    6.21
  -4   8 -10  167.88    5.59
  -4   8  10  168.58    5.61
  -4   8  10  157.47    4.86
   4  -8 -10  171.19    5.78
   4  -8 -10  167.27    4.93
   4  -8  10  158.52    5.86
   4  -8  10  198.29    5.63
   4   8 -10  181.91    6.59
   4   8 -10  162.89    5.73
   4   8  10  192.26    6.64
   4   8  10  203.01    6.14
  -4  -8 -11  297.59    7.57
  -4  -8 -11  283.87    6.67
  -4  -8  11  289.43    7.41
  -4  -8  11  263.94    6.22
  -4   8 -11  260.54    7.25
  -4   8 -11  276.05    6.88
  -4   8  11  273.37    6.80
  -4   8  11  255.26    5.66
   4  -8 -11  279.43    6.91
   4  -8 -11  266.80    5.76
   4  -8  11  260.81    7.08
   4  -8  11  329.02    6.79
   4   8 -11  327.39    7.96
   4   8 -11  278.29    6.77
   4   8  11  346.81    7.86
   4   8  11  352.12    7.30
  -4  -8 -12  256.45    7.86
  -4  -8 -12  234.75    7.00
  -4  -8  12  230.97    7.38
  -4  -8  12  211.55    6.18
  -4   8 -12  208.05    7.60
  -4   8 -12  210.50    6.82
  -4   8  12  214.70    6.98
   4  -8 -12  216.68    6.94
   4  -8 -12  217.18    5.91
   4  -8  12  204.06    7.13
   4  -8  12  239.55    6.91
   4   8 -12  249.44    7.95
   4   8 -12  223.22    6.81
   4   8  12  273.38    7.92
   4   8  12  255.41    7.18
  -4  -8 -13  222.74    8.33
  -4  -8 -13  208.84    6.96
  -4  -8  13  221.40    7.68
  -4  -8  13  211.44    6.46
  -4   8 -13  189.60    7.77
  -4   8 -13  189.27    7.14
   4  -8 -13  205.17    7.32
   4  -8 -13  202.71    6.16
   4  -8  13  189.12    7.51
   4  -8  13  232.17    7.28
   4   8 -13  226.66    8.20
   4   8 -13  206.74    6.90
   4   8  13  246.06    8.06
   4   8  13  247.74    7.47
  -4  -8 -14  134.06    7.93
  -4  -8 -14  117.06    6.91
  -4  -8  14  117.85    7.23
  -4  -8  14  107.54    6.11
  -4   8 -14  113.05    7.44
  -4   8 -14  116.98    6.68
   4  -8 -14  124.30    7.05
   4  -8 -14  117.22    6.06
   4  -8  14  118.69    7.22
   4  -8  14  129.37    7.10
   4   8 -14  137.14    8.06
   4   8 -14  111.26    6.46
   4   8  14  137.02    7.61
   4   8  14  140.07    7.07
  -4  -8 -15   12.28    4.36
  -4  -8 -15   15.82    3.81
  -4  -8  15    9.20    4.31
  -4  -8  15    7.31    3.53
  -4   8 -15   13.13    4.32
  -4   8 -15    8.44    3.79
   4  -8 -15   13.40    4.13
   4  -8 -15   14.20    3.42
   4  -8  15   15.97    4.49
   4  -8  15   17.68    4.01
   4   8 -15   13.26    4.60
   4   8 -15    9.22    3.76
   4   8  15   24.14    4.66
   4   8  15   19.59    4.17
  -4  -8 -16   23.63    5.10
  -4  -8 -16   29.83    4.27
  -4  -8  16   21.55    4.62
  -4  -8  16   17.36    3.97
  -4   8 -16   31.71    5.01
  -4   8 -16   23.02    4.23
   4  -8 -16   33.37    4.84
   4  -8 -16   24.73    3.81
   4  -8  16   28.51    4.91
   4  -8  16   32.00    4.48
   4   8 -16   21.16    5.06
   4   8 -16   17.32    4.08
   4   8  16   34.36    5.15
  -4  -8 -17    2.06    4.51
  -4  -8 -17   -0.06    3.73
  -4  -8  17   -5.92    4.33
  -4  -8  17   -6.50    3.56
  -4   8 -17    0.71    4.56
  -4   8 -17   -0.35    3.82
   4  -8 -17    1.11    4.23
   4  -8 -17    1.46    3.53
   4  -8  17    1.13    4.38
   4  -8  17    7.24    4.62
   4   8 -17  -10.24    3.70
  -4  -8 -18    2.06    4.78
  -4  -8 -18   -2.42    3.85
  -4  -8  18   -8.77    4.36
  -4  -8  18   -3.70    3.70
  -4   8 -18   -4.37    4.81
  -4   8 -18    2.80    3.89
   4  -8 -18   -1.61    4.31
   4  -8 -18    4.30    3.63
   4   8 -18   -9.14    4.97
   4   8 -18   -5.16    3.84
  -4  -8 -19  -11.87    4.86
  -4   8 -19    1.81    4.09
   4  -8 -19   -0.03    4.45
   4  -8 -19   -1.29    3.60
   4   8 -19   -6.61    5.07
   4   8 -19    0.46    3.94
  -4 -10  -1  100.66    3.94
  -4 -10  -1   81.80    3.88
  -4 -10   1  110.58    3.82
  -4 -10   1   80.93    3.70
   4  10  -1  109.80    3.91
   4  10  -1   85.08    4.01
   4  10   1  103.87    3.94
   4  10   1   88.56    3.94
  -4 -10  -2   30.99    3.61
  -4 -10  -2   31.87    2.46
  -4 -10   2   33.91    3.55
  -4 -10   2   24.13    2.33
   4  10  -2   25.71    2.39
   4  10   2   29.57    3.67
  -4 -10  -3   61.88    4.12
  -4 -10  -3   61.51    3.72
  -4 -10   3   49.67    3.68
  -4  10  -3   51.99    2.69
  -4  10   3   50.52    2.45
   4 -10  -3   51.20    2.47
   4 -10   3   47.39    2.58
   4  10  -3   44.62    3.72
   4  10   3   64.02    3.95
  -4 -10  -4   45.00    4.07
  -4 -10  -4   37.42    3.71
  -4 -10   4   36.64    4.16
  -4 -10   4   38.72    3.68
  -4  10  -4   28.75    2.96
  -4  10   4   37.93    2.82
   4 -10  -4   33.38    2.76
   4 -10   4   31.54    2.84
   4  10  -4   32.87    4.06
   4  10   4   39.23    4.08
   4  10   4   46.22    3.85
  -4 -10  -5   16.76    2.89
  -4 -10  -5   13.81    2.25
  -4 -10   5   13.80    2.68
  -4 -10   5    9.80    2.20
  -4  10  -5   11.93    2.06
  -4  10  -5   16.04    1.77
  -4  10   5   13.44    1.52
   4 -10  -5   10.10    1.83
   4 -10   5   10.33    2.00
   4  10  -5    9.29    2.31
   4  10   5   15.70    2.56
   4  10   5   16.44    2.37
  -4 -10  -6  118.55    5.10
  -4 -10  -6  122.80    4.69
  -4 -10   6  116.06    5.02
  -4 -10   6  102.02    4.26
  -4  10  -6  102.26    4.15
  -4  10  -6  139.91    3.80
  -4  10   6  108.77    3.88
  -4  10   6  121.70    3.34
   4 -10  -6  108.48    3.79
   4 -10   6  101.87    4.02
   4 -10   6  151.92    3.07
   4  10  -6  122.92    5.33
   4  10  -6  104.23    4.62
   4  10   6  131.14    5.07
   4  10   6  142.93    4.69
  -4 -10  -7  336.84    6.69
  -4 -10  -7  312.35    5.65
  -4 -10   7  327.09    6.58
  -4 -10   7  286.77    5.49
  -4  10  -7  298.54    5.68
  -4  10  -7  363.87    5.27
  -4  10   7  287.72    5.25
  -4  10   7  310.75    4.54
   4 -10  -7  283.27    5.10
   4 -10  -7  319.30    3.77
   4 -10   7  281.70    5.45
   4 -10   7  411.28    4.68
   4  10  -7  357.14    6.93
   4  10  -7  310.59    6.10
   4  10   7  341.51    6.71
   4  10   7  353.97    6.13
  -4 -10  -8  190.83    6.17
  -4 -10  -8  193.12    5.53
  -4 -10   8  202.04    6.03
  -4 -10   8  174.47    5.10
  -4  10  -8  181.32    5.42
  -4  10  -8  210.76    4.96
  -4  10   8  177.12    5.01
   4 -10  -8  177.60    4.96
   4 -10  -8  196.09    4.08
   4 -10   8  176.60    5.26
   4 -10   8  230.94    4.62
   4  10  -8  228.40    6.50
   4  10  -8  186.67    5.52
   4  10   8  216.68    6.20
   4  10   8  226.31    5.89
  -4 -10  -9    5.79    3.17
  -4 -10  -9    0.97    2.71
  -4 -10   9    7.60    3.11
  -4 -10   9    7.36    2.48
  -4  10  -9    8.21    2.87
  -4  10  -9    7.23    2.68
  -4  10   9    5.62    2.64
  -4  10   9    7.25    2.17
   4 -10  -9    9.29    2.77
   4 -10  -9   10.78    2.28
   4 -10   9    5.80    2.90
   4 -10   9   11.18    2.46
   4  10  -9   10.87    3.37
   4  10  -9    8.42    2.77
   4  10   9    7.23    3.21
   4  10   9    4.31    2.77
  -4 -10 -10   19.37    3.57
  -4 -10 -10   15.79    2.97
  -4 -10  10   18.64    3.45
  -4 -10  10   15.04    2.81
  -4  10 -10   19.75    3.33
  -4  10 -10   12.90    2.91
  -4  10  10   22.51    3.20
  -4  10  10   18.52    2.56
   4 -10 -10   18.75    3.08
   4 -10 -10   20.77    2.65
   4 -10  10   15.49    3.30
   4 -10  10   23.01    3.00
   4  10 -10   26.31    3.85
   4  10 -10   16.70    3.08
   4  10  10   24.85    3.83
   4  10  10   20.76    3.21
  -4 -10 -11  115.54    6.59
  -4 -10 -11  105.74    5.83
  -4 -10  11  111.49    6.13
  -4 -10  11  100.52    5.17
  -4  10 -11   79.48    6.20
  -4  10 -11   80.63    5.71
  -4  10  11   99.05    5.74
   4 -10 -11   94.93    5.77
   4 -10 -11   98.96    4.95
   4 -10  11   76.21    6.11
   4 -10  11   89.17    5.54
   4  10 -11  118.52    6.82
   4  10 -11   94.27    5.82
   4  10  11  115.38    6.75
   4  10  11  125.02    6.24
  -4 -10 -12   97.99    6.90
  -4 -10 -12   92.89    6.02
  -4 -10  12  106.33    6.68
  -4 -10  12   84.54    5.34
  -4  10 -12   66.58    6.67
  -4  10 -12   57.76    6.08
   4 -10 -12   83.70    6.16
   4 -10 -12   82.45    5.23
   4 -10  12   65.58    6.41
   4 -10  12   72.88    5.89
   4  10 -12  114.56    7.09
   4  10 -12   90.88    6.04
   4  10  12  123.46    7.16
   4  10  12  112.10    6.38
  -4 -10 -13   21.26    4.34
  -4 -10 -13   22.70    3.63
  -4 -10  13   25.51    4.34
  -4 -10  13   17.93    3.28
  -4  10 -13   16.16    4.25
  -4  10 -13    8.93    3.55
   4 -10 -13   14.54    3.85
   4 -10 -13   11.97    3.12
   4 -10  13   16.87    4.15
   4 -10  13   15.41    3.76
   4  10 -13   25.61    4.55
   4  10 -13   17.77    3.63
   4  10  13   28.42    4.37
   4  10  13   22.40    3.78
  -4 -10 -14   11.61    4.49
  -4 -10 -14   11.04    3.39
  -4 -10  14    5.34    4.02
  -4 -10  14    9.47    3.35
  -4  10 -14    0.73    4.09
  -4  10 -14    1.41    3.49
   4 -10 -14    6.80    3.95
   4 -10 -14    6.37    3.16
   4 -10  14    3.36    4.21
   4 -10  14    5.12    3.77
   4  10 -14    9.66    4.30
   4  10 -14    9.18    3.69
   4  10  14   12.46    4.24
  -4 -10 -15   -2.75    4.28
  -4 -10 -15    0.11    3.47
  -4 -10  15   -2.89    4.06
  -4 -10  15   -1.22    3.37
  -4  10 -15   -4.13    4.14
  -4  10 -15   -1.76    3.40
   4 -10 -15    0.26    3.92
   4 -10 -15    2.45    3.23
   4 -10  15    0.46    3.97
   4 -10  15    6.94    3.89
   4  10 -15   -0.76    4.53
   4  10 -15   -0.71    3.67
  -4 -10 -16   81.31    8.31
  -4 -10 -16   76.50    7.18
  -4 -10  16   67.66    5.88
  -4 -10  16   52.52    6.54
  -4  10 -16   89.79    8.22
  -4  10 -16   69.85    7.19
   4 -10 -16   84.17    7.55
   4 -10 -16   84.52    6.45
   4 -10  16   70.25    7.91
   4 -10  16   96.47    7.61
   4  10 -16   65.86    5.84
   4  10 -16   52.80    5.03
  -4 -10 -17   24.03    5.21
  -4 -10 -17   23.05    4.14
  -4 -10  17   14.08    4.82
  -4 -10  17   11.30    4.18
  -4  10 -17   21.80    5.10
  -4  10 -17   22.74    4.26
   4 -10 -17   21.44    4.51
   4 -10 -17   22.73    3.86
   4  10 -17   11.41    5.27
   4  10 -17   14.42    4.37
  -4 -10 -18   -3.75    4.74
  -4 -10 -18   -2.10    3.74
  -4  10 -18    4.31    4.02
   4 -10 -18   11.35    4.46
   4 -10 -18    9.75    3.66
   4  10 -18   -5.42    5.27
   4  10 -18    1.47    4.22
  -4 -12   0   16.53    2.30
  -4 -12   0    9.31    2.00
   4  12   0   14.58    2.18
   4  12   0   11.03    2.29
  -4 -12  -1   10.40    2.11
  -4 -12  -1   10.79    2.06
  -4 -12   1   12.47    2.13
  -4 -12   1   10.47    2.01
   4  12  -1   12.18    2.15
   4  12  -1    8.47    2.21
   4  12   1   13.21    2.18
   4  12   1    9.71    2.24
  -4 -12  -2    6.24    2.07
  -4 -12  -2    6.64    2.09
  -4 -12   2    8.64    2.13
  -4 -12   2    4.12    1.92
   4  12  -2    3.74    2.08
   4  12   2    7.45    2.12
  -4 -12  -3    1.22    2.40
  -4 -12  -3    4.51    2.06
  -4 -12  -3    3.85    2.06
  -4 -12   3    3.96    2.00
  -4 -12   3    3.61    2.00
  -4  12  -3    2.45    1.51
  -4  12   3    3.41    1.43
   4 -12  -3    2.59    1.36
   4 -12   3    0.97    1.45
   4  12  -3    1.43    2.15
   4  12   3    3.02    2.13
  -4 -12  -4  285.21    5.63
  -4 -12  -4  300.62    5.00
  -4 -12   4  248.66    4.82
  -4  12  -4  249.42    4.00
  -4  12   4  261.90    3.69
   4 -12  -4  234.32    3.60
   4 -12   4  226.26    3.80
   4  12  -4  260.61    5.27
   4  12   4  351.15    5.42
   4 -12   5 1360.00    7.89
  -4 -12  -7  543.13    7.95
  -4 -12  -7  519.92    6.70
  -4 -12   7  546.72    7.90
  -4 -12   7  489.15    6.53
  -4  12  -7  485.00    6.54
  -4  12  -7  550.16    5.96
  -4  12   7  493.65    6.04
  -4  12   7  496.94    5.17
   4 -12  -7  464.10    6.00
   4 -12   7  451.25    6.32
   4  12  -7  594.55    8.33
   4  12  -7  481.00    6.91
   4  12   7  607.25    8.04
   4  12   7  602.16    7.31
  -4 -12  -8  132.08    6.10
  -4 -12  -8  124.42    5.17
  -4 -12   8  135.33    5.93
  -4 -12   8  121.63    4.87
  -4  12  -8  122.64    5.23
  -4  12  -8  143.98    4.81
  -4  12   8  135.73    4.74
  -4  12   8  133.12    4.03
   4 -12  -8  134.29    4.87
   4 -12  -8  150.87    3.39
   4 -12   8  121.90    5.11
   4 -12   8  177.63    4.14
   4  12  -8  157.50    6.36
   4  12  -8  139.56    5.51
   4  12   8  138.87    6.05
   4  12   8  149.52    5.55
  -4 -12  -9   46.95    4.17
  -4 -12  -9   39.36    3.36
  -4 -12   9   45.78    4.09
  -4 -12   9   34.33    3.07
  -4  12  -9   41.24    5.00
  -4  12  -9   43.35    4.65
  -4  12   9   41.85    4.52
   4 -12  -9   38.97    4.70
   4 -12  -9   37.77    3.56
   4 -12   9   40.22    3.50
   4 -12   9   61.16    4.16
   4  12  -9   50.60    4.28
   4  12  -9   39.65    3.45
   4  12   9   54.33    4.15
   4  12   9   53.10    3.78
  -4 -12 -10   -5.41    3.46
  -4 -12 -10   -2.52    2.75
  -4 -12  10   -1.03    3.29
  -4 -12  10   -2.82    2.51
  -4  12 -10   -1.79    3.03
  -4  12 -10   -2.43    2.74
  -4  12  10   -1.63    2.71
   4 -12 -10    0.46    2.87
   4 -12 -10   -1.80    2.25
   4 -12  10   -2.60    3.01
   4 -12  10   -4.78    2.44
   4  12 -10   -3.32    3.32
   4  12 -10   -2.17    2.90
   4  12  10   -5.20    3.24
   4  12  10   -4.75    2.97
  -4 -12 -11   -2.99    3.44
  -4 -12 -11   -0.77    2.85
  -4 -12  11   -1.73    3.60
  -4 -12  11   -2.12    2.67
  -4  12 -11   -8.70    3.24
  -4  12 -11   -7.92    2.81
   4 -12 -11   -4.60    2.98
   4 -12 -11   -4.16    2.59
   4 -12  11   -7.00    3.22
   4 -12  11   -8.19    2.73
   4  12 -11    1.18    3.55
   4  12 -11   -3.07    3.05
   4  12  11   -2.24    3.59
   4  12  11   -1.17    3.06
  -4 -12 -12    1.83    3.79
  -4 -12 -12   -1.85    3.05
  -4 -12  12   -2.62    3.56
  -4 -12  12   -3.01    2.76
   4 -12 -12   -8.41    3.21
   4 -12 -12   -2.52    2.69
   4  12 -12   -0.15    3.95
   4  12 -12    2.27    3.22
   4  12  12   -1.22    3.81
  -4 -12 -13    0.02    4.00
  -4 -12 -13    0.34    3.25
  -4 -12  13    4.33    3.93
  -4 -12  13    4.36    3.10
  -4  12 -13   -0.70    3.97
  -4  12 -13   -4.49    3.40
   4 -12 -13   -1.91    3.45
   4 -12 -13   -3.94    2.88
   4 -12  13   -2.47    3.66
   4 -12  13   -2.27    3.37
   4  12 -13    4.07    4.03
   4  12 -13    1.75    3.35
   4  12  13    2.19    6.78
  -4 -12 -14   94.07    7.82
  -4 -12 -14   87.44    6.60
  -4 -12  14   78.43    7.38
  -4 -12  14   80.17    6.13
  -4  12 -14   97.03    7.56
  -4  12 -14   88.90    6.62
   4 -12 -14   82.99    6.96
   4 -12 -14   81.01    5.86
   4 -12  14   83.15    7.30
   4 -12  14  110.00    6.85
   4  12 -14   98.44    7.93
   4  12 -14   81.29    6.81
  -4 -12 -15  175.36    8.87
  -4 -12 -15  152.08    7.25
  -4 -12  15  142.50    8.40
  -4 -12  15  130.06    6.90
  -4  12 -15  159.70    8.33
  -4  12 -15  143.23    7.56
   4 -12 -15  158.60    7.90
   4 -12 -15  139.93    6.38
   4 -12  15  173.12    8.43
   4 -12  15  198.81    7.95
   4  12 -15  168.28    9.04
   4  12 -15  129.86    7.42
  -4 -12 -16   -2.00    4.55
  -4 -12 -16    5.70    3.77
  -4 -12  16    0.52    4.46
  -4 -12  16    2.27    3.69
  -4  12 -16    8.12    4.59
  -4  12 -16    4.15    3.93
   4 -12 -16   11.37    4.25
   4 -12 -16   10.11    3.40
   4  12 -16   -3.23    4.99
   4  12 -16    2.16    4.07
  -4 -12 -17   13.03    4.90
  -4 -12 -17    9.45    3.77
  -4  12 -17   10.22    3.98
   4 -12 -17   13.03    4.38
   4 -12 -17   17.08    3.62
   4  12 -17    7.09    5.17
   4  12 -17    5.75    4.26
  -4 -12 -18   10.33    5.22
  -4 -12 -18   13.09    4.10
   4 -12 -18   22.64    4.77
   4 -12 -18   16.91    3.79
   4  12 -18   22.78    9.28
   4  12 -18   18.01    4.55
  -4 -14   0   15.94    2.34
  -4 -14   0    8.87    2.00
   4  14   0   10.98    2.26
   4  14   0   13.40    2.38
  -4 -14  -1   10.68    2.14
  -4 -14  -1    8.18    2.06
  -4 -14   1   10.96    2.19
  -4 -14   1    6.72    1.98
   4  14  -1   11.97    2.26
   4  14  -1    8.96    2.30
   4  14   1    9.80    2.31
   4  14   1    7.41    2.33
  -4 -14  -2    2.89    2.09
  -4 -14  -2    4.37    2.08
  -4 -14   2    2.31    2.22
  -4 -14   2    2.40    2.04
   4  14  -2    1.93    2.19
   4  14  -2    3.26    2.29
   4  14   2    1.37    2.18
   4  14   2    4.09    2.28
  -4 -14  -3  544.68    6.88
  -4 -14  -3  530.08    5.82
  -4 -14  -3  474.53    5.61
  -4 -14   3  614.90    6.09
  -4 -14   3  426.01    5.50
  -4  14  -3  454.70    4.22
   4 -14   3  401.24    4.03
   4  14  -3  449.15    6.13
   4  14   3  602.71    6.45
  -4 -14  -5  639.68    6.66
  -4 -14   5  642.87    7.88
  -4 -14   5  532.39    6.23
  -4  14  -5  576.30    5.90
  -4  14   5  611.89    5.56
   4 -14  -5  537.47    5.28
   4 -14   5  512.64    5.55
   4  14  -5  559.15    6.92
   4  14   5  752.34    8.21
   4  14   5  734.42    7.40
  -4 -14  -6  621.30    8.06
  -4 -14  -6  567.12    6.55
  -4 -14   6  574.78    7.86
  -4 -14   6  509.49    6.39
  -4  14  -6  533.68    6.35
  -4  14  -6  624.40    5.43
  -4  14   6  555.98    5.75
  -4  14   6  567.88    4.55
   4 -14  -6  527.65    5.79
   4 -14   6  472.44    5.94
   4  14  -6  526.40    7.16
   4  14   6  676.94    8.11
   4  14   6  666.59    7.41
  -4 -14  -7  701.61    8.67
  -4 -14  -7  650.81    7.09
  -4 -14   7  646.58    8.63
  -4 -14   7  590.84    6.97
  -4  14  -7  609.88    7.17
  -4  14  -7  660.50    6.37
  -4  14   7   86.28    2.93
  -4  14   7  632.93    5.47
   4 -14  -7  614.83    6.61
   4 -14   7  547.96    6.76
   4  14  -7  639.21    7.94
   4  14   7  783.61    8.96
   4  14   7  745.68    8.07
  -4 -14  -8  413.39    7.80
  -4 -14  -8  391.62    6.55
  -4 -14   8  404.46    7.81
  -4 -14   8  373.82    6.28
  -4  14  -8  393.39    6.83
  -4  14  -8  400.18    5.92
  -4  14   8  378.10    6.11
  -4  14   8  380.67    5.18
   4 -14  -8  362.92    6.09
   4 -14   8  355.26    6.44
   4  14  -8  421.61    8.10
   4  14  -8  383.13    7.08
   4  14   8  465.51    7.87
   4  14   8  475.18    7.32
  -4 -14  -9  177.12    6.69
  -4 -14  -9  161.62    5.67
  -4 -14   9  178.74    6.86
  -4 -14   9  153.99    5.39
  -4  14  -9  182.11    6.15
  -4  14  -9  187.09    5.44
   4 -14  -9  156.32    5.37
   4 -14   9  160.96    5.73
   4 -14   9  234.11    4.66
   4  14  -9  178.16    7.10
   4  14  -9  162.33    6.04
   4  14   9  201.19    6.98
   4  14   9  197.65    6.30
  -4 -14 -10   89.72    6.63
  -4 -14 -10   79.54    5.43
  -4 -14  10   77.45    6.38
  -4 -14  10   61.75    5.07
  -4  14 -10   73.42    5.86
  -4  14 -10   82.65    5.38
   4 -14 -10   80.15    5.40
   4 -14 -10   82.99    4.11
   4 -14  10   75.96    5.66
   4 -14  10  102.56    4.74
   4  14 -10   75.44    6.85
   4  14 -10   69.26    5.86
   4  14  10  102.07    6.74
  -4 -14 -11   10.07    3.87
  -4 -14 -11    7.98    3.05
  -4 -14  11    9.41    3.78
  -4 -14  11    4.80    2.85
  -4  14 -11    4.09    3.60
  -4  14 -11    4.13    3.08
   4 -14 -11   11.78    3.37
   4 -14 -11    8.54    2.63
   4 -14  11    7.15    3.47
   4 -14  11   10.77    3.05
   4  14 -11   12.60    4.14
   4  14 -11    6.32    3.38
   4  14  11    8.37    4.64
  -4 -14 -12    4.38    4.03
  -4 -14 -12   10.88    3.26
  -4 -14  12   13.10    4.05
  -4 -14  12    8.96    3.17
  -4  14 -12    8.40    3.90
  -4  14 -12    5.05    3.20
   4 -14 -12    7.52    3.43
   4 -14 -12    6.96    2.81
   4 -14  12    7.47    3.70
   4 -14  12    9.58    3.16
   4  14 -12   10.16    4.07
   4  14 -12    8.26    3.50
  -4 -14 -13   30.62    4.61
  -4 -14 -13   25.82    3.66
  -4 -14  13   27.52    4.53
  -4 -14  13   21.98    3.65
  -4  14 -13   31.64    4.63
  -4  14 -13   25.29    3.86
   4 -14 -13   27.11    4.13
   4 -14 -13   26.88    3.38
   4 -14  13   35.52    4.55
   4 -14  13   36.10    3.74
   4  14 -13   27.25    4.78
   4  14 -13   22.43    3.83
  -4 -14 -14    1.10    4.33
  -4 -14 -14    3.28    3.49
  -4 -14  14    5.00    4.34
  -4 -14  14    4.11    3.44
  -4  14 -14    1.94    4.21
  -4  14 -14    4.89    3.65
   4 -14 -14    6.03    3.93
   4 -14 -14    2.01    3.05
   4 -14  14    0.33    4.04
   4 -14  14    7.52    3.69
   4  14 -14    6.38    4.66
   4  14 -14    4.55    3.67
  -4 -14 -15   -2.90    4.27
  -4 -14 -15    5.73    3.52
  -4 -14  15    1.99    4.37
  -4 -14  15    1.62    3.54
  -4  14 -15   -1.37    4.30
  -4  14 -15    0.64    3.71
   4 -14 -15    7.82    3.96
   4 -14 -15    2.76    3.21
   4 -14  15    2.72    4.35
   4 -14  15    3.76    3.81
   4  14 -15    1.90    4.64
   4  14 -15    1.88    3.90
  -4 -14 -16  139.86    8.83
  -4 -14 -16  117.95    7.08
  -4  14 -16  120.92    7.63
   4 -14 -16  128.52    7.78
   4 -14 -16  129.78    6.42
   4  14 -16  148.55    9.35
   4  14 -16  125.76    7.68
  -4 -14 -17   96.71    8.64
  -4 -14 -17   85.71    6.93
   4 -14 -17  104.93    7.75
   4 -14 -17   87.94    6.35
   4  14 -17  100.26    7.74
  -4 -16   0  442.83    5.34
  -4 -16   0  330.28    4.83
   4  16   0  449.79    5.96
   4  16   0  348.36    5.63
  -4 -16  -1  324.93    4.91
  -4 -16  -1  247.09    4.57
  -4 -16   1  372.51    5.22
  -4 -16   1  245.69    4.51
   4  16  -1  360.49    5.53
   4  16  -1  279.01    5.45
   4  16   1  355.17    5.65
   4  16   1  280.29    5.50
  -4 -16  -2   67.42    3.94
  -4 -16  -2   55.31    3.77
  -4 -16   2   87.44    4.21
  -4 -16   2   52.64    3.71
   4  16  -2   80.70    4.37
   4  16  -2   65.21    4.42
   4  16   2   76.68    4.47
   4  16   2   65.59    4.38
  -4 -16  -3  221.83    5.76
  -4 -16  -3  214.37    4.70
  -4 -16  -3  173.55    4.47
  -4 -16   3  243.49    4.88
  -4 -16   3  159.50    4.34
  -4  16  -3  201.38    3.66
   4 -16   3  156.71    3.38
   4  16  -3  179.46    5.10
   4  16   3  233.54    5.30
  -4 -16  -4  318.58    6.46
  -4 -16  -4  282.09    5.06
  -4 -16  -4  269.62    5.10
  -4 -16   4  373.06    5.61
  -4 -16   4  255.08    4.83
  -4  16  -4  274.20    4.38
  -4  16   4  321.60    4.25
   4 -16  -4  254.15    3.94
   4 -16   4  234.07    4.14
   4  16  -4  270.21    5.84
   4  16   4  343.99    5.85
  -4 -16  -5  494.39    7.47
  -4 -16  -5  481.10    5.94
  -4 -16  -5  467.01    6.07
  -4 -16   5  480.35    7.44
  -4 -16   5  601.21    6.66
  -4 -16   5  394.91    5.72
  -4  16  -5  431.52    5.48
  -4  16   5  475.66    5.28
   4 -16  -5  422.29    5.04
   4 -16   5  367.07    5.15
   4  16  -5  428.86    6.64
   4  16   5  556.85    7.03
  -4 -16  -6  227.00    6.32
  -4 -16  -6  206.81    5.16
  -4 -16   6  200.24    6.20
  -4 -16   6  162.86    4.81
  -4  16  -6  180.88    4.96
  -4  16  -6  197.50    4.03
  -4  16   6  205.79    4.69
   4 -16  -6  175.05    4.51
   4 -16   6  156.68    4.57
   4  16  -6  190.03    5.78
   4  16   6  242.21    6.47
   4  16   6  230.05    5.72
  -4 -16  -7   45.75    5.53
  -4 -16  -7   43.26    4.63
  -4 -16   7   56.84    5.43
  -4 -16   7   36.22    4.24
  -4  16  -7   42.23    4.48
  -4  16  -7   40.02    3.93
  -4  16   7    6.78    1.30
  -4  16   7   48.33    3.34
   4 -16  -7   42.69    4.23
   4 -16   7   36.50    4.34
   4  16  -7   45.54    5.21
   4  16   7   59.66    5.40
   4  16   7   59.97    5.09
  -4 -16  -8   42.40    4.10
  -4 -16  -8   32.70    2.97
  -4 -16   8   37.60    4.05
  -4 -16   8   28.67    2.94
  -4  16  -8   35.49    3.42
  -4  16  -8   40.13    3.00
   4 -16  -8   29.14    3.00
   4 -16   8   31.39    3.27
   4  16  -8   30.65    3.51
   4  16   8   47.26    4.12
  -4 -16  -9   46.65    4.46
  -4 -16  -9   33.85    3.28
  -4 -16   9   37.35    4.43
  -4 -16   9   21.53    2.93
  -4  16  -9   36.27    3.66
  -4  16  -9   30.33    3.04
   4 -16  -9   29.48    3.29
   4 -16   9   27.78    3.45
   4  16  -9   31.63    4.31
   4  16  -9   24.92    3.45
  -4 -16 -10   12.72    3.87
  -4 -16 -10   13.11    3.06
  -4 -16  10   11.82    3.92
  -4 -16  10    7.50    2.93
  -4  16 -10   15.06    3.57
  -4  16 -10   12.26    2.97
   4 -16 -10    8.65    3.19
   4 -16  10   12.68    3.43
   4 -16  10   23.50    2.70
   4  16 -10   12.92    4.30
   4  16 -10    9.88    3.37
  -4 -16 -11    8.82    3.92
  -4 -16 -11    7.51    3.08
  -4 -16  11   10.68    4.00
  -4 -16  11    4.95    2.94
  -4  16 -11   12.86    3.73
  -4  16 -11    8.90    3.20
   4 -16 -11   10.24    3.30
   4 -16 -11    8.74    2.41
   4 -16  11    8.21    3.52
   4 -16  11   12.36    2.92
   4  16 -11    4.60    4.24
   4  16 -11    5.35    3.49
  -4 -16 -12   -2.21    4.03
  -4 -16 -12    0.26    3.13
  -4 -16  12    2.78    4.20
  -4 -16  12   -1.42    3.06
  -4  16 -12    0.75    3.87
  -4  16 -12    0.46    3.16
   4 -16 -12    2.27    3.39
   4 -16 -12   -1.13    2.56
   4 -16  12    0.98    3.62
   4 -16  12    0.20    2.97
   4  16 -12    0.83    4.22
   4  16 -12    1.01    3.47
  -4 -16 -13   13.95    4.52
  -4 -16 -13    8.22    3.42
  -4 -16  13   12.56    4.24
  -4 -16  13   12.57    3.51
  -4  16 -13   18.98    4.41
  -4  16 -13   14.21    3.70
   4 -16 -13   15.09    3.87
   4 -16 -13   11.39    2.97
   4 -16  13   15.09    4.15
   4 -16  13   15.72    3.43
   4  16 -13   12.71    4.62
   4  16 -13   10.84    3.88
  -4 -16 -14   -6.12    4.15
  -4 -16 -14   -4.85    3.33
  -4 -16  14   -4.93    4.22
  -4 -16  14   -1.92    3.40
  -4  16 -14   -0.57    4.23
  -4  16 -14   -0.65    3.60
   4 -16 -14   -0.97    3.67
   4 -16 -14   -2.81    2.86
   4 -16  14   -5.51    4.00
   4 -16  14   -3.11    3.47
   4  16 -14    3.17    4.67
   4  16 -14    0.41    3.72
  -4 -16 -15    4.60    4.60
  -4 -16 -15    1.03    3.45
  -4  16 -15    4.13    3.74
   4 -16 -15    4.70    3.89
   4 -16 -15    7.44    3.14
   4  16 -15   14.40    5.21
   4  16 -15    5.10    3.91
  -4 -16 -16   -0.56    4.60
  -4 -16 -16   -4.64    3.37
   4 -16 -16   -0.30    4.01
   4 -16 -16   -1.98    3.11
   4  16 -16   -1.40    3.92
  -4 -16 -17   27.84    5.28
  -4 -16 -17   22.69    3.93
   4 -16 -17   24.51    4.68
   4 -16 -17   19.86    3.72
   4  16 -17   22.15    4.53
  -4 -18   0 1154.00    7.34
  -4 -18   0  830.23    6.35
   4  18   0  855.27    7.19
   4  18   0  901.55    7.98
  -4 -18  -1  505.38    5.59
  -4 -18  -1  395.08    5.13
  -4 -18   1  576.42    5.94
  -4 -18   1  387.49    5.09
   4  18  -1  541.78    6.30
   4  18  -1  435.35    6.39
   4  18   1  382.36    5.51
   4  18   1  429.49    6.47
  -4 -18  -2  319.60    5.03
  -4 -18  -2  250.99    4.68
  -4 -18   2  392.31    5.46
  -4 -18   2  252.06    4.67
   4  18  -2  367.21    5.90
   4  18  -2  285.28    5.88
   4  18   2  355.91    5.78
   4  18   2  289.71    5.76
  -4 -18  -3    2.80    2.92
  -4 -18  -3   -1.44    2.19
  -4 -18  -3   -0.82    2.18
  -4 -18   3    1.40    2.39
  -4 -18   3    0.02    2.02
   4 -18   3    1.66    1.80
   4  18  -3    0.96    2.64
   4  18   3   -4.15    2.54
  -4 -18  -4   55.13    5.20
  -4 -18  -4   42.83    4.03
  -4 -18  -4   37.08    3.99
  -4 -18   4   60.49    4.38
  -4 -18   4   42.18    3.84
  -4  18  -4   42.76    3.65
  -4  18   4   55.73    3.43
   4 -18  -4   44.27    3.23
   4 -18   4   40.72    3.49
   4  18  -4   42.92    4.82
   4  18   4   56.31    4.68
  -4 -18  -5   33.84    3.73
  -4 -18  -5   17.98    2.67
  -4 -18  -5   20.39    2.73
  -4 -18   5   28.86    3.65
  -4 -18   5   36.71    3.00
  -4 -18   5   18.79    2.47
  -4  18  -5   19.49    2.50
  -4  18   5   28.26    2.47
   4 -18  -5   22.41    2.32
   4 -18   5   19.20    2.45
   4  18  -5   20.53    3.01
   4  18   5   24.45    3.59
  -4 -18  -6   50.50    3.99
  -4 -18  -6   35.27    4.39
  -4 -18  -6   43.08    4.48
  -4 -18   6   46.37    3.94
  -4 -18   6   58.61    4.82
  -4 -18   6   35.21    4.04
  -4  18  -6   39.44    3.00
  -4  18  -6   29.24    3.43
   4 -18  -6   35.60    3.98
   4 -18   6   31.87    2.89
   4  18  -6   42.72    5.15
  -4 -18  -7   33.30    3.92
  -4 -18  -7   25.42    2.83
  -4 -18   7   32.74    3.85
  -4 -18   7   21.40    2.72
  -4  18  -7   26.85    3.11
  -4  18  -7   25.86    2.54
   4 -18  -7   24.46    2.88
   4 -18   7   24.64    2.96
   4  18  -7   24.26    3.44
  -4 -18  -8   16.44    3.77
  -4 -18  -8   11.06    2.80
  -4 -18   8   14.67    3.72
  -4 -18   8    6.87    2.55
  -4  18  -8    8.75    3.15
  -4  18  -8   10.95    2.64
   4 -18  -8    8.02    2.85
   4 -18   8    9.72    2.93
   4  18  -8    7.31    3.23
  -4 -18  -9  144.64    7.03
  -4 -18  -9  128.41    5.56
  -4 -18   9  135.49    7.09
  -4 -18   9  118.36    5.32
  -4  18  -9  131.35    6.12
  -4  18  -9  123.22    5.25
   4 -18  -9  114.76    5.48
   4 -18   9  126.05    5.81
   4  18  -9  123.11    6.44
  -4 -18 -10  167.14    7.34
  -4 -18 -10  144.70    5.83
  -4 -18  10  160.69    7.54
  -4 -18  10  132.92    5.76
  -4  18 -10  151.38    6.55
  -4  18 -10  150.39    5.82
   4 -18 -10  136.09    5.97
   4 -18  10  140.87    6.32
   4  18 -10  170.97    8.16
   4  18 -10  127.86    6.54
  -4 -18 -11  129.82    7.41
  -4 -18 -11  111.66    5.92
  -4 -18  11  124.47    7.46
  -4 -18  11  104.29    6.07
  -4  18 -11  126.80    7.06
  -4  18 -11  116.73    6.03
   4 -18 -11  113.29    6.22
   4 -18  11  118.16    6.67
   4 -18  11  169.14    5.12
   4  18 -11  136.68    8.17
   4  18 -11  107.50    6.95
  -4 -18 -12   31.22    4.74
  -4 -18 -12   18.12    3.42
  -4 -18  12   23.46    4.55
  -4 -18  12   22.32    3.62
  -4  18 -12   22.11    4.36
  -4  18 -12   18.93    3.57
   4 -18 -12   23.61    3.92
   4 -18 -12   26.20    2.65
   4 -18  12   19.79    4.17
   4 -18  12   36.64    3.42
   4  18 -12   25.52    5.18
   4  18 -12   23.87    4.11
  -4 -18 -13   -8.96    4.14
  -4 -18 -13   -7.08    3.18
  -4 -18  13    0.51    4.25
  -4 -18  13    1.02    3.38
  -4  18 -13   -0.51    4.24
  -4  18 -13   -2.21    3.43
   4 -18 -13   -1.26    3.65
   4 -18 -13   -4.62    2.55
   4 -18  13   -2.53    3.95
   4 -18  13   -0.95    3.19
   4  18 -13   -0.71    4.91
   4  18 -13    1.16    3.84
  -4 -18 -14    3.98    4.41
  -4 -18 -14    4.62    3.45
  -4  18 -14    6.72    4.19
   4 -18 -14    9.98    3.88
   4 -18 -14    9.86    2.87
   4 -18  14   13.71    3.52
   4  18 -14    7.31    5.15
   4  18 -14    7.99    4.03
  -4 -18 -15   27.26    5.10
  -4 -18 -15   29.53    3.81
   4 -18 -15   32.56    4.50
   4 -18 -15   34.76    3.36
   4  18 -15   27.26    4.48
  -4 -18 -16   -4.49    4.47
  -4 -18 -16   -1.18    3.40
   4 -18 -16   -3.79    3.96
   4 -18 -16   -2.26    3.03
   4  18 -16   -1.20    4.18
  -4 -20   0  528.44    5.59
  -4 -20   0  394.02    5.05
   4  20   0  432.78    6.74
  -4 -20  -1  633.57    5.93
  -4 -20  -1  504.31    5.37
  -4 -20   1  707.63    6.21
  -4 -20   1  499.56    5.42
   4  20  -1  546.30    7.16
   4  20   1  569.55    7.36
  -4 -20  -2  335.38    5.05
  -4 -20  -2  281.96    4.75
  -4 -20   2  417.68    5.57
  -4 -20   2  280.10    4.67
   4  20  -2  316.11    6.41
   4  20   2  318.35    6.46
  -4 -20  -3  323.63    6.93
  -4 -20  -3  287.36    4.91
  -4 -20  -3  247.43    4.79
  -4 -20   3  383.07    5.79
  -4 -20   3  233.23    4.65
   4 -20   3  266.69    4.31
   4  20  -3  267.00    6.22
   4  20   3  274.23    6.17
  -4 -20  -4  135.21    6.04
  -4 -20  -4  109.56    4.40
  -4 -20  -4   97.62    4.34
  -4 -20   4  149.52    5.15
  -4 -20   4   95.96    4.21
   4 -20  -4  104.45    3.82
   4 -20   4  101.66    4.01
   4  20  -4  101.67    5.47
  -4 -20  -5    7.27    3.25
  -4 -20  -5   -1.00    2.29
  -4 -20  -5    1.72    2.55
  -4 -20   5    0.96    3.35
  -4 -20   5    4.35    2.81
  -4 -20   5   -2.27    2.20
  -4  20  -5    0.61    2.43
   4 -20   5    4.45    2.38
   4  20  -5    2.09    3.02
  -4 -20  -6    1.21    3.29
  -4 -20  -6   -1.58    2.46
  -4 -20  -6    1.15    2.66
  -4 -20   6   -3.13    3.30
  -4 -20   6   -0.77    2.66
  -4 -20   6   -1.87    2.28
  -4  20  -6   -0.32    2.64
  -4  20  -6   -0.93    1.99
   4 -20  -6   -2.13    2.42
   4 -20   6   -0.43    2.55
   4  20  -6   -0.39    3.06
  -4 -20  -7   29.89    4.02
  -4 -20  -7   15.31    2.73
  -4 -20  -7   19.14    3.22
  -4 -20   7   22.71    3.92
  -4 -20   7   28.48    3.23
  -4 -20   7   17.25    2.70
  -4  20  -7   20.30    3.13
  -4  20  -7   18.19    2.52
   4 -20  -7   14.22    2.83
   4 -20   7   11.84    2.91
   4  20  -7   22.73    3.68
  -4 -20  -8   51.68    6.17
  -4 -20  -8   45.69    4.89
  -4 -20   8   50.42    4.54
  -4 -20   8   41.17    4.60
  -4  20  -8   45.73    5.18
  -4  20  -8   51.43    4.61
   4 -20  -8   41.51    5.02
   4 -20   8   46.30    5.12
   4  20  -8   37.34    3.91
  -4 -20  -9   74.04    6.76
  -4 -20  -9   63.49    5.18
  -4 -20   9   71.23    6.84
  -4 -20   9   62.24    5.20
  -4  20  -9   62.83    5.88
  -4  20  -9   59.54    4.98
   4 -20  -9   62.95    5.33
   4 -20   9   63.86    5.55
   4  20  -9   61.92    6.35
  -4 -20 -10  154.50    7.54
  -4 -20 -10  146.83    5.80
  -4 -20  10  140.38    7.63
  -4 -20  10  137.92    5.91
  -4  20 -10  151.53    6.89
  -4  20 -10  134.39    6.05
   4 -20 -10  135.85    6.04
   4 -20  10  133.19    6.51
   4  20 -10  131.96    7.11
  -4 -20 -11  200.25    8.17
  -4 -20 -11  189.95    6.34
  -4 -20  11  208.63    8.43
  -4 -20  11  178.57    6.52
  -4  20 -11  196.22    7.72
  -4  20 -11  183.21    6.64
   4 -20 -11  199.28    6.69
   4 -20  11  168.06    7.33
   4  20 -11  238.74    9.40
   4  20 -11  195.97    7.83
  -4 -20 -12  260.70    8.84
  -4 -20 -12  223.72    6.84
  -4 -20  12  238.34    8.94
  -4 -20  12  216.01    6.98
  -4  20 -12  245.59    8.57
  -4  20 -12  219.62    7.17
   4 -20 -12  231.56    7.33
   4 -20  12  212.20    7.97
   4 -20  12  306.47    5.89
   4  20 -12  287.12    9.86
   4  20 -12  227.66    8.31
  -4 -20 -13  168.29    8.45
  -4 -20 -13  149.50    6.40
   4 -20 -13  158.73    7.18
   4 -20  13  217.94    6.13
   4  20 -13  224.07   11.83
   4  20 -13  161.29    7.84
  -4 -20 -14   33.55    5.02
  -4 -20 -14   21.84    3.58
   4 -20 -14   28.79    4.27
   4 -20 -14   26.98    2.94
   4  20 -14   24.94    4.54
  -4 -20 -15   -4.85    4.32
  -4 -20 -15   -4.01    3.12
   4 -20 -15   -4.75    3.75
   4 -20 -15   -3.15    2.82
  -4 -22   0  315.32    4.79
  -4 -22   0  262.47    4.54
   4  22   0  276.82    6.58
  -4 -22  -1  210.18    4.49
  -4 -22  -1  181.87    4.26
  -4 -22   1  236.04    4.65
  -4 -22   1  178.39    4.13
   4  22  -1  196.25    6.08
   4  22   1  185.76    6.06
  -4 -22  -2  258.11    4.59
  -4 -22  -2  234.80    4.43
  -4 -22   2  322.17    5.15
  -4 -22   2  240.96    4.52
   4  22  -2  236.41    6.37
   4  22   2  260.46    6.48
  -4 -22  -3  143.69    6.30
  -4 -22  -3  114.56    4.21
  -4 -22  -3  106.03    4.24
  -4 -22   3  157.04    4.87
  -4 -22   3   99.43    4.05
   4 -22   3  118.64    4.05
   4  22  -3  105.90    5.71
   4  22   3  115.81    5.65
  -4 -22  -4   34.21    3.95
  -4 -22  -4   22.56    2.49
  -4 -22  -4   26.95    2.69
  -4 -22   4   39.75    3.14
  -4 -22   4   22.89    2.45
   4 -22  -4   24.65    2.40
   4 -22   4   23.91    2.61
   4  22  -4   23.77    3.48
  -4 -22  -5   12.46    3.73
  -4 -22  -5    6.32    2.34
  -4 -22  -5    9.15    2.57
  -4 -22   5    8.79    3.49
  -4 -22   5   12.88    2.99
  -4 -22   5    4.85    2.30
   4 -22  -5    8.40    2.48
   4 -22   5    7.42    2.58
   4  22  -5    8.89    3.34
  -4 -22  -6   -1.24    3.55
  -4 -22  -6   -2.48    2.35
  -4 -22  -6   -0.89    2.63
  -4 -22   6   -0.74    3.45
  -4 -22   6   -5.10    2.84
  -4 -22   6   -1.88    2.38
  -4  22  -6    0.63    2.81
   4 -22  -6   -3.36    2.46
   4 -22   6    0.53    2.66
   4  22  -6   -4.33    3.21
  -4 -22  -7   -1.19    3.59
  -4 -22  -7   -1.08    2.49
  -4 -22  -7    1.72    2.88
  -4 -22   7   -2.81    3.51
  -4 -22   7    1.07    2.90
  -4 -22   7   -0.79    2.44
  -4  22  -7   -0.83    2.97
  -4  22  -7    0.53    2.32
   4 -22  -7    0.44    2.73
   4 -22   7   -2.09    2.81
   4  22  -7   -1.31    3.35
  -4 -22  -8    1.59    3.69
  -4 -22  -8    6.97    2.72
  -4 -22  -8    5.39    3.17
  -4 -22   8    5.59    3.82
  -4 -22   8   10.62    3.30
  -4 -22   8    4.02    2.74
  -4  22  -8    1.85    3.17
  -4  22  -8    2.22    2.53
   4 -22  -8   -0.39    2.90
   4 -22   8    4.31    3.09
   4  22  -8    1.33    3.43
  -4 -22  -9   41.22    4.66
  -4 -22  -9   28.59    3.03
  -4 -22  -9   39.65    3.69
  -4 -22   9   31.55    4.72
  -4 -22   9   50.92    5.66
  -4 -22   9   25.64    3.27
  -4  22  -9   27.81    3.83
  -4  22  -9   27.65    3.28
   4 -22  -9   35.13    3.63
   4 -22   9   28.60    3.82
   4  22  -9   28.93    4.20
  -4 -22 -10   79.04    7.20
  -4 -22 -10   63.35    5.32
  -4 -22  10   75.45    7.41
  -4 -22  10   61.65    5.48
  -4  22 -10   48.93    4.55
  -4  22 -10   39.19    3.66
   4 -22 -10   72.48    5.90
   4 -22  10   50.75    4.57
   4  22 -10   66.76    7.00
  -4 -22 -11  119.02    7.70
  -4 -22 -11   92.60    5.75
  -4 -22  11   96.35    5.90
  -4  22 -11   84.93    7.33
  -4  22 -11   56.73    5.94
   4 -22 -11  109.07    6.24
   4 -22  11   60.90    6.85
   4  22 -11  101.61    7.26
  -4 -22 -12  110.83    7.81
  -4 -22 -12   90.58    5.75
   4 -22 -12  101.42    6.43
   4  22 -12   99.14    7.62
  -4 -22 -13   71.22    7.61
  -4 -22 -13   68.36    5.81
   4 -22 -13   60.37    6.42
  -4 -22 -14   51.88    5.30
  -4 -22 -14   37.29    3.67
   4 -22 -14   44.79    4.61
   4  24   0   21.35    3.46
   4  24  -1   41.25    3.72
   4  24   1   39.46    3.74
   4  24  -2    0.19    3.14
   4  24   2   -2.76    3.23
  -4 -24  -3   12.94    3.69
  -4 -24   3    9.28    2.45
   4 -24   3    9.72    2.41
   4  24  -3   10.09    3.37
   4  24   3    8.03    3.31
  -4 -24  -4   12.80    3.70
  -4 -24  -4    9.07    2.18
  -4 -24  -4    8.37    2.33
  -4 -24   4   11.81    2.68
  -4 -24   4    7.37    2.22
   4 -24  -4    8.43    2.44
   4 -24   4   11.07    2.58
   4  24  -4    6.10    3.43
  -4 -24  -5   22.07    3.94
  -4 -24  -5   14.21    2.30
  -4 -24  -5   11.97    2.55
  -4 -24   5   14.37    3.94
  -4 -24   5   22.15    2.95
  -4 -24   5   11.35    2.36
   4 -24  -5    9.61    2.65
   4 -24   5   16.49    2.86
   4  24  -5    8.56    3.65
  -4 -24  -6   24.99    4.11
  -4 -24  -6   14.65    2.40
  -4 -24  -6   22.19    2.87
  -4 -24   6   19.43    4.12
  -4 -24   6   33.13    3.23
  -4 -24   6   16.25    2.64
   4 -24  -6   17.92    3.01
   4 -24   6   16.82    3.01
   4  24  -6   21.43    3.88
  -4 -24  -7   28.09    4.20
  -4 -24  -7   17.08    2.54
  -4 -24  -7   16.02    3.00
  -4 -24   7   14.22    4.05
  -4 -24   7   30.42    3.37
  -4 -24   7   12.22    2.69
  -4  24  -7   19.67    3.41
  -4  24  -7   15.04    2.50
   4 -24  -7   15.36    3.06
   4 -24   7   16.34    3.29
   4  24  -7   14.78    3.83
  -4 -24  -8   14.40    4.22
  -4 -24  -8   11.69    2.64
  -4 -24  -8   18.90    3.32
  -4 -24   8   15.48    4.28
  -4 -24   8   23.94    3.29
  -4 -24   8    8.40    2.82
  -4  24  -8   16.78    3.61
  -4  24  -8   12.89    2.82
   4 -24  -8   14.01    3.27
   4 -24   8   14.08    3.40
   4  24  -8   14.63    4.10
  -4 -24  -9   12.33    4.27
  -4 -24  -9    5.67    2.66
  -4 -24  -9    7.42    3.41
  -4 -24   9   10.23    4.44
  -4 -24   9   12.80    3.28
  -4 -24   9    8.50    2.98
  -4  24  -9    4.51    3.66
  -4  24  -9    2.16    2.86
   4 -24  -9    7.01    3.22
   4 -24   9    4.20    3.47
   4  24  -9   10.00    4.01
  -4 -24 -10   -7.90    3.92
  -4 -24 -10   -4.92    2.68
  -4 -24 -10   -7.79    3.11
  -4 -24  10   -3.69    3.08
  -4 -24  10   -1.87    3.33
  -4  24 -10   -9.15    3.64
   4 -24 -10    1.35    3.36
   4 -24  10   -9.65    3.60
   4  24 -10   -3.18    4.17
  -4 -24 -11   -3.82    4.06
  -4 -24 -11   -2.86    2.70
   4 -24 -11    5.17    3.42
  -4 -24 -12    1.98    4.31
  -4 -24 -12    2.81    2.82
   4 -24 -12   -3.48    3.48
  -4 -24 -13    7.81    4.50
  -4 -24 -13    3.66    2.96
   4 -24 -13   -2.98    3.73
   4  26   0   42.18    4.05
   4  26  -1  129.00    6.39
   4  26   1  122.05    6.61
   4  26  -2   96.73    6.23
   4  26   2  100.70    6.52
  -4 -26  -3   46.29    4.34
   4 -26   3   40.05    4.24
   4  26  -3   35.27    4.06
   4  26   3   36.98    3.92
  -4 -26  -4    5.34    3.75
   4 -26  -4    0.26    2.57
   4 -26   4    1.97    2.64
   4  26  -4    4.34    3.71
  -4 -26  -5   18.35    4.12
  -4 -26   5   11.41    4.00
  -4 -26   5    5.94    2.25
   4 -26  -5    7.44    2.78
   4 -26   5   10.70    3.01
   4  26  -5   11.19    3.85
  -4 -26  -6   97.36    6.99
  -4 -26   6   76.24    6.90
  -4 -26   6  107.74    5.17
  -4 -26   6   79.54    4.39
   4 -26  -6   70.84    4.95
   4 -26   6   72.87    5.35
   4  26  -6   79.69    7.03
  -4 -26  -7  219.61    7.88
  -4 -26  -7  179.32    4.63
  -4 -26  -7  186.45    5.18
  -4 -26   7  199.74    8.06
  -4 -26   7  265.73    6.07
  -4 -26   7  175.56    5.14
  -4  26  -7  172.66    4.87
   4 -26  -7  174.18    5.74
   4 -26   7  182.86    6.24
   4  26  -7  191.94    7.58
  -4 -26  -8  229.16    8.02
  -4 -26  -8  178.80    4.87
  -4 -26  -8  195.12    5.52
  -4 -26   8  264.32    6.05
  -4 -26   8  179.96    5.44
  -4  26  -8  227.22    7.05
  -4  26  -8  193.22    5.43
   4 -26  -8  193.50    6.06
   4 -26   8  191.96    6.55
  -4 -26  -9   99.79    7.46
  -4 -26  -9   71.26    4.50
  -4 -26  -9   95.05    5.58
  -4 -26   9  117.79    5.62
  -4 -26   9   81.10    5.95
  -4  26  -9  107.17    6.78
   4 -26  -9   90.69    5.94
   4 -26   9   86.77    6.17
  -4 -26 -10   23.44    4.55
  -4 -26 -10   16.22    2.79
  -4 -26  10   32.65    3.73
   4 -26 -10   23.02    3.62
  -4 -26 -11   -0.42    4.11
  -4 -26 -11    3.29    2.64
  -4 -26  11    8.16    3.34
   4 -26 -11   -0.19    3.49
   4  28   0  239.79    7.32
   4  28  -1   65.96    6.30
   4  28   1   71.13    6.64
   4  28  -2    3.51    3.65
   4  28   2    6.09    3.78
  -4 -28  -3    8.91    3.78
   4 -28   3    4.34    2.70
   4  28  -3    3.00    3.78
   4  28   3    6.16    3.69
  -4 -28  -4   57.18    6.57
   4 -28  -4   34.33    2.92
   4 -28   4   32.40    3.26
   4  28  -4   38.66    5.20
  -4 -28  -5  112.61    6.87
   4 -28  -5   97.49    4.77
   4 -28   5   75.53    5.27
  -4 -28  -6  164.44    7.44
   4 -28  -6  125.32    5.32
   4 -28   6  115.70    5.68
  -4 -28  -7  131.82    7.31
  -4 -28   7  102.26    4.49
  -4  28  -7   99.52    4.65
   4 -28  -7  116.73    5.56
   4 -28   7  106.90    5.96
  -4 -28  -8  104.68    7.27
  -4 -28   8  104.16    5.53
  -4 -28   8   67.70    4.64
   4 -28  -8   79.34    5.52
   4 -28   8   88.71    6.17
  -4 -28  -9   73.51    7.19
  -4 -28  -9   55.19    4.07
  -4 -28  -9   66.97    5.32
  -4 -28   9   69.72    5.45
   4 -28  -9   60.45    5.67
  -4 -30  -3   33.79    4.35
   4 -30   3   23.20    3.00
  -4 -30  -4   74.05    6.83
   4 -30  -4   57.94    4.52
   4 -30   4   42.09    4.94
  -4 -30  -5   85.73    6.83
   4 -30  -5   64.63    4.75
   4 -30   5   48.54    5.26
  -4 -30  -6   31.76    4.49
   4 -30  -6   28.03    3.15
   4 -30   6   21.09    3.46
  -5  -1   2  499.22    4.93
   5   1  -2  522.12    4.76
  -5  -1   3  618.08    5.94
  -5  -1   3  554.35    5.30
  -5   1  -3  652.64    5.89
  -5   1   3  595.05    5.52
  -5   1   3  583.51    4.97
   5  -1  -3  599.31    4.98
   5  -1   3  634.09    5.76
   5   1  -3  575.74    5.49
   5   1   3  680.42    6.22
  -5  -1  -6  852.86    7.91
  -5  -1   6  787.40    7.45
  -5  -1   6  741.76    6.69
  -5   1  -6  778.96    7.54
  -5   1   6  726.49    7.00
   5  -1  -6  818.48    7.36
   5  -1   6  821.85    7.53
   5   1  -6  846.27    7.73
   5   1  -6  758.74    6.82
   5   1   6  821.58    7.75
  -5  -1  -7  170.38    5.36
  -5  -1  -7  192.56    5.22
  -5  -1   7  156.74    4.89
  -5  -1   7  147.83    4.62
  -5   1  -7  157.68    5.14
  -5   1  -7  181.89    4.97
  -5   1   7  150.94    4.63
  -5   1   7  155.17    4.45
   5  -1  -7  159.29    5.03
   5  -1  -7  157.13    4.49
   5  -1   7  152.61    4.97
   5  -1   7  193.33    4.85
   5   1  -7  169.95    5.08
   5   1  -7  158.37    4.77
   5   1   7  173.77    5.16
   5   1   7  202.83    5.07
  -5  -1  -8   65.66    4.87
  -5  -1  -8   76.01    4.89
  -5  -1   8   65.14    4.49
  -5  -1   8   64.60    4.22
  -5   1  -8   59.31    4.87
  -5   1  -8   61.27    4.56
  -5   1   8   63.66    4.47
  -5   1   8   62.62    4.02
   5  -1  -8   77.32    4.93
   5  -1  -8   71.48    4.12
   5  -1   8   57.80    4.72
   5  -1   8   70.70    4.51
   5   1  -8   66.37    4.81
   5   1  -8   66.15    4.28
   5   1   8   69.46    4.83
   5   1   8   90.07    4.77
  -5  -1  -9   17.67    3.22
  -5  -1  -9   15.74    2.95
  -5  -1   9   11.72    2.97
  -5  -1   9   16.99    2.67
  -5   1  -9   16.55    3.15
  -5   1  -9   14.45    2.96
  -5   1   9   16.20    3.02
  -5   1   9   17.82    2.61
   5  -1  -9   20.62    3.14
   5  -1  -9   19.92    2.67
   5  -1   9   15.33    3.20
   5  -1   9   19.78    2.87
   5   1  -9   15.32    3.02
   5   1  -9   12.95    2.72
   5   1   9   17.52    3.09
   5   1   9   20.87    2.94
  -5  -1 -10    5.50    3.14
  -5  -1 -10   10.13    2.94
  -5  -1  10    6.59    3.02
  -5  -1  10    8.78    2.70
  -5   1 -10    9.49    3.19
  -5   1 -10    3.92    2.87
  -5   1  10    7.27    2.98
  -5   1  10    7.56    2.55
   5  -1 -10    8.29    3.26
   5  -1 -10    5.75    2.66
   5  -1  10    8.03    3.11
   5  -1  10    5.61    2.87
   5   1 -10    7.06    3.15
   5   1 -10    5.10    2.69
   5   1  10    8.75    3.09
   5   1  10   11.09    2.88
  -5  -1 -11   17.50    3.64
  -5  -1 -11   15.32    3.21
  -5  -1  11   12.03    3.35
  -5  -1  11   10.68    2.85
  -5   1 -11   23.82    3.79
  -5   1 -11   17.04    3.30
  -5   1  11   16.07    3.28
  -5   1  11   11.26    2.77
   5  -1 -11   16.79    3.50
   5  -1 -11   13.34    2.93
   5  -1  11   16.89    3.70
   5  -1  11   20.35    3.22
   5   1 -11   15.05    3.66
   5   1 -11   10.24    2.98
   5   1  11   21.78    3.53
   5   1  11   14.98    3.16
  -5  -1 -12    1.83    3.71
  -5  -1 -12   -1.45    3.12
  -5  -1  12    0.55    3.15
  -5  -1  12   -4.99    2.67
  -5   1 -12   -1.36    3.69
  -5   1 -12    1.65    3.17
  -5   1  12   -3.68    2.98
  -5   1  12   -0.03    2.68
   5  -1 -12    2.04    3.50
   5  -1 -12   -1.71    2.74
   5  -1  12    4.51    3.45
   5  -1  12    4.60    3.08
   5   1 -12   -1.11    3.56
   5   1 -12   -2.70    2.91
   5   1  12   -0.90    3.43
   5   1  12    1.97    3.16
  -5  -1 -13   14.47    4.31
  -5  -1 -13   11.18    3.65
  -5  -1  13   15.03    3.61
  -5  -1  13    8.60    2.97
  -5   1 -13   16.20    4.12
  -5   1 -13   11.89    3.55
  -5   1  13   11.71    3.52
  -5   1  13   15.58    3.09
   5  -1 -13   11.68    4.01
   5  -1 -13   16.38    3.34
   5  -1  13   12.45    3.96
   5  -1  13   16.58    3.71
   5   1 -13   11.78    4.05
   5   1 -13   11.83    3.29
   5   1  13   16.09    4.05
   5   1  13   18.61    3.73
  -5  -1 -14   26.04    4.80
  -5  -1 -14   22.99    3.97
  -5  -1  14   22.34    3.99
  -5  -1  14   17.29    3.35
  -5   1 -14   26.25    4.68
  -5   1 -14   18.38    3.70
  -5   1  14   23.73    4.05
  -5   1  14   17.13    3.29
   5  -1 -14   21.71    4.27
   5  -1 -14   21.21    3.55
   5  -1  14   26.85    4.55
   5  -1  14   27.93    3.98
   5   1 -14   20.42    4.47
   5   1 -14   25.24    3.66
   5   1  14   27.75    4.41
   5   1  14   27.80    4.06
  -5  -1 -15   40.73    5.06
  -5  -1 -15   30.56    4.14
  -5  -1  15   39.71    4.66
  -5  -1  15   25.56    3.66
  -5   1 -15   33.42    4.84
  -5   1 -15   33.67    4.31
  -5   1  15   32.75    4.40
  -5   1  15   29.40    3.76
   5  -1 -15   33.72    4.81
   5  -1 -15   35.39    4.00
   5  -1  15   41.95    4.86
   5  -1  15   44.55    4.63
   5   1 -15   37.65    4.85
   5   1 -15   33.46    4.05
   5   1  15   47.19    5.04
   5   1  15   45.08    4.62
  -5  -1 -16   52.92    5.47
  -5  -1 -16   44.87    4.50
  -5  -1  16   58.60    7.10
  -5  -1  16   54.31    6.19
  -5   1 -16   48.61    5.34
  -5   1 -16   47.31    4.77
  -5   1  16   47.45    5.08
   5  -1 -16   47.24    5.26
   5  -1 -16   45.03    4.48
   5  -1  16   55.95    5.49
   5  -1  16   73.13    7.49
   5   1 -16   49.12    5.46
   5   1 -16   66.47    6.79
   5   1  16   72.07    8.01
   5   1  16   79.70    7.50
  -5  -1 -17   80.54    8.71
  -5  -1 -17   67.30    7.61
  -5  -1  17   71.01    7.36
  -5  -1  17   75.63    9.25
  -5   1 -17   77.42    8.77
  -5   1 -17   61.15    7.33
   5  -1 -17   62.94    5.78
   5  -1 -17   61.45    7.20
   5  -1  17   91.62    8.37
   5  -1  17   93.64    8.05
   5   1 -17   83.04    8.57
   5   1 -17   73.52    7.16
   5   1  17   90.06    8.41
   5   1  17   89.34    7.89
  -5  -1 -18  106.73    9.19
  -5  -1 -18   83.12    7.79
  -5   1 -18   91.57    9.04
  -5   1 -18   87.09    7.83
   5  -1 -18   90.70    8.72
   5  -1 -18   77.81    7.28
   5  -1  18  108.32    8.91
   5  -1  18  131.78    8.76
   5   1 -18  113.41    9.06
   5   1 -18   94.31    7.36
   5   1  18  105.17    9.04
   5   1  18  118.39    8.34
  -5  -1 -19   77.95    9.26
  -5  -1 -19   67.82    7.64
  -5   1 -19   53.74    5.99
  -5   1 -19   45.45    4.91
   5  -1 -19   54.67    5.96
   5  -1 -19   61.68    7.39
   5  -1  19   60.01    6.22
   5  -1  19   76.37    7.69
   5   1 -19   95.94    9.07
   5   1 -19   69.40    7.46
   5   1  19   85.45    9.15
   5   1  19   97.59    8.71
  -5  -3  -1  222.08    4.29
  -5  -3   1  185.77    4.04
   5   3   1  220.28    4.17
  -5  -3  -3  195.19    4.86
  -5  -3  -3  224.06    4.80
  -5  -3   3  160.42    4.26
  -5   3  -3  166.97    4.05
  -5   3  -3  224.98    3.82
  -5   3   3  176.43    3.88
  -5   3   3   74.36    2.32
   5  -3  -3  172.65    3.95
   5  -3   3  183.69    4.17
   5  -3   3  204.39    3.41
   5   3  -3  168.58    4.40
   5   3   3  198.28    4.70
   5   3   3  210.75    4.64
  -5  -3  -4  341.42    5.59
  -5  -3  -4  400.03    5.50
  -5  -3   4  324.82    5.35
  -5  -3   4  282.60    4.91
  -5   3  -4  309.30    4.89
  -5   3  -4  395.76    4.69
  -5   3   4  296.36    4.63
  -5   3   4  211.80    3.23
   5  -3  -4  312.21    4.66
   5  -3  -4  318.08    4.02
   5  -3   4  311.82    4.89
   5  -3   4  403.84    4.43
   5   3  -4  311.52    5.08
   5   3   4  344.89    5.51
   5   3   4  381.68    5.34
  -5  -3  -5    3.24    2.52
  -5  -3  -5    3.21    2.39
  -5  -3   5    4.85    2.35
  -5  -3   5    5.95    2.24
  -5   3  -5    4.22    2.34
  -5   3  -5    2.40    2.12
  -5   3   5    4.56    2.13
  -5   3   5    2.79    1.91
   5  -3  -5    2.21    2.12
   5  -3  -5    2.54    1.85
   5  -3   5    1.41    2.13
   5  -3   5    1.04    2.04
   5   3  -5    5.65    2.49
   5   3  -5    1.71    2.31
   5   3   5    5.13    2.48
   5   3   5    0.29    2.18
  -5  -3  -6  340.79    5.96
  -5  -3  -6  407.62    5.97
  -5  -3   6  323.74    5.78
  -5  -3   6  307.65    5.28
  -5   3  -6  325.11    5.52
  -5   3  -6  394.49    5.46
  -5   3   6  300.80    5.02
  -5   3   6  313.07    4.73
   5  -3  -6  329.95    5.38
   5  -3  -6  328.24    4.76
   5  -3   6  327.02    5.45
   5  -3   6  422.58    5.33
   5   3  -6  357.16    6.11
   5   3  -6  324.77    5.47
   5   3   6  373.17    6.14
   5   3   6  415.07    5.77
  -5  -3  -7  414.08    6.69
  -5  -3  -7  463.08    6.33
  -5  -3   7  402.57    6.41
  -5  -3   7  368.19    5.69
  -5   3  -7  375.15    6.09
  -5   3  -7  459.60    6.13
  -5   3   7  362.09    5.68
  -5   3   7  389.61    5.43
   5  -3  -7  382.48    5.91
   5  -3  -7  386.63    5.21
   5  -3   7  378.26    6.02
   5  -3   7  522.52    6.00
   5   3  -7  430.03    6.59
   5   3  -7  398.62    5.89
   5   3   7  438.71    6.70
   5   3   7  510.25    6.46
  -5  -3  -8  124.13    5.38
  -5  -3  -8  140.41    5.18
  -5  -3   8  121.62    5.08
  -5  -3   8  112.59    4.62
  -5   3  -8  117.30    5.18
  -5   3  -8  120.91    4.93
  -5   3   8  110.58    4.70
  -5   3   8  118.03    4.37
   5  -3  -8  115.22    4.88
   5  -3  -8  112.55    4.37
   5  -3   8  118.92    5.09
   5  -3   8  144.52    4.89
   5   3  -8  134.53    5.38
   5   3  -8  120.13    4.94
   5   3   8  133.22    5.40
   5   3   8  154.55    5.15
  -5  -3  -9   47.12    5.24
  -5  -3  -9   58.41    5.27
  -5  -3   9   38.01    3.37
  -5  -3   9   40.62    4.42
  -5   3  -9   36.55    3.45
  -5   3  -9   41.19    3.31
  -5   3   9   45.02    4.59
  -5   3   9   47.57    4.17
   5  -3  -9   43.53    4.96
   5  -3  -9   39.59    4.26
   5  -3   9   37.52    3.40
   5  -3   9   42.00    4.81
   5   3  -9   44.64    5.27
   5   3  -9   35.80    3.13
   5   3   9   52.73    5.27
   5   3   9   56.05    4.96
  -5  -3 -10  233.74    6.79
  -5  -3 -10  251.43    6.43
  -5  -3  10  215.91    6.42
  -5  -3  10  208.79    5.92
  -5   3 -10  219.99    6.61
  -5   3 -10  251.74    6.39
  -5   3  10  221.14    6.07
  -5   3  10  213.91    5.53
   5  -3 -10  229.46    6.48
   5  -3 -10  228.46    5.52
   5  -3  10  229.10    6.44
   5  -3  10  283.16    6.41
   5   3 -10  232.22    6.86
   5   3 -10  213.97    6.08
   5   3  10  245.57    6.73
   5   3  10  289.56    6.55
  -5  -3 -11   80.34    6.29
  -5  -3 -11   79.21    6.03
  -5  -3  11   70.16    5.67
  -5  -3  11   67.61    5.17
  -5   3 -11   78.68    6.14
  -5   3 -11   87.74    5.75
  -5   3  11   79.30    5.28
  -5   3  11   85.84    5.05
   5  -3 -11   93.28    5.94
   5  -3 -11   81.46    5.06
   5  -3  11   88.92    5.94
   5  -3  11  101.41    5.65
   5   3 -11   78.62    6.28
   5   3 -11   70.79    5.75
   5   3  11   91.15    6.04
   5   3  11   93.78    5.91
  -5  -3 -12   59.14    4.73
  -5  -3 -12   57.28    4.24
  -5  -3  12   57.70    6.01
  -5  -3  12   51.12    5.15
  -5   3 -12   60.35    6.55
  -5   3 -12   59.91    5.83
  -5   3  12   55.72    5.51
  -5   3  12   58.09    4.95
   5  -3 -12   73.16    6.12
   5  -3 -12   61.65    5.38
   5  -3  12   64.19    6.07
   5  -3  12   81.30    5.87
   5   3 -12   66.47    6.46
   5   3 -12   54.96    5.63
   5   3  12   52.09    6.30
   5   3  12   64.25    6.17
  -5  -3 -13   63.88    7.02
  -5  -3 -13   66.58    6.32
  -5  -3  13   71.74    6.31
  -5  -3  13   71.61    5.60
  -5   3 -13   85.21    7.01
  -5   3 -13   88.94    6.35
  -5   3  13   83.86    6.13
  -5   3  13   77.40    5.37
   5  -3 -13   82.38    6.74
   5  -3 -13   80.34    5.81
   5  -3  13   72.83    6.68
   5  -3  13   98.50    6.63
   5   3 -13   81.47    6.96
   5   3 -13   67.31    5.99
   5   3  13   72.51    6.93
   5   3  13   81.96    6.65
  -5  -3 -14    6.25    4.24
  -5  -3 -14    5.44    3.54
  -5  -3  14    7.71    3.84
  -5  -3  14   10.40    3.24
  -5   3 -14    9.91    4.13
  -5   3 -14    8.61    3.45
  -5   3  14    7.85    3.60
  -5   3  14    9.77    3.13
   5  -3 -14   10.62    4.02
   5  -3 -14    7.92    3.22
   5  -3  14   13.39    4.07
   5  -3  14   16.70    3.96
   5   3 -14    7.96    4.22
   5   3 -14   10.19    3.54
   5   3  14    9.11    4.13
   5   3  14    6.63    3.78
  -5  -3 -15    5.13    4.31
  -5  -3 -15    0.40    3.72
  -5  -3  15    5.20    3.91
  -5  -3  15    4.80    3.23
  -5   3 -15    8.79    4.36
  -5   3 -15    8.33    3.82
  -5   3  15    8.06    3.90
   5  -3 -15    2.53    4.06
   5  -3 -15    8.74    3.39
   5  -3  15    8.30    4.44
   5  -3  15    7.43    3.94
   5   3 -15    7.12    4.23
   5   3 -15    9.35    3.61
   5   3  15    9.18    4.39
   5   3  15    6.16    4.00
  -5  -3 -16   30.96    4.92
  -5  -3 -16   24.63    4.27
  -5  -3  16   32.24    4.75
  -5  -3  16   19.83    3.69
  -5   3 -16   26.60    5.03
  -5   3 -16   18.80    4.06
   5  -3 -16   26.21    5.04
   5  -3 -16   14.94    3.88
   5  -3  16   23.13    5.00
   5  -3  16   32.78    4.72
   5   3 -16   25.50    4.85
   5   3 -16   22.45    4.07
   5   3  16   34.27    5.17
   5   3  16   31.63    4.55
  -5  -3 -17   61.05    5.98
  -5  -3 -17   44.93    4.73
  -5  -3  17   62.39    7.43
  -5  -3  17   54.99    6.63
  -5   3 -17   51.60    5.74
  -5   3 -17   42.22    4.67
   5  -3 -17   40.16    5.65
   5  -3 -17   32.22    4.38
   5  -3  17   57.05    5.76
   5  -3  17   63.58    7.80
   5   3 -17   46.37    5.49
   5   3 -17   56.61    6.93
   5   3  17   68.92    8.35
   5   3  17   73.49    7.75
  -5  -3 -18   71.01    8.77
  -5  -3 -18   47.80    4.87
  -5  -3  18   65.91    7.54
  -5  -3  18   65.66    6.93
  -5   3 -18   49.09    5.85
  -5   3 -18   39.11    4.73
   5  -3 -18   37.24    5.81
   5  -3 -18   39.72    4.81
   5  -3  18   49.22    5.90
   5  -3  18   79.86    8.42
   5   3 -18   92.50    8.88
   5   3 -18   60.71    7.06
   5   3  18   75.51    8.66
   5   3  18   76.34    8.31
  -5  -3 -19   17.87    5.29
  -5  -3 -19   14.48    4.31
  -5  -3  19   26.33    5.82
  -5   3 -19   12.82    5.28
  -5   3 -19    9.27    4.36
   5  -3 -19    8.06    5.27
   5  -3 -19   12.67    4.29
   5   3 -19   30.16    5.44
   5   3 -19   22.46    4.38
   5   3  19   24.66    5.49
   5   3  19   29.17    5.01
  -5  -5   0    5.44    2.21
  -5  -5   0    7.60    2.15
   5   5   0    7.18    2.12
  -5  -5  -1  493.72    5.40
  -5  -5   1  380.25    5.18
  -5   5  -1  431.50    3.75
   5   5  -1  399.84    5.17
   5   5   1  454.43    5.28
  -5  -5  -3  288.22    5.32
  -5  -5  -3  312.27    5.21
  -5  -5   3  224.48    4.63
  -5   5  -3  228.92    4.01
  -5   5  -3  306.48    3.39
  -5   5   3   13.75    1.62
   5  -5  -3  250.52    3.92
   5  -5   3  239.92    3.99
   5   5  -3  243.49    4.85
   5   5   3  282.04    5.18
   5   5   3  310.17    5.11
  -5  -5  -4   50.39    4.37
  -5  -5  -4   52.77    4.30
  -5  -5   4   46.62    4.13
  -5  -5   4   32.75    3.85
  -5   5  -4   45.94    3.46
  -5   5  -4   59.95    3.21
  -5   5   4   40.02    3.19
  -5   5   4   46.08    2.92
   5  -5  -4   44.14    3.24
   5  -5   4   42.01    3.37
   5  -5   4   54.81    2.73
   5   5  -4   41.76    4.04
   5   5   4   48.84    4.19
   5   5   4   56.10    4.12
  -5  -5  -5  119.70    4.85
  -5  -5  -5  125.55    4.71
  -5  -5   5  109.84    4.58
  -5  -5   5   94.64    4.14
  -5   5  -5  102.88    4.01
  -5   5  -5  134.83    3.84
  -5   5   5   90.73    3.73
   5  -5  -5   95.97    3.79
   5  -5  -5  103.71    3.16
   5  -5   5  102.06    3.97
   5  -5   5  132.10    3.56
   5   5  -5  115.75    4.85
   5   5  -5   98.29    4.41
   5   5   5  116.41    4.73
   5   5   5  122.45    4.43
  -5  -5  -6    2.05    2.56
  -5  -5  -6    4.11    2.33
  -5  -5   6    6.54    2.57
  -5  -5   6    3.38    2.21
  -5   5  -6    3.39    2.26
  -5   5  -6    3.86    2.08
  -5   5   6    2.45    2.06
  -5   5   6    1.55    1.82
   5  -5  -6    3.48    2.14
   5  -5  -6    2.38    1.79
   5  -5   6    1.00    2.27
   5  -5   6    6.73    2.03
   5   5  -6    2.31    2.47
   5   5  -6    2.44    2.29
   5   5   6    1.48    2.51
   5   5   6    2.78    2.25
  -5  -5  -7    5.74    2.75
  -5  -5  -7    1.97    2.44
  -5  -5   7    3.26    2.54
  -5  -5   7    1.68    2.24
  -5   5  -7    1.34    2.41
  -5   5  -7    0.16    2.18
  -5   5   7    0.41    2.14
  -5   5   7    1.03    1.96
   5  -5  -7    2.70    2.20
   5  -5  -7    0.86    2.00
   5  -5   7    2.27    2.28
   5  -5   7    2.97    2.11
   5   5  -7    3.43    2.60
   5   5  -7    2.33    2.27
   5   5   7    5.06    2.60
   5   5   7    3.82    2.34
  -5  -5  -8    5.60    2.89
  -5  -5  -8    6.19    2.61
  -5  -5   8    4.52    2.64
  -5  -5   8    5.70    2.44
  -5   5  -8    3.68    2.66
  -5   5  -8    4.82    2.38
  -5   5   8    4.06    2.42
  -5   5   8    2.38    2.19
   5  -5  -8    3.66    2.57
   5  -5  -8    1.02    2.16
   5  -5   8    2.58    2.53
   5  -5   8    9.51    2.49
   5   5  -8    3.08    2.82
   5   5  -8    2.38    2.50
   5   5   8    5.87    2.84
   5   5   8    6.45    2.56
  -5  -5  -9   11.28    3.18
  -5  -5  -9    8.30    2.80
  -5  -5   9    7.88    2.97
  -5  -5   9    6.88    2.62
  -5   5  -9    8.41    2.92
  -5   5  -9    4.64    2.77
  -5   5   9    7.99    2.63
  -5   5   9    7.78    2.43
   5  -5  -9    7.83    2.77
   5  -5  -9    4.71    2.30
   5  -5   9    6.18    2.88
   5  -5   9    8.90    2.61
   5   5  -9    4.51    3.04
   5   5  -9    6.20    2.75
   5   5   9    8.04    3.06
   5   5   9    7.14    2.84
  -5  -5 -10  328.78    7.45
  -5  -5 -10  352.92    6.96
  -5  -5  10  300.90    6.92
  -5  -5  10  289.36    6.39
  -5   5 -10  305.03    7.15
  -5   5 -10  339.69    6.78
  -5   5  10  297.99    6.50
  -5   5  10  282.04    5.74
   5  -5 -10  325.41    6.81
   5  -5 -10  301.82    5.74
   5  -5  10  306.61    6.92
   5  -5  10  379.01    6.73
   5   5 -10  334.75    7.57
   5   5 -10  316.05    6.82
   5   5  10  351.35    7.45
   5   5  10  394.27    7.16
  -5  -5 -11  737.32    9.91
  -5  -5 -11  742.70    9.08
  -5  -5  11  666.79    9.38
  -5  -5  11  676.74    8.58
  -5   5 -11  667.24    9.39
  -5   5 -11  729.51    8.90
  -5   5  11  624.59    8.51
  -5   5  11  649.22    7.92
   5  -5 -11  718.87    9.19
   5  -5 -11  675.61    7.90
   5  -5  11  706.33    9.36
   5  -5  11  863.35    9.13
   5   5 -11  746.68   10.05
   5   5 -11  677.12    8.79
   5   5  11  800.47   10.29
   5   5  11  833.88    9.58
  -5  -5 -12  448.81    9.18
  -5  -5 -12  457.93    8.37
  -5  -5  12  429.50    8.55
  -5  -5  12  408.48    7.55
  -5   5 -12  432.85    8.72
  -5   5 -12  463.30    8.22
  -5   5  12  411.37    7.95
  -5   5  12  389.30    6.99
   5  -5 -12  444.39    8.39
   5  -5 -12  432.32    7.27
   5  -5  12  460.31    8.68
   5  -5  12  549.60    8.34
   5   5 -12  476.32    9.17
   5   5 -12  431.86    7.85
   5   5  12  465.59    9.08
   5   5  12  530.58    8.86
  -5  -5 -13  162.16    7.93
  -5  -5 -13  148.82    6.94
  -5  -5  13  169.44    7.36
  -5  -5  13  160.16    6.28
  -5   5 -13  168.84    7.69
  -5   5 -13  169.52    6.96
  -5   5  13  164.21    6.71
  -5   5  13  154.44    7.01
   5  -5 -13  175.64    7.34
   5  -5 -13  162.89    6.29
   5  -5  13  166.37    7.38
   5  -5  13  206.11    7.20
   5   5 -13  190.09    7.99
   5   5 -13  163.10    6.75
   5   5  13  179.91    7.72
   5   5  13  188.30    7.50
  -5  -5 -14   86.88    7.53
  -5  -5 -14   75.35    6.79
  -5  -5  14   91.24    6.98
  -5  -5  14   77.82    5.79
  -5   5 -14   87.56    7.47
  -5   5 -14   77.25    6.92
  -5   5  14   89.60    6.47
   5  -5 -14  101.04    7.36
   5  -5 -14   91.92    6.15
   5  -5  14   88.89    7.45
   5  -5  14   95.12    6.74
   5   5 -14   95.53    7.52
   5   5 -14   82.50    6.57
   5   5  14   78.19    7.40
   5   5  14  100.68    7.36
  -5  -5 -15   21.99    4.68
  -5  -5 -15   16.25    3.94
  -5  -5  15   19.40    4.31
  -5  -5  15   15.87    3.56
  -5   5 -15   16.48    4.59
  -5   5 -15   15.17    3.89
   5  -5 -15   19.36    4.43
   5  -5 -15   12.17    3.49
   5  -5  15   18.49    4.57
   5  -5  15   20.21    4.19
   5   5 -15   20.05    4.59
   5   5 -15   15.39    3.79
   5   5  15   19.71    4.54
   5   5  15   22.48    4.22
  -5  -5 -16   -1.97    4.61
  -5  -5 -16    1.94    3.81
  -5  -5  16   -3.84    4.07
  -5  -5  16   -2.13    3.39
  -5   5 -16   -3.22    4.48
  -5   5 -16   -2.53    3.84
   5  -5 -16   -8.56    4.23
   5  -5 -16   -1.07    3.37
   5  -5  16   -0.40    4.39
   5  -5  16   -1.78    3.87
   5   5 -16   -4.99    4.31
   5   5 -16    0.48    3.81
   5   5  16    0.72    4.36
   5   5  16    2.42    3.92
  -5  -5 -17    1.77    4.55
  -5  -5 -17    0.00    3.77
  -5  -5  17    4.90    4.33
  -5  -5  17    1.63    3.51
  -5   5 -17   -0.18    4.65
  -5   5 -17    1.17    3.91
   5  -5 -17  -11.38    4.46
   5  -5 -17   -8.29    3.56
   5  -5  17    5.69    4.73
   5  -5  17    1.18    4.25
   5   5 -17   -1.84    4.63
   5   5 -17    3.32    3.76
   5   5  17    0.99    4.58
   5   5  17   -0.32    4.19
  -5  -5 -18    1.87    4.83
  -5  -5 -18    2.04    3.84
  -5  -5  18   10.62    4.52
  -5  -5  18    3.95    3.68
  -5   5 -18    0.65    4.96
  -5   5 -18    0.31    4.24
   5  -5 -18  -13.08    4.60
   5  -5 -18   -4.53    3.73
   5   5 -18    4.51    4.79
   5   5 -18    6.16    3.90
   5   5  18    3.70    4.70
   5   5  18   10.73    4.38
  -5  -5 -19    9.34    5.10
  -5  -5 -19    5.50    4.02
  -5  -5  19    9.52    4.76
  -5  -5  19    7.07    3.80
  -5   5 -19   -2.37    4.22
   5  -5 -19    1.11    4.90
   5  -5 -19   -0.19    3.94
   5   5 -19   10.57    5.24
   5   5 -19   10.06    4.04
   5   5  19    8.47    6.10
  -5  -7   2  465.43    5.61
  -5   7  -2  443.42    3.84
  -5   7   2  450.35    3.67
   5  -7   2  490.08    3.97
   5   7  -2  485.75    5.75
   5   7   2  594.57    5.93
  -5  -7   3  679.07    6.30
  -5   7  -3  674.56    4.98
  -5   7   3  692.98    4.81
   5  -7   3  706.71    5.11
   5   7  -3  726.15    6.63
  -5  -7  -4  140.89    4.81
  -5  -7  -4  147.20    4.73
  -5  -7   4  140.14    4.81
  -5  -7   4  111.00    4.28
  -5   7  -4  121.51    3.75
  -5   7  -4  166.77    3.16
  -5   7   4  132.52    2.74
   5  -7  -4  119.43    3.44
   5  -7   4  117.51    3.59
   5   7  -4  122.21    4.50
   5   7   4  149.25    4.76
   5   7   4  147.06    4.66
  -5  -7  -5    9.26    2.71
  -5  -7  -5    6.31    2.29
  -5  -7   5    9.96    2.58
  -5  -7   5    6.20    2.24
  -5   7  -5    5.89    2.06
  -5   7  -5    9.11    1.88
  -5   7   5    5.42    1.89
  -5   7   5    7.75    1.70
   5  -7  -5    5.73    2.01
   5  -7   5    2.46    2.03
   5  -7   5    7.57    1.52
   5   7  -5    7.60    2.39
   5   7   5    7.61    2.51
   5   7   5    3.76    2.25
  -5  -7  -6   50.09    4.58
  -5  -7  -6   44.21    4.27
  -5  -7   6   47.96    4.39
  -5  -7   6   39.96    4.02
  -5   7  -6   45.54    3.98
  -5   7  -6   59.96    3.69
  -5   7   6   37.13    3.49
  -5   7   6   41.56    3.08
   5  -7  -6   39.02    3.68
   5  -7  -6   41.79    2.88
   5  -7   6   45.40    3.79
   5  -7   6   62.07    3.31
   5   7  -6   44.34    4.76
   5   7  -6   38.46    4.27
   5   7   6   52.26    4.58
   5   7   6   48.12    4.25
  -5  -7  -7   -0.01    2.70
  -5  -7  -7   -0.15    2.35
  -5  -7   7   -2.09    2.56
  -5  -7   7    1.10    2.28
  -5   7  -7    0.96    2.45
  -5   7  -7   -0.47    2.15
  -5   7   7    0.90    2.15
  -5   7   7   -1.15    1.43
   5  -7  -7   -2.25    2.08
   5  -7  -7   -2.43    1.81
   5  -7   7    0.95    2.25
   5  -7   7   -0.24    2.03
   5   7  -7   -1.18    2.68
   5   7  -7   -1.18    2.34
   5   7   7   -1.48    2.60
   5   7   7    0.37    2.40
  -5  -7  -8    6.85    3.17
  -5  -7  -8    7.98    2.83
  -5  -7   8   13.93    2.96
  -5  -7   8   10.72    2.53
  -5   7  -8   13.71    2.89
  -5   7  -8   12.52    2.58
  -5   7   8    7.99    2.52
  -5   7   8   14.00    2.31
   5  -7  -8   10.38    2.57
   5  -7  -8   11.42    2.29
   5  -7   8   11.84    2.70
   5  -7   8   15.46    2.51
   5   7  -8   13.04    3.09
   5   7  -8    7.45    2.66
   5   7   8   14.68    3.15
   5   7   8   11.70    2.80
  -5  -7  -9   73.76    5.62
  -5  -7  -9   68.77    5.15
  -5  -7   9   60.95    5.36
  -5  -7   9   56.23    4.71
  -5   7  -9   64.45    5.19
  -5   7  -9   67.70    4.93
  -5   7   9   60.91    4.45
  -5   7   9   61.02    4.15
   5  -7  -9   66.23    4.93
   5  -7  -9   66.00    4.19
   5  -7   9   64.75    5.18
   5  -7   9   84.17    4.75
   5   7  -9   65.76    5.67
   5   7  -9   54.59    5.32
   5   7   9   72.64    5.67
   5   7   9   79.42    5.26
  -5  -7 -10  316.83    7.58
  -5  -7 -10  336.78    6.91
  -5  -7  10  313.57    7.23
  -5  -7  10  295.67    6.50
  -5   7 -10  311.16    7.27
  -5   7 -10  331.17    6.58
  -5   7  10  288.91    6.30
  -5   7  10  279.81    5.69
   5  -7 -10  307.04    6.64
   5  -7 -10  315.37    5.71
   5  -7  10  304.16    6.99
   5  -7  10  372.91    6.47
   5   7 -10  337.65    7.70
   5   7 -10  318.67    6.95
   5   7  10  367.93    7.86
   5   7  10  397.27    7.27
  -5  -7 -11  441.59    8.56
  -5  -7 -11  462.79    7.97
  -5  -7  11  434.32    8.15
  -5  -7  11  396.25    7.29
  -5   7 -11  397.31    8.18
  -5   7 -11  430.98    7.81
  -5   7  11  399.09    7.45
  -5   7  11  396.84    6.66
   5  -7 -11  378.40    7.54
   5  -7 -11  423.77    6.56
   5  -7  11  407.14    8.04
   5  -7  11  517.84    7.84
   5   7 -11  477.59    8.83
   5   7 -11  392.85    7.61
   5   7  11  484.46    8.79
   5   7  11  533.50    8.37
  -5  -7 -12  568.98    9.79
  -5  -7 -12  573.45    8.90
  -5  -7  12  559.84    9.42
  -5  -7  12  515.81    8.14
  -5   7 -12  522.97    9.44
  -5   7 -12  547.71    8.69
  -5   7  12  510.63    8.50
   5  -7 -12  531.20    8.79
   5  -7 -12  541.29    7.62
   5  -7  12  544.10    9.21
   5  -7  12  664.09    8.84
   5   7 -12  604.91    9.98
   5   7 -12  534.35    8.55
   5   7  12  671.39   10.16
   5   7  12  668.29    9.52
  -5  -7 -13  476.02    9.74
  -5  -7 -13  471.68    8.88
  -5  -7  13  454.21    9.34
  -5  -7  13  428.33    7.99
  -5   7 -13  465.18    9.59
  -5   7 -13  465.01    8.80
   5  -7 -13  443.57    8.81
   5  -7 -13  459.23    7.67
   5  -7  13  491.69    9.67
   5  -7  13  577.06    8.98
   5   7 -13  536.37   10.17
   5   7 -13  451.18    8.62
   5   7  13  536.62   10.17
   5   7  13  555.79    9.51
  -5  -7 -14  146.27    8.26
  -5  -7 -14  142.60    7.42
  -5  -7  14  146.00    7.66
  -5  -7  14  129.13    6.35
  -5   7 -14  139.25    8.05
  -5   7 -14  130.76    7.07
   5  -7 -14  152.13    7.53
   5  -7 -14  142.51    6.56
   5  -7  14  142.67    7.81
   5  -7  14  165.98    7.39
   5   7 -14  148.34    8.20
   5   7 -14  138.31    7.03
   5   7  14  153.20    7.94
   5   7  14  175.42    7.86
  -5  -7 -15   24.18    4.68
  -5  -7 -15   20.22    4.07
  -5  -7  15   16.66    4.31
  -5  -7  15   19.22    3.68
  -5   7 -15   20.48    4.59
  -5   7 -15   15.19    3.95
   5  -7 -15   28.29    4.42
   5  -7 -15   21.99    3.67
   5  -7  15   29.10    4.82
   5  -7  15   31.61    4.42
   5   7 -15   25.34    4.79
   5   7 -15   15.44    3.85
   5   7  15   30.36    4.95
   5   7  15   30.92    4.48
  -5  -7 -16   11.73    4.77
  -5  -7 -16    9.80    3.93
  -5  -7  16    7.05    4.45
  -5  -7  16   -0.60    3.43
  -5   7 -16    6.23    4.53
  -5   7 -16    9.36    4.22
   5  -7 -16   12.97    4.44
   5  -7 -16    9.28    3.68
   5  -7  16   10.00    4.54
   5  -7  16    8.29    4.16
   5   7 -16    3.80    4.75
   5   7 -16    9.87    3.89
   5   7  16   18.33    4.75
   5   7  16   13.75    4.24
  -5  -7 -17    6.66    4.85
  -5  -7 -17    2.70    3.96
  -5  -7  17    1.15    4.39
  -5  -7  17    3.04    3.67
  -5   7 -17    3.89    4.73
  -5   7 -17    4.81    4.08
   5  -7 -17    2.74    4.48
   5  -7 -17    1.26    3.53
   5  -7  17    4.00    4.76
   5  -7  17   12.66    5.08
   5   7 -17    4.99    4.97
   5   7 -17    7.13    4.16
   5   7  17    8.46    4.66
  -5  -7 -18   26.08    5.15
  -5  -7 -18   14.47    4.18
  -5  -7  18   27.84    5.18
  -5  -7  18   20.07    4.06
  -5   7 -18   27.62    5.41
  -5   7 -18   17.57    4.42
   5  -7 -18   22.55    5.03
   5  -7 -18   23.52    4.04
   5   7 -18   23.89    5.50
   5   7 -18   22.33    4.24
  -5  -7 -19    1.68    4.93
  -5  -7 -19   -2.30    3.90
  -5  -7  19   -0.42    4.48
  -5  -7  19    2.00    3.97
  -5   7 -19   -3.56    4.04
   5  -7 -19   -4.78    4.68
   5  -7 -19   -1.17    3.67
   5   7 -19   -6.13    5.02
   5   7 -19   -0.04    4.03
  -5  -9   0  403.36    5.28
  -5  -9   0  328.83    5.14
   5   9   0  387.40    5.27
   5   9   0  328.75    5.07
  -5  -9  -1  580.05    6.11
  -5  -9   1  670.77    6.22
  -5  -9   1  532.73    5.75
   5   9  -1  590.53    6.29
   5   9   1  700.57    6.37
  -5  -9  -2  563.35    6.13
  -5  -9   2  517.53    5.73
  -5  -9   2  423.57    5.52
  -5   9  -2  399.86    3.42
   5  -9   2  435.30    3.51
   5   9  -2  467.12    5.92
   5   9   2  577.46    6.23
  -5  -9  -3    3.60    2.51
  -5  -9  -3    3.81    2.21
  -5  -9   3    5.89    2.17
  -5   9  -3    2.33    1.63
  -5   9   3    3.65    1.50
   5  -9  -3    4.30    1.51
   5  -9   3    3.24    1.60
   5   9  -3    4.44    2.29
   5   9   3    4.39    2.24
  -5  -9  -4    5.19    2.58
  -5  -9  -4    2.53    2.29
  -5  -9   4    3.22    2.09
  -5   9  -4    1.92    1.84
  -5   9   4    3.48    1.70
   5  -9  -4    2.38    1.64
   5  -9   4    2.95    1.74
   5   9  -4    0.71    2.30
   5   9   4    5.35    2.35
   5   9   4    1.34    2.29
  -5  -9  -5    5.91    2.53
  -5  -9  -5    7.42    2.35
  -5  -9   5    0.42    2.46
  -5  -9   5    6.00    2.25
  -5   9  -5    4.89    2.04
  -5   9  -5    5.57    1.68
  -5   9   5    5.35    1.51
   5  -9  -5    5.74    1.88
   5  -9   5    6.25    2.02
   5   9  -5    4.79    2.31
   5   9   5    5.48    2.44
   5   9   5    6.62    2.32
  -5  -9  -6  245.10    5.94
  -5  -9  -6  243.16    5.52
  -5  -9   6  232.06    5.72
  -5  -9   6  205.02    5.08
  -5   9  -6  213.07    4.84
  -5   9  -6  282.72    4.51
  -5   9   6  207.75    4.38
  -5   9   6  228.58    3.83
   5  -9  -6  217.40    4.49
   5  -9   6  214.83    4.72
   5  -9   6  289.69    3.56
   5   9  -6  210.60    5.54
   5   9   6  258.20    5.92
   5   9   6  264.94    5.59
  -5  -9  -7  512.72    7.72
  -5  -9  -7  541.92    7.04
  -5  -9   7  518.57    7.56
  -5  -9   7  466.34    6.55
  -5   9  -7  449.89    6.39
  -5   9  -7  601.71    6.27
  -5   9   7  449.87    5.94
  -5   9   7  475.87    5.29
   5  -9  -7  453.00    6.04
   5  -9  -7  519.88    4.47
   5  -9   7  453.36    6.25
   5  -9   7  660.78    5.53
   5   9  -7  530.59    7.82
   5   9  -7  490.60    6.90
   5   9   7  578.38    7.93
   5   9   7  586.28    7.43
  -5  -9  -8  165.63    6.24
  -5  -9  -8  175.87    5.72
  -5  -9   8  165.40    6.01
  -5  -9   8  156.09    5.25
  -5   9  -8  160.50    5.41
  -5   9  -8  186.73    5.03
  -5   9   8  138.65    4.73
   5  -9  -8  154.29    5.06
   5  -9  -8  165.52    3.98
   5  -9   8  148.95    5.21
   5  -9   8  214.72    4.66
   5   9  -8  188.13    6.40
   5   9  -8  158.97    5.63
   5   9   8  179.60    6.28
   5   9   8  195.96    5.80
  -5  -9  -9    1.78    3.31
  -5  -9  -9   -0.14    2.79
  -5  -9   9    4.69    3.06
  -5  -9   9    2.86    2.63
  -5   9  -9   -0.17    2.94
  -5   9  -9   -1.54    2.63
  -5   9   9    2.87    2.61
  -5   9   9    1.68    2.19
   5  -9  -9    3.27    2.59
   5  -9  -9    3.28    2.22
   5  -9   9    2.17    2.74
   5  -9   9    2.79    2.37
   5   9  -9   -2.06    3.10
   5   9  -9    0.32    2.83
   5   9   9   -0.78    3.26
   5   9   9   -2.56    2.77
  -5  -9 -10  163.77    6.78
  -5  -9 -10  168.22    6.11
  -5  -9  10  156.08    6.45
  -5  -9  10  158.48    5.82
  -5   9 -10  147.16    6.11
  -5   9 -10  155.88    5.79
  -5   9  10  151.15    5.61
  -5   9  10  154.94    4.96
   5  -9 -10  155.06    5.86
   5  -9 -10  164.60    5.01
   5  -9  10  149.40    5.97
   5  -9  10  191.32    5.60
   5   9 -10  183.93    6.97
   5   9 -10  157.72    6.16
   5   9  10  179.79    6.82
   5   9  10  199.07    6.38
  -5  -9 -11  444.80    8.72
  -5  -9 -11  433.86    7.79
  -5  -9  11  435.54    8.69
  -5  -9  11  399.53    7.31
  -5   9 -11  385.04    8.14
  -5   9 -11  410.87    7.63
  -5   9  11  388.89    7.43
   5  -9 -11  402.65    7.59
   5  -9 -11  433.73    6.51
   5  -9  11  385.21    8.03
   5   9 -11  459.62    9.07
   5   9 -11  394.75    7.81
   5   9  11  495.35    9.04
   5   9  11  516.59    8.41
  -5  -9 -12  336.21    8.62
  -5  -9 -12  323.72    7.51
  -5  -9  12  334.49    8.38
  -5  -9  12  299.99    7.08
  -5   9 -12  295.26    8.27
  -5   9 -12  294.47    7.69
   5  -9 -12  305.65    7.66
   5  -9 -12  312.73    6.45
   5  -9  12  295.94    7.99
   5  -9  12  374.34    7.53
   5   9 -12  361.06    8.85
   5   9 -12  309.40    7.52
   5   9  12  394.95    9.10
   5   9  12  403.82    8.38
  -5  -9 -13  168.67    8.10
  -5  -9 -13  156.82    6.97
  -5  -9  13  166.65    7.54
  -5  -9  13  153.12    6.31
  -5   9 -13  133.02    7.56
  -5   9 -13  135.80    7.09
   5  -9 -13  159.25    7.20
   5  -9 -13  151.27    6.20
   5  -9  13  142.28    7.43
   5  -9  13  176.14    7.01
   5   9 -13  179.74    8.06
   5   9 -13  149.34    7.04
   5   9  13  173.58    8.12
   5   9  13  184.45    7.51
  -5  -9 -14  115.86    7.99
  -5  -9 -14  110.26    6.95
  -5  -9  14   98.73    7.32
  -5  -9  14   98.70    6.27
  -5   9 -14   90.78    7.74
  -5   9 -14   87.17    7.09
   5  -9 -14  107.87    7.06
   5  -9 -14  107.59    6.30
   5  -9  14  101.10    7.64
   5  -9  14  111.85    6.95
   5   9 -14  107.44    7.93
   5   9 -14   88.42    6.77
   5   9  14  132.90    7.84
   5   9  14  136.25    7.44
  -5  -9 -15    7.12    4.71
  -5  -9 -15    7.31    3.79
  -5  -9  15   -0.60    4.13
  -5  -9  15    1.73    3.42
  -5   9 -15   10.70    4.51
  -5   9 -15    1.29    3.69
   5  -9 -15    8.06    4.16
   5  -9 -15    5.97    3.40
   5  -9  15    5.91    4.39
   5  -9  15    7.88    3.99
   5   9 -15    4.72    4.61
   5   9 -15    8.73    3.94
   5   9  15    7.50    4.46
  -5  -9 -16   54.08    5.60
  -5  -9 -16   46.30    4.61
  -5  -9  16   48.90    5.40
  -5  -9  16   44.78    4.65
  -5   9 -16   68.57    8.09
  -5   9 -16   37.28    4.51
   5  -9 -16   48.72    5.10
   5  -9 -16   55.12    6.54
   5  -9  16   54.03    5.43
   5  -9  16   77.24    7.56
   5   9 -16   51.66    5.86
   5   9 -16   41.37    4.66
  -5  -9 -17   41.83    5.48
  -5  -9 -17   38.80    4.77
  -5  -9  17   36.71    5.27
  -5  -9  17   29.70    4.38
  -5   9 -17   42.00    5.28
  -5   9 -17   30.71    4.51
   5  -9 -17   44.00    5.21
   5  -9 -17   36.07    4.08
   5   9 -17   45.14    5.98
   5   9 -17   29.80    4.60
  -5  -9 -18   -0.66    5.02
  -5  -9 -18   -3.78    3.98
  -5  -9  18   -1.00    4.63
  -5  -9  18    4.23    3.95
  -5   9 -18    4.24    4.10
   5  -9 -18    3.89    4.54
   5  -9 -18    8.80    3.73
   5   9 -18    4.27    5.29
   5   9 -18    3.83    4.18
  -5 -11   0  731.67    6.53
  -5 -11   0  554.93    5.92
   5  11   0  586.11    6.38
  -5 -11  -1  234.19    4.79
  -5 -11  -1  187.50    4.59
  -5 -11   1  246.80    4.73
  -5 -11   1  183.85    4.44
   5  11  -1  233.58    4.89
   5  11  -1  198.49    4.78
   5  11   1  235.83    4.85
   5  11   1  193.51    4.75
  -5 -11  -2   -1.45    2.08
  -5 -11  -2   -1.86    2.16
  -5 -11   2    2.65    2.16
  -5 -11   2    0.52    2.08
   5  11  -2    0.52    2.21
   5  11   2   -1.05    2.15
  -5 -11  -3   11.35    2.68
  -5 -11  -3   10.68    2.38
  -5 -11   3    9.79    2.21
  -5 -11   3    9.99    2.26
  -5  11  -3    6.47    1.57
  -5  11   3    8.90    1.48
   5 -11  -3    9.41    1.48
   5 -11   3    7.30    1.52
   5  11  -3    7.23    2.28
   5  11   3    8.66    2.37
  -5 -11  -4  329.91    6.09
  -5 -11  -4  354.31    5.54
  -5 -11   4  274.94    5.20
  -5  11  -4  265.15    4.03
  -5  11   4  273.10    3.79
   5 -11  -4  271.79    3.79
   5 -11   4  259.52    3.97
   5  11  -4  295.53    5.65
   5  11   4  371.93    5.78
  -5 -11  -7  908.46    9.45
  -5 -11  -7  890.07    8.39
  -5 -11   7  897.14    9.51
  -5 -11   7  759.10    7.90
  -5  11  -7  779.29    7.72
  -5  11  -7  961.12    7.26
  -5  11   7  746.50    7.08
  -5  11   7  826.62    6.19
   5 -11  -7  738.38    7.01
   5 -11   7  743.43    7.35
   5  11  -7  981.75    9.91
   5  11  -7  804.55    8.37
   5  11   7  925.94    9.44
   5  11   7  997.35    9.02
  -5 -11  -8  265.46    6.98
  -5 -11  -8  260.45    6.05
  -5 -11   8  263.28    6.79
  -5 -11   8  241.43    5.77
  -5  11  -8  240.24    5.89
  -5  11  -8  274.06    5.43
  -5  11   8  236.97    5.40
  -5  11   8  248.67    4.74
   5 -11  -8  236.38    5.36
   5 -11  -8  274.55    3.85
   5 -11   8  230.83    5.54
   5 -11   8  336.54    4.85
   5  11  -8  290.24    7.20
   5  11  -8  244.50    6.31
   5  11   8  311.04    7.19
   5  11   8  301.84    6.69
  -5 -11  -9    0.64    3.40
  -5 -11  -9   -3.78    2.82
  -5 -11   9    2.71    3.16
  -5 -11   9    3.51    2.66
  -5  11  -9    4.60    2.91
  -5  11  -9    3.19    2.64
  -5  11   9    5.12    2.61
   5 -11  -9    5.01    2.62
   5 -11  -9    4.49    2.13
   5 -11   9    1.95    2.80
   5 -11   9    2.50    2.27
   5  11  -9    1.92    3.49
   5  11  -9    4.22    3.01
   5  11   9   -2.19    3.21
   5  11   9    2.85    2.94
  -5 -11 -10   36.90    4.20
  -5 -11 -10   32.84    3.58
  -5 -11  10   33.98    4.09
  -5 -11  10   26.33    3.26
  -5  11 -10   29.47    3.58
  -5  11 -10   29.96    3.38
  -5  11  10   27.35    3.26
   5 -11 -10   34.29    3.42
   5 -11 -10   30.48    2.67
   5 -11  10   25.41    3.47
   5 -11  10   38.24    3.25
   5  11 -10   37.27    4.19
   5  11 -10   26.38    3.41
   5  11  10   35.67    4.12
   5  11  10   34.81    3.64
  -5 -11 -11   76.48    6.69
  -5 -11 -11   72.16    6.07
  -5 -11  11   76.15    6.44
  -5 -11  11   64.05    5.41
  -5  11 -11   52.84    6.10
  -5  11 -11   50.50    5.73
   5 -11 -11   56.22    5.58
   5 -11 -11   71.11    4.85
   5 -11  11   54.64    4.27
   5 -11  11   65.38    5.28
   5  11 -11   85.66    6.88
   5  11 -11   62.94    6.02
   5  11  11   83.25    6.83
   5  11  11   90.92    6.23
  -5 -11 -12  141.22    7.41
  -5 -11 -12  125.68    6.34
  -5 -11  12  137.80    7.13
  -5 -11  12  115.84    5.90
  -5  11 -12  109.20    7.00
  -5  11 -12  106.19    6.57
   5 -11 -12  126.41    6.47
   5 -11 -12  121.82    5.52
   5 -11  12  113.24    6.66
   5 -11  12  133.43    6.22
   5  11 -12  146.18    7.69
   5  11 -12  119.34    6.57
   5  11  12  150.60    7.62
   5  11  12  164.22    7.26
  -5 -11 -13   53.15    4.92
  -5 -11 -13   40.51    4.09
  -5 -11  13   58.85    7.01
  -5 -11  13   34.08    3.70
  -5  11 -13   40.36    4.69
  -5  11 -13   33.32    4.20
   5 -11 -13   37.64    4.21
   5 -11 -13   41.48    3.60
   5 -11  13   33.91    4.37
   5 -11  13   50.34    4.21
   5  11 -13   49.65    5.04
   5  11 -13   36.49    4.13
   5  11  13   50.63    4.98
  -5 -11 -14   27.49    4.83
  -5 -11 -14   29.87    3.93
  -5 -11  14   22.10    4.55
  -5 -11  14   26.60    3.75
  -5  11 -14   27.24    4.57
  -5  11 -14   28.18    4.16
   5 -11 -14   26.93    4.25
   5 -11 -14   24.27    3.54
   5 -11  14   30.75    4.54
   5 -11  14   39.21    4.17
   5  11 -14   30.35    4.86
   5  11 -14   26.27    4.15
   5  11  14   39.09    5.22
  -5 -11 -15  138.60    8.57
  -5 -11 -15  132.75    7.29
  -5 -11  15  122.22    8.32
  -5 -11  15  106.97    6.71
  -5  11 -15  135.28    8.34
  -5  11 -15  129.75    7.60
   5 -11 -15  142.37    7.81
   5 -11 -15  121.36    6.57
   5 -11  15  150.93    8.22
   5 -11  15  174.72    7.56
   5  11 -15  130.15    8.77
   5  11 -15  111.67    7.51
  -5 -11 -16   32.98    5.26
  -5 -11 -16   29.45    4.25
  -5 -11  16   21.21    4.92
  -5 -11  16   18.87    4.06
  -5  11 -16   31.48    5.03
  -5  11 -16   28.15    4.30
   5 -11 -16   32.86    4.62
   5 -11 -16   33.62    3.91
   5  11 -16   22.93    5.31
   5  11 -16   19.74    4.61
  -5 -11 -17   28.32    5.16
  -5 -11 -17   19.84    4.32
  -5 -11  17   25.10    5.16
  -5 -11  17   18.52    4.23
  -5  11 -17   27.56    4.55
   5 -11 -17   42.44    5.09
   5 -11 -17   33.07    3.98
   5  11 -17   34.32    5.96
   5  11 -17   20.63    4.50
  -5 -11 -18   39.68    5.73
  -5 -11 -18   31.51    4.53
  -5  11 -18   39.08    5.62
   5 -11 -18   45.28    5.15
   5 -11 -18   61.11    6.58
   5  11 -18   44.35    6.27
   5  11 -18   35.91    5.03
  -5 -13   0   48.81    3.95
  -5 -13   0   34.70    3.79
   5  13   0   38.71    3.93
   5  13   0   34.81    2.80
  -5 -13  -1   11.96    2.40
  -5 -13  -1   12.14    2.29
  -5 -13   1   15.75    2.39
  -5 -13   1    7.20    2.24
   5  13  -1   13.57    2.40
   5  13  -1   12.21    2.50
   5  13   1   16.12    2.45
   5  13   1   11.31    2.38
  -5 -13  -2   38.29    3.95
  -5 -13  -2   37.10    4.08
  -5 -13   2   38.21    3.95
  -5 -13   2   26.28    2.50
   5  13  -2   28.80    2.80
   5  13   2   38.61    4.25
  -5 -13   3  885.54    7.34
  -5  13  -3  906.83    5.21
   5 -13   3  866.39    5.07
   5  13  -3  935.91    7.95
  -5 -13  -5 1132.00    8.59
  -5 -13   5 1032.00    9.61
  -5 -13   5  938.31    8.12
  -5  13  -5  944.68    6.89
  -5  13   5  959.91    6.43
   5 -13  -5  936.46    6.37
   5 -13   5  898.72    6.67
   5  13  -5 1009.00    8.88
  -5 -13  -6  902.05    9.40
  -5 -13  -6  864.19    8.09
  -5 -13   6  852.71    9.29
  -5 -13   6  745.81    7.69
  -5  13  -6  735.69    6.90
  -5  13  -6  987.49    6.31
  -5  13   6  793.76    6.50
  -5  13   6  817.11    5.05
   5 -13  -6  759.11    6.54
   5 -13   6  711.56    6.78
   5  13  -6  789.73    8.44
   5  13   6  925.44    9.27
   5  13   6 1001.00    8.94
  -5 -13  -7 1086.00   10.39
  -5 -13  -7 1075.00    9.17
  -5 -13   7 1062.00   10.37
  -5 -13   7  904.59    8.55
  -5  13  -7  925.58    8.22
  -5  13  -7 1127.00    7.60
  -5  13   7  968.00    6.40
   5 -13  -7  888.47    7.49
   5 -13   7  883.00    7.93
   5  13  -7  926.85    9.05
   5  13   7 1167.00   10.73
   5  13   7 1176.00    9.73
  -5 -13  -8  729.02    9.45
  -5 -13  -8  645.83    7.81
  -5 -13   8  667.20    9.15
  -5 -13   8  574.79    7.61
  -5  13  -8  580.64    7.51
  -5  13  -8  705.65    7.11
  -5  13   8  571.83    6.77
  -5  13   8  623.01    6.08
   5 -13  -8  584.79    6.96
   5 -13   8  581.80    7.35
   5  13  -8  743.21    9.65
   5  13  -8  610.30    8.31
   5  13   8  715.21    9.27
   5  13   8  760.57    8.61
  -5 -13  -9  131.78    6.70
  -5 -13  -9  116.57    5.69
  -5 -13   9  130.88    6.50
  -5 -13   9  111.16    5.46
  -5  13  -9  124.25    5.58
  -5  13  -9  135.26    5.24
   5 -13  -9  119.53    5.21
   5 -13   9  122.89    5.43
   5 -13   9  179.73    4.54
   5  13  -9  144.94    6.90
   5  13  -9  122.53    6.31
   5  13   9  145.40    6.74
   5  13   9  125.44    6.04
  -5 -13 -10   -0.81    3.59
  -5 -13 -10    2.48    3.00
  -5 -13  10    7.28    3.72
  -5 -13  10    5.71    2.84
  -5  13 -10    7.01    3.24
  -5  13 -10    5.74    2.91
   5 -13 -10    3.06    2.90
   5 -13 -10    2.01    2.23
   5 -13  10    4.44    3.22
   5 -13  10    5.28    2.64
   5  13 -10    8.72    3.82
   5  13 -10    4.46    3.15
   5  13  10    5.80    3.74
   5  13  10    1.18    3.28
  -5 -13 -11   55.06    4.71
  -5 -13 -11   43.66    3.87
  -5 -13  11   46.85    4.59
  -5 -13  11   38.07    3.63
  -5  13 -11   46.96    4.19
  -5  13 -11   39.88    3.82
   5 -13 -11   45.75    5.53
   5 -13 -11   49.03    4.51
   5 -13  11   41.78    4.16
   5 -13  11   46.74    5.02
   5  13 -11   58.32    7.02
   5  13 -11   39.87    4.02
   5  13  11   61.44    6.86
  -5 -13 -12   -0.52    3.88
  -5 -13 -12   -0.59    3.20
  -5 -13  12    0.50    3.84
  -5 -13  12   -2.36    2.83
  -5  13 -12    0.33    3.61
  -5  13 -12   -1.71    3.30
   5 -13 -12   -1.51    3.31
   5 -13 -12   -1.36    2.71
   5 -13  12   -2.22    3.61
   5 -13  12   -2.55    2.95
   5  13 -12   -4.32    4.02
   5  13 -12    2.31    3.40
   5  13  12    2.44    4.01
  -5 -13 -13   50.43    5.06
  -5 -13 -13   40.79    4.15
  -5 -13  13   42.75    4.69
  -5 -13  13   34.38    3.89
  -5  13 -13   39.25    4.52
  -5  13 -13   39.51    4.02
   5 -13 -13   39.05    4.23
   5 -13 -13   39.97    3.42
   5 -13  13   43.73    4.58
   5 -13  13   58.23    6.08
   5  13 -13   45.72    5.04
   5  13 -13   34.55    4.15
  -5 -13 -14   17.64    4.54
  -5 -13 -14   14.88    3.82
  -5 -13  14   12.78    4.52
  -5 -13  14   15.78    3.66
  -5  13 -14   18.84    4.57
  -5  13 -14   16.26    3.93
   5 -13 -14   18.66    4.04
   5 -13 -14   13.81    3.31
   5 -13  14   17.36    4.33
   5 -13  14   21.79    3.86
   5  13 -14   13.79    4.91
   5  13 -14   13.45    4.00
  -5 -13 -15   16.80    4.85
  -5 -13 -15   10.62    3.87
  -5 -13  15   12.61    4.81
  -5 -13  15    7.14    3.64
  -5  13 -15   14.59    4.62
  -5  13 -15    8.20    3.89
   5 -13 -15   16.38    4.19
   5 -13 -15   12.20    3.46
   5 -13  15   12.67    4.47
   5 -13  15   14.38    4.04
   5  13 -15   17.08    4.96
   5  13 -15    9.40    4.03
  -5 -13 -16  151.07    9.09
  -5 -13 -16  143.48    7.55
  -5 -13  16  129.30    8.75
  -5 -13  16  124.73    7.56
  -5  13 -16  143.47    8.04
   5 -13 -16  149.64    7.85
   5 -13 -16  155.22    6.66
   5  13 -16  151.66    9.50
   5  13 -16  125.60    8.15
  -5 -13 -17  214.24    9.73
  -5 -13 -17  204.04    8.10
   5 -13 -17  235.01    8.71
   5 -13 -17  207.83    7.29
   5  13 -17  229.18   10.37
   5  13 -17  203.87    8.82
  -5 -15   0   43.05    4.31
  -5 -15   0   35.10    3.98
   5  15   0   48.01    4.26
   5  15   0   36.66    4.53
  -5 -15  -1   45.08    4.32
  -5 -15  -1   32.52    4.01
  -5 -15   1   37.64    4.30
  -5 -15   1   27.17    2.59
   5  15  -1   45.31    4.26
   5  15  -1   28.44    2.89
   5  15   1   50.36    4.30
   5  15   1   32.28    2.98
  -5 -15  -2   63.81    4.41
  -5 -15  -2   43.91    4.15
  -5 -15   2   60.40    4.23
  -5 -15   2   40.99    4.03
   5  15  -2   69.95    4.46
   5  15  -2   50.05    4.68
   5  15   2   75.39    4.62
  -5 -15  -3  371.83    6.68
  -5 -15  -3  366.38    5.70
  -5 -15  -3  307.12    5.48
  -5 -15   3  386.38    5.74
  -5 -15   3  271.48    5.25
   5  15  -3  306.30    6.07
   5  15   3  397.59    6.27
  -5 -15  -4  782.90    8.62
  -5 -15  -4  778.27    7.26
  -5 -15  -4  736.23    7.16
  -5 -15   4  909.56    7.84
  -5 -15   4  646.49    6.97
  -5  15  -4  661.49    5.41
  -5  15   4  746.45    5.20
   5 -15  -4  643.72    4.89
   5 -15   4  624.64    5.32
   5  15  -4  705.61    7.79
   5  15   4  929.83    8.36
  -5 -15  -5 1106.00   10.00
  -5 -15  -5 1111.00    8.53
  -5 -15   5 1103.00   10.25
  -5 -15   5  935.27    8.23
  -5  15  -5  951.89    7.02
  -5  15   5 1055.00    6.76
   5 -15  -5  918.67    6.32
   5 -15   5  883.89    6.78
   5  15  -5  994.11    9.13
   5  15   5 1245.00    9.50
  -5 -15  -6  843.54    9.34
  -5 -15  -6  772.74    7.86
  -5 -15   6  749.69    9.03
  -5 -15   6  665.62    7.45
  -5  15  -6  675.33    6.84
  -5  15  -6  869.06    5.83
  -5  15   6  718.26    6.36
   5 -15  -6  664.02    6.24
   5 -15   6  633.38    6.65
   5  15  -6  691.78    8.36
   5  15   6  939.00    9.69
   5  15   6  897.66    8.78
  -5 -15  -7  484.14    8.16
  -5 -15  -7  460.24    6.93
  -5 -15   7  441.93    7.95
  -5 -15   7  387.12    6.53
  -5  15  -7  397.40    6.36
  -5  15  -7  487.73    5.69
  -5  15   7  316.72    4.80
  -5  15   7  429.38    4.77
   5 -15  -7  409.24    5.81
   5 -15   7  385.02    6.23
   5  15  -7  425.96    7.49
   5  15   7  534.40    8.23
   5  15   7  528.20    7.56
  -5 -15  -8  278.36    7.42
  -5 -15  -8  253.41    6.38
  -5 -15   8  267.62    7.43
  -5 -15   8  233.42    6.08
  -5  15  -8  237.74    6.02
  -5  15  -8  260.69    5.48
  -5  15   8  246.15    6.39
   5 -15  -8  239.25    5.56
   5 -15   8  221.72    5.77
   5  15  -8  245.33    6.76
   5  15   8  305.54    7.67
   5  15   8  306.07    6.82
  -5 -15  -9   95.06    6.52
  -5 -15  -9   89.19    5.60
  -5 -15   9   97.89    6.56
  -5 -15   9   82.33    5.36
  -5  15  -9   93.14    5.54
  -5  15  -9  101.48    5.03
   5 -15  -9   92.34    5.14
   5 -15   9   85.11    5.40
   5  15  -9  102.52    6.92
   5  15  -9   76.18    6.11
   5  15   9  110.04    6.53
  -5 -15 -10    4.25    3.77
  -5 -15 -10    7.56    3.22
  -5 -15  10   12.70    3.93
  -5 -15  10    4.31    3.04
  -5  15 -10   12.25    3.48
  -5  15 -10   10.62    3.11
   5 -15 -10   11.00    3.12
   5 -15  10   12.19    3.30
   5 -15  10   15.51    2.58
   5  15 -10    9.20    4.25
   5  15 -10    7.47    3.42
   5  15  10   12.65    4.33
  -5 -15 -11   -0.67    3.91
  -5 -15 -11   -1.06    3.13
  -5 -15  11    3.35    3.74
  -5 -15  11   -1.79    2.90
  -5  15 -11    1.77    3.57
  -5  15 -11    4.50    3.13
   5 -15 -11    2.10    3.12
   5 -15 -11    2.13    2.30
   5 -15  11    3.19    3.44
   5 -15  11    2.27    2.68
   5  15 -11   -3.52    3.99
   5  15 -11    3.75    3.40
  -5 -15 -12   16.58    4.34
  -5 -15 -12    7.80    3.39
  -5 -15  12   13.47    4.12
  -5 -15  12   13.64    3.44
  -5  15 -12   19.53    4.07
  -5  15 -12    9.20    3.46
   5 -15 -12   11.91    3.54
   5 -15 -12   12.94    2.73
   5 -15  12   16.11    3.95
   5 -15  12   23.41    3.27
   5  15 -12   20.17    4.62
   5  15 -12   14.33    3.81
  -5 -15 -13    9.40    4.31
  -5 -15 -13    4.19    3.47
  -5 -15  13    2.68    4.10
  -5 -15  13    5.85    3.41
  -5  15 -13    5.73    4.09
  -5  15 -13    3.77    3.71
   5 -15 -13    4.59    3.65
   5 -15 -13    1.06    2.91
   5 -15  13    8.37    4.10
   5 -15  13    7.50    3.38
   5  15 -13    3.09    4.52
   5  15 -13    3.53    3.82
  -5 -15 -14   -0.27    4.41
  -5 -15 -14    1.41    3.58
  -5 -15  14    9.85    4.49
  -5 -15  14    6.15    3.56
  -5  15 -14    7.97    4.37
  -5  15 -14    6.61    3.71
   5 -15 -14    8.53    3.89
   5 -15 -14    7.26    3.09
   5 -15  14   11.21    4.40
   5 -15  14   12.36    3.75
   5  15 -14    0.40    4.63
   5  15 -14    6.04    4.13
  -5 -15 -15   35.50    5.23
  -5 -15 -15   30.00    4.10
  -5 -15  15   28.90    5.02
  -5 -15  15   29.36    6.01
  -5  15 -15   30.12    6.52
  -5  15 -15   27.65    4.22
   5 -15 -15   35.77    4.48
   5 -15 -15   47.66    5.60
   5  15 -15   37.52    5.49
   5  15 -15   28.45    4.75
  -5 -15 -16   38.66    5.35
  -5 -15 -16   27.96    4.03
   5 -15 -16   32.25    4.57
   5 -15 -16   34.92    3.76
   5  15 -16   41.67    5.69
   5  15 -16   29.59    4.78
  -5 -15 -17  129.02    9.36
  -5 -15 -17  117.70    7.46
   5 -15 -17  130.49    8.22
   5 -15 -17  123.19    6.60
   5  15 -17  114.20    8.54
  -5 -17   0 1118.00    8.05
   5  17   0 1245.00    9.38
  -5 -17  -1  684.35    6.74
  -5 -17  -1  511.64    6.21
  -5 -17   1  737.68    7.00
  -5 -17   1  493.40    6.10
   5  17  -1  651.68    7.27
   5  17  -1  540.27    7.08
   5  17   1  686.31    7.25
   5  17   1  532.61    7.27
  -5 -17  -2   61.05    4.54
  -5 -17  -2   45.60    4.30
  -5 -17   2   82.15    4.82
  -5 -17   2   52.96    4.14
   5  17  -2   68.62    4.83
   5  17  -2   59.89    4.82
   5  17   2   62.31    5.09
   5  17   2   52.30    4.92
  -5 -17  -3   89.41    5.37
  -5 -17  -3   78.18    4.52
  -5 -17  -3   62.25    4.47
  -5 -17   3   92.23    4.63
  -5 -17   3   62.70    4.39
   5  17  -3   74.49    5.06
   5  17   3   86.05    5.06
  -5 -17  -4  324.32    6.85
  -5 -17  -4  314.50    5.84
  -5 -17  -4  268.68    5.55
  -5 -17   4  375.05    6.01
  -5 -17   4  253.54    5.45
  -5  17  -4  271.93    4.28
  -5  17   4  315.99    4.18
   5 -17   4  238.70    4.16
   5  17  -4  272.45    6.24
   5  17   4  353.50    6.53
  -5 -17  -5  447.62    7.68
  -5 -17  -5  417.50    6.34
  -5 -17  -5  378.39    6.21
  -5 -17   5  417.56    7.62
  -5 -17   5  483.97    6.70
  -5 -17   5  340.46    5.88
  -5  17  -5  366.72    5.21
  -5  17   5  414.03    4.97
   5 -17  -5  340.01    4.65
   5 -17   5  329.99    5.09
   5  17  -5  382.75    7.01
   5  17   5  450.16    6.97
  -5 -17  -6  473.56    8.02
  -5 -17  -6  447.15    6.64
  -5 -17   6  419.21    7.83
  -5 -17   6  536.09    7.08
  -5 -17   6  369.09    6.33
  -5  17  -6  382.09    5.83
  -5  17  -6  475.43    4.71
   5 -17  -6  377.16    5.27
   5 -17   6  364.89    5.76
   5  17  -6  390.65    7.38
   5  17   6  540.85    7.89
  -5 -17  -7  187.84    6.75
  -5 -17  -7  188.38    5.71
  -5 -17   7  188.42    6.81
  -5 -17   7  159.68    5.61
  -5  17  -7  159.02    5.39
  -5  17  -7  191.35    4.64
  -5  17   7  169.59    3.80
   5 -17  -7  166.65    4.93
   5 -17   7  143.93    5.17
   5  17  -7  164.99    6.37
   5  17   7  238.13    7.14
  -5 -17  -8   -0.49    3.49
  -5 -17  -8    0.65    2.88
  -5 -17   8    1.73    3.69
  -5 -17   8   -1.52    2.80
  -5  17  -8    1.18    2.94
  -5  17  -8    0.70    2.53
   5 -17  -8   -0.40    2.57
   5 -17   8   -1.65    2.81
   5  17  -8   -4.03    3.11
  -5 -17  -9   32.75    4.18
  -5 -17  -9   25.38    3.40
  -5 -17   9   24.47    4.25
  -5 -17   9   23.06    3.20
  -5  17  -9   27.33    3.50
  -5  17  -9   39.30    4.85
   5 -17  -9   27.79    3.32
   5 -17   9   27.21    3.49
   5  17  -9   19.79    3.70
  -5 -17 -10   29.16    4.45
  -5 -17 -10   24.60    3.37
  -5 -17  10   29.25    4.55
  -5 -17  10   20.47    3.37
  -5  17 -10   20.74    3.76
  -5  17 -10   26.94    3.30
   5 -17 -10   22.16    3.38
   5 -17  10   27.48    3.77
   5  17 -10   29.66    4.65
   5  17 -10   22.93    3.86
  -5 -17 -11   50.07    4.88
  -5 -17 -11   33.35    3.70
  -5 -17  11   40.80    4.76
  -5 -17  11   23.86    3.52
  -5  17 -11   37.12    4.20
  -5  17 -11   37.02    3.74
   5 -17 -11   34.45    3.84
   5 -17  11   30.15    4.03
   5 -17  11   57.39    4.73
   5  17 -11   39.21    4.93
   5  17 -11   29.38    4.05
  -5 -17 -12   64.42    7.42
  -5 -17 -12   61.27    6.19
  -5 -17  12   69.77    7.55
  -5 -17  12   64.10    5.94
  -5  17 -12   62.38    7.04
  -5  17 -12   67.54    6.31
   5 -17 -12   66.00    6.21
   5 -17 -12   67.70    4.21
   5 -17  12   67.83    6.77
   5 -17  12   94.08    5.42
   5  17 -12   66.67    8.25
   5  17 -12   43.15    4.53
  -5 -17 -13   44.90    5.38
  -5 -17 -13   38.04    4.10
  -5 -17  13   41.49    5.18
  -5 -17  13   31.89    3.84
  -5  17 -13   45.26    5.04
  -5  17 -13   39.01    4.26
   5 -17 -13   42.53    4.27
   5 -17 -13   44.55    4.63
   5 -17  13   33.21    4.55
   5 -17  13   64.98    5.79
   5  17 -13   50.57    5.75
   5  17 -13   39.89    4.82
  -5 -17 -14   10.11    4.54
  -5 -17 -14   13.42    3.76
  -5 -17  14   17.36    5.25
  -5  17 -14   15.81    4.74
  -5  17 -14   12.28    3.82
   5 -17 -14   15.62    3.97
   5 -17 -14   14.87    2.98
   5 -17  14   22.33    3.77
   5  17 -14   21.07    5.43
   5  17 -14   22.16    4.51
  -5 -17 -15   -5.10    4.36
  -5 -17 -15   -5.76    3.36
   5 -17 -15   -0.26    3.77
   5 -17 -15   -2.04    2.95
   5  17 -15   -0.31    6.73
   5  17 -15    1.38    4.12
  -5 -17 -16    6.00    4.77
  -5 -17 -16    5.00    3.63
   5 -17 -16    7.72    4.11
   5 -17 -16    8.37    3.23
   5  17 -16    5.29    4.40
  -5 -19   0 1129.00    8.16
   5  19   0 1250.00    9.87
  -5 -19  -1 1064.00    7.96
  -5 -19   1 1619.00    9.40
  -5 -19   1 1053.00    7.91
   5  19  -1 1168.00    9.66
   5  19   1 1228.00    9.99
  -5 -19  -2  499.10    6.30
  -5 -19  -2  386.95    5.84
  -5 -19   2  621.96    6.90
  -5 -19   2  378.76    5.79
   5  19  -2  566.98    8.88
   5  19  -2  437.82    7.12
   5  19   2  675.42   10.03
   5  19   2  440.36    7.04
  -5 -19  -3   45.33    5.36
  -5 -19  -3   30.85    3.06
  -5 -19  -3   25.90    2.88
  -5 -19   3   44.35    4.82
  -5 -19   3   28.22    2.71
   5  19  -3   27.32    3.29
  -5 -19  -4   15.69    3.40
  -5 -19  -4    6.26    2.88
  -5 -19  -4    8.25    2.71
  -5 -19   4   15.57    2.83
  -5 -19   4    9.58    2.56
  -5  19  -4    9.39    2.18
   5 -19   4    7.43    2.08
   5  19  -4    8.20    3.06
  -5 -19  -5   49.55    5.66
  -5 -19  -5   46.24    3.39
  -5 -19  -5   42.54    3.29
  -5 -19   5   64.95    4.92
  -5 -19   5   40.51    4.42
  -5  19  -5   39.45    3.93
   5 -19  -5   34.57    3.53
   5 -19   5   33.60    2.66
   5  19  -5   41.63    3.61
  -5 -19  -6   76.85    6.12
  -5 -19  -6   68.81    4.98
  -5 -19  -6   61.31    5.22
  -5 -19   6   68.55    6.01
  -5 -19   6   93.67    5.50
  -5 -19   6   63.98    4.82
  -5  19  -6   62.34    4.43
   5 -19  -6   61.26    4.08
   5 -19   6   55.68    4.35
   5  19  -6   65.43    5.93
  -5 -19  -7   53.01    6.11
  -5 -19  -7   46.77    5.07
  -5 -19  -7   42.95    5.17
  -5 -19   7   50.86    6.07
  -5 -19   7   62.83    5.36
  -5 -19   7   31.20    3.11
  -5  19  -7   43.98    4.75
  -5  19  -7   46.12    3.99
   5 -19  -7   39.41    4.38
   5 -19   7   36.44    3.24
   5  19  -7   38.75    3.91
  -5 -19  -8    6.28    3.82
  -5 -19  -8   -0.27    3.02
  -5 -19   8   -1.37    3.49
  -5 -19   8   -0.47    2.84
  -5  19  -8   -0.48    2.94
  -5  19  -8   -4.52    2.38
   5 -19  -8    0.22    2.65
   5 -19   8   -0.19    2.91
   5  19  -8   -1.44    3.36
  -5 -19  -9  108.78    7.18
  -5 -19  -9   97.43    5.67
  -5 -19   9   99.97    7.17
  -5 -19   9   87.34    5.58
  -5  19  -9   93.87    5.75
  -5  19  -9  102.67    5.35
   5 -19  -9   84.95    5.27
   5 -19   9   88.55    5.72
   5  19  -9   88.10    6.67
  -5 -19 -10  360.58    8.91
  -5 -19 -10  338.46    7.10
  -5 -19  10  347.87    9.13
  -5 -19  10  298.82    7.06
  -5  19 -10  346.11    7.88
  -5  19 -10  345.10    7.05
   5 -19 -10  302.16    6.87
   5 -19  10  307.65    7.49
   5  19 -10  327.92    8.41
  -5 -19 -11  401.11    9.46
  -5 -19 -11  344.10    7.44
  -5 -19  11  384.86    9.73
  -5 -19  11  334.96    7.49
  -5  19 -11  375.25    8.69
  -5  19 -11  367.92    7.63
   5 -19 -11  337.91    7.48
   5 -19  11  343.29    8.32
   5  19 -11  443.17   10.44
   5  19 -11  349.94    9.12
  -5 -19 -12  181.16    8.51
  -5 -19 -12  164.17    6.92
  -5 -19  12  197.92    8.90
  -5 -19  12  168.09    6.86
  -5  19 -12  183.32    8.03
  -5  19 -12  173.64    7.20
   5 -19 -12  160.05    6.89
   5 -19  12  166.47    7.67
   5 -19  12  244.81    5.70
   5  19 -12  209.65    9.49
   5  19 -12  184.42    8.37
  -5 -19 -13   81.57    7.91
  -5 -19 -13   64.08    6.31
  -5  19 -13   94.38    7.79
  -5  19 -13   65.87    7.06
   5 -19 -13   84.14    6.72
   5 -19  13   98.70    5.63
   5  19 -13   96.46    9.21
   5  19 -13   77.94    7.84
  -5 -19 -14   48.99    5.20
  -5 -19 -14   40.39    4.07
   5 -19 -14   40.91    4.39
   5 -19 -14   50.24    4.69
   5 -19  14   72.67    5.95
   5  19 -14   39.87    4.66
  -5 -19 -15   21.97    4.93
  -5 -19 -15   17.16    3.76
   5 -19 -15   22.57    4.29
   5 -19 -15   17.91    3.04
   5  19 -15   12.09    4.51
  -5 -21   0  924.59    7.58
  -5 -21   0  636.89    6.59
   5  21   0  709.39    8.48
  -5 -21  -1  652.77    6.78
  -5 -21  -1  482.49    6.17
  -5 -21   1  738.07    7.14
  -5 -21   1  492.08    6.18
   5  21  -1  546.79    7.78
   5  21   1  544.08    8.01
  -5 -21  -2  517.29    6.41
  -5 -21  -2  413.07    6.01
  -5 -21   2  628.71    6.97
  -5 -21   2  414.04    6.00
   5  21  -2  432.25    7.49
   5  21   2  448.69    7.29
  -5 -21  -3  252.16    6.91
  -5 -21  -3  203.11    5.38
  -5 -21  -3  168.20    5.10
  -5 -21   3  265.47    5.95
  -5 -21   3  169.43    5.01
   5  21  -3  187.93    6.29
  -5 -21  -4    6.98    3.52
  -5 -21  -4    6.09    2.74
  -5 -21  -4    3.54    2.75
  -5 -21   4   12.24    3.00
  -5 -21   4    5.75    2.49
   5 -21   4    9.89    2.17
   5  21  -4    5.28    3.24
  -5 -21  -5   24.22    3.83
  -5 -21  -5   13.96    2.78
  -5 -21  -5   12.35    3.01
  -5 -21   5   21.16    3.14
  -5 -21   5   11.81    2.77
  -5  21  -5   13.80    2.59
   5 -21  -5   13.58    2.42
   5 -21   5   15.40    2.54
   5  21  -5   11.35    3.41
  -5 -21  -6   17.43    3.80
  -5 -21  -6   13.34    2.94
  -5 -21  -6   13.95    3.07
  -5 -21   6   19.10    4.09
  -5 -21   6   20.23    3.13
  -5 -21   6    9.12    2.71
  -5  21  -6   13.51    2.74
   5 -21  -6   15.72    2.58
   5 -21   6    9.84    2.73
   5  21  -6   12.51    3.57
  -5 -21  -7    3.62    3.68
  -5 -21  -7    0.32    2.85
  -5 -21  -7   -0.35    3.13
  -5 -21   7    4.30    3.76
  -5 -21   7    3.97    3.14
  -5 -21   7    1.44    2.66
  -5  21  -7    0.22    2.80
  -5  21  -7    1.12    2.27
   5 -21  -7    2.76    2.65
   5 -21   7    1.18    2.77
   5  21  -7   -3.82    3.45
  -5 -21  -8    1.82    3.79
  -5 -21  -8    2.66    2.87
  -5 -21  -8    0.06    3.18
  -5 -21   8    1.41    3.90
  -5 -21   8    3.80    3.23
  -5 -21   8    1.73    2.85
  -5  21  -8   -0.97    3.03
  -5  21  -8    2.94    2.60
   5 -21  -8    0.10    2.77
   5 -21   8    1.80    2.99
   5  21  -8    3.83    3.77
  -5 -21  -9   76.17    7.15
  -5 -21  -9   77.58    5.77
  -5 -21   9   70.75    7.22
  -5 -21   9   60.52    5.30
  -5  21  -9   70.63    5.92
  -5  21  -9   66.54    5.30
   5 -21  -9   66.32    5.32
   5 -21   9   52.29    5.71
   5  21  -9   58.26    7.07
  -5 -21 -10  268.10    8.55
  -5 -21 -10  250.37    6.78
  -5 -21  10  249.63    8.98
  -5 -21  10  223.59    6.69
  -5  21 -10  241.67    7.68
  -5  21 -10  236.29    6.67
   5 -21 -10  239.41    6.62
   5 -21  10  230.64    7.37
   5  21 -10  250.34    8.68
  -5 -21 -11  448.83    9.91
  -5 -21 -11  412.13    7.75
  -5 -21  11  432.01   10.26
  -5 -21  11  352.55    7.66
  -5  21 -11  432.33    9.14
  -5  21 -11  397.59    7.90
   5 -21 -11  381.29    7.66
   5 -21  11  377.75    8.68
   5  21 -11  413.54    9.55
  -5 -21 -12  395.79    9.87
  -5 -21 -12  352.65    7.66
  -5  21 -12  393.39    9.14
   5 -21 -12  350.25    7.90
   5 -21  12  341.72   10.34
   5  21 -12  491.86   11.97
   5  21 -12  380.20    9.83
  -5 -21 -13  164.61    8.48
  -5 -21 -13  136.11    6.62
   5 -21 -13  152.55    6.93
   5  21 -13  157.45    8.28
  -5 -21 -14   21.73    5.02
  -5 -21 -14   17.23    3.58
   5 -21 -14   19.50    4.10
   5 -21  14   30.94    4.23
  -5 -23   0  341.85    5.59
  -5 -23   0  276.86    5.34
   5  23   0  294.80    7.07
  -5 -23  -1  342.24    5.62
  -5 -23  -1  273.03    5.33
  -5 -23   1  384.89    5.90
  -5 -23   1  274.05    5.34
   5  23  -1  293.52    7.15
   5  23   1  297.47    7.11
  -5 -23  -2   78.13    4.75
  -5 -23  -2   63.06    4.57
  -5 -23   2   99.41    4.95
  -5 -23   2   67.49    4.33
   5  23  -2   78.70    6.00
   5  23   2   72.84    6.00
  -5 -23  -3    0.18    3.45
  -5 -23  -3    1.28    2.60
  -5 -23  -3   -1.59    2.46
  -5 -23   3    4.17    2.89
  -5 -23   3    0.05    2.41
   5  23  -3   -2.01    3.22
   5  23   3   -2.94    3.25
  -5 -23  -4    8.22    3.65
  -5 -23  -4    2.14    2.59
  -5 -23  -4    5.25    2.73
  -5 -23   4   11.63    3.04
  -5 -23   4    3.74    2.49
   5 -23   4    5.04    2.27
   5  23  -4    5.13    3.52
  -5 -23  -5    8.18    3.78
  -5 -23  -5    2.07    2.66
  -5 -23  -5    5.54    2.78
  -5 -23   5    7.70    3.05
  -5 -23   5    5.83    2.61
   5 -23  -5    3.72    2.32
   5 -23   5    4.58    2.48
   5  23  -5    2.07    3.47
  -5 -23  -6   33.13    4.27
  -5 -23  -6   26.09    3.05
  -5 -23  -6   24.55    3.20
  -5 -23   6   29.06    4.21
  -5 -23   6   37.69    3.45
  -5 -23   6   18.21    2.84
  -5  23  -6   28.51    3.13
   5 -23  -6   22.17    2.81
   5 -23   6   25.99    3.04
   5  23  -6   23.98    3.97
  -5 -23  -7   42.35    4.46
  -5 -23  -7   32.21    3.11
  -5 -23  -7   41.73    3.69
  -5 -23   7   41.57    4.66
  -5 -23   7   54.31    5.47
  -5 -23   7   25.28    3.10
  -5  23  -7   35.56    3.43
  -5  23  -7   40.89    4.08
   5 -23  -7   34.02    3.10
   5 -23   7   35.06    3.41
   5  23  -7   34.06    4.28
  -5 -23  -8    4.46    4.03
  -5 -23  -8    1.66    2.93
  -5 -23  -8    4.55    3.36
  -5 -23   8    2.45    4.18
  -5 -23   8    2.18    3.23
  -5 -23   8    1.04    2.92
  -5  23  -8    3.47    3.14
  -5  23  -8   -1.20    2.65
   5 -23  -8    2.89    2.87
   5 -23   8   -0.98    3.11
   5  23  -8    2.41    3.81
  -5 -23  -9   10.25    4.21
  -5 -23  -9    7.03    3.05
  -5 -23  -9   10.86    3.62
  -5 -23   9   13.10    4.50
  -5 -23   9   14.07    3.55
  -5 -23   9    7.30    3.17
  -5  23  -9    5.88    3.52
  -5  23  -9    9.12    3.05
   5 -23  -9   12.65    3.27
   5 -23   9    4.21    3.53
   5  23  -9    6.13    4.17
  -5 -23 -10   81.49    7.59
  -5 -23 -10   63.24    5.69
  -5 -23  10   63.46    6.68
  -5  23 -10   53.38    4.57
  -5  23 -10   46.67    5.70
   5 -23 -10   61.81    5.61
   5 -23  10   46.11    4.40
   5  23 -10   66.08    7.56
  -5 -23 -11  131.23    8.10
  -5 -23 -11  115.48    6.06
  -5  23 -11  111.77    7.19
   5 -23 -11  125.23    6.21
   5 -23  11   99.17    6.86
   5  23 -11  120.06    8.20
  -5 -23 -12  117.98    8.15
  -5 -23 -12   95.32    5.98
   5 -23 -12   93.20    6.27
  -5 -23 -13   83.56    8.05
  -5 -23 -13   62.45    6.04
   5 -23 -13   59.30    6.41
  -5 -25   0   22.05    2.64
  -5 -25   0   16.80    2.54
   5  25   0   16.80    3.73
  -5 -25  -1    4.15    2.48
  -5 -25  -1    4.55    2.42
  -5 -25   1    3.93    2.46
  -5 -25   1    4.33    2.32
   5  25  -1    3.31    3.54
   5  25   1    5.14    3.72
  -5 -25  -2   20.31    2.66
  -5 -25  -2   18.40    2.62
  -5 -25   2   24.02    2.82
  -5 -25   2   16.94    2.52
   5  25  -2   17.93    3.74
   5  25   2   23.92    3.92
  -5 -25  -3    6.87    3.71
  -5 -25  -3    6.59    2.47
  -5 -25  -3    8.45    2.62
  -5 -25   3    9.39    2.81
  -5 -25   3    3.82    2.48
   5  25  -3    8.46    3.55
   5  25   3    7.35    3.65
  -5 -25  -4   13.70    3.92
  -5 -25  -4    6.13    2.54
  -5 -25  -4   11.24    2.74
  -5 -25   4   11.82    2.99
  -5 -25   4    5.64    2.53
   5 -25   4    6.11    2.48
   5  25  -4    7.95    3.76
  -5 -25  -5   74.13    6.86
  -5 -25  -5   62.13    4.66
  -5 -25  -5   59.67    4.97
  -5 -25   5   89.99    5.52
  -5 -25   5   58.05    4.67
   5 -25  -5   57.07    4.23
   5 -25   5   51.73    4.55
   5  25  -5   63.86    6.95
  -5 -25  -6  194.01    7.78
  -5 -25  -6  163.62    5.26
  -5 -25  -6  177.16    5.76
  -5 -25   6  179.87    7.79
  -5 -25   6  234.21    6.28
  -5 -25   6  149.64    5.24
   5 -25  -6  161.45    5.11
   5 -25   6  151.61    5.41
   5  25  -6  168.30    7.58
  -5 -25  -7  234.14    8.09
  -5 -25  -7  187.93    5.55
  -5 -25  -7  213.66    6.17
  -5 -25   7  233.17    8.44
  -5 -25   7  290.49    6.56
  -5 -25   7  187.63    5.61
  -5  25  -7  217.81    6.38
  -5  25  -7  203.54    4.93
   5 -25  -7  191.52    5.55
   5 -25   7  194.09    6.05
   5  25  -7  204.61    8.06
  -5 -25  -8  146.47    7.78
  -5 -25  -8  118.39    5.34
  -5 -25  -8  129.66    6.12
  -5 -25   8  183.75    6.17
  -5 -25   8  123.95    5.56
  -5  25  -8  139.37    6.31
  -5  25  -8  135.85    5.18
   5 -25  -8  113.18    5.46
   5 -25   8  127.13    6.06
   5  25  -8  127.28    7.75
  -5 -25  -9   22.02    4.54
  -5 -25  -9   12.54    2.95
  -5 -25  -9   15.44    3.58
  -5 -25   9   30.71    3.74
  -5  25  -9   14.22    3.73
  -5  25  -9   14.70    3.06
   5 -25  -9   14.89    3.36
   5 -25   9   17.74    3.62
  -5 -25 -10   -3.84    2.81
  -5 -25  10   -2.87    3.29
  -5  25 -10   -5.86    3.78
   5 -25 -10   -1.98    3.13
   5 -25  10   -5.97    3.64
  -5 -25 -11    6.33    4.44
  -5 -25 -11    4.22    2.94
   5 -25 -11    5.28    3.39
  -5 -25 -12   23.19    4.91
  -5 -25 -12   18.48    3.30
   5 -25 -12   20.41    3.82
   5  27   0  148.94    7.11
   5  27  -1   25.68    4.15
   5  27   1   19.93    4.10
  -5 -27   2    1.75    2.40
   5  27  -2    2.44    3.74
   5  27   2    2.56    3.90
  -5 -27  -3   12.01    4.05
  -5 -27   3    8.96    2.68
  -5 -27   3    7.56    2.37
   5  27  -3    1.31    3.77
   5  27   3   11.57    3.96
  -5 -27  -4  129.00    7.14
  -5 -27  -4  100.33    4.53
  -5 -27   4  135.14    5.19
  -5 -27   4   90.23    4.38
   5  27  -4   99.77    7.07
  -5 -27  -5  221.70    7.92
  -5 -27  -5  176.82    4.80
  -5 -27  -5  182.64    5.12
  -5 -27   5  255.45    5.94
  -5 -27   5  167.87    4.99
   5 -27  -5  180.32    4.80
   5 -27   5  162.31    5.39
   5  27  -5  182.42    7.62
  -5 -27  -6  260.47    8.28
  -5 -27  -6  202.56    5.07
  -5 -27  -6  219.46    5.61
  -5 -27   6  294.91    6.34
  -5 -27   6  189.06    5.36
   5 -27  -6  203.26    5.28
   5 -27   6  195.20    5.80
  -5 -27  -7  248.62    8.16
  -5 -27  -7  206.20    5.24
  -5 -27  -7  221.43    5.91
  -5 -27   7  314.13    6.67
  -5 -27   7  203.46    5.75
  -5  27  -7  221.66    5.13
   5 -27  -7  212.34    5.65
   5 -27   7  219.24    6.20
  -5 -27  -8  239.38    8.40
  -5 -27  -8  182.89    5.31
  -5 -27  -8  208.02    6.11
  -5 -27   8  280.33    6.46
  -5  27  -8  233.92    7.09
  -5  27  -8  200.01    5.45
   5 -27  -8  188.76    5.91
   5 -27   8  198.42    6.47
  -5 -27  -9  142.55    7.91
  -5 -27  -9  115.73    5.21
  -5 -27   9  169.40    6.29
   5 -27  -9  127.78    5.78
   5 -27   9  132.54    6.36
  -5 -27 -10    8.60    4.43
  -5 -27 -10    6.20    2.81
  -5 -27  10   13.69    3.44
   5 -27 -10   10.24    3.38
  -5 -29  -3   79.66    6.96
  -5 -29  -4  120.45    7.20
  -5 -29  -5  187.18    7.68
   5 -29   5  121.79    5.29
  -5 -29  -6  218.39    8.05
  -5 -29   6  244.34    5.82
  -5 -29   6  161.12    4.95
   5 -29  -6  160.25    5.17
   5 -29   6  154.47    5.77
  -5 -29  -7  161.57    7.68
  -5 -29  -7  133.82    4.53
  -5 -29   7  194.22    5.92
  -5  29  -7  138.62    5.25
   5 -29  -7  147.50    5.47
   5 -29   7  124.64    5.88
  -5 -31  -3    2.73    4.09
  -6   0  -3   45.31    4.02
  -6   0  -3   61.20    3.86
  -6   0   3   34.11    3.68
   6   0  -3   39.76    3.48
   6   0   3   50.19    3.64
  -6   0  -7  671.56    7.77
  -6   0  -7  871.83    8.01
  -6   0   7  643.21    7.36
  -6   0   7  665.47    6.74
   6   0  -7  747.81    7.87
   6   0  -7  669.80    6.86
   6   0   7  724.13    7.95
   6   0   7  926.17    8.02
  -6   0  -8  360.45    6.90
  -6   0  -8  420.18    6.88
  -6   0   8  352.23    6.40
  -6   0   8  354.25    6.00
   6   0  -8  371.77    6.64
   6   0  -8  349.10    6.01
   6   0   8  383.55    6.99
   6   0   8  468.72    6.79
  -6   0  -9   -0.92    2.98
  -6   0  -9   -2.94    2.73
  -6   0   9    3.66    2.66
  -6   0   9    4.42    2.49
   6   0  -9    2.72    2.88
   6   0  -9    4.55    2.62
   6   0   9   -0.95    2.92
   6   0   9    0.29    2.78
  -6   0 -10   34.76    3.78
  -6   0 -10   37.77    3.60
  -6   0  10   35.51    3.48
  -6   0  10   35.25    3.20
   6   0 -10   36.38    3.71
   6   0 -10   33.66    3.24
   6   0  10   36.02    3.77
   6   0  10   48.19    5.44
  -6   0 -11   52.92    6.13
  -6   0 -11   57.74    5.69
  -6   0  11   52.97    5.42
  -6   0  11   47.51    4.96
   6   0 -11   63.38    6.08
   6   0 -11   57.93    5.24
   6   0  11   53.45    5.89
   6   0  11   66.32    5.67
  -6   0 -12   57.40    6.58
  -6   0 -12   54.41    6.12
  -6   0  12   48.62    5.88
  -6   0  12   45.34    5.32
   6   0 -12   58.35    6.39
   6   0 -12   50.92    5.82
   6   0  12   53.10    6.31
   6   0  12   68.08    6.11
  -6   0 -13   -2.38    3.74
  -6   0 -13    1.75    3.50
  -6   0  13    2.08    3.47
  -6   0  13    6.20    3.10
   6   0 -13    0.97    3.72
   6   0 -13    3.95    3.38
   6   0  13    1.09    3.80
   6   0  13    1.27    3.47
  -6   0 -14   48.13    4.86
  -6   0 -14   38.35    4.27
  -6   0  14   44.56    4.44
  -6   0  14   37.07    3.83
   6   0 -14   41.99    4.79
   6   0 -14   44.57    4.17
   6   0  14   50.65    4.88
   6   0  14   53.70    6.69
  -6   0 -15   51.38    5.27
  -6   0 -15   49.69    4.60
  -6   0  15   50.54    4.95
  -6   0  15   52.08    6.06
   6   0 -15   51.17    5.14
   6   0 -15   47.68    4.44
   6   0  15   56.59    5.43
   6   0  15   68.11    7.19
  -6   0 -16  106.02    8.75
  -6   0 -16  106.61    7.94
  -6   0  16  102.55    7.62
   6   0 -16  115.08    8.57
   6   0 -16  107.32    7.41
   6   0  16  128.54    8.61
   6   0  16  133.62    8.12
  -6   0 -17   84.24    8.96
  -6   0 -17   60.82    7.57
   6   0 -17   52.85    5.69
   6   0 -17   48.65    4.91
   6   0  17   80.63    8.56
   6   0  17   85.62    8.15
  -6   0 -18  179.61    9.83
  -6   0 -18  148.06    8.39
   6   0 -18  179.12    9.50
   6   0 -18  149.73    8.09
   6   0  18  198.79    9.93
   6   0  18  215.86    9.35
  -6   0 -19  106.73    9.70
  -6   0 -19   97.94    8.27
   6   0 -19  104.02    9.18
   6   0 -19  102.95    7.96
   6   0  19  148.47   15.16
  -6  -2  -2    0.77    2.20
  -6  -2   2    3.61    2.17
  -6   2  -2    4.50    2.08
  -6   2  -2    7.32    1.90
   6   2  -2   -0.28    2.17
   6   2   2    1.91    2.13
  -6   2  -5  985.38    7.87
  -6   2   5  927.16    7.41
   6  -2   5 1065.00    8.07
   6   2  -5 1073.00    8.59
  -6  -2  -6  685.32    7.60
  -6  -2  -6  835.34    7.62
  -6  -2   6  665.10    7.30
  -6  -2   6  627.97    6.59
  -6   2  -6  640.32    7.12
  -6   2   6  605.04    6.64
  -6   2   6  613.76    6.13
   6  -2  -6  672.28    6.96
   6  -2  -6  647.87    6.02
   6  -2   6  672.25    7.26
   6   2  -6  712.87    7.58
   6   2  -6  636.65    6.73
   6   2   6  741.05    7.78
  -6  -2  -7  245.76    5.90
  -6  -2  -7  295.19    5.84
  -6  -2   7  237.65    5.61
  -6  -2   7  230.47    5.16
  -6   2  -7  218.03    5.67
  -6   2  -7  282.03    5.65
  -6   2   7  228.03    5.23
  -6   2   7  225.36    4.84
   6  -2  -7  242.04    5.39
   6  -2  -7  222.46    4.80
   6  -2   7  245.13    5.72
   6  -2   7  297.21    5.50
   6   2  -7  249.89    5.82
   6   2  -7  227.45    5.28
   6   2   7  256.92    5.99
   6   2   7  304.35    5.80
  -6  -2  -8   84.42    5.28
  -6  -2  -8   96.39    5.17
  -6  -2   8   82.17    5.02
  -6  -2   8   75.78    4.61
  -6   2  -8   59.65    5.08
  -6   2  -8   69.79    5.00
  -6   2   8   72.41    4.49
  -6   2   8   75.57    4.40
   6  -2  -8   80.84    4.91
   6  -2  -8   82.40    4.46
   6  -2   8   71.10    5.00
   6  -2   8   75.65    4.81
   6   2  -8   84.85    5.28
   6   2  -8   76.98    4.91
   6   2   8   81.01    5.32
   6   2   8  100.03    4.97
  -6  -2  -9    1.79    3.10
  -6  -2  -9    7.62    2.93
  -6  -2   9    7.48    2.96
  -6  -2   9    3.82    2.63
  -6   2  -9   -0.33    2.96
  -6   2  -9    0.71    2.80
  -6   2   9    6.32    2.71
  -6   2   9    3.65    2.41
   6  -2  -9    4.09    2.86
   6  -2  -9    1.61    2.52
   6  -2   9   -2.23    2.94
   6  -2   9   -4.42    2.72
   6   2  -9    1.21    2.87
   6   2  -9    4.02    2.72
   6   2   9    7.34    3.17
   6   2   9    9.66    2.92
  -6  -2 -10  108.50    6.07
  -6  -2 -10  126.14    5.95
  -6  -2  10  106.45    5.53
  -6  -2  10  104.60    5.25
  -6   2 -10  108.36    6.14
  -6   2 -10  120.40    6.09
  -6   2  10  119.94    5.65
  -6   2  10  109.56    5.03
   6  -2 -10  116.99    5.88
   6  -2 -10  107.38    5.21
   6  -2  10  104.85    5.90
   6  -2  10  134.62    5.88
   6   2 -10  111.45    6.12
   6   2 -10  113.41    5.48
   6   2  10  129.08    6.21
   6   2  10  141.07    5.87
  -6  -2 -11  173.27    7.17
  -6  -2 -11  182.14    6.81
  -6  -2  11  159.80    6.47
  -6  -2  11  160.29    5.96
  -6   2 -11  174.84    6.80
  -6   2 -11  178.80    6.43
  -6   2  11  176.68    6.36
  -6   2  11  158.36    5.61
   6  -2 -11  184.62    6.84
   6  -2 -11  172.17    5.91
   6  -2  11  184.04    6.89
   6  -2  11  221.16    6.49
   6   2 -11  181.27    6.87
   6   2 -11  158.34    6.14
   6   2  11  185.88    6.81
   6   2  11  215.40    6.75
  -6  -2 -12   50.73    4.60
  -6  -2 -12   51.19    4.32
  -6  -2  12   50.39    5.94
  -6  -2  12   59.63    5.65
  -6   2 -12   53.76    6.50
  -6   2 -12   56.85    6.01
  -6   2  12   57.74    5.95
  -6   2  12   49.42    5.21
   6  -2 -12   57.04    6.31
   6  -2 -12   49.75    5.63
   6  -2  12   60.96    6.42
   6  -2  12   72.26    6.24
   6   2 -12   60.37    6.53
   6   2 -12   50.49    5.85
   6   2  12   58.28    4.70
   6   2  12   54.09    6.17
  -6  -2 -13   22.80    4.51
  -6  -2 -13   19.47    3.77
  -6  -2  13   22.48    3.93
  -6  -2  13   19.07    3.42
  -6   2 -13   26.00    4.42
  -6   2 -13   28.44    4.02
  -6   2  13   22.79    3.86
  -6   2  13   21.91    3.32
   6  -2 -13   23.56    4.16
   6  -2 -13   24.86    3.64
   6  -2  13   24.18    4.15
   6  -2  13   30.47    4.01
   6   2 -13   28.40    4.43
   6   2 -13   24.11    3.69
   6   2  13   29.14    4.23
   6   2  13   24.44    3.94
  -6  -2 -14    1.95    4.24
  -6  -2 -14    1.01    3.63
  -6  -2  14    5.96    3.74
  -6  -2  14    6.07    3.16
  -6   2 -14    6.05    4.08
  -6   2 -14    3.99    3.71
  -6   2  14    4.16    3.63
  -6   2  14    3.57    3.43
   6  -2 -14    8.31    4.11
   6  -2 -14    6.20    3.52
   6  -2  14    4.89    4.19
   6  -2  14    3.46    3.77
   6   2 -14    8.14    4.26
   6   2 -14    6.71    3.55
   6   2  14    4.90    4.05
   6   2  14    6.33    3.72
  -6  -2 -15   30.30    5.05
  -6  -2 -15   29.94    4.29
  -6  -2  15   33.74    4.47
  -6  -2  15   30.57    3.86
  -6   2 -15   29.03    4.82
  -6   2 -15   25.43    4.12
  -6   2  15   37.18    4.61
   6  -2 -15   28.61    4.66
   6  -2 -15   28.42    4.10
   6  -2  15   32.99    4.96
   6  -2  15   43.92    4.65
   6   2 -15   34.89    4.93
   6   2 -15   29.16    4.22
   6   2  15   35.73    4.91
   6   2  15   40.91    4.66
  -6  -2 -16   55.01    5.76
  -6  -2 -16   62.83    7.36
  -6  -2  16   45.82    5.11
  -6  -2  16   54.84    6.28
  -6   2 -16   42.19    5.34
  -6   2 -16   41.48    4.61
   6  -2 -16   48.69    5.46
   6  -2 -16   35.10    4.42
   6  -2  16   50.93    5.50
   6  -2  16   64.00    7.60
   6   2 -16   50.21    5.32
   6   2 -16   57.59    7.13
   6   2  16   58.98    5.76
   6   2  16   71.28    7.71
  -6  -2 -17  189.79    9.56
  -6  -2 -17  165.64    8.27
  -6  -2  17  174.69    8.43
  -6   2 -17  182.72    9.53
  -6   2 -17  160.17    8.43
   6  -2 -17  170.90    9.30
   6  -2 -17  177.58    8.23
   6  -2  17  191.21    9.41
   6  -2  17  221.25    9.21
   6   2 -17  180.33    9.29
   6   2 -17  169.90    8.09
   6   2  17  199.02    9.45
   6   2  17  224.24    9.09
  -6  -2 -18  109.89    9.50
  -6  -2 -18  103.71    8.00
  -6   2 -18  107.76    9.35
  -6   2 -18   97.96    8.32
   6  -2 -18  100.54    9.01
   6  -2 -18   91.63    7.82
   6  -2  18  107.78    8.94
   6  -2  18  133.89    8.51
   6   2 -18  123.88    9.06
   6   2 -18   96.51    7.56
   6   2  18  120.60    9.24
   6   2  18  145.73    8.89
  -6  -2 -19   52.04    5.96
  -6  -2 -19   46.41    4.97
  -6   2 -19   52.02    6.04
  -6   2 -19   49.41    5.23
   6  -2 -19   55.75    6.09
   6  -2 -19   63.65    7.78
   6   2 -19  100.73    9.29
   6   2 -19   69.96    7.80
   6   2  19   81.83    9.29
   6   2  19   95.91    9.00
  -6  -4  -1   75.49    4.20
  -6  -4   1   80.64    4.10
   6   4   1   81.59    4.11
  -6  -4  -2  278.21    5.12
  -6  -4   2  204.46    4.78
  -6   4  -2  243.85    4.09
   6  -4   2  249.87    4.09
   6   4  -2  229.97    5.03
   6   4   2  266.73    4.79
  -6  -4  -3  115.30    4.58
  -6  -4  -3  131.47    4.68
  -6  -4   3   92.89    4.16
  -6   4  -3   98.09    3.79
  -6   4  -3  122.96    3.34
  -6   4   3   99.04    3.56
  -6   4   3  106.09    3.17
   6  -4   3  103.74    3.82
   6   4  -3   95.87    4.39
   6   4   3  126.55    4.52
  -6  -4  -4  115.25    4.75
  -6  -4  -4  132.22    4.78
  -6  -4   4  118.54    4.66
  -6  -4   4   98.49    4.29
  -6   4  -4  104.56    4.08
  -6   4  -4  138.13    3.82
  -6   4   4  100.28    3.71
  -6   4   4   47.42    2.32
   6  -4  -4  118.93    4.02
   6  -4   4  114.11    4.05
   6  -4   4  131.13    3.38
   6   4  -4  105.39    4.35
   6   4   4  119.78    4.66
   6   4   4  133.67    4.78
  -6  -4  -5   59.56    4.51
  -6  -4  -5   67.90    4.48
  -6  -4   5   49.69    4.37
  -6  -4   5   48.78    4.24
  -6   4  -5   47.65    4.04
  -6   4  -5   62.99    3.90
  -6   4   5   47.51    3.69
  -6   4   5   41.84    2.74
   6  -4  -5   49.89    3.75
   6  -4  -5   56.03    3.31
   6  -4   5   43.06    3.98
   6  -4   5   66.12    3.47
   6   4  -5   52.03    4.28
   6   4   5   62.76    4.51
   6   4   5   71.21    4.52
  -6  -4  -6   39.75    4.47
  -6  -4  -6   53.61    4.51
  -6  -4   6   37.51    4.31
  -6  -4   6   38.23    4.02
  -6   4  -6   44.31    4.06
  -6   4  -6   48.27    3.89
  -6   4   6   35.99    3.79
  -6   4   6   40.93    3.52
   6  -4  -6   37.56    3.85
   6  -4  -6   45.02    3.43
   6  -4   6   38.59    3.99
   6  -4   6   51.04    3.81
   6   4  -6   46.48    4.67
   6   4  -6   43.19    4.25
   6   4   6   44.63    4.54
   6   4   6   48.91    4.49
  -6  -4  -7  227.71    5.88
  -6  -4  -7  210.70    5.55
  -6  -4   7  194.04    5.53
  -6  -4   7  184.39    5.15
  -6   4  -7  186.32    5.24
  -6   4  -7  250.98    5.18
  -6   4   7  186.34    4.96
  -6   4   7  184.60    4.47
   6  -4  -7  190.64    5.10
   6  -4  -7  191.21    4.37
   6  -4   7  196.63    5.25
   6  -4   7  247.41    5.00
   6   4  -7  220.13    5.95
   6   4  -7  189.59    5.28
   6   4   7  229.61    5.95
   6   4   7  260.35    5.59
  -6  -4  -8   56.32    5.27
  -6  -4  -8   62.84    5.16
  -6  -4   8   53.83    5.05
  -6  -4   8   48.46    4.60
  -6   4  -8   44.61    4.83
  -6   4  -8   56.86    4.63
  -6   4   8   40.88    4.40
  -6   4   8   44.70    4.15
   6  -4  -8   50.19    4.59
   6  -4  -8   42.60    4.15
   6  -4   8   43.03    4.69
   6  -4   8   67.94    4.52
   6   4  -8   52.85    5.27
   6   4  -8   39.83    4.75
   6   4   8   65.66    5.33
   6   4   8   71.65    5.13
  -6  -4  -9  279.20    7.09
  -6  -4  -9  298.50    6.64
  -6  -4   9  264.07    6.55
  -6  -4   9  250.88    6.22
  -6   4  -9  260.49    6.57
  -6   4  -9  323.65    6.50
  -6   4   9  250.88    5.94
  -6   4   9  243.49    5.48
   6  -4  -9  270.95    6.28
   6  -4  -9  255.76    5.59
   6  -4   9  274.46    6.54
   6  -4   9  342.41    6.24
   6   4  -9  290.06    6.96
   6   4  -9  254.62    6.35
   6   4   9  304.39    7.09
   6   4   9  344.91    6.76
  -6  -4 -10  653.86    9.34
  -6  -4 -10  721.09    9.06
  -6  -4  10  617.60    8.78
  -6  -4  10  589.25    7.92
  -6   4 -10  582.72    8.56
  -6   4 -10  688.59    8.41
  -6   4  10  603.33    8.27
  -6   4  10  598.96    7.49
   6  -4 -10  623.10    8.46
   6  -4 -10  615.85    7.40
   6  -4  10  658.51    8.87
   6  -4  10  812.95    8.64
   6   4 -10  678.99    9.34
   6   4 -10  621.80    8.18
   6   4  10  731.58    9.68
   6   4  10  793.82    9.10
  -6  -4 -11  429.85    8.70
  -6  -4 -11  465.40    8.12
  -6  -4  11  425.71    8.14
  -6  -4  11  415.18    7.49
  -6   4 -11  426.15    8.37
  -6   4 -11  461.95    7.86
  -6   4  11  396.83    7.52
  -6   4  11  399.26    6.93
   6  -4 -11  437.78    8.23
   6  -4 -11  427.94    7.01
   6  -4  11  458.23    8.51
   6  -4  11  547.45    8.15
   6   4 -11  472.15    8.76
   6   4 -11  425.39    7.98
   6   4  11  460.67    8.69
   6   4  11  524.26    8.46
  -6  -4 -12  301.59    8.56
  -6  -4 -12  316.55    7.87
  -6  -4  12  310.06    7.94
  -6  -4  12  295.84    7.14
  -6   4 -12  279.96    8.01
  -6   4 -12  334.27    7.67
  -6   4  12  305.28    7.42
  -6   4  12  296.67    6.84
   6  -4 -12  314.15    7.92
   6  -4 -12  298.69    6.77
   6  -4  12  327.11    8.09
   6  -4  12  384.86    7.87
   6   4 -12  339.60    8.46
   6   4 -12  293.91    7.78
   6   4  12  344.30    8.63
   6   4  12  375.73    8.21
  -6  -4 -13  152.56    7.93
  -6  -4 -13  152.79    7.26
  -6  -4  13  157.37    7.21
  -6  -4  13  148.00    6.44
  -6   4 -13  150.02    7.80
  -6   4 -13  158.55    7.13
  -6   4  13  161.56    6.88
   6  -4 -13  171.84    7.59
   6  -4 -13  143.78    6.45
   6  -4  13  169.17    7.60
   6  -4  13  199.84    7.40
   6   4 -13  167.05    7.87
   6   4 -13  144.26    6.99
   6   4  13  156.85    7.61
   6   4  13  181.04    7.64
  -6  -4 -14   30.40    4.68
  -6  -4 -14   30.54    4.22
  -6  -4  14   30.53    4.31
  -6  -4  14   28.93    3.76
  -6   4 -14   24.91    4.58
  -6   4 -14   28.62    4.20
  -6   4  14   29.82    4.31
   6  -4 -14   38.72    4.58
   6  -4 -14   31.17    3.90
   6  -4  14   31.05    4.82
   6  -4  14   39.54    4.27
   6   4 -14   32.48    4.80
   6   4 -14   31.28    4.19
   6   4  14   38.79    4.89
   6   4  14   39.64    4.55
  -6  -4 -15    8.23    4.37
  -6  -4 -15    1.05    3.64
  -6  -4  15    7.26    4.11
  -6  -4  15    4.18    3.29
  -6   4 -15    7.18    4.48
  -6   4 -15   -2.83    3.64
   6  -4 -15    4.62    4.32
   6  -4 -15    2.73    3.60
   6  -4  15    7.96    4.40
   6  -4  15    5.42    4.05
   6   4 -15    7.31    4.38
   6   4 -15    5.96    3.89
   6   4  15    5.66    4.31
   6   4  15    4.98    3.98
  -6  -4 -16   29.04    5.17
  -6  -4 -16   23.97    4.43
  -6  -4  16   29.88    4.71
  -6  -4  16   21.37    3.88
  -6   4 -16   28.45    5.20
  -6   4 -16   17.25    4.26
   6  -4 -16   26.78    4.95
   6  -4 -16   20.18    4.04
   6  -4  16   31.25    5.14
   6  -4  16   29.84    4.66
   6   4 -16   24.30    4.92
   6   4 -16   17.81    4.08
   6   4  16   29.43    5.03
   6   4  16   31.82    4.69
  -6  -4 -17   25.33    5.41
  -6  -4 -17   26.94    4.52
  -6  -4  17   28.28    4.90
  -6  -4  17   22.14    4.01
  -6   4 -17   27.18    5.39
  -6   4 -17   21.64    4.64
   6  -4 -17   22.33    5.02
   6  -4 -17   17.48    4.20
   6  -4  17   30.57    5.38
   6  -4  17   35.74    4.87
   6   4 -17   28.11    5.24
   6   4 -17   19.97    4.42
   6   4  17   28.16    5.31
   6   4  17   33.69    5.04
  -6  -4 -18  101.44    9.06
  -6  -4 -18   93.25    7.87
  -6  -4  18  108.68    8.00
  -6  -4  18   80.12    6.86
  -6   4 -18   99.91    9.14
  -6   4 -18  100.95    8.41
   6  -4 -18   79.02    8.70
   6  -4 -18   70.21    7.29
   6   4 -18  113.72    9.27
   6   4 -18   88.42    7.88
   6   4  18   99.56    8.85
   6   4  18  125.53    8.77
  -6  -4 -19   28.66    5.82
  -6  -4 -19   23.65    4.50
  -6   4 -19   22.50    4.69
   6  -4 -19   27.75    5.26
   6  -4 -19   24.52    4.55
   6   4 -19   34.94    5.74
   6   4 -19   26.54    4.46
   6   4  19   38.19    5.83
   6   4  19   32.99    5.25
  -6  -6   0  172.77    4.68
  -6  -6   0  135.73    4.46
  -6  -6  -3  673.21    7.09
  -6  -6   3  532.29    6.13
  -6   6  -3  543.96    5.09
   6  -6   3  591.65    5.28
   6   6  -3  538.12    6.24
  -6  -6  -4  138.93    4.99
  -6  -6  -4  138.17    4.79
  -6  -6   4  108.89    4.34
  -6   6  -4  108.86    3.86
  -6   6  -4  155.36    3.39
  -6   6   4  109.49    3.46
  -6   6   4  129.82    3.11
   6  -6  -4  115.77    3.71
   6  -6   4  123.43    3.91
   6   6  -4  119.14    4.57
   6   6   4  139.46    4.93
   6   6   4  144.23    4.90
  -6  -6  -5   21.74    2.83
  -6  -6  -5   19.79    2.72
  -6  -6   5   22.11    2.84
  -6  -6   5   20.16    2.58
  -6   6  -5   15.92    2.29
  -6   6  -5   24.29    2.22
  -6   6   5   14.82    2.13
  -6   6   5   19.98    1.95
   6  -6  -5   16.35    2.13
   6  -6  -5   21.12    1.70
   6  -6   5   15.18    2.20
   6  -6   5   24.54    2.82
   6   6  -5   14.85    2.49
   6   6   5   22.68    2.74
   6   6   5   24.01    2.76
  -6  -6  -6   10.22    2.74
  -6  -6  -6   10.06    2.66
  -6  -6   6   11.36    2.76
  -6  -6   6    8.01    2.35
  -6   6  -6    9.03    2.57
  -6   6  -6   11.79    2.23
  -6   6   6    8.65    2.27
   6  -6  -6    9.17    2.26
   6  -6  -6   13.18    1.92
   6  -6   6    5.39    2.24
   6  -6   6   13.97    2.14
   6   6  -6    8.89    2.78
   6   6  -6    7.95    2.45
   6   6   6   12.97    2.84
   6   6   6   13.30    2.64
  -6  -6  -7   -0.03    2.77
  -6  -6  -7   -0.88    2.56
  -6  -6   7    0.06    2.67
  -6  -6   7   -0.23    2.48
  -6   6  -7   -0.80    2.44
  -6   6  -7    1.22    2.28
  -6   6   7    0.23    2.28
  -6   6   7    0.35    1.97
   6  -6  -7   -0.26    2.34
   6  -6  -7    1.72    1.95
   6  -6   7   -0.35    2.46
   6  -6   7   -1.09    2.16
   6   6  -7   -3.09    2.85
   6   6  -7    1.74    2.50
   6   6   7   -1.82    2.77
   6   6   7    1.60    2.51
  -6  -6  -8    0.82    3.10
  -6  -6  -8    0.23    2.78
  -6  -6   8   -3.18    2.80
  -6  -6   8   -0.21    2.55
  -6   6  -8   -1.81    2.76
  -6   6  -8    2.17    2.52
  -6   6   8   -0.85    2.43
  -6   6   8    0.74    2.17
   6  -6  -8   -1.09    2.53
   6  -6  -8    0.89    2.08
   6  -6   8   -1.07    2.62
   6  -6   8   -0.86    2.33
   6   6  -8   -1.10    3.00
   6   6  -8   -0.54    2.71
   6   6   8    3.56    2.97
   6   6   8    0.65    2.72
  -6  -6  -9   76.00    6.02
  -6  -6  -9   84.14    5.47
  -6  -6   9   69.19    5.57
  -6  -6   9   60.97    5.03
  -6   6  -9   65.47    5.44
  -6   6  -9   79.44    5.01
  -6   6   9   61.03    4.61
  -6   6   9   67.84    4.38
   6  -6  -9   80.41    5.17
   6  -6  -9   75.33    4.39
   6  -6   9   70.50    5.26
   6  -6   9   83.56    4.76
   6   6  -9   68.46    5.86
   6   6  -9   68.09    5.36
   6   6   9   79.19    5.79
   6   6   9   89.07    5.48
  -6  -6 -10  720.72    9.82
  -6  -6 -10  753.25    9.14
  -6  -6  10  641.96    9.16
  -6  -6  10  630.23    8.26
  -6   6 -10  618.90    8.80
  -6   6 -10  705.54    8.41
  -6   6  10  588.03    7.92
  -6   6  10  637.52    7.47
   6  -6 -10  650.78    8.56
   6  -6 -10  673.51    7.37
   6  -6  10  656.57    8.81
   6  -6  10  812.76    8.34
   6   6 -10  714.73    9.70
   6   6 -10  658.36    8.61
   6   6  10  750.10    9.89
   6   6  10  850.63    9.45
  -6  -6 -11 1161.00   12.05
  -6  -6 -11 1195.00   11.04
  -6  -6  11 1158.00   11.89
  -6  -6  11 1018.00   10.33
  -6   6 -11 1102.00   11.51
  -6   6 -11 1210.00   10.72
  -6   6  11 1040.00   10.50
  -6   6  11 1048.00    9.45
   6  -6 -11 1137.00   11.02
   6  -6 -11 1110.00    9.42
   6  -6  11 1154.00   11.43
   6  -6  11 1415.00   10.97
   6   6 -11 1204.00   12.24
   6   6 -11 1112.00   11.04
   6   6  11 1289.00   12.65
   6   6  11 1430.00   12.06
  -6  -6 -12  768.42   10.81
  -6  -6 -12  764.98   10.17
  -6  -6  12  742.68   10.55
  -6  -6  12  696.32    9.32
  -6   6 -12  698.19   10.24
  -6   6 -12  795.33    9.81
  -6   6  12  652.13    9.28
   6  -6 -12  740.52    9.87
   6  -6 -12  726.06    8.47
   6  -6  12  770.36   10.40
   6  -6  12  956.04   10.05
   6   6 -12  800.09   11.03
   6   6 -12  730.69    9.86
   6   6  12  845.84   11.37
   6   6  12  920.81   10.84
  -6  -6 -13  378.44    9.59
  -6  -6 -13  406.46    8.73
  -6  -6  13  389.56    8.89
  -6  -6  13  350.41    7.87
  -6   6 -13  359.39    9.09
  -6   6 -13  391.33    8.63
   6  -6 -13  382.62    8.62
   6  -6 -13  364.79    7.42
   6  -6  13  398.77    9.08
   6  -6  13  489.00    8.77
   6   6 -13  416.27    9.53
   6   6 -13  386.27    8.52
   6   6  13  428.38    9.55
   6   6  13  476.34    9.21
  -6  -6 -14  116.57    7.92
  -6  -6 -14  114.59    7.29
  -6  -6  14  123.91    7.50
  -6  -6  14  106.17    6.36
  -6   6 -14  111.61    7.93
  -6   6 -14  114.03    7.17
   6  -6 -14  129.68    7.41
   6  -6 -14  119.62    6.48
   6  -6  14  112.10    7.67
   6  -6  14  141.75    7.33
   6   6 -14  137.20    8.10
   6   6 -14  118.06    7.43
   6   6  14  125.89    8.12
   6   6  14  142.08    7.69
  -6  -6 -15    0.62    4.50
  -6  -6 -15    3.19    3.72
  -6  -6  15    2.84    4.02
  -6  -6  15    5.51    3.42
  -6   6 -15    1.33    4.39
  -6   6 -15    0.01    3.72
   6  -6 -15    8.30    4.13
   6  -6 -15    6.74    3.59
   6  -6  15    5.35    4.49
   6  -6  15    5.04    4.10
   6   6 -15    4.01    4.34
   6   6 -15    7.29    3.99
   6   6  15    1.69    4.42
   6   6  15    5.41    4.21
  -6  -6 -16    3.18    4.66
  -6  -6 -16    6.47    4.09
  -6  -6  16   -0.41    4.20
  -6  -6  16    1.37    3.53
  -6   6 -16    1.50    4.73
  -6   6 -16    0.53    3.95
   6  -6 -16    1.77    4.34
   6  -6 -16    3.78    3.74
   6  -6  16    4.33    4.57
   6  -6  16    0.65    4.18
   6   6 -16   12.72    4.82
   6   6 -16    5.69    3.88
   6   6  16    6.44    4.63
   6   6  16    2.27    4.16
  -6  -6 -17   27.76    5.24
  -6  -6 -17   24.91    4.43
  -6  -6  17   20.71    4.73
  -6  -6  17   23.09    4.08
  -6   6 -17   30.63    5.19
  -6   6 -17   24.20    4.57
   6  -6 -17   22.81    4.89
   6  -6 -17   22.55    4.14
   6  -6  17   24.01    5.20
   6  -6  17   31.57    7.85
   6   6 -17   29.05    5.33
   6   6 -17   25.97    4.38
   6   6  17   35.34    5.45
   6   6  17   26.92    4.82
  -6  -6 -18   28.02    5.56
  -6  -6 -18   20.10    4.41
  -6  -6  18   21.03    4.87
  -6  -6  18   19.02    4.09
  -6   6 -18   26.95    5.40
  -6   6 -18   22.18    4.53
   6  -6 -18   20.27    4.96
   6  -6 -18   21.25    4.11
   6   6 -18   29.19    5.42
   6   6 -18   21.21    4.39
   6   6  18   29.79    5.46
   6   6  18   32.41    5.71
  -6  -6 -19    7.34    5.12
  -6  -6 -19    6.85    4.22
  -6  -6  19   12.57    4.72
  -6  -6  19    9.85    4.02
  -6   6 -19    5.23    4.50
   6  -6 -19    6.66    4.89
   6  -6 -19    6.40    4.04
   6   6 -19    8.55    5.37
   6   6 -19   11.40    4.22
  -6  -8   2  886.69    7.26
   6   8  -2  918.96    7.53
  -6  -8  -3  113.37    4.79
  -6  -8  -3  115.80    4.75
  -6  -8   3   85.03    4.24
  -6   8  -3   85.19    3.22
  -6   8   3   92.22    2.98
   6  -8  -3  104.60    3.13
   6  -8   3  100.62    3.31
   6   8  -3   97.09    4.51
   6   8   3  113.76    4.75
  -6  -8  -4    1.14    2.50
  -6  -8  -4   -1.47    2.37
  -6  -8   4    0.10    2.18
  -6   8  -4    1.31    1.81
  -6   8  -4    1.73    1.48
  -6   8   4    0.26    1.35
   6  -8  -4    1.56    1.75
   6  -8   4    1.32    1.85
   6   8  -4    1.21    2.41
   6   8   4   -6.84    2.35
  -6  -8  -5    9.74    2.80
  -6  -8  -5    9.18    2.64
  -6  -8   5    7.02    2.56
  -6  -8   5    4.71    2.31
  -6   8  -5    4.39    2.15
  -6   8  -5    9.59    1.91
  -6   8   5    4.33    1.45
  -6   8   5    8.20    1.67
   6  -8  -5    6.50    2.03
   6  -8   5    6.47    2.02
   6   8  -5    8.99    2.47
   6   8   5    8.66    2.53
   6   8   5    7.26    2.60
  -6  -8  -6  117.05    5.39
  -6  -8  -6  118.59    5.11
  -6  -8   6  116.28    5.17
  -6  -8   6   94.77    4.67
  -6   8  -6  103.72    4.35
  -6   8  -6  140.19    4.15
  -6   8   6   98.89    3.95
  -6   8   6  110.05    3.64
   6  -8  -6   97.75    4.07
   6  -8   6  104.90    4.33
   6  -8   6  139.85    3.33
   6   8  -6  105.65    4.97
   6   8   6  122.85    5.38
   6   8   6  132.91    5.10
  -6  -8  -7  326.27    6.90
  -6  -8  -7  327.96    6.46
  -6  -8   7  323.81    6.70
  -6  -8   7  268.61    5.90
  -6   8  -7  288.98    5.82
  -6   8  -7  376.95    5.67
  -6   8   7  261.12    5.17
  -6   8   7  273.21    4.34
   6  -8  -7  285.31    5.47
   6  -8  -7  319.52    4.21
   6  -8   7  289.64    5.77
   6  -8   7  390.90    4.98
   6   8  -7  339.60    7.13
   6   8  -7  293.79    6.21
   6   8   7  330.07    6.95
   6   8   7  370.10    6.61
  -6  -8  -8   59.09    5.69
  -6  -8  -8   55.69    5.15
  -6  -8   8   56.05    5.37
  -6  -8   8   58.02    5.06
  -6   8  -8   47.24    4.88
  -6   8  -8   67.73    4.59
  -6   8   8   49.74    4.25
  -6   8   8   43.97    3.43
   6  -8  -8   54.60    4.57
   6  -8  -8   54.07    3.67
   6  -8   8   52.11    4.69
   6  -8   8   72.32    4.25
   6   8  -8   61.80    5.73
   6   8  -8   54.55    5.19
   6   8   8   64.60    5.69
   6   8   8   65.91    5.30
  -6  -8  -9  111.00    6.31
  -6  -8  -9  115.44    5.76
  -6  -8   9  105.26    5.92
  -6  -8   9  101.34    5.54
  -6   8  -9  105.79    5.62
  -6   8  -9  126.64    5.30
  -6   8   9  102.02    4.83
  -6   8   9  106.95    4.55
   6  -8  -9  105.76    5.19
   6  -8  -9  114.03    4.39
   6  -8   9  105.27    5.45
   6  -8   9  141.30    4.99
   6   8  -9  119.23    6.47
   6   8  -9  106.99    5.74
   6   8   9  126.00    6.28
   6   8   9  130.42    5.86
  -6  -8 -10  390.73    8.41
  -6  -8 -10  388.23    7.46
  -6  -8  10  371.87    7.94
  -6  -8  10  345.64    7.15
  -6   8 -10  351.54    7.52
  -6   8 -10  408.35    7.24
  -6   8  10  330.32    6.67
  -6   8  10  365.08    6.26
   6  -8 -10  358.57    7.04
   6  -8 -10  402.40    6.15
   6  -8  10  363.72    7.48
   6  -8  10  471.87    6.95
   6   8 -10  419.00    8.57
   6   8 -10  363.08    7.47
   6   8  10  454.75    8.56
   6   8  10  471.53    8.05
  -6  -8 -11  639.34   10.00
  -6  -8 -11  658.30    9.03
  -6  -8  11  587.50    9.50
  -6  -8  11  553.68    8.53
  -6   8 -11  574.56    9.20
  -6   8 -11  620.23    8.73
  -6   8  11  532.83    8.17
   6  -8 -11  605.13    8.72
   6  -8 -11  618.76    7.44
   6  -8  11  591.56    9.11
   6  -8  11  749.59    8.71
   6   8 -11  671.55   10.20
   6   8 -11  593.11    9.05
   6   8  11  697.10   10.18
   6   8  11  775.10    9.78
  -6  -8 -12  670.47   10.50
  -6  -8 -12  691.70    9.62
  -6  -8  12  682.02   10.40
  -6  -8  12  619.96    9.17
  -6   8 -12  620.07   10.09
  -6   8 -12  676.67    9.51
   6  -8 -12  628.05    9.38
   6  -8 -12  634.53    7.96
   6  -8  12  664.68    9.95
   6  -8  12  808.65    9.40
   6   8 -12  697.45   10.89
   6   8 -12  630.68    9.59
   6   8  12  749.04   11.01
   6   8  12  840.05   10.46
  -6  -8 -13  415.32    9.50
  -6  -8 -13  410.54    8.72
  -6  -8  13  411.95    9.38
  -6  -8  13  366.39    8.08
  -6   8 -13  384.35    9.15
  -6   8 -13  402.73    8.52
   6  -8 -13  401.68    8.71
   6  -8 -13  389.62    7.42
   6  -8  13  399.73    9.17
   6  -8  13  495.91    8.59
   6   8 -13  432.31    9.84
   6   8 -13  381.89    8.69
   6   8  13  471.18   10.16
   6   8  13  491.38    9.34
  -6  -8 -14  179.73    8.73
  -6  -8 -14  167.18    7.48
  -6  -8  14  165.16    7.89
  -6  -8  14  154.17    6.85
  -6   8 -14  154.66    8.17
  -6   8 -14  170.93    7.60
   6  -8 -14  181.61    7.97
   6  -8 -14  164.82    6.65
   6  -8  14  155.91    7.98
   6  -8  14  203.80    7.65
   6   8 -14  186.32    8.55
   6   8 -14  165.00    7.70
   6   8  14  213.58    8.70
   6   8  14  234.02    8.30
  -6  -8 -15   38.28    5.38
  -6  -8 -15   31.30    4.49
  -6  -8  15   26.77    4.75
  -6  -8  15   24.96    3.80
  -6   8 -15   32.71    5.07
  -6   8 -15   25.22    4.22
   6  -8 -15   33.53    4.65
   6  -8 -15   29.84    3.87
   6  -8  15   31.50    5.03
   6  -8  15   38.52    4.58
   6   8 -15   30.61    5.15
   6   8 -15   25.08    4.23
   6   8  15   41.88    5.16
   6   8  15   43.05    4.76
  -6  -8 -16   38.39    5.51
  -6  -8 -16   34.93    4.54
  -6  -8  16   31.97    5.04
  -6  -8  16   28.78    4.09
  -6   8 -16   35.05    5.28
  -6   8 -16   35.09    4.61
   6  -8 -16   36.85    4.94
   6  -8 -16   37.02    4.22
   6  -8  16   36.40    5.13
   6  -8  16   44.21    4.82
   6   8 -16   38.74    5.71
   6   8 -16   32.68    4.61
   6   8  16   43.64    5.52
   6   8  16   45.55    5.27
  -6  -8 -17   30.78    5.24
  -6  -8 -17   27.37    4.47
  -6  -8  17   25.31    4.94
  -6  -8  17   20.11    4.08
  -6   8 -17   23.91    5.08
  -6   8 -17   22.29    4.56
   6  -8 -17   25.50    4.79
   6  -8 -17   30.62    4.22
   6   8 -17   31.50    5.59
   6   8 -17   21.56    4.36
  -6  -8 -18   11.65    5.26
  -6  -8 -18   11.81    4.19
  -6  -8  18   18.66    4.96
  -6  -8  18    6.77    3.89
  -6   8 -18   12.90    4.30
   6  -8 -18   16.14    4.85
   6  -8 -18   17.72    4.03
   6   8 -18   14.38    5.26
   6   8 -18   14.54    4.36
  -6 -10   0  655.92    6.70
   6  10   0  797.14    7.24
   6  10   0  681.29    6.87
   6  10  -1  905.00    7.64
  -6 -10  -2  263.31    5.31
  -6 -10  -2  218.68    5.03
  -6 -10   2  265.92    5.09
  -6 -10   2  203.40    4.87
  -6  10  -2  170.15    2.94
   6 -10   2  227.00    3.12
   6  10  -2  217.07    5.08
   6  10   2  274.58    5.34
  -6 -10  -3   40.14    4.39
  -6 -10  -3   34.76    4.12
  -6 -10   3   31.57    3.86
  -6  10  -3   23.32    2.74
  -6  10   3   28.92    2.54
   6 -10  -3   33.01    2.66
   6 -10   3   27.63    2.77
   6  10  -3   30.18    2.74
   6  10   3   41.50    4.44
  -6 -10  -4  201.18    5.52
  -6 -10  -4  203.10    5.13
  -6 -10   4  159.63    4.94
  -6  10  -4  153.16    3.79
  -6  10   4  148.52    3.44
   6 -10  -4  157.52    3.55
   6 -10   4  152.50    3.67
   6  10  -4  176.80    5.08
   6  10   4  217.57    5.38
  -6  10  -5 1298.00    7.93
   6 -10   5 1314.00    7.97
   6  10  -5 1388.00    9.83
  -6  10   6  495.16    5.12
  -6 -10  -7  933.27    9.79
  -6 -10  -7  947.43    9.00
  -6 -10   7  890.40    9.51
  -6 -10   7  802.98    8.46
  -6  10  -7  780.75    7.85
  -6  10  -7 1030.00    7.56
  -6  10   7  730.57    7.04
   6 -10  -7  783.87    7.36
   6 -10   7  791.15    7.72
   6  10  -7  837.12    8.78
   6  10   7  970.07    9.86
   6  10   7 1083.00    9.46
  -6 -10  -8  140.84    6.52
  -6 -10  -8  146.95    5.83
  -6 -10   8  158.84    6.17
  -6 -10   8  139.94    5.46
  -6  10  -8  144.61    5.51
  -6  10  -8  175.01    5.14
  -6  10   8  140.35    4.90
  -6  10   8  140.28    4.26
   6 -10  -8  141.62    5.04
   6 -10  -8  150.42    3.65
   6 -10   8  137.42    5.20
   6 -10   8  195.04    4.45
   6  10  -8  169.37    6.73
   6  10  -8  145.39    5.92
   6  10   8  159.79    6.42
   6  10   8  170.49    6.14
  -6 -10  -9    0.83    3.44
  -6 -10  -9   -4.92    3.07
  -6 -10   9    5.42    3.28
  -6 -10   9    4.82    2.79
  -6  10  -9    0.31    2.98
  -6  10  -9    3.37    2.72
  -6  10   9    2.83    2.59
  -6  10   9    2.13    1.27
   6 -10  -9    3.52    2.65
   6 -10  -9    3.46    2.13
   6 -10   9    2.90    2.91
   6 -10   9    2.44    2.42
   6  10  -9    1.60    3.53
   6  10  -9    1.22    3.00
   6  10   9   -4.07    3.34
   6  10   9   -0.21    3.04
  -6 -10 -10  191.90    7.33
  -6 -10 -10  188.85    6.65
  -6 -10  10  173.73    7.02
  -6 -10  10  166.31    6.12
  -6  10 -10  163.19    6.55
  -6  10 -10  176.84    6.03
  -6  10  10  157.45    5.66
   6 -10 -10  168.96    5.99
   6 -10 -10  191.46    4.99
   6 -10  10  159.44    6.39
   6 -10  10  219.95    5.70
   6  10 -10  203.14    7.68
   6  10 -10  164.40    6.62
   6  10  10  220.73    7.46
   6  10  10  217.75    7.00
  -6 -10 -11  380.77    8.80
  -6 -10 -11  366.48    7.83
  -6 -10  11  358.47    8.39
  -6 -10  11  324.74    7.40
  -6  10 -11  312.90    7.92
  -6  10 -11  337.79    7.37
   6 -10 -11  335.69    7.43
   6 -10 -11  354.76    6.15
   6 -10  11  323.55    7.96
   6 -10  11  413.53    7.12
   6  10 -11  383.32    9.02
   6  10 -11  331.72    8.01
   6  10  11  425.93    8.98
   6  10  11  433.35    8.39
  -6 -10 -12  361.99    9.11
  -6 -10 -12  356.10    7.99
  -6 -10  12  326.82    8.57
  -6 -10  12  312.68    7.60
  -6  10 -12  302.10    8.43
  -6  10 -12  314.26    7.87
   6 -10 -12  327.23    7.86
   6 -10 -12  351.60    6.78
   6 -10  12  324.06    8.32
   6 -10  12  404.49    7.64
   6  10 -12  369.15    9.24
   6  10 -12  320.29    8.24
   6  10  12  414.36    9.39
   6  10  12  445.74    9.00
  -6 -10 -13  179.63    8.22
  -6 -10 -13  178.26    7.62
  -6 -10  13  158.17    7.52
  -6 -10  13  154.14    6.83
  -6  10 -13  148.15    7.57
  -6  10 -13  142.76    7.00
   6 -10 -13  150.73    7.20
   6 -10 -13  157.33    6.20
   6 -10  13  156.20    7.91
   6 -10  13  199.21    7.16
   6  10 -13  188.37    8.41
   6  10 -13  148.67    7.40
   6  10  13  198.59    8.50
   6  10  13  206.27    7.78
  -6 -10 -14   -1.51    4.09
  -6 -10 -14   -2.01    3.51
  -6 -10  14   -4.37    4.05
  -6 -10  14   -1.69    3.37
  -6  10 -14   -1.76    4.12
  -6  10 -14   -3.03    3.73
   6 -10 -14   -1.35    3.90
   6 -10 -14   -5.77    3.11
   6 -10  14   -0.47    4.02
   6 -10  14   -5.93    3.57
   6  10 -14   -1.23    4.35
   6  10 -14   -4.64    3.67
   6  10  14    1.41    4.32
   6  10  14    1.65    4.04
  -6 -10 -15   76.93    8.34
  -6 -10 -15   76.81    7.52
  -6 -10  15   53.88    5.28
  -6 -10  15   56.01    6.35
  -6  10 -15   88.73    8.26
  -6  10 -15   68.88    7.29
   6 -10 -15   65.25    7.40
   6 -10 -15   65.85    6.34
   6 -10  15   93.89    8.21
   6 -10  15   99.21    7.27
   6  10 -15   76.91    8.52
   6  10 -15   67.78    7.47
   6  10  15   99.88    8.47
  -6 -10 -16    5.33    4.81
  -6 -10 -16    9.65    4.07
  -6 -10  16    3.93    4.60
  -6 -10  16   -2.94    3.52
  -6  10 -16    6.80    4.57
  -6  10 -16    4.27    4.02
   6 -10 -16   11.75    4.57
   6 -10 -16    5.62    3.57
   6  10 -16    0.93    4.85
   6  10 -16    0.72    4.28
  -6 -10 -17   22.83    5.11
  -6 -10 -17   23.30    4.39
  -6 -10  17   19.51    5.12
  -6 -10  17   17.78    4.05
  -6  10 -17   26.01    4.52
   6 -10 -17   33.04    4.92
   6 -10 -17   28.04    4.00
   6  10 -17   20.66    5.42
   6  10 -17   20.73    4.53
  -6 -10 -18   29.15    5.75
  -6 -10 -18   18.71    4.47
  -6  10 -18   27.75    4.78
   6 -10 -18   34.38    5.17
   6 -10 -18   33.22    4.22
   6  10 -18   28.09    5.77
   6  10 -18   21.11    4.70
  -6 -12   0  927.84    7.66
   6  12   0  989.53    8.13
  -6 -12  -1  271.02    5.37
  -6 -12  -1  211.37    5.09
  -6 -12   1  276.98    5.31
  -6 -12   1  198.64    4.94
   6  12  -1  247.34    5.41
   6  12  -1  212.57    5.47
   6  12   1  263.31    5.47
  -6 -12  -2   17.99    2.68
  -6 -12  -2   14.50    2.65
  -6 -12   2   16.60    2.50
  -6 -12   2    9.11    2.47
   6  12  -2   12.97    2.70
   6  12   2   11.57    2.54
  -6 -12   3  982.80    8.15
  -6  12  -3  911.12    5.33
   6 -12   3 1017.00    5.54
   6  12  -3 1012.00    8.67
  -6 -12  -5 1080.00    9.93
  -6 -12  -5 1111.00    8.95
  -6 -12   5 1088.00   10.02
  -6 -12   5  909.73    8.46
  -6  12  -5  858.43    6.76
  -6  12   5  870.66    6.31
   6 -12  -5  899.77    6.41
   6 -12   5  903.56    6.79
   6  12  -5  943.37    8.96
  -6 -12  -6  959.06    9.78
  -6 -12  -6  996.90    8.84
  -6 -12   6  902.60    9.61
  -6 -12   6  805.70    8.21
  -6  12  -6  805.51    7.23
  -6  12   6  772.09    6.39
   6 -12  -6  834.30    6.83
   6 -12   6  806.35    7.14
   6  12  -6  820.81    8.70
   6  12   6 1055.00   10.01
   6  12   6 1126.00    9.57
  -6 -12  -7 1297.00   10.06
  -6 -12   7 1219.00   11.07
  -6 -12   7 1102.00    9.65
  -6  12  -7 1059.00    8.72
  -6  12  -7 1398.00    8.28
  -6  12   7  575.20    5.88
   6 -12  -7 1113.00    8.32
   6 -12   7 1072.00    8.75
   6  12  -7 1114.00   10.07
  -6 -12  -8  670.54    9.28
  -6 -12  -8  664.76    8.22
  -6 -12   8  662.06    9.29
  -6 -12   8  565.33    7.76
  -6  12  -8  561.20    7.54
  -6  12  -8  741.30    7.32
  -6  12   8  530.17    6.73
  -6  12   8  587.93    6.10
   6 -12  -8  595.78    7.14
   6 -12   8  565.12    7.46
   6  12  -8  616.86    8.44
   6  12   8  738.73    9.51
   6  12   8  786.65    9.20
  -6 -12  -9   47.74    4.44
  -6 -12  -9   40.52    3.71
  -6 -12   9   47.01    4.28
  -6 -12   9   49.90    5.24
  -6  12  -9   39.47    3.60
  -6  12  -9   46.99    4.78
  -6  12   9   41.63    5.25
   6 -12  -9   42.07    4.90
   6 -12   9   34.10    3.41
   6 -12   9   59.74    4.21
   6  12  -9   47.34    4.43
   6  12  -9   33.46    3.70
   6  12   9   54.91    4.57
   6  12   9   51.98    4.02
  -6 -12 -10   43.77    4.65
  -6 -12 -10   36.90    3.75
  -6 -12  10   44.31    4.29
  -6 -12  10   45.69    5.54
  -6  12 -10   37.57    3.81
  -6  12 -10   41.76    3.54
   6 -12 -10   40.13    3.66
   6 -12 -10   36.82    3.93
   6 -12  10   35.23    3.78
   6 -12  10   46.11    4.71
   6  12 -10   44.83    4.69
   6  12 -10   34.41    3.85
   6  12  10   47.95    4.58
   6  12  10   43.21    3.98
  -6 -12 -11  135.24    7.62
  -6 -12 -11  139.18    6.72
  -6 -12  11  135.90    7.41
  -6 -12  11  128.99    6.35
  -6  12 -11  127.67    6.76
  -6  12 -11  134.96    6.26
   6 -12 -11  123.51    6.18
   6 -12 -11  139.03    4.99
   6 -12  11  118.11    6.58
   6 -12  11  151.78    5.70
   6  12 -11  146.90    7.91
   6  12 -11  129.07    6.97
   6  12  11  160.07    7.67
   6  12  11  159.50    7.08
  -6 -12 -12   44.89    4.88
  -6 -12 -12   39.51    4.07
  -6 -12  12   55.47    6.79
  -6 -12  12   27.79    3.53
  -6  12 -12   36.97    4.41
  -6  12 -12   37.11    3.99
   6 -12 -12   43.19    4.16
   6 -12 -12   43.18    5.01
   6 -12  12   34.69    4.30
   6 -12  12   47.37    5.55
   6  12 -12   39.36    4.83
   6  12 -12   39.16    4.24
   6  12  12   53.29    4.97
   6  12  12   48.12    5.21
  -6 -12 -13   -1.32    4.28
  -6 -12 -13    2.35    3.57
  -6 -12  13    3.73    4.04
  -6 -12  13    2.66    3.31
  -6  12 -13    3.51    3.98
  -6  12 -13    3.02    3.58
   6 -12 -13    2.18    3.71
   6 -12 -13    1.56    2.95
   6 -12  13    5.66    3.94
   6 -12  13    1.61    3.42
   6  12 -13    4.72    4.42
   6  12 -13    2.81    3.71
   6  12  13    5.29    4.38
  -6 -12 -14    4.83    4.40
  -6 -12 -14   -1.43    3.73
  -6 -12  14   -1.39    4.30
  -6 -12  14    2.53    3.47
  -6  12 -14    4.41    4.10
  -6  12 -14    4.75    3.79
   6 -12 -14    8.16    4.00
   6 -12 -14    7.69    3.44
   6 -12  14    6.47    4.32
   6 -12  14    4.48    3.61
   6  12 -14    7.36    4.61
   6  12 -14    5.68    3.97
  -6 -12 -15   10.31    4.71
  -6 -12 -15    7.18    3.88
  -6 -12  15    6.40    4.61
  -6 -12  15    4.04    3.66
  -6  12 -15    7.66    4.50
  -6  12 -15    4.76    3.88
   6 -12 -15   12.38    4.18
   6 -12 -15   11.17    3.44
   6 -12  15   14.42    4.78
   6 -12  15   14.10    4.07
   6  12 -15    8.21    5.11
   6  12 -15    4.73    4.34
  -6 -12 -16  235.56    9.64
  -6 -12 -16  218.58    8.23
  -6 -12  16  202.19    9.31
  -6 -12  16  188.60    7.87
  -6  12 -16  225.22    8.70
   6 -12 -16  230.49    8.52
   6 -12 -16  228.36    7.17
   6  12 -16  228.33   10.24
   6  12 -16  194.79    8.85
  -6 -12 -17  240.85   10.23
  -6 -12 -17  244.81    8.68
   6 -12 -17  260.30    9.18
   6 -12 -17  243.75    7.49
   6  12 -17  263.42   10.80
   6  12 -17  230.38    9.30
  -6 -14   0   24.89    2.86
  -6 -14   0   22.38    2.76
   6  14   0   29.71    2.84
   6  14   0   21.17    2.95
  -6 -14  -1   39.18    3.10
  -6 -14  -1   33.68    2.98
  -6 -14   1   45.60    3.19
  -6 -14   1   25.10    2.84
   6  14  -1   37.13    4.55
   6  14  -1   27.26    3.04
   6  14   1   43.31    4.55
   6  14   1   36.82    3.17
  -6 -14  -2  353.18    6.10
  -6 -14  -2  272.06    5.77
  -6 -14   2  346.50    5.88
  -6 -14   2  248.69    5.49
   6  14  -2  261.43    6.02
   6  14   2  358.52    6.11
  -6 -14  -3  930.09    8.05
  -6 -14  -3  787.65    7.68
  -6 -14   3  963.98    8.18
  -6 -14   3  691.69    7.36
   6  14  -3  753.39    8.12
   6  14   3 1012.00    8.68
  -6 -14  -4 1101.00    8.86
  -6 -14   4  952.57    8.40
  -6  14  -4  915.04    6.09
  -6  14   4 1002.00    5.71
   6 -14  -4  978.23    5.74
   6 -14   4  980.05    6.23
   6  14  -4 1010.00    9.13
  -6 -14   5 1321.00    9.91
  -6  14  -5 1255.00    7.73
  -6  14   5 1321.00    7.28
  -6 -14  -6 1215.00   11.07
  -6 -14  -6 1201.00    9.62
  -6 -14   6 1212.00   11.01
  -6 -14   6  962.81    9.03
  -6  14  -6  965.27    7.71
  -6  14   6 1027.00    7.28
   6 -14  -6  995.90    7.31
   6 -14   6  976.21    7.71
   6  14  -6 1048.00    9.90
   6  14   6 1427.00   11.66
  -6 -14  -7  828.26    9.96
  -6 -14  -7  785.50    8.57
  -6 -14   7  800.83    9.80
  -6 -14   7  674.37    8.18
  -6  14  -7  668.37    7.30
  -6  14  -7  895.67    6.87
  -6  14   7  382.62    5.02
  -6  14   7  727.47    5.62
   6 -14  -7  692.32    6.95
   6 -14   7  651.59    7.21
   6  14  -7  707.54    8.83
   6  14   7  883.18    9.96
   6  14   7  941.47    9.49
  -6 -14  -8  472.73    8.56
  -6 -14  -8  465.11    7.79
  -6 -14   8  455.45    8.47
  -6 -14   8  424.44    7.29
  -6  14  -8  410.64    6.80
  -6  14  -8  526.68    6.48
  -6  14   8  466.99    5.75
   6 -14  -8  422.63    6.39
   6 -14   8  418.76    6.80
   6  14  -8  430.29    7.92
   6  14   8  555.93    9.00
   6  14   8  557.86    8.34
  -6 -14  -9   92.04    6.74
  -6 -14  -9   88.15    5.95
  -6 -14   9   95.81    6.62
  -6 -14   9   87.97    5.67
  -6  14  -9   81.22    5.54
  -6  14  -9   98.76    5.08
   6 -14  -9   85.87    5.15
   6 -14   9   91.45    5.53
   6  14  -9   84.33    6.45
   6  14   9  109.41    6.89
   6  14   9  106.02    6.42
  -6 -14 -10    9.52    4.08
  -6 -14 -10    7.37    3.40
  -6 -14  10   18.08    4.02
  -6 -14  10    8.37    3.16
  -6  14 -10    6.71    3.36
  -6  14 -10   11.92    3.20
   6 -14 -10   13.95    3.10
   6 -14  10    7.70    3.27
   6 -14  10   15.44    2.67
   6  14 -10   12.03    4.33
   6  14 -10   11.76    3.56
   6  14  10   13.81    4.12
  -6 -14 -11   51.53    5.01
  -6 -14 -11   43.40    4.05
  -6 -14  11   48.75    4.81
  -6 -14  11   39.80    3.86
  -6  14 -11   39.49    4.19
  -6  14 -11   42.23    3.83
   6 -14 -11   36.96    3.81
   6 -14 -11   48.73    4.07
   6 -14  11   39.09    4.06
   6 -14  11   64.61    5.08
   6  14 -11   44.90    4.90
   6  14 -11   38.47    4.20
   6  14  11   66.75    7.49
  -6 -14 -12   18.98    4.62
  -6 -14 -12   11.27    3.72
  -6 -14  12    9.12    4.25
  -6 -14  12    7.92    3.34
  -6  14 -12   18.92    4.00
  -6  14 -12    9.56    3.49
   6 -14 -12   12.74    3.60
   6 -14 -12   13.21    2.77
   6 -14  12   14.71    3.91
   6 -14  12   22.45    3.30
   6  14 -12   13.11    4.59
   6  14 -12   11.23    3.98
  -6 -14 -13   -1.84    4.43
  -6 -14 -13   -3.91    3.38
  -6 -14  13   -2.56    4.01
  -6 -14  13   -2.14    3.37
  -6  14 -13    3.13    3.97
  -6  14 -13    2.41    3.65
   6 -14 -13   -0.91    3.57
   6 -14 -13   -2.49    2.84
   6 -14  13    0.46    3.92
   6 -14  13   -0.51    3.31
   6  14 -13   -2.70    4.39
   6  14 -13   -4.32    3.92
  -6 -14 -14   31.24    5.16
  -6 -14 -14   30.85    4.25
  -6 -14  14   29.09    4.95
  -6 -14  14   24.47    3.91
  -6  14 -14   29.53    4.70
  -6  14 -14   31.09    4.31
   6 -14 -14   28.95    4.21
   6 -14 -14   37.47    3.56
   6 -14  14   35.30    4.87
   6 -14  14   47.65    4.33
   6  14 -14   34.34    5.27
   6  14 -14   34.30    4.69
  -6 -14 -15  121.28    8.60
  -6 -14 -15  109.77    7.47
  -6 -14  15  104.69    8.54
  -6 -14  15   92.50    6.70
  -6  14 -15  117.91    8.33
  -6  14 -15  119.92    7.85
   6 -14 -15  116.03    7.43
   6 -14 -15  120.76    6.15
   6  14 -15  124.60    9.20
   6  14 -15   92.57    8.08
  -6 -14 -16   87.86    8.72
  -6 -14 -16   79.16    7.34
   6 -14 -16   90.54    7.38
   6 -14 -16   93.56    6.33
   6  14 -16   91.66    9.44
   6  14 -16   45.35    5.18
  -6 -14 -17  272.74   10.36
  -6 -14 -17  270.38    8.65
   6 -14 -17  282.95    9.24
   6 -14 -17  262.68    7.46
   6  14 -17  275.69    9.76
  -6 -16   0  456.67    6.50
  -6 -16   0  323.16    5.78
   6  16   0  461.20    6.70
   6  16   0  353.69    6.60
  -6 -16  -1  115.95    5.09
  -6 -16  -1   95.24    4.61
  -6 -16   1  129.84    5.18
  -6 -16   1   99.15    4.59
   6  16  -1  121.08    5.11
   6  16  -1   97.54    5.31
   6  16   1  122.19    5.16
   6  16   1  106.46    5.09
  -6 -16  -2   60.33    4.87
  -6 -16  -2   49.71    4.48
  -6 -16   2   72.80    4.68
  -6 -16   2   47.90    4.61
   6  16  -2   64.69    4.92
   6  16  -2   48.66    5.08
   6  16   2   65.26    4.92
  -6 -16  -3  115.68    4.97
  -6 -16  -3   97.82    4.88
  -6 -16   3  113.07    4.96
  -6 -16   3   81.66    4.82
   6  16  -3   94.32    5.43
   6  16   3  135.14    5.35
  -6 -16  -4  556.64    8.19
  -6 -16  -4  608.82    7.29
  -6 -16  -4  531.48    7.12
  -6 -16   4  646.80    7.43
  -6 -16   4  465.72    6.87
  -6  16  -4  471.96    4.87
   6 -16   4  464.42    4.87
   6  16  -4  491.38    7.55
   6  16   4  680.46    8.02
  -6 -16  -5  847.04    9.60
  -6 -16  -5  792.34    8.19
  -6 -16  -5  713.06    7.99
  -6 -16   5  883.76    8.48
  -6 -16   5  647.76    7.77
  -6  16  -5  637.56    6.08
  -6  16   5  698.11    5.70
   6 -16  -5  648.97    5.58
   6 -16   5  629.30    6.07
   6  16  -5  656.58    8.36
   6  16   5  898.73    9.15
  -6 -16  -6  992.24   10.57
  -6 -16  -6  945.42    8.88
  -6 -16   6  921.12   10.22
  -6 -16   6  789.44    8.59
  -6  16  -6  772.86    7.24
  -6  16   6  848.37    6.78
   6 -16  -6  793.88    6.63
   6 -16   6  765.46    7.09
   6  16  -6  822.54    9.43
   6  16   6 1087.00    9.85
  -6 -16  -7  654.58    9.37
  -6 -16  -7  609.87    8.05
  -6 -16   7  580.47    9.12
  -6 -16   7  511.18    7.53
  -6  16  -7  525.34    6.96
  -6  16  -7  666.50    6.19
  -6  16   7  556.59    5.01
   6 -16  -7  541.90    6.45
   6 -16   7  483.17    6.68
   6  16  -7  520.39    8.34
   6  16   7  744.64    9.77
   6  16   7  719.19    8.85
  -6 -16  -8  130.09    7.00
  -6 -16  -8  119.94    5.95
  -6 -16   8  126.75    6.91
  -6 -16   8  111.96    5.72
  -6  16  -8  125.21    5.57
  -6  16  -8  139.50    4.98
   6 -16  -8  125.96    5.10
   6 -16   8  107.41    5.38
   6  16  -8  112.75    6.51
   6  16   8  149.57    6.78
  -6 -16  -9   -5.53    3.56
  -6 -16  -9    0.25    3.18
  -6 -16   9    0.70    3.56
  -6 -16   9    0.31    2.99
  -6  16  -9    2.01    3.06
  -6  16  -9    4.83    2.82
   6 -16  -9    2.13    2.86
   6 -16   9    0.51    3.02
   6  16  -9   -1.15    3.55
  -6 -16 -10   15.98    4.18
  -6 -16 -10   12.34    3.46
  -6 -16  10   17.35    4.09
  -6 -16  10    9.72    3.32
  -6  16 -10   10.98    3.48
  -6  16 -10   14.08    3.17
   6 -16 -10   13.05    3.18
   6 -16  10    9.16    3.44
   6  16 -10   11.12    3.82
  -6 -16 -11   87.61    7.45
  -6 -16 -11   81.82    6.48
  -6 -16  11   81.16    7.32
  -6 -16  11   72.18    6.01
  -6  16 -11   78.89    6.33
  -6  16 -11   93.36    6.11
   6 -16 -11   73.13    5.89
   6 -16  11   74.06    6.41
   6 -16  11  115.89    4.93
   6  16 -11   86.10    8.05
   6  16 -11   77.49    7.20
  -6 -16 -12   97.14    8.09
  -6 -16 -12   87.50    6.68
  -6 -16  12   91.57    7.71
  -6 -16  12   85.95    6.42
  -6  16 -12   94.81    6.94
  -6  16 -12   86.84    6.45
   6 -16 -12   87.25    6.29
   6 -16 -12   87.12    4.28
   6 -16  12   86.36    6.81
   6 -16  12  138.47    5.71
   6  16 -12  112.22    8.50
   6  16 -12   82.21    7.47
  -6 -16 -13    9.58    4.57
  -6 -16 -13    7.45    3.76
  -6 -16  13   17.25    4.72
  -6 -16  13   12.83    3.66
  -6  16 -13    9.94    4.25
  -6  16 -13   14.11    3.99
   6 -16 -13   10.75    3.77
   6 -16 -13   14.49    2.79
   6 -16  13   10.19    4.26
   6 -16  13   22.69    3.53
   6  16 -13   20.30    5.17
   6  16 -13   12.82    4.45
  -6 -16 -14  -12.38    4.15
  -6 -16 -14   -6.88    3.56
  -6 -16  14   -0.57    4.51
  -6 -16  14   -1.80    3.51
  -6  16 -14   -6.04    4.26
  -6  16 -14   -3.44    3.83
   6 -16 -14    0.75    3.67
   6 -16 -14    1.58    2.88
   6 -16  14   -2.62    3.39
   6  16 -14   -1.68    5.02
   6  16 -14   -2.51    4.27
  -6 -16 -15    0.70    4.53
  -6 -16 -15    2.79    3.77
   6 -16 -15    4.93    3.93
   6 -16 -15    4.93    3.12
   6  16 -15    0.69    4.98
   6  16 -15    0.55    4.43
  -6 -16 -16  101.81    8.51
  -6 -16 -16   95.95    7.30
   6 -16 -16  111.89    7.63
   6 -16 -16   99.86    6.12
   6  16 -16   95.36    8.44
   6  18   0 1531.00   11.04
  -6 -18  -1 1219.00    9.01
  -6 -18   1 1166.00    8.89
   6  18  -1 1347.00   10.40
   6  18   1 1369.00   10.54
  -6 -18  -2  230.42    5.88
  -6 -18  -2  180.02    5.43
  -6 -18   2  274.33    6.17
  -6 -18   2  182.68    5.37
   6  18  -2  209.52    6.17
   6  18  -2  197.89    6.18
   6  18   2  227.86    6.34
   6  18   2  182.39    6.05
  -6 -18  -3   -6.39    2.58
  -6 -18   3   -2.06    2.67
  -6 -18   3   -2.34    2.52
   6  18  -3   -0.05    2.93
   6  18   3   -4.23    2.87
  -6 -18  -4  112.93    6.07
  -6 -18  -4  107.07    5.36
  -6 -18  -4   96.29    5.16
  -6 -18   4  126.87    5.31
  -6 -18   4   86.05    5.11
  -6  18  -4   92.98    3.56
   6 -18   4   90.03    3.56
   6  18  -4   96.15    5.82
   6  18   4  143.46    7.04
  -6 -18  -5  360.18    7.84
  -6 -18  -5  351.94    6.60
  -6 -18  -5  306.86    6.44
  -6 -18   5  401.93    6.86
  -6 -18   5  278.27    6.28
  -6  18  -5  294.83    4.94
   6 -18  -5  297.82    4.45
   6 -18   5  269.22    4.82
   6  18  -5  282.73    7.03
  -6 -18  -6  336.91    7.73
  -6 -18  -6  306.54    6.61
  -6 -18  -6  275.80    6.54
  -6 -18   6  317.56    7.65
  -6 -18   6  368.86    6.83
  -6 -18   6  264.68    6.37
  -6  18  -6  283.25    5.36
   6 -18  -6  278.46    4.92
   6 -18   6  269.84    5.38
   6  18  -6  275.11    7.29
  -6 -18  -7  142.35    6.98
  -6 -18  -7  129.60    6.16
  -6 -18   7  140.49    6.93
  -6 -18   7  113.64    5.66
  -6  18  -7  111.46    5.14
  -6  18  -7  128.26    4.30
   6 -18  -7  115.32    4.66
   6 -18   7   98.09    5.04
   6  18  -7  109.34    6.70
  -6 -18  -8   15.77    3.94
  -6 -18  -8    6.77    3.18
  -6 -18   8   11.43    3.90
  -6 -18   8    7.47    3.06
  -6  18  -8    6.25    3.03
  -6  18  -8    6.26    2.68
   6 -18  -8    8.86    2.75
   6 -18   8    6.97    3.11
   6  18  -8   10.81    3.77
  -6 -18  -9   17.69    4.07
  -6 -18  -9   17.29    3.44
  -6 -18   9   18.07    4.33
  -6 -18   9   14.02    3.33
  -6  18  -9   12.50    3.35
  -6  18  -9   18.98    3.06
   6 -18  -9   12.01    3.09
   6 -18   9   12.72    3.39
   6  18  -9   11.24    3.86
  -6 -18 -10  150.56    7.89
  -6 -18 -10  138.38    6.47
  -6 -18  10  134.00    7.95
  -6 -18  10  119.88    6.30
  -6  18 -10  128.17    6.63
  -6  18 -10  151.87    6.09
   6 -18 -10  110.45    5.79
   6 -18  10  128.93    6.48
   6  18 -10  126.60    7.65
  -6 -18 -11  243.12    8.86
  -6 -18 -11  219.54    7.36
  -6 -18  11  221.89    8.74
  -6 -18  11  194.94    7.03
  -6  18 -11  225.49    7.80
  -6  18 -11  238.34    7.18
   6 -18 -11  196.42    6.77
   6 -18  11  204.30    7.30
   6  18 -11  197.00    8.47
  -6 -18 -12  255.16    9.18
  -6 -18 -12  234.22    7.58
  -6 -18  12  259.73    9.30
  -6 -18  12  219.75    7.32
  -6  18 -12  258.87    8.39
  -6  18 -12  251.67    7.67
   6 -18 -12  233.10    7.33
   6 -18  12  246.43    8.10
   6 -18  12  347.32    5.98
   6  18 -12  293.96   10.16
   6  18 -12  233.69    8.76
  -6 -18 -13  229.15    9.29
  -6 -18 -13  201.64    7.64
  -6 -18  13  231.49    9.25
  -6  18 -13  237.53    8.67
  -6  18 -13  218.46    7.87
   6 -18 -13  216.86    7.40
   6 -18  13  226.77    8.91
   6 -18  13  308.19    6.62
   6  18 -13  279.52   10.36
   6  18 -13  226.15    8.89
  -6 -18 -14   76.42    8.31
  -6 -18 -14   67.88    6.80
   6 -18 -14   62.64    6.65
   6 -18 -14   65.74    4.61
   6 -18  14   91.94    6.09
   6  18 -14   90.59    9.22
   6  18 -14   85.25    7.97
  -6 -18 -15    1.15    4.72
  -6 -18 -15   -6.19    3.52
   6 -18 -15   -0.56    3.90
   6 -18 -15   -2.58    2.81
   6  18 -15    0.95    4.39
   6  20   0 1672.00   11.85
  -6 -20  -1 1004.00    8.62
  -6 -20   1 1005.00    8.48
   6  20  -1 1069.00   10.01
   6  20   1 1124.00   10.31
  -6 -20  -2  750.81    7.85
  -6 -20  -2  562.82    7.08
  -6 -20   2  847.05    8.16
  -6 -20   2  549.77    7.01
   6  20  -2  586.62    8.25
   6  20   2  615.61    8.34
  -6 -20  -3   60.94    5.33
  -6 -20  -3   56.01    5.00
  -6 -20   3  106.72    5.72
  -6 -20   3   67.99    5.07
   6  20  -3   69.83    5.84
  -6 -20  -4   11.62    3.57
  -6 -20  -4    3.49    3.00
  -6 -20  -4    7.20    3.07
  -6 -20   4   12.28    3.18
  -6 -20   4    9.16    2.82
   6  20  -4   10.56    3.40
  -6 -20  -5   54.84    4.70
  -6 -20  -5   42.97    3.48
  -6 -20  -5   36.89    3.64
  -6 -20   5   52.60    5.31
  -6 -20   5   34.18    3.22
  -6  20  -5   42.47    3.91
   6 -20  -5   37.86    3.46
   6 -20   5   36.16    3.97
   6  20  -5   34.71    3.91
  -6 -20  -6   75.85    6.45
  -6 -20  -6   70.86    5.75
  -6 -20  -6   64.15    5.82
  -6 -20   6   71.38    6.46
  -6 -20   6   95.02    5.82
  -6 -20   6   67.30    5.29
  -6  20  -6   60.82    4.44
   6 -20  -6   69.39    4.05
   6 -20   6   64.35    4.61
   6  20  -6   63.40    6.39
  -6 -20  -7   90.54    6.77
  -6 -20  -7   68.93    5.64
  -6 -20  -7   73.20    5.79
  -6 -20   7   71.53    6.67
  -6 -20   7   83.38    5.72
  -6 -20   7   65.17    5.52
  -6  20  -7   64.01    4.94
  -6  20  -7   76.79    4.04
   6 -20  -7   65.94    4.43
   6 -20   7   58.55    4.97
   6  20  -7   64.59    6.60
  -6 -20  -8    8.42    3.99
  -6 -20  -8    3.82    3.20
  -6 -20   8    0.47    3.89
  -6 -20   8    2.16    3.05
  -6  20  -8    6.29    3.06
  -6  20  -8    2.21    2.53
   6 -20  -8    3.60    2.68
   6 -20   8    3.16    3.10
   6  20  -8   -2.25    3.82
  -6 -20  -9  138.78    7.49
  -6 -20  -9  128.07    6.27
  -6 -20   9  129.40    7.98
  -6 -20   9  115.28    6.25
  -6  20  -9  122.77    6.05
  -6  20  -9  140.77    5.58
   6 -20  -9  126.71    5.58
   6 -20   9  122.31    6.16
   6  20  -9  119.42    7.59
  -6 -20 -10  531.90   10.33
  -6 -20 -10  491.31    8.41
  -6 -20  10  480.94   10.34
  -6 -20  10  426.18    8.23
  -6  20 -10  484.51    8.62
  -6  20 -10  512.01    7.82
   6 -20 -10  451.65    7.55
   6 -20  10  441.36    8.27
   6  20 -10  459.78    9.81
  -6 -20 -11  662.67   11.29
  -6 -20 -11  575.62    8.85
  -6 -20  11  580.16   11.27
  -6 -20  11  530.25    8.87
  -6  20 -11  643.53   10.00
  -6  20 -11  627.18    9.02
   6 -20 -11  558.92    8.47
   6 -20  11  541.70    9.32
   6  20 -11  602.02   10.99
  -6 -20 -12  363.66    9.96
  -6 -20 -12  309.74    7.89
  -6  20 -12  321.99    8.72
  -6  20 -12  354.40    8.30
   6 -20 -12  302.16    7.66
   6 -20  12  312.96    8.63
   6  20 -12  328.58    9.57
  -6 -20 -13  101.37    8.27
  -6 -20 -13   94.37    6.67
   6 -20 -13  100.21    6.66
   6  20 -13  109.64    8.35
  -6 -20 -14   54.09    5.42
  -6 -20 -14   53.61    6.55
   6 -20 -14   45.04    4.53
   6 -20  14   80.15    5.59
   6  20 -14   49.34    5.24
  -6 -22   0  900.28    8.19
  -6 -22   0  628.79    7.34
   6  22   0  679.90    9.05
  -6 -22  -1  867.14    8.11
  -6 -22  -1  625.39    7.39
  -6 -22   1  962.28    8.41
  -6 -22   1  639.50    7.41
   6  22  -1  687.26    9.14
   6  22   1  686.92    9.12
  -6 -22  -2  250.29    6.03
  -6 -22  -2  191.36    5.75
  -6 -22   2  290.44    6.42
  -6 -22   2  191.49    5.61
   6  22  -2  201.96    7.01
   6  22   2  202.73    6.69
  -6 -22  -3    9.75    3.11
  -6 -22  -3    9.04    3.06
  -6 -22   3   21.21    3.39
  -6 -22   3   10.99    2.86
   6  22  -3   14.12    3.52
  -6 -22  -4    8.70    3.68
  -6 -22  -4    1.20    2.95
  -6 -22  -4    2.27    2.95
  -6 -22   4    8.05    3.19
  -6 -22   4    6.31    2.83
   6  22  -4    1.59    3.43
  -6 -22  -5   40.17    4.44
  -6 -22  -5   36.82    3.46
  -6 -22  -5   32.01    3.45
  -6 -22   5   46.21    5.42
  -6 -22   5   27.15    3.17
  -6  22  -5   31.23    2.77
   6 -22   5   26.36    2.69
   6  22  -5   28.61    4.04
  -6 -22  -6   54.90    6.58
  -6 -22  -6   42.85    3.50
  -6 -22  -6   49.56    5.71
  -6 -22   6   44.73    4.60
  -6 -22   6   68.30    5.70
  -6 -22   6   34.94    3.39
  -6  22  -6   45.75    4.45
   6 -22  -6   42.58    4.03
   6 -22   6   38.43    4.53
   6  22  -6   39.52    4.25
  -6 -22  -7   29.51    4.50
  -6 -22  -7   20.41    3.32
  -6 -22  -7   18.84    3.64
  -6 -22   7   21.68    4.34
  -6 -22   7   23.82    3.56
  -6 -22   7   13.72    3.18
  -6  22  -7   18.29    3.09
   6 -22  -7   14.68    2.72
   6 -22   7   12.83    3.06
   6  22  -7   14.19    4.04
  -6 -22  -8   -0.07    3.96
  -6 -22  -8   -3.38    3.11
  -6 -22  -8   -1.96    3.36
  -6 -22   8   -3.48    3.89
  -6 -22   8    1.17    3.39
  -6 -22   8   -0.31    3.15
  -6  22  -8   -1.33    3.06
  -6  22  -8    1.21    2.60
   6 -22  -8   -0.53    2.65
   6 -22   8    1.47    3.17
   6  22  -8   -5.04    3.98
  -6 -22  -9   60.39    7.39
  -6 -22  -9   58.38    6.07
  -6 -22   9   54.78    5.20
  -6 -22   9   38.93    3.84
  -6  22  -9   55.15    5.95
  -6  22  -9   54.66    5.20
   6 -22  -9   59.71    5.28
   6 -22   9   54.51    6.01
   6  22  -9   42.69    4.75
  -6 -22 -10  285.29    9.08
  -6 -22 -10  255.90    7.21
  -6 -22  10  259.51    9.41
  -6 -22  10  218.74    6.95
  -6  22 -10  256.37    7.59
  -6  22 -10  254.82    6.87
   6 -22 -10  243.05    6.70
   6 -22  10  239.27    7.44
   6  22 -10  239.67    9.00
  -6 -22 -11  450.56   10.14
  -6 -22 -11  391.06    7.95
  -6  22 -11  418.52    8.82
  -6  22 -11  410.02    8.82
   6 -22 -11  380.17    7.61
   6 -22  11  380.98    8.58
   6  22 -11  383.11    9.77
  -6 -22 -12  347.93    9.72
  -6 -22 -12  305.57    7.63
   6 -22 -12  305.17    7.48
   6  22 -12  335.11   10.06
  -6 -22 -13  173.67    8.87
  -6 -22 -13  141.75    6.93
   6 -22 -13  133.15    6.85
  -6 -24   0  291.40    6.06
  -6 -24   0  210.66    5.60
   6  24   0  225.81    7.32
  -6 -24  -1   67.37    5.11
  -6 -24  -1   52.94    4.83
  -6 -24   1   72.29    5.29
  -6 -24   1   44.33    4.82
   6  24  -1   59.97    6.37
   6  24   1   56.55    6.57
  -6 -24  -2    2.08    2.87
  -6 -24  -2   -0.07    2.80
  -6 -24   2    4.97    3.02
  -6 -24   2    2.60    2.71
   6  24  -2    6.27    3.68
   6  24   2    1.58    3.51
  -6 -24  -3    0.60    2.83
  -6 -24  -3   -0.04    2.86
  -6 -24   3    4.66    3.04
  -6 -24   3    3.82    2.78
   6  24  -3   -1.85    3.56
  -6 -24  -4   11.09    4.03
  -6 -24  -4   13.82    3.16
  -6 -24  -4   13.48    3.15
  -6 -24   4   20.11    3.51
  -6 -24   4    8.65    2.90
   6  24  -4    9.70    3.74
  -6 -24  -5   60.18    4.95
  -6 -24  -5   50.55    5.31
  -6 -24  -5   47.96    5.47
  -6 -24   5   71.75    5.78
  -6 -24   5   43.06    5.12
   6 -24   5   42.38    4.24
   6  24  -5   43.61    4.53
  -6 -24  -6  174.45    7.69
  -6 -24  -6  155.83    5.99
  -6 -24  -6  139.88    6.16
  -6 -24   6  140.07    7.68
  -6 -24   6  197.57    6.45
  -6 -24   6  124.71    5.81
  -6  24  -6  142.66    5.34
   6 -24  -6  123.62    4.57
   6 -24   6  122.79    5.10
   6  24  -6  136.06    7.50
  -6 -24  -7  205.43    8.16
  -6 -24  -7  176.49    6.19
  -6 -24  -7  169.85    6.58
  -6 -24   7  190.44    8.11
  -6 -24   7  249.06    6.77
  -6 -24   7  150.58    6.01
  -6  24  -7  180.65    5.86
   6 -24  -7  143.34    5.09
   6 -24   7  170.18    5.78
   6  24  -7  178.27    8.05
  -6 -24  -8   62.38    5.28
  -6 -24  -8   52.80    5.73
  -6 -24  -8   53.96    6.25
  -6 -24   8   58.99    7.24
  -6 -24   8   90.93    6.30
  -6 -24   8   59.54    5.58
  -6  24  -8   64.08    5.53
  -6  24  -8   72.66    4.76
   6 -24  -8   47.14    4.91
   6 -24   8   54.02    5.63
   6  24  -8   64.75    7.70
  -6 -24  -9   -1.92    4.15
  -6 -24  -9   -2.80    2.99
  -6 -24  -9   -5.44    4.49
  -6 -24   9    0.90    3.44
  -6  24  -9   -4.70    3.31
  -6  24  -9   -1.48    2.87
   6 -24  -9   -2.37    3.00
   6 -24   9   -0.65    3.44
   6  24  -9   -2.36    4.24
  -6 -24 -10   54.03    5.34
  -6 -24 -10   38.76    3.70
  -6 -24  10   64.62    6.36
  -6  24 -10   50.94    6.36
  -6  24 -10   38.96    5.41
   6 -24 -10   45.63    5.38
   6 -24  10   44.73    4.40
  -6 -24 -11   86.69    7.82
  -6 -24 -11   83.38    6.06
   6 -24 -11   90.30    5.86
  -6 -24 -12  108.08    8.35
  -6 -24 -12  101.33    6.47
   6 -24 -12  102.54    6.48
  -6 -26   0   51.47    4.92
  -6 -26   0   41.99    4.84
   6  26   0   41.69    4.45
  -6 -26  -1    4.16    2.78
  -6 -26  -1   -2.98    2.74
  -6 -26   1    3.00    2.87
  -6 -26   1    2.79    2.75
   6  26  -1    0.86    3.92
   6  26   1    1.84    3.92
  -6 -26  -2   16.98    2.96
  -6 -26  -2   15.24    2.94
  -6 -26   2   17.04    3.13
  -6 -26   2   14.31    2.91
   6  26  -2   14.89    4.14
   6  26   2   11.69    3.87
  -6 -26  -3    2.26    3.97
  -6 -26  -3    4.56    2.93
  -6 -26  -3    3.20    2.92
  -6 -26   3    0.02    3.16
  -6 -26   3   -0.09    2.75
   6  26  -3    1.83    3.98
  -6 -26  -4  168.54    7.69
  -6 -26  -4  137.58    5.42
  -6 -26  -4  141.18    5.75
  -6 -26   4  184.52    6.22
  -6 -26   4  119.85    5.48
   6  26  -4  133.95    7.35
  -6 -26  -5  384.14    9.13
  -6 -26  -5  323.13    6.29
  -6 -26  -5  324.83    6.59
  -6 -26   5  451.10    7.47
  -6 -26   5  285.03    6.34
   6 -26   5  282.59    5.51
   6  26  -5  313.50    8.70
  -6 -26  -6  429.49    9.32
  -6 -26  -6  341.92    6.51
  -6 -26  -6  356.66    7.05
  -6 -26   6  491.00    7.72
  -6 -26   6  316.11    6.59
   6 -26  -6  316.41    5.40
   6 -26   6  323.83    6.17
   6  26  -6  375.46    9.16
  -6 -26  -7  318.10    8.98
  -6 -26  -7  261.64    6.30
  -6 -26  -7  272.94    6.84
  -6 -26   7  387.69    7.23
  -6 -26   7  242.25    7.06
  -6  26  -7  294.23    6.56
   6 -26  -7  233.17    5.46
   6 -26   7  256.81    6.26
  -6 -26  -8  180.14    8.27
  -6 -26  -8  154.90    6.02
  -6 -26   8  237.40    6.74
  -6  26  -8  193.20    6.53
  -6  26  -8  183.67    5.29
   6 -26  -8  147.47    5.50
   6 -26   8  173.42    6.15
  -6 -26  -9   68.58    7.65
  -6 -26  -9   58.76    5.62
  -6 -26   9  103.11    6.30
  -6  26  -9   84.49    6.10
   6 -26  -9   66.07    5.33
   6 -26   9   76.78    6.15
  -6 -26 -10   -1.31    4.28
  -6 -26 -10   -4.44    3.05
  -6 -26  10    4.04    3.55
   6 -26 -10   -0.90    3.04
  -6 -28   0  313.57    5.80
  -6 -28   0  256.26    5.50
   6  28   0  289.05   11.70
  -6 -28  -1   50.61    4.74
  -6 -28  -1   40.78    4.54
  -6 -28   1   57.75    4.78
  -6 -28   1   45.11    4.50
  -6 -28  -2   16.43    2.85
  -6 -28  -2   10.75    2.79
  -6 -28   2   17.76    3.00
  -6 -28   2   10.12    2.69
  -6 -28  -3  145.07    7.61
  -6 -28  -3  111.88    4.85
  -6 -28  -3  113.65    5.05
  -6 -28   3  142.09    5.53
  -6 -28   3  106.75    5.03
  -6 -28  -4  225.06    8.17
  -6 -28  -4  192.55    5.29
  -6 -28  -4  196.56    5.62
  -6 -28   4  252.88    6.27
  -6 -28   4  166.30    5.41
  -6 -28  -5  322.87    8.92
  -6 -28  -5  257.06    5.72
  -6 -28  -5  259.87    6.02
  -6 -28   5  345.37    6.79
  -6 -28   5  227.13    5.82
   6 -28   5  215.30    5.37
  -6 -28  -6  351.76    8.98
  -6 -28  -6  282.69    5.92
  -6 -28  -6  290.92    6.56
  -6 -28   6  420.98    7.36
   6 -28  -6  272.12    5.30
   6 -28   6  251.13    5.98
  -6 -28  -7  338.72    9.25
  -6 -28  -7  273.18    6.09
  -6 -28   7  406.39    7.43
   6 -28  -7  251.17    5.63
   6 -28   7  264.73    6.45
  -6 -28  -8  188.04    8.38
  -6 -28  -8  161.05    5.71
  -6 -28   8  235.27    6.69
  -6  28  -8  192.47    6.75
   6 -28  -8  156.87    5.51
   6 -28   8  163.83    6.21
  -6 -30  -3   27.20    4.61
  -6 -30   3   21.97    2.93
  -6 -30   3   13.71    2.58
  -6 -30  -4   99.34    7.51
  -6 -30  -4   77.37    4.35
  -6 -30   4   94.80    5.23
  -6 -30   4   63.51    4.75
  -6 -30  -5  168.36    8.05
  -6 -30  -5  122.44    4.71
  -6 -30  -5  125.91    6.61
  -6 -30   5  162.30    5.76
   6 -30   5  108.67    4.98
  -7  -1  -1  238.40    4.60
  -7  -1  -2    2.34    2.15
  -7  -1   2    2.15    2.17
  -7   1  -2    5.51    2.35
  -7   1  -2    6.62    2.08
   7   1   2    5.70    2.13
  -7  -1  -3    1.23    2.34
  -7  -1  -3   -1.27    2.26
  -7  -1   3    0.10    2.20
  -7   1  -3   -0.71    2.30
  -7   1  -3    1.67    2.13
  -7   1   3   -0.27    2.00
   7  -1   3   -0.10    2.26
   7  -1   3   -0.45    1.97
   7   1  -3    0.04    2.14
   7   1   3    3.30    2.18
  -7  -1  -4  295.72    5.65
  -7  -1  -4  363.02    5.57
  -7  -1   4  262.58    5.34
  -7  -1   4  246.51    4.96
  -7   1  -4  294.68    5.34
  -7   1  -4  351.54    5.24
  -7   1   4  263.01    5.07
  -7   1   4  259.59    4.63
   7  -1  -4  265.48    4.51
   7  -1   4  312.41    5.57
   7  -1   4  350.63    4.94
   7   1  -4  265.40    5.00
   7   1   4  324.76    5.68
   7   1   4  368.48    5.43
  -7  -1  -5 1029.00    8.57
  -7  -1   5  958.61    8.22
  -7  -1   5  883.59    7.25
  -7   1  -5  971.31    8.14
  -7   1   5  930.84    7.74
  -7   1   5  862.16    6.91
   7  -1  -5 1000.00    8.17
   7   1  -5  903.95    7.32
   7   1   5 1099.00    8.80
  -7  -1  -6 1233.00    9.65
  -7  -1   6 1116.00    8.33
  -7   1  -6 1194.00    9.35
   7  -1   6 1362.00    9.83
   7   1  -6 1099.00    8.08
  -7  -1  -7 1342.00   10.57
  -7  -1   7 1274.00   10.03
  -7   1  -7 1302.00   10.28
  -7   1   7 1245.00    9.61
   7  -1  -7 1366.00   10.12
   7  -1   7 1365.00   10.37
   7   1  -7 1382.00   10.52
   7   1   7 1413.00   10.67
  -7  -1  -8  738.41    9.04
  -7  -1  -8  888.47    8.86
  -7  -1   8  721.30    8.47
  -7  -1   8  672.51    7.57
  -7   1  -8  708.88    8.89
  -7   1  -8  881.58    8.71
  -7   1   8  688.55    8.05
  -7   1   8  678.01    7.39
   7  -1  -8  756.64    8.53
   7  -1  -8  705.79    7.42
   7  -1   8  757.82    8.86
   7  -1   8  930.43    8.74
   7   1  -8  769.43    8.82
   7   1  -8  665.15    7.47
   7   1   8  830.74    9.26
   7   1   8  940.32    8.84
  -7  -1  -9   73.15    6.00
  -7  -1  -9   70.68    5.79
  -7  -1   9   68.27    5.23
  -7  -1   9   62.39    5.14
  -7   1  -9   48.64    3.94
  -7   1  -9   54.11    5.58
  -7   1   9   59.90    5.06
  -7   1   9   52.25    4.79
   7  -1  -9   65.71    5.36
   7  -1  -9   57.89    4.76
   7  -1   9   52.55    5.65
   7  -1   9   53.81    5.39
   7   1  -9   73.65    5.62
   7   1  -9   63.82    5.24
   7   1   9   64.88    5.72
   7   1   9   75.02    5.33
  -7  -1 -10   24.18    3.72
  -7  -1 -10   33.46    3.58
  -7  -1  10   31.29    3.64
  -7  -1  10   27.31    3.15
  -7   1 -10   23.24    3.72
  -7   1 -10   33.82    3.57
  -7   1  10   31.75    3.49
  -7   1  10   28.80    3.21
   7  -1 -10   27.87    3.56
   7  -1 -10   32.57    3.25
   7  -1  10   30.32    3.83
   7  -1  10   33.98    3.63
   7   1 -10   30.07    3.72
   7   1 -10   32.90    3.36
   7   1  10   34.93    3.84
   7   1  10   39.23    3.60
  -7  -1 -11   90.47    6.64
  -7  -1 -11   92.59    6.34
  -7  -1  11   90.41    5.98
  -7  -1  11   86.92    5.51
  -7   1 -11   84.31    6.58
  -7   1 -11   98.43    6.21
  -7   1  11   89.72    5.90
  -7   1  11   94.09    5.45
   7  -1 -11   99.81    6.38
   7  -1 -11   86.65    5.66
   7  -1  11   91.60    6.31
   7  -1  11  109.29    6.27
   7   1 -11   92.75    6.40
   7   1 -11   87.51    5.95
   7   1  11   99.71    6.57
   7   1  11  119.69    6.35
  -7  -1 -12  105.31    7.08
  -7  -1 -12  111.88    6.82
  -7  -1  12   91.02    6.31
  -7  -1  12   91.49    5.81
  -7   1 -12   96.75    7.10
  -7   1 -12  114.11    7.00
  -7   1  12   98.92    6.33
  -7   1  12   90.25    5.86
   7  -1 -12   91.79    6.63
   7  -1 -12   93.53    6.11
   7  -1  12  104.82    6.71
   7  -1  12  121.51    6.72
   7   1 -12  106.26    6.96
   7   1 -12   93.06    6.31
   7   1  12  111.27    7.11
   7   1  12  122.12    6.66
  -7  -1 -13   32.49    4.71
  -7  -1 -13   26.73    3.98
  -7  -1  13   29.49    4.16
  -7  -1  13   31.77    3.74
  -7   1 -13   31.96    4.60
  -7   1 -13   28.85    4.18
  -7   1  13   37.48    4.25
  -7   1  13   26.35    3.67
   7  -1 -13   38.68    4.48
   7  -1 -13   28.79    3.72
   7  -1  13   30.38    4.50
   7  -1  13   38.48    4.20
   7   1 -13   40.17    4.64
   7   1 -13   29.01    3.81
   7   1  13   39.99    4.55
   7   1  13   41.64    4.25
  -7  -1 -14   -0.71    4.19
  -7  -1 -14   -1.78    3.62
  -7  -1  14   -0.12    3.71
  -7  -1  14    0.57    3.34
  -7   1 -14   -1.46    4.21
  -7   1 -14   -5.75    3.79
  -7   1  14   -0.07    3.65
   7  -1 -14    2.18    4.03
   7  -1 -14    1.00    3.51
   7  -1  14   -0.85    4.01
   7  -1  14   -1.54    3.70
   7   1 -14    0.02    4.05
   7   1 -14   -1.58    3.47
   7   1  14    4.14    4.12
   7   1  14   -0.48    3.81
  -7  -1 -15   47.86    5.21
  -7  -1 -15   41.95    4.60
  -7  -1  15   43.61    4.80
  -7  -1  15   35.27    4.24
  -7   1 -15   47.77    5.49
  -7   1 -15   45.88    4.73
  -7   1  15   47.14    4.88
   7  -1 -15   45.02    5.09
   7  -1 -15   41.68    4.35
   7  -1  15   58.40    5.60
   7  -1  15   64.30    7.69
   7   1 -15   46.10    5.27
   7   1 -15   47.91    4.57
   7   1  15   55.50    5.41
   7   1  15   67.33    7.51
  -7  -1 -16   88.60    8.72
  -7  -1 -16   86.35    7.98
  -7  -1  16   78.32    7.42
  -7   1 -16   99.49    8.77
  -7   1 -16   86.46    7.87
   7  -1 -16  100.14    8.46
   7  -1 -16   89.89    7.59
   7  -1  16   88.55    8.48
   7  -1  16  117.16    8.41
   7   1 -16   89.12    8.58
   7   1 -16   88.03    7.58
   7   1  16  108.54    8.39
   7   1  16  118.40    8.52
  -7  -1 -17  138.51    9.56
  -7  -1 -17  134.27    8.42
  -7   1 -17  139.14    9.50
  -7   1 -17  124.41    8.20
   7  -1 -17  133.73    9.00
   7  -1 -17  126.10    8.12
   7  -1  17  150.58    9.28
   7  -1  17  172.53    8.77
   7   1 -17  129.40    8.93
   7   1 -17  110.95    8.36
   7   1  17  147.54    8.91
   7   1  17  171.15    8.76
  -7  -1 -18  145.90    9.62
  -7  -1 -18  140.31    8.46
  -7   1 -18  161.92    9.93
  -7   1 -18  145.64    8.63
   7  -1 -18  143.27    9.22
   7  -1 -18  127.03    8.48
   7  -1  18  168.51    9.65
   7  -1  18  200.52   12.40
   7   1 -18  144.06    9.37
   7   1 -18  132.74    8.27
   7   1  18  178.22    9.68
   7   1  18  184.74    9.39
  -7  -1 -19   94.19    9.96
  -7  -1 -19   77.10    8.31
  -7   1 -19   85.99    9.59
  -7   1 -19   82.98    8.49
   7  -1 -19   95.70    9.06
   7  -1 -19   86.33    8.34
   7   1 -19   99.64    9.37
   7   1 -19   88.89    8.31
  -7  -3  -2  561.56    6.18
  -7  -3   2  411.84    5.61
  -7   3  -2  485.33    5.35
   7   3  -2  428.53    5.55
   7   3   2  527.82    5.90
  -7  -3  -3  423.54    6.16
  -7  -3  -3  479.76    6.00
  -7  -3   3  338.14    5.30
  -7   3  -3  411.78    5.37
  -7   3  -3  489.17    4.98
  -7   3   3  379.46    5.09
   7  -3   3  407.29    5.32
   7   3  -3  359.74    5.45
   7   3   3  474.29    5.92
  -7  -3  -4  726.86    7.54
  -7  -3  -4  853.14    7.48
  -7  -3   4  611.54    6.53
  -7   3  -4  677.24    6.63
  -7   3   4  628.67    6.20
  -7   3   4  617.28    5.33
   7  -3   4  694.44    6.67
   7  -3   4  789.16    5.77
   7   3  -4  621.50    6.52
   7   3   4  746.73    7.54
   7   3   4  833.43    7.25
  -7  -3  -5  263.72    5.76
  -7  -3  -5  320.03    5.72
  -7  -3   5  257.65    5.58
  -7  -3   5  226.91    5.01
  -7   3  -5  260.62    5.33
  -7   3  -5  323.61    5.17
  -7   3   5  244.42    4.88
  -7   3   5  232.61    4.46
   7  -3  -5  260.77    5.09
   7  -3  -5  259.33    4.39
   7  -3   5  277.01    5.32
   7  -3   5  317.72    4.79
   7   3  -5  243.60    5.28
   7   3   5  281.05    5.90
   7   3   5  321.98    5.69
  -7  -3  -6  115.53    5.20
  -7  -3  -6  137.48    5.09
  -7  -3   6  110.28    4.82
  -7  -3   6  101.48    4.67
  -7   3  -6  109.42    4.78
  -7   3  -6  138.51    4.60
  -7   3   6   97.86    4.35
  -7   3   6   99.74    4.04
   7  -3  -6  105.29    4.49
   7  -3  -6  105.08    3.95
   7  -3   6  110.68    4.82
   7  -3   6  136.34    4.53
   7   3  -6  122.47    5.28
   7   3  -6   97.49    4.56
   7   3   6  116.82    5.16
   7   3   6  138.70    4.96
  -7  -3  -7   28.93    3.33
  -7  -3  -7   32.68    3.13
  -7  -3   7   30.37    3.16
  -7  -3   7   24.29    2.74
  -7   3  -7   25.76    3.16
  -7   3  -7   35.58    3.05
  -7   3   7   29.28    2.87
  -7   3   7   26.98    2.55
   7  -3  -7   29.91    2.96
   7  -3  -7   26.03    2.59
   7  -3   7   30.62    3.18
   7  -3   7   35.26    2.91
   7   3  -7   31.98    3.32
   7   3  -7   26.62    2.88
   7   3   7   30.68    3.27
   7   3   7   38.68    4.75
  -7  -3  -8   12.60    3.36
  -7  -3  -8   14.87    3.04
  -7  -3   8   12.77    3.07
  -7  -3   8    7.33    2.71
  -7   3  -8    8.62    3.05
  -7   3  -8   11.71    2.91
  -7   3   8    9.61    2.78
  -7   3   8    8.74    2.45
   7  -3  -8    9.38    2.82
   7  -3  -8    8.39    2.45
   7  -3   8    7.50    3.04
   7  -3   8    8.46    2.80
   7   3  -8    8.35    3.04
   7   3  -8    9.70    2.77
   7   3   8   10.88    3.21
   7   3   8   10.18    2.93
  -7  -3  -9    3.20    3.28
  -7  -3  -9    6.20    3.05
  -7  -3   9    3.41    3.07
  -7  -3   9    3.83    2.74
  -7   3  -9    0.01    3.04
  -7   3  -9    3.95    3.01
  -7   3   9    5.41    2.87
  -7   3   9    2.28    2.57
   7  -3  -9    0.92    2.94
   7  -3  -9    2.29    2.61
   7  -3   9   -2.25    2.94
   7  -3   9   -1.52    2.76
   7   3  -9    5.77    3.18
   7   3  -9    4.34    2.84
   7   3   9    4.22    3.31
   7   3   9    3.77    2.95
  -7  -3 -10  145.83    6.83
  -7  -3 -10  160.65    6.39
  -7  -3  10  137.22    6.20
  -7  -3  10  134.78    5.76
  -7   3 -10  127.72    6.35
  -7   3 -10  163.47    6.38
  -7   3  10  123.70    5.69
  -7   3  10  125.67    5.47
   7  -3 -10  138.71    6.19
   7  -3 -10  130.69    5.47
   7  -3  10  151.53    6.43
   7  -3  10  176.95    6.13
   7   3 -10  166.66    6.69
   7   3 -10  138.23    6.12
   7   3  10  155.37    6.78
   7   3  10  173.69    6.44
  -7  -3 -11  339.10    8.29
  -7  -3 -11  367.42    7.94
  -7  -3  11  333.93    7.74
  -7  -3  11  297.75    7.03
  -7   3 -11  334.37    8.02
  -7   3 -11  376.22    7.90
  -7   3  11  299.74    7.25
  -7   3  11  290.46    6.56
   7  -3 -11  342.70    7.75
   7  -3 -11  313.78    6.72
   7  -3  11  349.28    8.03
   7  -3  11  418.08    7.56
   7   3 -11  355.21    8.26
   7   3 -11  321.20    7.46
   7   3  11  370.09    8.56
   7   3  11  425.02    8.31
  -7  -3 -12  178.51    7.79
  -7  -3 -12  179.98    7.28
  -7  -3  12  175.89    7.18
  -7  -3  12  161.16    6.55
  -7   3 -12  165.58    7.39
  -7   3 -12  184.50    7.20
  -7   3  12  177.29    6.87
  -7   3  12  158.84    6.06
   7  -3 -12  185.00    7.29
   7  -3 -12  166.60    6.48
   7  -3  12  183.01    7.42
   7  -3  12  229.73    7.34
   7   3 -12  184.98    7.53
   7   3 -12  178.51    6.80
   7   3  12  194.23    7.85
   7   3  12  217.59    7.45
  -7  -3 -13   35.76    4.60
  -7  -3 -13   39.53    4.45
  -7  -3  13   38.36    4.42
  -7  -3  13   32.70    3.85
  -7   3 -13   30.81    4.58
  -7   3 -13   30.08    3.98
  -7   3  13   34.99    4.10
   7  -3 -13   37.58    4.33
   7  -3 -13   35.36    3.75
   7  -3  13   33.08    4.46
   7  -3  13   39.23    4.21
   7   3 -13   42.77    4.64
   7   3 -13   34.13    4.00
   7   3  13   34.93    4.60
   7   3  13   47.00    4.40
  -7  -3 -14   17.52    4.51
  -7  -3 -14   12.53    3.99
  -7  -3  14   10.22    4.02
  -7  -3  14   10.87    3.59
  -7   3 -14    4.56    4.42
  -7   3 -14    5.84    4.00
   7  -3 -14   12.21    4.19
   7  -3 -14   12.58    3.58
   7  -3  14    9.08    4.30
   7  -3  14    7.18    3.86
   7   3 -14   13.68    4.32
   7   3 -14   11.76    3.96
   7   3  14    8.31    4.29
   7   3  14   16.01    4.13
  -7  -3 -15   -4.30    4.32
  -7  -3 -15   -1.02    3.87
  -7  -3  15   -1.71    3.96
  -7  -3  15    2.08    3.44
  -7   3 -15  -11.12    4.26
  -7   3 -15   -8.14    3.77
   7  -3 -15   -5.05    4.21
   7  -3 -15   -2.71    3.56
   7  -3  15   -5.52    4.48
   7  -3  15   -4.74    3.93
   7   3 -15    2.40    4.35
   7   3 -15   -0.08    3.97
   7   3  15    0.21    4.37
   7   3  15   -1.13    4.15
  -7  -3 -16   46.71    5.49
  -7  -3 -16   39.51    4.65
  -7  -3  16   40.98    5.02
  -7  -3  16   37.76    4.32
  -7   3 -16   41.17    5.72
  -7   3 -16   45.65    5.13
   7  -3 -16   48.71    5.46
   7  -3 -16   39.22    4.41
   7  -3  16   45.87    5.45
   7  -3  16   50.58    5.15
   7   3 -16   43.69    5.28
   7   3 -16   38.78    4.65
   7   3  16   48.91    5.45
   7   3  16   65.14    7.87
  -7  -3 -17  113.34    9.22
  -7  -3 -17   99.91    7.99
  -7  -3  17   89.39    7.92
  -7   3 -17  123.67    9.25
  -7   3 -17  106.27    8.12
   7  -3 -17   98.39    8.68
   7  -3 -17   89.95    7.68
   7  -3  17  121.49    8.88
   7  -3  17  145.26    8.81
   7   3 -17  120.60    9.01
   7   3 -17  106.84    8.33
   7   3  17  128.90    8.88
   7   3  17  142.49    9.05
  -7  -3 -18  125.83    9.79
  -7  -3 -18  105.44    8.20
  -7   3 -18  121.27    9.41
  -7   3 -18  104.56    8.33
   7  -3 -18  109.97    8.90
   7  -3 -18   98.75    7.63
   7   3 -18  118.20    9.37
   7   3 -18  105.28    8.06
   7   3  18  131.84    9.24
   7   3  18  147.48    8.98
  -7  -3 -19   37.23    5.89
  -7  -3 -19   30.41    4.87
  -7   3 -19   33.32    4.98
   7  -3 -19   36.12    5.45
   7  -3 -19   39.47    4.92
   7   3 -19   40.16    5.76
   7   3 -19   38.10    4.86
   7   3  19   72.76    8.98
   7   3  19   45.34    5.64
  -7  -5  -1  595.82    6.46
  -7  -5   1  485.76    5.97
   7   5   1  588.09    6.37
  -7  -5  -2   24.60    2.74
  -7  -5   2   16.43    2.47
  -7   5  -2   24.56    2.26
   7   5  -2   19.70    2.44
   7   5   2   24.73    2.65
  -7  -5  -3   64.28    4.60
  -7  -5  -3   62.63    4.49
  -7  -5   3   41.87    4.08
  -7   5  -3   52.65    3.64
  -7   5  -3   60.45    3.08
  -7   5   3   47.78    3.36
   7  -5   3   60.09    3.59
   7   5  -3   49.76    4.26
   7   5   3   62.35    4.28
  -7  -5  -4   90.95    4.88
  -7  -5  -4   89.63    4.86
  -7  -5   4   69.87    4.22
  -7   5  -4   79.10    3.91
  -7   5  -4   97.20    3.53
  -7   5   4   72.42    3.71
  -7   5   4   74.52    3.23
   7  -5   4   81.08    3.95
   7   5  -4   72.25    4.59
   7   5   4   94.47    4.73
   7   5   4   97.64    4.62
  -7  -5  -5    1.13    2.64
  -7  -5  -5    0.56    2.42
  -7  -5   5    2.33    2.43
  -7  -5   5    3.87    2.35
  -7   5  -5    2.23    2.24
  -7   5  -5    0.59    2.07
  -7   5   5    1.25    2.06
  -7   5   5    1.23    1.03
   7  -5  -5    1.64    2.17
   7  -5   5    0.07    2.29
   7  -5   5    2.10    1.81
   7   5  -5    0.66    2.36
   7   5   5    0.97    2.42
   7   5   5    1.14    2.43
  -7  -5  -6   14.53    3.13
  -7  -5  -6    5.08    2.86
  -7  -5   6   10.76    2.75
  -7  -5   6   11.70    2.52
  -7   5  -6    9.08    2.61
  -7   5  -6   16.30    2.47
  -7   5   6   12.42    2.32
  -7   5   6   12.10    2.02
   7  -5  -6   12.58    2.43
   7  -5  -6   13.37    2.08
   7  -5   6   10.89    2.50
   7  -5   6   15.03    2.23
   7   5  -6    7.50    2.50
   7   5   6   16.84    3.04
   7   5   6   11.45    2.71
  -7  -5  -7   97.74    5.40
  -7  -5  -7  114.82    5.54
  -7  -5   7   90.55    5.25
  -7  -5   7   77.70    4.90
  -7   5  -7   86.04    4.91
  -7   5  -7  114.05    4.78
  -7   5   7   86.14    4.46
  -7   5   7   86.16    4.10
   7  -5  -7   90.34    4.63
   7  -5  -7   93.36    3.95
   7  -5   7   91.23    4.78
   7  -5   7  114.04    4.55
   7   5  -7  101.53    5.73
   7   5  -7   78.77    4.97
   7   5   7  110.17    5.67
   7   5   7  117.54    5.40
  -7  -5  -8    1.49    3.12
  -7  -5  -8    0.12    2.88
  -7  -5   8   -0.11    2.98
  -7  -5   8   -1.25    2.67
  -7   5  -8    0.61    2.85
  -7   5  -8    1.20    2.63
  -7   5   8   -0.18    2.50
  -7   5   8    0.66    2.23
   7  -5  -8    1.66    2.68
   7  -5  -8    2.49    2.27
   7  -5   8    2.29    2.88
   7  -5   8    1.77    2.53
   7   5  -8   -2.01    3.12
   7   5  -8    1.38    2.75
   7   5   8    5.41    3.18
   7   5   8    4.73    2.86
  -7  -5  -9  401.13    7.95
  -7  -5  -9  440.71    7.68
  -7  -5   9  367.27    7.53
  -7  -5   9  361.95    6.94
  -7   5  -9  348.06    7.28
  -7   5  -9  458.62    7.23
  -7   5   9  345.29    6.55
  -7   5   9  354.29    6.19
   7  -5  -9  373.79    6.96
   7  -5  -9  360.91    5.88
   7  -5   9  364.76    7.14
   7  -5   9  501.31    7.07
   7   5  -9  411.29    8.10
   7   5  -9  366.52    7.10
   7   5   9  427.26    8.04
   7   5   9  494.04    7.73
  -7  -5 -10  888.83   10.79
  -7  -5 -10  907.22    9.94
  -7  -5  10  848.18   10.23
  -7  -5  10  802.76    9.32
  -7   5 -10  852.44    9.97
  -7   5 -10 1014.00    9.76
  -7   5  10  779.02    9.06
  -7   5  10  787.73    8.33
   7  -5 -10  873.79    9.63
   7  -5 -10  845.02    8.27
   7  -5  10  893.18   10.07
   7  -5  10 1123.00    9.62
   7   5 -10  956.10   10.91
   7   5 -10  837.43    9.58
   7   5  10  956.85   10.99
   7   5  10 1093.00   10.75
  -7  -5 -11  655.99   10.30
  -7  -5 -11  680.33    9.58
  -7  -5  11  614.48    9.52
  -7  -5  11  573.91    8.52
  -7   5 -11  591.72    9.44
  -7   5 -11  714.93    9.36
  -7   5  11  581.12    8.83
  -7   5  11  559.99    7.90
   7  -5 -11  613.77    9.09
   7  -5 -11  588.85    7.76
   7  -5  11  637.59    9.47
   7  -5  11  829.73    9.27
   7   5 -11  669.99   10.07
   7   5 -11  616.52    8.95
   7   5  11  714.54   10.40
   7   5  11  788.72   10.10
  -7  -5 -12  467.53    9.53
  -7  -5 -12  507.23    9.05
  -7  -5  12  433.49    8.81
  -7  -5  12  421.95    8.21
  -7   5 -12  438.80    9.25
  -7   5 -12  490.15    8.80
  -7   5  12  414.22    8.30
   7  -5 -12  428.83    8.63
   7  -5 -12  436.17    7.58
   7  -5  12  469.25    9.15
   7  -5  12  564.92    8.77
   7   5 -12  481.76    9.61
   7   5 -12  458.25    8.76
   7   5  12  511.35    9.90
   7   5  12  583.84    9.49
  -7  -5 -13  292.98    9.02
  -7  -5 -13  306.43    8.53
  -7  -5  13  263.52    8.23
  -7  -5  13  257.75    7.56
  -7   5 -13  255.19    8.41
  -7   5 -13  282.49    7.92
   7  -5 -13  295.15    8.38
   7  -5 -13  268.44    7.27
   7  -5  13  285.93    8.64
   7  -5  13  343.16    8.26
   7   5 -13  287.56    8.80
   7   5 -13  267.23    7.93
   7   5  13  318.93    9.12
   7   5  13  359.44    8.73
  -7  -5 -14   42.85    5.10
  -7  -5 -14   43.44    4.66
  -7  -5  14   56.51    7.06
  -7  -5  14   33.13    3.93
  -7   5 -14   31.52    4.89
  -7   5 -14   34.55    4.62
   7  -5 -14   57.86    7.11
   7  -5 -14   44.09    4.03
   7  -5  14   41.30    5.10
   7  -5  14   54.86    4.68
   7   5 -14   45.07    4.95
   7   5 -14   37.79    4.52
   7   5  14   56.42    5.25
   7   5  14   60.89    7.26
  -7  -5 -15    1.19    4.57
  -7  -5 -15    0.40    3.87
  -7  -5  15   -0.79    4.15
  -7  -5  15   -0.46    3.50
  -7   5 -15   -5.45    4.44
  -7   5 -15   -3.43    4.05
   7  -5 -15    4.31    4.16
   7  -5 -15   -1.52    3.58
   7  -5  15   -4.89    4.33
   7  -5  15   -7.05    3.93
   7   5 -15   -1.51    4.33
   7   5 -15    2.30    4.05
   7   5  15    0.87    4.37
   7   5  15   -2.76    4.02
  -7  -5 -16   -0.58    4.69
  -7  -5 -16    0.15    3.94
  -7  -5  16   -3.09    4.06
  -7  -5  16   -5.04    3.58
  -7   5 -16   -0.79    4.65
  -7   5 -16   -3.37    4.05
   7  -5 -16   -0.97    4.37
   7  -5 -16   -2.25    3.66
   7  -5  16   -2.74    4.54
   7  -5  16   -8.57    4.16
   7   5 -16    1.07    4.72
   7   5 -16   -5.00    3.98
   7   5  16    1.09    4.67
   7   5  16   -1.37    4.26
  -7  -5 -17   29.26    5.50
  -7  -5 -17   32.33    4.70
  -7  -5  17   26.39    4.86
  -7  -5  17   21.16    3.96
  -7   5 -17   33.30    5.76
  -7   5 -17   30.87    4.69
   7  -5 -17   35.39    5.31
   7  -5 -17   36.18    4.38
   7  -5  17   41.45    5.91
   7   5 -17   45.98    5.65
   7   5 -17   34.97    4.70
   7   5  17   52.01    5.94
   7   5  17   40.44    5.22
  -7  -5 -18  107.06    9.31
  -7  -5 -18   96.92    8.23
  -7  -5  18   91.74    8.28
  -7  -5  18   77.42    7.49
  -7   5 -18  108.97   11.29
  -7   5 -18   92.71    8.32
   7  -5 -18  102.28    8.82
   7  -5 -18   81.75    7.44
   7   5 -18  114.33    9.18
   7   5 -18   93.13    8.05
   7   5  18  114.01    9.22
   7   5  18  131.45    8.91
  -7  -7   2  977.60    7.82
   7   7  -2 1050.00    8.20
  -7  -7  -3   91.48    4.78
  -7  -7  -3   86.07    4.68
  -7  -7   3   72.28    4.30
  -7   7  -3   73.59    3.50
  -7   7   3   53.63    2.58
   7  -7   3   77.47    3.51
   7   7  -3   73.58    4.57
   7   7   3   85.20    4.54
  -7  -7  -4    7.37    2.82
  -7  -7  -4    1.93    2.55
  -7  -7   4    6.12    2.36
  -7   7  -4    6.05    2.13
  -7   7  -4    8.37    1.74
  -7   7   4    2.96    1.56
   7  -7  -4    6.53    1.99
   7  -7   4    8.01    2.18
   7   7  -4    5.57    2.45
   7   7   4    2.47    2.52
  -7  -7  -5   22.57    3.05
  -7  -7  -5   23.23    2.92
  -7  -7   5   16.19    2.84
  -7  -7   5   14.51    2.56
  -7   7  -5   16.09    2.37
  -7   7  -5   22.35    2.20
  -7   7   5   14.02    2.12
  -7   7   5   20.03    1.98
   7  -7  -5   14.91    2.24
   7  -7   5   15.49    2.32
   7   7  -5   14.13    2.62
   7   7   5   20.27    2.98
   7   7   5   22.40    2.91
  -7  -7  -6   47.15    5.07
  -7  -7  -6   33.18    3.28
  -7  -7   6   39.21    3.33
  -7  -7   6   43.05    4.51
  -7   7  -6   38.76    4.12
  -7   7  -6   52.45    4.07
  -7   7   6   36.30    3.64
  -7   7   6   35.30    3.46
   7  -7  -6   38.24    3.86
   7  -7  -6   42.85    2.92
   7  -7   6   40.06    4.11
   7  -7   6   54.25    3.32
   7   7  -6   42.24    4.69
   7   7   6   48.76    5.02
   7   7   6   41.23    4.90
  -7  -7  -7  109.82    5.92
  -7  -7  -7  125.72    5.82
  -7  -7   7  115.53    5.51
  -7  -7   7   99.63    5.15
  -7   7  -7  101.36    4.94
  -7   7  -7  150.62    4.90
  -7   7   7  100.54    4.59
   7  -7  -7  111.09    4.74
   7  -7  -7  109.77    3.83
   7  -7   7  105.95    4.88
   7  -7   7  148.37    4.33
   7   7  -7  110.49    5.50
   7   7   7  131.96    5.92
   7   7   7  134.70    5.60
  -7  -7  -8    1.80    3.11
  -7  -7  -8    2.43    2.97
  -7  -7   8    2.73    2.96
  -7  -7   8    0.34    2.71
  -7   7  -8    2.59    2.84
  -7   7  -8    4.63    2.61
  -7   7   8    3.95    2.60
  -7   7   8    1.36    2.22
   7  -7  -8    1.76    2.58
   7  -7  -8    2.65    2.18
   7  -7   8    5.24    2.87
   7  -7   8    3.01    2.48
   7   7  -8    5.05    3.40
   7   7  -8    1.05    2.98
   7   7   8    3.94    3.20
   7   7   8    2.91    2.84
  -7  -7  -9  145.47    6.82
  -7  -7  -9  158.86    6.45
  -7  -7   9  127.69    6.26
  -7  -7   9  110.58    5.72
  -7   7  -9  109.04    5.85
  -7   7  -9  155.34    5.75
  -7   7   9  115.96    5.24
  -7   7   9  113.79    4.89
   7  -7  -9  121.45    5.57
   7  -7  -9  130.79    4.58
   7  -7   9  120.44    5.62
   7  -7   9  168.79    5.36
   7   7  -9  129.12    6.70
   7   7  -9  104.77    5.93
   7   7   9  152.45    6.67
   7   7   9  175.14    6.23
  -7  -7 -10  667.74    9.99
  -7  -7 -10  703.15    9.23
  -7  -7  10  621.83    9.49
  -7  -7  10  560.85    8.38
  -7   7 -10  564.47    8.66
  -7   7 -10  669.16    8.45
  -7   7  10  538.36    7.91
  -7   7  10  552.11    7.20
   7  -7 -10  587.00    8.32
   7  -7 -10  607.57    7.05
   7  -7  10  588.95    8.71
   7  -7  10  736.45    8.13
   7   7 -10  669.72   10.05
   7   7 -10  591.94    8.86
   7   7  10  710.05    9.99
   7   7  10  783.48    9.62
  -7  -7 -11 1088.00   12.31
  -7  -7 -11 1149.00   11.60
  -7  -7  11 1005.00   11.53
  -7  -7  11  968.06   10.39
  -7   7 -11  996.26   11.18
  -7   7 -11 1147.00   10.87
  -7   7  11  961.69   10.21
   7  -7 -11 1019.00   10.72
   7  -7 -11 1024.00    9.01
   7  -7  11 1030.00   11.29
   7  -7  11 1334.00   10.61
   7   7 -11 1143.00   12.44
   7   7 -11  985.89   10.75
   7   7  11 1214.00   12.69
   7   7  11 1347.00   12.16
  -7  -7 -12  785.65   11.29
  -7  -7 -12  803.46   10.34
  -7  -7  12  724.77   10.72
  -7  -7  12  677.53    9.57
  -7   7 -12  703.08   10.48
  -7   7 -12  786.15   10.18
   7  -7 -12  725.53    9.99
   7  -7 -12  727.86    8.63
   7  -7  12  738.20   10.52
   7  -7  12  938.39    9.95
   7   7 -12  822.79   11.57
   7   7 -12  708.45    9.96
   7   7  12  842.60   11.59
   7   7  12  918.22   11.04
  -7  -7 -13  365.14    9.35
  -7  -7 -13  356.35    8.78
  -7  -7  13  328.23    8.67
  -7  -7  13  327.36    8.10
  -7   7 -13  323.84    8.91
  -7   7 -13  343.74    8.31
   7  -7 -13  359.87    8.76
   7  -7 -13  329.88    7.38
   7  -7  13  374.23    9.22
   7  -7  13  447.86    8.60
   7   7 -13  377.19    9.62
   7   7 -13  335.52    8.56
   7   7  13  401.22    9.77
   7   7  13  443.89    9.31
  -7  -7 -14  182.61    8.55
  -7  -7 -14  199.26    8.16
  -7  -7  14  182.80    7.96
  -7  -7  14  177.12    7.25
  -7   7 -14  178.25    8.62
  -7   7 -14  179.30    8.08
   7  -7 -14  184.47    8.08
   7  -7 -14  182.24    6.88
   7  -7  14  183.32    8.49
   7  -7  14  234.41    7.98
   7   7 -14  204.65    8.77
   7   7 -14  173.93    7.91
   7   7  14  223.60    8.96
   7   7  14  235.95    8.48
  -7  -7 -15   24.69    5.01
  -7  -7 -15   24.64    4.37
  -7  -7  15   26.33    4.66
  -7  -7  15   23.76    3.94
  -7   7 -15   18.00    4.91
  -7   7 -15   15.34    4.21
   7  -7 -15   25.97    4.66
   7  -7 -15   23.14    3.84
   7  -7  15   19.90    4.83
   7  -7  15   29.39    4.62
   7   7 -15   26.59    4.91
   7   7 -15   21.92    4.41
   7   7  15   29.35    5.13
   7   7  15   29.62    4.66
  -7  -7 -16   16.84    5.18
  -7  -7 -16   11.29    4.18
  -7  -7  16   19.11    4.71
  -7  -7  16   16.41    3.91
  -7   7 -16   16.54    5.08
  -7   7 -16   14.25    4.46
   7  -7 -16   21.74    4.70
   7  -7 -16   21.40    3.96
   7  -7  16   19.28    5.08
   7  -7  16   16.48    4.50
   7   7 -16   26.29    5.12
   7   7 -16   18.28    4.48
   7   7  16   19.91    5.21
   7   7  16   24.90    4.80
  -7  -7 -17   16.17    5.31
  -7  -7 -17   19.71    4.53
  -7  -7  17   14.18    4.76
  -7  -7  17   15.41    3.96
  -7   7 -17   20.31    5.30
  -7   7 -17   17.04    4.44
   7  -7 -17   20.88    4.87
   7  -7 -17   10.98    3.90
   7   7 -17   13.69    5.01
   7   7 -17   20.31    4.55
   7   7  17   22.11    5.32
   7   7  17   22.43    4.79
  -7  -7 -18   -1.95    4.84
  -7  -7 -18   -1.03    4.14
  -7  -7  18    5.44    4.61
  -7  -7  18    2.18    3.74
  -7   7 -18   -6.22    4.14
   7  -7 -18   -3.35    4.42
   7  -7 -18   -4.14    3.68
   7   7 -18    3.54    5.11
   7   7 -18    2.92    4.08
   7   7  18    6.64    6.03
  -7  -9  -2  616.64    7.10
  -7  -9   2  503.00    6.47
  -7   9  -2  491.21    4.45
  -7   9   2  534.83    4.25
   7  -9   2  580.68    4.60
   7   9  -2  508.64    6.69
   7   9   2  619.95    7.08
  -7  -9  -3  150.31    5.23
  -7  -9  -3  138.47    5.02
  -7  -9   3  106.27    4.53
  -7   9  -3  105.48    3.47
  -7   9   3  118.45    3.17
   7  -9   3  123.48    3.53
   7   9  -3  123.29    4.87
   7   9   3  144.52    4.87
  -7  -9  -4   90.94    5.01
  -7  -9  -4   87.90    4.90
  -7  -9   4   75.94    4.47
  -7   9  -4   69.82    3.53
  -7   9  -4  102.44    2.75
  -7   9   4   68.82    3.29
   7  -9  -4   74.75    3.50
   7  -9   4   75.71    3.65
   7   9  -4   77.78    4.76
   7   9   4   85.14    4.95
  -7  -9  -5 1230.00   10.38
  -7  -9   5  972.21    8.64
  -7   9  -5  967.04    7.39
   7  -9  -5 1030.00    7.22
   7  -9   5 1056.00    7.60
   7   9  -5 1029.00    8.99
   7   9   5 1377.00   10.03
  -7  -9  -6 1275.00   10.88
  -7  -9   6 1193.00   10.54
  -7  -9   6 1070.00    9.10
  -7   9  -6 1093.00    8.38
  -7   9   6 1000.00    7.65
   7  -9  -6 1085.00    7.95
   7  -9   6 1103.00    8.37
   7   9  -6 1119.00    9.60
  -7  -9  -7  475.23    8.04
  -7  -9  -7  519.36    7.59
  -7  -9   7  446.74    7.65
  -7  -9   7  405.95    6.92
  -7   9  -7  401.00    6.47
  -7   9  -7  549.18    6.24
  -7   9   7  383.59    5.94
  -7   9   7  415.08    5.34
   7  -9  -7  407.69    6.11
   7  -9   7  396.21    6.30
   7  -9   7  556.02    5.12
   7   9  -7  424.62    7.24
   7   9   7  503.57    8.14
   7   9   7  540.55    7.64
  -7  -9  -8   48.84    5.79
  -7  -9  -8   59.33    5.53
  -7  -9   8   60.37    5.74
  -7  -9   8   53.57    5.36
  -7   9  -8   53.40    5.09
  -7   9  -8   63.40    4.73
  -7   9   8   51.14    4.45
  -7   9   8   21.26    2.61
   7  -9  -8   50.13    4.65
   7  -9  -8   55.99    3.56
   7  -9   8   55.67    4.88
   7  -9   8   72.53    4.18
   7   9  -8   66.98    6.14
   7   9  -8   49.06    5.47
   7   9   8   54.68    5.77
   7   9   8   61.56    5.46
  -7  -9  -9   61.18    6.31
  -7  -9  -9   65.81    5.70
  -7  -9   9   62.03    6.06
  -7  -9   9   47.02    5.57
  -7   9  -9   44.32    5.43
  -7   9  -9   64.62    5.09
  -7   9   9   54.09    4.65
  -7   9   9   63.49    4.25
   7  -9  -9   63.78    5.08
   7  -9  -9   67.09    4.08
   7  -9   9   57.45    5.31
   7  -9   9   76.38    4.74
   7   9  -9   60.10    6.39
   7   9  -9   54.26    5.83
   7   9   9   60.03    6.25
   7   9   9   70.72    5.78
  -7  -9 -10  361.78    8.53
  -7  -9 -10  379.51    7.98
  -7  -9  10  338.31    8.15
  -7  -9  10  307.34    7.27
  -7   9 -10  316.57    7.54
  -7   9 -10  372.37    7.21
  -7   9  10  306.29    6.61
   7  -9 -10  330.59    7.04
   7  -9 -10  346.15    5.72
   7  -9  10  334.21    7.42
   7  -9  10  439.80    6.91
   7   9 -10  380.88    8.74
   7   9 -10  326.53    7.70
   7   9  10  408.80    8.71
   7   9  10  441.40    8.28
  -7  -9 -11  470.22    9.64
  -7  -9 -11  480.68    8.65
  -7  -9  11  409.48    9.07
  -7  -9  11  399.95    8.19
  -7   9 -11  392.72    8.39
  -7   9 -11  459.41    8.15
   7  -9 -11  427.63    8.17
   7  -9 -11  439.84    6.70
   7  -9  11  424.68    8.49
   7  -9  11  550.94    7.81
   7   9 -11  461.91    9.75
   7   9 -11  403.16    8.50
   7   9  11  527.32    9.74
   7   9  11  548.12    9.18
  -7  -9 -12  568.06   10.49
  -7  -9 -12  571.61    9.47
  -7  -9  12  525.73    9.94
  -7  -9  12  475.84    8.76
  -7   9 -12  487.34    9.52
  -7   9 -12  553.82    9.10
   7  -9 -12  522.25    9.06
   7  -9 -12  540.28    7.50
   7  -9  12  532.61    9.58
   7  -9  12  627.59    8.62
   7   9 -12  577.04   10.64
   7   9 -12  494.25    9.22
   7   9  12  657.68   10.90
   7   9  12  660.51   10.01
  -7  -9 -13  302.85    9.25
  -7  -9 -13  308.48    8.60
  -7  -9  13  289.83    8.82
  -7  -9  13  279.61    8.01
  -7   9 -13  267.65    8.58
  -7   9 -13  309.40    8.27
   7  -9 -13  292.04    8.27
   7  -9 -13  302.80    7.01
   7  -9  13  312.43    8.82
   7  -9  13  376.16    7.89
   7   9 -13  309.26    9.38
   7   9 -13  283.60    8.73
   7   9  13  345.97    9.55
   7   9  13  370.38    8.97
  -7  -9 -14    3.71    4.34
  -7  -9 -14    8.26    4.12
  -7  -9  14    3.92    4.01
  -7  -9  14    5.88    3.77
  -7   9 -14    5.40    4.39
  -7   9 -14    5.85    3.98
   7  -9 -14    6.77    3.94
   7  -9 -14    2.08    3.35
   7  -9  14    5.79    4.41
   7  -9  14   10.38    3.93
   7   9 -14    6.17    4.46
   7   9 -14    8.75    4.32
   7   9  14    7.61    4.61
   7   9  14    8.43    4.20
  -7  -9 -15    9.09    4.64
  -7  -9 -15   14.64    4.30
  -7  -9  15   12.32    4.59
  -7  -9  15    8.80    3.72
  -7   9 -15    9.73    4.59
  -7   9 -15   11.04    4.23
   7  -9 -15    5.98    4.35
   7  -9 -15    4.05    3.65
   7  -9  15   12.82    4.61
   7  -9  15   11.09    4.21
   7   9 -15    6.75    4.93
   7   9 -15    8.63    4.19
   7   9  15   11.18    4.92
   7   9  15    9.98    4.52
  -7  -9 -16   -5.20    4.56
  -7  -9 -16  -10.44    3.74
  -7  -9  16   -6.95    4.30
  -7  -9  16   -0.88    3.61
  -7   9 -16    0.20    4.54
  -7   9 -16   -3.75    4.01
   7  -9 -16   -4.13    4.20
   7  -9 -16   -1.77    3.57
   7   9 -16   -4.52    4.63
   7   9 -16   -0.35    4.13
   7   9  16   -3.72    4.90
  -7  -9 -17    0.83    4.94
  -7  -9 -17   -2.42    4.09
  -7  -9  17   -3.75    4.50
  -7  -9  17    0.41    3.72
  -7   9 -17   -0.52    4.16
   7  -9 -17    1.43    4.34
   7  -9 -17   -1.22    3.62
   7   9 -17   -3.20    4.82
   7   9 -17   -2.28    4.19
  -7  -9 -18   16.69    5.33
  -7  -9 -18    9.47    4.44
  -7  -9  18   13.47    4.89
  -7  -9  18   14.24    4.13
  -7   9 -18   16.37    4.73
   7  -9 -18   12.38    4.72
   7  -9 -18    8.38    3.97
   7   9 -18   21.30    5.52
   7   9 -18    9.06    4.52
  -7 -11   0  965.65    8.24
   7  11   0 1001.00    8.48
  -7 -11  -1  996.28    8.42
  -7 -11  -1  761.33    7.70
  -7 -11   1  974.64    8.13
  -7 -11   1  738.44    7.39
   7  11  -1  766.19    7.82
   7  11   1  959.91    8.36
  -7 -11  -2  197.49    5.60
  -7 -11  -2  161.98    5.03
  -7 -11   2  201.94    5.25
  -7 -11   2  150.00    4.93
  -7  11  -2  148.30    3.05
   7 -11   2  190.35    3.23
   7  11  -2  163.21    5.37
   7  11   2  196.32    5.42
  -7 -11  -3  572.90    7.23
  -7 -11   3  389.59    6.40
  -7  11  -3  397.97    4.32
  -7  11   3  401.41    4.07
   7 -11   3  462.13    4.55
   7  11  -3  429.59    6.76
   7  11   3  553.99    7.12
  -7 -11   4 1213.00    9.38
  -7  11  -4 1215.00    7.13
  -7  11   4 1220.00    6.76
   7 -11   4 1285.00    7.36
   7  11  -4 1292.00   10.03
  -7 -11  -5  950.92    9.70
  -7 -11  -5 1061.00    9.29
  -7 -11   5  795.00    8.18
  -7  11  -5  752.96    6.63
  -7  11   5  771.95    6.25
   7 -11  -5  818.68    6.42
   7 -11   5  800.35    6.77
   7  11  -5  863.48    8.79
   7  11   5 1088.00    9.42
  -7 -11  -6 1063.00   10.42
  -7 -11  -6 1124.00    9.56
  -7 -11   6 1006.00   10.10
  -7 -11   6  874.92    8.87
  -7  11  -6  823.11    7.47
  -7  11   6  942.28    5.80
   7 -11  -6  912.59    7.28
   7 -11   6  870.70    7.56
   7  11  -6  898.06    9.12
   7  11   6 1104.00   10.54
   7  11   6 1198.00   10.12
  -7 -11  -7 1161.00   11.13
  -7 -11  -7 1206.00   10.20
  -7 -11   7 1073.00   10.78
  -7 -11   7  975.37    9.54
  -7  11  -7  918.67    8.46
  -7  11  -7 1322.00    8.32
  -7  11   7  890.99    7.74
  -7  11   7 1002.00    6.85
   7 -11  -7  942.30    7.93
   7 -11   7  958.74    8.41
   7  11  -7 1014.00    9.84
   7  11   7 1245.00   11.33
  -7 -11  -8  496.46    8.62
  -7 -11  -8  488.64    7.84
  -7 -11   8  461.25    8.31
  -7 -11   8  401.95    7.31
  -7  11  -8  406.17    7.06
  -7  11  -8  539.17    6.78
  -7  11   8  384.56    6.26
  -7  11   8  420.90    5.68
   7 -11  -8  414.98    6.54
   7 -11   8  405.03    6.78
   7 -11   8  562.01    5.13
   7  11  -8  427.56    7.75
   7  11   8  548.97    8.90
   7  11   8  547.34    8.30
  -7 -11  -9   32.55    4.24
  -7 -11  -9   22.67    3.54
  -7 -11   9   22.79    3.76
  -7 -11   9   21.03    3.41
  -7  11  -9   26.00    3.55
  -7  11  -9   28.41    3.21
   7 -11  -9   26.23    3.29
   7 -11  -9   27.91    2.33
   7 -11   9   22.79    3.30
   7 -11   9   39.33    4.23
   7  11  -9   26.15    4.12
   7  11  -9   20.17    3.60
   7  11   9   35.76    4.08
   7  11   9   32.42    3.78
  -7 -11 -10  106.93    7.14
  -7 -11 -10  113.80    6.55
  -7 -11  10  105.63    6.82
  -7 -11  10   95.36    6.22
  -7  11 -10   92.82    6.24
  -7  11 -10  115.97    5.89
   7 -11 -10  110.37    5.84
   7 -11 -10  112.40    4.39
   7 -11  10   94.39    6.05
   7 -11  10  139.24    5.28
   7  11 -10  102.83    7.34
   7  11 -10   85.10    6.57
   7  11  10  131.66    7.23
   7  11  10  133.64    6.81
  -7 -11 -11  319.87    8.90
  -7 -11 -11  320.26    7.98
  -7 -11  11  302.52    8.55
  -7 -11  11  266.36    7.36
  -7  11 -11  265.80    7.70
  -7  11 -11  311.19    7.53
   7 -11 -11  281.48    7.15
   7 -11 -11  289.21    5.65
   7 -11  11  282.27    7.68
   7 -11  11  387.29    6.89
   7  11 -11  315.18    8.98
   7  11 -11  266.83    7.91
   7  11  11  361.19    9.05
   7  11  11  372.60    8.40
  -7 -11 -12   94.89    7.65
  -7 -11 -12   78.78    6.94
  -7 -11  12   87.18    7.13
  -7 -11  12   87.90    6.55
  -7  11 -12   84.36    6.99
  -7  11 -12   88.83    6.59
   7 -11 -12   91.28    6.40
   7 -11 -12   87.00    5.25
   7 -11  12   76.75    6.82
   7 -11  12  113.13    6.16
   7  11 -12   91.08    8.01
   7  11 -12   74.20    6.96
   7  11  12  113.65    7.94
   7  11  12  114.50    7.47
  -7 -11 -13    0.92    4.42
  -7 -11 -13   -0.81    3.77
  -7 -11  13    2.63    4.05
  -7 -11  13    0.40    3.50
  -7  11 -13   -0.32    3.99
  -7  11 -13    1.61    3.58
   7 -11 -13    4.41    3.79
   7 -11 -13   -2.95    2.95
   7 -11  13    2.27    4.00
   7 -11  13   -1.49    3.38
   7  11 -13    4.92    4.60
   7  11 -13   -0.48    3.84
   7  11  13    2.31    4.30
   7  11  13    2.43    3.90
  -7 -11 -14    5.10    4.52
  -7 -11 -14   -0.32    3.81
  -7 -11  14    0.83    4.24
  -7 -11  14   -4.86    3.54
  -7  11 -14    3.33    4.26
  -7  11 -14    0.96    3.90
   7 -11 -14    2.68    3.92
   7 -11 -14   -3.88    3.28
   7 -11  14    1.95    4.28
   7 -11  14   -0.03    3.75
   7  11 -14   -2.21    4.47
   7  11 -14   -5.58    3.99
   7  11  14    1.35    4.52
  -7 -11 -15   -2.68    4.49
  -7 -11 -15   -4.10    3.91
  -7 -11  15   -6.68    4.28
  -7 -11  15   -4.13    3.65
  -7  11 -15   -3.85    4.44
  -7  11 -15   -6.54    4.02
   7 -11 -15   -0.04    4.02
   7 -11 -15   -0.34    3.36
   7 -11  15   -2.44    4.58
   7 -11  15    2.30    4.02
   7  11 -15   -3.48    4.66
   7  11 -15   -4.42    4.34
  -7 -11 -16  121.02    9.09
  -7 -11 -16  110.79    7.83
  -7 -11  16  103.68    8.54
  -7 -11  16   95.19    7.24
  -7  11 -16  121.51    8.00
   7 -11 -16  127.15    8.27
   7 -11 -16  113.12    6.87
   7  11 -16  114.74    9.36
   7  11 -16   98.16    8.30
  -7 -11 -17  167.03    9.63
  -7 -11 -17  166.36    8.77
  -7 -11  17  168.19    9.36
  -7 -11  17  133.25    7.58
   7 -11 -17  194.89    9.13
   7 -11 -17  169.75    7.37
   7  11 -17  194.25   10.46
   7  11 -17  173.22    9.05
  -7 -13   0  404.31    6.36
  -7 -13   0  306.98    6.02
   7  13   0  397.72    6.56
   7  13   0  309.61    6.08
  -7 -13  -1   50.58    5.03
  -7 -13  -1   41.94    3.25
  -7 -13   1   52.72    4.79
  -7 -13   1   39.94    3.20
   7  13  -1   51.88    4.76
   7  13  -1   46.46    3.53
   7  13   1   58.47    4.80
  -7 -13  -2  548.93    7.17
  -7 -13  -2  448.80    6.83
  -7 -13   2  517.36    6.92
  -7 -13   2  413.96    6.60
   7  13  -2  430.62    7.09
   7  13   2  545.85    7.09
  -7 -13  -3 1083.00    9.04
  -7 -13  -3  876.86    8.24
  -7 -13   3 1063.00    8.89
  -7 -13   3  792.59    8.05
  -7  13  -3  759.28    5.19
   7  13  -3  841.48    8.77
  -7 -13  -4 1073.00   10.15
  -7 -13  -4 1120.00    9.22
  -7 -13   4  816.36    8.31
  -7  13  -4  794.49    5.95
  -7  13   4  785.12    5.47
   7 -13  -4  877.35    5.73
   7 -13   4  898.89    6.30
   7  13  -4  866.61    8.95
   7  13   4 1194.00    9.82
  -7 -13  -5 1365.00   11.46
  -7 -13  -5 1411.00   10.44
  -7 -13   5 1071.00    9.24
  -7  13  -5 1057.00    7.43
  -7  13   5 1064.00    6.92
   7 -13  -5 1126.00    7.09
   7 -13   5 1096.00    7.52
   7  13  -5 1117.00    9.85
  -7 -13  -6 1119.00   10.94
  -7 -13  -6 1155.00    9.82
  -7 -13   6 1066.00   10.74
  -7 -13   6  930.58    9.15
  -7  13  -6  904.90    7.73
  -7  13   6  884.97    7.02
   7 -13  -6  955.08    7.30
   7 -13   6  922.48    7.68
   7  13  -6  977.92    9.74
   7  13   6 1362.00   10.95
  -7 -13  -7  800.05    9.93
  -7 -13  -7  813.77    8.95
  -7 -13   7  761.72    9.79
  -7 -13   7  677.18    8.54
  -7  13  -7  657.66    7.42
  -7  13  -7  907.57    7.03
  -7  13   7  700.78    5.76
   7 -13  -7  691.48    7.10
   7 -13   7  663.89    7.40
   7  13  -7  702.44    8.97
   7  13   7  897.14   10.25
   7  13   7  929.75    9.64
  -7 -13  -8  430.28    8.68
  -7 -13  -8  418.52    7.66
  -7 -13   8  416.89    8.30
  -7 -13   8  386.53    7.52
  -7  13  -8  358.30    6.73
  -7  13  -8  484.93    6.40
  -7  13   8  392.88    5.85
   7 -13  -8  388.61    6.42
   7 -13   8  363.17    6.64
   7  13  -8  371.11    7.73
   7  13   8  480.85    8.70
   7  13   8  503.87    8.37
  -7 -13  -9   68.27    6.68
  -7 -13  -9   61.15    6.20
  -7 -13   9   64.71    6.56
  -7 -13   9   54.93    5.87
  -7  13  -9   55.59    5.47
  -7  13  -9   77.11    5.19
   7 -13  -9   61.20    5.05
   7 -13   9   62.23    5.45
   7 -13   9   84.25    3.79
   7  13  -9   68.22    6.39
   7  13   9   78.92    6.73
   7  13   9   77.70    6.40
  -7 -13 -10    0.54    3.90
  -7 -13 -10    1.29    3.46
  -7 -13  10   -0.43    3.85
  -7 -13  10    0.63    3.13
  -7  13 -10    3.31    3.41
  -7  13 -10   -1.17    2.99
   7 -13 -10    3.22    3.05
   7 -13  10    1.11    3.25
   7 -13  10    5.94    2.75
   7  13 -10   -0.49    3.93
   7  13 -10    1.44    3.54
   7  13  10   -0.53    3.85
   7  13  10    0.24    3.62
  -7 -13 -11   28.16    4.57
  -7 -13 -11   18.54    3.75
  -7 -13  11   23.53    4.27
  -7 -13  11   19.28    3.71
  -7  13 -11   17.54    3.89
  -7  13 -11   24.97    3.63
   7 -13 -11   21.98    3.63
   7 -13 -11   20.05    2.62
   7 -13  11   21.33    3.82
   7 -13  11   31.67    3.24
   7  13 -11   24.83    4.59
   7  13 -11   21.04    4.06
   7  13  11   30.09    4.57
   7  13  11   27.18    4.29
  -7 -13 -12   35.11    4.94
  -7 -13 -12   37.00    4.21
  -7 -13  12   33.20    4.61
  -7 -13  12   28.12    3.95
  -7  13 -12   32.15    4.35
  -7  13 -12   34.92    3.98
   7 -13 -12   33.90    4.05
   7 -13 -12   35.04    3.08
   7 -13  12   32.34    4.33
   7 -13  12   53.34    5.68
   7  13 -12   41.05    5.05
   7  13 -12   27.93    4.34
   7  13  12   49.73    5.23
  -7 -13 -13   14.48    4.70
  -7 -13 -13    9.19    4.00
  -7 -13  13   14.37    4.46
  -7 -13  13   11.67    3.80
  -7  13 -13    5.64    4.18
  -7  13 -13   15.65    4.01
   7 -13 -13   11.41    3.94
   7 -13 -13    9.69    3.09
   7 -13  13    6.43    4.21
   7 -13  13   15.54    3.54
   7  13 -13   12.34    4.85
   7  13 -13    5.46    4.17
  -7 -13 -14   21.25    5.17
  -7 -13 -14   23.02    4.34
  -7 -13  14   18.60    4.90
  -7 -13  14   16.77    3.94
  -7  13 -14   27.18    4.74
  -7  13 -14   19.95    4.17
   7 -13 -14   20.97    4.31
   7 -13 -14   20.13    3.44
   7 -13  14   20.51    4.63
   7 -13  14   27.31    3.91
   7  13 -14   19.42    5.26
   7  13 -14   14.98    4.51
  -7 -13 -15  135.66    8.74
  -7 -13 -15  129.16    7.62
  -7 -13  15  129.34    8.37
  -7 -13  15  115.53    7.18
  -7  13 -15  146.25    8.55
  -7  13 -15  152.47    7.97
   7 -13 -15  146.54    7.87
   7 -13 -15  148.18    6.37
   7  13 -15  151.17    9.70
   7  13 -15  118.24    8.54
  -7 -13 -16  155.87    9.08
  -7 -13 -16  157.58    8.35
  -7 -13  16  143.13    9.08
  -7 -13  16  133.81   12.40
   7 -13 -16  184.90    8.42
   7 -13 -16  174.74    6.89
   7  13 -16  177.80   10.14
   7  13 -16  134.29    9.01
  -7 -13 -17  304.03   10.72
  -7 -13 -17  275.15    9.14
   7 -13 -17  321.55    9.63
   7 -13 -17  303.08    7.89
   7  13 -17  336.78   11.74
   7  13 -17  285.09   10.16
  -7 -15   0   95.96    5.18
  -7 -15   0   70.04    4.84
   7  15   0   97.79    5.10
   7  15   0   70.86    5.02
  -7 -15  -1    7.76    2.89
  -7 -15  -1    5.95    2.75
  -7 -15   1    7.68    2.83
  -7 -15   1    8.17    2.73
   7  15  -1   11.53    2.88
   7  15  -1    6.11    2.99
   7  15   1   12.19    2.84
   7  15   1    5.70    2.91
  -7 -15  -2    5.79    2.81
  -7 -15  -2    5.86    2.86
  -7 -15   2    1.96    2.77
  -7 -15   2    3.15    2.75
   7  15  -2    0.96    2.89
   7  15   2    6.40    2.86
  -7 -15  -3  327.13    6.40
  -7 -15  -3  261.91    6.12
  -7 -15   3  309.39    6.28
  -7 -15   3  224.76    5.90
   7  15  -3  242.62    6.54
   7  15   3  347.58    6.71
  -7 -15  -4  748.38    9.21
  -7 -15  -4  797.67    8.40
  -7 -15  -4  663.34    7.95
  -7 -15   4  811.75    8.33
  -7 -15   4  577.02    7.57
  -7  15  -4  541.23    5.12
  -7  15   4  579.93    4.77
   7 -15   4  619.89    5.41
   7  15  -4  604.34    8.14
   7  15   4  824.74    8.77
  -7 -15  -5 1015.00   10.59
  -7 -15  -5 1041.00    9.33
  -7 -15   5  815.83    8.79
  -7  15  -5  758.03    6.50
  -7  15   5  830.96    6.16
   7 -15  -5  828.89    6.15
   7 -15   5  826.92    6.72
   7  15  -5  823.34    9.24
   7  15   5 1102.00   10.05
  -7 -15  -6 1370.00   12.12
  -7 -15  -6 1388.00   10.65
  -7 -15   6 1208.00   11.69
  -7 -15   6 1042.00    9.86
  -7  15  -6 1003.00    7.93
  -7  15   6 1088.00    7.55
   7 -15  -6 1101.00    7.61
   7 -15   6 1068.00    8.08
   7  15  -6 1112.00   10.72
   7  15   6 1572.00   11.93
  -7 -15  -7 1078.00   11.29
  -7 -15  -7 1022.00    9.84
  -7 -15   7  986.94   11.00
  -7 -15   7  859.13    9.46
  -7  15  -7  828.85    8.06
  -7  15  -7 1199.00    7.60
  -7  15   7  925.03    5.97
   7 -15  -7  921.89    7.73
   7 -15   7  820.82    7.97
   7  15  -7  896.76   10.23
   7  15   7 1130.00   11.44
   7  15   7 1218.00   10.89
  -7 -15  -8  335.90    8.23
  -7 -15  -8  336.23    7.52
  -7 -15   8  309.05    8.08
  -7 -15   8  288.08    7.08
  -7  15  -8  282.31    6.41
  -7  15  -8  360.52    5.91
   7 -15  -8  295.25    6.01
   7 -15   8  269.40    6.19
   7  15  -8  291.50    7.82
   7  15   8  377.64    8.38
   7  15   8  368.09    7.80
  -7 -15  -9    6.03    3.86
  -7 -15  -9    1.47    3.43
  -7 -15   9    4.55    3.76
  -7 -15   9    4.63    3.16
  -7  15  -9    1.20    3.12
  -7  15  -9    7.25    2.89
   7 -15  -9    2.34    2.93
   7 -15   9    5.17    3.19
   7  15  -9    3.61    3.67
   7  15   9    2.75    3.85
  -7 -15 -10   48.90    4.80
  -7 -15 -10   39.29    4.09
  -7 -15  10   41.92    4.56
  -7 -15  10   35.00    3.87
  -7  15 -10   50.82    5.74
  -7  15 -10   55.87    5.53
   7 -15 -10   43.96    5.42
   7 -15  10   50.36    5.87
   7  15 -10   37.58    4.25
   7  15  10   67.19    7.40
  -7 -15 -11   99.87    7.81
  -7 -15 -11  111.51    6.96
  -7 -15  11  102.18    7.70
  -7 -15  11  100.99    6.70
  -7  15 -11  103.79    6.57
  -7  15 -11  116.88    6.43
   7 -15 -11   94.31    6.17
   7 -15  11   99.60    6.67
   7 -15  11  151.56    5.24
   7  15 -11  128.84    8.28
   7  15 -11   88.16    7.25
  -7 -15 -12   33.98    4.87
  -7 -15 -12   24.56    4.07
  -7 -15  12   28.91    4.73
  -7 -15  12   22.91    3.93
  -7  15 -12   25.71    4.33
  -7  15 -12   30.46    4.03
   7 -15 -12   25.25    3.94
   7 -15 -12   30.67    2.74
   7 -15  12   31.90    4.34
   7 -15  12   54.00    5.45
   7  15 -12   31.63    5.09
   7  15 -12   26.25    4.42
  -7 -15 -13   -3.82    4.31
  -7 -15 -13   -5.05    3.74
  -7 -15  13    2.70    4.27
  -7 -15  13    2.26    3.50
  -7  15 -13   -1.16    4.18
  -7  15 -13    1.49    3.93
   7 -15 -13    0.28    3.70
   7 -15 -13    0.60    2.71
   7 -15  13   -1.75    4.08
   7 -15  13   -0.09    3.37
   7  15 -13   -3.21    4.79
   7  15 -13    1.38    4.25
  -7 -15 -14   18.62    4.90
  -7 -15 -14   16.02    4.06
  -7 -15  14   10.81    4.63
  -7 -15  14   11.02    3.89
  -7  15 -14   12.45    4.54
  -7  15 -14   13.53    4.20
   7 -15 -14   21.31    4.17
   7 -15 -14   19.39    3.12
   7 -15  14   21.87    3.87
   7  15 -14   21.03    5.38
   7  15 -14   11.30    4.64
  -7 -15 -15   41.15    5.31
  -7 -15 -15   40.30    4.51
  -7 -15  15   37.91    6.98
   7 -15 -15   36.54    4.63
   7 -15 -15   51.70    5.52
   7  15 -15   39.85    5.74
   7  15 -15   36.64    5.12
  -7 -15 -16  160.60    9.22
  -7 -15 -16  160.33    8.25
   7 -15 -16  176.30    8.14
   7 -15 -16  161.56    6.48
   7  15 -16  160.60   10.42
   7  15 -16  143.41    9.19
  -7 -17   0  638.25    7.68
  -7 -17   0  451.87    6.94
   7  17   0  566.92    7.69
   7  17   0  486.02    7.78
  -7 -17  -1  654.23    7.81
  -7 -17  -1  459.89    6.89
  -7 -17   1  679.16    7.88
  -7 -17   1  459.98    7.00
   7  17  -1  606.14    8.04
   7  17  -1  517.11    7.94
   7  17   1  648.07    8.16
   7  17   1  525.54    7.77
  -7 -17  -2  132.30    5.78
  -7 -17  -2   98.90    5.20
  -7 -17   2  152.55    5.52
  -7 -17   2   99.72    5.36
   7  17  -2  108.87    6.00
   7  17   2  133.13    6.01
  -7 -17  -3    0.35    2.91
  -7 -17  -3    0.33    2.96
  -7 -17   3    2.35    2.87
  -7 -17   3    0.97    2.74
   7  17  -3   -0.15    3.16
   7  17   3    1.55    3.05
  -7 -17  -4  218.89    7.07
  -7 -17  -4  227.74    6.26
  -7 -17  -4  189.33    6.02
  -7 -17   4  222.43    6.16
  -7 -17   4  155.06    5.72
  -7  17  -4  174.47    3.86
   7 -17   4  177.91    3.92
   7  17  -4  180.48    6.39
   7  17   4  242.01    6.67
  -7 -17  -5  479.54    8.61
  -7 -17  -5  472.87    7.43
  -7 -17  -5  420.90    7.21
  -7 -17   5  516.66    7.57
  -7 -17   5  351.67    7.00
  -7  17  -5  363.69    5.17
   7 -17  -5  388.04    4.80
   7 -17   5  373.52    5.23
   7  17  -5  364.45    7.63
   7  17   5  520.81    8.22
  -7 -17  -6  491.76    8.76
  -7 -17  -6  505.91    7.87
  -7 -17   6  467.52    8.82
  -7 -17   6  398.58    7.38
  -7  17  -6  400.70    5.90
   7 -17  -6  424.94    5.49
   7 -17   6  398.33    5.90
   7  17  -6  409.16    8.14
  -7 -17  -7  413.43    8.74
  -7 -17  -7  400.51    7.60
  -7 -17   7  375.32    8.51
  -7 -17   7  338.67    7.29
  -7  17  -7  331.79    6.15
  -7  17  -7  442.27    5.44
   7 -17  -7  356.01    5.80
   7 -17   7  352.03    6.36
   7  17  -7  344.88    8.07
  -7 -17  -8  215.84    7.78
  -7 -17  -8  209.75    6.98
  -7 -17   8  195.55    7.66
  -7 -17   8  172.77    6.50
  -7  17  -8  168.33    5.83
  -7  17  -8  212.19    5.26
   7 -17  -8  181.87    5.51
   7 -17   8  171.73    5.81
   7  17  -8  171.33    7.44
  -7 -17  -9   22.17    4.39
  -7 -17  -9   19.16    3.66
  -7 -17   9   21.44    4.38
  -7 -17   9   19.47    3.51
  -7  17  -9   15.99    3.39
  -7  17  -9   22.64    3.11
   7 -17  -9   18.76    3.20
   7 -17   9   18.95    3.44
   7  17  -9   21.10    4.14
  -7 -17 -10   59.27    7.35
  -7 -17 -10   54.86    6.32
  -7 -17  10   64.00    7.33
  -7 -17  10   56.18    6.25
  -7  17 -10   47.77    5.97
  -7  17 -10   64.10    5.64
   7 -17 -10   41.84    3.74
   7 -17  10   58.21    6.12
   7  17 -10   43.20    4.58
  -7 -17 -11  241.33    8.87
  -7 -17 -11  228.76    7.70
  -7 -17  11  232.80    9.00
  -7 -17  11  193.25    7.41
  -7  17 -11  215.37    7.54
  -7  17 -11  247.02    7.32
   7 -17 -11  201.25    6.83
   7 -17  11  213.11    7.51
   7  17 -11  205.79    8.62
  -7 -17 -12  238.81    9.16
  -7 -17 -12  217.32    7.84
  -7 -17  12  234.58    9.28
  -7 -17  12  221.32    7.70
  -7  17 -12  241.94    8.27
  -7  17 -12  235.33    7.68
   7 -17 -12  207.95    7.31
   7 -17  12  230.81    8.16
   7 -17  12  313.03    6.00
   7  17 -12  286.67   10.07
   7  17 -12  218.88    8.72
  -7 -17 -13  110.82    8.76
  -7 -17 -13  105.65    7.40
  -7 -17  13  109.53    8.39
  -7 -17  13  103.08    6.91
  -7  17 -13  107.47    7.66
  -7  17 -13  111.89    7.47
   7 -17 -13  111.86    6.99
   7 -17  13  107.25    7.80
   7 -17  13  144.10    5.99
   7  17 -13  138.65    9.47
   7  17 -13  109.92    8.65
  -7 -17 -14    9.41    4.88
  -7 -17 -14   14.15    4.04
   7 -17 -14   16.32    4.11
   7 -17 -14   14.32    2.81
   7 -17  14   18.55    3.76
   7  17 -14   15.83    5.45
   7  17 -14   16.45    4.67
  -7 -17 -15   -1.91    4.65
  -7 -17 -15   -3.38    3.72
   7 -17 -15    4.55    3.98
   7 -17 -15   -0.55    2.82
   7  17 -15   -0.44    4.55
  -7 -19   0 1837.00   11.44
  -7 -19  -1 1540.00   10.55
  -7 -19  -1 1092.00    9.44
  -7 -19   1 1111.00    9.49
   7  19  -1 1195.00   10.77
   7  19   1 1199.00   10.63
  -7 -19  -2  543.43    7.64
  -7 -19  -2  396.81    7.05
  -7 -19   2  584.55    7.82
  -7 -19   2  402.99    7.00
   7  19  -2  435.44    7.96
  -7 -19  -3   44.88    3.73
  -7 -19  -3   36.81    3.60
  -7 -19   3   64.87    5.24
  -7 -19   3   45.43    4.91
   7  19  -3   51.96    5.69
  -7 -19  -4   22.00    4.00
  -7 -19  -4   14.28    3.28
  -7 -19  -4   15.36    3.47
  -7 -19   4   23.76    3.31
  -7 -19   4    9.64    3.00
   7  19  -4   17.60    3.61
  -7 -19  -5  153.42    7.03
  -7 -19  -5  137.08    6.04
  -7 -19  -5  112.66    6.16
  -7 -19   5  148.58    6.18
  -7 -19   5  113.47    5.73
  -7  19  -5  116.41    4.14
   7 -19  -5  117.55    3.80
   7 -19   5  128.64    4.30
   7  19  -5  117.38    6.61
  -7 -19  -6  183.29    7.44
  -7 -19  -6  168.74    6.52
  -7 -19  -6  152.85    6.41
  -7 -19   6  177.32    7.35
  -7 -19   6  217.26    6.55
  -7 -19   6  157.98    6.18
  -7  19  -6  155.45    4.88
   7 -19  -6  144.55    4.45
   7 -19   6  154.25    4.94
   7  19  -6  143.40    7.04
  -7 -19  -7  123.76    7.13
  -7 -19  -7  119.03    6.23
  -7 -19   7  124.46    7.16
  -7 -19   7   97.56    5.98
  -7  19  -7   89.77    4.97
   7 -19  -7  102.56    4.67
   7 -19   7   87.61    5.15
   7  19  -7  104.03    6.73
  -7 -19  -8   18.85    4.25
  -7 -19  -8   16.49    3.62
  -7 -19   8   25.43    4.33
  -7 -19   8   12.79    3.46
  -7  19  -8   11.34    3.13
  -7  19  -8   15.22    2.74
   7 -19  -8   16.42    2.96
   7 -19   8   14.25    3.29
   7  19  -8   12.82    3.92
  -7 -19  -9   31.12    4.64
  -7 -19  -9   25.34    3.75
  -7 -19   9   26.56    4.56
  -7 -19   9   19.25    3.69
  -7  19  -9   23.75    3.65
  -7  19  -9   31.96    3.27
   7 -19  -9   23.85    3.30
   7 -19   9   21.31    3.66
   7  19  -9   21.95    4.29
  -7 -19 -10  217.31    8.67
  -7 -19 -10  192.60    7.27
  -7 -19  10  196.37    8.81
  -7 -19  10  164.83    7.20
  -7  19 -10  172.98    6.92
  -7  19 -10  209.44    6.48
   7 -19 -10  175.70    6.43
   7 -19  10  170.18    6.71
   7  19 -10  176.91    8.49
  -7 -19 -11  356.51    9.86
  -7 -19 -11  353.89    8.38
  -7 -19  11  351.53   10.20
  -7 -19  11  293.24    8.12
  -7  19 -11  333.88    8.45
  -7  19 -11  372.25    7.79
   7 -19 -11  291.15    7.31
   7 -19  11  301.85    8.03
   7  19 -11  316.81    9.31
  -7 -19 -12  380.25   10.17
  -7 -19 -12  362.89    8.54
  -7 -19  12  363.51   10.30
  -7  19 -12  359.91    9.01
  -7  19 -12  370.91    8.46
   7 -19 -12  330.85    7.87
   7 -19  12  359.57    8.78
   7  19 -12  357.25   10.06
  -7 -19 -13  246.63    9.50
  -7 -19 -13  217.04    7.71
   7 -19 -13  223.23    7.54
   7  19 -13  302.73   10.58
   7  19 -13  237.06    9.21
  -7 -19 -14  109.89    8.59
  -7 -19 -14   93.29    7.22
   7 -19 -14   89.66    6.82
   7 -19  14  128.77    5.87
   7  19 -14   96.86    8.53
  -7 -19 -15   17.94    5.02
  -7 -19 -15   18.33    4.12
   7 -19 -15   18.20    4.18
   7  19 -15   17.24    4.97
  -7 -21   0 1159.00    9.82
   7  21   0 1295.00   11.65
  -7 -21  -1 1527.00   10.61
  -7 -21  -1 1017.00    9.26
  -7 -21   1 1563.00   10.86
  -7 -21   1 1018.00    9.35
   7  21  -1 1133.00   11.08
   7  21   1 1119.00   10.66
  -7 -21  -2  433.95    7.45
  -7 -21  -2  293.05    6.73
  -7 -21   2  493.61    7.65
  -7 -21   2  313.32    6.50
   7  21  -2  331.17    7.84
   7  21   2  323.40    7.69
  -7 -21  -3    2.19    3.26
  -7 -21  -3    2.28    3.20
  -7 -21   3   14.36    3.41
  -7 -21   3    4.84    3.03
   7  21  -3    4.95    3.52
  -7 -21  -4   12.85    4.00
  -7 -21  -4    2.76    3.17
  -7 -21  -4    3.74    3.15
  -7 -21   4   10.49    3.31
  -7 -21   4    7.56    3.12
   7  21  -4    6.00    3.59
  -7 -21  -5   28.72    4.22
  -7 -21  -5   23.79    3.52
  -7 -21  -5   19.80    3.66
  -7 -21   5   27.98    3.53
  -7 -21   5   22.40    3.33
  -7  21  -5   19.55    2.47
   7 -21   5   19.12    2.57
   7  21  -5   22.50    3.97
  -7 -21  -6   71.56    7.01
  -7 -21  -6   58.98    5.97
  -7 -21  -6   57.25    6.05
  -7 -21   6   58.64    5.10
  -7 -21   6   66.14    5.88
  -7 -21   6   45.10    5.61
  -7  21  -6   54.10    4.40
   7 -21  -6   55.30    4.03
   7 -21   6   51.31    4.43
   7  21  -6   45.80    4.46
  -7 -21  -7   54.43    4.95
  -7 -21  -7   57.49    6.22
  -7 -21  -7   50.28    4.18
  -7 -21   7   51.46    5.08
  -7 -21   7   68.45    6.07
  -7 -21   7   35.46    3.71
  -7  21  -7   37.29    3.22
   7 -21  -7   52.66    4.46
   7 -21   7   47.67    4.88
   7  21  -7   39.45    4.53
  -7 -21  -8    0.68    4.16
  -7 -21  -8    4.33    3.41
  -7 -21   8   -1.94    4.08
  -7 -21   8    0.93    3.32
  -7 -21   8   -4.02    3.33
  -7  21  -8   -0.53    3.02
  -7  21  -8    2.31    2.57
   7 -21  -8    2.60    2.81
   7 -21   8   -0.25    3.14
   7  21  -8   -4.84    4.04
  -7 -21  -9  158.94    8.27
  -7 -21  -9  154.12    6.87
  -7 -21   9  139.79    8.21
  -7 -21   9  118.91    6.72
  -7  21  -9  143.26    6.30
  -7  21  -9  171.52    5.68
   7 -21  -9  142.77    5.70
   7 -21   9  144.99    6.37
   7  21  -9  137.63    8.28
  -7 -21 -10  482.40   10.21
  -7 -21 -10  433.22    8.46
  -7 -21  10  443.91   10.50
  -7 -21  10  373.76    8.49
  -7  21 -10  441.90    8.34
  -7  21 -10  478.29    7.79
   7 -21 -10  401.19    7.36
   7 -21  10  431.67    8.36
   7  21 -10  424.56   10.26
  -7 -21 -11  519.35   10.77
  -7 -21 -11  473.44    8.72
  -7  21 -11  480.18    9.03
  -7  21 -11  503.28    8.37
   7 -21 -11  440.36    7.86
   7 -21  11  466.30    8.85
   7  21 -11  480.91   10.50
  -7 -21 -12  266.51    9.51
  -7 -21 -12  230.76    7.51
   7 -21 -12  213.54    7.01
   7  21 -12  240.11    9.61
  -7 -21 -13  116.72    8.56
  -7 -21 -13   97.86    6.96
   7 -21 -13   96.46    6.60
   7  21 -13  109.61    8.63
  -7 -23   0  612.10    7.96
  -7 -23   0  417.25    7.15
   7  23   0  482.54    8.81
  -7 -23  -1  235.42    6.53
  -7 -23  -1  161.51    6.01
  -7 -23   1  250.48    6.73
  -7 -23   1  150.57    5.83
   7  23  -1  180.80    7.55
   7  23   1  178.78    7.36
  -7 -23  -2   46.34    5.57
  -7 -23  -2   34.86    3.53
  -7 -23   2   63.01    5.75
  -7 -23   2   34.50    3.48
   7  23  -2   38.23    4.30
   7  23   2   38.69    4.12
  -7 -23  -3    1.96    3.12
  -7 -23  -3    5.83    3.21
  -7 -23   3   12.68    3.46
  -7 -23   3    3.36    3.07
   7  23  -3    0.17    3.72
  -7 -23  -4    5.40    3.94
  -7 -23  -4    8.68    3.35
  -7 -23  -4    4.40    3.32
  -7 -23   4    4.43    3.29
  -7 -23   4    4.40    3.19
   7  23  -4    0.65    3.76
  -7 -23  -5   52.43    4.67
  -7 -23  -5   56.54    5.97
  -7 -23  -5   49.52    5.83
  -7 -23   5   70.33    6.01
  -7 -23   5   47.42    5.52
  -7  23  -5   44.99    4.20
   7 -23   5   43.70    4.16
   7  23  -5   42.85    4.45
  -7 -23  -6   91.09    7.49
  -7 -23  -6   77.30    6.10
  -7 -23  -6   67.98    6.36
  -7 -23   6   81.07    7.49
  -7 -23   6   91.25    6.18
  -7 -23   6   59.43    5.67
  -7  23  -6   62.32    4.59
   7 -23  -6   64.71    4.16
   7 -23   6   61.47    4.71
   7  23  -6   72.35    7.38
  -7 -23  -7   58.44    5.06
  -7 -23  -7   50.47    5.95
  -7 -23  -7   46.28    4.22
  -7 -23   7   48.48    5.00
  -7 -23   7   77.84    6.42
  -7 -23   7   33.94    3.81
  -7  23  -7   48.69    4.85
   7 -23  -7   39.36    4.47
   7 -23   7   45.63    5.06
   7  23  -7   37.48    4.54
  -7 -23  -8    7.33    4.28
  -7 -23  -8    9.69    3.49
  -7 -23  -8    7.59    3.78
  -7 -23   8    3.87    4.46
  -7 -23   8   15.78    3.70
  -7 -23   8    2.12    3.52
  -7  23  -8   10.66    3.29
  -7  23  -8   12.57    2.73
   7 -23  -8    3.42    2.85
   7 -23   8    5.99    3.38
   7  23  -8   -0.04    4.25
  -7 -23  -9   26.80    4.82
  -7 -23  -9   20.40    3.65
  -7 -23   9   25.86    3.93
  -7  23  -9   19.85    3.60
  -7  23  -9   24.05    3.17
   7 -23  -9   20.47    3.23
   7 -23   9   16.76    3.68
   7  23  -9   13.11    4.77
  -7 -23 -10  164.16    8.40
  -7 -23 -10  149.62    6.94
  -7  23 -10  156.06    6.71
  -7  23 -10  159.77    6.15
   7 -23 -10  143.91    5.99
   7 -23  10  151.15    6.84
   7  23 -10  134.78    8.99
  -7 -23 -11  249.57    9.25
  -7 -23 -11  226.66    7.34
   7 -23 -11  221.29    6.66
   7  23 -11  214.65   11.03
  -7 -23 -12  275.84    9.76
  -7 -23 -12  218.60    7.38
   7 -23 -12  215.60    7.11
  -7 -25   0    3.32    3.22
  -7 -25   0    3.76    3.00
   7  25   0    7.35    4.01
  -7 -25  -1   22.83    3.42
  -7 -25  -1   21.62    3.33
  -7 -25   1   28.43    3.54
  -7 -25   1   19.21    3.28
   7  25  -1   20.00    4.18
   7  25   1   23.17    4.20
  -7 -25  -2   56.43    5.59
  -7 -25  -2   42.18    3.66
  -7 -25   2   70.24    6.14
  -7 -25   2   51.22    5.54
   7  25  -2   43.19    4.53
   7  25   2   46.17    4.57
  -7 -25  -3    4.30    3.19
  -7 -25  -3   -1.79    3.20
  -7 -25   3    7.52    3.52
  -7 -25   3    2.77    3.10
   7  25  -3   -2.44    3.87
  -7 -25  -4  165.85    7.88
  -7 -25  -4  156.38    6.33
  -7 -25  -4  138.95    6.29
  -7 -25   4  188.24    6.85
  -7 -25   4  125.14    5.97
   7  25  -4  144.42    7.79
  -7 -25  -5  313.61    8.91
  -7 -25  -5  275.01    6.92
  -7 -25  -5  249.36    7.03
  -7 -25   5  360.56    7.49
  -7 -25   5  233.82    6.62
   7  25  -5  260.33    8.46
  -7 -25  -6  328.42    9.18
  -7 -25  -6  294.46    6.97
  -7 -25  -6  268.64    7.25
  -7 -25   6  324.74   10.38
  -7 -25   6  388.38    7.47
  -7 -25   6  258.43    6.97
  -7  25  -6  294.24    5.85
   7 -25   6  268.53    5.74
   7  25  -6  273.46    8.88
  -7 -25  -7  256.26    8.65
  -7 -25  -7  214.98    6.70
  -7 -25  -7  205.62    7.17
  -7 -25   7  283.39    7.24
  -7  25  -7  218.48    5.86
   7 -25  -7  168.01    5.09
   7 -25   7  203.54    5.92
   7  25  -7  217.76    8.70
  -7 -25  -8   95.08    7.65
  -7 -25  -8   84.28    6.23
  -7 -25   8  135.00    6.57
  -7  25  -8  104.27    5.61
  -7  25  -8  116.42    4.83
   7 -25  -8   73.78    4.98
   7 -25   8   92.21    5.75
   7  25  -8   89.57    9.13
  -7 -25  -9   15.75    4.60
  -7 -25  -9   12.55    3.53
  -7 -25   9   20.86    3.92
  -7  25  -9   14.25    3.45
  -7  25  -9   19.43    3.08
   7 -25  -9   12.86    3.05
   7 -25   9   14.51    3.63
  -7 -25 -10   10.40    4.68
  -7 -25 -10    5.34    3.45
  -7 -25  10    9.74    3.70
   7 -25 -10   11.04    3.25
   7 -25  10    1.41    6.51
  -7 -25 -11  111.64    8.42
  -7 -25 -11   89.39    6.47
   7 -25 -11   87.62    5.94
  -7 -27   0  488.50    7.20
  -7 -27   0  374.44    6.94
   7  27   0  416.10    9.41
  -7 -27  -1   89.91    5.57
  -7 -27  -1   60.97    5.33
  -7 -27   1   95.17    5.78
  -7 -27   1   67.91    5.58
   7  27  -1   73.85    7.55
   7  27   1   69.90    7.39
  -7 -27  -2   19.92    3.30
  -7 -27  -2   17.74    3.33
  -7 -27   2   32.01    3.66
  -7 -27   2   16.92    3.20
   7  27  -2   20.19    4.50
   7  27   2   19.95    4.53
  -7 -27  -3  153.22    5.97
  -7 -27  -3  137.69    5.99
  -7 -27   3  189.12    6.59
  -7 -27   3  126.83    5.86
   7  27  -3  133.18    8.13
  -7 -27  -4  263.38    8.63
  -7 -27  -4  252.84    6.49
  -7 -27  -4  228.76    6.50
  -7 -27   4  316.87    7.25
  -7 -27   4  198.88    6.26
  -7 -27  -5  438.06    9.68
  -7 -27  -5  369.19    6.89
  -7 -27  -5  325.89    7.47
  -7 -27   5  493.01    8.08
  -7 -27  -6  458.30    9.99
  -7 -27  -6  419.17    7.30
  -7 -27   6  567.53    8.46
   7 -27   6  367.93    6.28
  -7 -27  -7  396.58    9.70
  -7 -27  -7  336.90    7.11
  -7 -27   7  461.24    7.85
  -7  27  -7  356.10    6.72
   7 -27  -7  290.33    5.60
   7 -27   7  320.25    6.57
  -7 -27  -8  178.65    8.45
  -7 -27  -8  154.76    6.41
  -7 -27   8  235.09    7.12
  -7  27  -8  193.31    6.37
  -7  27  -8  195.40    5.30
   7 -27  -8  136.05    5.30
   7 -27   8  162.26    6.15
  -7 -27  -9   12.93    4.70
  -7 -27  -9    8.79    3.30
  -7 -27   9   26.67    3.83
   7 -27  -9   12.43    3.07
   7 -27   9   11.26    3.51
  -7 -29   0  119.92    5.44
  -7 -29   0   94.61    5.32
  -7 -29  -1  111.69    5.51
  -7 -29  -1   96.71    5.34
  -7 -29   1  122.14    5.56
  -7 -29   1   96.47    5.45
  -7 -29  -2    0.65    2.91
  -7 -29  -2    0.94    3.00
  -7 -29   2    4.95    3.15
  -7 -29   2    5.90    4.69
  -7 -29  -3   47.30    4.95
  -7 -29  -3   41.75    3.48
  -7 -29   3   49.88    3.76
  -7 -29  -4  187.08    8.31
  -7 -29  -4  172.26    5.71
  -7 -29   4  212.90    6.64
  -7 -29  -5  261.95    8.85
  -7 -29  -5  220.47    6.04
  -7 -29   5  281.34    7.04
  -7 -29  -6  307.06    9.16
  -7 -29  -6  254.28    6.37
  -7 -29   6  357.17    7.59
   7 -29   6  222.33    5.72
  -8   0  -2   22.41    2.44
  -8   0  -3    5.79    2.39
  -8   0  -3    4.75    2.20
  -8   0   3    3.01    2.23
   8   0   3    3.53    2.15
  -8   0  -4   38.46    4.28
  -8   0  -4   48.46    4.24
  -8   0   4   31.33    2.57
   8   0  -4   29.87    2.47
   8   0   4   36.88    2.91
   8   0   4   41.99    3.94
  -8   0  -5  264.68    5.77
  -8   0  -5  294.62    5.53
  -8   0   5  232.99    5.31
  -8   0   5  211.69    4.92
   8   0  -5  217.10    4.90
   8   0   5  274.93    5.86
   8   0   5  312.53    5.44
  -8   0  -6 1180.00    9.72
  -8   0   6 1143.00    9.32
  -8   0   6 1058.00    8.38
   8   0  -6 1206.00    9.66
   8   0  -6 1097.00    8.19
   8   0   6 1271.00   10.10
  -8   0   8 1658.00   11.89
   8   0  -8 1905.00   12.81
   8   0   8 1967.00   13.23
  -8   0  -9  376.20    7.94
  -8   0  -9  447.34    7.75
  -8   0   9  360.70    7.23
  -8   0   9  338.57    6.66
   8   0  -9  380.47    7.55
   8   0  -9  355.79    6.73
   8   0   9  393.17    7.91
   8   0   9  478.86    7.67
  -8   0 -10   -1.55    3.50
  -8   0 -10   -3.66    3.17
  -8   0  10   -0.20    3.07
  -8   0  10    0.33    2.84
   8   0 -10   -2.39    3.13
   8   0 -10    1.43    2.98
   8   0  10    2.17    3.43
   8   0  10   -2.44    3.15
  -8   0 -11   52.87    4.65
  -8   0 -11   52.58    6.23
  -8   0  11   48.99    5.61
  -8   0  11   49.17    5.48
   8   0 -11   55.33    6.27
   8   0 -11   51.16    5.73
   8   0  11   56.90    6.53
   8   0  11   63.50    6.13
  -8   0 -12   40.85    4.57
  -8   0 -12   54.60    6.59
  -8   0  12   48.96    5.98
  -8   0  12   48.21    5.74
   8   0 -12   61.17    6.71
   8   0 -12   38.99    3.88
   8   0  12   50.59    4.65
   8   0  12   52.52    4.41
  -8   0 -13   27.63    4.54
  -8   0 -13   32.27    4.38
  -8   0  13   26.80    4.11
  -8   0  13   23.37    3.75
   8   0 -13   27.25    4.45
   8   0 -13   21.43    3.78
   8   0  13   30.77    4.65
   8   0  13   30.56    4.16
  -8   0 -14   -5.66    4.13
  -8   0 -14   -8.16    3.81
  -8   0  14   -0.01    3.86
   8   0 -14   -1.10    4.15
   8   0 -14   -2.60    3.64
   8   0  14   -1.62    4.26
   8   0  14   -3.60    4.00
  -8   0 -15   47.34    5.41
  -8   0 -15   47.19    4.99
   8   0 -15   50.59    5.29
   8   0 -15   47.29    4.59
   8   0  15   50.39    5.46
   8   0  15   60.31    5.18
  -8   0 -16   53.91    5.80
  -8   0 -16   75.90    8.01
   8   0 -16   53.04    5.52
   8   0 -16   45.27    4.76
   8   0  16   78.94    8.70
   8   0  16   84.01    8.05
  -8   0 -17  176.42    9.75
  -8   0 -17  185.60    8.81
   8   0 -17  150.19    9.22
   8   0 -17  138.62    7.98
   8   0  17  198.88    9.52
   8   0  17  237.44    9.71
  -8   0 -18  122.24    9.73
  -8   0 -18  117.25    8.52
   8   0 -18  116.65    9.27
   8   0 -18   98.64    8.37
  -8  -2  -1  306.84    5.15
  -8  -2  -2   59.02    4.20
  -8  -2   2   43.62    3.84
  -8   2  -2   56.05    3.94
   8   2   2   60.95    3.96
  -8  -2  -3   49.17    4.48
  -8  -2  -3   51.75    4.10
  -8  -2   3   33.94    2.72
  -8   2  -3   44.20    3.98
  -8   2  -3   44.30    3.62
  -8   2   3   39.66    3.58
   8   2  -3   34.29    4.03
   8   2   3   50.28    4.12
  -8  -2  -4  291.69    5.81
  -8  -2  -4  332.21    5.82
  -8  -2   4  230.51    5.11
  -8   2  -4  280.25    5.38
  -8   2  -4  323.68    5.17
  -8   2   4  251.12    5.06
  -8   2   4  246.01    4.69
   8  -2   4  300.43    5.48
   8  -2   4  304.15    4.79
   8   2  -4  245.21    5.24
   8   2   4  300.81    5.95
   8   2   4  326.10    5.44
  -8  -2  -5  363.30    6.44
  -8  -2  -5  408.13    6.38
  -8  -2   5  329.98    6.02
  -8  -2   5  296.58    5.59
  -8   2  -5  342.82    6.01
  -8   2  -5  434.20    5.91
  -8   2   5  313.51    5.57
  -8   2   5  310.52    5.08
   8  -2  -5  320.01    4.87
   8  -2   5  372.24    6.05
   8  -2   5  394.21    5.34
   8   2  -5  298.70    5.50
   8   2   5  366.31    6.38
   8   2   5  418.94    6.21
  -8  -2  -6  471.35    7.25
  -8  -2  -6  556.94    7.10
  -8  -2   6  425.20    6.78
  -8  -2   6  396.90    6.24
  -8   2  -6  450.21    6.81
  -8   2  -6  546.51    6.77
  -8   2   6  439.23    6.41
  -8   2   6  401.21    5.67
   8  -2  -6  454.44    6.70
   8  -2  -6  429.95    5.75
   8  -2   6  460.72    6.90
   8  -2   6  590.99    6.57
   8   2  -6  403.28    6.18
   8   2   6  501.98    7.37
   8   2   6  575.06    7.25
  -8  -2  -7  575.81    8.14
  -8  -2  -7  697.75    8.12
  -8  -2   7  507.81    7.59
  -8  -2   7  510.49    6.97
  -8   2  -7  540.20    7.70
  -8   2  -7  683.30    7.73
  -8   2   7  510.94    7.13
  -8   2   7  489.06    6.48
   8  -2  -7  540.46    7.40
   8  -2  -7  520.36    6.49
   8  -2   7  591.25    7.83
   8  -2   7  720.36    7.59
   8   2  -7  575.15    8.13
   8   2  -7  509.36    7.05
   8   2   7  640.26    8.48
   8   2   7  714.88    8.03
  -8  -2  -8  352.88    7.55
  -8  -2  -8  423.02    7.41
  -8  -2   8  340.75    7.02
  -8  -2   8  302.50    6.24
  -8   2  -8  327.13    7.12
  -8   2  -8  427.42    7.29
  -8   2   8  312.93    6.53
  -8   2   8  312.34    6.10
   8  -2  -8  350.52    6.86
   8  -2  -8  311.96    5.96
   8  -2   8  370.98    7.29
   8  -2   8  441.55    6.99
   8   2  -8  387.87    7.58
   8   2  -8  328.85    6.54
   8   2   8  391.69    7.63
   8   2   8  441.51    7.27
  -8  -2  -9   48.51    6.02
  -8  -2  -9   54.47    5.97
  -8  -2   9   34.12    3.59
  -8  -2   9   35.35    3.36
  -8   2  -9   28.30    3.79
  -8   2  -9   40.32    3.74
  -8   2   9   34.36    3.49
  -8   2   9   31.19    3.10
   8  -2  -9   33.77    3.52
   8  -2  -9   38.17    3.25
   8  -2   9   39.61    3.88
   8  -2   9   43.67    3.62
   8   2  -9   51.78    5.94
   8   2  -9   32.34    3.28
   8   2   9   52.98    5.80
   8   2   9   56.21    5.72
  -8  -2 -10    7.64    3.89
  -8  -2 -10    7.20    3.36
  -8  -2  10   16.05    3.40
  -8  -2  10   10.05    3.13
  -8   2 -10    2.98    3.51
  -8   2 -10   10.21    3.42
  -8   2  10    4.75    3.09
  -8   2  10    7.43    2.92
   8  -2 -10   11.35    3.32
   8  -2 -10    9.29    3.00
   8  -2  10   12.67    3.57
   8  -2  10    9.83    3.32
   8   2 -10   14.04    3.59
   8   2 -10   13.22    3.15
   8   2  10   11.94    3.72
   8   2  10   14.31    3.41
  -8  -2 -11   88.93    6.93
  -8  -2 -11  104.42    6.64
  -8  -2  11   96.63    6.20
  -8  -2  11   90.02    6.13
  -8   2 -11   79.76    6.60
  -8   2 -11   97.27    6.50
  -8   2  11   87.39    6.04
  -8   2  11   74.44    5.59
   8  -2 -11   93.38    6.59
   8  -2 -11   86.07    5.78
   8  -2  11   93.40    6.77
   8  -2  11  114.99    6.30
   8   2 -11  100.31    6.70
   8   2 -11   96.59    6.07
   8   2  11  108.71    7.05
   8   2  11  114.32    6.58
  -8  -2 -12   92.04    7.35
  -8  -2 -12  109.04    7.28
  -8  -2  12  101.35    6.52
  -8  -2  12  104.40    6.25
  -8   2 -12   95.50    7.18
  -8   2 -12  106.60    6.87
  -8   2  12   82.75    6.33
  -8   2  12   96.42    6.10
   8  -2 -12  111.50    7.04
   8  -2 -12  100.35    6.32
   8  -2  12  116.75    7.33
   8  -2  12  120.76    6.91
   8   2 -12  109.98    7.16
   8   2 -12  100.24    6.39
   8   2  12  106.80    7.39
   8   2  12  122.52    6.95
  -8  -2 -13   12.77    4.25
  -8  -2 -13   14.52    4.07
  -8  -2  13   10.98    3.86
  -8  -2  13   17.84    3.69
  -8   2 -13    9.68    4.41
  -8   2 -13   12.26    4.10
  -8   2  13    9.16    3.80
   8  -2 -13   11.46    4.18
   8  -2 -13   11.91    3.59
   8  -2  13   13.04    4.28
   8  -2  13   10.23    3.92
   8   2 -13   17.06    4.22
   8   2 -13   12.40    3.75
   8   2  13   16.42    4.37
   8   2  13   14.23    4.06
  -8  -2 -14   -0.92    4.18
  -8  -2 -14   -0.68    3.78
  -8  -2  14    1.25    3.86
  -8  -2  14    1.94    3.49
  -8   2 -14   -7.52    4.18
  -8   2 -14   -8.42    4.01
   8  -2 -14   -1.71    4.07
   8  -2 -14   -0.33    3.60
   8  -2  14   -9.78    3.83
   8   2 -14    0.31    4.04
   8   2 -14   -0.23    3.64
   8   2  14    5.40    4.36
   8   2  14    2.44    4.00
  -8  -2 -15    3.55    4.85
  -8  -2 -15    7.92    4.14
  -8  -2  15    4.54    4.17
  -8   2 -15    2.98    4.61
  -8   2 -15    0.33    4.15
   8  -2 -15    7.72    4.40
   8  -2 -15    4.92    3.87
   8  -2  15    3.50    4.55
   8  -2  15    1.37    4.23
   8   2 -15    8.37    4.42
   8   2 -15    2.61    3.97
   8   2  15    8.80    4.69
   8   2  15   16.66    4.35
  -8  -2 -16   99.68    9.04
  -8  -2 -16   94.63    7.96
  -8  -2  16   49.90    6.05
  -8   2 -16   80.40    8.97
  -8   2 -16   88.35    8.13
   8  -2 -16   78.74    8.42
   8  -2 -16   82.01    7.51
   8  -2  16   84.78    8.52
   8  -2  16   99.22    8.49
   8   2 -16   82.21    8.50
   8   2 -16   58.33    5.09
   8   2  16  107.87    8.90
   8   2  16  112.61    8.33
  -8  -2 -17   56.92    6.00
  -8  -2 -17   72.09    8.01
  -8   2 -17   77.02    8.89
  -8   2 -17   75.94    8.27
   8  -2 -17   47.31    5.60
   8  -2 -17   43.20    4.71
   8  -2  17   89.98    8.78
   8  -2  17   96.99    8.62
   8   2 -17   50.57    5.73
   8   2 -17   46.95    5.00
   8   2  17   83.26    8.68
   8   2  17   92.57    8.82
  -8  -2 -18  116.80    9.74
  -8  -2 -18   97.63    8.23
  -8   2 -18  128.09    9.85
  -8   2 -18   93.59    8.44
   8  -2 -18  116.48    9.05
   8  -2 -18   98.65    7.65
   8   2 -18  109.80    9.25
   8   2 -18   89.94    8.11
   8   2  18  127.17    9.72
   8   2  18  145.94    9.31
  -8  -4   1  976.39    7.68
  -8  -4  -2  118.22    4.65
  -8  -4   2   92.82    4.50
  -8   4  -2  107.17    3.99
   8   4   2  115.77    4.55
  -8  -4  -3   11.12    2.74
  -8  -4  -3   13.81    2.55
  -8  -4   3    9.25    2.36
  -8   4  -3   11.59    2.28
  -8   4  -3   15.13    2.07
   8  -4   3   16.31    2.38
   8   4  -3    9.10    2.37
   8   4   3   13.11    2.55
  -8  -4  -4  169.14    5.42
  -8  -4  -4  180.68    5.24
  -8  -4   4  138.96    4.69
  -8   4  -4  158.07    4.60
  -8   4  -4  188.05    4.32
  -8   4   4  146.23    4.38
   8  -4   4  170.14    4.69
   8   4  -4  138.03    4.82
   8   4   4  180.92    5.08
  -8  -4  -5  223.26    5.89
  -8  -4  -5  264.03    5.87
  -8  -4   5  215.74    5.64
  -8  -4   5  185.89    5.09
  -8   4  -5  209.14    5.22
  -8   4  -5  270.28    5.00
  -8   4   5  207.40    4.85
  -8   4   5  182.08    3.98
   8  -4   5  224.90    5.30
   8  -4   5  252.30    4.44
   8   4  -5  201.70    5.25
   8   4   5  240.72    5.90
   8   4   5  259.76    5.81
  -8  -4  -6   42.06    5.13
  -8  -4  -6   42.81    5.08
  -8  -4   6   39.65    4.75
  -8  -4   6   27.36    2.92
  -8   4  -6   31.18    3.16
  -8   4  -6   45.82    4.33
  -8   4   6   40.98    4.23
  -8   4   6   32.80    3.85
   8  -4  -6   37.25    4.45
   8  -4  -6   34.54    3.79
   8  -4   6   37.64    4.63
   8  -4   6   37.57    4.06
   8   4  -6   28.48    2.99
   8   4   6   42.20    5.15
   8   4   6   42.81    5.09
  -8  -4  -7   16.78    3.29
  -8  -4  -7   19.82    3.29
  -8  -4   7   11.60    2.98
  -8  -4   7   14.20    2.88
  -8   4  -7   14.22    3.05
  -8   4  -7   15.25    2.79
  -8   4   7   15.46    2.72
  -8   4   7   13.67    2.55
   8  -4  -7   13.13    2.80
   8  -4  -7   14.25    2.53
   8  -4   7   12.36    2.99
   8  -4   7   15.51    2.71
   8   4  -7   14.76    2.98
   8   4   7   16.45    3.29
   8   4   7   15.12    3.16
  -8  -4  -8   62.20    5.93
  -8  -4  -8   83.84    5.74
  -8  -4   8   57.66    5.41
  -8  -4   8   51.43    4.93
  -8   4  -8   58.63    5.43
  -8   4  -8   83.00    5.36
  -8   4   8   58.24    4.89
  -8   4   8   57.94    4.48
   8  -4  -8   60.37    5.06
   8  -4  -8   64.92    4.45
   8  -4   8   59.83    5.40
   8  -4   8   81.21    4.90
   8   4  -8   71.98    5.82
   8   4  -8   61.94    5.22
   8   4   8   69.92    5.87
   8   4   8   78.35    5.84
  -8  -4  -9   82.21    6.29
  -8  -4  -9   79.64    6.25
  -8  -4   9   64.72    5.74
  -8  -4   9   65.20    5.47
  -8   4  -9   72.62    5.72
  -8   4  -9   99.91    5.79
  -8   4   9   65.04    4.96
  -8   4   9   56.25    4.74
   8  -4  -9   67.45    5.37
   8  -4  -9   67.63    4.88
   8  -4   9   77.79    5.94
   8  -4   9   95.31    5.37
   8   4  -9   87.07    6.37
   8   4  -9   68.73    5.61
   8   4   9   74.71    6.19
   8   4   9   96.87    5.91
  -8  -4 -10  264.96    8.11
  -8  -4 -10  300.26    7.65
  -8  -4  10  261.71    7.39
  -8  -4  10  254.97    7.00
  -8   4 -10  259.50    7.51
  -8   4 -10  319.88    7.19
  -8   4  10  222.06    6.62
  -8   4  10  226.05    6.29
   8  -4 -10  248.14    7.00
   8  -4 -10  220.70    5.94
   8  -4  10  270.67    7.46
   8  -4  10  352.29    7.14
   8   4 -10  284.20    7.91
   8   4 -10  251.85    6.94
   8   4  10  290.40    7.97
   8   4  10  323.91    7.53
  -8  -4 -11  341.02    8.89
  -8  -4 -11  386.26    8.31
  -8  -4  11  334.73    8.05
  -8  -4  11  324.40    7.46
  -8   4 -11  317.22    8.09
  -8   4 -11  406.82    8.06
  -8   4  11  297.12    7.43
  -8   4  11  299.03    6.75
   8  -4 -11  318.07    7.82
   8  -4 -11  299.27    6.74
   8  -4  11  367.65    8.29
   8  -4  11  459.85    8.04
   8   4 -11  374.05    8.63
   8   4 -11  335.58    7.64
   8   4  11  374.89    8.74
   8   4  11  446.57    8.64
  -8  -4 -12  170.36    8.03
  -8  -4 -12  193.62    7.62
  -8  -4  12  172.95    7.49
  -8  -4  12  155.60    6.84
  -8   4 -12  161.95    7.60
  -8   4 -12  198.42    7.59
  -8   4  12  158.49    7.06
   8  -4 -12  183.34    7.49
   8  -4 -12  158.87    6.49
   8  -4  12  163.53    7.48
   8  -4  12  210.84    7.24
   8   4 -12  175.57    7.85
   8   4 -12  170.55    7.46
   8   4  12  188.74    8.21
   8   4  12  212.97    7.92
  -8  -4 -13   75.34    7.59
  -8  -4 -13   71.10    7.18
  -8  -4  13   68.76    6.68
  -8  -4  13   65.88    6.42
  -8   4 -13   54.67    4.99
  -8   4 -13   59.97    7.02
   8  -4 -13   60.33    7.04
   8  -4 -13   63.03    6.28
   8  -4  13   63.95    7.22
   8  -4  13   73.64    6.86
   8   4 -13   76.59    7.59
   8   4 -13   66.71    6.76
   8   4  13   81.90    7.73
   8   4  13   86.25    7.31
  -8  -4 -14    6.44    4.37
  -8  -4 -14    5.34    4.15
  -8  -4  14   11.36    4.10
  -8  -4  14    7.74    3.75
  -8   4 -14    7.55    4.68
  -8   4 -14   -1.70    3.97
   8  -4 -14   12.25    4.19
   8  -4 -14    8.32    3.66
   8  -4  14    8.46    4.54
   8  -4  14   -2.24    4.00
   8   4 -14   14.14    4.43
   8   4 -14    7.53    3.98
   8   4  14   19.76    4.71
   8   4  14   16.52    4.25
  -8  -4 -15   -0.36    4.62
  -8  -4 -15    1.91    4.15
  -8  -4  15   -2.36    4.04
  -8  -4  15    3.62    3.76
  -8   4 -15   -4.63    4.83
  -8   4 -15  -12.07    4.06
   8  -4 -15    2.51    4.32
   8  -4 -15    1.48    3.68
   8  -4  15   -5.15    4.79
   8  -4  15   -7.11    4.21
   8   4 -15   -4.20    4.31
   8   4 -15    0.25    3.89
   8   4  15    6.94    4.85
   8   4  15    0.07    4.19
  -8  -4 -16    3.90    5.01
  -8  -4 -16    5.05    4.31
  -8  -4  16    3.38    4.41
  -8  -4  16   -2.97    3.72
  -8   4 -16   -1.44    4.92
  -8   4 -16   -3.42    4.58
   8  -4 -16    6.96    4.57
   8  -4 -16    0.47    3.82
   8  -4  16   -2.84    4.73
   8  -4  16   -1.31    4.31
   8   4 -16   -5.86    4.47
   8   4 -16   -1.07    3.95
   8   4  16    2.38    4.78
   8   4  16    0.14    4.32
  -8  -4 -17   56.70    6.25
  -8  -4 -17   73.47    7.97
  -8  -4  17   67.60    7.96
  -8   4 -17   82.39    9.12
  -8   4 -17   77.14    8.51
   8  -4 -17   79.28    8.45
   8  -4 -17   85.74    7.44
   8   4 -17   79.90    8.77
   8   4 -17   64.96    7.84
   8   4  17   88.93    9.09
   8   4  17  108.19    8.70
  -8  -4 -18   49.02    5.95
  -8  -4 -18   35.70    4.86
  -8   4 -18   70.01    8.49
   8  -4 -18   44.52    5.45
   8  -4 -18   41.52    4.70
   8   4 -18   52.71    5.94
   8   4 -18   34.44    4.79
   8   4  18   77.26    9.29
   8   4  18   88.96    9.20
  -8  -6   1  923.16    7.88
   8   6   1 1096.00    8.34
  -8  -6  -2  206.10    5.22
  -8  -6   2  179.60    5.01
  -8   6  -2  201.65    4.15
   8   6  -2  190.17    5.17
   8   6   2  209.15    5.20
  -8  -6  -3   22.55    2.82
  -8  -6  -3   18.89    2.86
  -8  -6   3   12.58    2.53
  -8   6  -3   14.22    2.21
  -8   6   3   11.22    1.77
   8  -6   3   19.56    2.23
   8   6  -3   15.61    2.67
   8   6   3   17.11    2.70
  -8  -6  -4   31.12    3.31
  -8  -6  -4   26.38    3.18
  -8  -6   4   24.43    2.72
  -8   6  -4   24.49    2.55
  -8   6  -4   36.46    3.20
  -8   6   4   27.89    3.44
  -8   6   4   28.14    3.06
   8  -6   4   30.64    3.80
   8   6  -4   29.60    2.97
   8   6   4   33.60    2.96
  -8  -6  -5   78.51    5.21
  -8  -6  -5   74.26    5.18
  -8  -6   5   58.88    4.54
  -8   6  -5   66.49    4.30
  -8   6  -5   82.94    3.90
  -8   6   5   65.83    3.96
  -8   6   5   64.36    3.63
   8  -6  -5   70.32    4.19
   8  -6   5   76.69    4.36
   8  -6   5   79.94    3.24
   8   6  -5   70.15    4.78
   8   6   5   82.26    5.23
   8   6   5   83.41    5.11
  -8  -6  -6   17.17    3.24
  -8  -6  -6   15.97    3.02
  -8  -6   6   13.63    3.09
  -8  -6   6   10.83    2.71
  -8   6  -6   17.62    2.84
  -8   6  -6   20.71    2.65
  -8   6   6   14.65    2.49
   8  -6  -6   12.77    2.60
   8  -6   6   14.65    2.85
   8  -6   6   20.70    2.27
   8   6  -6   10.79    2.83
   8   6   6   16.71    3.24
   8   6   6   18.19    3.09
  -8  -6  -7  167.21    6.36
  -8  -6  -7  194.51    6.32
  -8  -6   7  154.42    5.92
  -8  -6   7  137.46    5.47
  -8   6  -7  148.22    5.46
  -8   6  -7  192.79    5.36
  -8   6   7  140.62    4.96
  -8   6   7  143.20    4.45
   8  -6  -7  159.12    5.23
   8  -6  -7  155.60    4.22
   8  -6   7  155.81    5.47
   8  -6   7  193.61    4.65
   8   6  -7  148.79    5.90
   8   6   7  188.03    6.46
   8   6   7  205.44    6.36
  -8  -6  -8   -0.45    3.14
  -8  -6  -8    3.19    3.14
  -8  -6   8   -3.22    3.11
  -8  -6   8   -1.90    2.76
  -8   6  -8    3.50    3.11
  -8   6  -8    0.89    2.81
  -8   6   8    2.69    2.55
  -8   6   8    2.03    2.35
   8  -6  -8    2.31    2.69
   8  -6  -8    3.68    2.29
   8  -6   8    1.13    2.82
   8  -6   8   -1.07    2.59
   8   6  -8   -9.29    3.32
   8   6  -8    0.32    2.92
   8   6   8    3.05    3.22
   8   6   8    0.79    3.04
  -8  -6  -9  559.76    9.19
  -8  -6  -9  601.02    8.70
  -8  -6   9  496.67    8.65
  -8  -6   9  466.84    7.91
  -8   6  -9  496.84    8.17
  -8   6  -9  616.82    8.03
  -8   6   9  459.95    7.39
  -8   6   9  472.43    6.66
   8  -6  -9  496.86    7.73
   8  -6  -9  524.70    6.47
   8  -6   9  505.28    8.18
   8  -6   9  674.24    7.66
   8   6  -9  557.40    9.20
   8   6  -9  487.66    8.04
   8   6   9  600.13    9.40
   8   6   9  683.01    8.97
  -8  -6 -10  813.87   10.83
  -8  -6 -10  876.98   10.23
  -8  -6  10  748.10   10.22
  -8  -6  10  715.16    9.31
  -8   6 -10  736.05    9.72
  -8   6 -10  884.44    9.62
  -8   6  10  681.78    8.82
  -8   6  10  705.16    8.20
   8  -6 -10  747.15    9.39
   8  -6 -10  725.69    7.76
   8  -6  10  775.78    9.74
   8  -6  10 1010.00    9.30
   8   6 -10  834.41   10.89
   8   6 -10  749.27    9.57
   8   6  10  863.59   10.89
   8   6  10  939.14   10.36
  -8  -6 -11  595.90   10.38
  -8  -6 -11  591.01    9.41
  -8  -6  11  558.36    9.75
  -8  -6  11  523.59    8.81
  -8   6 -11  543.16    9.20
  -8   6 -11  643.27    9.22
  -8   6  11  521.77    8.65
   8  -6 -11  544.21    8.86
   8  -6 -11  539.71    7.60
   8  -6  11  602.83    9.48
   8  -6  11  749.06    9.10
   8   6 -11  629.17   10.42
   8   6 -11  540.70    8.99
   8   6  11  636.78   10.41
   8   6  11  741.76    9.98
  -8  -6 -12  423.36    9.71
  -8  -6 -12  460.58    9.21
  -8  -6  12  398.57    9.11
  -8  -6  12  377.00    8.28
  -8   6 -12  399.04    9.04
  -8   6 -12  461.50    8.92
   8  -6 -12  435.07    9.01
   8  -6 -12  383.93    7.30
   8  -6  12  449.45    9.22
   8  -6  12  563.36    8.78
   8   6 -12  448.37    9.78
   8   6 -12  401.40    8.77
   8   6  12  487.49   10.02
   8   6  12  540.51    9.63
  -8  -6 -13  243.38    8.93
  -8  -6 -13  258.82    8.28
  -8  -6  13  228.93    8.28
  -8  -6  13  219.05    7.48
  -8   6 -13  229.11    8.68
  -8   6 -13  234.63    8.07
   8  -6 -13  228.16    8.02
   8  -6 -13  225.11    6.88
   8  -6  13  235.27    8.37
   8  -6  13  315.38    8.09
   8   6 -13  270.39    9.00
   8   6 -13  237.01    8.09
   8   6  13  268.40    9.11
   8   6  13  301.78    8.77
  -8  -6 -14  109.57    8.04
  -8  -6 -14  118.06    7.69
  -8  -6  14  109.36    7.65
  -8  -6  14  108.11    7.01
  -8   6 -14   92.47    8.15
  -8   6 -14   94.56    7.79
   8  -6 -14  108.76    7.73
   8  -6 -14   95.91    6.55
   8  -6  14   98.76    7.96
   8  -6  14  120.80    7.42
   8   6 -14  123.62    8.35
   8   6 -14  103.57    7.87
   8   6  14  121.90    8.29
   8   6  14  142.32    8.10
  -8  -6 -15   20.06    5.08
  -8  -6 -15   20.61    4.41
  -8  -6  15   19.05    4.73
  -8  -6  15   19.04    4.09
  -8   6 -15   14.98    5.02
  -8   6 -15   11.10    4.60
   8  -6 -15   18.51    4.44
   8  -6 -15   23.65    4.05
   8  -6  15   20.06    5.16
   8  -6  15   21.05    4.59
   8   6 -15   20.78    4.91
   8   6 -15   24.69    4.44
   8   6  15   31.65    5.29
   8   6  15   27.73    4.72
  -8  -6 -16   20.23    5.25
  -8  -6 -16   17.00    4.48
  -8  -6  16   20.39    4.79
  -8  -6  16   15.54    3.98
  -8   6 -16   15.05    5.07
  -8   6 -16   19.12    4.52
   8  -6 -16   17.35    4.64
   8  -6 -16   20.07    4.07
   8  -6  16   18.00    4.99
   8  -6  16   29.72    5.31
   8   6 -16   17.56    5.00
   8   6 -16   17.36    4.47
   8   6  16   19.68    5.32
   8   6  16   24.93    4.91
  -8  -6 -17    8.97    5.21
  -8  -6 -17    8.35    4.26
  -8  -6  17    9.28    4.70
  -8  -6  17   11.45    3.96
  -8   6 -17   10.71    5.38
  -8   6 -17   14.98    4.53
   8  -6 -17   14.14    4.91
   8  -6 -17    7.23    3.92
   8   6 -17    8.81    4.91
   8   6 -17    2.77    4.20
   8   6  17   13.10    5.30
   8   6  17   17.00    4.83
  -8  -6 -18    0.63    5.18
  -8  -6 -18    7.77    4.32
  -8  -6  18    1.62    4.68
  -8   6 -18    0.13    4.37
   8  -6 -18    7.82    4.69
   8  -6 -18    1.46    3.87
   8   6 -18    6.48    5.13
   8   6 -18    3.87    4.27
   8   6  18    4.96    5.20
   8   6  18    9.82    4.92
  -8  -8   2  798.98    7.71
  -8   8  -2  923.97    6.18
   8   8  -2  866.08    7.98
   8   8   2 1032.00    8.62
  -8  -8  -3  239.19    5.85
  -8  -8   3  187.35    5.20
  -8   8  -3  188.10    4.20
  -8   8   3  203.14    3.94
   8  -8   3  206.97    4.20
   8   8  -3  190.30    5.62
   8   8   3  226.86    5.80
  -8  -8  -4   12.61    3.07
  -8  -8  -4    5.07    2.90
  -8  -8   4    8.91    2.59
  -8   8  -4    7.35    2.21
  -8   8  -4   13.76    1.86
   8  -8   4    6.71    2.22
   8   8  -4   10.28    2.78
   8   8   4    7.56    2.66
  -8  -8  -5  559.03    8.09
  -8  -8  -5  603.46    7.81
  -8  -8   5  470.96    7.05
  -8   8  -5  467.53    6.10
  -8   8  -5  647.15    5.72
  -8   8   5  424.41    5.35
  -8   8   5  481.62    4.90
   8  -8  -5  480.77    5.92
   8  -8   5  514.76    6.24
   8   8  -5  479.93    7.18
   8   8   5  604.69    7.79
  -8  -8  -6  531.24    8.24
  -8  -8  -6  581.09    7.83
  -8  -8   6  484.62    7.72
  -8  -8   6  426.95    7.00
  -8   8  -6  460.52    6.45
  -8   8  -6  634.41    6.30
  -8   8   6  417.30    5.96
  -8   8   6  469.49    5.34
   8  -8  -6  456.03    6.17
   8  -8   6  482.16    6.56
   8  -8   6  539.19    4.65
   8   8  -6  469.75    7.33
   8   8   6  566.10    8.22
   8   8   6  606.53    7.97
  -8  -8  -7  107.06    6.06
  -8  -8  -7  116.96    5.95
  -8  -8   7   98.29    5.85
  -8  -8   7   93.06    5.36
  -8   8  -7   94.50    4.99
  -8   8  -7  118.25    4.83
  -8   8   7   85.85    4.60
  -8   8   7   92.63    4.21
   8  -8  -7   93.88    4.82
   8  -8   7   99.75    5.08
   8  -8   7  115.36    3.91
   8   8  -7   91.88    5.55
   8   8   7  118.65    6.09
   8   8   7  130.41    6.01
  -8  -8  -8   -1.15    3.31
  -8  -8  -8    1.18    3.23
  -8  -8   8   -1.58    3.11
  -8  -8   8   -2.89    2.87
  -8   8  -8   -3.19    2.97
  -8   8  -8   -4.87    2.64
  -8   8   8    1.60    2.62
   8  -8  -8   -0.34    2.67
   8  -8  -8    1.64    2.09
   8  -8   8   -2.90    2.78
   8  -8   8   -3.68    2.31
   8   8  -8   -3.46    2.98
   8   8   8   -1.93    3.17
   8   8   8    2.79    3.14
  -8  -8  -9  111.27    6.77
  -8  -8  -9  107.23    6.39
  -8  -8   9   77.76    6.30
  -8  -8   9   70.83    6.13
  -8   8  -9   76.44    5.86
  -8   8  -9   91.36    5.71
  -8   8   9   83.06    5.15
  -8   8   9   85.77    4.82
   8  -8  -9   87.87    5.44
   8  -8  -9   94.14    4.41
   8  -8   9   68.84    5.65
   8  -8   9  101.25    5.16
   8   8  -9   72.48    6.88
   8   8  -9   66.29    6.04
   8   8   9  102.55    6.58
   8   8   9  120.72    6.36
  -8  -8 -10  505.14    9.56
  -8  -8 -10  561.55    8.99
  -8  -8  10  455.13    9.04
  -8  -8  10  424.84    8.21
  -8   8 -10  417.35    8.14
  -8   8 -10  527.94    8.14
  -8   8  10  452.46    9.76
   8  -8 -10  464.21    7.88
   8  -8 -10  490.62    6.56
   8  -8  10  465.64    8.41
   8  -8  10  605.32    7.67
   8   8 -10  498.67    9.68
   8   8 -10  426.98    8.49
   8   8  10  588.15    9.98
   8   8  10  642.06    9.35
  -8  -8 -11  718.57   11.02
  -8  -8 -11  730.40   10.12
  -8  -8  11  654.29   10.46
  -8  -8  11  618.15    9.38
  -8   8 -11  632.26    9.87
  -8   8 -11  726.94    9.49
   8  -8 -11  623.26    9.09
   8  -8 -11  649.19    7.66
   8  -8  11  634.23    9.71
   8  -8  11  815.54    9.05
   8   8 -11  692.06   10.98
   8   8 -11  606.95    9.63
   8   8  11  763.38   11.16
   8   8  11  832.42   10.47
  -8  -8 -12  538.81   10.58
  -8  -8 -12  592.53   10.06
  -8  -8  12  509.09    9.86
  -8  -8  12  459.80    8.82
  -8   8 -12  492.48    9.42
  -8   8 -12  561.52    9.22
   8  -8 -12  520.16    9.21
   8  -8 -12  505.35    7.61
   8  -8  12  524.63    9.62
   8  -8  12  667.09    8.98
   8   8 -12  569.85   10.78
   8   8 -12  485.66    9.43
   8   8  12  622.80   10.88
   8   8  12  697.09   10.45
  -8  -8 -13  229.80    9.04
  -8  -8 -13  262.53    8.44
  -8  -8  13  229.45    8.44
  -8  -8  13  224.73    7.74
  -8   8 -13  234.48    8.86
  -8   8 -13  249.91    8.24
   8  -8 -13  233.17    7.94
   8  -8 -13  231.81    6.86
   8  -8  13  248.24    8.66
   8  -8  13  319.10    8.05
   8   8 -13  261.34    9.26
   8   8 -13  222.35    8.13
   8   8  13  312.04    9.53
   8   8  13  304.47    8.79
  -8  -8 -14   14.71    4.86
  -8  -8 -14   13.40    4.29
  -8  -8  14   17.34    4.42
  -8  -8  14   11.74    3.83
  -8   8 -14   14.38    4.60
  -8   8 -14   11.68    4.28
   8  -8 -14   18.27    4.24
   8  -8 -14   15.49    3.59
   8  -8  14   14.63    4.64
   8  -8  14   17.84    4.26
   8   8 -14   13.84    4.80
   8   8 -14   14.22    4.17
   8   8  14   17.94    4.90
   8   8  14   21.58    4.49
  -8  -8 -15   -0.34    4.55
  -8  -8 -15   -2.62    4.13
  -8  -8  15    0.26    4.28
  -8  -8  15    2.56    3.74
  -8   8 -15   -4.88    4.76
  -8   8 -15   -6.50    4.26
   8  -8 -15   -2.58    4.21
   8  -8 -15   -1.66    3.55
   8  -8  15   -2.24    4.61
   8  -8  15    0.09    4.11
   8   8 -15    1.81    4.62
   8   8 -15   -0.84    4.12
   8   8  15   -4.67    4.71
   8   8  15   -5.49    4.27
  -8  -8 -16   23.98    5.34
  -8  -8 -16   15.19    4.45
  -8  -8  16   23.81    4.92
  -8  -8  16   18.68    4.23
  -8   8 -16   16.52    5.17
  -8   8 -16   18.53    4.51
   8  -8 -16   24.57    4.78
   8  -8 -16   16.62    3.90
   8   8 -16   23.84    5.31
   8   8 -16   15.21    4.41
   8   8  16   28.33    5.47
   8   8  16   25.29    4.97
  -8  -8 -17   -1.56    4.81
  -8  -8 -17    2.02    4.05
  -8  -8  17    6.79    4.69
  -8  -8  17    9.33    3.94
  -8   8 -17    1.50    4.46
   8  -8 -17    1.57    4.61
   8  -8 -17    1.68    3.87
   8   8 -17   -0.05    4.91
   8   8 -17    0.32    4.23
   8   8  17   -2.48    5.01
  -8  -8 -18   -0.11    5.12
  -8  -8 -18   -3.53    4.16
  -8  -8  18   -2.23    4.55
  -8  -8  18    2.93    3.83
  -8   8 -18   -5.63    4.90
   8  -8 -18   -2.24    4.54
   8  -8 -18   -3.25    3.93
   8   8 -18   -1.44    4.97
   8   8 -18   -0.90    4.23
  -8 -10  -2  394.26    6.64
  -8 -10   2  372.26    6.48
  -8 -10   2  305.00    6.01
  -8  10  -2  307.52    4.20
  -8  10   2  355.09    4.00
   8  10  -2  324.80    6.42
   8  10   2  372.38    6.51
  -8 -10  -3  158.03    5.90
  -8 -10   3  109.77    5.10
  -8  10  -3  102.38    3.75
  -8  10   3  113.58    3.45
   8 -10   3  139.32    3.84
   8  10  -3  123.70    5.49
   8  10   3  150.32    5.50
  -8 -10  -4  860.33    9.34
  -8 -10  -4  934.22    9.02
  -8 -10   4  656.01    7.88
  -8  10  -4  688.59    6.19
  -8  10   4  669.59    5.73
   8 -10   4  768.28    6.48
   8  10  -4  711.49    8.41
   8  10   4  908.54    8.78
  -8 -10  -5  697.75    9.00
  -8 -10  -5  729.50    8.37
  -8 -10   5  561.96    7.71
  -8  10  -5  560.30    6.25
  -8  10  -5  764.09    5.53
  -8  10   5  491.65    5.33
  -8  10   5  630.92    4.62
   8 -10  -5  615.04    6.18
   8 -10   5  594.84    6.44
   8  10  -5  567.03    7.82
   8  10   5  753.13    8.54
  -8 -10  -6  660.22    9.06
  -8 -10  -6  723.14    8.63
  -8 -10   6  573.78    8.49
  -8 -10   6  527.67    7.73
  -8  10  -6  527.18    6.59
  -8  10  -6  748.38    6.32
  -8  10   6  577.11    5.31
   8 -10  -6  559.07    6.45
   8 -10   6  553.62    6.76
   8  10  -6  525.27    7.80
   8  10   6  688.46    9.09
   8  10   6  739.36    8.73
  -8 -10  -7  700.04    9.44
  -8 -10  -7  759.97    8.91
  -8 -10   7  655.13    9.07
  -8 -10   7  570.95    7.95
  -8  10  -7  586.74    7.39
  -8  10  -7  798.69    7.17
  -8  10   7  543.21    6.68
  -8  10   7  595.56    5.98
   8 -10  -7  592.80    6.97
   8 -10   7  598.04    7.42
   8  10  -7  612.43    8.45
   8  10   7  742.54    9.54
   8  10   7  840.04    9.54
  -8 -10  -8  296.89    7.70
  -8 -10  -8  325.54    7.52
  -8 -10   8  273.02    7.36
  -8 -10   8  256.49    7.03
  -8  10  -8  243.17    6.40
  -8  10  -8  326.23    6.19
  -8  10   8  238.10    5.74
  -8  10   8  259.52    5.27
   8 -10  -8  258.03    6.00
   8 -10   8  250.45    6.26
   8 -10   8  339.40    4.83
   8  10  -8  265.63    7.14
   8  10   8  320.08    7.87
   8  10   8  340.22    7.50
  -8 -10  -9    4.69    3.85
  -8 -10  -9    2.46    3.25
  -8 -10   9   -1.91    3.47
  -8 -10   9   -5.31    3.18
  -8  10  -9   -0.76    3.21
  -8  10  -9   -0.45    2.89
   8 -10  -9   -1.29    2.81
   8 -10  -9    3.28    2.15
   8 -10   9   -2.91    3.17
   8 -10   9    1.95    2.48
   8  10  -9   -1.46    3.31
   8  10   9    3.03    3.63
   8  10   9   -1.44    3.30
  -8 -10 -10  184.29    7.80
  -8 -10 -10  185.75    7.06
  -8 -10  10  154.28    7.43
  -8 -10  10  148.80    6.75
  -8  10 -10  155.68    6.79
  -8  10 -10  191.14    6.61
   8 -10 -10  170.64    6.30
   8 -10 -10  174.89    4.91
   8 -10  10  155.17    6.65
   8 -10  10  212.21    5.94
   8  10 -10  171.54    8.07
   8  10 -10  147.58    7.15
   8  10  10  207.08    7.89
   8  10  10  239.83    7.53
  -8 -10 -11  270.22    8.78
  -8 -10 -11  263.99    7.94
  -8 -10  11  250.02    8.35
  -8 -10  11  214.12    7.45
  -8  10 -11  235.37    7.84
  -8  10 -11  282.80    7.43
   8 -10 -11  240.02    7.09
   8 -10 -11  256.65    5.77
   8 -10  11  251.64    7.69
   8 -10  11  327.43    6.89
   8  10 -11  265.63    8.89
   8  10 -11  229.40    7.97
   8  10  11  318.63    9.05
   8  10  11  332.96    8.42
  -8 -10 -12  111.27    8.15
  -8 -10 -12  118.56    7.33
  -8 -10  12   96.22    7.70
  -8 -10  12   89.64    6.80
  -8  10 -12   98.08    7.17
  -8  10 -12  110.16    6.86
   8 -10 -12  100.20    6.67
   8 -10 -12  106.21    5.52
   8 -10  12  104.62    7.26
   8 -10  12  143.79    6.43
   8  10 -12  101.72    8.22
   8  10 -12   79.51    7.35
   8  10  12  123.60    8.02
   8  10  12  132.26    7.63
  -8 -10 -13    9.18    4.57
  -8 -10 -13    6.31    3.96
  -8 -10  13    2.42    4.20
  -8 -10  13    8.70    3.75
  -8  10 -13    8.89    4.31
  -8  10 -13    3.88    3.85
   8 -10 -13    8.63    3.84
   8 -10 -13    3.84    3.20
   8 -10  13    9.60    4.28
   8 -10  13    8.32    3.68
   8  10 -13    7.26    4.69
   8  10 -13    5.02    3.92
   8  10  13    6.06    4.67
   8  10  13    4.96    4.20
  -8 -10 -14   12.57    4.85
  -8 -10 -14   10.18    4.38
  -8 -10  14   14.49    4.63
  -8 -10  14   14.02    4.10
  -8  10 -14    8.68    4.51
  -8  10 -14   16.86    4.34
   8 -10 -14   16.70    4.33
   8 -10 -14   16.91    3.58
   8 -10  14   16.57    4.55
   8 -10  14   16.44    4.13
   8  10 -14   16.58    5.16
   8  10 -14    6.62    4.21
   8  10  14   14.22    5.14
   8  10  14   17.96    4.57
  -8 -10 -15   23.31    5.08
  -8 -10 -15   24.79    4.73
  -8 -10  15   26.45    4.84
  -8 -10  15   20.63    4.28
  -8  10 -15   36.98    5.42
  -8  10 -15   28.61    4.83
   8 -10 -15   31.34    4.75
   8 -10 -15   28.63    3.88
   8 -10  15   27.66    5.18
   8 -10  15   37.64    4.77
   8  10 -15   28.41    5.34
   8  10 -15   25.41    4.58
   8  10  15   33.70    5.53
  -8 -10 -16    3.71    4.93
  -8 -10 -16    7.44    4.22
  -8 -10  16    9.13    4.75
  -8 -10  16   10.60    3.97
  -8  10 -16    9.89    4.54
   8 -10 -16    5.73    4.48
   8 -10 -16    8.20    3.73
   8  10 -16   15.58    5.26
   8  10 -16   13.10    4.52
  -8 -10 -17   29.06    5.66
  -8 -10 -17   23.75    4.57
  -8 -10  17   28.76    5.25
  -8 -10  17   30.23    4.54
   8 -10 -17   27.86    5.09
   8 -10 -17   22.80    4.12
   8  10 -17   26.72    5.65
   8  10 -17   27.69    4.78
  -8 -12   0  235.21    5.80
  -8 -12   0  181.23    5.54
   8  12   0  206.10    5.80
  -8 -12  -1  277.71    6.16
  -8 -12  -1  220.71    6.05
  -8 -12   1  276.30    6.00
  -8 -12   1  200.00    5.61
   8  12  -1  213.70    5.83
   8  12   1  255.87    6.21
  -8 -12  -2   43.99    3.48
  -8 -12  -2   33.47    3.24
  -8 -12   2   40.79    4.88
  -8 -12   2   29.46    3.14
   8  12  -2   27.66    3.30
   8  12   2   39.56    3.32
  -8 -12  -3  368.55    6.87
  -8 -12   3  334.43    6.44
  -8 -12   3  256.36    6.30
  -8  12  -3  258.13    4.02
  -8  12   3  249.40    3.77
   8 -12   3  330.61    4.39
   8  12  -3  272.52    6.51
   8  12   3  356.34    6.69
  -8 -12  -4  632.88    8.71
  -8 -12  -4  678.57    8.22
  -8 -12   4  494.17    7.43
  -8  12  -4  488.85    5.34
  -8  12   4  490.12    5.03
   8 -12  -4  539.23    5.27
   8 -12   4  559.33    5.62
   8  12  -4  520.50    7.77
   8  12   4  696.50    8.31
  -8 -12  -5 1221.00   11.28
  -8 -12  -5 1266.00   10.35
  -8 -12   5  919.54    9.33
  -8  12  -5  887.74    7.09
  -8  12   5  907.47    6.80
   8 -12  -5  997.45    7.09
   8 -12   5  997.27    7.52
   8  12  -5  962.06    9.72
   8  12   5 1319.00   10.69
  -8 -12  -6 1043.00   10.87
  -8 -12  -6 1081.00   10.00
  -8 -12   6  932.71   10.46
  -8 -12   6  833.34    8.97
  -8  12  -6  820.91    7.61
  -8  12   6  780.71    6.94
   8 -12  -6  880.37    7.32
   8 -12   6  845.44    7.72
   8  12  -6  875.90    9.52
   8  12   6 1190.00   10.67
  -8 -12  -7  577.41    9.18
  -8 -12  -7  596.13    8.58
  -8 -12   7  516.11    8.82
  -8 -12   7  432.72    7.62
  -8  12  -7  431.41    6.67
  -8  12  -7  644.30    6.56
  -8  12   7  483.12    5.36
   8 -12  -7  473.03    6.53
   8 -12   7  481.55    6.78
   8  12  -7  481.26    8.19
   8  12   7  601.28    9.22
   8  12   7  609.00    8.80
  -8 -12  -8  269.50    7.82
  -8 -12  -8  300.74    7.40
  -8 -12   8  261.56    7.56
  -8 -12   8  236.83    6.88
  -8  12  -8  239.25    6.28
  -8  12  -8  321.56    6.02
   8 -12  -8  249.53    5.88
   8 -12   8  250.78    6.31
   8  12  -8  251.69    7.28
   8  12   8  329.45    8.00
   8  12   8  344.28    7.75
  -8 -12  -9   93.11    6.92
  -8 -12  -9  103.89    6.72
  -8 -12   9   94.82    6.72
  -8 -12   9   73.98    6.34
  -8  12  -9   76.02    5.85
  -8  12  -9  105.09    5.64
   8 -12  -9   90.02    5.38
   8 -12   9   85.09    5.80
   8 -12   9  124.42    4.24
   8  12  -9   65.27    6.56
   8  12   9  110.49    7.14
   8  12   9  111.52    6.63
  -8 -12 -10    3.26    4.08
  -8 -12 -10    0.57    3.56
  -8 -12  10   -4.65    3.86
  -8 -12  10    1.47    3.37
  -8  12 -10    0.37    3.45
  -8  12 -10    0.32    3.19
   8 -12 -10    5.54    3.22
   8 -12  10   -0.68    3.44
   8 -12  10   -0.15    2.58
   8  12 -10   -1.05    3.61
   8  12  10   -0.85    3.98
   8  12  10   -4.51    3.46
  -8 -12 -11   27.02    4.61
  -8 -12 -11   27.19    4.09
  -8 -12  11   25.23    4.44
  -8 -12  11   18.92    3.72
  -8  12 -11   22.09    4.09
  -8  12 -11   24.30    3.65
   8 -12 -11   25.43    3.75
   8 -12 -11   25.53    2.81
   8 -12  11   23.37    4.02
   8 -12  11   35.78    3.44
   8  12 -11   27.55    4.89
   8  12 -11   22.41    4.29
   8  12  11   29.88    4.66
   8  12  11   31.55    4.23
  -8 -12 -12   37.85    5.17
  -8 -12 -12   36.72    4.40
  -8 -12  12   27.32    4.56
  -8 -12  12   28.34    4.00
  -8  12 -12   29.18    4.39
  -8  12 -12   34.75    4.07
   8 -12 -12   38.86    4.15
   8 -12 -12   41.04    4.87
   8 -12  12   35.69    4.40
   8 -12  12   54.32    5.83
   8  12 -12   38.91    5.13
   8  12 -12   28.23    4.30
   8  12  12   49.88    5.38
   8  12  12   44.89    4.69
  -8 -12 -13   24.16    4.97
  -8 -12 -13   21.36    4.24
  -8 -12  13   22.07    4.66
  -8 -12  13   23.19    4.19
  -8  12 -13   25.57    4.63
  -8  12 -13   29.24    4.44
   8 -12 -13   25.78    4.27
   8 -12 -13   24.78    3.21
   8 -12  13   21.71    4.56
   8 -12  13   29.37    3.97
   8  12 -13   29.09    5.21
   8  12 -13   23.68    4.52
   8  12  13   30.11    5.16
  -8 -12 -14    1.82    4.53
  -8 -12 -14   -2.58    4.28
  -8 -12  14    5.55    4.57
  -8 -12  14   -2.63    3.94
  -8  12 -14    5.78    4.47
  -8  12 -14    2.07    4.13
   8 -12 -14   -1.78    3.92
   8 -12 -14    3.31    3.18
   8 -12  14    1.27    4.49
   8 -12  14    6.67    3.81
   8  12 -14    1.62    5.00
   8  12 -14   -0.36    4.31
  -8 -12 -15   94.21    8.68
  -8 -12 -15   77.94    7.64
  -8 -12  15   96.75    8.33
  -8 -12  15   72.95    7.09
  -8  12 -15  104.57    9.55
  -8  12 -15   93.53    7.99
   8 -12 -15   95.95    7.54
   8 -12 -15   95.88    6.04
   8  12 -15   96.70    9.24
   8  12 -15   70.18    8.05
  -8 -12 -16   76.58    8.72
  -8 -12 -16   80.75    7.74
  -8 -12  16   71.85    8.54
  -8 -12  16   63.91    7.17
   8 -12 -16   89.31    7.84
   8 -12 -16   91.49    6.36
   8  12 -16   85.32    9.60
   8  12 -16   74.61    8.46
  -8 -12 -17  205.23   10.03
  -8 -12 -17  178.72    8.94
   8 -12 -17  203.84    8.87
   8 -12 -17  177.97    7.53
   8  12 -17  220.26   10.81
   8  12 -17  180.32    9.42
  -8 -14   0  135.43    5.53
  -8 -14   0   92.64    5.36
   8  14   0  122.32    5.44
   8  14   0  103.23    5.47
  -8 -14  -1   10.78    3.02
  -8 -14  -1    6.38    2.94
  -8 -14   1   11.65    3.13
  -8 -14   1    2.45    2.81
   8  14  -1    5.35    3.11
   8  14   1   12.22    2.93
  -8 -14  -2  100.82    5.49
  -8 -14  -2   77.62    5.25
  -8 -14   2   94.90    5.23
  -8 -14   2   68.41    5.18
   8  14  -2   64.05    5.87
   8  14   2  105.12    5.49
  -8 -14  -3  493.22    7.55
  -8 -14  -3  394.73    6.99
  -8 -14   3  433.39    7.03
  -8 -14   3  329.89    6.62
   8 -14   3  419.42    4.47
   8  14  -3  351.63    7.09
   8  14   3  474.72    7.52
  -8 -14  -4  819.13    9.86
  -8 -14  -4  830.51    8.77
  -8 -14   4  833.29    8.71
  -8 -14   4  633.11    8.03
  -8  14  -4  588.81    5.56
  -8  14   4  601.55    5.07
   8 -14  -4  715.83    5.49
   8 -14   4  689.63    5.87
   8  14  -4  662.39    8.84
   8  14   4  893.36    9.34
  -8 -14  -5  991.82   10.67
  -8 -14  -5 1062.00    9.84
  -8 -14   5  808.92    9.05
  -8  14  -5  742.47    6.70
  -8  14   5  728.01    6.11
   8 -14  -5  862.81    6.53
   8 -14   5  854.54    7.03
   8  14  -5  813.02    9.42
   8  14   5 1136.00   10.34
  -8 -14  -6 1198.00   11.81
  -8 -14  -6 1270.00   10.76
  -8 -14   6 1154.00   11.67
  -8 -14   6  973.51    9.88
  -8  14  -6  932.68    7.92
  -8  14   6  959.32    7.44
   8 -14  -6 1022.00    7.64
   8 -14   6 1002.00    8.02
   8  14  -6  997.95   10.26
   8  14   6 1360.00   11.41
  -8 -14  -7  988.32   11.31
  -8 -14  -7  939.75    9.81
  -8 -14   7  883.22   10.74
  -8 -14   7  763.72    9.29
  -8  14  -7  756.11    7.98
  -8  14  -7 1063.00    7.51
  -8  14   7  825.64    6.00
   8 -14  -7  823.62    7.64
   8 -14   7  747.67    7.92
   8  14  -7  782.55    9.78
   8  14   7 1021.00   11.27
   8  14   7 1068.00   10.81
  -8 -14  -8  288.64    8.19
  -8 -14  -8  292.95    7.41
  -8 -14   8  286.28    8.03
  -8 -14   8  241.74    7.21
  -8  14  -8  231.26    6.31
  -8  14  -8  320.77    5.98
   8 -14  -8  250.90    5.88
   8 -14   8  246.30    6.22
   8  14  -8  249.76    7.59
   8  14   8  325.95    8.26
   8  14   8  342.32    8.15
  -8 -14  -9    9.72    4.07
  -8 -14  -9    6.77    3.45
  -8 -14   9   10.68    3.96
  -8 -14   9    6.95    3.51
  -8  14  -9    6.24    3.36
  -8  14  -9   10.32    3.05
   8 -14  -9   10.26    3.05
   8 -14   9    8.83    3.35
   8  14  -9    6.37    3.69
   8  14   9   12.95    4.11
   8  14   9    7.37    3.63
  -8 -14 -10    2.52    4.10
  -8 -14 -10    3.75    3.60
  -8 -14  10    4.26    3.88
  -8 -14  10    8.68    3.53
  -8  14 -10    2.21    3.47
  -8  14 -10    4.07    3.21
   8 -14 -10    1.30    3.13
   8 -14  10   -0.86    3.37
   8  14 -10    3.34    3.72
   8  14  10    8.35    4.30
   8  14  10    7.92    6.26
  -8 -14 -11   22.84    4.70
  -8 -14 -11   14.43    4.02
  -8 -14  11   19.22    4.57
  -8 -14  11   17.81    3.76
  -8  14 -11   13.14    3.96
  -8  14 -11   14.46    3.56
   8 -14 -11   18.70    3.71
   8 -14  11   12.67    3.80
   8 -14  11   25.92    3.11
   8  14 -11   14.39    4.14
   8  14  11   26.89    4.75
  -8 -14 -12    8.22    4.61
  -8 -14 -12    5.75    3.94
  -8 -14  12    8.60    4.30
  -8 -14  12    8.05    3.72
  -8  14 -12    4.39    4.06
  -8  14 -12    7.86    3.74
   8 -14 -12    7.72    3.72
   8 -14 -12    9.06    2.63
   8 -14  12    8.61    3.99
   8 -14  12   11.64    3.37
   8  14 -12    6.32    4.91
   8  14 -12    9.44    4.26
  -8 -14 -13    7.01    4.93
  -8 -14 -13    0.21    3.96
  -8 -14  13   -4.12    4.37
  -8 -14  13    4.02    3.95
  -8  14 -13    1.92    4.35
  -8  14 -13   -6.75    3.71
   8 -14 -13    3.90    3.73
   8 -14 -13    2.49    2.80
   8 -14  13    0.81    4.24
   8 -14  13    3.33    3.52
   8  14 -13   -0.02    4.80
   8  14 -13   -0.36    4.41
  -8 -14 -14   39.46    5.56
  -8 -14 -14   35.41    4.65
  -8 -14  14   33.67    5.22
  -8 -14  14   29.10    4.37
  -8  14 -14   41.20    5.13
  -8  14 -14   36.81    4.66
   8 -14 -14   57.83    6.89
   8 -14 -14   53.01    5.32
   8 -14  14   63.14    6.58
   8  14 -14   40.47    5.75
   8  14 -14   30.82    4.89
  -8 -14 -15   90.13    8.49
  -8 -14 -15  100.77    7.98
  -8 -14  15   87.91    8.51
  -8 -14  15   67.39    7.04
   8 -14 -15  105.44    7.37
   8 -14 -15  107.14    5.71
   8  14 -15  102.80    9.61
   8  14 -15   67.31    8.38
  -8 -14 -16  262.52   10.15
  -8 -14 -16  254.68    9.01
   8 -14 -16  261.23    8.83
   8 -14 -16  252.92    6.89
   8  14 -16  277.03   11.57
   8  14 -16  235.93    9.83
  -8 -16   0  164.37    6.06
  -8 -16   0  115.32    5.58
   8  16   0  136.82    5.81
   8  16   0  128.29    5.80
  -8 -16  -1  251.15    6.51
  -8 -16  -1  174.95    5.90
  -8 -16   1  240.57    6.29
  -8 -16   1  173.14    5.86
   8  16  -1  235.93    6.58
   8  16  -1  193.51    6.66
   8  16   1  234.35    6.42
  -8 -16  -2    3.07    3.10
  -8 -16  -2   -2.15    3.02
  -8 -16   2    5.02    3.00
  -8 -16   2   -3.46    2.84
   8  16  -2   -1.22    3.17
   8  16   2   -0.78    3.07
  -8 -16  -3   62.55    5.58
  -8 -16  -3   46.65    5.51
  -8 -16   3   57.38    5.34
  -8 -16   3   39.31    3.60
   8  16  -3   45.26    4.00
   8  16   3   74.96    5.72
  -8 -16  -4  236.12    7.40
  -8 -16  -4  256.99    6.68
  -8 -16  -4  209.10    6.34
  -8 -16   4  254.25    6.53
  -8 -16   4  168.10    6.23
  -8  16  -4  178.09    4.00
   8 -16   4  209.07    4.25
   8  16  -4  188.77    6.68
   8  16   4  273.48    6.94
  -8 -16  -5  486.02    8.80
  -8 -16  -5  542.54    8.11
  -8 -16   5  557.10    7.95
  -8 -16   5  402.32    7.46
  -8  16  -5  391.46    5.39
   8 -16  -5  447.75    5.13
   8 -16   5  434.82    5.59
   8  16  -5  412.85    8.00
   8  16   5  592.87    8.74
  -8 -16  -6  703.73   10.14
  -8 -16  -6  686.33    8.91
  -8 -16   6  524.39    8.36
  -8  16  -6  519.02    6.43
   8 -16  -6  583.84    6.16
   8 -16   6  552.68    6.64
   8  16  -6  544.72    8.89
   8  16   6  759.25    9.68
  -8 -16  -7  687.59   10.17
  -8 -16  -7  683.35    9.01
  -8 -16   7  605.93    9.73
  -8 -16   7  536.12    8.57
  -8  16  -7  527.21    7.06
  -8  16  -7  753.05    6.48
   8 -16  -7  576.95    6.68
   8 -16   7  590.52    7.36
   8  16  -7  583.51    9.43
   8  16   7  802.89   12.03
  -8 -16  -8  424.37    9.25
  -8 -16  -8  410.82    8.24
  -8 -16   8  393.90    9.11
  -8 -16   8  342.65    7.99
  -8  16  -8  318.54    6.72
  -8  16  -8  440.19    6.28
   8 -16  -8  361.13    6.39
   8 -16   8  330.59    6.73
   8  16  -8  348.52    8.50
   8  16   8  464.68    9.48
  -8 -16  -9   45.32    4.72
  -8 -16  -9   39.83    4.22
  -8 -16   9   50.32    4.83
  -8 -16   9   34.73    3.96
  -8  16  -9   54.16    5.63
  -8  16  -9   57.81    5.21
   8 -16  -9   48.08    5.31
   8 -16   9   32.46    3.67
   8  16  -9   35.23    4.28
  -8 -16 -10   63.77    7.43
  -8 -16 -10   69.41    7.08
  -8 -16  10   59.44    7.36
  -8 -16  10   51.32    6.21
  -8  16 -10   58.44    6.03
  -8  16 -10   71.62    5.85
   8 -16 -10   54.82    5.69
   8 -16  10   57.08    6.08
   8  16 -10   63.29    7.15
  -8 -16 -11  163.58    8.59
  -8 -16 -11  153.16    7.37
  -8 -16  11  161.92    8.55
  -8 -16  11  137.54    7.07
  -8  16 -11  147.94    7.16
  -8  16 -11  183.61    6.85
   8 -16 -11  126.18    6.45
   8 -16  11  144.95    7.16
   8  16 -11  153.03    8.50
  -8 -16 -12   57.03    5.64
  -8 -16 -12   44.31    4.56
  -8 -16  12   64.14    7.84
  -8 -16  12   58.36    7.01
  -8  16 -12   46.44    4.74
  -8  16 -12   48.14    4.43
   8 -16 -12   52.15    6.36
   8 -16  12   57.66    6.97
   8 -16  12   74.61    5.23
   8  16 -12   47.74    5.13
  -8 -16 -13   -3.72    4.58
  -8 -16 -13    1.61    4.04
  -8 -16  13    0.49    4.60
  -8 -16  13    3.28    3.91
  -8  16 -13   -5.28    4.23
  -8  16 -13   -4.60    3.95
   8 -16 -13   -1.71    3.76
   8 -16  13    0.36    4.38
   8 -16  13   -2.11    3.38
   8  16 -13   -2.17    5.05
   8  16 -13   -0.21    4.34
  -8 -16 -14   -4.16    4.52
  -8 -16 -14    2.42    3.95
  -8 -16  14   -1.24    4.55
   8 -16 -14    1.63    3.89
   8 -16 -14   -1.35    2.74
   8 -16  14   -4.76    3.47
   8  16 -14   -2.89    5.00
   8  16 -14   -4.31    4.34
  -8 -16 -15   33.42    5.33
  -8 -16 -15   22.96    4.33
   8 -16 -15   27.59    4.39
   8 -16 -15   27.31    3.21
   8  16 -15   24.64    5.82
   8  16 -15   17.87    4.88
  -8 -18   0 1340.00   10.52
  -8 -18   0  954.12    9.36
   8  18   0 1248.00   10.97
   8  18   0 1008.00   10.06
  -8 -18  -1  725.90    8.67
  -8 -18  -1  534.19    7.98
  -8 -18   1  738.52    8.67
  -8 -18   1  527.40    7.75
   8  18  -1  627.35    8.90
   8  18  -1  574.90    8.84
   8  18   1  669.30    8.94
   8  18   1  550.83    8.37
  -8 -18  -2  386.86    7.51
  -8 -18  -2  298.21    6.80
  -8 -18   2  423.90    7.26
  -8 -18   2  292.86    6.76
   8  18  -2  313.95    7.44
   8  18   2  389.76    8.52
  -8 -18  -3   50.55    3.96
  -8 -18  -3   39.70    3.85
  -8 -18   3   60.02    5.61
  -8 -18   3   35.49    3.59
   8  18  -3   38.58    4.11
  -8 -18  -4   21.37    4.15
  -8 -18  -4   13.44    3.42
  -8 -18  -4   11.92    3.53
  -8 -18   4   15.90    3.31
  -8 -18   4    8.15    3.14
   8  18  -4    8.30    3.54
  -8 -18  -5  112.23    6.95
  -8 -18  -5  111.43    6.29
  -8 -18  -5   95.84    6.11
  -8 -18   5  118.06    6.18
  -8 -18   5   74.41    6.11
  -8  18  -5   83.16    4.03
   8 -18   5   93.12    4.22
   8  18  -5   85.79    6.42
  -8 -18  -6  213.89    7.88
  -8 -18  -6  204.92    6.89
  -8 -18   6  214.64    6.81
  -8 -18   6  166.68    6.64
  -8  18  -6  155.94    4.88
   8 -18  -6  178.52    4.65
   8 -18   6  174.15    5.05
   8  18  -6  161.02    6.99
  -8 -18  -7  282.96    8.52
  -8 -18  -7  274.58    7.46
  -8 -18   7  239.91    7.99
  -8 -18   7  216.64    7.19
  -8  18  -7  201.25    5.55
   8 -18  -7  227.36    5.31
   8 -18   7  223.66    5.82
   8  18  -7  231.42    7.98
  -8 -18  -8  176.47    7.85
  -8 -18  -8  183.80    7.16
  -8 -18   8  168.56    7.82
  -8 -18   8  150.47    6.93
  -8  18  -8  142.23    5.69
  -8  18  -8  191.29    5.33
   8 -18  -8  166.40    5.49
   8 -18   8  148.27    5.91
   8  18  -8  155.46    7.70
  -8 -18  -9   16.16    4.60
  -8 -18  -9    7.77    3.75
  -8 -18   9    9.47    4.40
  -8 -18   9    6.64    3.58
  -8  18  -9    6.34    3.24
  -8  18  -9   13.70    3.03
   8 -18  -9   10.01    3.07
   8 -18   9   11.56    3.57
   8  18  -9    8.15    4.00
  -8 -18 -10   57.98    5.35
  -8 -18 -10   59.14    6.96
  -8 -18  10   65.14    7.77
  -8 -18  10   54.05    6.60
  -8  18 -10   55.50    6.11
  -8  18 -10   72.97    5.92
   8 -18 -10   41.41    3.79
   8 -18  10   56.49    6.15
   8  18 -10   48.63    4.99
  -8 -18 -11  306.94    9.64
  -8 -18 -11  258.89    8.15
  -8 -18  11  273.34    9.58
  -8 -18  11  248.24    8.08
  -8  18 -11  249.84    7.83
  -8  18 -11  307.31    7.65
   8 -18 -11  231.58    7.27
   8 -18  11  252.46    7.82
   8  18 -11  243.53    9.03
  -8 -18 -12  341.02   10.33
  -8 -18 -12  309.15    8.68
  -8 -18  12  305.57    9.98
  -8 -18  12  272.59    8.52
  -8  18 -12  303.17    8.65
  -8  18 -12  322.79    8.28
   8 -18 -12  269.54    7.81
   8 -18  12  290.61    8.51
   8  18 -12  286.45    9.54
  -8 -18 -13  150.78    8.89
  -8 -18 -13  134.05    7.68
   8 -18 -13  120.93    7.09
   8 -18  13  177.19    5.47
   8  18 -13  150.80    9.08
  -8 -18 -14   43.50    5.63
  -8 -18 -14   34.48    4.51
   8 -18 -14   40.04    4.54
   8 -18  14   52.86    5.71
   8  18 -14   28.34    5.01
  -8 -18 -15    8.30    4.95
  -8 -18 -15   10.05    4.02
   8 -18 -15   12.41    4.17
   8 -18 -15    9.05    2.76
   8  18 -15    3.84    4.82
  -8 -20   0 1762.00   11.93
  -8 -20   0 1272.00   10.70
   8  20   0 1359.00   11.99
  -8 -20  -1 1602.00   11.52
  -8 -20  -1 1143.00   10.30
  -8 -20   1 1145.00   10.27
   8  20  -1 1187.00   11.35
   8  20   1 1213.00   11.37
  -8 -20  -2  407.64    7.60
  -8 -20  -2  313.71    7.33
  -8 -20   2  458.36    7.75
  -8 -20   2  311.13    6.97
   8  20  -2  343.94    8.20
  -8 -20  -3   27.97    3.87
  -8 -20  -3   23.10    3.65
  -8 -20   3   31.98    3.67
  -8 -20   3   25.00    3.45
   8  20  -3   30.21    4.14
  -8 -20  -4    4.58    3.98
  -8 -20  -4   -4.33    3.30
  -8 -20  -4   -5.95    3.41
  -8 -20   4   -1.70    3.20
  -8 -20   4   -1.62    3.13
   8  20  -4   -1.84    3.62
  -8 -20  -5   35.27    4.38
  -8 -20  -5   31.82    3.80
  -8 -20  -5   31.43    3.90
  -8 -20   5   39.88    3.81
  -8 -20   5   26.55    3.65
  -8  20  -5   31.84    3.88
   8 -20   5   29.15    2.67
   8  20  -5   27.41    4.08
  -8 -20  -6   75.36    7.33
  -8 -20  -6   74.53    6.51
  -8 -20  -6   61.04    6.09
  -8 -20   6   85.60    6.23
  -8 -20   6   60.57    6.30
  -8  20  -6   64.98    4.38
   8 -20  -6   63.66    4.10
   8 -20   6   58.93    4.55
   8  20  -6   55.57    6.56
  -8 -20  -7   23.35    4.46
  -8 -20  -7   23.66    3.81
  -8 -20   7   13.65    4.41
  -8 -20   7   25.84    3.81
  -8 -20   7   18.31    3.73
  -8  20  -7   17.73    2.99
   8 -20  -7   19.99    2.87
   8 -20   7   17.90    3.09
   8  20  -7   21.20    4.35
  -8 -20  -8    6.39    4.16
  -8 -20  -8    6.95    3.64
  -8 -20   8    2.79    4.22
  -8 -20   8   -1.19    3.48
  -8  20  -8    3.56    3.14
  -8  20  -8    5.52    2.65
   8 -20  -8    2.78    2.87
   8 -20   8    3.64    3.16
   8  20  -8   -1.10    4.00
  -8 -20  -9   62.34    7.70
  -8 -20  -9   76.15    6.96
  -8 -20   9   48.25    5.40
  -8 -20   9   42.26    4.30
  -8  20  -9   59.09    5.79
  -8  20  -9   77.86    5.31
   8 -20  -9   68.73    5.43
   8 -20   9   58.08    5.94
   8  20  -9   56.54    5.36
  -8 -20 -10  190.83    8.77
  -8 -20 -10  191.76    7.60
  -8 -20  10  170.53    8.75
  -8 -20  10  149.46    7.42
  -8  20 -10  166.89    6.87
  -8  20 -10  212.47    6.60
   8 -20 -10  153.84    6.34
   8 -20  10  179.66    7.14
   8  20 -10  160.66    8.50
  -8 -20 -11  267.14    9.58
  -8 -20 -11  245.24    7.95
  -8 -20  11  246.47   11.21
  -8  20 -11  226.38    7.69
  -8  20 -11  264.91    7.40
   8 -20 -11  218.59    7.04
   8 -20  11  226.75    7.71
   8  20 -11  230.20    9.58
  -8 -20 -12  238.08    9.41
  -8 -20 -12  231.99    8.08
   8 -20 -12  195.62    7.22
   8  20 -12  224.66    9.80
  -8 -20 -13  232.51    9.58
  -8 -20 -13  197.79    7.98
   8 -20 -13  175.40    7.31
   8  20 -13  205.62    9.46
  -8 -20 -14  122.69    8.95
  -8 -20 -14  102.50    7.44
   8 -20 -14  112.59    7.22
   8  20 -14  117.22    9.03
  -8 -22   0 1031.00    9.89
  -8 -22   0  704.89    8.76
   8  22   0  750.29   10.17
  -8 -22  -1  436.95    7.86
  -8 -22  -1  310.63    7.14
  -8 -22   1  442.63    7.95
  -8 -22   1  285.40    6.93
   8  22  -1  325.63    8.33
   8  22   1  316.43    7.99
  -8 -22  -2  118.69    6.46
  -8 -22  -2   82.27    6.02
  -8 -22   2  127.42    6.57
  -8 -22   2   83.38    5.93
   8  22  -2   92.88    7.04
  -8 -22  -3    9.59    3.49
  -8 -22  -3   11.35    3.49
  -8 -22   3   14.51    3.62
  -8 -22   3    8.73    3.28
   8  22  -3   10.24    3.84
  -8 -22  -4    3.83    4.19
  -8 -22  -4   -2.27    3.29
  -8 -22  -4   -5.84    3.28
  -8 -22   4    0.16    3.30
  -8 -22   4   -3.26    3.22
   8  22  -4   -3.23    3.88
  -8 -22  -5   11.51    4.15
  -8 -22  -5    6.84    3.45
  -8 -22  -5    2.44    3.68
  -8 -22   5   14.34    3.55
  -8 -22   5    7.07    3.37
   8  22  -5    6.39    4.07
  -8 -22  -6   25.31    4.66
  -8 -22  -6   18.50    3.72
  -8 -22  -6   18.23    3.96
  -8 -22   6   31.16    3.92
  -8 -22   6   14.82    3.72
  -8  22  -6   15.21    2.79
   8 -22   6   11.51    2.86
   8  22  -6    9.07    4.04
  -8 -22  -7   18.85    4.45
  -8 -22  -7   17.23    3.78
  -8 -22  -7   14.14    3.86
  -8 -22   7   11.24    4.44
  -8 -22   7   15.17    3.80
  -8 -22   7    9.67    3.67
  -8  22  -7    8.61    2.96
   8 -22  -7   10.87    2.74
   8 -22   7   10.97    3.19
   8  22  -7    9.81    4.41
  -8 -22  -8    3.20    4.39
  -8 -22  -8   -0.13    3.64
  -8 -22  -8   -1.94    3.76
  -8 -22   8  -12.47    4.42
  -8 -22   8    0.81    3.68
  -8 -22   8   -8.50    3.46
  -8  22  -8   -0.35    3.07
  -8  22  -8   -3.97    2.56
   8 -22  -8   -1.13    2.89
   8 -22   8   -1.93    3.22
   8  22  -8   -7.42    4.21
  -8 -22  -9  127.22    8.31
  -8 -22  -9  117.68    6.83
  -8 -22   9   95.26    8.59
  -8  22  -9  118.50    6.09
  -8  22  -9  130.69    5.59
   8 -22  -9  100.76    5.52
   8 -22   9  111.83    6.34
   8  22  -9   77.74    8.15
  -8 -22 -10  301.35    9.49
  -8 -22 -10  263.38    7.64
  -8  22 -10  262.91    7.30
  -8  22 -10  296.92    6.80
   8 -22 -10  252.89    6.65
   8 -22  10  252.94    7.37
   8  22 -10  239.09    9.58
  -8 -22 -11  261.01    9.42
  -8 -22 -11  235.94    7.85
  -8  22 -11  230.28    9.35
   8 -22 -11  216.64    6.80
   8 -22  11  242.35    9.61
   8  22 -11  226.37    9.56
  -8 -22 -12  162.62    9.10
  -8 -22 -12  146.18    7.29
   8 -22 -12  141.17    6.75
   8  22 -12  131.88    9.38
  -8 -24   0    8.00    3.48
  -8 -24   0    4.25    3.29
   8  24   0    5.56    4.00
  -8 -24  -1   56.74    6.29
  -8 -24  -1   32.83    3.76
  -8 -24   1   60.18    6.31
  -8 -24   1   35.93    3.77
   8  24  -1   43.33    4.69
   8  24   1   35.58    4.56
  -8 -24  -2   94.63    6.36
  -8 -24  -2   70.61    6.01
  -8 -24   2   99.30    6.63
  -8 -24   2   63.73    5.98
   8  24  -2   81.88    7.39
  -8 -24  -3    1.57    3.40
  -8 -24  -3    1.06    3.37
  -8 -24   3    0.98    3.58
  -8 -24   3   -1.59    3.37
   8  24  -3    0.10    4.04
  -8 -24  -4   74.81    7.68
  -8 -24  -4   84.02    6.34
  -8 -24  -4   67.38    6.38
  -8 -24   4   93.99    6.59
  -8 -24   4   58.82    6.11
   8  24  -4   60.32    7.49
  -8 -24  -5  192.82    8.32
  -8 -24  -5  176.45    6.90
  -8 -24  -5  147.54    6.79
  -8 -24   5  206.46    7.03
  -8 -24   5  138.23    6.74
   8  24  -5  158.70    8.10
  -8 -24  -6  131.07    8.06
  -8 -24  -6  115.41    6.70
  -8 -24  -6  103.17    6.93
  -8 -24   6  149.57    6.89
  -8 -24   6   87.23    6.45
  -8  24  -6   93.59    4.77
   8 -24   6   92.67    5.00
   8  24  -6  103.67    8.09
  -8 -24  -7   51.18    5.08
  -8 -24  -7   59.29    6.47
  -8 -24  -7   45.64    5.03
  -8 -24   7   61.31    6.36
  -8  24  -7   41.35    4.85
   8 -24  -7   36.30    4.47
   8 -24   7   33.79    3.48
   8  24  -7   42.40    5.07
  -8 -24  -8   22.84    4.74
  -8 -24  -8   16.40    3.71
  -8 -24   8   14.49    3.82
  -8  24  -8    8.81    3.17
   8 -24  -8   12.34    2.94
   8 -24   8   15.39    3.49
   8  24  -8   11.53    4.78
  -8 -24  -9   -5.28    4.35
  -8 -24  -9   -1.32    3.42
  -8 -24   9   -0.25    3.61
  -8  24  -9   -0.81    3.31
  -8  24  -9    1.80    2.88
   8 -24  -9   -2.07    2.88
   8 -24   9   -0.37    3.41
   8  24  -9   -9.66    4.41
  -8 -24 -10   42.27    5.41
  -8 -24 -10   33.29    3.99
  -8  24 -10   34.06    4.06
   8 -24 -10   35.77    3.56
   8 -24  10   35.76    4.15
  -8 -24 -11  179.04    8.87
  -8 -24 -11  150.14    7.23
   8 -24 -11  152.45    6.36
  -8 -26   0  511.10    8.14
  -8 -26   0  359.33    7.46
   8  26   0  413.80    9.60
  -8 -26  -1   77.59    6.26
  -8 -26  -1   50.76    5.92
  -8 -26   1   80.59    6.48
  -8 -26   1   54.38    5.94
   8  26  -1   54.37    5.18
   8  26   1   62.25    7.34
  -8 -26  -2   38.22    3.92
  -8 -26  -2   29.49    3.78
  -8 -26   2   43.65    4.23
  -8 -26   2   25.81    3.72
   8  26  -2   34.12    4.80
   8  26   2   33.41    4.75
  -8 -26  -3  200.33    6.75
  -8 -26  -3  178.38    6.85
  -8 -26   3  254.81    7.58
  -8 -26   3  173.67    6.73
   8  26  -3  179.44    8.43
  -8 -26  -4  289.74    9.06
  -8 -26  -4  282.04    7.17
  -8 -26  -4  230.55    7.11
  -8 -26   4  322.77    7.63
  -8 -26   4  214.06    7.79
   8  26  -4  244.66    8.94
  -8 -26  -5  327.93    9.28
  -8 -26  -5  304.82    7.44
  -8 -26   5  383.37    8.03
   8  26  -5  282.18    9.14
  -8 -26  -6  354.13    9.49
  -8 -26  -6  316.78    7.59
  -8 -26   6  398.46    7.84
  -8  26  -6  309.74    5.77
   8 -26   6  294.26    5.72
  -8 -26  -7  293.62    9.20
  -8 -26  -7  281.33    7.46
  -8 -26   7  362.36    7.92
  -8  26  -7  282.40    6.04
   8 -26  -7  223.22    5.26
   8 -26   7  262.59    6.14
  -8 -26  -8  123.25    8.18
  -8 -26  -8  116.23    6.62
  -8 -26   8  153.32    6.92
  -8  26  -8  117.06    5.67
   8 -26  -8   80.75    5.01
   8 -26   8  103.42    5.88
  -8 -26  -9    3.73    4.36
  -8 -26  -9   -0.43    3.54
  -8 -26   9   -1.01    3.68
  -8  26  -9    2.48    3.26
   8 -26  -9   -3.16    2.89
   8 -26   9    1.46    3.41
  -8 -28   0   85.42    6.02
  -8 -28  -1   92.85    5.93
  -8 -28   1   95.22    6.30
  -8 -28  -3   95.92    6.19
  -8 -28   3  106.94    6.65
  -8 -28  -4  281.57    9.17
  -8 -28  -4  272.78    7.02
  -8 -28   4  328.59    7.93
  -8 -28  -5  345.66    9.41
  -8 -28  -5  339.12    7.38
  -8 -28   5  407.93    8.10
  -8 -28  -6  375.73    9.85
  -8 -28  -6  330.81    7.26
  -8 -28   6  422.83    8.19
  -8 -28  -7  260.04    9.20
  -8 -28  -7  228.74    6.89
  -8 -28   7  296.62    7.51
  -8  28  -7  227.83    6.01
   8 -28   7  211.17    5.82
  -8 -30   0   68.73    5.68
  -8 -30  -1   24.49    3.39
  -8 -30   1   27.56    3.58
  -8 -30  -2   15.34    3.38
  -8 -30   2   19.36    3.59
  -9  -1   2   10.57    2.40
  -9   1  -2   17.46    2.34
  -9  -1  -3   63.38    4.54
  -9  -1  -3   79.42    4.43
  -9  -1   3   58.78    4.07
  -9   1  -3   66.78    4.31
  -9   1  -3   76.37    4.07
  -9   1   3   56.28    3.88
   9   1   3   79.74    4.30
  -9  -1  -4   44.04    4.69
  -9  -1  -4   47.71    4.47
  -9  -1   4   31.39    2.75
  -9   1  -4   42.59    4.35
  -9   1  -4   43.91    4.17
  -9   1   4   35.06    3.93
   9  -1   4   42.19    4.52
   9  -1   4   53.98    4.07
   9   1  -4   35.53    4.07
   9   1   4   45.69    4.27
  -9  -1  -5   47.94    4.87
  -9  -1  -5   58.76    4.98
  -9  -1   5   31.39    3.16
  -9  -1   5   30.97    2.86
  -9   1  -5   48.32    4.68
  -9   1  -5   50.06    4.62
  -9   1   5   34.46    4.27
  -9   1   5   39.62    4.08
   9  -1  -5   32.36    3.90
   9  -1   5   39.63    4.72
   9  -1   5   57.70    4.29
   9   1  -5   31.77    2.98
   9   1   5   43.01    4.85
   9   1   5   51.57    4.67
  -9  -1  -6  417.31    7.23
  -9  -1  -6  535.49    7.37
  -9  -1   6  392.67    7.02
  -9  -1   6  362.10    6.35
  -9   1  -6  438.11    7.25
  -9   1  -6  522.99    7.16
  -9   1   6  391.38    6.60
  -9   1   6  371.25    6.05
   9  -1  -6  411.50    6.08
   9  -1   6  476.27    7.34
   9  -1   6  524.64    6.71
   9   1  -6  382.71    6.45
   9   1   6  457.36    7.57
   9   1   6  535.90    7.13
  -9  -1  -7 1155.00   10.66
  -9  -1  -7 1334.00   10.47
  -9  -1   7 1013.00    9.80
  -9  -1   7  965.06    8.88
  -9   1  -7 1074.00   10.17
  -9   1  -7 1357.00   10.23
  -9   1   7 1007.00    9.50
  -9   1   7  941.60    8.51
   9  -1  -7 1138.00   10.23
   9  -1  -7 1052.00    8.56
   9  -1   7 1213.00   10.64
   9  -1   7 1365.00    9.83
   9   1  -7 1012.00    8.97
   9   1   7 1175.00   10.77
   9   1   7 1446.00   10.62
  -9  -1  -8 1033.00   10.64
  -9  -1  -8 1268.00   10.83
  -9  -1   8  988.81   10.01
  -9  -1   8  907.92    8.96
  -9   1  -8  995.73   10.36
  -9   1  -8 1245.00   10.35
  -9   1   8  918.25    9.57
  -9   1   8  910.83    8.75
   9  -1  -8 1084.00   10.42
   9  -1  -8  959.10    8.68
   9  -1   8 1113.00   10.77
   9  -1   8 1299.00   10.17
   9   1  -8 1070.00   10.54
   9   1  -8  955.81    8.89
   9   1   8 1140.00   11.09
   9   1   8 1300.00   10.48
  -9  -1  -9  389.41    8.20
  -9  -1  -9  481.20    8.40
  -9  -1   9  383.16    7.63
  -9  -1   9  337.07    6.79
  -9   1  -9  389.20    8.19
  -9   1  -9  477.20    8.23
  -9   1   9  393.46    7.58
  -9   1   9  350.10    6.69
   9  -1  -9  420.49    8.10
   9  -1  -9  374.04    6.77
   9  -1   9  433.74    8.27
   9  -1   9  510.92    7.80
   9   1  -9  429.08    8.21
   9   1  -9  370.59    7.07
   9   1   9  451.22    8.54
   9   1   9  491.13    8.06
  -9  -1 -10   35.58    4.25
  -9  -1 -10   38.93    4.03
  -9  -1  10   48.81    5.94
  -9  -1  10   29.51    3.51
  -9   1 -10   38.68    4.31
  -9   1 -10   42.83    4.14
  -9   1  10   34.05    3.82
  -9   1  10   28.13    3.38
   9  -1 -10   31.28    3.94
   9  -1 -10   25.87    3.39
   9  -1  10   39.22    4.19
   9  -1  10   38.96    3.88
   9   1 -10   33.30    3.95
   9   1 -10   33.03    3.61
   9   1  10   41.78    4.38
   9   1  10   45.90    4.11
  -9  -1 -11    1.68    3.87
  -9  -1 -11    8.01    3.68
  -9  -1  11    4.36    3.48
  -9  -1  11    0.88    3.19
  -9   1 -11   -1.11    3.87
  -9   1 -11    2.69    3.54
  -9   1  11    3.43    3.47
  -9   1  11    1.24    3.18
   9  -1 -11    3.64    3.69
   9  -1 -11    3.42    3.21
   9  -1  11    0.28    3.77
   9  -1  11    3.91    3.67
   9   1 -11    5.79    3.68
   9   1 -11    8.01    3.33
   9   1  11    3.15    3.92
   9   1  11    5.40    3.58
  -9  -1 -12    6.83    3.97
  -9  -1 -12    2.96    3.93
  -9  -1  12    5.79    3.67
  -9  -1  12    6.45    3.45
  -9   1 -12    0.65    3.95
  -9   1 -12    2.72    3.79
  -9   1  12    5.96    3.67
  -9   1  12   -0.50    5.50
   9  -1 -12    6.88    4.00
   9  -1 -12    3.78    3.42
   9  -1  12   -2.29    4.04
   9  -1  12    3.11    3.80
   9   1 -12    7.64    3.94
   9   1 -12    5.80    3.57
   9   1  12    3.28    4.09
   9   1  12    3.24    3.75
  -9  -1 -13   -3.21    4.15
  -9  -1 -13   -6.49    3.98
  -9  -1  13   -0.40    3.76
  -9  -1  13    1.75    3.45
  -9   1 -13   -8.46    4.22
  -9   1 -13   -5.68    4.00
  -9   1  13   -3.94    3.64
   9  -1 -13    3.15    3.94
   9  -1 -13   -0.49    3.49
   9  -1  13   -8.18    4.18
   9  -1  13   -5.63    3.88
   9   1 -13    5.85    4.09
   9   1 -13    1.53    3.63
   9   1  13    1.67    4.29
   9   1  13   -4.62    3.84
  -9  -1 -14   -3.07    4.37
  -9  -1 -14    0.77    4.30
  -9  -1  14   -5.25    3.83
  -9   1 -14   -4.58    4.41
  -9   1 -14   -5.12    4.37
   9  -1 -14    1.67    4.12
   9  -1 -14   -2.22    3.70
   9  -1  14   -4.92    4.37
   9  -1  14   -3.42    4.14
   9   1 -14    0.65    4.26
   9   1 -14    2.22    3.78
   9   1  14   -1.20    4.42
   9   1  14   -0.66    4.11
  -9  -1 -15    8.27    5.08
  -9  -1 -15   11.55    4.50
  -9   1 -15    6.25    5.11
  -9   1 -15    6.29    4.54
   9  -1 -15   13.15    4.62
   9  -1 -15   14.03    4.07
   9  -1  15    8.46    4.81
   9  -1  15    7.70    4.41
   9   1 -15   11.32    4.73
   9   1 -15    4.50    4.18
   9   1  15    8.49    4.88
   9   1  15   19.15    4.61
  -9  -1 -16   44.77    5.86
  -9  -1 -16   37.29    5.00
  -9   1 -16   38.31    5.64
  -9   1 -16   39.59    4.99
   9  -1 -16   41.28    5.52
   9  -1 -16   37.19    4.59
   9  -1  16   52.30    5.96
   9  -1  16   69.19    8.29
   9   1 -16   40.40    5.39
   9   1 -16   32.61    4.83
   9   1  16   75.89    8.80
   9   1  16   75.90    8.60
  -9  -1 -17   74.77    9.01
  -9  -1 -17   82.94    8.52
  -9   1 -17   85.74    9.21
  -9   1 -17   85.45    8.41
   9  -1 -17   51.44    5.66
   9  -1 -17   54.08    5.13
   9  -1  17   91.83    9.04
   9   1 -17   50.26    5.60
   9   1 -17   61.88    7.70
   9   1  17   99.32    9.17
   9   1  17  114.00    9.04
  -9  -1 -18   51.65    6.25
  -9  -1 -18   45.17    5.29
  -9   1 -18   57.81    6.43
  -9   1 -18   75.74    8.55
   9  -1 -18   51.21    5.81
   9  -1 -18   65.13    7.67
   9   1 -18   80.47    9.02
   9   1 -18   44.09    5.09
  -9  -3  -1   50.95    4.18
  -9  -3  -2    4.63    2.36
  -9  -3   2    5.72    2.37
  -9   3  -2    9.65    2.30
  -9  -3  -3    4.46    2.72
  -9  -3  -3    4.88    2.42
  -9  -3   3    2.79    2.41
  -9   3  -3    6.35    2.42
  -9   3  -3    2.86    2.12
   9   3   3    4.71    2.45
  -9  -3  -4   42.93    4.84
  -9  -3  -4   49.77    4.89
  -9  -3   4   34.82    4.25
  -9   3  -4   46.32    4.34
  -9   3  -4   55.85    4.13
  -9   3   4   41.78    4.10
  -9   3   4   35.26    3.74
   9  -3   4   46.53    4.36
   9   3  -4   41.34    4.31
   9   3   4   55.23    4.38
  -9  -3  -5  197.85    5.95
  -9  -3  -5  228.33    5.94
  -9  -3   5  177.62    5.69
  -9  -3   5  160.81    5.36
  -9   3  -5  192.22    5.44
  -9   3  -5  236.66    5.28
  -9   3   5  179.93    5.14
  -9   3   5  166.38    4.48
   9  -3   5  207.00    5.60
   9  -3   5  216.41    4.74
   9   3  -5  168.31    5.31
   9   3   5  198.09    6.11
   9   3   5  236.75    5.77
  -9  -3  -6  180.44    6.13
  -9  -3  -6  224.46    6.21
  -9  -3   6  165.10    5.84
  -9  -3   6  143.04    5.33
  -9   3  -6  176.43    5.85
  -9   3  -6  221.21    5.67
  -9   3   6  160.19    5.26
  -9   3   6  160.97    4.88
   9  -3  -6  173.70    4.59
   9  -3   6  180.34    5.70
   9  -3   6  211.87    5.09
   9   3  -6  158.15    5.61
   9   3   6  189.64    6.22
   9   3   6  215.20    6.01
  -9  -3  -7   42.65    4.08
  -9  -3  -7   46.41    5.51
  -9  -3   7   37.81    3.62
  -9  -3   7   25.99    3.13
  -9   3  -7   29.51    3.51
  -9   3  -7   49.53    5.18
  -9   3   7   39.05    4.67
  -9   3   7   34.88    2.99
   9  -3  -7   45.84    5.17
   9  -3  -7   42.55    4.35
   9  -3   7   42.05    5.24
   9  -3   7   48.86    4.68
   9   3  -7   35.14    3.32
   9   3   7   45.47    5.62
   9   3   7   51.40    5.63
  -9  -3  -8   -0.75    3.23
  -9  -3  -8    2.51    3.18
  -9  -3   8   -1.39    2.98
  -9  -3   8   -1.09    2.83
  -9   3  -8   -0.61    3.26
  -9   3  -8    0.72    3.01
  -9   3   8   -1.62    2.76
  -9   3   8   -0.10    2.57
   9  -3  -8   -1.51    3.01
   9  -3  -8   -1.70    2.54
   9  -3   8   -2.37    3.05
   9  -3   8   -0.86    2.94
   9   3  -8    3.09    3.49
   9   3  -8   -1.21    2.88
   9   3   8    2.07    3.27
   9   3   8   -2.13    3.05
  -9  -3  -9   10.79    3.82
  -9  -3  -9   10.26    3.52
  -9  -3   9   15.68    3.52
  -9  -3   9   11.08    3.01
  -9   3  -9   12.38    3.45
  -9   3  -9   14.04    3.34
  -9   3   9    8.06    3.06
  -9   3   9    8.77    2.96
   9  -3  -9   10.27    3.49
   9  -3  -9    9.70    2.97
   9  -3   9   14.18    3.50
   9  -3   9   22.03    3.32
   9   3  -9   16.27    3.70
   9   3  -9   12.14    3.17
   9   3   9   15.31    3.92
   9   3   9   14.55    3.57
  -9  -3 -10   35.87    4.41
  -9  -3 -10   33.64    3.99
  -9  -3  10   38.46    3.98
  -9  -3  10   35.17    3.76
  -9   3 -10   38.16    4.05
  -9   3 -10   42.55    3.96
  -9   3  10   29.56    3.73
  -9   3  10   28.72    3.35
   9  -3 -10   37.62    4.13
   9  -3 -10   35.26    3.46
   9  -3  10   39.51    4.14
   9  -3  10   50.86    5.79
   9   3 -10   44.51    4.40
   9   3 -10   36.36    3.77
   9   3  10   47.35    4.64
   9   3  10   43.70    4.13
  -9  -3 -11   32.65    4.63
  -9  -3 -11   38.89    4.19
  -9  -3  11   38.59    4.21
  -9  -3  11   32.47    3.89
  -9   3 -11   32.03    4.32
  -9   3 -11   45.48    4.37
  -9   3  11   27.30    3.81
   9  -3 -11   29.23    4.10
   9  -3 -11   33.29    3.60
   9  -3  11   41.22    4.57
   9  -3  11   46.51    4.24
   9   3 -11   58.55    6.84
   9   3 -11   35.86    3.96
   9   3  11   39.99    4.62
   9   3  11   41.67    4.24
  -9  -3 -12   23.39    4.86
  -9  -3 -12   31.03    4.26
  -9  -3  12   27.67    4.20
  -9  -3  12   28.14    3.84
  -9   3 -12   26.94    4.48
  -9   3 -12   27.05    4.18
  -9   3  12   27.11    4.06
   9  -3 -12   20.75    4.12
   9  -3 -12   20.47    3.63
   9  -3  12   25.61    4.36
   9  -3  12   37.74    4.27
   9   3 -12   33.43    4.58
   9   3 -12   27.35    3.91
   9   3  12   32.91    4.76
   9   3  12   37.11    4.43
  -9  -3 -13    6.03    4.50
  -9  -3 -13    7.87    4.18
  -9  -3  13   10.14    3.98
  -9  -3  13    8.16    3.63
  -9   3 -13   -1.78    4.32
  -9   3 -13    2.82    4.03
   9  -3 -13    9.60    4.23
   9  -3 -13    2.38    3.59
   9  -3  13    0.12    4.36
   9  -3  13   -0.27    4.16
   9   3 -13    5.40    4.27
   9   3 -13    4.65    3.78
   9   3  13    7.93    4.40
   9   3  13    8.23    4.14
  -9  -3 -14    4.75    4.50
  -9  -3 -14    5.08    4.35
  -9  -3  14    3.21    4.07
  -9  -3  14    3.25    3.69
  -9   3 -14   -5.99    4.58
  -9   3 -14   -5.25    4.36
   9  -3 -14    5.47    4.29
   9  -3 -14    2.09    3.67
   9  -3  14   -3.08    4.57
   9  -3  14   -6.91    4.04
   9   3 -14    1.16    4.34
   9   3 -14    2.35    3.95
   9   3  14    2.75    4.48
   9   3  14    1.95    4.12
  -9  -3 -15   18.17    5.21
  -9  -3 -15   10.82    4.36
  -9  -3  15   13.10    4.47
  -9   3 -15    9.98    5.05
  -9   3 -15    4.42    4.61
   9  -3 -15   13.61    4.53
   9  -3 -15   14.50    4.04
   9  -3  15   13.83    5.01
   9  -3  15   13.71    4.61
   9   3 -15   17.49    4.87
   9   3 -15   11.89    4.38
   9   3  15   16.51    5.00
   9   3  15   17.88    4.71
  -9  -3 -16   13.81    5.13
  -9  -3 -16   11.50    4.54
  -9   3 -16    4.69    5.20
  -9   3 -16    1.39    4.49
   9  -3 -16   -0.69    4.48
   9  -3 -16    7.22    3.97
   9  -3  16   -2.53    4.78
   9  -3  16    9.80    4.60
   9   3 -16    4.57    4.73
   9   3 -16   -4.65    4.30
   9   3  16   14.52    5.14
   9   3  16   12.30    4.84
  -9  -3 -17   20.50    5.45
  -9  -3 -17    8.34    4.53
  -9   3 -17   22.49    5.56
  -9   3 -17   18.35    4.77
   9  -3 -17   11.03    4.79
   9  -3 -17   14.00    4.23
   9   3 -17   11.81    5.04
   9   3 -17   11.90    4.43
   9   3  17   18.01    5.36
   9   3  17   26.45    5.19
  -9  -3 -18   21.89    5.84
  -9  -3 -18   15.77    4.88
  -9   3 -18   22.75    4.90
   9  -3 -18   23.20    5.15
   9  -3 -18   16.20    4.37
   9   3 -18   18.24    5.25
   9   3 -18   17.90    4.68
   9   3  18   25.51    6.52
  -9  -5   0  715.25    7.43
  -9  -5  -1  679.25    7.26
  -9  -5   1  536.20    6.68
  -9  -5  -2  316.36    5.94
  -9  -5   2  253.43    5.54
  -9   5  -2  285.03    4.90
   9   5   2  292.64    5.68
  -9  -5  -3    6.62    2.67
  -9  -5   3    5.77    2.54
  -9   5  -3    8.77    2.32
  -9   5  -3    6.36    2.02
   9   5  -3    8.47    2.62
   9   5   3    9.90    2.63
  -9  -5  -4   80.14    5.24
  -9  -5  -4   90.87    5.20
  -9  -5   4   57.53    4.58
  -9   5  -4   80.22    4.40
  -9   5  -4   87.01    3.91
  -9   5   4   73.65    4.17
  -9   5   4   68.85    3.65
   9  -5   4   85.02    4.39
   9   5  -4   70.88    5.09
   9   5   4   81.56    4.89
  -9  -5  -5   -0.31    2.89
  -9  -5  -5    1.71    2.82
  -9  -5   5   -0.04    2.53
  -9   5  -5    1.60    2.59
  -9   5  -5    2.06    2.35
  -9   5   5    3.73    2.40
   9  -5   5    1.95    2.62
   9   5  -5    2.70    2.72
   9   5   5    3.38    2.89
   9   5   5    0.03    2.75
  -9  -5  -6   39.09    3.82
  -9  -5  -6   34.33    3.49
  -9  -5   6   26.97    3.27
  -9  -5   6   26.35    3.13
  -9   5  -6   22.78    3.03
  -9   5  -6   35.33    3.07
  -9   5   6   27.15    2.85
  -9   5   6   30.12    3.75
   9  -5  -6   30.89    3.11
   9  -5   6   29.90    3.24
   9  -5   6   33.44    2.67
   9   5  -6   26.05    3.18
   9   5   6   32.25    3.49
   9   5   6   33.41    3.39
  -9  -5  -7   96.72    6.06
  -9  -5  -7  119.99    6.24
  -9  -5   7   99.55    5.76
  -9  -5   7   89.48    5.35
  -9   5  -7   81.02    5.40
  -9   5  -7  115.41    5.27
  -9   5   7   89.69    4.92
  -9   5   7   89.85    4.54
   9  -5  -7   96.61    5.14
   9  -5  -7  100.55    4.36
   9  -5   7   94.54    5.48
   9  -5   7  117.18    4.78
   9   5  -7   91.06    5.46
   9   5   7  113.76    6.15
   9   5   7  124.07    6.08
  -9  -5  -8  237.88    7.31
  -9  -5  -8  286.68    7.39
  -9  -5   8  222.91    6.84
  -9  -5   8  213.19    6.28
  -9   5  -8  221.53    6.61
  -9   5  -8  285.91    6.47
  -9   5   8  204.14    5.84
  -9   5   8  219.75    5.50
   9  -5  -8  235.13    6.22
   9  -5  -8  228.74    5.35
   9  -5   8  234.36    6.68
   9  -5   8  283.26    5.85
   9   5  -8  198.31    6.33
   9   5   8  259.00    7.44
   9   5   8  298.51    7.11
  -9  -5  -9  255.74    7.79
  -9  -5  -9  295.26    7.66
  -9  -5   9  248.99    7.23
  -9  -5   9  238.25    6.79
  -9   5  -9  234.34    6.86
  -9   5  -9  309.70    6.99
  -9   5   9  207.32    6.25
  -9   5   9  199.72    5.87
   9  -5  -9  224.12    6.63
   9  -5  -9  233.89    5.75
   9  -5   9  258.30    7.04
   9  -5   9  322.34    6.64
   9   5  -9  256.35    7.83
   9   5  -9  231.84    6.97
   9   5   9  279.51    8.03
   9   5   9  318.03    7.69
  -9  -5 -10  234.09    8.14
  -9  -5 -10  271.62    7.88
  -9  -5  10  216.05    7.47
  -9  -5  10  217.31    7.06
  -9   5 -10  231.66    7.31
  -9   5 -10  293.53    7.35
  -9   5  10  214.12    6.71
   9  -5 -10  225.13    7.16
   9  -5 -10  207.33    6.02
   9  -5  10  262.95    7.59
   9  -5  10  322.86    7.18
   9   5 -10  262.02    8.22
   9   5 -10  223.01    7.06
   9   5  10  276.46    8.47
   9   5  10  308.05    8.13
  -9  -5 -11  262.72    8.71
  -9  -5 -11  277.95    8.25
  -9  -5  11  255.17    8.03
  -9  -5  11  240.51    7.61
  -9   5 -11  240.52    7.82
  -9   5 -11  304.31    8.01
   9  -5 -11  240.02    7.60
   9  -5 -11  226.68    6.62
   9  -5  11  272.35    7.96
   9  -5  11  341.98    7.65
   9   5 -11  256.67    8.39
   9   5 -11  241.80    7.73
   9   5  11  300.55    8.75
   9   5  11  316.83    8.30
  -9  -5 -12  126.92    8.27
  -9  -5 -12  132.06    7.55
  -9  -5  12  129.72    7.24
  -9  -5  12  119.78    6.90
  -9   5 -12  113.46    7.51
  -9   5 -12  131.63    7.39
   9  -5 -12  113.87    7.35
   9  -5 -12   92.05    6.24
   9  -5  12  123.04    7.52
   9  -5  12  153.92    7.17
   9   5 -12  128.66    7.96
   9   5 -12  123.28    7.44
   9   5  12  146.79    8.16
   9   5  12  151.21    7.57
  -9  -5 -13   40.06    4.94
  -9  -5 -13   33.75    4.51
  -9  -5  13   35.63    4.49
  -9  -5  13   35.37    4.25
  -9   5 -13   28.41    4.76
  -9   5 -13   32.45    4.40
   9  -5 -13   29.23    4.51
   9  -5 -13   31.01    3.83
   9  -5  13   25.20    4.70
   9  -5  13   40.14    4.41
   9   5 -13   35.33    4.83
   9   5 -13   35.56    4.37
   9   5  13   41.39    5.05
   9   5  13   58.33    7.20
  -9  -5 -14   38.24    5.41
  -9  -5 -14   27.78    4.57
  -9  -5  14   23.51    4.48
  -9  -5  14   29.19    4.15
  -9   5 -14   19.76    4.96
  -9   5 -14   24.56    4.75
   9  -5 -14   28.92    4.63
   9  -5 -14   30.79    4.03
   9  -5  14   16.73    4.88
   9  -5  14   30.25    4.59
   9   5 -14   35.92    4.97
   9   5 -14   27.83    4.47
   9   5  14   40.64    5.29
   9   5  14   42.88    4.89
  -9  -5 -15    0.98    4.58
  -9  -5 -15    5.14    4.28
  -9  -5  15    0.20    4.18
  -9  -5  15   -2.70    3.92
  -9   5 -15   -7.01    4.86
  -9   5 -15   -8.43    4.46
   9  -5 -15    2.11    4.41
   9  -5 -15    6.33    3.84
   9  -5  15   -5.95    4.71
   9  -5  15   -5.76    4.23
   9   5 -15   -0.51    4.47
   9   5 -15   -1.23    4.21
   9   5  15    6.78    4.90
   9   5  15    6.48    4.36
  -9  -5 -16   19.86    5.24
  -9  -5 -16   14.50    4.53
  -9  -5  16   18.26    4.87
  -9  -5  16   13.91    6.49
  -9   5 -16   11.44    5.01
  -9   5 -16   22.13    4.87
   9  -5 -16   26.90    4.95
   9  -5 -16   11.25    3.97
   9  -5  16   24.56    5.88
   9   5 -16   13.82    4.96
   9   5 -16   19.39    4.70
   9   5  16   25.07    5.52
   9   5  16   25.20    5.01
  -9  -5 -17   16.05    5.47
  -9  -5 -17   14.55    4.51
  -9   5 -17    9.71    4.68
   9  -5 -17   15.81    4.98
   9  -5 -17   13.81    4.03
   9   5 -17   10.89    5.00
   9   5 -17    4.89    4.45
   9   5  17   16.45    5.33
   9   5  17   12.37    4.86
  -9  -5 -18   -3.79    5.26
  -9  -5 -18    0.10    4.31
  -9   5 -18   -3.11    4.46
   9  -5 -18    4.99    4.96
   9  -5 -18   -1.69    3.96
   9   5 -18    2.47    5.06
   9   5 -18   -2.94    4.30
   9   5  18    5.67    5.39
   9   5  18    0.05    4.77
  -9  -7  -2  484.76    6.99
  -9  -7   2  407.75    6.44
  -9   7  -2  440.91    5.42
   9   7  -2  412.85    6.51
   9   7   2  482.24    6.91
  -9  -7  -3  343.41    6.61
  -9  -7   3  250.54    5.78
  -9   7  -3  279.75    4.95
  -9   7   3    0.99    0.42
   9   7  -3  274.51    6.06
   9   7   3  322.28    6.27
  -9  -7  -4   96.90    5.56
  -9  -7  -4   95.10    5.54
  -9  -7   4   82.23    5.17
  -9   7  -4   82.70    4.41
  -9   7  -4   97.25    3.78
  -9   7   4   79.53    3.98
   9  -7   4   89.27    4.38
   9   7  -4   73.26    5.20
   9   7   4  102.73    5.37
  -9  -7  -5   22.57    3.53
  -9  -7  -5   22.20    3.33
  -9  -7   5   23.26    3.04
  -9   7  -5   17.67    2.82
  -9   7  -5   23.78    2.47
  -9   7   5   12.92    2.47
  -9   7   5   14.12    2.29
   9  -7   5   22.19    2.93
   9   7  -5   18.83    3.08
   9   7   5   27.51    3.22
  -9  -7  -6   43.72    4.02
  -9  -7  -6   41.86    3.68
  -9  -7   6   34.07    3.62
  -9  -7   6   30.38    3.22
  -9   7  -6   38.57    4.73
  -9   7  -6   42.29    4.48
  -9   7   6   25.03    2.75
  -9   7   6   32.54    3.89
   9  -7  -6   36.64    4.43
   9  -7   6   43.12    4.72
   9  -7   6   41.86    3.46
   9   7  -6   32.49    3.48
   9   7   6   40.56    3.83
   9   7   6   49.20    5.48
  -9  -7  -7    8.33    3.53
  -9  -7  -7    4.77    3.22
  -9  -7   7    2.26    3.17
  -9  -7   7    2.45    2.91
  -9   7  -7    2.47    3.02
  -9   7  -7    2.82    2.79
  -9   7   7    3.30    2.55
   9  -7  -7    6.87    2.84
   9  -7   7    0.70    2.86
   9  -7   7    3.76    2.28
   9   7  -7   -1.98    3.00
   9   7   7    3.45    3.17
   9   7   7    5.03    3.22
  -9  -7  -8   52.41    4.55
  -9  -7  -8   58.43    6.17
  -9  -7   8   42.17    3.93
  -9  -7   8   33.58    3.63
  -9   7  -8   39.19    3.76
  -9   7  -8   48.25    3.62
  -9   7   8   54.97    4.82
  -9   7   8   51.06    4.52
   9  -7  -8   58.28    5.04
   9  -7  -8   57.11    4.13
   9  -7   8   36.75    3.66
   9  -7   8   42.51    4.50
   9   7  -8   37.33    3.70
   9   7   8   56.22    6.28
   9   7   8   69.18    6.04
  -9  -7  -9  437.88    8.91
  -9  -7  -9  474.21    8.60
  -9  -7   9  371.73    8.40
  -9  -7   9  355.39    7.72
  -9   7  -9  351.75    7.66
  -9   7  -9  478.24    7.80
  -9   7   9  343.70    6.93
   9  -7  -9  368.43    7.19
   9  -7  -9  398.40    6.06
   9  -7   9  381.34    7.86
   9  -7   9  472.49    6.87
   9   7  -9  360.62    8.07
   9   7   9  460.07    8.92
   9   7   9  533.79    9.00
  -9  -7 -10  573.75   10.05
  -9  -7 -10  620.45    9.68
  -9  -7  10  514.10    9.56
  -9  -7  10  484.56    8.69
  -9   7 -10  482.56    8.74
  -9   7 -10  626.09    8.82
   9  -7 -10  530.52    8.50
   9  -7 -10  522.73    7.07
   9  -7  10  543.96    9.05
   9  -7  10  700.17    8.37
   9   7 -10  561.76   10.22
   9   7 -10  480.91    8.79
   9   7  10  630.22   10.34
   9   7  10  683.53    9.71
  -9  -7 -11  335.81    9.24
  -9  -7 -11  360.87    8.71
  -9  -7  11  307.42    8.62
  -9  -7  11  281.87    7.95
  -9   7 -11  304.22    8.32
  -9   7 -11  383.39    8.25
   9  -7 -11  312.60    7.92
   9  -7 -11  295.92    6.52
   9  -7  11  326.17    8.24
   9  -7  11  412.21    7.79
   9   7 -11  334.44    9.16
   9   7 -11  300.25    8.19
   9   7  11  391.77    9.62
   9   7  11  405.20    8.83
  -9  -7 -12  258.35    9.04
  -9  -7 -12  290.06    8.59
  -9  -7  12  251.59    8.61
  -9  -7  12  241.84    7.86
  -9   7 -12  244.47    8.36
  -9   7 -12  292.88    8.21
   9  -7 -12  244.31    7.81
   9  -7 -12  236.36    6.70
   9  -7  12  254.75    8.34
   9  -7  12  336.01    7.82
   9   7 -12  277.90    9.21
   9   7 -12  235.30    8.09
   9   7  12  311.67    9.44
   9   7  12  354.78    8.90
  -9  -7 -13  131.25    8.57
  -9  -7 -13  139.66    7.98
  -9  -7  13  125.03    7.85
  -9  -7  13  110.66    7.18
  -9   7 -13  123.33    7.89
  -9   7 -13  133.25    7.72
   9  -7 -13  140.46    7.60
   9  -7 -13  122.20    6.38
   9  -7  13  132.53    7.82
   9  -7  13  183.92    7.67
   9   7 -13  150.43    8.57
   9   7 -13  131.21    7.65
   9   7  13  152.41    8.50
   9   7  13  166.68    8.31
  -9  -7 -14    1.32    4.58
  -9  -7 -14   -0.87    4.07
  -9  -7  14    1.68    4.31
  -9  -7  14    3.99    3.76
  -9   7 -14    0.87    4.74
  -9   7 -14    4.30    4.27
   9  -7 -14    9.15    4.36
   9  -7 -14    5.63    3.54
   9  -7  14    1.78    4.42
   9  -7  14   -2.15    4.05
   9   7 -14    6.81    4.64
   9   7 -14    2.46    4.19
   9   7  14    1.21    4.71
   9   7  14    2.00    4.32
  -9  -7 -15   -4.37    4.68
  -9  -7 -15   -2.61    4.29
  -9  -7  15    3.56    4.26
  -9  -7  15    0.86    3.95
  -9   7 -15    0.30    4.73
  -9   7 -15   -5.04    4.31
   9  -7 -15   -0.65    4.28
   9  -7 -15   -3.32    3.58
   9  -7  15   -1.76    4.58
   9  -7  15   -4.51    4.16
   9   7 -15    0.97    4.63
   9   7 -15    2.14    4.26
   9   7  15   -0.61    4.96
   9   7  15   -1.52    4.36
  -9  -7 -16   39.98    5.47
  -9  -7 -16   27.51    4.72
  -9  -7  16   34.69    5.24
  -9  -7  16   32.20    4.47
  -9   7 -16   42.76    5.77
  -9   7 -16   26.17    4.92
   9  -7 -16   40.46    5.15
   9  -7 -16   36.99    4.30
   9   7 -16   37.45    5.68
   9   7 -16   28.75    4.65
   9   7  16   39.45    5.81
   9   7  16   51.56    5.40
  -9  -7 -17   19.61    5.27
  -9  -7 -17   14.34    4.53
  -9  -7  17   12.20    4.91
  -9  -7  17   21.63    4.38
  -9   7 -17   19.86    4.84
   9  -7 -17   18.63    4.99
   9  -7 -17   14.83    4.04
   9   7 -17   27.24    5.52
   9   7 -17   16.61    4.57
   9   7  17   33.80    5.81
   9   7  17   28.79    5.30
  -9  -9  -2  931.24    8.92
  -9  -9   2  740.00    8.01
  -9   9  -2  790.07    6.26
   9   9  -2  778.41    8.27
   9   9   2  869.56    8.74
  -9  -9  -3   16.89    3.15
  -9  -9   3   11.21    2.96
  -9   9  -3   14.04    2.46
  -9   9   3   15.33    2.25
   9  -9   3   18.32    2.37
   9   9  -3   14.99    3.10
   9   9   3   20.31    3.15
  -9  -9  -4  395.74    7.55
  -9  -9  -4  410.55    7.29
  -9  -9   4  304.15    6.40
  -9   9  -4  324.55    5.35
  -9   9  -4  375.59    4.36
  -9   9   4  280.93    4.47
   9  -9   4  365.21    5.54
   9   9  -4  319.28    6.77
   9   9   4  408.45    7.02
  -9  -9  -5  109.18    6.16
  -9  -9  -5  108.09    5.88
  -9  -9   5   73.03    5.29
  -9   9  -5   82.91    4.61
  -9   9  -5  114.70    4.00
  -9   9   5   82.99    3.54
   9  -9   5   90.96    4.68
   9   9  -5   83.12    5.64
   9   9   5  112.76    5.77
  -9  -9  -6   73.21    6.05
  -9  -9  -6   85.21    5.88
  -9  -9   6   76.05    5.77
  -9  -9   6   58.57    5.54
  -9   9  -6   59.33    4.64
  -9   9  -6   86.27    4.34
  -9   9   6   49.87    4.19
  -9   9   6   53.97    3.83
   9  -9  -6   53.21    4.48
   9  -9   6   70.76    4.79
   9   9  -6   68.92    5.88
   9   9   6   88.24    6.00
   9   9   6   86.06    5.96
  -9  -9  -7  156.43    6.80
  -9  -9  -7  172.51    6.70
  -9  -9   7  132.56    6.39
  -9  -9   7  109.66    5.88
  -9   9  -7  118.85    5.44
  -9   9  -7  174.60    5.31
  -9   9   7  115.17    4.76
  -9   9   7  126.46    4.48
   9  -9  -7  129.97    5.16
   9  -9   7  129.25    5.43
   9  -9   7  150.89    3.85
   9   9  -7  130.73    6.43
   9   9   7  162.32    6.70
   9   9   7  177.34    6.55
  -9  -9  -8   36.68    4.27
  -9  -9  -8   32.33    3.79
  -9  -9   8   27.66    3.86
  -9  -9   8   21.37    3.41
  -9   9  -8   20.80    3.41
  -9   9  -8   32.48    3.41
  -9   9   8   22.51    3.04
  -9   9   8   31.74    2.84
   9  -9  -8   29.22    3.31
   9  -9   8   21.83    3.53
   9  -9   8   33.52    3.91
   9   9  -8   15.93    3.48
   9   9   8   30.29    4.01
   9   9   8   36.62    3.99
  -9  -9  -9   21.64    4.16
  -9  -9  -9   17.92    3.79
  -9  -9   9    6.08    3.81
  -9  -9   9    4.81    3.43
  -9   9  -9   13.82    3.55
  -9   9  -9   17.53    3.44
   9  -9  -9   17.69    3.18
   9  -9  -9   21.05    2.60
   9  -9   9    8.66    3.41
   9  -9   9   19.30    2.82
   9   9  -9    0.46    3.51
   9   9   9   28.60    4.18
   9   9   9   30.04    4.05
  -9  -9 -10  178.60    7.92
  -9  -9 -10  214.95    7.93
  -9  -9  10  158.49    7.60
  -9  -9  10  137.81    7.01
  -9   9 -10  154.72    6.90
  -9   9 -10  195.00    6.74
   9  -9 -10  161.51    6.46
   9  -9 -10  177.63    5.27
   9  -9  10  168.63    6.93
   9  -9  10  220.28    6.15
   9   9 -10  153.91    8.22
   9   9 -10  131.38    7.28
   9   9  10  214.39    8.09
   9   9  10  232.16    7.70
  -9  -9 -11  269.18    8.86
  -9  -9 -11  305.95    8.45
  -9  -9  11  219.28    8.34
  -9  -9  11  225.60    7.81
  -9   9 -11  240.98    7.88
  -9   9 -11  299.74    7.74
   9  -9 -11  243.16    7.35
   9  -9 -11  245.28    5.95
   9  -9  11  252.65    7.81
   9  -9  11  337.88    7.23
   9   9 -11  263.33    9.24
   9   9 -11  216.04    8.02
   9   9  11  323.27    9.26
   9   9  11  329.75    8.57
  -9  -9 -12   52.98    5.32
  -9  -9 -12   62.67    7.62
  -9  -9  12   44.07    4.85
  -9  -9  12   44.47    4.42
  -9   9 -12   65.46    7.10
  -9   9 -12   72.44    6.81
   9  -9 -12   55.91    6.63
   9  -9 -12   66.05    5.46
   9  -9  12   45.74    4.72
   9  -9  12   72.24    6.26
   9   9 -12   50.19    5.40
   9   9 -12   37.92    4.42
   9   9  12   65.87    7.99
   9   9  12   81.21    7.40
  -9  -9 -13    3.20    4.53
  -9  -9 -13   -1.95    4.25
  -9  -9  13    0.97    4.14
  -9  -9  13    3.39    3.72
  -9   9 -13   -2.14    4.23
  -9   9 -13    1.95    3.86
   9  -9 -13    3.07    3.94
   9  -9 -13    0.53    3.25
   9  -9  13    5.10    4.28
   9  -9  13    3.16    3.88
   9   9 -13   -3.19    4.46
   9   9 -13   -2.28    3.93
   9   9  13   -1.57    4.56
   9   9  13   -0.87    4.05
  -9  -9 -14   31.33    5.31
  -9  -9 -14   38.65    4.89
  -9  -9  14   32.06    4.92
  -9  -9  14   28.50    4.40
  -9   9 -14   30.57    5.17
  -9   9 -14   37.83    5.02
   9  -9 -14   36.32    4.56
   9  -9 -14   35.18    3.83
   9  -9  14   33.42    5.16
   9  -9  14   41.09    4.51
   9   9 -14   37.39    5.45
   9   9 -14   32.21    4.86
   9   9  14   47.02    5.61
   9   9  14   40.32    5.08
  -9  -9 -15   74.42    8.72
  -9  -9 -15   83.83    8.32
  -9  -9  15   93.11    8.16
  -9  -9  15   87.29    7.73
  -9   9 -15   81.16    8.53
  -9   9 -15   93.67    8.18
   9  -9 -15   85.53    7.66
   9  -9 -15   87.30    6.49
   9   9 -15  105.25    9.16
   9   9 -15   96.71    8.05
   9   9  15   81.87    9.16
   9   9  15  106.46    8.72
  -9  -9 -16    1.46    4.81
  -9  -9 -16   -0.22    4.29
  -9  -9  16    5.08    4.63
  -9  -9  16    4.18    3.94
  -9   9 -16    7.33    4.61
   9  -9 -16   -5.39    4.27
   9  -9 -16   -3.12    3.68
   9   9 -16    3.87    5.13
   9   9 -16    1.48    4.22
   9   9  16    1.06    5.05
   9   9  16    2.48    4.92
  -9  -9 -17   -4.10    4.97
  -9  -9 -17   -4.21    4.24
  -9  -9  17    2.68    4.77
  -9  -9  17    1.40    3.89
   9  -9 -17   -8.92    4.36
   9  -9 -17  -10.44    3.70
   9   9 -17   -4.75    4.95
   9   9 -17    2.71    4.51
  -9 -11   0 1122.00    9.59
  -9 -11   0  891.00    8.98
   9  11   0 1022.00    9.33
  -9 -11  -1  433.92    7.05
  -9 -11  -1  336.70    6.58
  -9 -11   1  387.79    6.85
  -9 -11   1  331.17    6.75
  -9  11  -1  350.67    4.31
   9  11  -1  326.39    6.74
   9  11   1  396.58    6.97
  -9 -11  -2   22.01    3.45
  -9 -11   2   19.57    3.07
  -9 -11   2   15.94    3.09
  -9  11  -2   21.33    2.15
  -9  11   2   23.67    2.08
   9  11  -2   20.63    3.35
   9  11   2   19.95    3.16
  -9 -11  -3   88.04    5.82
  -9 -11   3   60.59    5.15
  -9  11  -3   63.08    3.67
  -9  11   3   55.76    3.36
   9 -11   3   68.98    3.76
   9  11  -3   60.65    5.56
   9  11   3   85.44    5.60
  -9 -11  -4  178.80    6.79
  -9 -11  -4  204.98    6.36
  -9 -11   4  144.84    5.77
  -9  11  -4  153.06    4.36
  -9  11   4  140.49    4.07
   9 -11   4  180.10    4.54
   9  11  -4  152.15    6.15
   9  11   4  204.78    6.34
  -9 -11  -5  514.97    8.59
  -9 -11  -5  556.01    8.27
  -9 -11   5  395.89    7.18
  -9  11  -5  410.75    5.80
  -9  11  -5  543.51    4.95
  -9  11   5  383.34    5.44
   9 -11  -5  436.95    5.79
   9 -11   5  449.10    6.09
   9  11  -5  422.95    7.83
   9  11   5  578.95    8.33
  -9 -11  -6  377.40    8.16
  -9 -11  -6  414.55    7.75
  -9 -11   6  310.32    6.99
  -9  11  -6  307.25    5.95
  -9  11  -6  431.67    5.42
  -9  11   6  332.26    4.62
   9 -11  -6  336.47    5.83
   9 -11   6  343.69    6.12
   9  11  -6  334.01    7.34
   9  11   6  441.81    7.94
  -9 -11  -7  216.99    7.42
  -9 -11  -7  239.17    7.31
  -9 -11   7  215.38    7.07
  -9 -11   7  180.10    6.42
  -9  11  -7  171.63    5.70
  -9  11  -7  252.09    5.47
  -9  11   7  162.62    4.93
  -9  11   7  182.96    4.60
   9 -11  -7  187.46    5.35
   9 -11   7  190.08    5.79
   9  11  -7  177.19    6.94
   9  11   7  240.10    7.55
   9  11   7  263.80    7.29
  -9 -11  -8  120.71    7.01
  -9 -11  -8  120.17    6.68
  -9 -11   8   93.66    6.70
  -9 -11   8   86.80    6.41
  -9  11  -8   92.23    5.67
  -9  11  -8  125.10    5.35
   9 -11  -8  101.36    5.26
   9 -11   8   88.41    5.61
   9  11  -8   83.08    6.37
   9  11   8  126.71    6.98
   9  11   8  140.04    6.96
  -9 -11  -9   19.17    4.13
  -9 -11  -9   15.67    3.79
  -9 -11   9   14.49    4.08
  -9 -11   9   13.26    3.60
  -9  11  -9   11.39    3.46
  -9  11  -9   15.87    3.42
   9 -11  -9   20.79    3.29
   9 -11   9    9.09    3.51
   9 -11   9   20.30    2.55
   9  11  -9    7.80    3.80
   9  11   9   23.33    4.27
   9  11   9   23.90    4.13
  -9 -11 -10   -0.55    3.93
  -9 -11 -10   -0.27    3.73
  -9 -11  10   -4.29    3.97
  -9 -11  10   -4.81    3.59
  -9  11 -10   -3.96    3.65
  -9  11 -10   -5.07    3.19
   9 -11 -10    2.99    3.21
   9 -11 -10    2.76    2.32
   9 -11  10   -0.10    3.43
   9 -11  10   -0.64    2.66
   9  11 -10   -3.26    3.79
   9  11  10    2.04    3.99
   9  11  10   -0.31    3.65
  -9 -11 -11   -1.12    4.07
  -9 -11 -11    2.31    3.90
  -9 -11  11   -6.28    4.00
  -9 -11  11    2.44    3.79
  -9  11 -11    2.34    3.85
  -9  11 -11   -0.97    3.50
   9 -11 -11    1.04    3.37
   9 -11 -11    2.50    2.68
   9 -11  11   -1.55    3.66
   9 -11  11    0.75    3.16
   9  11 -11   -1.40    4.45
   9  11 -11   -3.87    3.77
   9  11  11   -2.53    4.13
   9  11  11   -0.90    3.82
  -9 -11 -12   15.38    4.71
  -9 -11 -12   14.65    4.20
  -9 -11  12   15.15    4.45
  -9 -11  12    8.93    3.81
  -9  11 -12   12.24    4.28
  -9  11 -12    9.87    3.77
   9 -11 -12   14.10    3.86
   9 -11 -12   12.80    3.02
   9 -11  12    7.36    4.19
   9 -11  12   18.69    3.64
   9  11 -12   13.74    4.77
   9  11 -12    9.37    4.24
   9  11  12   12.34    4.78
   9  11  12   16.89    4.29
  -9 -11 -13   24.87    5.26
  -9 -11 -13   25.21    4.41
  -9 -11  13   21.34    4.77
  -9 -11  13   20.92    4.16
  -9  11 -13   18.85    4.53
  -9  11 -13   17.37    4.13
   9 -11 -13   19.41    4.12
   9 -11 -13   25.22    3.40
   9 -11  13   24.03    4.71
   9 -11  13   32.26    4.15
   9  11 -13   26.05    5.29
   9  11 -13   17.01    4.42
   9  11  13   20.42    5.11
   9  11  13   30.05    4.68
  -9 -11 -14   -9.23    4.72
  -9 -11 -14   -5.34    4.14
  -9 -11  14   -1.38    4.49
  -9 -11  14    0.63    3.87
  -9  11 -14    1.29    4.49
  -9  11 -14   -0.92    4.15
   9 -11 -14    0.62    3.99
   9 -11 -14   -6.32    3.20
   9 -11  14   -3.41    4.35
   9 -11  14   -3.70    3.80
   9  11 -14   -6.47    4.85
   9  11 -14    2.32    4.35
   9  11  14  -12.04    4.82
  -9 -11 -15    7.33    4.74
  -9 -11 -15    1.04    4.29
  -9 -11  15   10.78    4.69
  -9 -11  15   10.30    4.06
  -9  11 -15   11.63    4.44
   9 -11 -15    7.01    4.40
   9 -11 -15   10.17    3.53
   9  11 -15    8.48    5.20
   9  11 -15    3.62    4.43
  -9 -11 -16   -0.82    5.09
  -9 -11 -16    0.09    4.53
  -9 -11  16    6.40    4.60
  -9 -11  16    3.04    4.24
   9 -11 -16    0.74    4.44
   9 -11 -16   -1.41    3.53
   9  11 -16    5.78    5.40
   9  11 -16    7.56    4.49
  -9 -11 -17   32.58    5.77
  -9 -11 -17   31.20    5.02
  -9 -11  17   26.85    5.91
  -9 -11  17   24.85    7.54
   9 -11 -17   14.17    4.92
   9 -11 -17   15.37    4.22
   9  11 -17   37.58    6.00
   9  11 -17   23.39    4.85
  -9 -13   0  118.16    5.61
  -9 -13   0   80.60    5.36
   9  13   0  111.15    5.71
  -9 -13  -1   96.95    5.58
  -9 -13  -1   71.01    5.63
  -9 -13   1  100.37    5.52
  -9 -13   1   55.96    5.18
   9  13  -1   72.38    5.45
   9  13   1   89.08    5.73
  -9 -13  -2    7.77    3.15
  -9 -13  -2    4.31    3.00
  -9 -13   2    8.68    3.08
  -9 -13   2    0.81    2.95
  -9  13  -2    6.17    1.83
   9  13  -2    0.38    3.15
   9  13   2    5.87    3.04
  -9 -13  -3  187.83    6.46
  -9 -13   3  169.43    5.94
  -9 -13   3  116.93    5.87
  -9  13  -3  134.97    3.68
  -9  13   3  130.83    3.46
   9 -13   3  168.32    4.02
   9  13  -3  127.10    6.48
   9  13   3  187.42    6.33
  -9 -13  -4  556.67    9.02
  -9 -13  -4  579.96    8.19
  -9 -13   4  419.65    7.62
  -9  13  -4  407.63    5.16
  -9  13   4  404.55    4.86
   9 -13   4  504.36    5.68
   9  13  -4  437.55    7.83
   9  13   4  606.09    8.40
  -9 -13  -5  651.10    9.56
  -9 -13  -5  688.03    8.80
  -9 -13   5  499.00    8.06
  -9  13  -5  499.91    6.07
  -9  13   5  489.38    5.65
   9 -13  -5  566.09    6.02
   9 -13   5  587.93    6.45
   9  13  -5  545.25    8.74
   9  13   5  711.84    9.17
  -9 -13  -6  707.12   10.03
  -9 -13  -6  736.97    9.42
  -9 -13   6  555.16    8.53
  -9  13  -6  543.57    6.76
  -9  13  -6  773.83    6.01
   9 -13  -6  594.70    6.62
   9 -13   6  583.44    6.92
   9  13  -6  563.33    8.83
   9  13   6  806.69    9.72
  -9 -13  -7  474.62    9.10
  -9 -13  -7  473.35    8.46
  -9 -13   7  408.69    8.58
  -9 -13   7  357.72    7.50
  -9  13  -7  358.30    6.61
  -9  13  -7  507.62    6.18
  -9  13   7  394.16    5.85
   9 -13  -7  382.67    6.33
   9 -13   7  386.03    6.60
   9  13  -7  372.09    8.08
   9  13   7  526.74    8.79
  -9 -13  -8  155.12    7.49
  -9 -13  -8  158.10    7.27
  -9 -13   8  131.76    7.19
  -9 -13   8  132.21    6.63
  -9  13  -8  125.02    5.81
  -9  13  -8  179.62    5.54
   9 -13  -8  141.42    5.49
   9 -13   8  133.03    5.81
   9  13  -8  121.99    6.94
   9  13   8  189.33    7.72
   9  13   8  183.70    7.38
  -9 -13  -9   37.76    4.78
  -9 -13  -9   33.03    4.15
  -9 -13   9   26.82    4.30
  -9 -13   9   22.30    3.95
  -9  13  -9   27.75    3.80
  -9  13  -9   31.90    3.50
   9 -13  -9   30.47    3.38
   9 -13   9   25.45    3.68
   9  13  -9   25.23    4.09
   9  13   9   38.95    4.71
   9  13   9   45.81    4.54
  -9 -13 -10    6.99    4.26
  -9 -13 -10    3.55    3.82
  -9 -13  10   -1.22    3.94
  -9 -13  10    2.33    3.70
  -9  13 -10   -0.50    3.66
  -9  13 -10    0.73    3.30
   9 -13 -10    3.72    3.31
   9 -13  10    0.18    3.50
   9 -13  10    2.81    2.49
   9  13 -10    4.03    3.74
   9  13  10    5.21    4.28
   9  13  10    3.32    4.03
  -9 -13 -11   -3.71    4.30
  -9 -13 -11    3.81    4.04
  -9 -13  11   -0.73    4.10
  -9 -13  11   -3.82    3.47
  -9  13 -11   -0.79    3.88
  -9  13 -11    1.65    3.52
   9 -13 -11   -0.89    3.43
   9 -13  11   -0.74    3.74
   9 -13  11   -0.27    2.81
   9  13 -11   -2.03    3.93
   9  13  11    0.07    4.33
   9  13  11    1.14    4.00
  -9 -13 -12    3.18    4.66
  -9 -13 -12   -1.65    3.99
  -9 -13  12   -6.88    4.27
  -9 -13  12   -5.20    3.75
  -9  13 -12   -3.74    4.07
  -9  13 -12   -2.39    3.71
   9 -13 -12   -0.57    3.58
   9 -13 -12   -0.06    2.69
   9 -13  12   -4.30    3.94
   9 -13  12   -2.68    3.27
   9  13 -12   -0.70    4.71
   9  13 -12   -0.98    4.03
   9  13  12   -2.64    4.45
  -9 -13 -13   21.12    5.11
  -9 -13 -13   14.71    4.32
  -9 -13  13   22.02    4.92
  -9 -13  13   14.99    4.18
  -9  13 -13   22.61    4.72
  -9  13 -13   17.31    4.18
   9 -13 -13   21.93    4.18
   9 -13 -13   21.20    3.09
   9 -13  13   13.26    4.58
   9 -13  13   24.72    3.90
   9  13 -13   21.15    5.34
   9  13 -13   19.52    4.64
  -9 -13 -14   39.67    5.54
  -9 -13 -14   39.14    4.81
  -9 -13  14   31.49    5.20
  -9 -13  14   35.57    4.59
  -9  13 -14   37.11    5.11
  -9  13 -14   43.99    4.91
   9 -13 -14   59.22    7.02
   9 -13 -14   54.04    5.42
   9 -13  14   58.54    6.68
   9  13 -14   39.41    5.77
   9  13 -14   37.53    4.96
  -9 -13 -15   54.85    5.94
  -9 -13 -15   71.48    7.99
  -9 -13  15   48.93    5.80
  -9 -13  15   45.12    4.82
   9 -13 -15   83.47    7.42
   9 -13 -15   78.88    5.86
   9  13 -15   80.08    9.72
   9  13 -15   49.50    5.27
  -9 -13 -16  159.46    9.52
  -9 -13 -16  153.36    8.53
   9 -13 -16  162.59    8.60
   9 -13 -16  141.95    6.53
   9  13 -16  170.68   10.67
   9  13 -16  134.91    9.10
  -9 -15   0   11.75    3.17
  -9 -15   0    6.63    3.10
   9  15   0   15.47    3.29
   9  15   0    7.83    3.30
  -9 -15  -1    4.52    3.20
  -9 -15  -1    0.20    3.10
  -9 -15   1    2.68    3.16
  -9 -15   1    0.35    3.08
   9  15  -1   -0.91    3.11
   9  15   1    3.54    3.07
  -9 -15  -2  123.93    6.37
  -9 -15  -2   93.36    5.97
  -9 -15   2  117.86    5.87
  -9 -15   2   77.55    5.74
   9  15  -2   90.27    6.42
   9  15   2  112.36    5.89
  -9 -15  -3  249.93    6.78
  -9 -15  -3  206.95    6.30
  -9 -15   3  246.69    6.64
  -9 -15   3  172.81    6.41
   9  15  -3  185.06    6.82
   9  15   3  263.09    6.92
  -9 -15  -4  325.93    8.18
  -9 -15  -4  370.44    7.44
  -9 -15   4  351.22    7.26
  -9 -15   4  252.55    6.93
  -9  15  -4  251.94    4.59
  -9  15   4  254.84    4.13
   9 -15   4  314.34    4.95
   9  15  -4  251.23    7.25
   9  15   4  387.70    7.67
  -9 -15  -5  426.41    8.65
  -9 -15  -5  467.18    8.18
  -9 -15   5  325.65    7.53
  -9  15  -5  320.78    5.37
   9 -15  -5  371.65    5.25
   9 -15   5  381.25    5.67
   9  15  -5  342.85    7.80
   9  15   5  485.16    8.44
  -9 -15  -6  418.44    8.93
  -9 -15  -6  423.23    8.21
  -9 -15   6  321.61    7.32
  -9  15  -6  304.19    5.81
   9 -15  -6  341.40    5.59
   9 -15   6  364.04    6.13
   9  15  -6  322.08    7.84
   9  15   6  461.72    8.48
  -9 -15  -7  367.31    8.86
  -9 -15  -7  367.52    7.96
  -9 -15   7  330.77    8.49
  -9 -15   7  297.69    7.57
  -9  15  -7  280.59    6.20
  -9  15  -7  408.68    5.65
   9 -15  -7  308.35    5.88
   9 -15   7  307.80    6.33
   9  15  -7  297.53    7.92
   9  15   7  420.90    8.64
  -9 -15  -8  197.17    7.99
  -9 -15  -8  215.40    7.39
  -9 -15   8  191.97    7.82
  -9 -15   8  170.39    7.24
  -9  15  -8  156.75    6.10
  -9  15  -8  228.05    5.61
   9 -15  -8  186.33    5.77
   9 -15   8  175.13    6.02
   9  15  -8  173.03    7.51
   9  15   8  232.47    8.18
   9  15   8  237.44    7.97
  -9 -15  -9   46.57    5.05
  -9 -15  -9   38.37    4.37
  -9 -15   9   37.37    4.60
  -9 -15   9   28.03    4.07
  -9  15  -9   30.32    3.78
  -9  15  -9   43.13    3.63
   9 -15  -9   35.79    3.60
   9 -15   9   29.78    3.78
   9  15  -9   30.58    4.28
   9  15   9   46.23    4.79
  -9 -15 -10   -1.40    4.13
  -9 -15 -10    2.61    3.80
  -9 -15  10    5.90    4.28
  -9 -15  10    3.90    3.73
  -9  15 -10   -0.90    3.62
  -9  15 -10    4.58    3.34
   9 -15 -10   -1.04    3.20
   9 -15  10    3.04    3.63
   9  15 -10   -0.60    3.92
   9  15  10   -0.43    4.15
  -9 -15 -11   13.51    4.83
  -9 -15 -11    8.60    4.12
  -9 -15  11    9.25    4.55
  -9 -15  11    7.24    3.94
  -9  15 -11    6.76    3.96
  -9  15 -11    6.03    3.68
   9 -15 -11    3.17    3.55
   9 -15  11    5.91    3.91
   9  15 -11    4.24    4.13
  -9 -15 -12   -3.77    4.57
  -9 -15 -12   -4.62    4.01
  -9 -15  12   -2.69    4.56
  -9 -15  12   -1.69    3.84
  -9  15 -12   -7.51    4.04
  -9  15 -12   -6.38    3.83
   9 -15 -12   -7.89    3.56
   9 -15  12   -6.26    4.01
   9 -15  12   -7.27    2.91
   9  15 -12   -0.09    4.21
  -9 -15 -13    1.20    4.83
  -9 -15 -13    0.99    4.07
  -9 -15  13    0.25    4.54
  -9 -15  13    0.29    3.86
  -9  15 -13   -4.81    4.36
  -9  15 -13   -7.64    4.00
   9 -15 -13   -1.47    3.78
   9 -15 -13    1.05    2.72
   9 -15  13   -5.59    4.50
   9 -15  13   -8.13    3.34
   9  15 -13   -3.57    5.10
   9  15 -13   -0.65    4.38
  -9 -15 -14   32.75    5.47
  -9 -15 -14   29.99    4.57
  -9 -15  14   28.11    5.32
  -9 -15  14   25.53    4.50
   9 -15 -14   28.94    4.35
   9 -15 -14   33.58    3.21
   9 -15  14   38.34    4.29
   9  15 -14   32.05    5.94
   9  15 -14   21.89    5.07
  -9 -15 -15   92.87    9.05
  -9 -15 -15   80.89    7.84
   9 -15 -15   86.45    7.37
   9 -15 -15   86.46    5.41
   9  15 -15   69.05    6.74
   9  15 -15   48.87    5.69
  -9 -17   0  383.98    7.59
  -9 -17   0  278.21    6.95
   9  17   0  355.86    7.56
   9  17   0  296.02    7.27
  -9 -17  -1  133.56    6.48
  -9 -17  -1  102.23    5.99
  -9 -17   1  125.88    6.21
  -9 -17   1   94.47    5.92
   9  17  -1  111.51    6.22
   9  17  -1  107.54    6.43
   9  17   1  118.89    6.27
  -9 -17  -2   41.84    3.97
  -9 -17  -2   25.41    3.63
  -9 -17   2   42.13    3.78
  -9 -17   2   31.14    3.65
   9  17  -2   28.96    3.90
   9  17   2   35.31    3.97
  -9 -17  -3   -1.83    3.24
  -9 -17  -3    1.74    3.38
  -9 -17   3    2.21    3.18
  -9 -17   3   -1.46    3.13
   9  17  -3   -2.06    3.55
   9  17   3   -0.10    3.28
  -9 -17  -4    4.11    3.84
  -9 -17  -4    3.35    3.37
  -9 -17  -4   -0.77    3.35
  -9 -17   4   -0.27    3.33
  -9 -17   4   -3.86    3.28
  -9  17  -4    0.00    2.08
   9  17  -4   -2.03    3.69
   9  17   4    1.26    3.36
  -9 -17  -5   41.32    4.58
  -9 -17  -5   41.71    4.03
  -9 -17   5   35.33    3.82
  -9 -17   5   23.85    3.72
  -9  17  -5   37.37    3.95
   9 -17  -5   34.67    3.82
   9 -17   5   43.45    4.15
   9  17  -5   24.52    4.06
  -9 -17  -6  194.72    7.99
  -9 -17  -6  181.24    6.91
  -9 -17   6  145.34    6.84
  -9  17  -6  142.86    4.92
   9 -17  -6  158.92    4.74
   9 -17   6  156.94    5.20
   9  17  -6  145.26    7.15
  -9 -17  -7  336.15    8.91
  -9 -17  -7  347.88    8.12
  -9 -17   7  299.46    8.63
  -9 -17   7  278.07    7.87
  -9  17  -7  252.26    5.95
  -9  17  -7  370.96    5.31
   9 -17  -7  288.97    5.76
   9 -17   7  301.75    6.26
   9  17  -7  280.19    8.36
  -9 -17  -8  262.76    8.85
  -9 -17  -8  252.91    8.02
  -9 -17   8  226.87    8.47
  -9 -17   8  204.77    7.54
  -9  17  -8  190.61    6.10
  -9  17  -8  264.36    5.69
   9 -17  -8  219.06    5.89
   9 -17   8  216.69    6.43
   9  17  -8  211.44    8.26
  -9 -17  -9   19.67    4.66
  -9 -17  -9   15.42    3.97
  -9 -17   9   18.51    4.56
  -9 -17   9   14.21    3.96
  -9  17  -9   15.54    3.52
  -9  17  -9   23.79    3.32
   9 -17  -9   16.47    3.32
   9 -17   9   18.88    3.59
   9  17  -9   17.01    4.23
  -9 -17 -10   31.86    5.17
  -9 -17 -10   29.60    4.36
  -9 -17  10   30.73    4.85
  -9 -17  10   28.10    4.18
  -9  17 -10   26.34    3.94
  -9  17 -10   51.32    5.84
   9 -17 -10   24.80    3.59
   9 -17  10   31.50    4.07
   9  17 -10   24.51    4.62
  -9 -17 -11  111.88    8.59
  -9 -17 -11  109.67    7.73
  -9 -17  11  102.50    8.20
  -9 -17  11   85.20    7.05
  -9  17 -11  107.94    7.20
  -9  17 -11  125.43    6.77
   9 -17 -11   74.96    6.43
   9 -17  11  100.18    7.11
   9  17 -11  102.11    8.27
  -9 -17 -12   51.48    5.64
  -9 -17 -12   49.66    4.80
  -9 -17  12   71.37    8.37
  -9 -17  12   59.57    7.00
  -9  17 -12   44.58    4.85
  -9  17 -12   61.32    6.92
   9 -17 -12   37.62    4.32
   9 -17  12   58.05    7.23
   9  17 -12   44.40    4.99
  -9 -17 -13    9.39    4.93
  -9 -17 -13    5.13    4.02
  -9 -17  13   15.11    5.42
   9 -17 -13    2.64    3.94
   9 -17  13    5.97    3.03
   9  17 -13    2.10    4.57
  -9 -17 -14   -2.41    4.76
  -9 -17 -14   -2.20    4.02
   9 -17 -14   -8.57    3.78
   9 -17  14   -9.49    3.30
   9  17 -14   -7.52    4.62
  -9 -17 -15   -5.42    4.76
  -9 -17 -15    0.03    4.07
   9 -17 -15    1.18    3.97
   9 -17 -15   -2.33    2.70
   9  17 -15  -10.37    4.76
  -9 -19   0  630.09    8.99
  -9 -19   0  428.15    7.88
   9  19   0  447.08    8.39
  -9 -19  -1  756.71    9.42
  -9 -19  -1  534.39    8.43
  -9 -19   1  763.58    9.33
  -9 -19   1  546.49    8.40
   9  19  -1  572.98    9.40
  -9 -19  -2  371.23    8.10
  -9 -19  -2  262.26    7.17
  -9 -19   2  375.60    7.62
  -9 -19   2  273.13    7.17
   9  19  -2  270.14    8.00
  -9 -19  -3   73.63    6.54
  -9 -19  -3   54.13    6.25
  -9 -19   3  100.08    6.34
  -9 -19   3   64.35    6.03
   9  19  -3   62.17    6.96
  -9 -19  -4   13.90    4.37
  -9 -19  -4    7.30    3.67
  -9 -19  -4    6.03    3.78
  -9 -19   4   13.53    3.53
  -9 -19   4    5.40    3.44
   9  19  -4    9.99    3.94
  -9 -19  -5    2.11    3.92
  -9 -19  -5   -2.64    3.49
  -9 -19  -5   -1.12    3.47
  -9 -19   5    0.16    3.51
  -9 -19   5   -2.95    3.39
  -9  19  -5    0.42    2.30
   9 -19   5   -0.23    2.47
   9  19  -5   -0.59    3.71
  -9 -19  -6   24.54    4.45
  -9 -19  -6   18.21    3.81
  -9 -19  -6   13.30    3.87
  -9 -19   6   20.56    3.77
  -9 -19   6   11.33    3.63
  -9  19  -6   10.29    2.67
   9 -19  -6   15.32    2.58
   9 -19   6   14.40    2.88
   9  19  -6   14.48    4.04
  -9 -19  -7   23.06    4.76
  -9 -19  -7   24.53    4.05
  -9 -19   7   20.31    4.49
  -9 -19   7   21.16    3.89
  -9  19  -7   17.47    3.01
   9 -19  -7   21.41    2.88
   9 -19   7   18.73    3.17
   9  19  -7   24.61    4.42
  -9 -19  -8    2.77    4.36
  -9 -19  -8    1.54    3.74
  -9 -19   8    3.30    4.31
  -9 -19   8    6.88    3.83
  -9  19  -8    1.96    3.10
  -9  19  -8    4.69    2.70
   9 -19  -8    6.65    2.89
   9 -19   8    6.08    3.29
   9  19  -8   -0.04    4.14
  -9 -19  -9   -2.60    4.58
  -9 -19  -9   -6.36    3.73
  -9 -19   9    2.98    4.42
  -9 -19   9   -0.18    3.80
  -9  19  -9   -1.19    3.33
  -9  19  -9    0.13    3.03
   9 -19  -9    2.08    3.13
   9 -19   9    2.75    3.52
   9  19  -9   -3.22    4.11
  -9 -19 -10   43.01    5.35
  -9 -19 -10   42.52    4.62
  -9 -19  10   45.04    5.39
  -9 -19  10   34.98    4.48
  -9  19 -10   40.03    4.20
  -9  19 -10   66.19    5.96
   9 -19 -10   38.98    3.91
   9 -19  10   57.40    6.44
   9  19 -10   35.17    4.96
  -9 -19 -11  149.75    8.84
  -9 -19 -11  156.80    7.95
  -9 -19  11  144.38    8.87
  -9 -19  11  139.70    8.31
  -9  19 -11  125.79    7.07
  -9  19 -11  163.36    6.92
   9 -19 -11  121.37    6.79
   9 -19  11  141.07    7.21
   9  19 -11  135.58    8.71
  -9 -19 -12  161.20    9.10
  -9 -19 -12  136.18    7.65
   9 -19 -12  116.36    6.79
   9  19 -12  147.24    9.13
  -9 -19 -13  103.57    8.86
  -9 -19 -13  102.33    7.75
   9 -19 -13   90.55    6.77
   9  19 -13  104.32    8.80
  -9 -19 -14   76.65    8.69
  -9 -19 -14   62.94    7.54
   9 -19 -14   63.36    6.77
   9  19 -14   51.55    5.89
  -9 -21   0  905.54   10.11
  -9 -21   0  610.69    8.93
   9  21   0  625.69    9.41
  -9 -21  -1  371.67    7.89
  -9 -21  -1  264.96    7.43
  -9 -21   1  377.10    8.00
  -9 -21   1  248.48    7.18
   9  21  -1  285.67    8.32
   9  21   1  273.49    8.09
  -9 -21  -2  129.07    6.95
  -9 -21  -2   92.21    6.34
  -9 -21   2  141.08    6.75
  -9 -21   2  100.03    6.54
   9  21  -2  100.87    7.11
  -9 -21  -3   56.82    6.57
  -9 -21  -3   40.12    4.06
  -9 -21   3   67.80    6.16
  -9 -21   3   53.21    6.11
   9  21  -3   45.22    4.58
  -9 -21  -4   14.78    4.53
  -9 -21  -4   10.32    3.72
  -9 -21  -4   11.30    3.85
  -9 -21   4   16.40    3.73
  -9 -21   4   10.47    3.53
   9  21  -4    8.02    3.89
  -9 -21  -5   -1.22    4.18
  -9 -21  -5   -1.04    3.55
  -9 -21  -5    0.72    3.71
  -9 -21   5   -0.52    3.43
  -9 -21   5    1.27    3.53
   9  21  -5   -2.39    4.06
  -9 -21  -6    5.70    4.53
  -9 -21  -6    7.82    3.66
  -9 -21  -6   -2.45    3.70
  -9 -21   6   -0.46    3.62
  -9 -21   6   -1.39    3.63
  -9  21  -6   -5.14    2.56
   9  21  -6    0.77    4.19
  -9 -21  -7   16.86    4.54
  -9 -21  -7    8.95    3.82
  -9 -21  -7   13.18    4.07
  -9 -21   7    9.05    4.71
  -9 -21   7    7.32    3.76
  -9 -21   7    8.50    3.92
  -9  21  -7    7.45    3.01
   9 -21  -7   10.24    2.80
   9 -21   7    4.20    3.09
   9  21  -7    6.78    4.34
  -9 -21  -8   31.83    4.88
  -9 -21  -8   31.82    4.15
  -9 -21   8   18.71    4.87
  -9 -21   8   18.32    4.06
  -9  21  -8   19.23    3.39
  -9  21  -8   30.81    3.05
   9 -21  -8   28.21    3.16
   9 -21   8   21.65    3.63
   9  21  -8   16.50    4.67
  -9 -21  -9   75.25    8.15
  -9 -21  -9   81.00    7.10
  -9 -21   9   56.64    5.58
  -9 -21   9   45.20    4.62
  -9  21  -9   54.07    5.80
  -9  21  -9   86.82    5.39
   9 -21  -9   68.51    5.38
   9 -21   9   64.51    6.08
   9  21  -9   42.40    5.28
  -9 -21 -10   94.61    8.29
  -9 -21 -10   93.43    7.47
  -9  21 -10   88.89    6.21
  -9  21 -10  115.53    6.09
   9 -21 -10   68.40    5.91
   9 -21  10   96.44    6.53
   9  21 -10   59.17    5.58
  -9 -21 -11   68.49    8.19
  -9 -21 -11   68.36    7.14
  -9  21 -11   65.52    6.76
   9 -21 -11   57.20    6.03
   9 -21  11   70.49    6.68
   9  21 -11   48.98    5.22
  -9 -21 -12   97.41    8.67
  -9 -21 -12  107.64    7.48
   9 -21 -12   90.81    6.43
   9  21 -12   91.90    8.69
  -9 -21 -13  127.89    9.11
  -9 -21 -13  108.36    7.59
   9 -21 -13   97.34    6.65
   9  21 -13  100.77    9.36
  -9 -23   0   11.34    3.82
  -9 -23   0    3.15    3.55
   9  23   0    7.84    4.09
  -9 -23  -1   40.77    4.13
  -9 -23  -1   22.10    3.84
  -9 -23   1   43.79    4.31
  -9 -23   1   23.37    3.86
   9  23  -1   27.11    4.43
   9  23   1   23.07    4.21
  -9 -23  -2   98.74    6.79
  -9 -23  -2   73.94    6.26
  -9 -23   2  111.62    6.95
  -9 -23   2   74.68    6.50
   9  23  -2   70.50    7.30
  -9 -23  -3   10.53    3.78
  -9 -23  -3    3.91    3.78
  -9 -23   3   13.06    3.82
  -9 -23   3    0.32    3.51
   9  23  -3    8.39    4.31
  -9 -23  -4    4.82    4.40
  -9 -23  -4    6.26    3.62
  -9 -23  -4    6.66    3.81
  -9 -23   4    4.77    3.63
  -9 -23   4    1.67    3.58
   9  23  -4    2.72    4.33
  -9 -23  -5   14.05    4.61
  -9 -23  -5    9.93    3.70
  -9 -23  -5    7.07    3.94
  -9 -23   5   10.87    3.81
  -9 -23   5    2.68    3.67
   9  23  -5    6.03    4.47
  -9 -23  -6    3.76    4.45
  -9 -23  -6    5.04    3.73
  -9 -23  -6    3.13    3.97
  -9 -23   6    4.62    3.65
  -9 -23   6   -1.57    3.73
  -9  23  -6   -4.27    2.66
   9  23  -6   -6.28    4.22
  -9 -23  -7    0.58    4.43
  -9 -23  -7    0.33    3.70
  -9 -23  -7    0.56    4.41
  -9 -23   7   -6.35    4.61
  -9 -23   7   -2.51    3.66
  -9 -23   7   -4.18    4.35
   9 -23  -7   -2.78    2.53
   9  23  -7   -8.92    4.19
  -9 -23  -8    3.43    4.39
  -9 -23  -8    3.26    3.77
  -9 -23   8    5.96    3.78
  -9  23  -8   -6.79    3.05
  -9  23  -8   -4.28    2.61
   9 -23  -8   -1.36    2.76
   9 -23   8   -3.67    3.17
   9  23  -8  -10.28    4.41
  -9 -23  -9   21.55    4.82
  -9 -23  -9   15.03    4.02
  -9 -23   9   22.06    3.94
  -9  23  -9   14.31    3.52
  -9  23  -9   17.91    3.11
   9 -23  -9   13.50    3.15
   9 -23   9   12.67    3.57
   9  23  -9    4.29    4.66
  -9 -23 -10   87.56    8.38
  -9 -23 -10   77.20    6.90
  -9  23 -10   76.54    6.16
   9 -23 -10   75.74    5.55
   9 -23  10   82.09    6.41
   9  23 -10   53.92    5.40
  -9 -23 -11  119.32    8.58
  -9 -23 -11   99.31    7.28
   9 -23 -11  100.32    6.08
  -9 -25   0  271.79    7.73
  -9 -25   0  203.38    7.24
   9  25   0  230.62    8.57
  -9 -25  -1   15.19    3.92
  -9 -25  -1    9.73    3.82
  -9 -25   1    8.69    3.89
  -9 -25   1    9.91    3.72
   9  25  -1    9.11    4.63
   9  25   1    5.10    4.28
  -9 -25  -2   82.67    6.71
  -9 -25  -2   66.35    6.62
  -9 -25   2   94.55    7.13
  -9 -25   2   59.63    6.35
   9  25  -2   60.19    5.36
  -9 -25  -3  169.19    7.03
  -9 -25  -3  132.01    6.95
  -9 -25   3  196.46    7.60
  -9 -25   3  117.69    6.85
   9  25  -3  135.41    8.40
  -9 -25  -4  144.94    8.26
  -9 -25  -4  143.09    6.93
  -9 -25  -4  112.26    7.80
  -9 -25   4  159.50    7.23
  -9 -25   4  107.21    8.15
   9  25  -4  109.32    8.31
  -9 -25  -5  142.68    8.37
  -9 -25  -5  140.88    7.02
  -9 -25   5  132.41    6.86
   9  25  -5   98.47    8.36
  -9 -25  -6  105.59    8.46
  -9 -25  -6  100.02    6.87
  -9 -25   6  128.44    6.82
   9 -25   6   66.33    4.72
   9  25  -6   82.13    7.97
  -9 -25  -7   53.72    5.27
  -9 -25  -7   72.55    6.81
  -9 -25   7   94.46    6.76
  -9  25  -7   55.80    4.92
   9 -25   7   44.49    5.08
   9  25  -7   67.38    7.95
  -9 -25  -8   26.85    4.85
  -9 -25  -8   27.66    4.10
  -9 -25   8   34.95    4.19
  -9  25  -8   17.97    3.42
   9 -25  -8   12.40    3.09
   9 -25   8   15.45    3.47
  -9 -25  -9   -3.32    4.37
  -9 -25  -9   -7.37    3.52
  -9 -25   9    0.31    3.75
  -9  25  -9   -5.70    3.23
   9 -25  -9   -5.88    2.87
   9 -25   9   -3.73    3.40
  -9 -25 -10    4.48    4.63
  -9 -25 -10    2.45    3.68
  -9 -25  10    4.86    3.84
   9 -25 -10    0.94    3.01
  -9 -27   0    6.92    3.78
  -9 -27  -1   14.60    3.82
  -9 -27   1   21.71    4.05
  -9 -27  -2   -2.26    3.59
  -9 -27   2   -6.16    3.75
  -9 -27  -3  163.60    7.00
  -9 -27   3  176.40    7.68
  -9 -27  -4  321.15    9.68
  -9 -27  -4  317.21    7.72
  -9 -27   4  361.44    8.37
  -9 -27  -5  271.40    9.22
  -9 -27  -5  282.46    7.62
  -9 -27   5  316.93    8.15
  -9 -27  -6  250.55    9.25
  -9 -27  -6  224.51    7.54
  -9 -27   6  268.54    7.59
  -9 -27  -7  161.15    8.72
  -9 -27  -7  147.39    7.06
  -9 -27   7  194.95    7.58
  -9  27  -7  129.40    5.23
   9 -27   7  124.85    5.42
  -9 -29   0   -1.10    3.46
  -9 -29  -1   -6.16    3.35
  -9 -29  -2   -4.05    3.37
  -9 -29   2   -6.98    3.64
  -9 -29   3   -8.19    3.67
  -9 -29  -4   27.55    5.12
  -9 -29  -4   33.06    3.81
  -9 -29   4   33.84    4.27
 -10   0  -2  223.61    5.13
 -10   0  -3  207.64    5.69
 -10   0  -3  210.03    5.22
 -10   0   3  169.07    4.71
 -10   0  -4  169.94    5.67
 -10   0  -4  188.19    5.32
 -10   0   4  152.47    5.01
  10   0   4  175.06    5.05
 -10   0  -5   33.87    3.45
 -10   0  -5   41.83    3.43
 -10   0   5   26.93    3.29
 -10   0   5   24.51    2.93
  10   0  -5   26.26    2.87
  10   0   5   36.31    3.48
  10   0   5   40.96    3.27
 -10   0  -6   23.02    3.34
 -10   0  -6   29.83    3.45
 -10   0   6   18.05    3.19
 -10   0   6   14.91    2.93
  10   0  -6   18.77    3.05
  10   0   6   20.50    3.46
  10   0   6   33.61    3.21
 -10   0  -7  159.43    6.39
 -10   0  -7  210.85    6.57
 -10   0   7  152.11    6.02
 -10   0   7  141.65    5.67
  10   0  -7  144.26    5.65
  10   0   7  173.83    6.56
  10   0   7  216.95    6.27
 -10   0  -8  570.17    8.99
 -10   0  -8  696.81    8.88
 -10   0   8  504.52    8.11
 -10   0   8  492.86    7.44
  10   0  -8  610.61    8.97
  10   0  -8  553.99    7.63
  10   0   8  634.54    9.26
  10   0   8  750.80    8.88
 -10   0  -9  576.51    9.41
 -10   0  -9  712.50    9.45
 -10   0   9  567.86    8.80
 -10   0   9  524.01    8.04
  10   0  -9  641.86    9.55
  10   0  -9  559.91    7.99
  10   0   9  656.17    9.75
  10   0   9  759.62    9.21
 -10   0 -10  303.79    8.55
 -10   0 -10  352.17    8.36
 -10   0  10  305.26    7.79
 -10   0  10  286.80    7.03
  10   0 -10  321.71    8.16
  10   0 -10  285.54    7.03
  10   0  10  342.06    8.64
  10   0  10  424.12    8.40
 -10   0 -11   72.02    7.45
 -10   0 -11   90.54    7.19
 -10   0  11   83.14    6.54
 -10   0  11   78.31    6.24
  10   0 -11  109.95    7.33
  10   0 -11   86.05    6.12
  10   0  11   92.49    7.54
  10   0  11  104.52    7.26
 -10   0 -12   34.10    4.86
 -10   0 -12   38.25    4.60
 -10   0  12   34.07    4.29
  10   0 -12   60.86    7.33
  10   0 -12   49.49    6.19
  10   0  12   39.19    4.97
  10   0  12   44.09    4.70
 -10   0 -13   38.77    5.26
 -10   0 -13   39.39    4.73
  10   0 -13   41.71    4.89
  10   0 -13   39.12    4.26
  10   0  13   43.61    5.31
  10   0  13   53.39    4.93
 -10   0 -14   12.80    4.79
 -10   0 -14   14.52    4.67
  10   0 -14   23.74    4.76
  10   0 -14   15.46    4.12
  10   0  14   20.22    5.29
  10   0  14   13.90    4.63
 -10   0 -15   -1.94    4.93
 -10   0 -15   -1.47    4.60
  10   0 -15    0.49    4.49
  10   0 -15   -2.92    3.95
  10   0  15   -2.85    4.87
  10   0  15   -1.79    4.50
 -10   0 -16   32.59    5.55
 -10   0 -16   33.09    5.16
  10   0 -16   29.91    5.19
  10   0 -16   27.77    4.60
  10   0  16   39.02    5.68
  10   0  16   43.41    5.29
 -10   0 -17   24.53    5.43
 -10   0 -17   22.36    5.04
  10   0 -17   13.24    5.02
  10   0 -17   17.26    4.52
 -10   0 -18   23.68    5.14
  10   0 -18   24.59    5.31
  10   0 -18   20.98    4.69
 -10  -2  -1  205.65    5.14
 -10  -2  -2  312.48    5.88
 -10  -2   2  247.78    5.39
 -10  -2  -3   12.92    2.97
 -10  -2  -3   11.42    2.69
 -10  -2   3    8.71    2.58
 -10   2  -3   15.41    2.69
 -10   2  -3   12.70    2.52
  10   2   3   15.15    2.66
 -10  -2  -4   52.79    5.02
 -10  -2  -4   51.67    4.93
 -10  -2   4   37.40    4.67
 -10   2  -4   50.96    4.86
 -10   2  -4   62.33    4.50
 -10   2   4   46.01    4.25
  10   2  -4   38.84    3.05
  10   2   4   54.13    4.65
 -10  -2  -5    3.59    3.01
 -10  -2  -5    0.29    2.93
 -10  -2   5   -7.15    2.60
 -10   2  -5    1.88    2.91
 -10   2  -5    0.66    2.56
 -10   2   5    0.10    2.62
 -10   2   5   -2.42    2.45
  10  -2   5    2.15    2.75
  10  -2   5    0.65    2.47
  10   2   5   -2.60    2.91
  10   2   5    0.97    2.66
 -10  -2  -6   85.25    5.80
 -10  -2  -6   96.68    5.74
 -10  -2   6   68.21    5.34
 -10  -2   6   56.05    4.94
 -10   2  -6   88.66    5.57
 -10   2  -6  105.43    5.45
 -10   2   6   78.90    5.09
 -10   2   6   82.50    4.75
  10  -2  -6   83.41    4.56
  10  -2   6   92.29    5.62
  10  -2   6  108.09    4.88
  10   2  -6   68.57    5.11
  10   2   6   87.69    5.88
  10   2   6   98.37    5.40
 -10  -2  -7  153.98    6.59
 -10  -2  -7  192.06    6.77
 -10  -2   7  134.90    5.97
 -10  -2   7  131.15    5.81
 -10   2  -7  163.58    6.43
 -10   2  -7  206.87    6.34
 -10   2   7  139.95    5.66
 -10   2   7  141.82    5.29
  10  -2  -7  155.96    5.19
  10  -2   7  175.34    6.30
  10  -2   7  198.26    5.74
  10   2  -7  144.51    5.96
  10   2   7  170.15    6.72
  10   2   7  182.34    6.15
 -10  -2  -8  124.31    6.61
 -10  -2  -8  148.05    6.55
 -10  -2   8  119.74    6.12
 -10  -2   8  112.21    5.70
 -10   2  -8  138.65    6.57
 -10   2  -8  154.46    6.37
 -10   2   8  112.71    5.85
 -10   2   8  110.85    5.27
  10  -2  -8  120.79    6.20
  10  -2  -8  120.99    5.31
  10  -2   8  146.03    6.54
  10  -2   8  173.09    5.93
  10   2  -8  121.25    6.00
  10   2   8  134.41    6.66
  10   2   8  161.36    6.44
 -10  -2  -9   68.68    6.76
 -10  -2  -9   95.01    6.76
 -10  -2   9   88.92    6.17
 -10  -2   9   70.28    5.68
 -10   2  -9   81.31    6.46
 -10   2  -9  104.39    6.45
 -10   2   9   73.69    5.82
 -10   2   9   60.53    5.27
  10  -2  -9   71.32    6.24
  10  -2  -9   68.08    5.42
  10  -2   9   98.22    6.55
  10  -2   9  106.76    6.22
  10   2  -9   90.53    6.73
  10   2  -9   83.44    5.97
  10   2   9   94.48    6.79
  10   2   9   93.30    6.62
 -10  -2 -10   22.03    4.49
 -10  -2 -10   24.77    4.03
 -10  -2  10   21.51    3.87
 -10  -2  10   18.97    3.42
 -10   2 -10   19.29    4.03
 -10   2 -10   26.77    4.08
 -10   2  10   12.89    3.56
 -10   2  10   11.31    3.28
  10  -2 -10   14.14    3.98
  10  -2 -10   18.49    3.34
  10  -2  10   22.37    4.08
  10  -2  10   26.02    3.93
  10   2 -10   23.55    4.22
  10   2 -10   20.21    3.55
  10   2  10   25.82    4.40
  10   2  10   22.50    4.08
 -10  -2 -11   13.40    4.35
 -10  -2 -11   18.36    4.24
 -10  -2  11   17.03    3.90
 -10  -2  11   15.92    3.73
 -10   2 -11   16.54    4.34
 -10   2 -11   24.18    4.27
 -10   2  11   18.86    3.80
  10  -2 -11   14.69    4.06
  10  -2 -11   11.33    3.48
  10  -2  11   17.51    4.43
  10  -2  11   22.74    3.99
  10   2 -11   22.47    4.26
  10   2 -11   17.03    3.61
  10   2  11   25.62    4.54
  10   2  11   21.70    4.21
 -10  -2 -12   22.92    4.69
 -10  -2 -12   26.02    4.51
 -10  -2  12   27.16    4.29
 -10  -2  12   19.85    3.72
 -10   2 -12   13.62    4.45
 -10   2 -12   24.20    4.50
  10  -2 -12   26.09    4.36
  10  -2 -12   25.61    3.77
  10  -2  12   20.81    4.81
  10  -2  12   22.78    4.35
  10   2 -12   30.76    4.55
  10   2 -12   27.01    3.94
  10   2  12   30.98    4.96
  10   2  12   34.37    4.58
 -10  -2 -13   11.86    4.75
 -10  -2 -13   18.60    4.31
 -10  -2  13   14.01    4.26
 -10   2 -13    4.28    4.54
 -10   2 -13    5.24    4.47
  10  -2 -13   20.44    4.59
  10  -2 -13   21.28    3.88
  10  -2  13    9.41    4.82
  10  -2  13    7.96    4.44
  10   2 -13   21.64    4.68
  10   2 -13   19.13    4.08
  10   2  13   17.26    4.76
  10   2  13   29.01    4.65
 -10  -2 -14   17.60    4.94
 -10  -2 -14   18.23    4.55
 -10  -2  14   23.34    4.99
 -10   2 -14    6.23    4.97
 -10   2 -14    9.30    4.83
  10  -2 -14   20.28    4.62
  10  -2 -14   21.86    4.08
  10  -2  14    9.48    5.17
  10  -2  14   13.25    4.68
  10   2 -14   24.14    4.86
  10   2 -14   15.05    4.20
  10   2  14   15.70    5.20
  10   2  14   25.97    4.83
 -10  -2 -15   24.70    5.31
 -10  -2 -15   24.91    4.98
 -10   2 -15   13.55    5.20
 -10   2 -15   13.77    4.83
  10  -2 -15   25.90    5.02
  10  -2 -15   23.32    4.24
  10  -2  15   18.27    5.39
  10  -2  15   32.57    4.98
  10   2 -15   20.07    4.94
  10   2 -15   15.77    4.39
  10   2  15   25.14    5.42
  10   2  15   31.63    5.00
 -10  -2 -16    1.63    4.99
 -10  -2 -16    1.52    4.57
 -10   2 -16   -3.12    4.89
 -10   2 -16   -0.99    4.67
  10  -2 -16   -3.91    4.36
  10  -2 -16   -2.75    3.96
  10  -2  16    2.87    4.93
  10  -2  16   -4.17    7.49
  10   2 -16   -8.75    4.53
  10   2 -16   -7.71    4.05
  10   2  16   -1.79    4.85
  10   2  16   -1.78    4.58
 -10  -2 -17   11.38    5.39
 -10  -2 -17   14.60    4.79
 -10   2 -17   13.19    5.19
 -10   2 -17   12.80    4.84
  10  -2 -17   15.32    5.14
  10  -2 -17    9.31    4.32
  10   2 -17    7.21    4.97
  10   2 -17    5.17    4.39
  10   2  17   17.81    5.47
  10   2  17   17.42    6.43
 -10  -4  -1   13.74    2.70
 -10  -4  -2   17.22    2.89
 -10  -4   2   13.33    2.63
 -10   4  -2   18.25    2.63
 -10  -4  -3   10.32    2.95
 -10  -4   3    7.81    2.76
 -10   4  -3   16.88    2.81
 -10   4  -3   13.79    2.36
  10   4   3   13.64    2.83
 -10  -4  -4   10.45    3.14
 -10  -4  -4   10.19    2.98
 -10  -4   4    7.42    2.75
 -10   4  -4    6.38    2.82
 -10   4  -4   11.49    2.44
 -10   4   4    7.22    2.60
 -10   4   4    0.59    0.77
  10   4  -4    6.06    2.77
  10   4   4   10.07    2.88
 -10  -4  -5  101.67    5.91
 -10  -4  -5  130.60    5.89
 -10  -4   5   84.18    5.24
 -10   4  -5   95.94    5.21
 -10   4  -5  117.00    4.90
 -10   4   5  100.04    4.87
 -10   4   5   97.19    4.43
  10  -4   5  107.97    5.23
  10   4  -5   91.47    5.31
  10   4   5  128.76    5.57
 -10  -4  -6   81.46    5.96
 -10  -4  -6   78.85    5.77
 -10  -4   6   68.57    5.57
 -10  -4   6   56.81    5.04
 -10   4  -6   59.14    5.20
 -10   4  -6   73.90    5.10
 -10   4   6   59.83    4.79
 -10   4   6   59.79    4.43
  10  -4   6   57.47    5.30
  10  -4   6   72.45    4.56
  10   4  -6   63.78    5.56
  10   4   6   74.78    5.94
  10   4   6   76.04    5.66
 -10  -4  -7   69.48    6.11
 -10  -4  -7   86.99    6.07
 -10  -4   7   64.37    5.68
 -10  -4   7   59.63    5.32
 -10   4  -7   56.41    5.46
 -10   4  -7   75.47    5.38
 -10   4   7   58.60    4.94
 -10   4   7   56.85    4.74
  10  -4  -7   68.56    5.49
  10  -4  -7   73.77    4.35
  10  -4   7   64.74    5.70
  10  -4   7   67.22    4.80
  10   4  -7   64.86    5.46
  10   4   7   75.50    5.98
  10   4   7   79.15    5.84
 -10  -4  -8  148.41    7.09
 -10  -4  -8  175.17    6.92
 -10  -4   8  156.86    6.47
 -10  -4   8  143.15    6.05
 -10   4  -8  151.06    6.43
 -10   4  -8  187.91    6.34
 -10   4   8  144.34    5.83
 -10   4   8  124.46    5.35
  10  -4  -8  153.36    6.28
  10  -4  -8  146.58    5.30
  10  -4   8  160.49    6.61
  10  -4   8  186.31    5.59
  10   4  -8  141.30    6.28
  10   4   8  178.41    7.18
  10   4   8  186.17    7.06
 -10  -4  -9  138.60    7.40
 -10  -4  -9  175.39    7.40
 -10  -4   9  160.88    6.84
 -10  -4   9  147.17    6.27
 -10   4  -9  154.48    6.81
 -10   4  -9  196.66    6.81
 -10   4   9  140.34    6.20
 -10   4   9  127.02    5.69
  10  -4  -9  155.09    6.61
  10  -4  -9  133.64    5.63
  10  -4   9  175.44    6.89
  10  -4   9  207.25    6.45
  10   4  -9  148.13    6.36
  10   4   9  173.89    7.51
  10   4   9  184.67    7.26
 -10  -4 -10   36.48    4.71
 -10  -4 -10   47.57    4.49
 -10  -4  10   35.44    4.36
 -10  -4  10   35.13    3.88
 -10   4 -10   37.67    4.45
 -10   4 -10   46.01    4.22
 -10   4  10   24.86    3.80
  10  -4 -10   28.07    4.07
  10  -4 -10   33.55    3.64
  10  -4  10   41.92    4.32
  10  -4  10   61.49    6.28
  10   4 -10   41.63    4.54
  10   4 -10   42.55    4.07
  10   4  10   39.30    4.67
  10   4  10   51.42    4.53
 -10  -4 -11    3.26    4.31
 -10  -4 -11    7.02    4.02
 -10  -4  11   10.45    3.94
 -10  -4  11    8.75    3.64
 -10   4 -11    5.46    4.05
 -10   4 -11   12.14    3.88
  10  -4 -11    5.82    3.86
  10  -4 -11    6.38    3.40
  10  -4  11   11.23    4.16
  10  -4  11    9.89    3.75
  10   4 -11   13.24    4.37
  10   4 -11   11.01    3.70
  10   4  11    4.41    4.28
  10   4  11    8.03    3.98
 -10  -4 -12   -3.47    4.56
 -10  -4 -12   -2.10    4.10
 -10  -4  12    6.80    3.86
 -10  -4  12    3.03    3.56
 -10   4 -12   -7.27    4.13
 -10   4 -12   -4.87    3.91
  10  -4 -12   -6.36    3.83
  10  -4 -12    0.75    3.37
  10  -4  12   -6.36    4.12
  10  -4  12   -5.53    3.78
  10   4 -12    0.31    4.28
  10   4 -12    3.71    3.77
  10   4  12    0.50    4.34
  10   4  12   -0.83    4.02
 -10  -4 -13   -1.60    4.65
 -10  -4 -13   -2.03    4.04
 -10  -4  13    0.01    3.95
 -10  -4  13    2.65    3.73
 -10   4 -13   -2.84    4.29
 -10   4 -13   -9.33    3.88
  10  -4 -13   -0.07    4.00
  10  -4 -13   -2.20    3.44
  10  -4  13   -9.83    4.28
  10  -4  13   -9.05    4.06
  10   4 -13    4.31    4.39
  10   4 -13    0.62    3.73
  10   4  13    2.55    4.48
  10   4  13   -3.13    4.13
 -10  -4 -14   -1.38    4.88
 -10  -4 -14   -3.73    4.13
 -10  -4  14    1.61    4.29
 -10  -4  14   -1.11    4.41
 -10   4 -14  -12.59    4.74
  10  -4 -14    0.80    4.25
  10  -4 -14    0.22    3.66
  10  -4  14  -11.57    4.56
  10  -4  14  -11.61    4.24
  10   4 -14    0.87    4.45
  10   4 -14    2.69    4.08
  10   4  14   -6.71    4.59
  10   4  14   -2.33    4.27
 -10  -4 -15   -1.87    4.69
 -10  -4 -15    3.43    4.57
 -10  -4  15   -0.88    4.39
 -10   4 -15  -10.17    4.56
 -10   4 -15   -7.43    4.26
  10  -4 -15    2.94    4.44
  10  -4 -15   -1.08    3.77
  10  -4  15  -12.98    4.74
  10  -4  15  -11.16    4.41
  10   4 -15   -5.05    4.56
  10   4 -15   -6.43    4.13
  10   4  15    0.25    4.90
  10   4  15   -2.54    4.44
 -10  -4 -16   16.35    5.26
 -10  -4 -16   17.85    4.70
 -10   4 -16   15.56    5.17
 -10   4 -16   14.81    4.97
  10  -4 -16   16.41    4.79
  10  -4 -16   14.07    4.11
  10   4 -16   12.79    5.08
  10   4 -16   10.78    4.45
  10   4  16   24.85    5.48
  10   4  16   30.04    5.07
 -10  -4 -17    5.48    5.29
 -10  -4 -17   -0.86    4.36
 -10   4 -17   -0.26    4.51
  10  -4 -17   -0.66    4.60
  10  -4 -17   -3.12    3.89
  10   4 -17   -9.02    4.83
  10   4 -17   -2.19    4.32
  10   4  17    2.79    5.27
  10   4  17   -2.85    4.72
 -10  -6   0  291.81    6.16
 -10  -6  -1  604.62    7.59
 -10  -6   1  519.53    7.09
 -10  -6  -2  342.07    6.54
 -10  -6   2  299.80    6.39
 -10   6  -2  334.68    5.43
  10   6   2  348.39    6.62
 -10  -6  -3  174.24    5.91
 -10  -6   3  133.38    5.41
 -10   6  -3  156.18    4.91
  10   6  -3  144.51    5.60
  10   6   3  169.82    5.71
 -10  -6  -4   19.76    3.35
 -10  -6  -4   22.13    3.35
 -10  -6   4   13.66    2.90
 -10   6  -4   13.07    2.84
 -10   6  -4   17.65    2.47
 -10   6   4   18.74    2.65
  10  -6   4   18.94    2.92
  10   6  -4   12.86    3.05
  10   6   4   22.01    3.09
 -10  -6  -5    2.51    3.38
 -10  -6  -5    1.27    3.10
 -10  -6   5    0.30    2.72
 -10   6  -5    1.72    2.73
 -10   6  -5   -1.66    2.39
 -10   6   5    1.62    2.44
 -10   6   5    2.26    2.23
  10  -6   5   -1.67    2.73
  10   6  -5    1.34    2.94
  10   6   5    2.86    3.05
 -10  -6  -6  216.92    6.94
 -10  -6  -6  273.55    7.19
 -10  -6   6  207.26    6.64
 -10  -6   6  188.47    6.08
 -10   6  -6  206.16    5.99
 -10   6  -6  262.16    5.80
 -10   6   6  205.39    5.49
  10  -6   6  206.63    5.95
  10  -6   6  232.07    4.63
  10   6  -6  198.23    6.27
  10   6   6  243.46    7.07
  10   6   6  261.11    6.67
 -10  -6  -7  718.48    9.78
 -10  -6  -7  855.07    9.78
 -10  -6   7  688.73    9.42
 -10  -6   7  609.83    8.44
 -10   6  -7  669.26    8.55
 -10   6  -7  850.74    8.53
 -10   6   7  626.83    7.73
 -10   6   7  607.65    6.87
  10  -6  -7  685.97    8.18
  10  -6   7  710.19    8.78
  10  -6   7  775.14    7.12
  10   6  -7  644.00    8.74
  10   6   7  777.97   10.02
  10   6   7  885.90    9.82
 -10  -6  -8  584.88    9.62
 -10  -6  -8  655.86    9.42
 -10  -6   8  529.97    8.88
 -10  -6   8  486.13    8.16
 -10   6  -8  519.33    8.35
 -10   6  -8  641.47    8.13
 -10   6   8  488.68    7.49
 -10   6   8  507.40    7.03
  10  -6  -8  559.48    8.06
  10  -6  -8  560.47    6.29
  10  -6   8  542.51    8.51
  10  -6   8  670.95    7.35
  10   6  -8  535.81    8.59
  10   6   8  677.23    9.99
  10   6   8  702.04    9.38
 -10  -6  -9  235.51    7.91
 -10  -6  -9  281.11    8.14
 -10  -6   9  241.14    7.70
 -10  -6   9  213.44    7.16
 -10   6  -9  219.05    7.20
 -10   6  -9  282.92    7.16
 -10   6   9  201.16    6.38
  10  -6  -9  229.67    7.02
  10  -6  -9  228.54    5.85
  10  -6   9  253.82    7.35
  10  -6   9  281.14    6.45
  10   6  -9  217.30    7.33
  10   6   9  255.83    8.26
  10   6   9  305.68    7.97
 -10  -6 -10  165.37    8.06
 -10  -6 -10  177.06    7.90
 -10  -6  10  165.78    7.45
 -10  -6  10  162.65    7.05
 -10   6 -10  167.48    7.27
 -10   6 -10  219.04    7.28
  10  -6 -10  156.35    6.92
  10  -6 -10  160.55    5.99
  10  -6  10  177.14    7.23
  10  -6  10  227.76    6.77
  10   6 -10  196.54    8.25
  10   6 -10  153.97    7.02
  10   6  10  194.32    8.02
  10   6  10  214.15    8.12
 -10  -6 -11  111.46    7.93
 -10  -6 -11  115.47    7.71
 -10  -6  11  107.71    7.29
 -10  -6  11  108.63    7.24
 -10   6 -11  118.37    7.49
 -10   6 -11  128.09    7.21
  10  -6 -11   93.91    6.84
  10  -6 -11   91.99    5.92
  10  -6  11  133.42    7.53
  10  -6  11  149.50    6.89
  10   6 -11  114.89    8.00
  10   6 -11  101.58    7.04
  10   6  11  129.47    8.25
  10   6  11  140.20    7.74
 -10  -6 -12   42.91    5.18
 -10  -6 -12   45.78    4.84
 -10  -6  12   45.68    4.86
 -10  -6  12   41.91    4.34
 -10   6 -12   35.93    4.71
 -10   6 -12   50.60    4.71
  10  -6 -12   36.14    4.45
  10  -6 -12   36.33    3.77
  10  -6  12   42.95    4.86
  10  -6  12   68.83    6.86
  10   6 -12   41.94    5.04
  10   6 -12   42.64    4.40
  10   6  12   49.88    5.37
  10   6  12   48.72    4.80
 -10  -6 -13    4.95    4.62
 -10  -6 -13    9.30    4.26
 -10  -6  13    8.75    4.32
 -10  -6  13    7.81    3.96
 -10   6 -13    2.75    4.38
 -10   6 -13    6.13    4.35
  10  -6 -13   12.47    4.14
  10  -6 -13    6.08    3.47
  10  -6  13    4.05    4.46
  10  -6  13    9.37    4.20
  10   6 -13    8.45    4.59
  10   6 -13   11.35    4.10
  10   6  13    6.73    4.77
  10   6  13   11.78    4.50
 -10  -6 -14    2.30    4.71
 -10  -6 -14    5.32    4.34
 -10  -6  14   -0.96    4.19
 -10  -6  14    2.15    3.97
 -10   6 -14   -4.18    4.71
 -10   6 -14   -7.77    4.24
  10  -6 -14   -1.42    4.15
  10  -6 -14   -1.61    3.47
  10  -6  14   -6.22    4.66
  10  -6  14   -6.09    4.19
  10   6 -14    0.65    4.61
  10   6 -14   -1.70    4.12
  10   6  14    1.17    4.86
  10   6  14    1.30    4.36
 -10  -6 -15    4.59    5.09
 -10  -6 -15   -4.09    4.24
 -10  -6  15   -5.88    4.21
 -10  -6  15    0.83    3.97
 -10   6 -15   -8.06    4.68
 -10   6 -15   -3.63    4.42
  10  -6 -15   -1.39    4.37
  10  -6 -15   -4.58    3.60
  10  -6  15   -5.99    4.71
  10  -6  15   -1.55    5.16
  10   6 -15   -0.35    4.91
  10   6 -15   -8.04    4.00
  10   6  15   -0.70    5.04
  10   6  15    3.09    4.67
 -10  -6 -16   40.55    5.73
 -10  -6 -16   34.99    4.95
 -10  -6  16   39.42    5.33
 -10   6 -16   38.14    7.66
 -10   6 -16   38.44    5.13
  10  -6 -16   36.69    5.04
  10  -6 -16   33.39    4.19
  10   6 -16   37.01    5.59
  10   6 -16   28.36    4.79
  10   6  16   50.98    6.02
  10   6  16   46.42    5.38
 -10  -6 -17   33.67    5.79
 -10  -6 -17   23.29    4.74
 -10   6 -17   26.12    5.18
  10  -6 -17   26.51    5.15
  10  -6 -17   26.02    4.25
  10   6 -17   23.93    5.54
  10   6 -17   21.25    4.77
  10   6  17   36.38    5.85
  10   6  17   32.47    5.40
 -10  -8  -1  885.01    9.00
 -10  -8   1  844.07    8.93
 -10  -8   1  718.13    8.30
 -10  -8  -2  280.86    6.62
 -10  -8   2  219.37    6.05
 -10   8  -2  256.90    4.98
  10   8   2  275.83    6.44
 -10  -8  -3   31.23    3.57
 -10  -8   3   26.70    3.22
 -10   8  -3   30.49    2.83
  10   8  -3   20.99    3.19
  10   8   3   32.20    3.38
 -10  -8  -4   41.62    3.90
 -10  -8  -4   46.97    5.62
 -10  -8   4   33.33    3.29
 -10   8  -4   42.83    4.34
 -10   8  -4   43.09    3.68
 -10   8   4   10.50    1.51
  10  -8   4   43.92    4.34
  10   8  -4   33.05    3.52
  10   8   4   55.43    5.39
 -10  -8  -5  182.65    6.75
 -10  -8  -5  218.34    6.77
 -10  -8   5  143.33    5.81
 -10   8  -5  168.07    5.36
 -10   8  -5  212.85    4.76
 -10   8   5  151.13    4.75
 -10   8   5  163.58    4.21
  10  -8   5  171.72    5.39
  10   8  -5  173.80    6.53
  10   8   5  210.62    6.58
 -10  -8  -6   90.69    6.46
 -10  -8  -6  100.27    6.49
 -10  -8   6   70.45    5.62
 -10   8  -6   74.00    5.12
 -10   8  -6   85.50    4.71
 -10   8   6   73.87    4.58
 -10   8   6   73.63    4.22
  10  -8   6   73.19    5.13
  10   8  -6   77.27    5.97
  10   8   6  105.33    6.06
 -10  -8  -7    9.53    3.73
 -10  -8  -7    8.48    3.54
 -10  -8   7    6.70    3.51
 -10  -8   7    5.80    3.22
 -10   8  -7    1.89    3.25
 -10   8  -7    2.17    2.96
 -10   8   7   15.45    2.82
 -10   8   7    8.21    2.51
  10  -8  -7    8.09    2.92
  10  -8   7   -2.59    3.16
  10  -8   7   10.12    2.24
  10   8  -7    5.11    3.41
  10   8   7   10.64    3.79
  10   8   7   11.12    3.62
 -10  -8  -8   49.66    4.67
 -10  -8  -8   49.81    4.35
 -10  -8   8   37.93    4.22
 -10  -8   8   33.35    3.86
 -10   8  -8   29.47    3.85
 -10   8  -8   42.36    3.70
  10  -8  -8   56.48    5.39
  10  -8   8   29.02    3.78
  10  -8   8   38.75    4.37
  10   8  -8   32.52    3.97
  10   8   8   53.84    6.43
  10   8   8   58.41    6.35
 -10  -8  -9  202.96    8.01
 -10  -8  -9  247.36    7.94
 -10  -8   9  204.30    7.64
 -10  -8   9  178.41    7.26
 -10   8  -9  183.89    6.86
 -10   8  -9  231.29    6.80
  10  -8  -9  207.56    6.50
  10  -8  -9  220.11    5.18
  10  -8   9  201.24    7.11
  10  -8   9  234.15    5.96
  10   8  -9  178.97    7.28
  10   8   9  244.60    8.34
  10   8   9  269.53    7.94
 -10  -8 -10  199.99    8.39
 -10  -8 -10  226.58    8.15
 -10  -8  10  170.17    7.82
 -10  -8  10  164.67    7.33
 -10   8 -10  179.86    7.36
 -10   8 -10  209.58    7.19
  10  -8 -10  173.36    6.82
  10  -8 -10  187.16    5.54
  10  -8  10  193.56    7.50
  10  -8  10  242.43    6.29
  10   8 -10  168.21    7.45
  10   8  10  230.36    8.38
  10   8  10  250.26    8.18
 -10  -8 -11   67.96    7.70
 -10  -8 -11   81.09    7.49
 -10  -8  11   53.29    5.02
 -10  -8  11   43.45    4.38
 -10   8 -11   59.77    6.74
 -10   8 -11   89.00    6.82
  10  -8 -11   62.47    6.40
  10  -8 -11   65.99    5.44
  10  -8  11   72.35    7.10
  10  -8  11   95.48    6.22
  10   8 -11   61.20    5.36
  10   8 -11   53.12    4.65
  10   8  11   89.29    7.89
  10   8  11   82.27    7.51
 -10  -8 -12    4.04    4.57
 -10  -8 -12   -4.04    4.06
 -10  -8  12    1.21    4.17
 -10  -8  12   -3.74    3.69
 -10   8 -12    0.19    3.97
 -10   8 -12    4.11    3.99
  10  -8 -12    1.87    3.72
  10  -8 -12    2.31    3.20
  10  -8  12    3.46    4.25
  10  -8  12    2.17    3.70
  10   8 -12    1.60    4.53
  10   8 -12   -1.49    3.88
  10   8  12    1.04    4.59
  10   8  12   -0.19    4.01
 -10  -8 -13    1.11    4.61
 -10  -8 -13    0.44    4.21
 -10  -8  13   -1.86    4.16
 -10  -8  13   -0.41    3.86
 -10   8 -13   -4.61    4.41
 -10   8 -13   -2.70    4.15
  10  -8 -13    2.75    4.03
  10  -8 -13    0.02    3.31
  10  -8  13   -0.09    4.42
  10  -8  13   -5.48    3.84
  10   8 -13    0.07    4.69
  10   8 -13    1.43    4.14
  10   8  13   -0.93    4.75
  10   8  13   -0.49    4.28
 -10  -8 -14   32.56    5.32
 -10  -8 -14   25.19    4.76
 -10  -8  14   30.29    4.94
 -10  -8  14   28.17    4.47
 -10   8 -14   32.30    5.40
 -10   8 -14   28.16    4.69
  10  -8 -14   31.15    4.63
  10  -8 -14   28.45    3.95
  10  -8  14   21.96    4.98
  10  -8  14   36.17    4.69
  10   8 -14   32.67    5.44
  10   8 -14   27.83    4.84
  10   8  14   38.40    5.73
  10   8  14   43.41    5.08
 -10  -8 -15  129.66    9.43
 -10  -8 -15  129.03    8.91
 -10  -8  15  138.09    8.57
 -10  -8  15  116.50    7.74
 -10   8 -15  125.26    8.81
 -10   8 -15  156.84    8.61
  10  -8 -15  149.52    8.40
  10  -8 -15  117.38    6.68
  10   8 -15  159.27    9.77
  10   8 -15  129.35    8.33
  10   8  15  162.28    9.66
  10   8  15  171.28    9.38
 -10  -8 -16   32.15    5.48
 -10  -8 -16   30.20    4.89
 -10  -8  16   30.82    5.16
 -10  -8  16   25.20    4.49
 -10   8 -16   32.38    4.96
  10  -8 -16   30.44    5.04
  10  -8 -16   26.85    4.10
  10   8 -16   29.86    5.58
  10   8 -16   29.24    4.71
  10   8  16   42.47    6.09
  10   8  16   40.35    5.35
 -10  -8 -17   21.23    5.47
 -10  -8 -17   19.01    4.79
 -10  -8  17   22.49    5.24
 -10  -8  17   16.82    4.80
  10  -8 -17   17.05    4.99
  10  -8 -17   15.62    4.14
  10   8 -17   31.93    5.85
  10   8 -17   17.10    4.67
  10   8  17   30.48    6.00
  10   8  17   29.76    5.29
 -10 -10   0  237.09    6.32
 -10 -10   0  210.10    6.18
 -10 -10  -1  345.54    7.00
 -10 -10  -1  275.16    6.42
 -10 -10   1  322.62    6.73
 -10 -10   1  265.07    6.45
 -10  10  -1  319.76    4.66
  10  10   1  329.63    6.83
 -10 -10  -2    6.21    3.13
 -10 -10   2    8.01    3.00
 -10 -10   2    3.59    3.02
 -10  10  -2    3.80    2.21
  10  10  -2    7.66    3.13
  10  10   2    7.14    3.03
 -10 -10  -3    8.93    3.25
 -10 -10   3    5.84    2.99
 -10  10  -3    4.28    2.31
 -10  10   3    3.83    2.18
  10  10  -3    4.35    3.12
  10  10   3    5.73    3.11
 -10 -10  -4    4.65    3.41
 -10 -10  -4    4.34    3.35
 -10 -10   4    2.85    2.94
 -10  10  -4    4.32    2.53
 -10  10   4   -0.62    2.27
  10 -10   4    1.65    2.38
  10  10  -4   -0.40    3.18
  10  10   4    6.34    3.15
 -10 -10  -5   19.19    3.97
 -10 -10  -5   14.67    3.62
 -10 -10   5   11.71    3.18
 -10  10  -5   11.55    2.81
 -10  10  -5   20.36    2.34
  10 -10   5   14.45    2.91
  10  10  -5   13.58    3.40
  10  10   5   18.43    3.50
 -10 -10  -6   10.04    3.97
 -10 -10  -6   10.73    3.56
 -10 -10   6    5.05    3.15
 -10  10  -6    8.25    2.91
 -10  10  -6    6.16    2.53
 -10  10   6    3.86    2.14
 -10  10   6    5.03    2.32
  10 -10  -6    4.06    2.73
  10 -10   6    6.82    3.00
  10  10  -6    3.52    3.31
  10  10   6   11.98    3.58
 -10 -10  -7    4.54    3.65
 -10 -10  -7    0.44    3.37
 -10 -10   7   -2.32    3.46
 -10 -10   7   -2.98    3.10
 -10  10  -7   -5.22    2.97
 -10  10  -7   -6.76    2.68
 -10  10   7   -0.74    2.73
  10 -10  -7    1.76    2.76
  10 -10   7   -2.86    3.07
  10  10  -7   -4.15    3.35
  10  10   7    6.12    3.70
  10  10   7    2.54    3.56
 -10 -10  -8   -0.22    3.81
 -10 -10  -8   -3.08    3.64
 -10 -10   8    0.03    3.63
 -10 -10   8   -6.85    3.29
  10 -10  -8    3.41    2.97
  10 -10   8    0.97    2.15
  10  10  -8   -6.84    3.52
  10  10   8   -0.79    3.80
  10  10   8    2.22    3.64
 -10 -10  -9   13.26    4.09
 -10 -10  -9    9.80    4.00
 -10 -10   9    0.96    3.97
 -10 -10   9    4.82    3.73
 -10  10  -9   -1.38    3.64
 -10  10  -9    3.48    3.48
  10 -10  -9   12.31    3.35
  10 -10   9   -1.09    3.60
  10 -10   9   11.83    2.66
  10  10  -9   -5.55    3.78
  10  10   9    9.60    4.11
  10  10   9   18.51    4.09
 -10 -10 -10   11.05    4.24
 -10 -10 -10   15.13    4.17
 -10 -10  10    4.48    4.25
 -10 -10  10   -2.85    3.66
 -10  10 -10    9.93    3.87
 -10  10 -10   10.48    3.66
  10 -10 -10   13.10    3.50
  10 -10 -10   12.36    2.63
  10 -10  10    4.79    3.88
  10 -10  10   14.26    3.01
  10  10 -10    3.64    3.92
  10  10  10   15.20    4.47
  10  10  10   13.91    4.25
 -10 -10 -11    5.26    4.35
 -10 -10 -11   14.59    4.29
 -10 -10  11    1.51    4.09
 -10 -10  11    0.37    3.77
 -10  10 -11    0.97    3.93
 -10  10 -11    6.07    3.75
  10 -10 -11    6.11    3.55
  10 -10 -11    7.32    2.86
  10 -10  11    3.80    3.91
  10 -10  11    6.73    3.16
  10  10 -11    2.78    4.08
  10  10  11    6.02    4.50
  10  10  11    7.78    4.17
 -10 -10 -12    0.72    4.62
 -10 -10 -12   -3.91    3.91
 -10 -10  12    0.06    4.25
 -10 -10  12    0.30    3.79
 -10  10 -12    0.29    4.17
 -10  10 -12    2.67    3.93
  10 -10 -12    2.70    3.78
  10 -10 -12    1.81    2.95
  10 -10  12    2.62    4.20
  10 -10  12   -1.11    3.59
  10  10 -12   -0.64    4.56
  10  10 -12   -1.46    3.89
  10  10  12   -3.48    4.41
  10  10  12   -2.06    4.08
 -10 -10 -13   11.31    4.86
 -10 -10 -13   12.32    4.43
 -10 -10  13   15.28    4.61
 -10 -10  13   17.86    4.23
 -10  10 -13   13.62    4.67
 -10  10 -13   13.01    4.22
  10 -10 -13   18.80    4.31
  10 -10 -13   17.31    3.51
  10 -10  13   13.86    4.51
  10 -10  13   18.50    4.05
  10  10 -13   14.10    4.99
  10  10 -13   12.13    4.51
  10  10  13   20.85    5.27
  10  10  13   14.91    4.58
 -10 -10 -14    4.15    4.92
 -10 -10 -14    4.04    4.73
 -10 -10  14    6.11    4.58
 -10 -10  14    0.78    3.93
 -10  10 -14    0.66    4.68
 -10  10 -14    6.57    4.36
  10 -10 -14    2.84    4.10
  10 -10 -14    2.98    3.36
  10 -10  14    6.27    4.61
  10 -10  14   11.90    4.23
  10  10 -14    3.24    5.01
  10  10 -14    0.45    4.21
  10  10  14   -1.52    5.19
  10  10  14   -1.65    4.59
 -10 -10 -15  -12.19    4.72
 -10 -10 -15  -10.27    4.33
 -10 -10  15   -7.70    4.35
 -10 -10  15    0.17    4.07
 -10  10 -15    4.10    4.46
  10 -10 -15   -8.40    4.07
  10 -10 -15   -6.16    3.39
  10  10 -15   -9.45    4.78
  10  10 -15   -6.04    4.23
  10  10  15   -7.26    4.52
 -10 -10 -16    6.24    5.12
 -10 -10 -16   10.02    4.62
 -10 -10  16    7.20    4.72
 -10 -10  16    8.78    4.32
  10 -10 -16   -0.14    4.41
  10 -10 -16   -3.65    3.59
  10  10 -16   12.36    5.52
  10  10 -16    4.76    4.43
 -10 -12   0  118.13    5.96
 -10 -12   0   82.01    5.60
 -10 -12  -1  288.92    6.92
 -10 -12  -1  205.55    6.39
 -10 -12   1  262.92    6.54
 -10 -12   1  204.46    6.32
 -10  12  -1  233.54    4.07
  10  12   1  273.23    6.79
 -10 -12  -2   64.81    5.97
 -10 -12  -2   43.80    3.66
 -10 -12   2   50.84    5.42
 -10 -12   2   40.09    3.67
 -10  12  -2   44.26    3.51
 -10  12   2   50.55    3.43
  10  12  -2   48.08    5.70
  10  12   2   49.14    5.56
 -10 -12  -3   55.11    4.16
 -10 -12   3   36.01    3.61
 -10  12  -3   40.54    3.77
 -10  12   3   33.71    3.55
  10  12  -3   37.91    3.88
  10  12   3   50.46    3.87
 -10 -12  -4   90.25    6.53
 -10 -12  -4  100.27    6.26
 -10 -12   4   74.22    5.86
 -10  12  -4   78.58    4.25
 -10  12   4   63.56    3.83
  10 -12   4   93.01    4.37
  10  12  -4   67.27    6.09
  10  12   4  106.25    6.13
 -10 -12  -5  117.53    6.89
 -10 -12  -5  112.34    6.47
 -10 -12   5   80.72    5.95
 -10  12  -5   88.41    4.52
 -10  12  -5  115.11    3.76
 -10  12   5   69.10    4.21
  10 -12   5  102.65    4.79
  10  12  -5   93.35    6.52
  10  12   5  119.70    6.44
 -10 -12  -6  149.43    7.34
 -10 -12  -6  144.33    7.06
 -10 -12   6  106.77    6.19
 -10  12  -6  101.17    5.05
 -10  12  -6  154.86    4.47
 -10  12   6  108.67    3.94
  10 -12  -6  106.42    5.02
  10 -12   6  122.08    5.30
  10  12  -6  113.55    6.86
  10  12   6  147.84    6.97
 -10 -12  -7  112.19    7.22
 -10 -12  -7  116.83    7.17
 -10 -12   7   95.02    6.71
 -10 -12   7   82.29    6.22
 -10  12  -7   88.32    5.38
 -10  12  -7  120.36    5.06
  10 -12  -7   88.33    5.29
  10 -12   7   94.60    5.49
  10  12  -7   88.27    6.60
  10  12   7  127.79    7.01
 -10 -12  -8   57.85    6.93
 -10 -12  -8   48.40    4.34
 -10 -12   8   37.53    4.48
 -10 -12   8   31.87    3.90
 -10  12  -8   32.25    3.78
 -10  12  -8   45.99    5.28
  10 -12  -8   43.40    5.16
  10 -12   8   37.41    3.78
  10  12  -8   30.20    4.24
  10  12   8   51.64    4.85
  10  12   8   55.94    6.82
 -10 -12  -9   16.11    4.36
 -10 -12  -9   12.70    3.94
 -10 -12   9    8.50    4.22
 -10 -12   9    4.05    3.64
 -10  12  -9    7.77    3.61
 -10  12  -9   11.15    3.43
  10 -12  -9   10.67    3.25
  10 -12   9    9.40    3.68
  10  12  -9    7.27    3.86
  10  12   9   18.35    4.32
  10  12   9   14.31    4.18
 -10 -12 -10   22.65    4.62
 -10 -12 -10   17.33    4.17
 -10 -12  10   20.59    4.45
 -10 -12  10   12.71    3.86
 -10  12 -10   12.84    3.97
 -10  12 -10   22.48    3.87
  10 -12 -10   22.84    3.60
  10 -12  10   15.75    3.91
  10 -12  10   24.69    2.80
  10  12 -10    8.92    4.04
  10  12  10   19.72    4.52
  10  12  10   16.87    4.30
 -10 -12 -11   20.33    5.01
 -10 -12 -11   19.37    4.30
 -10 -12  11    9.45    4.47
 -10 -12  11   12.61    4.02
 -10  12 -11   13.01    4.09
 -10  12 -11   16.79    3.89
  10 -12 -11   11.71    3.74
  10 -12 -11   20.39    2.62
  10 -12  11   11.07    4.06
  10 -12  11   21.15    3.18
  10  12 -11   14.85    4.24
  10  12  11   19.91    4.87
  10  12  11   24.94    4.59
 -10 -12 -12   17.69    4.91
 -10 -12 -12   24.01    4.51
 -10 -12  12   22.53    4.80
 -10 -12  12   15.98    4.22
 -10  12 -12   17.12    4.57
 -10  12 -12   24.45    4.26
  10 -12 -12   20.21    4.12
  10 -12 -12   23.05    3.01
  10 -12  12   22.04    4.49
  10 -12  12   29.34    3.74
  10  12 -12   17.95    4.49
  10  12  12   29.66    5.45
  10  12  12   17.64    4.54
 -10 -12 -13   46.66    5.85
 -10 -12 -13   45.15    5.14
 -10 -12  13   44.62    5.34
 -10 -12  13   44.55    4.90
 -10  12 -13   40.97    5.16
 -10  12 -13   62.33    7.43
  10 -12 -13   68.77    6.84
  10 -12 -13   58.44    5.28
  10 -12  13   43.31    5.09
  10 -12  13   79.77    6.68
  10  12 -13   57.39    6.14
  10  12 -13   34.88    4.93
  10  12  13   57.52    6.03
 -10 -12 -14   42.55    5.83
 -10 -12 -14   30.52    4.86
 -10 -12  14   44.87    5.41
 -10 -12  14   37.54    4.73
 -10  12 -14   37.16    6.30
 -10  12 -14   47.21    5.08
  10 -12 -14   40.96    4.74
  10 -12 -14   53.26    5.51
  10 -12  14   70.56    8.36
  10  12 -14   42.99    5.97
  10  12 -14   33.33    4.77
 -10 -12 -15   17.20    5.58
 -10 -12 -15    0.68    4.38
 -10 -12  15   19.48    5.12
 -10 -12  15   12.75    4.36
  10 -12 -15   17.26    4.43
  10 -12 -15   14.84    3.50
  10  12 -15   17.62    5.61
  10  12 -15    9.78    4.70
 -10 -12 -16   28.35    5.47
 -10 -12 -16   30.80    5.11
 -10 -12  16   27.53    5.45
 -10 -12  16   35.15    4.86
  10 -12 -16   23.95    4.95
  10 -12 -16   23.66    3.92
  10  12 -16   36.31    6.30
  10  12 -16   31.24    5.03
 -10 -14   0  571.50    8.30
 -10 -14   0  415.72    7.62
  10  14   0  525.84    8.41
 -10 -14  -1  184.97    6.54
 -10 -14  -1  147.61    6.48
 -10 -14   1  184.44    6.27
 -10 -14   1  139.36    6.33
  10  14  -1  138.75    6.35
  10  14   1  168.62    6.46
 -10 -14  -2  207.02    6.85
 -10 -14  -2  163.70    6.46
 -10 -14   2  193.37    6.49
 -10 -14   2  163.95    6.46
 -10  14  -2  159.76    3.83
  10  14  -2  160.46    6.70
  10  14   2  180.71    6.64
 -10 -14  -3  247.52    7.16
 -10 -14  -3  194.50    6.69
 -10 -14   3  233.11    6.73
 -10 -14   3  177.82    6.57
 -10  14  -3  170.14    4.20
 -10  14   3  179.33    3.89
  10  14  -3  186.28    7.27
  10  14   3  233.21    7.01
 -10 -14  -4  248.84    7.81
 -10 -14  -4  264.71    7.25
 -10 -14   4  172.91    6.53
 -10  14  -4  189.01    4.59
 -10  14   4  203.55    5.17
  10 -14   4  242.99    5.00
  10  14  -4  207.42    7.17
  10  14   4  270.56    7.28
 -10 -14  -5  212.06    7.74
 -10 -14  -5  228.78    7.46
 -10 -14   5  165.12    6.64
 -10  14  -5  165.07    4.90
  10 -14   5  212.73    5.34
  10  14  -5  177.19    7.48
  10  14   5  246.96    7.36
 -10 -14  -6  120.97    7.48
 -10 -14  -6  114.19    7.01
 -10 -14   6   75.46    6.41
 -10  14  -6   84.81    4.99
 -10  14  -6  121.50    4.13
  10 -14  -6   84.96    4.82
  10 -14   6   98.71    5.21
  10  14  -6   89.40    6.80
  10  14   6  108.40    6.98
 -10 -14  -7   59.58    7.15
 -10 -14  -7   56.15    6.68
 -10 -14   7   56.58    6.79
 -10 -14   7   32.25    3.97
 -10  14  -7   36.65    3.48
 -10  14  -7   64.33    4.66
  10 -14  -7   39.35    4.89
  10 -14   7   48.15    5.14
  10  14  -7   38.12    4.25
  10  14   7   63.28    6.91
 -10 -14  -8   64.44    7.32
 -10 -14  -8   70.97    6.98
 -10 -14   8   61.85    6.92
 -10 -14   8   45.69    4.26
 -10  14  -8   54.59    5.64
 -10  14  -8   66.24    5.25
  10 -14  -8   58.69    5.27
  10 -14   8   61.22    5.78
  10  14  -8   43.66    4.36
  10  14   8   78.14    7.16
 -10 -14  -9   65.41    7.52
 -10 -14  -9   73.62    7.10
 -10 -14   9   60.31    7.16
 -10 -14   9   45.32    4.33
 -10  14  -9   48.02    4.18
 -10  14  -9   74.91    5.76
  10 -14  -9   55.19    5.43
  10 -14   9   52.14    6.07
  10  14  -9   59.09    7.00
  10  14   9   65.25    7.58
  10  14   9   86.32    7.54
 -10 -14 -10   11.80    4.60
 -10 -14 -10   10.49    4.12
 -10 -14  10   18.30    4.49
 -10 -14  10    6.69    3.81
 -10  14 -10   10.00    3.87
 -10  14 -10   13.95    3.67
  10 -14 -10    7.68    3.50
  10 -14  10    5.62    3.72
  10  14 -10    4.27    4.05
  10  14  10    7.95    4.52
  10  14  10   15.42    4.97
 -10 -14 -11    4.64    4.61
 -10 -14 -11    9.17    4.25
 -10 -14  11    6.53    4.48
 -10 -14  11    6.50    4.01
 -10  14 -11    1.87    4.08
 -10  14 -11    5.06    3.81
  10 -14 -11    4.55    3.67
  10 -14  11    1.15    3.99
  10 -14  11    5.39    2.68
  10  14 -11    6.49    4.21
  10  14  11    5.68    4.61
 -10 -14 -12   34.04    5.35
 -10 -14 -12   36.97    4.74
 -10 -14  12   33.51    5.20
 -10 -14  12   31.70    4.53
 -10  14 -12   28.19    4.86
 -10  14 -12   35.48    4.53
  10 -14 -12   37.05    4.27
  10 -14  12   31.74    4.75
  10 -14  12   44.65    3.55
  10  14 -12   38.24    4.83
 -10 -14 -13   64.63    6.11
 -10 -14 -13   78.43    8.48
 -10 -14  13   73.39    8.41
 -10 -14  13   66.80    7.44
 -10  14 -13   50.24    5.41
 -10  14 -13   59.51    7.42
  10 -14 -13   73.46    6.92
  10 -14 -13   89.48    4.86
  10 -14  13   77.53    6.18
  10  14 -13   54.04    5.29
 -10 -14 -14   87.46    9.06
 -10 -14 -14   86.52    8.08
 -10 -14  14   62.75    6.00
 -10 -14  14   85.36    7.94
  10 -14 -14   92.51    7.27
  10 -14 -14  105.28    5.35
  10  14 -14  108.70    9.80
  10  14 -14   77.39    8.33
 -10 -14 -15   91.07    9.09
 -10 -14 -15   88.23    8.36
 -10 -14  15   79.50   10.74
  10 -14 -15  100.56    7.53
  10 -14 -15   87.89    5.53
  10  14 -15   77.71    7.13
  10  14 -15   58.84    5.75
 -10 -16   0   22.32    3.71
 -10 -16   0   17.99    3.57
  10  16   0   20.38    3.71
 -10 -16  -1   27.08    3.70
 -10 -16  -1   20.25    3.72
 -10 -16   1   28.58    3.71
 -10 -16   1   18.88    3.63
  10  16  -1   19.41    3.70
  10  16   1   30.30    3.88
 -10 -16  -2   71.08    6.45
 -10 -16  -2   55.49    6.25
 -10 -16   2   73.81    5.89
 -10 -16   2   44.16    3.97
  10  16  -2   47.81    4.29
  10  16   2   73.93    6.30
 -10 -16  -3   56.40    6.47
 -10 -16  -3   45.41    4.04
 -10 -16   3   61.91    5.93
 -10 -16   3   38.45    3.89
  10  16  -3   36.33    4.08
  10  16   3   64.33    6.27
 -10 -16  -4   25.64    4.35
 -10 -16  -4   26.94    3.92
 -10 -16  -4   22.51    3.78
 -10 -16   4   27.72    3.70
 -10 -16   4   14.93    3.61
 -10  16  -4   12.97    2.47
  10 -16   4   20.32    2.63
  10  16  -4   13.33    3.79
  10  16   4   30.07    3.95
 -10 -16  -5   16.88    4.34
 -10 -16  -5   16.49    3.88
 -10 -16   5    8.61    3.53
 -10  16  -5   14.81    2.73
  10 -16   5   16.92    2.86
  10  16  -5    6.43    3.77
  10  16   5   21.31    4.00
 -10 -16  -6   46.21    4.87
 -10 -16  -6   49.95    4.44
 -10 -16   6   27.73    3.85
 -10  16  -6   41.50    4.76
  10 -16  -6   34.13    3.04
  10 -16   6   42.40    4.85
  10  16  -6   39.06    4.53
  10  16   6   50.07    4.50
 -10 -16  -7   76.68    7.55
 -10 -16  -7   78.51    6.86
 -10 -16   7   63.58    7.10
 -10 -16   7   64.35    6.38
 -10  16  -7   58.15    5.29
 -10  16  -7   88.20    4.54
  10 -16  -7   54.58    4.88
  10 -16   7   65.73    5.39
  10  16  -7   67.07    6.98
 -10 -16  -8   47.45    5.03
 -10 -16  -8   45.57    4.50
 -10 -16   8   51.35    5.21
 -10 -16   8   39.94    4.41
 -10  16  -8   48.03    5.50
 -10  16  -8   61.33    5.09
  10 -16  -8   36.56    3.43
  10 -16   8   48.24    5.65
  10  16  -8   38.73    4.64
 -10 -16  -9    4.04    4.42
 -10 -16  -9    6.91    4.05
 -10 -16   9    7.83    4.31
 -10 -16   9    9.98    4.10
 -10  16  -9    9.09    3.61
 -10  16  -9    9.79    3.23
  10 -16  -9    7.61    3.25
  10 -16   9   10.58    3.57
  10  16  -9    0.07    3.89
 -10 -16 -10   -2.76    4.53
 -10 -16 -10   -2.10    4.12
 -10 -16  10    3.99    4.58
 -10 -16  10   -0.02    3.85
 -10  16 -10    3.99    3.73
 -10  16 -10    2.36    3.56
  10 -16 -10   -4.79    3.34
  10 -16  10    0.83    3.69
  10  16 -10    3.33    4.46
 -10 -16 -11   -6.93    4.47
 -10 -16 -11   -3.62    4.04
 -10 -16  11    4.08    4.65
 -10 -16  11    3.86    3.98
 -10  16 -11   -4.39    3.99
 -10  16 -11   -5.52    3.66
  10 -16 -11   -6.89    3.55
  10 -16  11    0.26    4.02
  10  16 -11    4.38    4.40
 -10 -16 -12   -7.00    4.72
 -10 -16 -12   -4.41    4.21
 -10 -16  12    0.62    4.73
 -10 -16  12   -2.74    3.82
 -10  16 -12   -7.08    4.22
 -10  16 -12  -10.12    3.88
  10 -16 -12   -9.82    3.66
  10 -16  12   -6.40    4.21
  10  16 -12    3.28    4.47
 -10 -16 -13    6.69    5.05
 -10 -16 -13    2.06    4.17
 -10 -16  13    2.40    4.89
 -10 -16  13    3.86    4.28
  10 -16 -13    2.07    3.84
  10 -16  13   -7.23    2.98
  10  16 -13    0.50    4.55
 -10 -16 -14   10.70    5.31
 -10 -16 -14   11.27    4.42
  10 -16 -14    9.65    3.99
  10 -16  14    5.52    5.81
  10  16 -14   -7.21    4.64
 -10 -16 -15   10.28    5.18
 -10 -16 -15   14.36    4.46
  10 -16 -15    6.52    4.13
  10 -16 -15    9.99    3.01
  10  16 -15   -7.09    4.86
 -10 -18   0   29.14    4.01
 -10 -18   0   25.61    3.83
  10  18   0   28.49    4.04
 -10 -18  -1  118.83    6.86
 -10 -18  -1   83.11    6.40
 -10 -18   1  116.38    6.72
 -10 -18   1   83.53    6.13
  10  18  -1   86.68    6.47
 -10 -18  -2   54.92    6.49
 -10 -18  -2   43.53    4.29
 -10 -18   2   61.92    6.47
 -10 -18   2   41.10    3.97
  10  18  -2   41.13    4.42
 -10 -18  -3   45.49    4.34
 -10 -18  -3   31.66    4.05
 -10 -18   3   51.26    6.00
 -10 -18   3   34.85    3.97
  10  18  -3   31.59    4.24
 -10 -18  -4   53.00    4.92
 -10 -18  -4   69.30    6.76
 -10 -18  -4   56.10    6.41
 -10 -18   4   66.68    6.44
 -10 -18   4   42.21    4.15
  10  18  -4   49.92    4.61
 -10 -18  -5   24.82    4.51
 -10 -18  -5   27.95    4.05
 -10 -18  -5   17.64    3.94
 -10 -18   5   32.33    3.95
 -10 -18   5   16.07    3.79
 -10  18  -5   16.00    2.69
  10 -18   5   20.75    2.86
  10  18  -5   22.70    4.25
 -10 -18  -6   -1.98    4.24
 -10 -18  -6   -1.87    3.74
 -10 -18   6   -0.11    3.53
 -10  18  -6    1.41    2.75
  10 -18  -6   -0.61    2.49
  10 -18   6    2.18    2.82
  10  18  -6   -0.13    3.98
 -10 -18  -7   18.70    5.02
 -10 -18  -7   16.72    4.08
 -10 -18   7   13.79    4.69
 -10 -18   7   15.90    4.01
 -10  18  -7   15.72    3.08
  10 -18  -7   18.33    2.94
  10 -18   7   15.39    3.32
  10  18  -7   13.54    4.23
 -10 -18  -8    1.35    4.51
 -10 -18  -8    1.22    4.02
 -10 -18   8    3.22    4.50
 -10 -18   8    4.49    3.90
 -10  18  -8    2.51    3.17
 -10  18  -8    3.31    2.87
  10 -18  -8    5.57    2.97
  10 -18   8    0.11    3.32
  10  18  -8    5.04    4.30
 -10 -18  -9   -7.56    4.44
 -10 -18  -9   -4.85    4.04
 -10 -18   9   -1.20    4.47
 -10 -18   9   -2.28    3.81
 -10  18  -9   -1.17    3.41
 -10  18  -9    1.23    3.12
  10 -18  -9   -3.63    3.14
  10 -18   9   -1.31    3.56
  10  18  -9   -1.20    4.29
 -10 -18 -10   20.77    5.14
 -10 -18 -10   12.50    4.35
 -10 -18  10   15.94    4.77
 -10 -18  10   22.41    4.34
 -10  18 -10   20.75    3.95
 -10  18 -10   27.80    3.74
  10 -18 -10   16.97    3.64
  10 -18  10   26.11    4.15
  10  18 -10   15.17    4.71
 -10 -18 -11   21.13    5.14
 -10 -18 -11   24.20    4.56
 -10 -18  11   24.64    5.13
 -10 -18  11   22.97    4.38
 -10  18 -11   23.72    4.22
 -10  18 -11   29.22    4.04
  10 -18 -11   10.15    3.87
  10 -18  11   27.43    4.37
  10  18 -11   19.48    4.72
 -10 -18 -12    6.98    5.04
 -10 -18 -12    2.07    4.27
  10 -18 -12   -4.35    3.71
  10  18 -12    1.82    4.68
 -10 -18 -13   -2.50    4.85
 -10 -18 -13    1.12    4.19
  10 -18 -13   -1.70    3.77
  10  18 -13   -3.84    4.58
 -10 -18 -14    4.46    4.93
 -10 -18 -14   10.91    4.27
  10 -18 -14    6.35    4.06
  10  18 -14   -4.61    4.70
 -10 -20   0  253.65    7.90
 -10 -20   0  179.99    7.13
  10  20   0  180.56    7.37
 -10 -20  -1   92.03    6.97
 -10 -20  -1   61.85    6.50
 -10 -20   1   97.64    6.96
 -10 -20   1   59.82    6.40
  10  20  -1   68.88    6.96
 -10 -20  -2  107.44    7.03
 -10 -20  -2   81.35    6.58
 -10 -20   2  116.90    6.85
 -10 -20   2   78.51    6.60
  10  20  -2   84.92    7.07
 -10 -20  -3  139.39    7.22
 -10 -20  -3  103.39    6.99
 -10 -20   3  147.09    7.05
 -10 -20   3   97.80    6.81
  10  20  -3  104.62    7.44
 -10 -20  -4   96.20    7.82
 -10 -20  -4  106.10    7.07
 -10 -20  -4   90.66    7.01
 -10 -20   4  110.20    6.73
 -10 -20   4   80.11    6.75
  10  20  -4   80.96    7.23
 -10 -20  -5  100.04    7.98
 -10 -20  -5   92.24    7.18
 -10 -20  -5   69.37    6.86
 -10 -20   5   95.39    6.81
 -10 -20   5   72.02    6.71
 -10  20  -5   47.17    4.19
  10 -20   5   59.98    4.55
  10  20  -5   75.28    7.33
 -10 -20  -6  114.85    8.29
 -10 -20  -6  106.96    7.34
 -10 -20  -6   94.45    7.20
 -10 -20   6  111.92    7.02
 -10 -20   6   89.24    7.13
 -10  20  -6   59.83    4.73
  10 -20  -6  102.44    4.48
  10 -20   6   74.64    5.12
  10  20  -6   92.19    7.63
 -10 -20  -7   61.15    5.70
 -10 -20  -7   68.19    7.24
 -10 -20   7   60.80    7.00
 -10 -20   7   60.10    7.18
 -10  20  -7   41.18    3.49
  10 -20  -7   70.10    4.73
  10 -20   7   43.87    3.64
  10  20  -7   48.71    5.09
 -10 -20  -8   12.04    4.77
 -10 -20  -8   11.86    4.20
 -10 -20   8   14.01    4.70
 -10 -20   8    9.04    4.24
 -10  20  -8    8.62    3.33
 -10  20  -8   13.78    3.00
  10 -20  -8   14.35    3.09
  10 -20   8    5.15    3.50
  10  20  -8   11.74    4.59
 -10 -20  -9    4.29    4.65
 -10 -20  -9    7.77    4.18
 -10 -20   9   -1.75    4.79
 -10 -20   9    3.40    4.07
 -10  20  -9    1.96    3.43
 -10  20  -9   12.22    3.28
  10 -20  -9    5.71    3.21
  10 -20   9    6.44    3.71
  10  20  -9    5.44    4.77
 -10 -20 -10   11.63    4.96
 -10 -20 -10    9.42    4.30
 -10 -20  10   12.75    6.19
 -10  20 -10    8.81    3.68
 -10  20 -10   17.09    3.47
  10 -20 -10    0.67    3.31
  10 -20  10   10.73    3.87
  10  20 -10    9.62    4.87
 -10 -20 -11   15.28    5.31
 -10 -20 -11   16.04    4.22
 -10  20 -11   18.35    4.42
  10 -20 -11   12.68    3.67
  10 -20  11   24.93    4.89
  10  20 -11   16.76    4.83
 -10 -20 -12   36.71    5.46
 -10 -20 -12   36.90    4.67
  10 -20 -12   31.28    4.07
  10  20 -12   36.04    5.24
 -10 -20 -13   34.65    5.50
 -10 -20 -13   34.88    4.63
  10 -20 -13   34.50    4.29
  10  20 -13   26.00    5.28
 -10 -22   0   67.63    7.03
 -10 -22   0   44.66    4.37
  10  22   0   44.91    4.76
 -10 -22  -1    5.32    3.89
 -10 -22  -1    4.54    3.85
 -10 -22   1    4.76    3.86
 -10 -22   1    4.21    3.72
  10  22  -1    7.83    4.36
 -10 -22  -2   81.75    6.97
 -10 -22  -2   55.48    6.62
 -10 -22   2   85.12    6.95
 -10 -22   2   55.11    6.58
  10  22  -2   69.33    7.84
 -10 -22  -3   66.74    6.86
 -10 -22  -3   41.56    4.36
 -10 -22   3   66.34    6.63
 -10 -22   3   39.61    4.34
  10  22  -3   41.72    4.80
 -10 -22  -4   28.79    4.87
 -10 -22  -4   30.83    4.30
 -10 -22  -4   23.90    4.32
 -10 -22   4   32.89    4.25
 -10 -22   4   20.16    4.06
  10  22  -4   22.23    4.59
 -10 -22  -5   34.00    4.99
 -10 -22  -5   33.13    4.20
 -10 -22  -5   32.18    4.46
 -10 -22   5   42.70    4.38
 -10 -22   5   17.98    4.06
  10  22  -5   26.17    4.66
 -10 -22  -6   85.70    8.22
 -10 -22  -6   85.93    7.22
 -10 -22  -6   70.81    7.61
 -10 -22   6   91.76    7.15
 -10 -22   6   40.75    4.55
 -10  22  -6   40.18    3.27
  10 -22   6   34.45    3.45
  10  22  -6   41.51    4.96
 -10 -22  -7  109.90    8.49
 -10 -22  -7  105.28    7.38
 -10 -22  -7   97.53    7.65
 -10 -22   7  106.93    7.18
 -10 -22   7   80.16    7.29
 -10  22  -7   53.52    5.17
  10 -22  -7   97.02    4.74
  10 -22   7   51.22    5.51
  10  22  -7   81.74    8.33
 -10 -22  -8   83.10    8.45
 -10 -22  -8   88.72    7.38
 -10 -22   8   88.05    7.20
 -10  22  -8   53.16    5.42
 -10  22  -8   75.14    4.83
  10 -22  -8   72.75    5.02
  10 -22   8   56.14    5.80
  10  22  -8   55.10    5.45
 -10 -22  -9   22.21    5.22
 -10 -22  -9   15.49    4.16
 -10  22  -9    9.78    3.45
 -10  22  -9   20.70    3.30
  10 -22  -9   16.20    3.24
  10 -22   9   16.56    3.74
  10  22  -9    8.65    4.62
 -10 -22 -10    4.21    4.95
 -10 -22 -10    3.72    4.03
 -10  22 -10    8.38    3.66
  10 -22 -10   13.23    3.34
  10 -22  10   11.11    3.77
  10  22 -10   -0.13    4.70
 -10 -22 -11    9.44    5.07
 -10 -22 -11    9.73    4.32
  10 -22 -11   11.15    3.56
  10  22 -11    8.77    5.19
 -10 -24   0   72.30    6.97
 -10 -24   0   46.35    4.48
  10  24   0   49.51    5.12
 -10 -24  -1   10.56    4.04
 -10 -24  -1    5.41    3.86
 -10 -24   1    6.34    4.10
 -10 -24   1    3.88    3.82
  10  24  -1    5.99    4.67
 -10 -24  -2  134.41    7.19
 -10 -24  -2   97.54    7.14
 -10 -24   2  141.08    7.28
 -10 -24   2   94.89    7.14
  10  24  -2  113.46    8.41
 -10 -24  -3   94.67    7.19
 -10 -24  -3   75.35    6.80
 -10 -24   3   98.95    7.29
 -10 -24   3   59.33    6.63
  10  24  -3   74.18    8.00
 -10 -24  -4   13.50    4.51
 -10 -24  -4    8.01    3.91
 -10 -24  -4    5.15    4.53
 -10 -24   4   11.69    3.93
 -10 -24   4    2.81    4.28
  10  24  -4    3.36    4.52
 -10 -24  -5   -1.06    4.43
 -10 -24  -5   -1.54    3.67
 -10 -24   5    1.47    3.84
  10  24  -5   -2.85    4.56
 -10 -24  -6    2.81    4.47
 -10 -24  -6   -0.11    3.69
 -10 -24   6    0.00    3.72
  10  24  -6   -7.87    4.50
 -10 -24  -7   -4.18    4.62
 -10 -24  -7   -2.10    3.72
 -10 -24   7    1.01    3.86
  10  24  -7   -2.28    4.52
 -10 -24  -8    2.66    4.73
 -10 -24  -8   -0.98    3.75
 -10 -24   8    3.19    3.86
 -10  24  -8   -8.05    3.01
  10 -24  -8   -6.32    2.70
  10 -24   8   -8.24    3.17
  10  24  -8   -4.32    4.47
 -10 -24  -9   22.82    4.93
 -10 -24  -9   19.27    4.17
 -10 -24   9   24.81    4.29
 -10  24  -9   13.43    3.50
 -10  24  -9   22.67    4.08
  10 -24  -9   20.75    3.26
  10 -24   9   15.01    3.62
 -10 -24 -10    2.21    4.63
 -10 -24 -10    2.65    4.04
  10 -24 -10    4.08    3.19
 -10 -26   0   49.70    4.55
  10  26   0   35.01    5.03
 -10 -26  -1    7.83    4.00
 -10 -26   1    1.44    4.01
  10  26  -1    2.81    4.68
  10  26   1    6.98    4.48
 -10 -26  -2   27.68    4.20
 -10 -26   2   34.10    4.40
  10  26  -2   20.98    5.11
 -10 -26  -3  151.03    7.23
 -10 -26   3  169.16    7.55
  10  26  -3  131.75    8.82
 -10 -26  -4  207.64    8.95
 -10 -26  -4  209.37    7.54
 -10 -26   4  223.55    7.83
  10  26  -4  167.74   10.56
 -10 -26  -5  110.23    8.31
 -10 -26  -5  103.59    7.06
 -10 -26   5  135.70    7.11
 -10 -26  -6   46.48    5.67
 -10 -26  -6   32.74    4.16
 -10 -26   6   61.73    6.93
 -10 -26  -7   13.84    4.98
 -10 -26  -7   10.22    3.90
 -10 -26   7   15.50    4.00
 -10  26  -7    4.56    2.93
  10 -26   7    0.22    3.05
 -10 -26  -8   19.40    5.11
 -10 -26  -8    9.70    4.00
 -10 -26   8    8.17    3.94
 -10  26  -8    4.62    3.17
  10 -26  -8    1.91    2.80
  10 -26   8    7.00    3.35
 -10 -28   0   63.00    6.86
 -10 -28  -1   88.06    6.89
 -10 -28   1   96.70    7.18
 -10 -28  -2   33.60    4.11
 -10 -28   2   26.69    4.37
 -10 -28  -3    6.98    3.74
 -10 -28   3   12.39    4.13
 -10 -28  -4   25.66    5.16
 -10 -28  -4   28.63    4.05
 -10 -28   4   33.35    4.45
 -11  -1  -2  834.58    8.29
 -11   1  -2  830.44    7.73
 -11  -1  -3  126.35    5.64
 -11  -1  -3  108.35    5.20
 -11  -1   3   94.81    4.91
 -11   1  -3  120.82    5.48
 -11   1  -3  112.93    5.11
 -11   1   3  103.91    4.78
 -11  -1  -4   18.08    3.30
 -11  -1  -4   18.90    3.27
 -11  -1   4   15.47    2.95
 -11   1  -4   17.40    3.24
 -11   1  -4   22.75    3.03
 -11   1   4   14.20    2.78
  11   1   4   22.75    3.02
 -11  -1  -5    0.32    3.19
 -11  -1  -5   -2.59    2.98
 -11  -1   5   -2.34    2.58
 -11   1  -5    5.67    3.09
 -11   1  -5    2.41    2.79
 -11   1   5    2.03    2.92
 -11   1   5    1.84    2.74
  11  -1   5    3.17    2.68
  11   1  -5   -3.32    2.67
  11   1   5   -2.16    2.74
 -11  -1  -6   19.38    3.57
 -11  -1  -6   25.00    3.51
 -11  -1   6   19.08    3.31
 -11  -1   6   10.78    2.94
 -11   1  -6   20.21    3.51
 -11   1  -6   23.01    3.43
 -11   1   6   17.39    3.16
 -11   1   6   14.95    2.93
  11  -1  -6   14.06    2.79
  11  -1   6   21.14    3.38
  11  -1   6   24.82    3.10
  11   1  -6   12.62    2.98
  11   1   6   24.16    3.59
  11   1   6   19.94    3.18
 -11  -1  -7    5.53    3.55
 -11  -1  -7    5.64    3.47
 -11  -1   7    7.18    3.33
 -11  -1   7    1.98    2.94
 -11   1  -7    7.10    3.49
 -11   1  -7    6.46    3.23
 -11   1   7    4.52    3.15
 -11   1   7    4.28    2.87
  11  -1  -7    6.36    2.89
  11  -1   7    2.59    3.40
  11  -1   7   10.56    3.00
  11   1  -7    2.10    3.05
  11   1   7    4.12    3.44
  11   1   7    8.26    3.23
 -11  -1  -8   52.34    6.31
 -11  -1  -8   76.87    6.34
 -11  -1   8   58.64    5.85
 -11  -1   8   49.94    5.49
 -11   1  -8   65.89    6.33
 -11   1  -8   81.05    6.10
 -11   1   8   51.97    5.67
 -11   1   8   50.81    5.42
  11  -1  -8   58.40    5.39
  11  -1   8   77.12    6.50
  11  -1   8   78.66    5.76
  11   1  -8   47.22    5.50
  11   1   8   68.60    6.50
  11   1   8   71.46    6.18
 -11  -1  -9  245.59    8.08
 -11  -1  -9  310.04    7.94
 -11  -1   9  236.88    7.34
 -11  -1   9  231.44    6.80
 -11   1  -9  248.63    7.90
 -11   1  -9  323.13    7.97
 -11   1   9  228.03    7.21
 -11   1   9  215.24    6.75
  11  -1  -9  276.55    7.87
  11  -1  -9  244.79    6.67
  11  -1   9  303.19    8.25
  11  -1   9  333.05    7.55
  11   1  -9  237.48    6.98
  11   1   9  290.20    8.26
  11   1   9  333.01    7.90
 -11  -1 -10  363.89    9.13
 -11  -1 -10  450.79    9.42
 -11  -1  10  348.72    8.37
 -11  -1  10  321.95    7.64
 -11   1 -10  358.77    8.97
 -11   1 -10  433.82    8.92
 -11   1  10  341.68    8.05
  11  -1 -10  394.29    8.84
  11  -1 -10  340.33    7.47
  11  -1  10  423.62    9.56
  11  -1  10  475.14    8.60
  11   1 -10  382.64    8.99
  11   1 -10  342.18    7.50
  11   1  10  423.13    9.50
  11   1  10  478.62    9.11
 -11  -1 -11  372.59    9.72
 -11  -1 -11  414.38    9.33
 -11  -1  11  352.78    8.74
 -11   1 -11  353.72    9.44
 -11   1 -11  417.55    9.29
 -11   1  11  314.64    8.50
  11  -1 -11  382.67    9.08
  11  -1 -11  326.93    7.70
  11  -1  11  417.67    9.90
  11  -1  11  474.49    9.22
  11   1 -11  411.46    9.54
  11   1 -11  338.29    8.03
  11   1  11  417.48    9.97
  11   1  11  466.43    9.30
 -11  -1 -12  260.60    9.46
 -11  -1 -12  286.63    8.99
 -11  -1  12  254.49    8.31
 -11   1 -12  229.82    9.25
 -11   1 -12  267.90    8.83
  11  -1 -12  286.13    8.98
  11  -1 -12  261.68    7.74
  11  -1  12  268.24    9.40
  11  -1  12  312.38    9.01
  11   1 -12  293.22    9.22
  11   1 -12  254.74    7.89
  11   1  12  299.09    9.75
  11   1  12  336.60    9.04
 -11  -1 -13  127.14    8.89
 -11  -1 -13  147.80    8.53
 -11   1 -13  121.45    8.78
 -11   1 -13  135.40    8.82
  11  -1 -13  158.88    8.52
  11  -1 -13  142.75    7.34
  11  -1  13  117.16    9.06
  11  -1  13  166.52    8.51
  11   1 -13  166.43    8.65
  11   1 -13  144.24    7.58
  11   1  13  148.45    9.03
  11   1  13  181.87    8.82
 -11  -1 -14   50.73    5.88
 -11  -1 -14   52.72    5.24
 -11   1 -14   43.04    5.80
 -11   1 -14   43.78    5.45
  11  -1 -14   49.22    5.24
  11  -1 -14   62.99    7.21
  11  -1  14   41.71    5.78
  11  -1  14   65.62    5.63
  11   1 -14   78.55    8.36
  11   1 -14   60.07    7.16
  11   1  14   54.78    5.93
  11   1  14   83.97    8.31
 -11  -1 -15    7.52    5.06
 -11  -1 -15   11.01    4.74
 -11   1 -15    5.39    5.13
 -11   1 -15    2.71    4.73
  11  -1 -15   16.75    4.90
  11  -1 -15    8.76    4.11
  11  -1  15   13.22    5.18
  11  -1  15   12.24    4.77
  11   1 -15   17.25    5.00
  11   1 -15    8.48    4.25
  11   1  15   14.00    5.38
  11   1  15   19.87    5.08
 -11  -1 -16    3.55    5.20
 -11  -1 -16    3.75    4.62
 -11   1 -16    0.29    4.95
 -11   1 -16    2.39    4.60
  11  -1 -16   -2.67    4.59
  11  -1 -16   -4.04    3.92
  11   1 -16   -4.32    4.69
  11   1 -16   -5.51    4.22
  11   1  16    4.95    5.13
  11   1  16    7.99    7.44
 -11  -1 -17   -3.79    5.13
 -11  -1 -17   -3.09    4.67
 -11   1 -17   -0.40    4.76
  11  -1 -17   -4.43    4.77
  11  -1 -17    0.95    4.15
  11   1 -17   -2.25    4.85
  11   1 -17   -7.32    4.19
 -11  -3  -1 1168.00    9.54
 -11  -3  -2  547.23    7.47
 -11  -3   2  444.33    6.85
 -11  -3  -3   20.49    3.27
 -11  -3   3   16.16    3.08
 -11   3  -3   24.21    3.18
 -11   3  -3   22.61    2.82
 -11  -3  -4  245.47    6.67
 -11  -3  -4  270.25    6.70
 -11  -3   4  192.07    5.80
 -11   3  -4  240.64    6.19
 -11   3  -4  268.19    5.69
 -11   3   4  213.49    5.18
  11   3   4  250.84    6.14
 -11  -3  -5  622.57    8.89
 -11  -3  -5  687.46    8.59
 -11  -3   5  484.77    7.29
 -11   3  -5  576.43    8.00
 -11   3  -5  652.43    7.50
 -11   3   5  538.94    7.39
 -11   3   5  514.32    6.64
  11  -3   5  617.66    8.23
  11   3  -5  512.59    7.24
  11   3   5  648.04    8.18
 -11  -3  -6  200.87    6.99
 -11  -3  -6  247.69    7.01
 -11  -3   6  199.02    6.58
 -11  -3   6  166.34    5.89
 -11   3  -6  197.23    6.42
 -11   3  -6  246.18    6.31
 -11   3   6  198.34    6.06
 -11   3   6  175.65    5.34
  11  -3   6  211.67    6.39
  11  -3   6  224.08    5.60
  11   3  -6  181.85    6.28
  11   3   6  230.47    7.18
  11   3   6  247.43    6.64
 -11  -3  -7   10.70    3.86
 -11  -3  -7   14.44    3.67
 -11  -3   7   14.68    3.46
 -11  -3   7   16.22    3.24
 -11   3  -7   18.35    3.54
 -11   3  -7   21.89    3.55
 -11   3   7   16.12    3.13
 -11   3   7   14.87    2.92
  11  -3  -7   14.57    2.88
  11  -3   7   20.87    3.69
  11  -3   7   19.22    3.20
  11   3  -7   16.41    3.37
  11   3   7   18.94    3.73
  11   3   7   20.19    3.64
 -11  -3  -8   -3.47    3.96
 -11  -3  -8   -1.10    3.55
 -11  -3   8    1.55    3.37
 -11  -3   8    1.74    3.10
 -11   3  -8    2.87    3.61
 -11   3  -8    5.37    3.44
 -11   3   8    6.26    3.25
 -11   3   8    4.42    2.97
  11  -3  -8   -0.60    2.95
  11  -3   8    0.46    3.49
  11  -3   8    3.53    3.23
  11   3  -8    5.19    3.25
  11   3   8    0.02    3.72
  11   3   8    0.09    3.52
 -11  -3  -9   -9.59    3.74
 -11  -3  -9   -6.12    3.65
 -11  -3   9    0.90    3.45
 -11  -3   9    1.95    3.24
 -11   3  -9   -1.37    3.61
 -11   3  -9   -1.68    3.44
 -11   3   9   -5.73    3.29
  11  -3  -9   -8.33    3.55
  11  -3  -9   -2.99    3.04
  11  -3   9   -1.24    3.81
  11  -3   9    2.86    3.32
  11   3  -9   -1.75    3.37
  11   3   9   -1.54    3.79
 -11  -3 -10    4.01    4.24
 -11  -3 -10    7.39    4.12
 -11  -3  10   10.91    3.87
 -11  -3  10   14.24    3.61
 -11   3 -10   10.17    4.03
 -11   3 -10   13.75    4.07
  11  -3 -10    7.85    4.00
  11  -3 -10    2.98    3.26
  11  -3  10   11.37    4.03
  11  -3  10   15.34    3.77
  11   3 -10    9.89    4.16
  11   3 -10   11.31    3.73
  11   3  10   16.93    4.40
  11   3  10   12.29    4.11
 -11  -3 -11   48.98    5.36
 -11  -3 -11   62.99    7.71
 -11  -3  11   65.74    6.93
 -11  -3  11   53.45    6.43
 -11   3 -11   45.95    5.00
 -11   3 -11   67.48    7.35
  11  -3 -11   57.21    7.07
  11  -3 -11   50.00    6.02
  11  -3  11   53.22    4.93
  11  -3  11   75.63    7.02
  11   3 -11   74.13    7.68
  11   3 -11   58.68    6.51
  11   3  11   68.87    7.72
  11   3  11   81.22    7.63
 -11  -3 -12  122.35    8.63
 -11  -3 -12  128.03    8.09
 -11  -3  12  119.46    7.63
 -11  -3  12  101.76    7.84
 -11   3 -12  108.61    8.04
 -11   3 -12  117.12    7.86
  11  -3 -12  117.62    7.66
  11  -3 -12  109.94    6.60
  11  -3  12  102.27    8.28
  11  -3  12  135.12    7.83
  11   3 -12  131.79    8.31
  11   3 -12  126.17    7.49
  11   3  12  132.71    8.60
  11   3  12  141.67    8.05
 -11  -3 -13   91.48    8.71
 -11  -3 -13  102.02    8.21
 -11  -3  13   88.62    7.58
 -11   3 -13   56.15    5.64
 -11   3 -13   66.63    5.56
  11  -3 -13  100.29    7.83
  11  -3 -13   88.65    6.80
  11  -3  13   69.64    6.21
  11  -3  13   79.89    8.04
  11   3 -13  103.15    8.39
  11   3 -13   95.22    7.62
  11   3  13   99.97    8.98
  11   3  13  120.94    8.27
 -11  -3 -14   20.73    5.36
 -11  -3 -14   19.53    4.81
 -11   3 -14   14.84    5.39
 -11   3 -14    1.12    4.57
  11  -3 -14   20.98    4.69
  11  -3 -14   14.89    3.96
  11  -3  14    3.65    4.96
  11  -3  14   10.50    4.89
  11   3 -14   22.00    4.99
  11   3 -14   18.87    4.31
  11   3  14   18.80    5.32
  11   3  14   21.95    4.75
 -11  -3 -15    2.90    5.01
 -11  -3 -15    3.14    4.66
 -11   3 -15   -1.51    4.94
 -11   3 -15   -2.55    4.69
  11  -3 -15   -0.39    4.65
  11  -3 -15    2.81    3.90
  11  -3  15    1.41    5.09
  11  -3  15   -0.94    5.49
  11   3 -15   -1.90    4.81
  11   3 -15   -3.65    4.34
  11   3  15   10.02    5.25
  11   3  15    7.00    4.78
 -11  -3 -16    5.92    4.97
 -11  -3 -16    8.86    4.82
 -11   3 -16   -0.52    5.16
 -11   3 -16   -0.46    4.66
  11  -3 -16   -3.07    4.62
  11  -3 -16    4.30    3.94
  11   3 -16   -3.37    4.80
  11   3 -16   -0.59    4.21
  11   3  16    4.44    5.40
  11   3  16    5.68    4.69
 -11  -3 -17    2.33    5.29
 -11  -3 -17   -2.81    4.60
 -11   3 -17   -5.54    4.66
  11  -3 -17   -1.71    4.47
  11  -3 -17   -2.91    4.03
  11   3 -17   -5.67    4.88
  11   3 -17   -7.12    4.46
 -11  -5   0  132.91    5.69
 -11  -5  -1  143.00    5.74
 -11  -5   1  131.52    5.41
 -11  -5  -2   68.17    5.29
 -11  -5   2   60.25    5.06
 -11   5  -2   72.55    4.64
 -11  -5  -3   83.76    5.70
 -11  -5   3   60.03    5.18
 -11   5  -3   81.50    4.89
  11   5   3   82.77    5.37
 -11  -5  -4  260.34    7.05
 -11  -5  -4  282.54    6.78
 -11  -5   4  203.91    5.94
 -11   5  -4  232.78    5.92
 -11   5  -4  266.90    5.43
  11   5  -4  211.56    6.00
  11   5   4  273.44    6.68
 -11  -5  -5  265.31    7.31
 -11  -5  -5  296.55    7.33
 -11  -5   5  210.31    6.35
 -11   5  -5  232.07    6.18
 -11   5  -5  282.45    5.86
 -11   5   5  214.54    5.67
  11  -5   5  257.74    6.34
  11   5  -5  219.89    6.33
  11   5   5  285.97    6.68
 -11  -5  -6  604.98    9.29
 -11  -5  -6  675.24    9.14
 -11  -5   6  509.85    7.99
 -11   5  -6  521.77    7.94
 -11   5  -6  624.65    7.61
 -11   5   6  492.39    7.21
 -11   5   6  496.05    6.58
  11  -5   6  575.82    8.18
  11   5  -6  534.03    8.21
  11   5   6  659.22    8.69
 -11  -5  -7  813.70   10.58
 -11  -5  -7  916.83   10.33
 -11  -5   7  763.93    9.84
 -11  -5   7  664.72    8.75
 -11   5  -7  743.32    9.23
 -11   5  -7  911.92    9.08
 -11   5   7  710.72    8.50
 -11   5   7  687.35    7.69
  11  -5   7  776.38    9.45
  11  -5   7  866.26    8.00
  11   5  -7  714.26    9.04
  11   5   7  901.00   10.85
  11   5   7  973.32   10.34
 -11  -5  -8  418.35    9.07
 -11  -5  -8  515.93    9.08
 -11  -5   8  454.91    8.68
 -11  -5   8  406.70    8.10
 -11   5  -8  432.37    8.24
 -11   5  -8  544.36    8.28
 -11   5   8  391.05    7.40
  11  -5  -8  443.65    7.97
  11  -5  -8  448.83    6.34
  11  -5   8  457.12    8.43
  11  -5   8  513.14    7.12
  11   5  -8  426.42    8.23
  11   5   8  519.74    9.39
  11   5   8  555.15    9.22
 -11  -5  -9  138.85    7.64
 -11  -5  -9  171.97    7.81
 -11  -5   9  168.31    7.28
 -11  -5   9  146.75    7.02
 -11   5  -9  147.07    7.03
 -11   5  -9  197.58    6.97
  11  -5  -9  150.47    6.89
  11  -5  -9  144.36    5.86
  11  -5   9  155.74    7.17
  11  -5   9  195.80    6.27
  11   5  -9  152.65    6.82
  11   5   9  184.24    8.12
  11   5   9  193.00    8.02
 -11  -5 -10   22.17    4.72
 -11  -5 -10   26.82    4.50
 -11  -5  10   25.14    4.19
 -11  -5  10   22.26    3.84
 -11   5 -10   23.77    4.45
 -11   5 -10   33.43    4.19
  11  -5 -10   24.55    4.10
  11  -5 -10   23.36    3.46
  11  -5  10   28.82    4.39
  11  -5  10   44.19    3.99
  11   5 -10   22.27    3.99
  11   5  10   27.50    4.79
  11   5  10   28.65    4.49
 -11  -5 -11   -1.64    4.51
 -11  -5 -11   -4.06    4.11
 -11  -5  11    5.97    3.98
 -11  -5  11    1.27    3.67
 -11   5 -11   -4.29    3.97
 -11   5 -11   -0.37    3.75
  11  -5 -11  -10.72    3.77
  11  -5 -11   -7.28    3.23
  11  -5  11   -1.96    4.03
  11  -5  11   -3.88    3.75
  11   5 -11   -4.73    4.35
  11   5 -11   -1.11    3.69
  11   5  11   -5.60    4.14
  11   5  11   -8.14    3.98
 -11  -5 -12    1.90    4.49
 -11  -5 -12   -0.16    4.09
 -11  -5  12   -3.97    3.93
 -11  -5  12   -0.05    3.83
 -11   5 -12   -6.81    4.27
 -11   5 -12   -1.38    4.12
  11  -5 -12   -0.28    3.99
  11  -5 -12   -3.34    3.45
  11  -5  12   -4.29    4.20
  11  -5  12   -2.33    3.94
  11   5 -12    8.21    4.49
  11   5 -12    0.79    3.77
  11   5  12    2.34    4.65
  11   5  12   -5.67    4.13
 -11  -5 -13    1.46    4.76
 -11  -5 -13    5.01    4.47
 -11  -5  13    9.17    4.34
 -11  -5  13    5.56    3.94
 -11   5 -13   -0.94    4.76
 -11   5 -13   -0.97    4.38
  11  -5 -13    3.34    4.10
  11  -5 -13    2.35    3.53
  11  -5  13    1.21    4.66
  11  -5  13   -2.77    4.30
  11   5 -13    3.83    4.63
  11   5 -13    7.84    4.25
  11   5  13    7.07    4.92
  11   5  13    0.45    4.44
 -11  -5 -14   30.52    5.23
 -11  -5 -14   32.12    4.80
 -11  -5  14   25.36    4.87
 -11   5 -14   12.68    4.97
 -11   5 -14   18.36    4.86
  11  -5 -14   23.99    4.75
  11  -5 -14   33.94    4.23
  11  -5  14   21.41    5.23
  11  -5  14   29.14    4.88
  11   5 -14   21.39    5.14
  11   5 -14   21.75    4.63
  11   5  14   28.90    5.65
  11   5  14   27.02    4.99
 -11  -5 -15   11.11    5.08
 -11  -5 -15    4.02    4.48
 -11   5 -15   -1.84    5.14
 -11   5 -15   -1.68    4.50
  11  -5 -15    5.34    4.42
  11  -5 -15    6.63    3.78
  11   5 -15    0.79    4.92
  11   5 -15   -0.71    4.33
  11   5  15    3.01    5.03
  11   5  15    0.32    4.66
 -11  -5 -16   29.54    5.61
 -11  -5 -16   34.89    5.22
 -11   5 -16   35.45    5.24
  11  -5 -16   33.69    5.03
  11  -5 -16   31.60    4.32
  11   5 -16   33.25    5.61
  11   5 -16   27.00    4.77
  11   5  16   45.27    5.87
  11   5  16   48.34    5.41
 -11  -5 -17  100.91    9.62
 -11  -5 -17   88.16    8.88
 -11   5 -17   88.08    8.84
  11  -5 -17   91.27    8.51
  11  -5 -17   85.20    7.32
  11   5 -17  101.64    9.57
  11   5 -17   74.45    8.29
  11   5  17  135.78   10.75
 -11  -7   0   11.44    3.08
 -11  -7  -1   47.25    5.33
 -11  -7   1   33.94    3.28
 -11  -7  -2  220.78    6.41
 -11  -7   2  160.59    5.98
 -11   7  -2  185.23    5.01
  11   7   2  199.19    6.15
 -11  -7  -3   32.11    3.54
 -11  -7   3   26.53    3.40
 -11   7  -3   28.41    2.99
  11   7  -3   23.82    3.31
  11   7   3   30.75    3.45
 -11  -7  -4   63.49    6.14
 -11  -7  -4   65.54    5.97
 -11  -7   4   49.07    5.33
 -11   7  -4   52.39    4.66
 -11   7  -4   55.76    4.25
 -11   7   4   49.00    4.43
  11   7  -4   50.03    5.28
  11   7   4   66.98    5.64
 -11  -7  -5  464.01    8.56
 -11  -7  -5  564.45    8.56
 -11  -7   5  401.63    7.48
 -11   7  -5  447.08    7.08
 -11   7  -5  530.83    6.43
 -11   7   5  424.31    6.51
 -11   7   5  438.25    5.73
  11  -7   5  475.68    7.18
  11   7  -5  447.21    8.04
  11   7   5  547.04    8.22
 -11  -7  -6  935.91   11.02
 -11  -7  -6 1058.00   10.75
 -11  -7   6  757.45    9.21
 -11   7  -6  818.17    8.98
 -11   7  -6 1025.00    8.59
 -11   7   6  764.18    8.11
 -11   7   6  811.17    7.36
  11  -7   6  893.77    9.35
  11   7  -6  821.46    9.76
  11   7   6 1057.00   10.43
 -11  -7  -7  807.29   10.78
 -11  -7  -7  959.55   10.69
 -11  -7   7  773.20   10.18
 -11  -7   7  700.88    9.31
 -11   7  -7  704.48    9.07
 -11   7  -7  943.00    9.06
 -11   7   7  681.44    8.27
  11  -7   7  774.25    9.33
  11  -7   7  852.31    7.15
  11   7  -7  725.16    9.42
  11   7   7  907.14   11.18
  11   7   7  962.04   10.41
 -11  -7  -8  472.74    9.55
 -11  -7  -8  559.46    9.48
 -11  -7   8  444.30    9.02
 -11  -7   8  399.35    8.14
 -11   7  -8  422.82    8.27
 -11   7  -8  543.14    8.08
  11  -7  -8  463.45    7.83
  11  -7   8  456.22    8.49
  11  -7   8  519.88    6.81
  11   7  -8  424.27    8.62
  11   7   8  510.97    9.60
  11   7   8  580.59    9.64
 -11  -7  -9  173.55    8.18
 -11  -7  -9  197.95    8.20
 -11  -7   9  173.86    7.53
 -11  -7   9  173.75    7.41
 -11   7  -9  175.02    7.35
 -11   7  -9  217.66    7.02
  11  -7  -9  181.44    6.86
  11  -7  -9  190.53    5.36
  11  -7   9  195.50    7.46
  11  -7   9  218.48    6.16
  11   7  -9  171.80    7.51
  11   7   9  201.87    8.19
  11   7   9  229.51    8.08
 -11  -7 -10   58.35    5.47
 -11  -7 -10   70.43    7.69
 -11  -7  10   62.54    7.17
 -11  -7  10   53.98    4.48
 -11   7 -10   60.97    6.71
 -11   7 -10   70.18    6.67
  11  -7 -10   56.79    6.50
  11  -7 -10   61.85    5.38
  11  -7  10   66.69    7.00
  11  -7  10   71.17    5.76
  11   7 -10   59.58    6.82
  11   7  10   77.02    7.69
  11   7  10   73.34    7.40
 -11  -7 -11    8.87    4.51
 -11  -7 -11   13.82    4.41
 -11  -7  11    6.08    4.11
 -11  -7  11    5.46    3.78
 -11   7 -11    7.68    4.15
 -11   7 -11    8.55    3.97
  11  -7 -11    8.45    3.90
  11  -7 -11    5.13    3.34
  11  -7  11    9.15    4.17
  11  -7  11   11.11    3.66
  11   7 -11    7.82    4.02
  11   7  11   14.85    4.61
  11   7  11    8.66    4.21
 -11  -7 -12   12.21    4.82
 -11  -7 -12   13.99    4.48
 -11  -7  12   17.08    4.53
 -11  -7  12   13.51    4.02
 -11   7 -12   13.20    4.35
 -11   7 -12   19.95    4.34
  11  -7 -12   13.88    4.10
  11  -7 -12   18.86    3.63
  11  -7  12   15.81    4.68
  11  -7  12   22.82    4.04
  11   7 -12   18.19    4.92
  11   7 -12   21.34    4.36
  11   7  12   19.82    4.90
  11   7  12   18.15    4.80
 -11  -7 -13   27.18    5.20
 -11  -7 -13   28.44    4.89
 -11  -7  13   18.26    4.69
 -11  -7  13   17.53    4.29
 -11   7 -13   10.46    4.81
 -11   7 -13   19.23    4.52
  11  -7 -13   18.63    4.34
  11  -7 -13   23.14    3.85
  11  -7  13   23.16    5.01
  11  -7  13   23.35    4.50
  11   7 -13   23.41    5.22
  11   7 -13   16.14    4.31
  11   7  13   28.07    5.44
  11   7  13   26.76    4.79
 -11  -7 -14   20.65    5.30
 -11  -7 -14   16.59    4.56
 -11  -7  14   16.14    4.66
 -11  -7  14   13.61    4.55
 -11   7 -14   12.68    4.97
 -11   7 -14   16.39    4.70
  11  -7 -14   16.86    4.53
  11  -7 -14   15.08    3.81
  11  -7  14   12.17    5.27
  11  -7  14   16.98    4.61
  11   7 -14   15.50    5.25
  11   7 -14   14.71    4.60
  11   7  14   20.76    5.44
  11   7  14   25.76    5.02
 -11  -7 -15  129.19    9.70
 -11  -7 -15  116.12    8.50
 -11  -7  15  109.52    8.50
 -11  -7  15  113.27   10.10
 -11   7 -15  104.93   10.46
 -11   7 -15  120.68    8.82
  11  -7 -15  109.80    8.04
  11  -7 -15  107.47    6.87
  11   7 -15  122.73    9.55
  11   7 -15   99.14    8.15
  11   7  15  135.51    9.76
  11   7  15  168.39    9.22
 -11  -7 -16   45.22    5.90
 -11  -7 -16   71.23    8.78
 -11   7 -16   40.26    5.31
  11  -7 -16   43.37    5.38
  11  -7 -16   39.09    4.31
  11   7 -16   45.72    6.10
  11   7 -16   35.15    5.07
  11   7  16   53.66    6.15
  11   7  16   76.58    9.16
 -11  -7 -17   44.42    5.99
 -11  -7 -17   42.71    5.27
  11  -7 -17   41.18    5.50
  11  -7 -17   34.62    4.38
  11   7 -17   45.55    6.07
  11   7 -17   37.94    5.24
  11   7  17   77.73    9.67
  11   7  17   83.82    9.29
 -11  -9   0   29.50    3.43
 -11  -9   0   30.41    3.49
 -11  -9  -1    2.01    3.05
 -11  -9   1    1.81    3.11
 -11  -9   1    1.01    3.10
 -11  -9  -2   68.39    5.78
 -11  -9   2   51.79    5.46
 -11   9  -2   58.22    4.26
  11   9   2   58.88    5.57
 -11  -9  -3   71.14    6.04
 -11  -9   3   54.31    5.51
 -11   9  -3   64.24    4.42
  11   9  -3   58.42    5.70
  11   9   3   72.02    5.78
 -11  -9  -4  364.62    8.15
 -11  -9  -4  429.78    8.05
 -11  -9   4  304.19    7.19
 -11   9  -4  349.88    6.12
  11   9  -4  316.30    7.32
  11   9   4  408.34    7.61
 -11  -9  -5  283.86    7.75
 -11  -9  -5  307.00    7.73
 -11  -9   5  231.23    6.73
 -11   9  -5  252.62    6.02
 -11   9  -5  301.71    5.34
 -11   9   5  232.47    5.24
  11  -9   5  266.34    5.97
  11   9  -5  235.30    7.11
  11   9   5  329.22    7.56
 -11  -9  -6  264.33    8.00
 -11  -9  -6  319.40    7.92
 -11  -9   6  199.01    6.80
 -11   9  -6  214.34    6.18
 -11   9  -6  274.65    5.75
 -11   9   6  243.41    8.77
 -11   9   6  239.86    5.08
  11  -9   6  247.06    6.37
  11   9  -6  226.45    7.31
  11   9   6  296.87    7.70
 -11  -9  -7  235.85    8.06
 -11  -9  -7  278.97    7.96
 -11  -9   7  221.05    7.63
 -11  -9   7  202.92    7.30
 -11   9  -7  191.86    6.48
 -11   9  -7  241.08    6.26
  11  -9   7  211.20    6.87
  11   9  -7  216.19    7.40
  11   9   7  295.79    7.93
 -11  -9  -8  108.20    7.37
 -11  -9  -8  128.94    7.42
 -11  -9   8   89.74    6.97
 -11  -9   8   89.17    6.64
 -11   9  -8   74.83    6.28
 -11   9  -8   96.20    6.13
  11  -9  -8  115.33    6.05
  11  -9   8   58.82    6.34
  11  -9   8  124.56    4.55
  11   9  -8   86.33    6.85
  11   9   8  124.19    7.68
  11   9   8  132.64    7.67
 -11  -9  -9    9.76    4.36
 -11  -9  -9    8.16    4.19
 -11  -9   9    4.62    4.05
 -11  -9   9    4.59    3.79
 -11   9  -9    5.05    3.80
 -11   9  -9    0.03    3.50
  11  -9  -9   12.27    3.50
  11  -9   9   -3.62    3.90
  11  -9   9   10.24    2.86
  11   9  -9    3.78    3.96
  11   9   9   11.60    4.14
  11   9   9   16.70    4.31
 -11  -9 -10   10.37    4.44
 -11  -9 -10   12.61    4.18
 -11  -9  10    6.72    4.15
 -11  -9  10    5.34    3.77
 -11   9 -10    8.44    3.94
 -11   9 -10    8.42    3.84
  11  -9 -10   12.48    3.71
  11  -9 -10   11.18    2.76
  11  -9  10    6.63    4.06
  11  -9  10   10.57    3.18
  11   9 -10    6.01    4.09
  11   9  10   16.63    4.47
  11   9  10   10.15    4.16
 -11  -9 -11   80.16    8.02
 -11  -9 -11   72.53    7.79
 -11  -9  11   64.77    7.54
 -11  -9  11   40.11    4.61
 -11   9 -11   65.10    6.98
 -11   9 -11   85.51    7.35
  11  -9 -11   70.38    6.55
  11  -9 -11   73.62    5.33
  11  -9  11   79.39    7.08
  11  -9  11   85.87    5.88
  11   9 -11   46.89    4.66
  11   9  11   74.44    8.19
  11   9  11   91.95    7.93
 -11  -9 -12    8.55    4.80
 -11  -9 -12    8.80    4.36
 -11  -9  12    7.89    4.47
 -11  -9  12    7.40    4.20
 -11   9 -12    7.97    4.44
 -11   9 -12    7.01    4.28
  11  -9 -12   10.28    3.96
  11  -9 -12    5.09    3.24
  11  -9  12    9.57    4.48
  11  -9  12    9.28    3.91
  11   9 -12    5.02    4.24
  11   9  12   14.30    4.85
  11   9  12    9.42    4.63
 -11  -9 -13   11.80    4.99
 -11  -9 -13   14.07    4.73
 -11  -9  13   13.13    4.69
 -11  -9  13   16.28    4.25
 -11   9 -13    9.68    4.61
 -11   9 -13   17.34    4.47
  11  -9 -13   13.33    4.21
  11  -9 -13   14.65    3.53
  11  -9  13   14.47    4.79
  11  -9  13   17.72    4.20
  11   9 -13   13.04    5.11
  11   9 -13    9.42    4.42
  11   9  13   13.66    5.13
  11   9  13   13.63    4.90
 -11  -9 -14    8.44    5.22
 -11  -9 -14    7.84    4.59
 -11  -9  14   11.29    4.83
 -11  -9  14   13.71    4.29
 -11   9 -14   14.81    4.93
 -11   9 -14   13.84    4.56
  11  -9 -14   10.78    4.26
  11  -9 -14   13.97    3.61
  11   9 -14   16.17    5.30
  11   9 -14   17.70    4.76
  11   9  14    8.39    5.57
  11   9  14   14.84    4.91
 -11  -9 -15    4.70    5.10
 -11  -9 -15   14.15    4.71
 -11  -9  15   13.44    4.92
 -11  -9  15    2.68    4.11
 -11   9 -15    8.58    4.73
  11  -9 -15    8.15    4.41
  11  -9 -15    6.71    3.63
  11   9 -15    8.33    5.24
  11   9 -15    6.00    4.33
  11   9  15   -0.51    5.46
  11   9  15    6.24    5.00
 -11  -9 -16   45.44    6.28
 -11  -9 -16   42.51    5.33
 -11  -9  16   43.04    5.60
 -11  -9  16   31.89    4.81
  11  -9 -16   33.94    5.27
  11  -9 -16   37.77    4.25
  11   9 -16   48.86    6.19
  11   9 -16   36.68    5.14
  11   9  16   58.52    6.61
  11   9  16   78.61    8.97
 -11 -11   0  750.70    9.08
 -11 -11   0  573.06    8.40
 -11 -11  -1  445.39    7.97
 -11 -11  -1  334.61    7.21
 -11 -11   1  417.52    7.72
 -11 -11   1  339.98    7.23
 -11  11  -1  382.51    5.22
  11  11   1  434.84    7.74
 -11 -11  -2   15.82    3.76
 -11 -11   2   11.23    3.57
 -11 -11   2   13.04    3.20
 -11  11  -2   13.49    2.50
  11  11  -2   17.71    3.52
  11  11   2   19.20    3.49
 -11 -11  -3   -2.49    3.38
 -11 -11   3    4.33    3.23
 -11  11  -3    1.83    2.48
 -11  11   3    2.64    2.34
  11  11  -3    1.74    3.15
  11  11   3    2.01    3.31
 -11 -11  -4    2.97    3.75
 -11 -11  -4    0.01    3.48
 -11 -11   4   -1.96    3.10
 -11  11  -4    1.60    2.67
 -11  11   4    3.51    2.37
  11 -11   4    3.23    2.58
  11  11  -4   -1.39    3.34
  11  11   4   -0.26    3.24
 -11 -11  -5   39.70    4.59
 -11 -11  -5   28.95    4.01
 -11 -11   5   25.68    3.72
 -11  11  -5   28.01    3.17
 -11  11  -5   45.97    4.00
  11 -11   5   31.29    3.23
  11  11  -5   26.44    3.95
  11  11   5   41.05    4.07
 -11 -11  -6   31.97    4.39
 -11 -11  -6   21.69    3.86
 -11 -11   6   18.37    3.64
 -11  11  -6   24.93    3.31
 -11  11  -6   26.85    2.92
  11 -11   6   18.28    3.29
  11  11  -6   18.30    3.84
  11  11   6   32.86    4.12
 -11 -11  -7   13.12    4.24
 -11 -11  -7   14.66    3.93
 -11 -11   7   11.32    4.12
 -11 -11   7    5.89    3.62
 -11  11  -7    4.81    3.19
 -11  11  -7    4.02    3.04
  11 -11  -7   10.96    3.13
  11 -11   7    4.11    3.34
  11  11  -7    7.79    3.75
  11  11   7   14.32    3.96
 -11 -11  -8    0.26    4.08
 -11 -11  -8   -3.88    3.82
 -11 -11   8   -2.36    3.86
 -11 -11   8   -7.69    3.43
 -11  11  -8   -7.30    3.32
  11 -11  -8    1.32    3.10
  11 -11   8   -9.53    3.44
  11  11  -8   -5.43    3.83
  11  11   8   -0.02    3.99
  11  11   8   -1.78    3.99
 -11 -11  -9   22.64    4.73
 -11 -11  -9   24.00    4.26
 -11 -11   9   12.74    4.26
 -11 -11   9    7.98    3.81
 -11  11  -9   12.41    3.86
 -11  11  -9   13.70    3.65
  11 -11  -9   22.20    3.58
  11 -11   9   14.96    3.95
  11 -11   9   26.75    2.67
  11  11  -9   13.84    4.14
  11  11   9   27.56    4.55
  11  11   9   21.83    4.33
 -11 -11 -10   83.82    7.90
 -11 -11 -10   82.01    8.10
 -11 -11  10   60.95    7.34
 -11 -11  10   57.03    7.05
 -11  11 -10   47.00    4.50
 -11  11 -10   75.19    6.56
  11 -11 -10   66.85    6.23
  11 -11  10   61.55    6.73
  11 -11  10   84.73    4.98
  11  11 -10   40.73    4.57
  11  11  10   83.25    7.73
  11  11  10   89.50    7.67
 -11 -11 -11   76.44    8.12
 -11 -11 -11   71.73    7.98
 -11 -11  11   43.98    5.14
 -11 -11  11   35.81    4.44
 -11  11 -11   45.60    4.79
 -11  11 -11   72.01    7.21
  11 -11 -11   56.69    6.49
  11 -11 -11   56.75    4.56
  11 -11  11   40.60    4.71
  11 -11  11   73.48    5.55
  11  11 -11   39.27    4.54
  11  11  11   67.77    8.22
  11  11  11   84.16    7.95
 -11 -11 -12   55.27    5.57
 -11 -11 -12   53.74    5.20
 -11 -11  12   69.47    8.09
 -11 -11  12   38.55    4.58
 -11  11 -12   66.08    7.49
 -11  11 -12   74.48    7.37
  11 -11 -12   69.45    6.93
  11 -11 -12   69.11    5.27
  11 -11  12   69.48    7.65
  11 -11  12   81.64    6.18
  11  11 -12   43.61    5.00
  11  11  12   69.56    6.01
  11  11  12   85.10    8.40
 -11 -11 -13   53.17    6.09
 -11 -11 -13   54.51    5.44
 -11 -11  13   67.35    8.19
 -11 -11  13   46.98    4.88
 -11  11 -13   48.78    5.49
 -11  11 -13   90.13    7.94
  11 -11 -13   70.82    7.08
  11 -11 -13   66.05    5.68
  11 -11  13   81.02    7.94
  11 -11  13   89.12    6.89
  11  11 -13   43.69    5.00
  11  11  13   52.99    5.93
  11  11  13   72.30    8.64
 -11 -11 -14   15.46    5.44
 -11 -11 -14   10.82    4.71
 -11 -11  14   20.57    5.12
 -11 -11  14   16.38    4.35
 -11  11 -14   19.00    4.62
  11 -11 -14   18.88    4.38
  11 -11 -14   16.65    3.44
  11  11 -14   18.74    5.66
  11  11 -14   12.38    4.50
  11  11  14    7.29    5.47
  11  11  14   10.82    4.90
 -11 -11 -15   -8.76    5.08
 -11 -11 -15   -4.00    4.48
 -11 -11  15   -2.66    4.66
 -11 -11  15    6.36    4.33
  11 -11 -15   -9.77    4.12
  11 -11 -15   -7.17    3.39
  11  11 -15   -1.01    5.29
  11  11 -15    2.57    4.35
 -11 -11 -16   -2.64    5.02
 -11 -11 -16   -8.83    4.54
 -11 -11  16    0.23    4.81
 -11 -11  16    2.13    4.31
  11 -11 -16   -8.28    4.41
  11 -11 -16   -9.62    3.60
  11  11 -16   -3.92    5.36
  11  11 -16   -1.70    4.44
 -11 -13   0  884.34    9.82
 -11 -13   0  694.52    9.14
 -11 -13  -1  666.69    9.24
 -11 -13  -1  535.29    8.54
 -11 -13   1  621.76    8.85
 -11 -13   1  522.94    8.38
 -11  13  -1  550.94    5.57
  11  13   1  622.27    9.05
 -11 -13  -2  555.17    8.96
 -11 -13  -2  434.17    8.01
 -11 -13   2  523.39    8.43
 -11 -13   2  416.98    7.88
 -11  13  -2  452.41    5.50
 -11  13   2  497.78    5.26
  11  13  -2  446.08    8.22
  11  13   2  537.67    8.75
 -11 -13  -3  169.72    7.24
 -11 -13   3  158.72    6.78
 -11 -13   3  139.86    6.39
 -11  13  -3  130.67    4.60
 -11  13   3  170.67    5.13
  11  13  -3  155.86    6.88
  11  13   3  171.68    6.94
 -11 -13  -4   28.35    4.24
 -11 -13  -4   27.70    3.96
 -11 -13   4   18.39    3.56
 -11  13  -4   16.38    2.72
  11 -13   4   27.36    3.00
  11  13  -4   17.90    3.78
  11  13   4   22.23    3.84
 -11 -13  -5    6.16    3.85
 -11 -13  -5   -2.92    3.65
 -11 -13   5   -1.68    3.42
 -11  13  -5   -0.50    2.66
 -11  13  -5    1.31    2.10
  11 -13   5    4.02    2.88
  11  13  -5    1.03    3.71
  11  13   5   -0.30    3.53
 -11 -13  -6    2.89    4.30
 -11 -13  -6   -1.89    3.63
 -11 -13   6   -0.85    3.41
 -11  13  -6   -2.30    2.84
 -11  13  -6    2.22    2.40
  11 -13   6    1.18    2.99
  11  13  -6   -3.57    3.60
  11  13   6   -3.10    3.64
 -11 -13  -7    3.26    4.13
 -11 -13  -7    0.14    3.80
 -11 -13   7   -2.47    3.94
 -11 -13   7   -4.66    3.57
 -11  13  -7   -2.22    3.10
 -11  13  -7   -1.60    2.81
  11 -13  -7   -1.83    2.94
  11 -13   7   -1.04    3.21
  11  13  -7   -2.33    3.83
  11  13   7   -1.40    3.86
 -11 -13  -8   19.26    4.59
 -11 -13  -8   20.04    4.31
 -11 -13   8   15.84    4.56
 -11 -13   8   14.03    3.92
 -11  13  -8   10.53    3.49
 -11  13  -8   14.45    3.24
  11 -13  -8   15.09    3.37
  11 -13   8   11.84    3.62
  11  13  -8   14.01    4.30
  11  13   8   22.17    4.43
 -11 -13  -9   31.57    4.91
 -11 -13  -9   30.62    4.52
 -11 -13   9   25.03    4.62
 -11 -13   9   18.54    4.07
 -11  13  -9   21.09    3.88
 -11  13  -9   35.60    3.76
  11 -13  -9   26.91    3.62
  11 -13   9   24.73    3.94
  11  13  -9   24.25    4.59
  11  13   9   31.50    4.79
  11  13   9   37.19    4.63
 -11 -13 -10   34.21    5.07
 -11 -13 -10   35.74    4.69
 -11 -13  10   32.86    4.79
 -11 -13  10   25.01    4.26
 -11  13 -10   27.83    4.27
 -11  13 -10   36.89    4.07
  11 -13 -10   29.93    3.92
  11 -13  10   32.31    4.31
  11  13 -10   28.63    4.56
  11  13  10   32.57    5.03
  11  13  10   45.16    5.15
 -11 -13 -11  114.12    8.43
 -11 -13 -11  118.33    8.33
 -11 -13  11  111.92    8.39
 -11 -13  11   93.08    7.69
 -11  13 -11   97.65    7.52
 -11  13 -11  117.18    7.11
  11 -13 -11   98.99    6.71
  11 -13  11   86.70    7.31
  11 -13  11  114.07    5.13
  11  13 -11   88.34    7.88
  11  13  11  121.09    8.67
  11  13  11  134.52    8.61
 -11 -13 -12  184.15    9.40
 -11 -13 -12  205.61    8.95
 -11 -13  12  179.06    9.18
 -11 -13  12  174.94    8.73
 -11  13 -12  166.23    8.67
 -11  13 -12  209.23    8.43
  11 -13 -12  185.54    7.42
  11 -13  12  188.31    8.57
  11 -13  12  218.00    6.43
  11  13 -12  163.71    8.58
  11  13  12  221.14   10.06
 -11 -13 -13  181.82    9.81
 -11 -13 -13  182.48    9.03
 -11 -13  13  188.90    9.33
 -11 -13  13  181.15    8.79
 -11  13 -13  156.01   10.01
 -11  13 -13  182.43    8.51
  11 -13 -13  188.46    7.73
  11 -13 -13  170.38    5.46
  11 -13  13  207.87    6.89
  11  13 -13  154.75    8.78
 -11 -13 -14  119.52    9.47
 -11 -13 -14  107.04    8.59
 -11 -13  14  115.07    9.19
 -11 -13  14   98.90    8.06
  11 -13 -14  123.12    7.52
  11 -13 -14  117.44    5.74
  11  13 -14  107.74    8.46
 -11 -13 -15   34.22    5.77
 -11 -13 -15   32.42    5.05
 -11 -13  15   32.29    5.63
 -11 -13  15   27.61    4.91
  11 -13 -15   36.65    4.79
  11 -13 -15   32.75    3.63
  11  13 -15   35.95    6.21
  11  13 -15   35.34    5.16
 -11 -15   0  434.78    8.18
 -11 -15   0  323.90    7.88
 -11 -15  -1  529.79    8.73
 -11 -15  -1  414.51    8.20
 -11 -15   1  514.17    8.42
 -11 -15   1  395.26    8.02
  11  15  -1  420.09    8.42
  11  15   1  494.66    8.79
 -11 -15  -2  293.15    7.85
 -11 -15  -2  229.02    7.49
 -11 -15   2  309.72    7.60
 -11 -15   2  220.32    7.31
 -11  15  -2  215.87    4.40
  11  15  -2  242.03    7.49
  11  15   2  284.72    7.97
 -11 -15  -3  124.72    7.33
 -11 -15  -3  118.00    6.59
 -11 -15   3  140.24    6.66
 -11 -15   3  103.89    6.65
 -11  15  -3   83.61    4.16
  11  15  -3  112.34    6.96
  11  15   3  128.11    7.09
 -11 -15  -4   28.17    4.48
 -11 -15  -4   31.06    4.17
 -11 -15   4   27.35    3.96
 -11 -15   4   21.95    3.95
 -11  15  -4   15.58    2.63
  11 -15   4   30.85    2.93
  11  15  -4   25.61    4.13
  11  15   4   32.66    4.14
 -11 -15  -5   -0.89    4.19
 -11 -15  -5   -0.46    3.61
 -11 -15   5   -1.55    3.46
 -11  15  -5    1.12    2.64
  11 -15   5   -2.21    2.79
  11  15  -5    0.67    3.87
  11  15   5    2.45    3.75
 -11 -15  -6    3.21    4.14
 -11 -15  -6    2.47    3.80
 -11 -15   6    3.56    3.66
 -11  15  -6   -0.10    2.89
 -11  15  -6    5.57    2.26
  11 -15   6    3.51    3.05
  11  15  -6   -0.36    4.01
  11  15   6    2.56    3.93
 -11 -15  -7    2.29    4.28
 -11 -15  -7   -0.54    3.91
 -11 -15   7    3.10    3.71
 -11  15  -7    3.36    3.12
 -11  15  -7   -1.50    2.65
  11 -15  -7    0.90    2.89
  11 -15   7   -1.93    3.27
  11  15  -7   -0.92    3.86
  11  15   7    3.16    4.17
 -11 -15  -8    3.38    4.46
 -11 -15  -8    0.06    4.10
 -11 -15   8    3.03    4.30
 -11 -15   8    3.83    3.68
 -11  15  -8    3.60    3.39
 -11  15  -8    1.62    2.93
  11 -15  -8    3.37    3.09
  11 -15   8    2.64    3.45
  11  15  -8   -1.09    4.03
  11  15   8    4.10    4.19
 -11 -15  -9   17.14    4.70
 -11 -15  -9   17.76    4.37
 -11 -15   9   19.20    4.66
 -11 -15   9   21.19    4.28
 -11  15  -9   19.21    3.86
 -11  15  -9   25.13    3.57
  11 -15  -9   23.97    3.64
  11 -15   9   19.46    3.85
  11  15  -9   17.25    4.42
 -11 -15 -10   65.80    8.22
 -11 -15 -10   76.10    7.95
 -11 -15  10   64.95    7.87
 -11 -15  10   44.44    4.76
 -11  15 -10   61.35    6.86
 -11  15 -10   85.03    6.59
  11 -15 -10   49.33    6.00
  11 -15  10   73.44    6.81
  11  15 -10   45.57    4.88
  11  15  10   77.77    8.58
 -11 -15 -11   85.91    8.52
 -11 -15 -11   87.50    8.17
 -11 -15  11   91.09    8.34
 -11 -15  11   93.22    7.81
 -11  15 -11   67.56    7.48
 -11  15 -11   94.05    7.29
  11 -15 -11   69.60    6.47
  11 -15  11   82.14    7.46
  11  15 -11   76.79    8.05
 -11 -15 -12   92.37    8.73
 -11 -15 -12   97.92    8.09
 -11 -15  12   81.57    8.47
 -11 -15  12   79.76    7.80
 -11  15 -12   44.52    5.17
 -11  15 -12   69.64    7.50
  11 -15 -12   78.71    6.76
  11 -15  12   55.43    5.36
  11  15 -12   50.79    5.22
 -11 -15 -13   89.23    8.95
 -11 -15 -13   82.18    8.46
 -11 -15  13   82.84    8.94
 -11 -15  13   44.22    5.13
  11 -15 -13   92.17    7.06
  11 -15  13   73.85    5.71
  11  15 -13   52.40    5.37
 -11 -15 -14   53.66    6.17
 -11 -15 -14   50.44    5.41
 -11 -15  14   44.31    9.69
  11 -15 -14   69.52    6.95
  11 -15 -14   64.46    4.62
  11  15 -14   32.34    5.29
 -11 -17   0  113.49    6.90
 -11 -17   0   84.90    6.70
  11  17   0  100.00    6.84
 -11 -17  -1   22.39    4.15
 -11 -17  -1   20.34    3.95
 -11 -17   1   22.67    3.95
 -11 -17   1   11.95    3.84
  11  17  -1   16.87    3.92
  11  17   1   19.43    3.95
 -11 -17  -2   10.99    3.97
 -11 -17  -2    9.16    3.81
 -11 -17   2    9.51    3.61
 -11 -17   2    8.60    3.70
  11  17  -2    6.44    3.77
  11  17   2    5.98    3.76
 -11 -17  -3   -1.62    3.69
 -11 -17  -3    0.91    3.81
 -11 -17   3   -0.51    3.48
 -11 -17   3   -2.05    3.52
  11  17  -3    0.50    3.94
  11  17   3   -0.64    3.61
 -11 -17  -4   14.51    4.09
 -11 -17  -4   14.76    3.91
 -11 -17   4   16.48    3.83
 -11 -17   4   14.27    3.89
 -11  17  -4   11.81    2.57
  11 -17   4   17.34    2.68
  11  17  -4   10.47    4.11
  11  17   4   16.30    6.97
 -11 -17  -5   32.41    4.78
 -11 -17  -5   26.27    4.21
 -11 -17   5   34.07    4.16
 -11 -17   5   19.29    3.99
 -11  17  -5   22.70    2.92
  11 -17   5   26.49    3.08
  11  17  -5   24.08    4.28
 -11 -17  -6   23.93    4.98
 -11 -17  -6   15.82    4.26
 -11 -17   6   13.04    3.88
 -11  17  -6   12.89    2.97
  11 -17   6   17.32    3.20
  11  17  -6   11.11    4.12
 -11 -17  -7   20.91    4.94
 -11 -17  -7   12.54    4.30
 -11 -17   7   15.69    4.05
 -11  17  -7   13.68    3.28
 -11  17  -7   17.77    2.69
  11 -17  -7   16.37    3.16
  11 -17   7   12.29    3.40
  11  17  -7   15.89    4.28
 -11 -17  -8   13.14    4.85
 -11 -17  -8   16.50    4.32
 -11 -17   8   20.83    4.81
 -11 -17   8   15.75    4.17
 -11  17  -8   10.49    3.53
 -11  17  -8   22.93    3.25
  11 -17  -8   18.64    3.36
  11 -17   8   17.96    3.68
  11  17  -8   15.59    4.46
 -11 -17  -9   -5.43    4.64
 -11 -17  -9   -5.84    4.07
 -11 -17   9   -0.22    4.46
 -11 -17   9   -0.19    3.94
 -11  17  -9    2.41    3.70
 -11  17  -9    0.85    3.24
  11 -17  -9    2.30    3.28
  11 -17   9    4.22    3.74
  11  17  -9    4.95    4.49
 -11 -17 -10   -2.72    4.72
 -11 -17 -10   -4.42    4.26
 -11 -17  10   -1.11    4.51
 -11 -17  10    0.93    4.12
 -11  17 -10    3.86    3.91
 -11  17 -10    5.36    3.60
  11 -17 -10   -1.94    3.42
  11 -17  10    3.69    3.88
  11  17 -10   -2.16    4.23
 -11 -17 -11   12.83    5.17
 -11 -17 -11   16.16    4.54
 -11 -17  11   21.24    5.20
 -11 -17  11   14.72    4.38
 -11  17 -11   11.83    4.35
 -11  17 -11   20.39    4.09
  11 -17 -11    8.98    3.84
  11 -17  11   13.76    4.26
  11  17 -11   17.14    4.84
 -11 -17 -12   25.45    5.31
 -11 -17 -12   24.03    4.63
 -11 -17  12   17.25    5.16
 -11 -17  12   22.61    5.57
  11 -17 -12   15.09    3.97
  11  17 -12   13.36    4.83
 -11 -17 -13    7.49    5.18
 -11 -17 -13    9.66    4.53
  11 -17 -13    4.82    3.89
  11  17 -13    0.16    4.93
 -11 -17 -14   -3.66    4.95
 -11 -17 -14   -2.49    4.35
  11 -17 -14   -1.68    3.96
  11  17 -14  -12.71    4.69
 -11 -19   0    3.15    4.01
 -11 -19   0    1.51    3.83
 -11 -19  -1   -0.53    3.96
 -11 -19  -1   -2.50    3.73
 -11 -19   1    2.01    3.87
 -11 -19   1   -3.07    3.58
  11  19  -1   -1.72    3.77
 -11 -19  -2    8.21    4.03
 -11 -19  -2    5.13    3.89
 -11 -19   2    7.76    3.90
 -11 -19   2    5.17    3.76
  11  19  -2   -0.64    3.98
 -11 -19  -3  137.94    7.42
 -11 -19  -3  100.54    7.19
 -11 -19   3  120.33    7.04
 -11 -19   3   92.84    6.81
  11  19  -3   96.29    7.60
 -11 -19  -4  264.54    8.33
 -11 -19  -4  206.10    7.93
 -11 -19   4  235.60    7.71
 -11 -19   4  178.26    7.44
  11  19  -4  192.63    8.58
 -11 -19  -5  277.72    9.26
 -11 -19  -5  287.17    8.54
 -11 -19  -5  213.29    7.85
 -11 -19   5  264.78    8.07
 -11 -19   5  190.10    7.59
 -11  19  -5  176.55    5.13
  11 -19   5  228.94    5.47
  11  19  -5  217.82    8.43
 -11 -19  -6  212.62    9.08
 -11 -19  -6  208.87    8.43
 -11 -19   6  201.54    7.81
 -11 -19   6  165.61    7.77
 -11  19  -6  149.83    5.44
  11 -19   6  182.01    5.88
  11  19  -6  172.02    8.36
 -11 -19  -7   85.59    8.75
 -11 -19  -7   92.31    7.87
 -11 -19   7   85.41    7.18
 -11  19  -7   65.25    5.49
  11 -19  -7  110.09    5.20
  11 -19   7   73.66    5.88
  11  19  -7   88.11    8.03
 -11 -19  -8   22.11    5.17
 -11 -19  -8   27.70    4.59
 -11 -19   8   24.01    5.14
 -11 -19   8   22.72    4.37
 -11  19  -8   17.37    3.63
 -11  19  -8   24.01    3.20
  11 -19  -8   22.41    3.33
  11 -19   8   14.69    3.78
  11  19  -8   23.76    4.86
 -11 -19  -9   12.01    4.98
 -11 -19  -9    7.01    4.36
 -11 -19   9    9.10    4.89
 -11 -19   9   10.89    4.38
 -11  19  -9   10.26    3.65
 -11  19  -9   13.13    3.35
  11 -19  -9   12.81    3.34
  11 -19   9   11.57    3.75
  11  19  -9   16.61    4.88
 -11 -19 -10   -3.79    4.93
 -11 -19 -10    1.94    4.36
 -11 -19  10    1.74    4.77
 -11 -19  10    3.26    4.67
 -11  19 -10    7.71    3.72
 -11  19 -10    5.19    3.55
  11 -19 -10    0.43    3.39
  11 -19  10    4.02    3.86
  11  19 -10    2.93    4.62
 -11 -19 -11  -12.07    4.60
 -11 -19 -11   -1.70    4.09
  11 -19 -11   -4.56    3.51
  11  19 -11   -3.36    4.45
 -11 -19 -12    0.61    4.80
 -11 -19 -12   -0.72    4.17
  11 -19 -12   -7.99    3.51
  11  19 -12   -8.64    4.75
 -11 -19 -13   -6.29    4.84
 -11 -19 -13    4.33    4.44
  11 -19 -13   -5.80    3.80
  11  19 -13   -4.62    4.85
 -11 -21   0  280.87    8.41
 -11 -21   0  194.94    7.72
  11  21   0  215.16    8.20
 -11 -21  -1   11.99    4.23
 -11 -21  -1   12.46    4.15
 -11 -21   1   12.03    4.17
 -11 -21   1    7.06    3.99
  11  21  -1    5.96    4.35
 -11 -21  -2   51.41    4.80
 -11 -21  -2   40.97    4.52
 -11 -21   2   53.13    4.64
 -11 -21   2   35.08    4.41
  11  21  -2   40.30    4.92
 -11 -21  -3  136.91    7.80
 -11 -21  -3   97.83    7.50
 -11 -21   3  149.38    7.66
 -11 -21   3   98.51    7.41
  11  21  -3   98.72    8.28
 -11 -21  -4  216.71    8.17
 -11 -21  -4  181.81    8.04
 -11 -21   4  208.25    7.80
 -11 -21   4  152.67    7.75
  11  21  -4  170.99    8.47
 -11 -21  -5  343.34    9.90
 -11 -21  -5  361.09    9.05
 -11 -21  -5  302.90    8.81
 -11 -21   5  326.79    8.43
 -11 -21   5  265.14    8.26
  11 -21   5  265.04    5.62
  11  21  -5  274.83    9.14
 -11 -21  -6  395.05   10.47
 -11 -21  -6  411.45    9.39
 -11 -21  -6  327.66    9.07
 -11 -21   6  399.54    8.96
 -11 -21   6  297.06    8.76
 -11  21  -6  259.18    5.85
  11 -21   6  302.59    6.40
  11  21  -6  317.34    9.88
 -11 -21  -7  246.38    9.77
 -11 -21  -7  272.23    8.76
 -11 -21   7  255.07    8.46
 -11 -21   7  205.35    8.53
 -11  21  -7  165.46    5.86
  11 -21  -7  252.22    5.62
  11 -21   7  208.17    6.47
  11  21  -7  202.06    9.49
 -11 -21  -8   79.79    8.64
 -11 -21  -8   78.04    7.78
 -11 -21   8   79.95    8.35
 -11  21  -8   49.72    5.62
 -11  21  -8   78.44    5.06
  11 -21  -8   91.51    5.22
  11 -21   8   59.32    6.04
  11  21  -8   51.87    5.24
 -11 -21  -9   -3.04    4.81
 -11 -21  -9   -9.11    4.04
 -11  21  -9   -1.62    3.38
 -11  21  -9   -4.46    3.07
  11 -21  -9    2.96    3.06
  11 -21   9   -5.47    3.50
  11  21  -9   -4.96    4.53
 -11 -21 -10   -5.83    4.90
 -11 -21 -10   -5.61    4.03
 -11  21 -10   -1.56    3.57
  11 -21 -10   -2.46    3.23
  11 -21  10   -2.80    3.67
  11  21 -10   -7.87    4.56
 -11 -21 -11   -1.44    4.84
 -11 -21 -11   -3.39    4.19
  11 -21 -11   -0.30    3.44
  11  21 -11   -1.77    4.73
 -11 -23   0   -1.76    4.12
 -11 -23   0   -1.02    3.88
  11  23   0    2.63    4.29
 -11 -23  -1   65.02    7.40
 -11 -23  -1   40.79    4.62
 -11 -23   1   62.74    7.31
 -11 -23   1   40.92    4.57
  11  23  -1   41.55    4.98
 -11 -23  -2  140.68    7.78
 -11 -23  -2   96.53    7.37
 -11 -23   2  138.00    7.78
 -11 -23   2   89.32    7.18
  11  23  -2   97.62    8.04
 -11 -23  -3   10.28    4.20
 -11 -23  -3    6.06    4.23
 -11 -23   3    6.20    4.15
 -11 -23   3    2.59    4.01
  11  23  -3    6.68    4.63
 -11 -23  -4   36.49    5.25
 -11 -23  -4   34.44    4.44
 -11 -23  -4   30.98    4.84
 -11 -23   4   45.04    4.66
 -11 -23   4   26.01    4.50
  11  23  -4   30.39    5.21
 -11 -23  -5  143.96    8.76
 -11 -23  -5  134.60    7.65
 -11 -23   5  132.68    7.34
  11  23  -5   99.18    8.71
 -11 -23  -6  153.94    9.00
 -11 -23  -6  170.23    7.94
 -11 -23   6  163.69    7.66
 -11  23  -6   72.52    4.84
  11 -23   6   70.05    5.30
  11  23  -6  130.25    8.98
 -11 -23  -7  126.86    8.92
 -11 -23  -7  115.88    7.64
 -11 -23   7  133.90    7.57
 -11  23  -7   63.24    5.16
  11 -23  -7  100.38    4.77
  11 -23   7   60.34    5.59
  11  23  -7   91.13    8.90
 -11 -23  -8   73.99    8.39
 -11 -23  -8   73.83    7.55
 -11 -23   8   80.14    7.22
 -11  23  -8   44.14    5.44
  11 -23  -8   58.16    4.95
  11 -23   8   48.09    4.03
  11  23  -8   51.43    5.53
 -11 -23  -9   25.03    5.09
 -11 -23  -9   30.50    4.55
 -11  23  -9   19.03    3.61
 -11  23  -9   34.29    4.65
  11 -23  -9   27.64    3.34
  11 -23   9   23.24    3.96
  11  23  -9   20.80    5.03
 -11 -23 -10   -0.77    4.70
 -11 -23 -10   -6.32    4.02
  11 -23 -10    2.31    3.27
  11  23 -10   -4.39    4.71
 -11 -25   0  333.55    8.73
  11  25   0  253.00    9.20
 -11 -25  -1  121.63    7.55
 -11 -25   1  137.16    7.82
  11  25  -1   91.84    8.14
 -11 -25  -2   69.17    7.15
 -11 -25   2   76.99    7.13
  11  25  -2   45.46    5.24
 -11 -25  -3   94.05    7.25
 -11 -25   3  100.38    7.32
  11  25  -3   70.47    8.28
 -11 -25  -4   72.38    8.41
 -11 -25  -4   47.78    4.62
 -11 -25   4   66.89    7.23
  11  25  -4   38.92    5.45
 -11 -25  -5   -0.12    4.53
 -11 -25  -5   -3.08    3.84
 -11 -25   5    1.27    4.06
  11  25  -5   -9.09    4.55
 -11 -25  -6    7.81    5.03
 -11 -25  -6    7.46    3.95
 -11 -25   6    9.19    3.96
  11  25  -6    5.71    4.84
 -11 -25  -7   24.21    5.16
 -11 -25  -7   14.44    4.19
 -11 -25   7   18.71    4.14
 -11  25  -7    0.65    2.99
  11 -25   7   -3.09    3.15
 -11 -25  -8    6.86    4.80
 -11 -25  -8    0.21    4.00
 -11 -25   8    4.08    4.09
 -11  25  -8   -3.06    3.14
  11 -25  -8   -2.40    2.72
  11 -25   8   -6.16    3.25
 -11 -27   0  392.90    8.96
 -11 -27  -1  399.50    8.86
 -11 -27   1  408.56    8.94
 -11 -27  -2  137.83    7.61
 -11 -27   2  135.34    7.49
 -11 -27  -3   11.72    4.09
 -11 -27   3   18.14    4.30
 -11 -27  -4    7.83    4.76
 -11 -27  -4   -1.30    3.95
 -11 -27   4    5.28    4.14
 -11 -27  -5   10.40    5.08
 -11 -27  -5    5.89    3.99
 -11 -27   5   10.05    4.07
 -12   0  -2  780.19    8.23
 -12   0  -3  134.04    5.84
 -12   0  -3  117.07    5.61
 -12   0   3  110.97    5.16
 -12   0  -4    7.43    3.14
 -12   0  -4    3.93    3.07
 -12   0   4    5.85    2.81
 -12   0  -5    3.66    3.46
 -12   0  -5   -0.02    3.13
 -12   0   5    2.21    2.91
  12   0   5    2.98    2.85
 -12   0  -6   15.86    3.69
 -12   0  -6   18.22    3.56
 -12   0   6    9.15    3.24
 -12   0   6   14.09    3.10
  12   0  -6   11.30    3.03
  12   0   6   13.42    3.52
  12   0   6   16.35    3.20
 -12   0  -7   65.09    6.28
 -12   0  -7   82.10    6.46
 -12   0   7   54.96    5.77
 -12   0   7   48.92    5.47
  12   0  -7   60.37    5.39
  12   0   7   68.63    6.32
  12   0   7   72.30    5.74
 -12   0  -8    5.67    3.69
 -12   0  -8    1.31    3.69
 -12   0   8    0.55    3.34
 -12   0   8    0.21    3.11
  12   0  -8    0.91    3.24
  12   0   8    2.26    3.68
  12   0   8    6.16    3.56
 -12   0  -9  142.47    7.64
 -12   0  -9  180.60    7.47
 -12   0   9  125.53    6.80
  12   0  -9  135.32    6.58
  12   0   9  155.43    7.67
  12   0   9  177.74    7.32
 -12   0 -10  490.26   10.11
 -12   0 -10  610.73   10.16
 -12   0  10  486.86    9.36
  12   0 -10  496.88    8.53
  12   0  10  603.04   10.71
  12   0  10  622.08    9.79
 -12   0 -11  773.84   11.92
 -12   0 -11  901.66   11.77
  12   0 -11  830.69   11.80
  12   0 -11  730.72    9.90
  12   0  11  879.88   12.55
  12   0  11 1034.00   11.92
 -12   0 -12  560.90   11.44
 -12   0 -12  643.59   11.13
  12   0 -12  632.88   11.29
  12   0 -12  545.66    9.39
  12   0  12  658.13   12.01
  12   0  12  788.36   11.48
 -12   0 -13  249.11   10.18
 -12   0 -13  276.07    9.67
  12   0 -13  285.39    9.67
  12   0 -13  252.86    8.27
  12   0  13  293.61   10.61
  12   0  13  342.89    9.95
 -12   0 -14  129.01    9.36
 -12   0 -14  122.78    8.86
  12   0 -14  152.65    9.10
  12   0 -14  119.18    7.68
  12   0  14  118.84    9.50
  12   0  14  150.65    9.26
 -12   0 -15   27.19    5.49
 -12   0 -15   28.34    5.11
  12   0 -15   26.68    5.18
  12   0 -15   33.43    4.53
  12   0  15   44.63    5.86
 -12   0 -16    1.41    5.22
 -12   0 -16    1.15    4.65
  12   0 -16   -6.97    4.62
  12   0 -16   -2.86    3.98
 -12   0 -17    2.48    4.97
  12   0 -17    7.30    5.04
  12   0 -17    1.96    4.27
 -12  -2  -2  350.34    6.85
 -12  -2  -3   94.82    5.51
 -12  -2   3   79.75    5.01
 -12   2  -3  100.20    5.59
 -12   2  -3   97.44    5.19
 -12  -2  -4    7.55    3.26
 -12  -2  -4    3.05    3.20
 -12  -2   4    3.98    2.91
 -12   2  -4    4.55    3.33
 -12   2  -4    1.11    2.80
 -12   2   4    2.03    2.61
  12   2   4    1.13    2.85
 -12  -2  -5  273.34    7.36
 -12  -2  -5  294.94    7.06
 -12  -2   5  217.58    6.21
 -12   2  -5  257.29    6.78
 -12   2  -5  298.22    6.58
 -12   2   5  226.61    5.81
  12   2   5  287.54    6.61
 -12  -2  -6  280.23    7.61
 -12  -2  -6  328.63    7.76
 -12  -2   6  258.01    7.12
 -12  -2   6  217.64    6.32
 -12   2  -6  274.99    7.14
 -12   2  -6  333.46    7.14
 -12   2   6  251.18    6.63
 -12   2   6  240.15    6.00
  12  -2   6  293.53    7.39
  12  -2   6  307.02    6.27
  12   2  -6  248.21    6.43
  12   2   6  315.13    7.20
 -12  -2  -7   86.82    6.68
 -12  -2  -7   96.57    6.71
 -12  -2   7   73.01    6.00
 -12  -2   7   65.77    5.61
 -12   2  -7   88.57    6.45
 -12   2  -7   99.69    6.28
 -12   2   7   70.55    5.87
 -12   2   7   68.32    5.38
  12  -2  -7   72.52    5.24
  12  -2   7   87.45    6.28
  12  -2   7   93.22    5.82
  12   2  -7   66.18    5.69
  12   2   7   97.56    6.68
  12   2   7  100.06    6.33
 -12  -2  -8   -2.22    3.93
 -12  -2  -8   -2.17    3.51
 -12  -2   8   -1.35    3.46
 -12  -2   8   -0.13    3.33
 -12   2  -8    4.20    3.88
 -12   2  -8    4.85    3.57
 -12   2   8   -3.26    3.33
  12  -2  -8   -0.12    3.10
  12  -2   8    3.62    3.95
  12  -2   8   -0.50    3.17
  12   2  -8    1.12    3.36
  12   2   8   -1.63    3.72
  12   2   8   -2.14    3.65
 -12  -2  -9   46.80    4.68
 -12  -2  -9   64.31    7.08
 -12  -2   9   55.02    6.46
 -12  -2   9   40.06    3.96
 -12   2  -9   60.01    6.83
 -12   2  -9   75.56    6.66
 -12   2   9   53.48    6.26
  12  -2  -9   57.17    5.74
  12  -2   9   72.11    6.95
  12  -2   9   74.72    6.21
  12   2  -9   43.31    4.12
  12   2   9   65.77    7.33
  12   2   9   61.21    6.63
 -12  -2 -10  295.04    9.06
 -12  -2 -10  326.33    8.94
 -12  -2  10  270.56    8.23
 -12  -2  10  247.44    8.80
 -12   2 -10  283.91    8.69
 -12   2 -10  339.89    8.52
  12  -2 -10  290.55    8.74
  12  -2 -10  269.77    7.19
  12  -2  10  333.52    9.15
  12  -2  10  365.54    8.12
  12   2 -10  269.86    7.91
  12   2  10  333.98    9.32
  12   2  10  382.56    9.21
 -12  -2 -11  378.52   10.09
 -12  -2 -11  450.50    9.96
 -12  -2  11  344.61    9.13
 -12   2 -11  356.74    9.65
 -12   2 -11  428.23    9.53
  12  -2 -11  421.08    9.55
  12  -2 -11  377.65    8.22
  12  -2  11  437.62   10.18
  12  -2  11  510.05    9.59
  12   2 -11  438.34   10.10
  12   2 -11  347.70    8.23
  12   2  11  418.55   10.27
  12   2  11  507.58    9.90
 -12  -2 -12  373.98   10.44
 -12  -2 -12  419.60   10.38
 -12   2 -12  342.15   10.09
 -12   2 -12  398.51    9.82
  12  -2 -12  377.68    9.74
  12  -2 -12  348.33    8.38
  12  -2  12  383.72   10.49
  12  -2  12  477.56    9.97
  12   2 -12  402.98   10.28
  12   2 -12  336.72    8.46
  12   2  12  421.25   10.83
  12   2  12  481.57   10.05
 -12  -2 -13  262.39   10.21
 -12  -2 -13  277.36    9.67
 -12   2 -13  204.95    9.59
 -12   2 -13  235.35    9.36
  12  -2 -13  248.72    9.31
  12  -2 -13  230.02    7.90
  12  -2  13  210.63    9.84
  12  -2  13  285.11    9.53
  12   2 -13  259.20    9.73
  12   2 -13  239.36    8.51
  12   2  13  276.12   10.33
  12   2  13  324.89    9.84
 -12  -2 -14   46.41    5.99
 -12  -2 -14   46.44    5.31
 -12   2 -14   32.76    5.49
 -12   2 -14   32.83    5.34
  12  -2 -14   66.53    8.17
  12  -2 -14   39.95    4.49
  12  -2  14   30.05    5.63
  12  -2  14   46.27    5.52
  12   2 -14   47.58    5.46
  12   2 -14   34.70    4.70
  12   2  14   52.89    6.10
  12   2  14   56.39    5.60
 -12  -2 -15   -1.06    5.17
 -12  -2 -15    1.16    4.59
 -12   2 -15   -9.94    4.93
 -12   2 -15    0.87    4.81
  12  -2 -15    4.31    4.54
  12  -2 -15    0.80    3.90
  12   2 -15   -2.96    4.79
  12   2 -15   -5.38    4.14
  12   2  15   -0.29    5.05
  12   2  15    2.07    4.63
 -12  -2 -16    0.38    5.19
 -12  -2 -16    6.43    4.84
 -12   2 -16    8.02    4.89
  12  -2 -16    1.25    4.72
  12  -2 -16   -1.22    3.94
  12   2 -16   -2.27    4.94
  12   2 -16   -1.09    4.30
 -12  -2 -17    3.74    4.99
 -12   2 -17    9.25    4.99
  12  -2 -17    6.01    4.89
  12  -2 -17    6.11    4.19
  12   2 -17   -2.33    5.09
  12   2 -17   -3.79    4.31
 -12  -4  -1  593.20    8.10
 -12  -4  -2  196.46    6.39
 -12  -4   2  163.83    5.78
 -12  -4  -3   41.42    3.70
 -12  -4   3   31.21    3.41
 -12   4  -3   44.87    5.02
 -12   4  -3   42.38    4.67
 -12  -4  -4  494.64    8.56
 -12  -4  -4  530.83    8.16
 -12  -4   4  391.12    7.35
 -12   4  -4  480.21    7.55
 -12   4  -4  511.00    6.94
 -12   4   4  401.60    6.11
  12   4   4  501.68    7.75
 -12  -4  -5  666.66    9.54
 -12  -4  -5  725.07    9.30
 -12  -4   5  530.18    7.93
 -12   4  -5  623.89    8.49
 -12   4  -5  759.49    8.24
 -12   4   5  568.82    7.83
 -12   4   5  555.36    7.10
  12   4  -5  573.04    8.11
  12   4   5  712.96    9.02
 -12  -4  -6  595.85    9.52
 -12  -4  -6  718.46    9.44
 -12  -4   6  501.49    7.98
 -12   4  -6  590.36    8.63
 -12   4  -6  712.25    8.42
 -12   4   6  546.00    8.05
 -12   4   6  512.09    7.13
  12  -4   6  638.43    8.91
  12   4  -6  551.98    8.16
  12   4   6  683.41    8.93
 -12  -4  -7  391.31    8.92
 -12  -4  -7  462.00    8.76
 -12  -4   7  379.37    8.12
 -12  -4   7  332.82    7.38
 -12   4  -7  378.59    7.96
 -12   4  -7  482.19    7.97
 -12   4   7  362.56    7.36
  12  -4   7  427.27    8.33
  12  -4   7  415.30    6.82
  12   4  -7  355.69    7.53
  12   4   7  455.48    9.14
  12   4   7  466.81    8.74
 -12  -4  -8   96.56    7.40
 -12  -4  -8  111.06    7.47
 -12  -4   8  114.36    6.86
 -12  -4   8  105.72    6.39
 -12   4  -8  126.70    6.87
 -12   4  -8  139.10    6.74
  12  -4  -8  111.09    5.54
  12  -4   8  123.84    7.07
  12  -4   8  146.46    5.99
  12   4  -8  124.93    6.84
  12   4   8  134.67    7.47
  12   4   8  129.41    7.49
 -12  -4  -9   -4.31    4.25
 -12  -4  -9   -1.24    4.02
 -12  -4   9    5.99    3.75
 -12  -4   9    0.06    3.55
 -12   4  -9    3.02    3.96
 -12   4  -9    5.83    3.69
  12  -4  -9    0.54    3.70
  12  -4  -9    1.50    3.25
  12  -4   9    0.29    3.88
  12  -4   9    4.10    3.49
  12   4  -9    3.93    3.67
  12   4   9    5.17    4.06
  12   4   9    1.69    4.01
 -12  -4 -10    2.86    4.51
 -12  -4 -10    1.04    4.14
 -12  -4  10    3.81    3.95
 -12  -4  10    5.18    3.72
 -12   4 -10   12.41    4.45
 -12   4 -10    4.66    4.00
  12  -4 -10    6.59    4.13
  12  -4 -10    6.50    3.32
  12  -4  10    6.46    4.20
  12  -4  10    6.58    3.56
  12   4 -10    9.34    3.84
  12   4  10   11.25    4.41
  12   4  10    1.77    4.17
 -12  -4 -11   66.66    7.99
 -12  -4 -11   72.77    7.83
 -12  -4  11   67.07    7.28
 -12  -4  11   65.20    6.77
 -12   4 -11   68.33    7.68
 -12   4 -11   92.08    7.79
  12  -4 -11   69.99    7.27
  12  -4 -11   53.93    6.27
  12  -4  11   71.16    7.77
  12  -4  11   86.16    6.92
  12   4 -11   72.09    6.92
  12   4  11   75.15    8.03
  12   4  11   94.56    8.14
 -12  -4 -12  102.14    8.66
 -12  -4 -12  110.02    8.40
 -12  -4  12   95.79    7.67
 -12   4 -12   97.70    8.37
 -12   4 -12   86.62    8.16
  12  -4 -12  110.22    7.89
  12  -4 -12   90.34    6.78
  12  -4  12  103.55    8.41
  12  -4  12  119.58    7.98
  12   4 -12  107.26    8.71
  12   4 -12   98.42    7.40
  12   4  12  107.45    8.75
  12   4  12  134.35    8.29
 -12  -4 -13   89.41    9.23
 -12  -4 -13   85.85    8.53
 -12   4 -13   51.32    5.50
 -12   4 -13   72.40    8.44
  12  -4 -13   85.15    7.91
  12  -4 -13   79.65    6.96
  12  -4  13   71.48    8.72
  12  -4  13   84.60    8.20
  12   4 -13   94.36    8.83
  12   4 -13   67.01    7.47
  12   4  13   99.32    9.13
  12   4  13  114.52    8.65
 -12  -4 -14   55.95    6.22
 -12  -4 -14   80.98    8.48
 -12   4 -14   39.38    5.55
 -12   4 -14   52.09    5.51
  12  -4 -14   71.41    7.90
  12  -4 -14   57.20    6.98
  12  -4  14   45.19    5.83
  12  -4  14   73.84    9.01
  12   4 -14   51.62    5.73
  12   4 -14   43.08    4.83
  12   4  14   65.06    6.33
  12   4  14   88.70    8.59
 -12  -4 -15    3.87    5.13
 -12  -4 -15    9.41    4.56
 -12   4 -15    0.55    5.08
 -12   4 -15    1.88    4.76
  12  -4 -15    8.44    4.65
  12  -4 -15    6.21    3.88
  12   4 -15   -5.47    4.83
  12   4 -15   -4.66    4.17
  12   4  15    6.24    5.25
  12   4  15   11.23    4.93
 -12  -4 -16   43.67    6.00
 -12  -4 -16   38.58    5.32
 -12   4 -16   45.81    5.55
  12  -4 -16   41.58    5.34
  12  -4 -16   40.61    4.50
  12   4 -16   48.50    6.14
  12   4 -16   35.46    4.91
  12   4  16   55.54    6.80
 -12  -6   0   20.42    3.31
 -12  -6  -1   74.08    5.78
 -12  -6   1   53.74    5.49
 -12  -6  -2   -1.35    3.14
 -12  -6   2   -1.75    2.99
 -12   6  -2    1.23    2.68
 -12  -6  -3   49.01    5.93
 -12  -6   3   32.74    3.51
 -12   6  -3   40.72    4.85
  12   6   3   41.08    3.76
 -12  -6  -4  370.09    8.36
 -12  -6  -4  413.94    7.83
 -12  -6   4  302.80    6.91
 -12   6  -4  343.26    6.73
 -12   6  -4  371.53    6.21
  12   6  -4  312.66    7.05
  12   6   4  385.76    7.56
 -12  -6  -5 1072.00   11.60
 -12  -6  -5 1226.00   11.31
 -12  -6   5  857.27    9.64
 -12   6  -5 1007.00    9.79
 -12   6  -5 1086.00    8.84
 -12   6   5  899.21    8.81
  12  -6   5 1039.00    9.88
  12   6  -5  910.72    9.56
  12   6   5 1185.00   10.93
 -12  -6  -6 1184.00   12.32
 -12  -6  -6 1401.00   12.24
 -12  -6   6  957.51   10.25
 -12   6  -6 1063.00   10.40
 -12   6  -6 1344.00   10.32
 -12   6   6 1010.00    9.49
  12  -6   6 1166.00   10.70
  12   6  -6 1044.00   10.56
  12   6   6 1319.00   11.68
 -12  -6  -7  789.18   11.01
 -12  -6  -7  924.98   10.95
 -12  -6   7  660.66    9.35
 -12   6  -7  723.02    9.60
 -12   6  -7  892.68    9.46
  12  -6   7  785.45    9.89
  12  -6   7  803.14    7.64
  12   6  -7  706.28    9.50
  12   6   7  894.43   10.41
 -12  -6  -8  423.89    9.48
 -12  -6  -8  493.16    9.50
 -12  -6   8  425.85    8.94
 -12  -6   8  376.62    8.14
 -12   6  -8  410.44    8.56
 -12   6  -8  509.35    8.42
  12  -6   8  444.08    8.70
  12  -6   8  497.40    7.20
  12   6  -8  400.39    8.36
  12   6   8  521.71    9.94
  12   6   8  531.49    9.54
 -12  -6  -9  177.06    8.39
 -12  -6  -9  230.26    8.48
 -12  -6   9  197.03    7.72
 -12  -6   9  187.84    7.39
 -12   6  -9  189.22    7.57
 -12   6  -9  242.72    7.40
  12  -6  -9  219.89    7.57
  12  -6  -9  192.60    5.76
  12  -6   9  216.18    7.96
  12  -6   9  235.23    6.46
  12   6  -9  192.28    7.53
  12   6   9  237.27    8.56
  12   6   9  241.99    8.44
 -12  -6 -10    5.57    4.49
 -12  -6 -10    7.81    4.55
 -12  -6  10   13.00    4.10
 -12  -6  10   12.56    3.84
 -12   6 -10   13.32    4.26
 -12   6 -10   19.21    4.09
  12  -6 -10   14.12    4.02
  12  -6 -10    9.12    3.35
  12  -6  10   15.00    4.39
  12  -6  10   19.43    3.71
  12   6 -10   10.17    4.02
  12   6  10   16.83    4.72
  12   6  10   14.69    4.49
 -12  -6 -11   15.02    4.74
 -12  -6 -11    9.58    4.28
 -12  -6  11   15.86    4.41
 -12  -6  11   15.30    3.95
 -12   6 -11    8.23    4.21
 -12   6 -11   21.97    4.36
  12  -6 -11   17.76    4.29
  12  -6 -11   15.20    3.41
  12  -6  11   14.23    4.45
  12  -6  11   16.09    3.84
  12   6 -11   15.28    4.22
  12   6  11   25.95    5.02
  12   6  11   18.89    4.57
 -12  -6 -12   87.76    8.77
 -12  -6 -12   89.90    8.24
 -12  -6  12   78.22    7.91
 -12  -6  12   70.32    7.44
 -12   6 -12   64.27    7.76
 -12   6 -12   85.99    7.96
  12  -6 -12   81.49    7.34
  12  -6 -12   82.58    6.59
  12  -6  12   88.64    8.15
  12  -6  12   93.76    7.14
  12   6 -12   74.78    7.47
  12   6  12  102.07    8.67
  12   6  12   99.87    8.16
 -12  -6 -13   41.88    5.73
 -12  -6 -13   45.65    5.34
 -12  -6  13   35.92    5.11
 -12   6 -13   34.65    5.35
 -12   6 -13   35.16    5.03
  12  -6 -13   42.29    4.96
  12  -6 -13   55.94    6.56
  12  -6  13   35.20    5.41
  12  -6  13   45.37    4.94
  12   6 -13   42.21    5.57
  12   6 -13   35.63    4.70
  12   6  13   48.52    5.76
  12   6  13   73.88    8.42
 -12  -6 -14    2.50    5.15
 -12  -6 -14    1.81    4.52
 -12  -6  14   -3.98    4.52
 -12   6 -14   -1.04    4.98
 -12   6 -14   -0.19    4.70
  12  -6 -14    2.12    4.47
  12  -6 -14    0.34    3.70
  12   6 -14   -4.46    4.85
  12   6 -14    5.84    4.28
  12   6  14    2.16    5.17
  12   6  14    3.63    4.88
 -12  -6 -15   82.75    9.31
 -12  -6 -15   68.46    8.50
 -12   6 -15   87.02    8.74
  12  -6 -15   52.53    5.43
  12  -6 -15   61.68    6.88
  12   6 -15   61.08    6.16
  12   6 -15   47.75    5.10
  12   6  15  110.42    9.78
  12   6  15  113.69    9.16
 -12  -6 -16   79.74    9.60
 -12  -6 -16   76.89    8.80
  12  -6 -16   78.36    8.39
  12  -6 -16   45.65    4.52
  12   6 -16   49.76    6.11
  12   6 -16   48.02    5.25
  12   6  16   97.98    9.87
  12   6  16   92.78    9.19
 -12  -8   0  280.98    7.00
 -12  -8   0  222.87    6.52
 -12  -8  -1   26.55    3.57
 -12  -8   1   23.84    3.45
 -12  -8   1   23.35    3.45
 -12  -8  -2   -2.87    3.23
 -12  -8   2   -2.95    3.08
 -12   8  -2    1.63    2.60
 -12  -8  -3  165.02    6.72
 -12  -8   3  113.30    6.32
 -12   8  -3  149.55    5.26
  12   8   3  167.32    6.52
 -12  -8  -4  445.67    8.91
 -12  -8  -4  499.77    8.68
 -12  -8   4  348.10    7.52
 -12   8  -4  414.76    6.80
 -12   8  -4  442.45    6.08
 -12   8   4  374.71    6.30
  12   8  -4  369.74    7.66
  12   8   4  472.45    8.20
 -12  -8  -5  655.26   10.08
 -12  -8  -5  731.99    9.88
 -12  -8   5  507.49    8.45
 -12   8  -5  557.05    7.78
 -12   8  -5  669.27    7.22
 -12   8   5  624.68   11.29
 -12   8   5  536.77    6.40
  12  -8   5  616.94    8.17
  12   8  -5  524.49    8.70
  12   8   5  712.11    9.52
 -12  -8  -6 1025.00   12.07
 -12  -8  -6 1151.00   11.68
 -12  -8   6  816.00    9.93
 -12   8  -6  863.52    9.57
 -12   8  -6 1065.00    8.96
  12  -8   6  937.66    9.79
  12   8  -6  858.72   10.26
  12   8   6 1125.00   11.41
 -12  -8  -7 1039.00   12.38
 -12  -8  -7 1183.00   12.09
 -12  -8   7 1014.00   11.93
 -12  -8   7  869.67   10.48
 -12   8  -7  924.69   10.26
 -12   8  -7 1192.00   10.11
  12  -8   7 1023.00   10.57
  12   8  -7  944.76   10.87
 -12  -8  -8  477.61   10.00
 -12  -8  -8  529.60    9.80
 -12  -8   8  437.60    9.32
 -12  -8   8  408.75    8.66
 -12   8  -8  417.09    8.62
 -12   8  -8  547.67    8.55
  12  -8   8  444.94    8.78
  12  -8   8  521.67    6.50
  12   8  -8  450.73    8.96
  12   8   8  557.92   10.41
  12   8   8  561.66    9.77
 -12  -8  -9   19.31    4.69
 -12  -8  -9   26.95    4.56
 -12  -8   9   19.43    4.40
 -12  -8   9   17.74    4.10
 -12   8  -9   16.18    4.16
 -12   8  -9   30.23    4.12
  12  -8  -9   28.03    3.93
  12  -8   9   11.92    4.22
  12  -8   9   25.42    3.30
  12   8  -9   23.78    4.21
  12   8   9   25.37    4.71
  12   8   9   27.98    4.63
 -12  -8 -10   35.16    5.01
 -12  -8 -10   36.46    4.72
 -12  -8  10   32.29    4.74
 -12  -8  10   29.57    4.25
 -12   8 -10   27.91    4.39
 -12   8 -10   33.53    4.20
  12  -8 -10   28.37    4.08
  12  -8 -10   40.95    4.88
  12  -8  10   33.17    4.61
  12  -8  10   35.63    3.57
  12   8 -10   32.60    4.56
  12   8  10   32.17    4.88
  12   8  10   41.16    4.99
 -12  -8 -11   83.99    8.29
 -12  -8 -11   97.93    8.20
 -12  -8  11   88.44    7.81
 -12  -8  11   70.16    7.28
 -12   8 -11   87.09    7.59
 -12   8 -11  115.99    7.62
  12  -8 -11   91.89    7.11
  12  -8 -11   89.94    5.63
  12  -8  11   98.32    7.79
  12  -8  11  108.21    6.32
  12   8 -11   86.99    7.88
  12   8  11  101.89    8.58
  12   8  11  117.88    8.28
 -12  -8 -12   21.75    5.13
 -12  -8 -12   17.88    4.82
 -12  -8  12   11.82    4.63
 -12  -8  12    9.81    4.34
 -12   8 -12    7.49    4.72
 -12   8 -12   14.94    4.42
  12  -8 -12   13.72    4.20
  12  -8 -12   16.46    3.50
  12  -8  12   16.44    4.78
  12  -8  12   20.55    4.01
  12   8 -12   15.44    4.35
  12   8  12   15.23    5.12
  12   8  12   18.51    4.96
 -12  -8 -13    9.68    5.15
 -12  -8 -13    3.55    4.45
 -12  -8  13    5.08    4.66
 -12  -8  13   10.49    4.22
 -12   8 -13   10.66    4.91
 -12   8 -13    7.77    4.50
  12  -8 -13   15.31    4.34
  12  -8 -13    9.71    3.73
  12  -8  13    6.87    4.78
  12  -8  13    7.52    4.25
  12   8 -13    3.97    5.11
  12   8 -13    8.48    4.50
  12   8  13   10.85    5.23
  12   8  13    9.25    4.85
 -12  -8 -14   12.39    5.58
 -12  -8 -14   21.13    4.85
 -12  -8  14   14.28    4.88
 -12  -8  14   14.73    4.61
 -12   8 -14   18.37    6.55
 -12   8 -14   31.52    5.18
  12  -8 -14   21.89    4.68
  12  -8 -14   19.05    3.83
  12   8 -14   20.27    5.59
  12   8 -14   23.05    4.72
  12   8  14   28.23    5.71
  12   8  14   39.00    5.44
 -12  -8 -15   26.12    5.73
 -12  -8 -15   28.25    4.97
 -12  -8  15   13.14    4.89
  12  -8 -15   18.33    4.77
  12  -8 -15   20.41    4.01
  12   8 -15   17.77    5.61
  12   8 -15   16.86    4.68
  12   8  15   29.72    5.93
  12   8  15   24.68    5.21
 -12  -8 -16  108.37   10.10
 -12  -8 -16  106.94    8.99
  12  -8 -16   59.63    5.65
  12  -8 -16   70.35    6.97
  12   8 -16   98.00    9.74
  12   8 -16   75.59    8.33
  12   8  16  142.69   10.42
  12   8  16  127.49    9.55
 -12 -10   0  709.28    9.38
 -12 -10   0  635.18    8.75
 -12 -10  -1  628.25    9.06
 -12 -10  -1  544.02    8.49
 -12 -10   1  621.84    9.04
 -12 -10   1  529.31    8.48
 -12 -10  -2    5.34    3.80
 -12 -10   2    1.45    3.48
 -12 -10   2   18.08    3.58
 -12  10  -2   18.01    2.98
  12  10   2   20.39    3.69
 -12 -10  -3   77.83    6.81
 -12 -10   3   70.54    6.05
 -12  10  -3   82.49    4.83
  12  10  -3   80.68    6.31
  12  10   3   82.33    6.37
 -12 -10  -4  295.43    8.32
 -12 -10  -4  333.67    8.14
 -12 -10   4  226.60    7.07
 -12  10  -4  263.57    6.00
  12  10  -4  244.90    7.19
  12  10   4  320.84    7.73
 -12 -10  -5  431.32    9.26
 -12 -10  -5  502.47    9.20
 -12 -10   5  350.01    7.85
 -12  10  -5  406.06    7.07
 -12  10  -5  474.90    6.20
  12 -10   5  455.33    7.22
  12  10  -5  399.75    8.52
  12  10   5  524.68    9.07
 -12 -10  -6  378.53    9.30
 -12 -10  -6  417.66    8.98
 -12 -10   6  301.20    7.87
 -12  10  -6  307.02    6.99
 -12  10  -6  376.56    6.50
  12 -10   6  364.09    7.26
  12  10  -6  308.09    8.21
  12  10   6  425.94    8.72
 -12 -10  -7  176.46    8.25
 -12 -10  -7  205.18    8.05
 -12 -10   7  154.73    7.47
 -12 -10   7  136.14    7.00
 -12  10  -7  126.01    6.58
 -12  10  -7  166.64    6.23
  12 -10   7  131.52    6.50
  12  10  -7  150.94    7.86
  12  10   7  205.14    7.90
 -12 -10  -8   36.71    4.84
 -12 -10  -8   37.88    4.63
 -12 -10   8   26.65    4.51
 -12 -10   8   24.51    4.00
 -12  10  -8   22.92    4.12
 -12  10  -8   35.54    4.03
  12 -10  -8   52.76    5.86
  12 -10   8   27.51    4.32
  12  10  -8   29.31    4.51
  12  10   8   44.15    4.67
 -12 -10  -9   -1.70    4.22
 -12 -10  -9   -5.41    4.29
 -12 -10   9    0.94    4.17
 -12 -10   9   -0.19    3.70
 -12  10  -9   -6.63    3.70
 -12  10  -9   -5.80    3.57
  12 -10  -9   -1.27    3.44
  12 -10   9   -9.32    3.87
  12 -10   9    1.28    2.61
  12  10  -9   -2.04    3.97
  12  10   9   -3.02    4.28
  12  10   9   -1.16    4.15
 -12 -10 -10   66.15    8.06
 -12 -10 -10   83.08    7.91
 -12 -10  10   59.79    7.44
 -12 -10  10   58.52    7.08
 -12  10 -10   60.40    6.87
 -12  10 -10   67.16    6.86
  12 -10 -10   63.15    6.51
  12 -10  10   71.00    7.13
  12 -10  10   68.66    5.39
  12  10 -10   49.11    4.76
  12  10  10   76.12    8.03
  12  10  10   89.77    8.07
 -12 -10 -11  100.40    8.44
 -12 -10 -11  127.84    8.83
 -12 -10  11  103.69    8.20
 -12 -10  11   87.14    7.67
 -12  10 -11   92.72    7.56
 -12  10 -11  117.42    7.77
  12 -10 -11   97.10    7.04
  12 -10 -11   92.30    5.06
  12 -10  11  104.31    7.71
  12 -10  11  111.13    5.97
  12  10 -11   80.49    7.77
  12  10  11  109.60    8.63
  12  10  11  136.28    8.55
 -12 -10 -12   48.99    5.77
 -12 -10 -12   78.67    8.88
 -12 -10  12   42.15    5.20
 -12 -10  12   43.13    4.77
 -12  10 -12   65.65    7.91
 -12  10 -12   82.10    7.75
  12 -10 -12   63.86    7.05
  12 -10 -12   60.68    5.41
  12 -10  12   70.17    7.87
  12 -10  12   74.90    6.33
  12  10 -12   42.27    4.98
  12  10  12   72.28    8.98
  12  10  12   86.40    8.55
 -12 -10 -13   25.72    5.56
 -12 -10 -13   20.40    4.99
 -12 -10  13   19.38    5.05
 -12 -10  13   21.40    4.63
 -12  10 -13   26.46    4.92
 -12  10 -13   31.04    5.01
  12 -10 -13   33.89    4.64
  12 -10 -13   27.66    3.63
  12 -10  13   37.70    4.25
  12  10 -13   22.53    4.58
  12  10  13   21.38    5.68
  12  10  13   29.93    5.41
 -12 -10 -14   -7.38    4.97
 -12 -10 -14   -7.98    4.38
 -12 -10  14   -3.29    4.66
 -12 -10  14    3.22    4.39
  12 -10 -14    3.60    4.16
  12 -10 -14    8.36    3.44
  12  10 -14    0.33    5.08
  12  10 -14    3.50    4.45
  12  10  14   -9.83    5.03
  12  10  14   -8.45    4.77
 -12 -10 -15    3.83    5.47
 -12 -10 -15   -0.35    4.56
 -12 -10  15    4.63    4.98
 -12 -10  15    6.95    4.41
  12 -10 -15    0.06    4.33
  12 -10 -15   -0.39    3.56
  12  10 -15    5.98    5.48
  12  10 -15   -1.28    4.39
  12  10  15    9.45    5.65
  12  10  15    3.74    5.08
 -12 -12   0 1214.00   11.32
 -12 -12   0  959.36   10.56
 -12 -12  -1  605.74    9.38
 -12 -12  -1  491.04    8.58
 -12 -12   1  588.59    9.05
 -12 -12   1  492.54    8.52
 -12  12  -1  518.29    6.12
 -12 -12  -2  305.62    8.03
 -12 -12   2  282.22    7.68
 -12 -12   2  247.24    7.11
 -12  12  -2  257.29    5.30
  12  12   2  330.50    7.93
 -12 -12  -3   61.83    4.88
 -12 -12   3   54.48    6.11
 -12  12  -3   44.40    4.50
  12  12  -3   58.22    6.40
  12  12   3   59.49    6.51
 -12 -12  -4   -2.38    3.80
 -12 -12   4    2.17    3.60
 -12  12  -4   -3.36    2.84
  12  12  -4    4.41    3.76
  12  12   4    2.74    3.66
 -12 -12  -5   77.25    7.36
 -12 -12  -5   78.36    7.10
 -12 -12   5   61.79    6.64
 -12  12  -5   66.59    5.19
 -12  12  -5   76.38    4.32
  12 -12   5   79.61    5.25
  12  12  -5   67.07    6.94
  12  12   5   91.15    6.93
 -12 -12  -6  129.74    7.84
 -12 -12  -6  114.53    7.62
 -12 -12   6   91.43    6.78
 -12  12  -6   95.26    5.73
 -12  12  -6  120.38    5.01
  12 -12   6  104.17    5.92
  12  12  -6   97.94    7.60
  12  12   6  136.52    7.36
 -12 -12  -7   64.52    7.62
 -12 -12  -7   64.57    7.39
 -12 -12   7   33.89    4.25
 -12  12  -7   48.27    5.54
 -12  12  -7   56.39    5.22
  12 -12   7   59.38    5.99
  12  12  -7   39.28    4.56
  12  12   7   74.33    7.23
 -12 -12  -8    1.12    4.28
 -12 -12  -8   -3.87    4.20
 -12 -12   8   -0.71    4.04
 -12 -12   8   -0.30    3.74
 -12  12  -8   -2.99    3.43
 -12  12  -8   -3.42    3.24
  12 -12  -8    2.77    3.36
  12 -12   8   -0.87    3.61
  12  12  -8   -4.82    3.92
  12  12   8    0.83    4.17
 -12 -12  -9   41.33    5.10
 -12 -12  -9   36.75    4.88
 -12 -12   9   32.99    4.89
 -12 -12   9   21.19    4.18
 -12  12  -9   21.55    4.09
 -12  12  -9   43.22    4.10
  12 -12  -9   30.69    3.83
  12 -12   9   28.49    4.28
  12  12  -9   23.10    4.51
  12  12   9   31.91    4.85
  12  12   9   44.96    5.13
 -12 -12 -10   90.22    8.35
 -12 -12 -10   97.77    8.20
 -12 -12  10   80.47    7.72
 -12 -12  10   72.80    7.40
 -12  12 -10   85.66    7.29
 -12  12 -10  105.82    7.02
  12 -12 -10   94.66    6.65
  12 -12  10   86.57    7.28
  12  12 -10   83.03    7.76
  12  12  10  101.04    8.50
  12  12  10  118.03    8.47
 -12 -12 -11  177.34    9.19
 -12 -12 -11  212.38    9.09
 -12 -12  11  173.64    8.83
 -12 -12  11  160.65    8.37
 -12  12 -11  171.85    8.09
 -12  12 -11  228.39    8.31
  12 -12 -11  177.13    7.45
  12 -12  11  186.97    8.21
  12 -12  11  205.14    6.03
  12  12 -11  160.88    8.57
  12  12  11  220.31    9.52
  12  12  11  226.55    9.21
 -12 -12 -12  254.68   10.04
 -12 -12 -12  298.72    9.89
 -12 -12  12  257.60    9.71
 -12 -12  12  225.45    8.96
 -12  12 -12  256.80    9.06
 -12  12 -12  307.83    9.06
  12 -12 -12  263.32    8.26
  12 -12  12  269.20    9.21
  12 -12  12  298.61    6.90
  12  12 -12  227.90    9.06
  12  12  12  304.12   10.67
  12  12  12  339.76   10.27
 -12 -12 -13  195.85   10.02
 -12 -12 -13  204.29    9.42
 -12 -12  13  202.35    9.59
 -12 -12  13  193.50    9.16
  12 -12 -13  199.56    7.99
  12 -12 -13  194.77    5.75
  12 -12  13  239.42    7.06
  12  12 -13  183.19    8.91
  12  12  13  224.77   10.52
  12  12  13  245.40    9.97
 -12 -12 -14   67.03    6.69
 -12 -12 -14   76.39    8.61
 -12 -12  14   81.34    8.61
 -12 -12  14   86.35    8.45
  12 -12 -14   80.03    7.38
  12 -12 -14   69.62    5.58
  12  12 -14   70.24    8.22
  12  12  14   82.63    9.38
 -12 -12 -15   10.78    5.73
 -12 -12 -15   10.63    4.80
 -12 -12  15    6.32    5.17
 -12 -12  15   11.62    4.52
  12 -12 -15    5.27    4.33
  12 -12 -15    7.87    3.52
  12  12 -15    9.38    5.71
  12  12 -15    5.75    4.56
 -12 -14   0  627.26    9.55
 -12 -14   0  470.38    8.68
 -12 -14  -1  960.78   10.80
 -12 -14  -1  710.76    9.89
 -12 -14   1  938.46   10.55
 -12 -14   1  731.14    9.98
 -12  14  -1  762.30    6.58
  12  14   1  894.50   10.73
 -12 -14  -2  610.85    9.98
 -12 -14  -2  482.18    8.76
 -12 -14   2  590.36    9.32
 -12 -14   2  460.36    8.59
 -12  14  -2  470.43    5.93
  12  14  -2  516.05    9.32
  12  14   2  583.37    9.55
 -12 -14  -3  140.15    7.72
 -12 -14   3  132.89    6.97
 -12 -14   3  127.48    6.77
 -12  14  -3  104.16    4.78
  12  14  -3  137.77    7.06
  12  14   3  133.55    7.35
 -12 -14  -4   -8.45    3.87
 -12 -14   4   -2.71    3.49
 -12  14  -4   -6.32    2.67
  12  14  -4   -6.04    3.88
  12  14   4   -4.58    3.71
 -12 -14  -5   44.57    4.91
 -12 -14  -5   39.58    4.64
 -12 -14   5   29.73    4.11
 -12  14  -5   38.79    4.78
  12 -14   5   46.92    5.01
  12  14  -5   28.72    4.30
  12  14   5   57.86    7.06
 -12 -14  -6   48.11    4.94
 -12 -14  -6   52.04    4.78
 -12 -14   6   36.88    4.28
 -12  14  -6   45.78    5.04
 -12  14  -6   64.36    4.33
  12 -14   6   51.72    5.53
  12  14  -6   36.93    4.59
  12  14   6   52.02    4.83
 -12 -14  -7    7.74    4.66
 -12 -14  -7   14.44    4.42
 -12 -14   7   15.05    4.01
 -12  14  -7   13.88    3.38
 -12  14  -7   12.19    2.95
  12 -14   7   14.71    3.61
  12  14  -7    6.45    4.25
  12  14   7   12.49    4.22
 -12 -14  -8   -0.12    4.45
 -12 -14  -8    1.52    4.26
 -12 -14   8    0.57    4.33
 -12 -14   8   -1.82    3.91
 -12  14  -8   -0.15    3.40
 -12  14  -8    0.01    3.18
  12 -14  -8    2.65    3.27
  12 -14   8   -0.93    3.63
  12  14  -8   -0.94    4.13
  12  14   8    1.52    4.26
 -12 -14  -9   20.73    4.80
 -12 -14  -9   23.41    4.68
 -12 -14   9   20.94    4.69
 -12 -14   9   13.75    4.09
 -12  14  -9   19.49    3.98
 -12  14  -9   21.93    3.73
  12 -14  -9   18.67    3.70
  12 -14   9   19.52    4.00
  12  14  -9   14.64    4.34
  12  14   9   24.41    4.84
 -12 -14 -10  158.44    9.01
 -12 -14 -10  160.82    8.73
 -12 -14  10  134.96    8.57
 -12 -14  10  128.03    8.10
 -12  14 -10  127.75    7.44
 -12  14 -10  173.42    7.40
  12 -14 -10  141.22    6.82
  12 -14  10  147.91    7.62
  12  14 -10  122.46    8.25
  12  14  10  158.41    9.31
  12  14  10  183.32    9.54
 -12 -14 -11  264.26   10.04
 -12 -14 -11  321.08   10.09
 -12 -14  11  276.46    9.88
 -12 -14  11  250.49    9.42
 -12  14 -11  256.63    8.88
 -12  14 -11  322.91    8.74
  12 -14 -11  249.37    7.63
  12 -14  11  276.26    8.87
  12  14 -11  248.80    9.27
  12  14  11  329.64   10.60
 -12 -14 -12  258.89   10.03
 -12 -14 -12  291.13    9.71
 -12 -14  12  235.81    9.97
 -12 -14  12  232.07    9.04
 -12  14 -12  231.05    9.60
  12 -14 -12  250.70    7.97
  12 -14  12  282.42    6.18
  12  14 -12  212.29    9.07
 -12 -14 -13  177.71    9.93
 -12 -14 -13  195.00    9.37
 -12 -14  13  183.19    9.72
 -12 -14  13  152.28    8.75
  12 -14 -13  187.50    7.70
  12 -14  13  182.52    6.32
  12  14 -13  148.98    8.94
 -12 -14 -14   98.78    9.64
 -12 -14 -14   95.27    8.82
 -12 -14  14   83.96    9.19
 -12 -14  14   81.76    8.17
  12 -14 -14   92.16    7.33
  12 -14 -14   92.52    4.90
  12  14 -14   80.87    8.61
 -12 -16   0  763.28   10.13
 -12 -16   0  573.01    9.40
 -12 -16  -1  307.99    8.24
 -12 -16  -1  222.86    7.60
 -12 -16   1  297.88    8.11
 -12 -16   1  234.22    7.64
  12  16   1  274.42    8.18
 -12 -16  -2   77.38    7.19
 -12 -16  -2   64.86    6.85
 -12 -16   2   92.79    6.89
 -12 -16   2   67.33    6.84
  12  16  -2   68.82    7.25
  12  16   2   79.68    7.11
 -12 -16  -3   13.13    4.32
 -12 -16  -3   11.05    4.05
 -12 -16   3   12.51    3.89
 -12 -16   3   10.14    3.84
 -12  16  -3    1.96    2.56
  12  16  -3   11.28    4.07
  12  16   3   10.89    4.16
 -12 -16  -4    0.33    4.11
 -12 -16   4    3.50    3.62
 -12 -16   4    2.83    3.74
 -12  16  -4   -1.34    2.55
  12  16  -4    5.76    4.00
  12  16   4    3.99    3.97
 -12 -16  -5   36.21    5.00
 -12 -16  -5   32.31    4.63
 -12 -16   5   19.93    4.12
 -12  16  -5   21.04    2.97
  12 -16   5   32.37    3.30
  12  16  -5   25.43    4.45
  12  16   5   32.74    4.59
 -12 -16  -6   75.09    7.87
 -12 -16  -6   88.85    7.59
 -12 -16   6   67.84    6.95
 -12  16  -6   59.34    5.19
  12 -16   6   80.09    5.54
  12  16  -6   75.69    7.52
  12  16   6   98.07    7.80
 -12 -16  -7  108.28    8.51
 -12 -16  -7  115.08    8.20
 -12 -16   7   84.32    7.29
 -12  16  -7   79.11    5.64
 -12  16  -7  109.31    5.10
  12 -16   7  104.22    6.23
  12  16  -7   92.34    7.79
 -12 -16  -8   37.39    5.28
 -12 -16  -8   35.61    4.92
 -12 -16   8   43.66    5.38
 -12 -16   8   27.60    4.50
 -12  16  -8   30.08    3.95
 -12  16  -8   53.10    5.43
  12 -16  -8   51.36    5.66
  12 -16   8   36.71    4.21
  12  16  -8   34.34    4.79
 -12 -16  -9    0.14    4.74
 -12 -16  -9   -2.17    4.38
 -12 -16   9   -0.32    4.45
 -12 -16   9   -2.02    3.97
 -12  16  -9    5.32    3.87
 -12  16  -9    6.88    3.53
  12 -16  -9    1.17    3.47
  12 -16   9    0.99    3.85
  12  16  -9    3.97    4.32
 -12 -16 -10   53.74    5.58
 -12 -16 -10   73.44    8.53
 -12 -16  10   69.52    8.23
 -12 -16  10   44.42    5.01
 -12  16 -10   66.32    6.93
 -12  16 -10   81.90    6.65
  12 -16 -10   62.29    6.12
  12 -16  10   66.08    6.90
  12  16 -10   56.89    5.44
 -12 -16 -11  128.67    9.12
 -12 -16 -11  143.43    8.80
 -12 -16  11  118.15    8.75
 -12 -16  11  109.56    8.47
 -12  16 -11  116.03    7.85
 -12  16 -11  147.40    9.03
  12 -16 -11  125.37    6.83
  12 -16  11  130.63    7.76
  12  16 -11  112.11    8.57
 -12 -16 -12  149.60    9.33
 -12 -16 -12  159.39    9.15
 -12 -16  12  139.08    9.57
 -12 -16  12  130.03    8.89
  12 -16 -12  157.17    7.22
  12  16 -12  117.81    9.11
 -12 -16 -13   81.34    9.12
 -12 -16 -13  104.21    8.50
  12 -16 -13   94.00    7.08
  12  16 -13   55.82    5.88
 -12 -18   0    8.67    4.04
 -12 -18   0   11.91    3.98
 -12 -18  -1   62.34    7.27
 -12 -18  -1   45.87    4.61
 -12 -18   1   69.69    6.97
 -12 -18   1   33.81    4.30
  12  18  -1   41.22    4.69
 -12 -18  -2    2.73    4.08
 -12 -18  -2    2.98    3.94
 -12 -18   2    3.43    3.83
 -12 -18   2    5.18    3.92
  12  18  -2    2.46    4.17
 -12 -18  -3   35.09    4.48
 -12 -18  -3   34.84    4.54
 -12 -18   3   37.13    4.45
 -12 -18   3   24.08    4.16
  12  18  -3   27.58    4.68
 -12 -18  -4  146.76    8.24
 -12 -18  -4  105.30    7.27
 -12 -18   4  145.85    7.47
 -12 -18   4   96.72    7.20
 -12  18  -4   94.88    4.52
  12  18  -4  111.74    8.31
 -12 -18  -5  239.23    9.34
 -12 -18  -5  238.22    8.44
 -12 -18   5  218.27    7.92
 -12 -18   5  178.88    7.81
 -12  18  -5  171.69    5.30
  12 -18   5  206.17    5.65
  12  18  -5  182.08    8.48
 -12 -18  -6  293.71    9.87
 -12 -18  -6  322.14    9.07
 -12 -18   6  246.79    8.63
 -12  18  -6  222.17    6.05
  12 -18   6  284.74    6.57
  12  18  -6  263.23    9.34
 -12 -18  -7  271.35    9.98
 -12 -18  -7  296.28    9.53
 -12 -18   7  227.70    8.33
 -12  18  -7  190.81    6.39
 -12  18  -7  272.78    5.47
  12 -18   7  248.98    6.97
  12  18  -7  224.02    9.05
 -12 -18  -8  128.92    9.09
 -12 -18  -8  142.06    8.30
 -12 -18   8  140.81    8.76
 -12 -18   8  109.47    7.71
 -12  18  -8   97.94    6.33
 -12  18  -8  146.66    5.78
  12 -18  -8  142.41    6.01
  12 -18   8  125.61    6.69
  12  18  -8  111.44    8.43
 -12 -18  -9   17.38    5.41
 -12 -18  -9   21.06    4.74
 -12 -18   9   19.80    4.92
 -12 -18   9   18.62    4.43
 -12  18  -9   20.34    3.93
 -12  18  -9   29.98    3.69
  12 -18  -9   26.26    3.64
  12 -18   9   27.41    4.18
  12  18  -9   16.34    4.86
 -12 -18 -10   -5.72    4.84
 -12 -18 -10    3.13    4.37
 -12 -18  10    3.27    4.82
 -12 -18  10   -0.46    4.13
 -12  18 -10    1.70    4.01
 -12  18 -10    0.50    3.64
  12 -18 -10    3.71    3.43
  12 -18  10    5.31    3.98
  12  18 -10    6.96    4.66
 -12 -18 -11   42.69    5.83
 -12 -18 -11   41.65    4.98
  12 -18 -11   51.44    6.16
  12  18 -11   37.25    5.23
 -12 -18 -12   32.40    5.46
 -12 -18 -12   30.28    5.01
  12 -18 -12   23.72    4.02
  12  18 -12   18.57    5.01
 -12 -20   0  403.71    9.26
 -12 -20   0  297.76    8.45
 -12 -20  -1   56.38    5.09
 -12 -20  -1   33.94    4.69
 -12 -20   1   53.12    4.97
 -12 -20   1   34.47    4.53
  12  20  -1   38.00    4.96
 -12 -20  -2    8.68    4.52
 -12 -20  -2    9.11    4.50
 -12 -20   2   11.06    4.44
 -12 -20   2   12.19    4.22
  12  20  -2    7.35    4.47
 -12 -20  -3  168.74    8.50
 -12 -20  -3  138.70    7.96
 -12 -20   3  141.64    7.79
 -12 -20   3  122.67    7.86
  12  20  -3  137.75    8.46
 -12 -20  -4  467.49    9.90
 -12 -20  -4  361.89    9.44
 -12 -20   4  409.22    9.23
 -12 -20   4  318.11    8.72
  12  20  -4  332.92    9.67
 -12 -20  -5  627.70   12.04
 -12 -20  -5  653.94   10.75
 -12 -20  -5  520.05   10.14
 -12 -20   5  611.37   10.25
 -12 -20   5  480.21    9.96
 -12  20  -5  448.28    6.30
  12 -20   5  553.21    6.88
  12  20  -5  492.59   10.58
 -12 -20  -6  505.84   11.43
 -12 -20  -6  532.76   10.38
 -12 -20  -6  446.68    9.82
 -12 -20   6  476.59    9.76
 -12 -20   6  391.70    9.37
 -12  20  -6  348.14    6.57
  12 -20   6  434.65    7.17
  12  20  -6  451.19   10.71
 -12 -20  -7  295.74   10.44
 -12 -20  -7  309.47    9.52
 -12 -20   7  281.65    8.77
 -12 -20   7  230.98    8.42
 -12  20  -7  201.54    6.27
  12 -20   7  248.55    6.96
  12  20  -7  263.23    9.58
 -12 -20  -8  100.77    8.91
 -12 -20  -8  114.30    8.46
 -12 -20   8  113.29    8.77
 -12 -20   8  108.02    8.08
 -12  20  -8   78.95    6.08
 -12  20  -8  106.33    5.51
  12 -20  -8  122.33    5.65
  12 -20   8   85.46    6.45
  12  20  -8  109.45    9.03
 -12 -20  -9    5.11    5.07
 -12 -20  -9    5.51    4.50
 -12  20  -9    4.51    3.61
 -12  20  -9    9.66    3.40
  12 -20  -9   11.40    3.39
  12 -20   9    5.00    3.74
  12  20  -9    6.31    4.77
 -12 -20 -10   -5.23    4.83
 -12 -20 -10   -3.48    4.32
 -12  20 -10    0.01    4.29
  12 -20 -10   -0.88    3.25
  12 -20  10   -3.15    3.92
  12  20 -10    2.01    4.71
 -12 -20 -11   -7.06    4.80
 -12 -20 -11   -5.16    4.33
  12 -20 -11   -4.22    3.45
  12  20 -11   -5.44    4.83
 -12 -22   0    8.76    4.46
 -12 -22   0    8.27    4.34
 -12 -22  -1  105.74    8.22
 -12 -22  -1   84.19    7.75
 -12 -22   1  119.74    8.22
 -12 -22   1   79.36    7.61
  12  22  -1   82.56    7.94
 -12 -22  -2   68.34    7.91
 -12 -22  -2   52.96    5.06
 -12 -22   2   65.61    5.24
 -12 -22   2   37.33    4.76
  12  22  -2   51.28    5.28
 -12 -22  -3    2.23    4.31
 -12 -22  -3    3.84    4.54
 -12 -22   3   -2.15    4.28
 -12 -22   3   -1.73    4.18
  12  22  -3   -4.45    4.69
 -12 -22  -4  283.07    9.02
 -12 -22  -4  232.29    8.65
 -12 -22   4  255.78    8.51
 -12 -22   4  189.03    8.45
  12  22  -4  212.75    9.30
 -12 -22  -5  529.89   11.55
 -12 -22  -5  564.98   10.23
 -12 -22   5  507.97    9.86
 -12 -22   5  383.72   15.08
  12  22  -5  428.48   10.60
 -12 -22  -6  518.09   11.39
 -12 -22  -6  522.50   10.21
 -12 -22   6  511.50    9.94
 -12  22  -6  322.42    6.18
  12 -22   6  410.67    6.92
  12  22  -6  424.14   10.54
 -12 -22  -7  283.95   10.37
 -12 -22  -7  274.90    9.06
 -12 -22   7  289.05    8.75
 -12  22  -7  173.48    5.98
  12 -22   7  216.86    6.55
  12  22  -7  234.91    9.54
 -12 -22  -8   80.84    8.92
 -12 -22  -8   94.59    8.02
 -12 -22   8   89.73    7.70
 -12  22  -8   56.89    5.64
 -12  22  -8   93.88    5.21
  12 -22  -8   89.73    5.27
  12 -22   8   70.82    6.11
  12  22  -8   90.86    8.75
 -12 -22  -9   13.26    5.19
 -12 -22  -9   15.07    4.57
 -12  22  -9    8.22    3.67
  12 -22  -9   22.16    3.28
  12 -22   9   15.81    3.94
  12  22  -9   15.30    4.93
 -12 -22 -10   -7.88    4.64
 -12 -22 -10    2.32    4.39
  12 -22 -10    2.26    3.27
  12  22 -10   -0.23    4.87
 -12 -24   0  558.62    9.99
 -12 -24  -1  205.52    8.38
 -12 -24   1  205.78    8.29
  12  24  -1  155.37    8.82
 -12 -24  -2   42.70    4.89
 -12 -24   2   48.97    4.95
  12  24  -2   26.43    5.13
 -12 -24  -3   11.10    4.44
 -12 -24   3   14.39    4.34
  12  24  -3   10.87    4.96
 -12 -24  -4   -7.59    4.13
 -12 -24   4   -5.42    4.09
  12  24  -4   -0.64    4.87
 -12 -24  -5   38.81    5.60
 -12 -24  -5   43.85    4.86
 -12 -24   5   43.99    4.56
  12  24  -5   36.83    5.34
 -12 -24  -6  170.58    9.51
 -12 -24  -6  175.75    8.35
 -12 -24   6  178.43    7.87
 -12  24  -6  100.86    4.83
  12 -24   6  119.32    5.36
  12  24  -6  139.38    9.46
 -12 -24  -7  204.74    9.84
 -12 -24  -7  195.52    8.50
 -12 -24   7  211.14    8.35
 -12  24  -7  126.49    5.51
  12 -24   7  144.73    6.06
  12  24  -7  168.57    9.44
 -12 -24  -8   54.88    6.13
 -12 -24  -8   63.73    7.74
 -12 -24   8   68.28    7.42
 -12  24  -8   35.26    3.67
  12 -24  -8   64.88    5.05
  12 -24   8   36.41    3.97
  12  24  -8   36.27    5.39
 -12 -26   0  711.68   10.43
 -12 -26  -1  693.17   10.73
 -12 -26   1  695.29   10.40
 -12 -26  -2  230.58    8.63
 -12 -26   2  236.02    8.29
 -12 -26  -3    2.11    4.18
 -12 -26   3   11.08    4.28
 -12 -26  -4    6.21    4.93
 -12 -26  -4  -11.99    4.07
 -12 -26   4    1.65    4.12
 -12 -26  -5    9.30    4.94
 -12 -26  -5    0.80    4.14
 -12 -26   5    7.88    4.18
 -13  -1  -2  648.31    8.42
 -13   1  -2  653.91    7.84
 -13  -1  -3  174.80    6.20
 -13  -1   3  145.71    5.79
 -13   1  -3  182.29    6.53
 -13   1  -3  176.92    6.14
 -13  -1  -4    1.58    3.50
 -13  -1  -4    0.54    3.26
 -13  -1   4    2.46    2.96
 -13   1  -4    2.33    3.42
 -13   1  -4   -2.92    3.01
 -13   1   4    1.43    2.76
 -13  -1  -5   31.86    4.12
 -13  -1  -5   32.95    3.82
 -13  -1   5   22.98    3.33
 -13   1  -5   31.63    3.99
 -13   1  -5   34.07    3.75
 -13   1   5   23.33    3.23
  13   1   5   24.53    3.44
 -13  -1  -6   83.61    6.54
 -13  -1  -6   98.62    6.52
 -13  -1   6   69.79    5.60
 -13   1  -6   82.64    6.38
 -13   1  -6   95.89    6.19
 -13   1   6   81.35    5.99
 -13   1   6   67.20    5.44
  13  -1   6   90.20    5.81
  13   1   6   90.46    6.12
 -13  -1  -7   99.04    7.03
 -13  -1  -7  107.61    6.79
 -13  -1   7   78.73    6.30
 -13  -1   7   69.20    5.83
 -13   1  -7   89.84    6.89
 -13   1  -7  102.10    6.71
 -13   1   7   80.78    6.14
  13  -1   7  101.94    6.94
  13  -1   7   95.29    6.08
  13   1  -7   77.70    5.89
  13   1   7  101.94    7.12
  13   1   7   99.86    6.40
 -13  -1  -8   16.35    4.20
 -13  -1  -8   17.05    4.04
 -13  -1   8   12.23    3.86
 -13   1  -8   19.82    4.18
 -13   1  -8   18.44    3.92
 -13   1   8   14.10    3.77
  13  -1  -8   16.98    3.42
  13  -1   8   17.13    4.00
  13  -1   8   22.87    3.66
  13   1  -8   12.17    3.60
  13   1   8   11.15    4.11
  13   1   8   22.84    3.92
 -13  -1  -9   41.16    4.70
 -13  -1  -9   64.87    7.39
 -13  -1   9   39.88    4.42
 -13   1  -9   69.55    7.50
 -13   1  -9   69.28    7.30
  13  -1  -9   54.68    6.21
  13  -1   9   72.82    7.50
  13  -1   9   75.43    6.78
  13   1  -9   40.09    4.11
  13   1   9   66.71    7.54
  13   1   9   76.10    7.05
 -13  -1 -10  388.55    9.92
 -13  -1 -10  474.91    9.89
 -13   1 -10  366.81    9.55
 -13   1 -10  444.29    9.43
  13  -1 -10  373.14    8.13
  13  -1  10  446.07   10.10
  13  -1  10  492.44    9.13
  13   1 -10  360.39    8.47
  13   1  10  459.68   10.44
  13   1  10  496.05    9.41
 -13  -1 -11  655.96   11.90
 -13  -1 -11  776.40   11.82
 -13   1 -11  650.97   11.58
 -13   1 -11  781.32   11.69
  13  -1 -11  718.48   11.45
  13  -1 -11  629.88    9.74
  13  -1  11  712.50   12.00
  13  -1  11  847.18   11.14
  13   1 -11  614.15    9.89
  13   1  11  722.87   12.10
  13   1  11  851.91   11.48
 -13  -1 -12  616.80   12.04
 -13  -1 -12  696.76   11.79
 -13   1 -12  590.95   11.91
 -13   1 -12  690.91   11.71
  13  -1 -12  636.81   11.59
  13  -1 -12  572.41    9.67
  13  -1  12  673.71   12.37
  13  -1  12  773.17   11.62
  13   1 -12  632.50   11.74
  13   1 -12  561.30    9.92
  13   1  12  666.26   12.40
  13   1  12  789.72   11.74
 -13  -1 -13  321.27   10.82
 -13  -1 -13  392.05   10.70
 -13   1 -13  325.79   10.81
 -13   1 -13  391.13   10.97
  13  -1 -13  368.71   10.29
  13  -1 -13  315.17    8.63
  13  -1  13  358.44   11.19
  13  -1  13  435.17   10.50
  13   1 -13  351.75   10.47
  13   1 -13  310.35    9.03
  13   1  13  370.75   11.28
  13   1  13  427.29   10.41
 -13  -1 -14   98.97    9.46
 -13  -1 -14  111.18    9.15
 -13   1 -14   87.92    9.24
 -13   1 -14  111.97    9.08
  13  -1 -14  112.29    8.80
  13  -1 -14  104.73    7.56
  13  -1  14  115.77    9.76
  13   1 -14  107.90    8.92
  13   1 -14   98.87    7.80
  13   1  14  101.86    9.68
  13   1  14  130.31    8.88
 -13  -1 -15   16.63    5.28
 -13  -1 -15   14.06    5.06
 -13   1 -15    6.77    5.32
 -13   1 -15    8.90    5.02
  13  -1 -15   10.94    4.95
  13  -1 -15   10.31    4.16
  13   1 -15   13.45    5.22
  13   1 -15    7.03    4.26
 -13  -1 -16   -2.37    4.67
 -13   1 -16   -6.01    4.85
  13  -1 -16    0.37    4.72
  13  -1 -16   -4.43    4.04
  13   1 -16   -0.69    4.95
  13   1 -16   -1.58    4.25
 -13  -3  -1  908.97    9.59
 -13  -3  -2  257.07    6.97
 -13  -3   2  217.57    6.40
 -13  -3  -3   -2.35    3.12
 -13  -3   3    0.53    2.96
 -13   3  -3   -5.10    3.18
 -13   3  -3   -1.86    2.82
 -13  -3  -4   78.16    6.51
 -13  -3  -4   92.80    6.39
 -13  -3   4   73.55    5.65
 -13   3  -4   86.77    5.95
 -13   3  -4   85.50    5.43
 -13   3   4   61.03    4.98
 -13  -3  -5  218.21    7.50
 -13  -3  -5  246.19    7.20
 -13  -3   5  179.98    6.32
 -13   3  -5  213.96    6.92
 -13   3  -5  251.86    6.64
 -13   3   5  161.50    5.69
  13   3   5  225.24    6.80
 -13  -3  -6  406.89    8.89
 -13  -3  -6  485.28    8.89
 -13  -3   6  343.76    7.46
 -13   3  -6  399.01    8.09
 -13   3  -6  464.62    7.86
 -13   3   6  385.69    7.60
  13  -3   6  421.12    8.29
  13   3  -6  367.41    7.32
  13   3   6  465.98    8.41
 -13  -3  -7  317.25    8.63
 -13  -3  -7  397.86    8.63
 -13  -3   7  312.59    7.95
 -13  -3   7  301.93    7.45
 -13   3  -7  342.39    8.21
 -13   3  -7  401.83    8.07
  13  -3   7  368.73    8.36
  13  -3   7  370.83    6.94
  13   3  -7  299.23    7.27
  13   3   7  396.87    8.14
 -13  -3  -8   44.05    4.96
 -13  -3  -8   53.38    4.78
 -13  -3   8   40.77    4.43
 -13  -3   8   32.78    4.00
 -13   3  -8   54.55    6.66
 -13   3  -8   70.58    6.60
  13  -3  -8   44.99    5.44
  13  -3   8   56.43    6.93
  13  -3   8   62.84    6.09
  13   3  -8   46.63    4.40
  13   3   8   64.83    7.30
  13   3   8   52.50    4.62
 -13  -3  -9   28.90    4.77
 -13  -3  -9   30.95    4.58
 -13  -3   9   24.38    4.30
 -13  -3   9   22.15    4.52
 -13   3  -9   28.48    4.36
 -13   3  -9   32.91    4.34
  13  -3  -9   28.97    3.55
  13  -3   9   37.91    4.57
  13  -3   9   33.43    3.91
  13   3  -9   25.52    4.14
  13   3   9   29.26    4.60
  13   3   9   31.59    4.54
 -13  -3 -10  187.51    8.69
 -13  -3 -10  216.83    8.68
 -13  -3  10  174.59    8.25
 -13   3 -10  191.22    8.41
 -13   3 -10  239.81    8.38
  13  -3 -10  185.66    6.99
  13  -3  10  228.12    8.66
  13  -3  10  248.72    7.65
  13   3 -10  172.63    7.79
  13   3  10  231.85    9.15
  13   3  10  236.37    8.29
 -13  -3 -11  274.86    9.64
 -13  -3 -11  326.31    9.67
 -13   3 -11  267.89    9.44
 -13   3 -11  325.77    9.41
  13  -3 -11  271.72    9.01
  13  -3 -11  257.76    7.75
  13  -3  11  294.82    9.60
  13  -3  11  347.99    8.74
  13   3 -11  249.65    8.28
  13   3  11  306.09    9.90
  13   3  11  368.81    9.87
 -13  -3 -12  210.62    9.80
 -13  -3 -12  263.68    9.90
 -13   3 -12  203.87    9.44
 -13   3 -12  242.60    9.31
  13  -3 -12  235.16    8.98
  13  -3 -12  207.55    7.57
  13  -3  12  234.63    9.71
  13  -3  12  270.64    8.90
  13   3 -12  196.59    8.38
  13   3  12  245.17    9.98
  13   3  12  292.71    9.93
 -13  -3 -13  149.44    9.82
 -13  -3 -13  149.02    9.24
 -13   3 -13  133.56    9.23
 -13   3 -13  145.65    9.00
  13  -3 -13  133.89    8.56
  13  -3 -13  125.40    7.56
  13  -3  13  130.31    9.55
  13  -3  13  156.87    8.95
  13   3 -13  141.96    9.29
  13   3 -13  117.12    7.75
  13   3  13  150.92    9.73
  13   3  13  170.28    9.00
 -13  -3 -14   50.17    5.93
 -13  -3 -14   53.24    5.68
 -13   3 -14   40.13    5.62
 -13   3 -14   48.08    5.49
  13  -3 -14   67.09    8.28
  13  -3 -14   45.56    4.56
  13   3 -14   52.56    5.86
  13   3 -14   39.44    4.89
  13   3  14   55.58    6.40
  13   3  14   75.65    8.58
 -13  -3 -15    4.03    5.48
 -13  -3 -15   -0.14    4.64
 -13   3 -15    2.80    4.87
  13  -3 -15    0.92    4.49
  13  -3 -15    4.72    4.06
  13   3 -15   -0.05    4.94
  13   3 -15   -3.74    4.26
  13   3  15    2.94    6.39
 -13  -3 -16   18.54    5.58
 -13  -3 -16   18.83    5.22
 -13   3 -16   24.66    5.32
  13  -3 -16   18.50    5.04
  13  -3 -16   12.79    4.24
  13   3 -16   15.64    5.43
  13   3 -16   14.86    4.61
 -13  -5   0  524.43    8.05
 -13  -5  -1  313.39    7.34
 -13  -5  -2   11.72    3.49
 -13  -5   2   12.70    3.24
 -13  -5  -3   65.16    6.27
 -13  -5   3   41.90    3.82
 -13   5  -3   46.84    5.35
 -13  -5  -4  517.92    9.45
 -13  -5  -4  590.91    8.99
 -13  -5   4  435.61    8.13
 -13   5  -4  510.51    7.98
 -13   5  -4  543.11    7.38
  13   5   4  509.04    8.39
 -13  -5  -5 1070.00   11.88
 -13  -5  -5 1273.00   11.87
 -13  -5   5  904.53   10.06
 -13   5  -5 1018.00   10.35
 -13   5  -5 1112.00    9.50
 -13   5   5  918.51   10.13
  13   5  -5  910.28    9.85
  13   5   5 1161.00   11.15
 -13  -5  -6  783.35   11.11
 -13  -5  -6  924.17   10.83
 -13  -5   6  682.62    9.29
 -13   5  -6  763.36    9.75
 -13   5  -6  895.94    9.34
  13  -5   6  815.75   10.08
  13   5  -6  731.98    9.36
  13   5   6  892.95   10.50
 -13  -5  -7  319.93    8.99
 -13  -5  -7  414.27    9.00
 -13  -5   7  343.72    8.55
 -13  -5   7  308.86    7.75
 -13   5  -7  330.92    8.04
 -13   5  -7  386.73    7.84
  13  -5   7  354.08    8.22
  13   5  -7  329.34    7.90
  13   5   7  399.34    8.57
 -13  -5  -8  136.40    7.98
 -13  -5  -8  163.59    8.38
 -13  -5   8  135.43    7.41
 -13  -5   8  121.00    6.91
 -13   5  -8  145.28    7.43
 -13   5  -8  167.17    7.16
  13  -5   8  145.74    7.55
  13  -5   8  161.03    6.16
  13   5  -8  140.07    7.38
  13   5   8  185.72    8.30
  13   5   8  155.58    7.63
 -13  -5  -9   33.50    5.08
 -13  -5  -9   34.80    4.89
 -13  -5   9   35.51    4.59
 -13  -5   9   27.32    4.14
 -13   5  -9   34.44    4.62
 -13   5  -9   63.92    6.87
  13  -5  -9   32.03    3.47
  13  -5   9   34.86    4.53
  13  -5   9   50.99    5.87
  13   5  -9   36.79    4.44
  13   5   9   42.05    4.89
  13   5   9   39.94    4.88
 -13  -5 -10   -5.24    4.28
 -13  -5 -10   -5.89    4.18
 -13  -5  10   -1.85    4.05
 -13  -5  10    3.71    3.82
 -13   5 -10   -3.93    4.29
 -13   5 -10    4.48    4.12
  13  -5 -10    1.57    4.03
  13  -5 -10   -0.70    3.29
  13  -5  10   -0.77    4.36
  13  -5  10    0.34    3.59
  13   5 -10   -2.31    3.93
  13   5  10   -0.25    4.38
  13   5  10   -3.62    4.16
 -13  -5 -11   51.01    5.61
 -13  -5 -11   79.29    8.31
 -13  -5  11   42.68    4.91
 -13   5 -11   44.59    5.09
 -13   5 -11   75.73    7.76
  13  -5 -11   76.39    7.61
  13  -5 -11   72.37    6.34
  13  -5  11   82.82    8.11
  13  -5  11   69.63    6.68
  13   5 -11   60.39    7.32
  13   5  11   49.50    5.52
  13   5  11   82.93    8.22
 -13  -5 -12  173.18    9.54
 -13  -5 -12  192.16    9.21
 -13  -5  12  148.58    8.81
 -13   5 -12  153.92    8.79
 -13   5 -12  188.40    8.79
  13  -5 -12  168.35    8.62
  13  -5 -12  155.08    7.10
  13  -5  12  156.55    9.09
  13  -5  12  195.98    8.09
  13   5 -12  164.33    8.53
  13   5  12  191.95    9.68
  13   5  12  227.43    9.55
 -13  -5 -13   97.26    9.39
 -13  -5 -13   97.54    8.79
 -13   5 -13   85.61    8.68
 -13   5 -13   97.72    8.60
  13  -5 -13  109.40    8.36
  13  -5 -13   91.38    6.94
  13  -5  13   92.50    8.89
  13  -5  13  124.02    8.44
  13   5 -13   98.27    9.01
  13   5 -13   82.88    8.10
  13   5  13  122.42    9.47
  13   5  13  136.22    9.01
 -13  -5 -14   -4.77    5.17
 -13  -5 -14    2.39    4.66
 -13   5 -14    1.08    4.92
 -13   5 -14   -2.06    4.60
  13  -5 -14   -3.71    4.57
  13  -5 -14    1.20    3.82
  13   5 -14   -0.81    5.05
  13   5 -14   -2.39    4.20
  13   5  14   -8.42    5.10
  13   5  14  -10.50    4.68
 -13  -5 -15   49.16    6.19
 -13  -5 -15   71.85    8.89
 -13   5 -15   76.03    8.67
  13  -5 -15   43.07    5.28
  13  -5 -15   60.28    7.10
  13   5 -15   40.48    5.93
  13   5 -15   44.97    5.13
  13   5  15   87.42    9.72
  13   5  15   92.78    9.14
 -13  -5 -16   98.17   10.08
 -13  -5 -16  106.02    9.58
  13  -5 -16   79.55    8.63
  13  -5 -16   73.95    7.17
  13   5 -16   87.29    9.68
  13   5 -16   74.84    8.54
 -13  -7   0   99.06    6.25
 -13  -7  -1   83.91    6.36
 -13  -7   1   53.32    5.83
 -13  -7  -2   18.43    3.51
 -13  -7   2    6.07    3.45
 -13   7  -2   14.87    3.12
 -13  -7  -3  234.25    7.25
 -13  -7   3  162.41    6.78
 -13   7  -3  202.71    6.12
  13   7   3  178.89    7.02
 -13  -7  -4  733.28   10.61
 -13  -7  -4  823.79   10.06
 -13  -7   4  602.80    8.93
 -13   7  -4  676.46    8.43
 -13   7  -4  714.24    7.67
  13   7   4  754.34    9.82
 -13  -7  -5  906.88   11.57
 -13  -7  -5 1068.00   11.42
 -13  -7   5  767.38    9.87
 -13   7  -5  825.02    9.40
 -13   7  -5  976.76    8.93
  13   7  -5  774.92    9.73
  13   7   5  970.57   10.83
 -13  -7  -6 1046.00   12.55
 -13  -7  -6 1217.00   12.27
 -13  -7   6  886.43   10.66
 -13   7  -6  955.84   10.36
 -13   7  -6 1142.00    9.92
  13  -7   6 1053.00   10.82
  13   7  -6  941.65   10.74
  13   7   6 1142.00   11.57
 -13  -7  -7  905.44   12.18
 -13  -7  -7 1129.00   12.43
 -13  -7   7  913.37   11.63
 -13  -7   7  786.06   10.27
 -13   7  -7  846.00   10.47
 -13   7  -7 1057.00   10.16
  13  -7   7  920.65   10.68
  13   7  -7  857.38   10.62
  13   7   7 1093.00   11.93
 -13  -7  -8  407.64    9.89
 -13  -7  -8  493.04   10.03
 -13  -7   8  416.98    9.25
 -13  -7   8  378.28    8.67
 -13   7  -8  415.44    8.89
 -13   7  -8  486.50    8.43
  13  -7   8  433.48    8.98
  13   7  -8  411.78    8.87
  13   7   8  505.78   10.24
  13   7   8  515.69   10.00
 -13  -7  -9   29.78    4.87
 -13  -7  -9   39.77    4.85
 -13  -7   9   38.67    4.75
 -13  -7   9   24.97    4.17
 -13   7  -9   26.14    4.43
 -13   7  -9   36.39    4.26
  13  -7   9   30.38    4.60
  13  -7   9   40.98    3.73
  13   7  -9   32.59    4.45
  13   7   9   66.06    7.96
  13   7   9   37.30    4.73
 -13  -7 -10   26.46    5.23
 -13  -7 -10   36.18    5.00
 -13  -7  10   27.94    4.67
 -13  -7  10   23.70    4.29
 -13   7 -10   30.33    4.71
 -13   7 -10   27.36    4.26
  13  -7 -10   29.87    4.48
  13  -7 -10   28.01    3.40
  13  -7  10   37.52    4.86
  13  -7  10   48.22    5.78
  13   7 -10   26.83    4.47
  13   7  10   36.15    5.11
  13   7  10   41.16    5.10
 -13  -7 -11  124.77    8.87
 -13  -7 -11  124.25    8.68
 -13  -7  11  113.01    8.21
 -13  -7  11   95.28    7.60
 -13   7 -11  112.54    8.07
 -13   7 -11  144.66    8.03
  13  -7 -11  122.69    7.70
  13  -7 -11  107.29    5.92
  13  -7  11  121.71    8.41
  13  -7  11  142.62    7.19
  13   7 -11  109.69    7.82
  13   7  11  141.64    9.06
  13   7  11  156.74    8.84
 -13  -7 -12   11.32    5.33
 -13  -7 -12   19.71    4.87
 -13  -7  12   11.95    4.65
 -13  -7  12   14.89    5.35
 -13   7 -12   16.14    4.72
 -13   7 -12   19.29    4.85
  13  -7 -12   12.88    4.40
  13  -7 -12   16.83    3.64
  13  -7  12   16.05    5.03
  13  -7  12   17.21    4.02
  13   7 -12   20.32    4.66
  13   7  12   20.93    5.27
  13   7  12   15.64    4.96
 -13  -7 -13   10.12    5.28
 -13  -7 -13   12.88    4.72
 -13  -7  13    5.18    4.66
 -13   7 -13    7.45    4.80
 -13   7 -13    6.51    4.68
  13  -7 -13   10.66    4.39
  13  -7 -13    9.58    3.78
  13   7 -13    3.07    4.39
  13   7  13    8.06    5.30
  13   7  13    9.19    4.76
 -13  -7 -14   16.16    5.62
 -13  -7 -14   13.34    4.90
 -13   7 -14   15.86    5.15
  13  -7 -14    8.56    4.56
  13  -7 -14    8.91    3.78
  13   7 -14    8.94    5.33
  13   7 -14    6.06    4.43
  13   7  14   21.26    5.49
  13   7  14   22.00    5.17
 -13  -7 -15   13.30    5.83
 -13  -7 -15   17.91    5.00
  13  -7 -15   17.32    4.80
  13  -7 -15   11.77    4.03
  13   7 -15   14.66    5.64
  13   7 -15   17.81    4.63
  13   7  15   22.50    5.87
  13   7  15   25.64    5.55
 -13  -9   0  913.57   10.52
 -13  -9   0  786.13    9.71
 -13  -9  -1  409.17    8.44
 -13  -9   1  380.99    8.31
 -13  -9   1  341.10    7.79
 -13  -9  -2   -4.66    3.91
 -13  -9   2    6.65    3.52
 -13   9  -2    6.87    2.97
 -13  -9  -3  220.16    7.68
 -13  -9   3  176.68    7.08
 -13   9  -3  212.42    5.89
  13   9   3  209.36    7.53
 -13  -9  -4  373.49    9.20
 -13  -9  -4  485.37    9.25
 -13  -9   4  316.26    7.89
 -13   9  -4  353.09    6.85
  13   9  -4  324.68    7.96
  13   9   4  416.92    8.56
 -13  -9  -5  657.06   10.76
 -13  -9  -5  756.42   10.51
 -13  -9   5  518.17    9.05
 -13   9  -5  590.03    8.27
 -13   9  -5  665.41    7.54
  13   9  -5  560.24    9.17
  13   9   5  746.84   10.34
 -13  -9  -6  769.99   11.55
 -13  -9  -6  869.06   11.19
 -13  -9   6  618.22    9.61
 -13   9  -6  671.51    9.19
 -13   9  -6  817.27    8.67
  13  -9   6  769.74    9.46
  13   9  -6  670.40   10.17
  13   9   6  847.34   10.80
 -13  -9  -7  532.71   10.66
 -13  -9  -7  634.75   10.44
 -13  -9   7  455.16    9.07
 -13   9  -7  445.28    8.54
 -13   9  -7  582.84    8.33
  13  -9   7  535.81    8.94
  13   9  -7  475.70    9.36
  13   9   7  657.71   10.50
 -13  -9  -8  147.57    8.44
 -13  -9  -8  184.51    8.62
 -13  -9   8  145.78    7.74
 -13  -9   8  136.08    7.36
 -13   9  -8  114.24    7.21
 -13   9  -8  152.60    6.96
  13  -9   8  132.39    7.38
  13   9  -8  143.20    7.88
  13   9   8  187.89    8.36
 -13  -9  -9    0.84    4.55
 -13  -9  -9    2.84    4.29
 -13  -9   9   -2.14    4.23
 -13  -9   9    0.57    3.82
 -13   9  -9   -1.40    3.99
 -13   9  -9   -5.35    3.68
  13  -9   9    1.01    4.06
  13   9  -9   -0.34    4.19
  13   9   9    3.19    4.40
  13   9   9    0.54    4.34
 -13  -9 -10   44.38    5.35
 -13  -9 -10   51.76    5.20
 -13  -9  10   38.21    4.97
 -13  -9  10   33.90    4.54
 -13   9 -10   37.05    4.71
 -13   9 -10   64.86    7.11
  13  -9 -10   41.81    4.51
  13  -9  10   42.87    4.97
  13  -9  10   54.23    5.61
  13   9 -10   38.98    4.83
  13   9  10   40.32    5.32
  13   9  10   72.23    8.14
 -13  -9 -11   36.63    5.24
 -13  -9 -11   37.30    5.11
 -13  -9  11   30.53    4.98
 -13  -9  11   20.98    4.37
 -13   9 -11   31.75    4.78
 -13   9 -11   51.08    4.97
  13  -9 -11   39.11    4.69
  13  -9  11   49.29    5.22
  13  -9  11   52.32    6.03
  13   9 -11   28.32    4.74
  13   9  11   42.94    5.45
  13   9  11   42.76    5.22
 -13  -9 -12   14.87    5.20
 -13  -9 -12   12.69    4.93
 -13  -9  12   11.06    4.71
 -13  -9  12   17.05    4.56
 -13   9 -12   18.67    4.89
 -13   9 -12   19.01    4.76
  13  -9 -12   15.61    4.44
  13  -9 -12   12.22    3.27
  13  -9  12   25.90    4.94
  13  -9  12   27.01    4.03
  13   9 -12   18.81    4.60
  13   9  12   26.02    5.40
  13   9  12   26.15    5.20
 -13  -9 -13    8.43    5.28
 -13  -9 -13    6.22    4.79
 -13  -9  13    2.70    4.84
 -13  -9  13   -1.44    4.29
 -13   9 -13    7.49    4.62
  13  -9 -13    9.29    4.34
  13  -9 -13    1.48    3.39
  13   9 -13   -1.14    4.43
  13   9  13    9.54    5.44
  13   9  13    6.75    4.97
 -13  -9 -14   -9.27    5.15
 -13  -9 -14   -1.98    4.72
 -13  -9  14   -2.03    4.68
  13  -9 -14   -5.74    4.15
  13  -9 -14   -6.12    3.58
  13   9 -14   -6.44    4.36
  13   9  14   -1.38    5.35
  13   9  14   -3.08    4.82
 -13  -9 -15   19.15    5.86
 -13  -9 -15   19.08    4.92
  13  -9 -15   14.89    4.74
  13  -9 -15   17.33    4.04
  13   9 -15   14.55    5.77
  13   9 -15   18.25    4.83
  13   9  15   23.65    5.86
  13   9  15   26.52    5.61
 -13 -11   0  788.33   10.23
 -13 -11   0  635.13    9.26
 -13 -11  -1  528.85    9.19
 -13 -11  -1  435.79    8.61
 -13 -11   1  492.96    9.16
 -13 -11   1  446.30    8.66
 -13  11  -1  491.16    6.64
 -13 -11  -2  183.19    7.84
 -13 -11   2  177.95    7.52
 -13 -11   2  178.23    7.16
 -13  11  -2  193.04    5.60
  13  11   2  227.44    7.59
 -13 -11   3   -2.91    3.50
 -13  11  -3   -4.00    2.91
  13  11   3   -1.41    3.68
 -13 -11  -4  133.18    7.64
 -13 -11   4   96.40    7.08
 -13  11  -4  119.71    5.55
  13  11  -4  117.93    7.35
  13  11   4  140.66    7.40
 -13 -11  -5  243.43    8.67
 -13 -11  -5  269.18    8.59
 -13 -11   5  197.01    7.75
 -13  11  -5  211.06    6.39
 -13  11  -5  249.00    5.61
  13  11  -5  206.29    7.92
  13  11   5  283.65    8.24
 -13 -11  -6  233.73    8.79
 -13 -11  -6  245.43    8.49
 -13 -11   6  186.83    7.56
 -13  11  -6  200.09    6.71
 -13  11  -6  237.18    6.01
  13 -11   6  225.14    6.76
  13  11  -6  197.16    8.15
  13  11   6  281.15    8.47
 -13 -11  -7  111.27    8.28
 -13 -11  -7  123.80    8.01
 -13 -11   7   89.08    7.48
 -13  11  -7   82.13    6.41
 -13  11  -7  113.92    5.78
  13 -11   7  106.72    6.64
  13  11  -7   90.24    7.55
  13  11   7  123.38    7.69
 -13 -11  -8    9.43    4.71
 -13 -11  -8   11.76    4.33
 -13 -11   8    4.19    4.16
 -13 -11   8    8.98    4.07
 -13  11  -8    3.01    3.73
 -13  11  -8    5.13    3.69
  13 -11   8    4.93    3.90
  13  11  -8    6.39    4.17
  13  11   8   12.59    4.38
 -13 -11  -9    8.18    4.66
 -13 -11  -9    5.99    4.60
 -13 -11   9    2.14    4.34
 -13 -11   9    8.12    4.13
 -13  11  -9    3.62    3.93
 -13  11  -9    6.68    3.82
  13 -11  -9    5.22    3.79
  13 -11   9    4.53    4.21
  13  11  -9    5.99    4.39
  13  11   9    9.92    4.69
 -13 -11 -10   46.55    5.44
 -13 -11 -10   73.90    8.36
 -13 -11  10   44.86    5.19
 -13 -11  10   32.18    4.53
 -13  11 -10   59.16    7.32
 -13  11 -10   74.97    7.07
  13 -11 -10   55.96    6.71
  13 -11  10   47.23    4.87
  13  11 -10   48.54    5.17
  13  11  10   74.67    8.65
  13  11  10   96.31    8.60
 -13 -11 -11  177.03    9.50
 -13 -11 -11  208.59    9.38
 -13 -11  11  169.51    8.95
 -13 -11  11  148.91    8.29
 -13  11 -11  174.33    8.41
 -13  11 -11  207.04    8.36
  13 -11 -11  167.81    7.67
  13 -11  11  190.61    8.59
  13 -11  11  204.34    6.36
  13  11 -11  158.72    8.56
  13  11  11  206.04    9.74
  13  11  11  250.03    9.85
 -13 -11 -12  191.14    9.92
 -13 -11 -12  222.62    9.60
 -13 -11  12  194.91    9.53
 -13 -11  12  188.23    9.21
 -13  11 -12  200.13    8.91
 -13  11 -12  255.36    9.06
  13 -11 -12  194.16    8.11
  13 -11  12  237.72    6.92
  13  11 -12  194.39    8.90
  13  11  12  231.57   10.30
  13  11  12  276.49   10.42
 -13 -11 -13  112.37    9.62
 -13 -11 -13  110.34    9.06
 -13 -11  13  115.39    8.94
 -13 -11  13  106.63    8.36
  13 -11 -13  119.22    7.71
  13 -11 -13   98.86    5.48
  13  11 -13  101.50    8.32
  13  11  13  137.44    9.99
  13  11  13  142.32    9.37
 -13 -11 -14   23.06    5.82
 -13 -11 -14   21.04    5.11
 -13 -11  14   25.71    5.37
 -13 -11  14   16.66    4.61
  13 -11 -14   24.75    4.64
  13 -11 -14   21.41    3.55
  13  11 -14   21.88    4.92
  13  11  14   21.24    5.86
  13  11  14   29.88    5.59
 -13 -13   0  635.72    9.70
 -13 -13   0  523.77    9.29
 -13 -13  -1  688.01   10.16
 -13 -13  -1  568.61    9.28
 -13 -13   1  673.16    9.92
 -13 -13   1  538.64    9.24
 -13  13  -1  586.73    6.71
 -13 -13  -2  379.54    9.00
 -13 -13  -2  297.34    8.05
 -13 -13   2  348.43    8.59
 -13 -13   2  303.52    7.96
 -13  13  -2  306.05    5.89
  13  13   2  409.90    8.97
 -13 -13  -3   82.35    7.69
 -13 -13   3   71.00    6.97
 -13 -13   3   83.11    6.82
 -13  13  -3   76.47    5.02
  13  13  -3   89.06    7.30
  13  13   3  102.09    7.26
 -13 -13  -4   -6.47    3.99
 -13 -13   4    1.36    3.86
 -13  13  -4   -3.93    2.96
  13  13  -4   -0.96    3.69
  13  13   4   -6.70    3.82
 -13 -13  -5   66.56    7.81
 -13 -13  -5   65.64    7.44
 -13 -13   5   43.94    4.43
 -13  13  -5   51.04    5.33
 -13  13  -5   66.31    4.44
  13  13  -5   51.05    4.90
  13  13   5   72.23    7.26
 -13 -13  -6   86.39    7.92
 -13 -13  -6   95.31    7.95
 -13 -13   6   58.59    7.27
 -13  13  -6   84.90    5.72
 -13  13  -6   95.78    4.97
  13 -13   6   90.13    5.94
  13  13  -6   71.00    7.52
  13  13   6  111.30    7.77
 -13 -13  -7   42.77    5.26
 -13 -13  -7   46.84    4.96
 -13 -13   7   26.14    4.41
 -13  13  -7   35.57    3.91
 -13  13  -7   54.32    5.44
  13 -13   7   45.02    4.22
  13  13  -7   31.22    4.64
  13  13   7   51.96    5.02
 -13 -13  -8    2.89    4.58
 -13 -13  -8    4.45    4.36
 -13 -13   8   -1.23    4.32
 -13 -13   8    1.24    3.94
 -13  13  -8    6.55    3.64
 -13  13  -8    3.87    3.50
  13 -13   8    6.63    3.85
  13  13  -8   -4.75    4.05
  13  13   8    3.48    4.47
 -13 -13  -9   42.66    5.46
 -13 -13  -9   49.83    5.36
 -13 -13   9   28.05    5.05
 -13 -13   9   30.03    4.69
 -13  13  -9   35.41    4.29
 -13  13  -9   70.11    6.61
  13 -13  -9   36.98    4.21
  13 -13   9   60.17    6.91
  13  13  -9   31.21    4.83
  13  13   9   72.43    8.43
 -13 -13 -10  251.33    9.77
 -13 -13 -10  292.51    9.62
 -13 -13  10  240.37    9.63
 -13 -13  10  203.70    8.61
 -13  13 -10  229.78    8.15
 -13  13 -10  307.87    8.15
  13 -13 -10  242.41    7.74
  13 -13  10  261.17    8.59
  13  13 -10  207.04    8.98
  13  13  10  278.56   10.26
  13  13  10  318.66   10.11
 -13 -13 -11  375.63   10.88
 -13 -13 -11  419.82   10.55
 -13 -13  11  336.55   10.38
 -13 -13  11  334.26   10.10
 -13  13 -11  336.94    9.48
 -13  13 -11  451.27    9.50
  13 -13 -11  371.55    8.75
  13 -13  11  378.19    9.59
  13  13 -11  306.53    9.69
  13  13  11  429.86   11.65
  13  13  11  480.92   11.09
 -13 -13 -12  308.76   10.60
 -13 -13 -12  351.32   10.59
 -13 -13  12  293.96   10.52
 -13 -13  12  275.89    9.56
  13 -13 -12  284.60    8.54
  13 -13  12  316.12    6.66
  13  13 -12  268.82    9.55
  13  13  12  332.04   11.10
  13  13  12  434.58   15.18
 -13 -13 -13  171.32   10.03
 -13 -13 -13  190.27    9.52
 -13 -13  13  168.90    9.61
 -13 -13  13  163.19    8.88
  13 -13 -13  168.69    7.81
  13  13 -13  153.00    8.91
 -13 -13 -14   52.61    6.23
 -13 -13 -14   48.97    5.44
 -13 -13  14   46.42    6.01
 -13 -13  14   40.67    5.09
  13 -13 -14   72.71    7.48
  13 -13 -14   65.93    5.10
  13  13 -14   40.44    5.14
 -13 -15   0  927.00   11.30
 -13 -15   0  690.92   10.15
 -13  15   0  744.94    6.85
 -13 -15  -1  526.56    9.75
 -13 -15  -1  402.41    9.13
 -13 -15   1  521.28    9.38
 -13 -15   1  393.60    8.74
 -13  15  -1  359.43    5.77
  13  15   1  501.65    9.39
 -13 -15  -2  223.30    8.74
 -13 -15  -2  164.78    7.42
 -13 -15   2  215.49    7.86
 -13 -15   2  168.73    7.69
 -13  15  -2  142.61    5.04
  13  15   2  212.18    8.12
 -13 -15  -3   19.89    4.55
 -13 -15  -3   23.34    4.36
 -13 -15   3   27.61    4.47
 -13 -15   3   19.86    4.10
 -13  15  -3   14.48    2.97
  13  15  -3   20.83    4.39
  13  15   3   24.88    4.38
 -13 -15  -4    1.51    4.40
 -13 -15   4    0.69    3.83
 -13 -15   4    3.73    3.92
 -13  15  -4    1.86    2.89
  13  15  -4    5.69    4.20
  13  15   4    2.82    4.10
 -13 -15  -5   44.00    5.17
 -13 -15  -5   40.65    4.79
 -13 -15   5   31.17    4.30
 -13  15  -5   28.61    3.40
  13  15  -5   31.55    4.65
  13  15   5   40.11    4.76
 -13 -15  -6   66.00    8.07
 -13 -15  -6   51.53    4.92
 -13 -15   6   39.45    4.56
 -13  15  -6   46.22    5.31
 -13  15  -6   59.37    4.58
  13 -15   6   62.22    5.77
  13  15  -6   38.07    4.73
  13  15   6   55.64    5.13
 -13 -15  -7   45.45    5.42
 -13 -15  -7   47.31    5.04
 -13 -15   7   30.52    4.63
 -13  15  -7   32.66    3.77
 -13  15  -7   56.36    5.11
  13 -15   7   53.51    6.15
  13  15  -7   31.29    4.92
  13  15   7   45.34    5.16
 -13 -15  -8    6.33    4.76
 -13 -15  -8    6.88    4.47
 -13 -15   8    8.22    4.74
 -13 -15   8    1.37    4.18
 -13  15  -8    8.73    3.67
 -13  15  -8   14.28    3.41
  13 -15   8    8.71    4.01
  13  15  -8    9.15    4.56
  13  15   8    2.16    4.72
 -13 -15  -9   18.28    5.15
 -13 -15  -9   15.80    4.89
 -13 -15   9   15.26    4.78
 -13 -15   9    6.34    4.37
 -13  15  -9   10.16    4.01
 -13  15  -9   20.48    3.83
  13 -15  -9   13.01    3.86
  13 -15   9   16.00    4.18
  13  15  -9    9.63    4.75
 -13 -15 -10  153.97    9.27
 -13 -15 -10  172.44    9.31
 -13 -15  10  148.14    9.23
 -13 -15  10  118.75    8.22
 -13  15 -10  129.46    7.57
 -13  15 -10  171.09    7.27
  13 -15 -10  128.70    6.99
  13 -15  10  145.89    7.65
  13  15 -10  128.58    8.68
 -13 -15 -11  285.45   10.23
 -13 -15 -11  324.54   10.23
 -13 -15  11  248.43    9.95
 -13 -15  11  250.18    9.69
 -13  15 -11  241.74   10.37
  13 -15 -11  258.32    7.84
  13  15 -11  224.77    9.37
 -13 -15 -12  286.36   10.50
 -13 -15 -12  309.34   10.07
 -13 -15  12  292.26   10.60
 -13 -15  12  254.77    9.58
  13 -15 -12  272.59    8.12
  13  15 -12  245.51    9.68
 -13 -15 -13  176.52    9.95
 -13 -15 -13  170.54    9.37
 -13 -15  13  134.41    9.55
 -13 -15  13  130.99   10.01
  13 -15 -13  165.52    7.59
  13  15 -13  137.15    9.12
 -13 -17   0  125.51    7.77
 -13 -17   0  114.10    7.62
 -13 -17  -1  172.13    8.06
 -13 -17  -1  124.76    7.66
 -13 -17   1  178.39    7.83
 -13 -17   1  125.25    7.43
  13  17   1  166.17    8.03
 -13 -17  -2   33.47    4.72
 -13 -17  -2   28.45    4.48
 -13 -17   2   31.44    4.35
 -13 -17   2   26.99    4.32
 -13  17  -2   23.69    2.77
  13  17  -2   22.03    4.55
  13  17   2   27.67    4.53
 -13 -17  -3    1.07    4.19
 -13 -17  -3    0.41    4.12
 -13 -17   3   -1.65    4.00
 -13 -17   3    0.08    4.05
 -13  17  -3   -2.65    2.58
  13  17  -3    1.08    4.25
  13  17   3    7.34    6.82
 -13 -17  -4   44.58    5.00
 -13 -17  -4   28.80    4.48
 -13 -17   4   36.83    4.43
 -13 -17   4   30.33    4.49
 -13  17  -4   22.72    2.98
  13  17  -4   33.79    4.79
 -13 -17  -5  129.75    9.01
 -13 -17  -5  159.16    8.54
 -13 -17   5  154.79    7.77
 -13 -17   5  112.50    7.99
 -13  17  -5  108.43    5.21
  13  17  -5  135.29    8.31
 -13 -17  -6  300.08   10.04
 -13 -17  -6  353.39    9.80
 -13 -17   6  239.67    8.60
 -13  17  -6  229.45    6.21
 -13  17  -6  287.36    5.29
  13 -17   6  300.28    6.89
  13  17  -6  256.45    9.53
 -13 -17  -7  290.75   10.30
 -13 -17  -7  353.54    9.97
 -13 -17   7  256.66    9.10
 -13  17  -7  247.88    6.85
 -13  17  -7  341.61    6.18
  13 -17   7  315.90    7.40
  13  17  -7  264.95    9.39
 -13 -17  -8   92.51    8.94
 -13 -17  -8  131.37    9.03
 -13 -17   8  112.25    8.79
 -13 -17   8  102.49    8.16
 -13  17  -8   92.32    6.38
 -13  17  -8  129.07    5.95
  13 -17   8  123.91    6.95
  13  17  -8   90.51    8.44
 -13 -17  -9   -4.39    4.81
 -13 -17  -9   -2.42    4.58
 -13 -17   9   -0.42    4.62
 -13 -17   9   -0.36    4.28
 -13  17  -9    7.04    3.80
 -13  17  -9    3.98    3.54
  13 -17  -9    2.19    3.49
  13 -17   9    2.58    3.96
  13  17  -9   -3.12    4.64
 -13 -17 -10   26.84    5.23
 -13 -17 -10   37.81    5.03
 -13 -17  10   30.46    5.41
 -13 -17  10   23.21    4.78
 -13  17 -10   33.07    4.46
  13 -17 -10   40.79    4.17
  13 -17  10   35.36    4.61
  13  17 -10   27.99    4.99
 -13 -17 -11  138.42    9.28
 -13 -17 -11  162.89    8.95
 -13 -17  11  130.91    9.20
 -13 -17  11  111.12   10.16
  13 -17 -11  126.32    6.97
  13  17 -11  121.66    9.04
 -13 -17 -12  110.92    9.39
 -13 -17 -12  132.95    9.35
  13 -17 -12   96.49    6.86
  13  17 -12   91.64    9.01
 -13 -19   0  309.74    9.03
 -13 -19   0  230.29    8.33
 -13 -19  -1   44.30    5.08
 -13 -19  -1   34.91    4.84
 -13 -19   1   46.39    5.11
 -13 -19   1   33.53    4.69
 -13 -19  -2   -4.37    4.47
 -13 -19  -2    0.47    4.24
 -13 -19   2   -1.29    4.15
 -13 -19   2    1.62    4.13
  13  19  -2    2.18    4.55
 -13 -19  -3   96.95    8.36
 -13 -19  -3   75.24    7.75
 -13 -19   3   80.87    7.82
 -13 -19   3   66.35    7.37
  13  19  -3   65.72    7.75
 -13 -19  -4  293.17    9.50
 -13 -19  -4  225.39    8.75
 -13 -19   4  268.69    8.93
 -13 -19   4  200.84    8.69
 -13  19  -4  198.17    5.09
  13  19  -4  209.11    9.20
 -13 -19  -5  435.94   11.14
 -13 -19  -5  496.98   10.21
 -13 -19  -5  396.49    9.77
 -13 -19   5  462.71    9.75
 -13 -19   5  328.38    9.10
 -13  19  -5  348.60    6.17
  13  19  -5  382.01   10.21
 -13 -19  -6  505.01   11.49
 -13 -19  -6  555.47   10.81
 -13 -19   6  497.47   10.13
 -13 -19   6  406.19    9.98
 -13  19  -6  359.01    6.77
  13 -19   6  460.98    7.52
  13  19  -6  421.23   10.46
 -13 -19  -7  407.52   11.32
 -13 -19  -7  451.52   10.28
 -13 -19   7  338.86    9.69
 -13  19  -7  311.76    7.01
 -13  19  -7  425.64    6.26
  13 -19   7  378.26    7.70
  13  19  -7  352.80   10.10
 -13 -19  -8  211.08    9.97
 -13 -19  -8  253.28    9.50
 -13 -19   8  230.38    9.85
 -13 -19   8  189.06    8.80
 -13  19  -8  182.94    6.90
 -13  19  -8  252.66    6.30
  13 -19   8  214.55    7.24
  13  19  -8  213.04    9.49
 -13 -19  -9   11.43    5.10
 -13 -19  -9   20.30    4.74
 -13 -19   9   17.33    6.03
 -13  19  -9   13.73    3.94
 -13  19  -9   30.37    3.71
  13 -19  -9   19.35    3.54
  13 -19   9   22.32    4.19
  13  19  -9   18.48    4.92
 -13 -19 -10   -6.30    4.74
 -13 -19 -10    1.05    4.36
  13 -19 -10    3.48    3.56
  13  19 -10    8.65    4.84
 -13 -19 -11    8.18    5.14
 -13 -19 -11    6.69    4.63
  13 -19 -11    5.44    3.72
  13  19 -11   11.65    5.04
 -13 -21   0   -2.34    4.58
 -13 -21   0   -2.26    4.45
 -13 -21  -1   61.05    5.50
 -13 -21  -1   47.42    5.18
 -13 -21   1   60.03    5.40
 -13 -21   1   40.69    4.93
 -13 -21  -2    9.68    4.92
 -13 -21  -2   12.06    4.72
 -13 -21   2    7.23    4.73
 -13 -21   2    6.12    4.52
  13  21  -2   10.23    4.90
 -13 -21  -3   63.54    5.47
 -13 -21  -3   43.64    5.18
 -13 -21   3   48.44    5.21
 -13 -21   3   40.73    4.92
  13  21  -3   46.92    5.54
 -13 -21  -4  564.08   10.41
 -13 -21  -4  446.72   10.40
 -13 -21   4  506.81   10.21
 -13 -21   4  394.20    9.86
  13  21  -4  447.89   10.88
 -13 -21  -5  711.96   12.82
 -13 -21  -5  805.51   11.82
 -13 -21  -5  640.37   11.68
 -13 -21   5  748.52   11.30
 -13 -21   5  572.59   10.81
 -13  21  -5  498.67    6.55
  13  21  -5  649.77   12.10
 -13 -21  -6  565.75   11.96
 -13 -21  -6  579.29   10.60
 -13 -21   6  549.53   10.36
 -13  21  -6  376.96    6.66
  13 -21   6  478.78    7.46
  13  21  -6  484.67   11.10
 -13 -21  -7  250.91   10.44
 -13 -21  -7  295.87    9.33
 -13 -21   7  291.28    9.15
 -13  21  -7  179.17    6.27
  13 -21   7  231.61    6.84
  13  21  -7  263.00    9.81
 -13 -21  -8  125.60    9.38
 -13 -21  -8  130.83    8.32
 -13  21  -8   93.23    6.19
 -13  21  -8  129.70    5.56
  13 -21   8   96.30    6.53
  13  21  -8  119.03    9.16
 -13 -21  -9   48.53    5.88
 -13 -21  -9   43.81    5.07
 -13  21  -9   35.69    4.20
  13 -21  -9   54.86    5.62
  13 -21   9   41.51    4.45
  13  21  -9   44.44    5.56
 -13 -21 -10    0.02    4.86
 -13 -21 -10    2.18    4.45
  13 -21 -10    4.24    3.43
  13  21 -10   -3.62    5.02
 -13 -23   0  445.11    9.97
 -13 -23  -1  123.41    8.57
 -13 -23   1  121.33    8.51
  13  23  -1   95.50    8.82
 -13 -23  -2   -6.96    4.42
 -13 -23   2   -1.03    4.38
  13  23  -2   -6.49    4.77
 -13 -23  -3    2.09    4.54
 -13 -23   3   -6.12    4.23
  13  23  -3   -0.62    4.84
 -13 -23  -4   34.46    4.86
 -13 -23   4   29.19    4.80
  13  23  -4   24.02    5.30
 -13 -23  -5  199.58   10.08
 -13 -23  -5  237.89    8.95
 -13 -23   5  229.98    8.66
  13  23  -5  184.74    9.52
 -13 -23  -6  387.78   10.99
 -13 -23  -6  419.91   10.01
 -13 -23   6  382.49    9.49
 -13  23  -6  255.65    5.70
  13 -23   6  324.38    6.55
  13  23  -6  331.58   10.56
 -13 -23  -7  320.31   11.01
 -13 -23  -7  327.80    9.57
 -13 -23   7  332.97    9.31
 -13  23  -7  229.12    6.15
  13 -23   7  279.29    6.89
  13  23  -7  293.42   10.25
 -13 -23  -8   84.35    9.39
 -13 -23  -8   99.83    8.35
 -13 -23   8   75.37    7.82
 -13  23  -8   55.59    5.68
  13 -23   8   50.39    4.33
  13  23  -8   76.94    9.04
 -13 -25   0  719.20   11.00
 -13 -25  -1  657.78   10.83
 -13 -25   1  656.13   10.69
  13  25  -1  484.49   11.06
 -13 -25  -2  168.69    8.92
 -13 -25   2  183.53    8.60
  13  25  -2  132.91    8.85
 -13 -25  -3   -2.88    4.41
 -13 -25   3   -2.83    4.25
  13  25  -3   -1.29    4.80
 -13 -25  -4   12.75    4.69
 -13 -25   4   34.28    4.83
  13  25  -4   26.20    5.68
 -13 -25  -5   47.57    6.10
 -13 -25  -5   37.40    5.01
 -13 -25   5   41.83    4.74
  13  25  -5   26.19    6.14
 -14   0  -2  543.81    8.26
 -14   0  -3  290.35    7.28
 -14   0   3  248.47    6.48
 -14   0  -4   30.35    4.05
 -14   0  -4   31.42    3.80
 -14   0   4   20.17    3.29
 -14   0  -5   32.78    4.41
 -14   0  -5   33.99    4.08
 -14   0  -6   70.56    6.85
 -14   0  -6   81.01    6.58
  14   0   6   76.37    6.07
 -14   0  -7   28.05    4.30
 -14   0  -7   39.99    4.54
 -14   0   7   28.59    4.99
  14   0   7   33.67    3.97
 -14   0  -8    6.19    4.12
 -14   0  -8    3.17    4.09
  14   0  -8   -0.55    3.56
  14   0   8    1.79    4.14
  14   0   8    8.13    3.76
 -14   0  -9   43.32    4.86
 -14   0  -9   62.89    7.66
  14   0  -9   32.26    4.15
  14   0   9   45.10    5.18
  14   0   9   63.52    7.05
 -14   0 -10  273.13    9.49
 -14   0 -10  347.96    9.54
  14   0 -10  274.67    8.12
  14   0  10  297.73    9.91
  14   0  10  344.79    9.05
 -14   0 -11  483.82   11.19
 -14   0 -11  582.71   11.07
  14   0 -11  458.20    9.32
  14   0  11  560.05   11.70
  14   0  11  645.42   10.93
 -14   0 -12  561.20   12.07
 -14   0 -12  642.53   11.98
  14   0 -12  528.44    9.80
  14   0  12  600.49   12.29
  14   0  12  693.16   11.34
 -14   0 -13  375.84   11.45
 -14   0 -13  433.24   11.02
  14   0 -13  405.44   10.82
  14   0 -13  348.94    9.05
  14   0  13  424.69   11.63
  14   0  13  496.89   11.29
 -14   0 -14  111.43    9.88
 -14   0 -14  118.08    9.39
  14   0 -14  120.27    9.13
  14   0 -14  100.26    7.78
 -14   0 -15    9.19    5.04
  14   0 -15   12.95    5.29
  14   0 -15    2.48    4.27
 -14  -2  -2  386.11    7.75
 -14  -2  -3   24.06    3.77
 -14  -2   3   23.31    3.48
 -14   2  -3   27.61    3.94
 -14   2  -3   35.03    3.67
 -14  -2  -4    1.26    3.77
 -14  -2  -4    0.98    3.43
 -14  -2   4   -2.32    3.16
 -14   2  -4   -0.69    3.60
 -14   2  -4   -1.60    3.16
 -14  -2  -5   23.01    4.02
 -14  -2  -5   28.00    4.04
 -14  -2   5   16.22    3.56
 -14   2  -5   19.75    3.86
 -14   2  -5   27.99    3.84
  14   2   5   17.40    3.56
 -14  -2  -6  139.14    7.48
 -14  -2  -6  164.66    7.65
 -14  -2   6  116.82    6.53
 -14   2  -6  138.71    7.16
 -14   2  -6  159.50    6.92
  14   2   6  140.25    6.92
 -14  -2  -7  188.50    8.08
 -14  -2  -7  226.85    7.90
 -14  -2   7  162.15    7.45
 -14   2  -7  194.79    7.68
 -14   2  -7  233.63    7.74
  14  -2   7  221.18    7.98
  14  -2   7  207.10    6.84
  14   2  -7  181.17    6.90
  14   2   7  220.84    7.69
 -14  -2  -8   26.16    4.71
 -14  -2  -8   36.66    4.60
 -14  -2   8   18.38    4.18
 -14   2  -8   26.33    4.44
 -14   2  -8   37.74    4.45
  14  -2   8   35.19    4.67
  14  -2   8   34.01    4.09
  14   2  -8   19.32    3.92
  14   2   8   22.40    4.92
  14   2   8   30.62    4.36
 -14  -2  -9   43.37    5.02
 -14  -2  -9   61.73    7.62
 -14   2  -9   61.59    7.63
 -14   2  -9   63.36    7.49
  14  -2  -9   36.47    3.96
  14  -2   9   41.64    4.96
  14  -2   9   61.61    6.81
  14   2  -9   32.08    4.34
  14   2   9   32.39    4.96
  14   2   9   66.48    7.19
 -14  -2 -10  264.43    9.52
 -14  -2 -10  319.29    9.76
 -14   2 -10  261.47    9.19
 -14   2 -10  330.57    9.08
  14  -2 -10  246.84    7.67
  14  -2  10  310.25    9.62
  14  -2  10  328.23    8.56
  14   2 -10  233.76    8.30
  14   2  10  277.16    9.82
  14   2  10  329.02    9.03
 -14  -2 -11  437.23   11.03
 -14  -2 -11  505.24   10.81
 -14   2 -11  417.17   10.64
 -14   2 -11  497.72   10.64
  14  -2 -11  419.58    8.58
  14  -2  11  467.56   10.99
  14  -2  11  529.71    9.84
  14   2 -11  381.84    9.35
  14   2  11  488.55   11.45
  14   2  11  550.72   10.37
 -14  -2 -12  313.04   10.68
 -14  -2 -12  355.70   10.56
 -14   2 -12  321.61   10.98
 -14   2 -12  360.82   10.40
  14  -2 -12  334.16    9.99
  14  -2 -12  294.96    8.29
  14  -2  12  324.25   10.59
  14  -2  12  379.86    9.69
  14   2 -12  301.93    9.09
  14   2  12  336.57   10.92
  14   2  12  400.04   10.25
 -14  -2 -13  148.42    9.88
 -14  -2 -13  168.61    9.65
 -14   2 -13  139.01    9.96
 -14   2 -13  176.21    9.44
  14  -2 -13  163.79    9.14
  14  -2 -13  143.17    7.81
  14  -2  13  162.68   11.55
  14   2 -13  134.97    8.22
  14   2  13  157.37    9.90
  14   2  13  190.08    9.70
 -14  -2 -14  106.13    9.79
 -14  -2 -14  119.19    9.39
 -14   2 -14   58.49    7.27
 -14   2 -14  105.70    9.22
  14  -2 -14   94.28    8.97
  14  -2 -14   87.24    7.63
  14   2 -14   98.86    9.28
  14   2 -14   90.76    8.09
 -14  -2 -15   19.87    5.83
 -14  -2 -15   13.44    5.13
 -14   2 -15   16.33    5.24
  14  -2 -15   17.72    5.29
  14  -2 -15   13.62    4.32
  14   2 -15   17.54    5.51
  14   2 -15   16.36    4.49
 -14  -4  -1  307.64    7.48
 -14  -4  -2   13.10    3.76
 -14  -4   2   11.45    3.43
 -14  -4  -3   16.43    3.70
 -14  -4   3    5.90    3.44
 -14   4  -3    7.30    3.51
 -14   4  -3    5.95    3.19
 -14  -4  -4  143.92    7.61
 -14  -4  -4  173.46    7.30
 -14  -4   4  120.32    6.43
 -14   4  -4  155.12    6.72
 -14   4  -4  152.07    6.27
 -14  -4  -5  446.27    9.32
 -14  -4  -5  533.45    9.07
 -14  -4   5  377.24    8.02
 -14   4  -5  466.87    8.52
 -14   4  -5  479.75    7.83
  14   4   5  454.27    8.52
 -14  -4  -6  449.91    9.75
 -14  -4  -6  552.84    9.60
 -14  -4   6  415.43    8.35
 -14   4  -6  468.21    8.85
 -14   4  -6  540.33    8.40
  14   4  -6  424.99    8.09
  14   4   6  528.86    9.24
 -14  -4  -7  221.34    8.54
 -14  -4  -7  269.77    8.58
 -14  -4   7  219.64    8.00
 -14  -4   7  200.23    7.51
 -14   4  -7  222.42    7.79
 -14   4  -7  269.47    7.69
  14  -4   7  254.79    8.23
  14   4  -7  220.03    7.51
  14   4   7  265.07    8.07
 -14  -4  -8   46.49    5.15
 -14  -4  -8   49.22    4.78
 -14  -4   8   34.54    4.45
 -14  -4   8   50.36    5.82
 -14   4  -8   66.13    6.98
 -14   4  -8   67.59    6.85
  14  -4   8   62.06    7.19
  14  -4   8   58.93    5.91
  14   4  -8   46.77    4.59
  14   4   8   46.85    5.03
  14   4   8   53.68    4.89
 -14  -4  -9   -3.86    4.45
 -14  -4  -9   -0.88    4.19
 -14  -4   9   -4.02    4.10
 -14   4  -9   -2.60    4.23
 -14   4  -9    2.71    4.01
  14  -4   9   -1.21    4.44
  14  -4   9    1.43    3.54
  14   4  -9   -7.69    3.81
  14   4   9   -4.01    4.47
  14   4   9   -2.02    4.19
 -14  -4 -10   72.25    8.16
 -14  -4 -10   91.45    8.28
 -14  -4  10   57.15    7.21
 -14   4 -10   69.66    8.05
 -14   4 -10   87.97    7.78
  14  -4 -10   73.09    6.16
  14  -4  10   86.73    7.93
  14  -4  10   96.35    6.92
  14   4 -10   69.00    7.67
  14   4  10   76.28    8.37
  14   4  10   93.38    8.26
 -14  -4 -11  173.52    9.37
 -14  -4 -11  217.66    9.54
 -14   4 -11  174.53    9.34
 -14   4 -11  208.65    9.06
  14  -4 -11  168.69    7.13
  14  -4  11  189.46    9.41
  14  -4  11  217.43    8.21
  14   4 -11  146.89    7.96
  14   4  11  205.22    9.67
  14   4  11  227.60    9.41
 -14  -4 -12  182.62    9.83
 -14  -4 -12  221.16    9.80
 -14   4 -12  181.21    9.54
 -14   4 -12  229.94    9.52
  14  -4 -12  195.55    9.20
  14  -4 -12  179.76    7.22
  14  -4  12  210.52    9.71
  14  -4  12  226.39    8.29
  14   4 -12  163.48    8.32
  14   4  12  229.72   10.07
  14   4  12  259.59   10.13
 -14  -4 -13   79.78    9.27
 -14  -4 -13   87.49    9.10
 -14   4 -13   46.86    5.86
 -14   4 -13   80.73    8.61
  14  -4 -13   68.53    8.52
  14  -4 -13   58.89    6.75
  14   4 -13   46.33    5.04
  14   4  13   90.06    9.30
  14   4  13   99.06    8.93
 -14  -4 -14   -2.15    5.44
 -14  -4 -14   -2.82    4.81
 -14   4 -14   -6.64    4.77
  14  -4 -14   -3.22    4.69
  14  -4 -14   -2.29    3.84
  14   4 -14  -10.29    4.91
  14   4 -14   -1.14    4.30
  14   4  14    3.10    5.39
  14   4  14   -3.97    5.86
 -14  -4 -15   39.34    6.32
 -14  -4 -15   46.74    5.63
 -14   4 -15   47.37    6.65
  14  -4 -15   34.98    5.37
  14  -4 -15   34.04    4.51
  14   4 -15   31.28    5.88
  14   4 -15   31.24    4.94
 -14  -6   0  285.21    7.56
 -14  -6  -1   97.27    6.72
 -14  -6   1   66.68    6.10
 -14  -6  -2    0.30    3.50
 -14  -6   2   -7.18    3.33
 -14  -6  -3  299.00    7.87
 -14  -6   3  221.60    7.41
 -14   6  -3  259.69    6.85
 -14  -6  -4  761.95   11.14
 -14  -6  -4  812.70   10.37
 -14  -6   4  626.08    9.35
 -14   6  -4  723.17    9.25
 -14   6  -4  751.08    8.58
  14   6   4  759.34   10.23
 -14  -6  -5  776.58   11.34
 -14  -6  -5  942.39   11.32
 -14   6  -5  762.38    9.76
 -14   6  -5  856.88    9.19
  14   6   5  857.30   10.61
 -14  -6  -6  662.43   11.19
 -14  -6  -6  838.92   11.23
 -14  -6   6  610.94    9.56
 -14   6  -6  654.55    9.62
 -14   6  -6  767.63    9.21
  14   6  -6  630.72    9.39
  14   6   6  788.65   10.83
 -14  -6  -7  468.65   10.30
 -14  -6  -7  552.62   10.13
 -14  -6   7  417.57    8.74
 -14   6  -7  450.68    8.99
 -14   6  -7  535.22    8.63
  14  -6   7  513.62    9.39
  14   6  -7  474.61    8.97
  14   6   7  570.66   10.05
 -14  -6  -8  177.67    8.69
 -14  -6  -8  204.92    8.63
 -14  -6   8  173.59    7.93
 -14  -6   8  165.98    7.61
 -14   6  -8  180.46    7.93
 -14   6  -8  213.64    7.59
  14  -6   8  196.22    7.98
  14   6  -8  172.24    8.07
  14   6   8  213.06    8.41
 -14  -6  -9   -3.17    4.58
 -14  -6  -9    8.40    4.29
 -14  -6   9    6.20    4.29
 -14  -6   9    5.65    4.02
 -14   6  -9    5.00    4.35
 -14   6  -9    6.14    3.95
  14  -6   9    5.65    4.46
  14  -6   9    7.33    3.46
  14   6  -9    6.20    4.23
  14   6   9    2.21    4.67
  14   6   9    1.39    4.20
 -14  -6 -10   30.49    5.17
 -14  -6 -10   39.89    5.13
 -14  -6  10   28.77    4.75
 -14   6 -10   27.13    4.82
 -14   6 -10   38.58    4.60
  14  -6  10   41.50    5.15
  14  -6  10   33.79    4.13
  14   6 -10   28.09    4.61
  14   6  10   37.74    5.38
  14   6  10   36.00    4.94
 -14  -6 -11   84.46    8.76
 -14  -6 -11  100.19    8.91
 -14  -6  11   76.57    7.85
 -14   6 -11   84.37    8.55
 -14   6 -11   91.41    8.20
  14  -6 -11   94.43    7.89
  14  -6 -11   88.43    6.28
  14  -6  11   80.71    8.44
  14  -6  11   85.56    7.00
  14   6 -11   67.45    7.78
  14   6  11   86.18    8.82
  14   6  11  112.03    8.63
 -14  -6 -12   12.65    5.32
 -14  -6 -12   17.68    5.15
 -14   6 -12    9.78    4.92
 -14   6 -12   14.24    5.08
  14  -6 -12   14.55    4.69
  14  -6 -12   12.99    3.68
  14  -6  12   11.72    5.37
  14  -6  12   17.14    4.47
  14   6 -12    4.00    4.42
  14   6  12   16.46    5.46
  14   6  12   19.37    5.15
 -14  -6 -13    0.87    5.27
 -14  -6 -13    2.80    4.90
 -14   6 -13    4.10    5.03
  14  -6 -13    8.98    4.56
  14  -6 -13    6.86    3.77
  14   6 -13    0.29    4.49
  14   6  13    5.27    5.15
  14   6  13    3.73    5.11
 -14  -6 -14   11.95    5.59
 -14  -6 -14   15.00    5.12
  14  -6 -14   12.47    4.79
  14  -6 -14   13.81    4.05
  14   6 -14   16.08    4.68
  14   6  14   16.24    5.54
  14   6  14   14.11    5.16
 -14  -6 -15   28.90    6.04
 -14  -6 -15   26.79    5.55
  14  -6 -15   22.45    5.21
  14  -6 -15   20.48    4.26
  14   6 -15   27.88    5.98
  14   6 -15   23.54    5.05
 -14  -8   0  315.82    8.11
 -14  -8  -1  167.66    7.46
 -14  -8   1  171.02    7.26
 -14  -8   1  153.95    6.98
 -14  -8  -2    5.05    3.82
 -14  -8   2   -1.19    3.68
 -14   8  -2    9.49    3.30
 -14  -8  -3  278.78    8.09
 -14  -8   3  195.29    7.49
 -14   8  -3  248.64    6.67
 -14  -8  -4  495.06   10.24
 -14  -8  -4  611.13    9.81
 -14  -8   4  426.99    8.62
 -14   8  -4  483.16    7.96
 -14   8  -4  500.37    7.29
  14   8   4  506.09    9.36
 -14  -8  -5  804.93   11.84
 -14  -8  -5  978.33   11.78
 -14  -8   5  699.31   10.13
 -14   8  -5  706.81    9.33
 -14   8  -5  813.65    8.69
  14   8  -5  687.44    9.87
  14   8   5  878.79   11.14
 -14  -8  -6  838.98   12.13
 -14  -8  -6  943.72   11.68
 -14  -8   6  653.09   10.04
 -14   8  -6  710.50    9.79
 -14   8  -6  900.14    9.53
  14   8  -6  705.93   10.07
  14   8   6  886.22   11.29
 -14  -8  -7  460.25   10.56
 -14  -8  -7  536.02   10.26
 -14  -8   7  372.75    8.75
 -14   8  -7  395.57    8.72
 -14   8  -7  500.27    8.28
  14  -8   7  477.58    9.14
  14   8  -7  437.31    9.61
  14   8   7  536.77   10.18
 -14  -8  -8  130.92    8.56
 -14  -8  -8  162.06    8.52
 -14  -8   8  118.58    7.83
 -14  -8   8  114.27    7.65
 -14   8  -8  134.79    7.53
 -14   8  -8  151.12    7.26
  14  -8   8  138.63    7.52
  14   8  -8  122.47    7.74
  14   8   8  159.59    8.23
 -14  -8  -9    5.23    4.84
 -14  -8  -9    4.43    4.47
 -14  -8   9    5.18    4.27
 -14  -8   9    2.02    4.10
 -14   8  -9    7.53    4.27
 -14   8  -9    7.44    4.06
  14  -8   9    6.05    4.31
  14   8  -9    4.44    4.29
  14   8   9    1.71    4.66
  14   8   9    9.90    4.61
 -14  -8 -10   10.81    5.01
 -14  -8 -10   13.71    4.65
 -14  -8  10    9.64    4.59
 -14  -8  10    6.08    4.16
 -14   8 -10    9.07    4.55
 -14   8 -10   12.56    4.29
  14  -8  10   14.80    4.74
  14  -8  10   16.36    3.57
  14   8 -10   13.16    4.53
  14   8  10   11.19    5.01
  14   8  10   16.83    4.71
 -14  -8 -11   12.05    5.15
 -14  -8 -11    6.33    4.77
 -14  -8  11   11.06    4.66
 -14  -8  11    1.20    4.71
 -14   8 -11    5.03    4.74
 -14   8 -11   14.38    4.65
  14  -8 -11    9.07    4.28
  14  -8  11   14.81    4.90
  14  -8  11   12.22    3.77
  14   8 -11    8.77    4.55
  14   8  11   10.71    5.00
  14   8  11   16.16    5.08
 -14  -8 -12   -0.25    4.98
 -14  -8 -12    3.06    4.71
 -14  -8  12   -2.39    4.49
 -14   8 -12   -3.78    4.69
 -14   8 -12   -1.75    4.53
  14  -8 -12   -2.14    4.38
  14  -8 -12    0.72    3.35
  14  -8  12    0.14    3.81
  14   8 -12   -4.82    4.49
  14   8  12   -5.47    4.88
  14   8  12    2.03    4.95
 -14  -8 -13   -0.77    5.16
 -14  -8 -13   -6.69    4.62
  14  -8 -13   -0.27    4.32
  14  -8 -13   -2.05    3.55
  14   8 -13   -3.67    4.44
  14   8  13   -2.39    5.10
  14   8  13   -6.64    5.07
 -14  -8 -14   -1.79    5.43
 -14  -8 -14   -3.54    4.75
  14  -8 -14   -4.90    4.44
  14  -8 -14    0.21    3.58
  14   8 -14    0.52    4.41
  14   8  14   -0.72    5.34
  14   8  14  -11.06    4.96
 -14  -8 -15   24.12    6.42
 -14  -8 -15   20.34    5.35
  14  -8 -15   23.22    4.99
  14  -8 -15   15.04    4.12
  14   8 -15   11.02    4.95
  14   8  15   33.97    7.59
 -14 -10   0  589.40    9.70
 -14 -10   0  495.52    9.01
 -14 -10  -1  218.82    7.85
 -14 -10   1  221.12    7.98
 -14 -10   1  202.35    7.81
 -14 -10  -2   24.42    4.63
 -14 -10   2   21.22    4.05
 -14  10  -2   27.75    3.43
 -14 -10  -3   10.95    4.19
 -14 -10   3    5.58    3.99
 -14  10  -3   15.33    3.45
  14  10   3   11.46    4.09
 -14 -10  -4  169.38    8.36
 -14 -10   4  104.51    7.17
 -14  10  -4  138.56    6.08
  14  10   4  160.33    7.82
 -14 -10  -5  260.67    9.19
 -14 -10  -5  304.46    9.09
 -14 -10   5  221.70    7.87
 -14  10  -5  230.64    6.82
 -14  10  -5  260.67    6.27
  14  10  -5  228.75    8.11
  14  10   5  281.68    8.50
 -14 -10  -6  286.58    9.50
 -14 -10  -6  345.42    9.56
 -14 -10   6  251.63    8.37
 -14  10  -6  267.59    7.48
 -14  10  -6  307.09    6.80
  14 -10   6  307.46    7.61
  14  10  -6  265.24    8.54
  14  10   6  344.98    8.93
 -14 -10  -7  201.50    9.09
 -14 -10  -7  219.18    8.85
 -14 -10   7  152.23    7.72
 -14  10  -7  166.64    7.19
 -14  10  -7  198.65    6.98
  14 -10   7  189.62    7.38
  14  10  -7  169.01    8.21
  14  10   7  245.03    8.72
 -14 -10  -8   36.98    5.21
 -14 -10  -8   39.66    4.93
 -14 -10   8   28.55    4.80
 -14 -10   8   19.98    4.31
 -14  10  -8   23.34    4.36
 -14  10  -8   42.54    4.26
  14 -10   8   34.57    4.57
  14  10  -8   32.10    4.86
  14  10   8   44.07    5.13
 -14 -10  -9    3.11    4.79
 -14 -10  -9    2.64    4.45
 -14 -10   9    1.57    4.57
 -14 -10   9    1.02    4.07
 -14  10  -9    1.21    4.17
 -14  10  -9   -1.51    3.98
  14 -10   9   -0.42    4.29
  14  10  -9    6.03    4.47
  14  10   9    4.07    4.80
 -14 -10 -10   18.14    5.26
 -14 -10 -10   21.00    4.99
 -14 -10  10   18.79    4.89
 -14 -10  10   12.95    4.34
 -14  10 -10   20.06    4.71
 -14  10 -10   24.99    4.51
  14 -10  10   13.00    4.62
  14  10 -10   18.60    4.73
  14  10  10   19.94    5.30
  14  10  10   18.42    5.05
 -14 -10 -11   48.14    5.97
 -14 -10 -11   73.72    8.78
 -14 -10  11   38.84    5.38
 -14 -10  11   40.18    4.84
 -14  10 -11   46.17    5.18
 -14  10 -11   66.98    7.97
  14 -10 -11   44.42    4.82
  14 -10  11   43.81    5.35
  14 -10  11   48.81    5.99
  14  10 -11   46.89    5.12
  14  10  11   52.20    5.80
  14  10  11   89.18    9.07
 -14 -10 -12   84.94    9.02
 -14 -10 -12   91.52    8.90
 -14 -10  12   53.80    5.75
 -14 -10  12   47.15    5.10
  14 -10 -12   77.55    7.57
  14 -10  12   91.96    6.32
  14  10 -12   66.75    8.18
  14  10  12   91.02    9.26
  14  10  12  107.15    9.37
 -14 -10 -13   22.46    5.79
 -14 -10 -13   31.84    5.36
 -14 -10  13   18.46    5.14
  14 -10 -13   34.22    4.86
  14 -10 -13   28.71    3.58
  14  10 -13   18.37    4.83
  14  10  13   26.80    5.68
  14  10  13   44.24    5.91
 -14 -10 -14   -0.72    5.59
 -14 -10 -14    2.48    4.85
  14 -10 -14   -0.71    4.42
  14 -10 -14    1.44    3.46
  14  10 -14   -1.52    4.40
  14  10  14    5.46    5.64
  14  10  14   -6.59    5.16
 -14 -12   0  333.09    8.67
 -14 -12   0  291.85    8.26
 -14 -12  -1  457.74    9.46
 -14 -12  -1  370.67    8.68
 -14 -12   1  440.93    9.31
 -14 -12   1  382.25    8.72
 -14  12  -1  413.03    6.80
 -14 -12  -2  216.35    8.27
 -14 -12   2  199.13    7.93
 -14 -12   2  211.25    8.08
 -14  12  -2  204.83    5.96
 -14 -12  -3   26.51    4.70
 -14 -12   3   19.35    4.10
 -14  12  -3   26.32    3.45
  14  12   3   24.50    4.25
 -14 -12  -4    2.55    4.46
 -14 -12   4    3.05    3.89
 -14  12  -4    2.21    3.19
  14  12  -4   -1.13    3.90
  14  12   4    0.77    4.06
 -14 -12  -5   47.61    5.31
 -14 -12  -5   57.32    5.21
 -14 -12   5   36.58    4.55
 -14  12  -5   49.57    5.75
 -14  12  -5   45.16    4.90
  14  12  -5   40.65    4.67
  14  12   5   45.91    4.89
 -14 -12  -6   47.42    5.31
 -14 -12  -6   54.52    5.25
 -14 -12   6   38.41    4.49
 -14  12  -6   58.53    6.10
 -14  12  -6   60.94    5.27
  14 -12   6   49.63    4.27
  14  12  -6   35.61    4.70
  14  12   6   67.28    7.63
 -14 -12  -7   24.22    5.00
 -14 -12  -7   25.68    4.84
 -14 -12   7   17.33    4.33
 -14  12  -7   14.33    3.91
 -14  12  -7   24.22    3.59
  14 -12   7   23.48    3.98
  14  12  -7   17.68    4.43
  14  12   7   25.64    4.91
 -14 -12  -8   -0.41    4.65
 -14 -12  -8    1.38    4.44
 -14 -12   8   -0.09    4.60
 -14 -12   8   -2.41    4.29
 -14  12  -8    3.26    3.96
 -14  12  -8    0.67    3.66
  14 -12   8    0.06    3.99
  14  12  -8   -3.29    4.31
  14  12   8    0.83    4.43
 -14 -12  -9   27.66    5.27
 -14 -12  -9   27.54    5.11
 -14 -12   9   19.19    4.78
 -14 -12   9   16.06    4.56
 -14  12  -9   20.01    4.25
 -14  12  -9   35.46    4.34
  14 -12   9   25.54    4.55
  14  12  -9   24.30    4.85
  14  12   9   33.26    5.18
 -14 -12 -10  225.37    9.88
 -14 -12 -10  256.90    9.87
 -14 -12  10  191.26    9.35
 -14 -12  10  182.25    8.71
 -14  12 -10  198.07    8.21
 -14  12 -10  260.37    8.39
  14 -12 -10  181.08    7.79
  14 -12  10  224.95    8.70
  14  12 -10  191.29    9.17
  14  12  10  285.25   10.02
 -14 -12 -11  328.03   10.83
 -14 -12 -11  383.13   10.61
 -14 -12  11  315.80   10.41
 -14 -12  11  276.26    9.36
 -14  12 -11  295.16    9.35
 -14  12 -11  405.30   11.96
  14 -12 -11  300.36    8.61
  14  12 -11  293.39    9.77
  14  12  11  388.08   11.61
  14  12  11  422.55   11.07
 -14 -12 -12  200.16   10.07
 -14 -12 -12  229.94    9.84
 -14 -12  12  193.89    9.59
 -14 -12  12  178.91    9.05
  14 -12 -12  180.25    8.08
  14 -12  12  204.53    6.56
  14  12 -12  188.90    9.42
  14  12  12  249.96   10.65
  14  12  12  256.79   10.44
 -14 -12 -13   59.54    6.48
 -14 -12 -13   84.91    9.14
 -14 -12  13   93.33    9.00
 -14 -12  13   73.86    8.46
  14 -12 -13   92.45    7.87
  14  12 -13   69.34    8.29
  14  12  13   96.18    9.76
  14  12  13  116.68    9.69
 -14 -14   0  866.69   11.11
 -14 -14   0  696.26   10.56
 -14 -14  -1  420.98    9.65
 -14 -14  -1  307.86    8.53
 -14 -14   1  381.10    8.98
 -14 -14   1  312.70    8.60
 -14  14  -1  314.52    6.07
 -14 -14  -2   98.76    7.99
 -14 -14  -2   95.94    7.56
 -14 -14   2  112.61    7.72
 -14 -14   2   97.28    7.11
 -14  14  -2   71.76    5.09
  14  14   2  123.16    7.69
 -14 -14  -3   25.10    4.94
 -14 -14   3   15.58    4.20
 -14 -14   3   17.33    4.28
 -14  14  -3   17.16    3.25
  14  14   3   24.35    4.44
 -14 -14  -4   -6.78    4.21
 -14 -14   4   -0.50    3.90
 -14  14  -4    0.24    3.07
  14  14  -4   -5.92    4.08
  14  14   4   -0.42    4.26
 -14 -14  -5    3.13    4.65
 -14 -14  -5    1.21    4.54
 -14 -14   5    2.62    4.04
 -14  14  -5    1.62    3.21
  14  14  -5    2.24    4.30
  14  14   5    6.42    4.29
 -14 -14  -6   10.99    4.67
 -14 -14  -6    9.86    4.81
 -14 -14   6    6.39    4.20
 -14  14  -6    7.07    3.48
 -14  14  -6   13.76    3.05
  14 -14   6   11.88    3.75
  14  14  -6   12.33    4.52
  14  14   6   13.81    4.54
 -14 -14  -7    8.17    5.02
 -14 -14  -7    5.26    4.66
 -14 -14   7    3.99    4.30
 -14  14  -7    8.52    3.69
 -14  14  -7   12.55    3.38
  14 -14   7    8.98    3.88
  14  14  -7   -0.27    4.45
  14  14   7   10.99    4.62
 -14 -14  -8    2.05    4.94
 -14 -14  -8   -0.41    4.45
 -14 -14   8   -8.48    4.59
 -14 -14   8    0.41    4.21
 -14  14  -8   -0.12    3.73
 -14  14  -8    0.22    3.58
  14 -14   8   -4.86    3.92
  14  14  -8   -5.66    4.68
  14  14   8   -0.47    4.59
 -14 -14  -9   83.92    8.80
 -14 -14  -9  103.55    8.75
 -14 -14   9   67.59    8.42
 -14 -14   9   46.17    5.07
 -14  14  -9   75.56    6.94
 -14  14  -9   98.61    7.02
  14 -14   9   86.80    7.38
  14  14  -9   57.31    5.63
  14  14   9   96.37    8.63
 -14 -14 -10  249.95    9.96
 -14 -14 -10  291.40    9.96
 -14 -14  10  214.15    9.76
 -14 -14  10  196.32    8.91
 -14  14 -10  217.62    8.22
 -14  14 -10  294.53    8.34
  14 -14 -10  226.17    7.75
  14 -14  10  268.73    8.85
  14  14 -10  192.73    9.20
  14  14  10  338.10   10.49
 -14 -14 -11  319.52   10.71
 -14 -14 -11  353.90   10.36
 -14 -14  11  285.32   10.38
 -14 -14  11  258.88    9.47
  14 -14 -11  275.79    8.31
  14  14 -11  253.00    9.64
  14  14  11  352.42   11.22
 -14 -14 -12  254.47   10.59
 -14 -14 -12  307.69   10.56
 -14 -14  12  259.21   10.37
 -14 -14  12  231.04    9.55
  14 -14 -12  246.49    8.40
  14  14 -12  232.27    9.56
 -14 -14 -13  156.54   10.20
 -14 -14 -13  154.02    9.46
 -14 -14  13  142.41    9.74
 -14 -14  13  131.24    9.03
  14 -14 -13  135.06    7.89
  14  14 -13  124.37    8.94
 -14 -16   0  149.42    8.35
 -14 -16   0  118.49    8.01
 -14  16   0  110.89    4.76
 -14 -16  -1  254.42    8.77
 -14 -16  -1  205.86    8.33
 -14 -16   1  246.73    8.36
 -14 -16   1  195.41    8.21
 -14  16  -1  195.28    5.17
 -14 -16  -2  124.94    8.68
 -14 -16  -2   97.36    7.46
 -14 -16   2  130.63    7.75
 -14 -16   2   88.84    7.43
 -14  16  -2   84.54    4.92
  14  16   2  121.11    8.23
 -14 -16  -3    0.01    4.44
 -14 -16  -3   -0.07    4.07
 -14 -16   3    5.60    4.34
 -14 -16   3    2.19    4.05
 -14  16  -3   -1.29    2.88
  14  16  -3    1.03    4.26
  14  16   3    0.39    4.36
 -14 -16  -4   13.09    4.84
 -14 -16   4   17.63    4.50
 -14 -16   4   16.92    4.24
 -14  16  -4   11.23    3.13
  14  16  -4   13.42    4.31
  14  16   4   15.70    4.61
 -14 -16  -5   73.60    8.66
 -14 -16  -5   88.65    8.29
 -14 -16   5   50.00    5.21
 -14  16  -5   54.72    5.33
  14  16  -5   51.43    5.32
  14  16   5   73.23    7.94
 -14 -16  -6  104.50    8.87
 -14 -16  -6  111.64    8.68
 -14 -16   6   74.54    7.81
 -14  16  -6   83.31    5.71
 -14  16  -6   95.47    5.13
  14 -16   6   90.24    6.35
  14  16  -6  103.78    8.85
  14  16   6  114.08   10.25
 -14 -16  -7   46.26    5.75
 -14 -16  -7   80.72    8.76
 -14 -16   7   36.07    5.07
 -14  16  -7   52.78    5.93
 -14  16  -7   77.20    5.56
  14 -16   7   58.28    6.43
  14  16  -7   39.46    5.23
 -14 -16  -8    4.24    5.26
 -14 -16  -8    5.05    4.76
 -14 -16   8    1.33    4.36
 -14  16  -8    7.92    3.75
 -14  16  -8    6.85    3.49
  14 -16   8   11.28    4.12
  14  16  -8   -1.64    4.73
 -14 -16  -9    4.77    4.94
 -14 -16  -9    2.52    4.67
 -14 -16   9   -4.09    4.90
 -14 -16   9    2.31    4.39
 -14  16  -9    0.77    3.95
 -14  16  -9    5.09    3.78
  14 -16   9    2.58    4.19
  14  16  -9   -3.99    4.64
 -14 -16 -10   82.04    8.91
 -14 -16 -10  107.49    8.75
 -14 -16  10   54.72    6.03
 -14 -16  10   44.01    5.14
  14 -16 -10   81.33    6.83
  14  16 -10   50.34    5.49
 -14 -16 -11  219.52   10.06
 -14 -16 -11  235.25    9.72
 -14 -16  11  181.72    9.86
 -14 -16  11  167.08    9.15
  14 -16 -11  204.49    7.67
  14  16 -11  165.54    9.34
 -14 -16 -12  170.71   10.06
 -14 -16 -12  191.35    9.56
  14 -16 -12  158.47    7.68
  14  16 -12  144.12    9.67
 -14 -18   0  285.41    9.21
 -14 -18   0  220.14    8.84
 -14 -18  -1   42.68    5.06
 -14 -18  -1   29.24    4.75
 -14 -18   1   33.85    4.76
 -14 -18   1   30.18    4.81
 -14 -18  -2   -2.49    4.48
 -14 -18  -2   -4.97    4.38
 -14 -18   2   -3.18    4.12
 -14 -18   2    0.19    4.31
 -14 -18  -3   26.29    4.86
 -14 -18  -3   14.20    4.62
 -14 -18   3   14.91    4.61
 -14 -18   3   15.99    4.52
 -14  18  -3   22.78    2.97
  14  18  -3   19.46    4.89
 -14 -18  -4  131.56    8.78
 -14 -18  -4   98.71    8.26
 -14 -18   4   93.84    8.18
 -14 -18   4   70.57    8.02
 -14  18  -4   87.48    4.96
  14  18  -4   67.19    8.03
 -14 -18  -5  253.35   10.27
 -14 -18  -5  338.89   10.10
 -14 -18   5  273.52    8.91
 -14 -18   5  195.92    8.66
 -14  18  -5  201.40    5.90
  14  18  -5  226.21    9.46
 -14 -18  -6  370.61   10.78
 -14 -18  -6  422.35   10.35
 -14 -18   6  297.20    9.52
 -14  18  -6  283.21    6.62
 -14  18  -6  340.06    5.71
  14 -18   6  362.76    7.49
  14  18  -6  320.83   10.07
 -14 -18  -7  325.50   10.86
 -14 -18  -7  380.91   10.39
 -14 -18   7  269.99    9.49
 -14  18  -7  269.65    7.02
 -14  18  -7  351.08    6.35
  14 -18   7  314.48    7.65
  14  18  -7  278.35    9.92
 -14 -18  -8  132.79    9.56
 -14 -18  -8  168.94    9.41
 -14 -18   8  127.76    8.74
 -14  18  -8  121.50    6.57
 -14  18  -8  171.04    6.21
  14 -18   8  147.39    7.03
  14  18  -8  119.08    8.93
 -14 -18  -9    0.70    5.07
 -14 -18  -9    0.58    4.61
 -14 -18   9   -2.31    4.92
 -14 -18   9   -4.31    4.38
 -14  18  -9    1.61    3.92
  14 -18   9   -0.23    3.92
  14  18  -9   -3.92    4.84
 -14 -18 -10    7.66    5.39
 -14 -18 -10    9.45    4.73
  14 -18 -10   15.41    3.92
  14  18 -10    4.21    5.04
 -14 -18 -11   20.19    5.41
 -14 -18 -11   20.01    5.19
  14 -18 -11   22.38    4.14
  14  18 -11   15.09    5.36
 -14 -20   0   -9.03    4.38
 -14 -20  -1    8.95    5.04
 -14 -20  -1    0.83    4.59
 -14 -20   1    0.34    4.57
 -14 -20   1    4.11    4.57
 -14 -20  -2   -6.98    4.43
 -14 -20   2   -8.35    4.30
  14  20  -2  -10.05    4.57
 -14 -20  -3   81.84    8.69
 -14 -20  -3   75.90    8.14
 -14 -20   3   61.04    5.30
 -14 -20   3   49.06    5.12
  14  20  -3   62.74    5.88
 -14 -20  -4  415.04   10.17
 -14 -20  -4  304.78    9.67
 -14 -20   4  347.79    9.52
 -14 -20   4  286.97    9.62
 -14  20  -4  284.16    5.53
  14  20  -4  322.85   10.47
 -14 -20  -5  476.92   11.83
 -14 -20  -5  561.30   11.05
 -14 -20  -5  408.22   10.23
 -14 -20   5  487.57   10.35
 -14 -20   5  397.82   10.08
 -14  20  -5  349.57    6.29
  14  20  -5  420.91   10.85
 -14 -20  -6  425.64   11.36
 -14 -20  -6  470.24   10.48
 -14 -20   6  426.97   10.01
 -14 -20   6  365.69   12.31
 -14  20  -6  306.16    6.61
  14 -20   6  394.87    7.36
  14  20  -6  371.54   10.63
 -14 -20  -7  299.24   10.76
 -14 -20  -7  341.24    9.85
 -14  20  -7  240.17    6.81
 -14  20  -7  291.64    5.79
  14 -20   7  275.30    7.37
  14  20  -7  281.59   10.18
 -14 -20  -8  168.27    9.80
 -14 -20  -8  204.31    9.16
 -14  20  -8  145.12    6.78
 -14  20  -8  183.07    5.97
  14 -20   8  170.77    7.13
  14  20  -8  170.63    9.44
 -14 -20  -9   78.85    9.16
 -14 -20  -9   89.99    8.57
  14  20  -9   80.80    9.15
 -14 -22   0  161.22    9.17
 -14 -22  -1    7.02    4.86
 -14 -22   1    3.17    4.66
 -14 -22  -2    9.55    5.00
 -14 -22   2    6.09    4.59
  14  22  -2    2.31    4.90
 -14 -22  -3   50.39    5.36
 -14 -22   3   44.96    5.19
  14  22  -3   36.85    5.44
 -14 -22  -4  153.06    9.02
 -14 -22   4  124.05    8.27
  14  22  -4  109.63    9.03
 -14 -22  -5  289.51   10.67
 -14 -22  -5  303.68    9.42
 -14 -22   5  270.62    9.18
 -14  22  -5  204.92    5.38
  14  22  -5  242.90   10.01
 -14 -22  -6  338.30   10.93
 -14 -22  -6  372.10    9.90
 -14 -22   6  368.61    9.71
 -14  22  -6  259.08    6.16
  14 -22   6  306.72    6.77
  14  22  -6  307.16   10.50
 -14 -22  -7  301.18   10.93
 -14 -22  -7  297.14    9.58
 -14 -22   7  280.98    9.26
 -14  22  -7  211.83    6.52
  14 -22   7  250.80    7.11
  14  22  -7  260.06   10.38
 -14 -22  -8  114.51    9.50
 -14 -22  -8  128.79    8.89
 -14 -22   8  110.21    8.11
 -14  22  -8   71.09    6.21
  14 -22   8   63.92    6.51
  14  22  -8   99.04    9.65
 -14 -24   0  357.23    9.92
 -14 -24  -1  344.96   10.00
 -14 -24   1  339.08    9.88
 -14 -24  -2   47.60    5.38
 -14 -24   2   42.98    5.09
  14  24  -2   31.29    5.44
 -14 -24  -3   18.26    4.92
 -14 -24   3   14.17    4.72
  14  24  -3    7.70    4.98
 -14 -24  -4   84.20    8.61
 -14 -24   4   91.69    8.16
  14  24  -4   83.99    9.16
 -14 -24  -5  114.42    9.67
 -14 -24  -5  117.93    8.80
 -14 -24   5  120.73    8.09
  14  24  -5  108.33    9.43
 -15  -1  -2  370.05    7.99
 -15   1  -2  385.87    7.50
 -15  -1  -3  132.64    6.89
 -15   1  -3  134.56    6.56
 -15  -1  -4   21.87    4.17
 -15  -1  -4   14.39    3.67
 -15   1  -4   21.62    4.11
 -15   1  -4   18.24    3.76
 -15  -1  -5    2.18    4.02
 -15  -1  -5    3.34    3.70
 -15   1  -5   -1.04    3.78
 -15   1  -5    2.38    3.73
 -15  -1  -6   16.78    4.30
 -15  -1  -6   13.69    4.22
 -15   1  -6   13.64    4.24
 -15   1  -6   14.35    4.03
  15   1   6   11.45    3.74
 -15  -1  -7    5.78    4.32
 -15  -1  -7   14.26    4.34
 -15   1  -7   12.03    4.36
 -15   1  -7    9.83    4.33
  15  -1   7   11.82    3.82
  15   1   7    9.53    3.93
 -15  -1  -8   -2.94    4.16
 -15  -1  -8    2.35    4.35
 -15   1  -8    2.82    4.32
 -15   1  -8    2.57    4.16
  15  -1   8   -3.75    4.28
  15  -1   8   -1.02    3.75
  15   1   8    1.17    4.09
 -15  -1  -9   73.70    8.06
 -15  -1  -9   75.52    7.84
 -15   1  -9   70.68    7.90
 -15   1  -9   80.84    7.71
  15  -1  -9   42.02    4.28
  15  -1   9   52.61    5.41
  15  -1   9   78.14    7.22
  15   1  -9   42.63    4.46
  15   1   9   45.04    5.65
  15   1   9   80.38    7.29
 -15  -1 -10  179.82    9.23
 -15  -1 -10  211.55    9.01
 -15   1 -10  174.81    9.16
 -15   1 -10  221.60    8.93
  15  -1 -10  158.97    7.20
  15  -1  10  188.53    9.31
  15  -1  10  213.61    8.32
  15   1 -10  139.87    7.89
  15   1  10  191.25    9.43
  15   1  10  243.44    8.90
 -15  -1 -11  265.65   10.28
 -15  -1 -11  299.87   10.04
 -15   1 -11  260.23   10.05
 -15   1 -11  319.82   10.24
  15  -1 -11  228.62    8.08
  15  -1  11  275.06   10.59
  15  -1  11  325.18    9.54
  15   1 -11  224.85    8.50
  15   1  11  286.36   10.51
  15   1  11  324.90    9.62
 -15  -1 -12  241.65   10.47
 -15  -1 -12  265.81   10.29
 -15   1 -12  234.23   10.23
 -15   1 -12  290.08   10.41
  15  -1 -12  212.88    8.05
  15  -1  12  261.11   10.38
  15  -1  12  337.12   14.59
  15   1 -12  208.05    8.51
  15   1  12  266.61   10.55
  15   1  12  296.96   10.08
 -15  -1 -13  172.06   10.20
 -15  -1 -13  199.88   10.42
 -15   1 -13  198.01   10.70
 -15   1 -13  219.58   10.28
  15  -1 -13  169.95    8.01
  15   1 -13  166.93    8.35
 -15  -1 -14  125.26   10.11
 -15   1 -14  113.22    9.89
  15  -1 -14   99.72    9.20
  15  -1 -14   76.03    7.56
  15   1 -14   79.07    7.86
 -15  -1 -15   10.60    5.43
 -15   1 -15   13.74    5.54
  15  -1 -15   15.11    5.46
  15  -1 -15   12.89    4.41
  15   1 -15    8.88    5.26
  15   1 -15   15.87    4.61
 -15  -3  -1  199.38    7.18
 -15  -3  -2   73.36    6.69
 -15  -3  -3    8.15    3.85
 -15  -3   3    3.10    3.33
 -15   3  -3    2.37    3.71
 -15   3  -3    2.29    3.39
 -15  -3  -4   11.70    4.18
 -15  -3  -4   14.32    3.95
 -15  -3   4    7.95    3.77
 -15   3  -4    6.29    3.68
 -15   3  -4   17.42    3.62
 -15  -3  -5   80.22    7.30
 -15  -3  -5   82.42    7.06
 -15   3  -5   70.91    6.80
 -15   3  -5   77.65    6.35
 -15  -3  -6   77.03    7.61
 -15  -3  -6   83.63    7.36
 -15   3  -6   87.20    6.98
 -15   3  -6   88.92    6.70
  15   3   6   77.63    7.07
 -15  -3  -7   31.41    4.96
 -15  -3  -7   41.68    4.97
 -15  -3   7   25.31    4.81
 -15   3  -7   33.60    4.53
 -15   3  -7   42.17    4.69
  15   3  -7   23.76    4.26
  15   3   7   37.77    4.39
 -15  -3  -8    6.67    4.46
 -15  -3  -8    3.93    4.38
 -15   3  -8    4.27    4.28
 -15   3  -8   11.61    4.09
  15  -3   8   13.50    4.68
  15  -3   8    8.72    3.71
  15   3  -8   -7.18    3.90
  15   3   8   12.12    4.22
 -15  -3  -9    3.24    4.54
 -15  -3  -9    2.00    4.49
 -15   3  -9    3.72    4.43
 -15   3  -9    5.23    4.25
  15  -3   9    6.62    4.62
  15  -3   9    6.22    3.90
  15   3  -9   -8.96    4.06
  15   3   9   -3.30    4.85
  15   3   9    6.78    4.48
 -15  -3 -10  113.48    8.75
 -15  -3 -10  124.23    8.76
 -15   3 -10   92.72    8.43
 -15   3 -10  139.76    8.58
  15  -3 -10   89.33    6.66
  15  -3  10  126.06    8.87
  15  -3  10  121.00    7.53
  15   3 -10   71.98    7.91
  15   3  10   97.35    8.98
  15   3  10  132.50    8.43
 -15  -3 -11  230.07    9.94
 -15  -3 -11  252.16    9.87
 -15   3 -11  203.44    9.66
 -15   3 -11  265.46    9.44
  15  -3 -11  190.74    7.42
  15  -3  11  239.86    9.89
  15  -3  11  262.06    8.77
  15   3 -11  187.85    8.74
  15   3  11  219.05    9.99
  15   3  11  284.43    9.61
 -15  -3 -12  163.33    9.86
 -15  -3 -12  217.57   10.39
 -15   3 -12  163.17    9.95
 -15   3 -12  197.63    9.67
  15  -3 -12  165.87    7.42
  15   3 -12  149.57    8.47
  15   3  12  186.52   10.08
  15   3  12  215.59    9.43
 -15  -3 -13   47.91    6.02
 -15  -3 -13   44.38    5.76
 -15   3 -13   77.05    9.48
  15  -3 -13   37.93    5.39
  15  -3 -13   42.79    4.55
  15   3 -13   42.93    4.90
  15   3  13   48.92    7.13
 -15  -3 -14    2.51    5.57
 -15  -3 -14   -7.59    4.89
 -15   3 -14   -4.11    4.88
  15  -3 -14    0.34    4.87
  15  -3 -14   -0.04    4.05
  15   3 -14   -0.74    4.28
 -15  -5   0  100.27    6.47
 -15  -5  -1   29.42    4.02
 -15  -5  -2    5.27    3.91
 -15  -5   2   -1.83    3.62
 -15  -5  -3  187.49    7.37
 -15  -5   3  137.02    7.03
 -15   5  -3  164.11    6.92
 -15  -5  -4  313.02    9.09
 -15  -5  -4  349.20    8.58
 -15  -5   4  249.61    7.70
 -15   5  -4  306.46    7.97
 -15   5  -4  300.73    7.25
 -15  -5  -5  290.30    8.98
 -15  -5  -5  343.89    8.76
 -15  -5   5  244.50    7.86
 -15   5  -5  305.23    8.01
 -15   5  -5  310.58    7.33
  15   5   5  318.87    8.60
 -15  -5  -6  292.99    9.49
 -15  -5  -6  342.33    9.09
 -15  -5   6  252.05    8.24
 -15   5  -6  293.24    8.22
 -15   5  -6  342.88    7.98
  15   5   6  316.94    8.51
 -15  -5  -7  197.31    8.76
 -15  -5  -7  268.81    9.11
 -15   5  -7  217.78    7.91
 -15   5  -7  267.81    7.94
  15   5  -7  188.95    7.58
  15   5   7  249.50    8.66
 -15  -5  -8   63.96    7.95
 -15  -5  -8   71.36    8.29
 -15  -5   8   41.83    5.00
 -15   5  -8   63.01    7.43
 -15   5  -8   75.40    7.22
  15  -5   8   72.88    7.45
  15   5  -8   45.28    4.64
  15   5   8   68.65    7.40
 -15  -5  -9    5.90    4.62
 -15  -5  -9    5.28    4.57
 -15   5  -9    5.39    4.35
 -15   5  -9    4.84    4.23
  15  -5   9    8.20    4.46
  15  -5   9    2.92    3.63
  15   5  -9   -4.17    4.08
  15   5   9   -1.45    4.73
  15   5   9    3.17    4.66
 -15  -5 -10   92.31    8.73
 -15  -5 -10   98.33    8.66
 -15   5 -10   97.18    8.55
 -15   5 -10  113.23    8.35
  15  -5  10  100.46    8.62
  15  -5  10  113.98    7.22
  15   5 -10   82.31    8.12
  15   5  10   96.81    9.11
  15   5  10  125.14    8.37
 -15  -5 -11   96.07    9.03
 -15  -5 -11  119.14    9.00
 -15   5 -11   93.68    8.92
 -15   5 -11  119.05    8.42
  15  -5 -11   92.09    6.51
  15  -5  11  101.83    8.95
  15  -5  11  106.38    7.37
  15   5 -11   79.70    8.34
  15   5  11  105.43    9.17
  15   5  11  130.67    8.94
 -15  -5 -12    6.34    5.25
 -15  -5 -12    1.48    4.83
 -15   5 -12    3.47    5.08
 -15   5 -12    0.76    4.79
  15  -5 -12    0.41    3.66
  15   5 -12   -1.01    4.27
  15   5  12    7.45    5.15
  15   5  12   -2.62    4.80
 -15  -5 -13   10.04    5.57
 -15  -5 -13    8.81    5.04
 -15   5 -13    4.08    5.07
  15  -5 -13   10.83    4.82
  15  -5 -13   10.37    3.96
  15   5 -13   11.45    4.71
  15   5  13    9.25    5.63
  15   5  13   14.99    6.76
 -15  -5 -14   21.39    5.80
 -15  -5 -14   26.15    5.64
  15  -5 -14   19.84    5.09
  15  -5 -14   18.61    4.21
  15   5 -14   14.55    4.73
 -15  -7   0  159.36    7.37
 -15  -7  -1   39.95    4.38
 -15  -7   1   28.33    4.14
 -15  -7  -2   66.70    6.91
 -15  -7   2   36.81    4.29
 -15  -7  -3  399.12    9.00
 -15  -7   3  275.85    8.09
 -15   7  -3  315.14    7.52
 -15  -7  -4  530.91   10.68
 -15  -7  -4  617.42   10.26
 -15  -7   4  445.12    9.09
 -15   7  -4  508.98    8.68
 -15   7  -4  503.12    7.99
  15   7   4  541.21    9.68
 -15  -7  -5  598.88   11.02
 -15  -7  -5  720.02   10.94
 -15  -7   5  532.34    9.54
 -15   7  -5  592.03    9.34
 -15   7  -5  641.76    8.68
  15   7   5  669.13   10.38
 -15  -7  -6  467.61   10.57
 -15  -7  -6  518.39   10.28
 -15  -7   6  379.41    8.88
 -15   7  -6  416.02    8.80
 -15   7  -6  506.46    8.50
  15   7  -6  397.69    9.05
  15   7   6  500.85    9.83
 -15  -7  -7  186.14    9.01
 -15  -7  -7  232.39    8.92
 -15  -7   7  157.17    7.74
 -15   7  -7  179.95    7.83
 -15   7  -7  218.18    7.58
  15  -7   7  216.24    8.03
  15   7  -7  181.90    7.77
  15   7   7  208.68    8.48
 -15  -7  -8   32.50    5.31
 -15  -7  -8   48.50    5.17
 -15  -7   8   27.29    4.87
 -15  -7   8   30.63    4.77
 -15   7  -8   37.59    4.90
 -15   7  -8   45.99    4.59
  15  -7   8   43.31    4.80
  15   7  -8   30.82    4.76
  15   7   8   46.09    5.09
 -15  -7  -9    4.14    4.81
 -15  -7  -9    2.21    4.58
 -15  -7   9   -2.04    4.27
 -15   7  -9    1.92    4.40
 -15   7  -9    2.95    4.31
  15  -7   9    1.60    4.46
  15   7  -9    0.12    4.31
  15   7   9    3.41    4.51
 -15  -7 -10   -0.74    4.89
 -15  -7 -10    1.38    4.67
 -15  -7  10   -0.82    4.63
 -15   7 -10    0.76    4.62
 -15   7 -10   -2.59    4.47
  15  -7  10    6.75    4.95
  15  -7  10    0.40    3.61
  15   7 -10   -2.36    4.52
  15   7  10   -6.31    4.87
  15   7  10   -2.66    4.66
 -15  -7 -11   -2.51    5.09
 -15  -7 -11    5.48    4.73
 -15   7 -11   -0.79    4.79
 -15   7 -11   -2.16    4.53
  15  -7  11    1.97    5.73
  15  -7  11    0.27    3.77
  15   7 -11    2.98    4.47
  15   7  11   -0.10    4.89
  15   7  11    4.34    5.00
 -15  -7 -12    0.76    5.11
 -15  -7 -12    1.22    4.87
 -15   7 -12   -3.81    4.72
  15  -7 -12   -0.11    4.40
  15  -7 -12    1.80    3.40
  15   7 -12   -2.22    4.43
  15   7  12    1.24    5.20
  15   7  12    7.51    5.11
 -15  -7 -13   -5.93    5.36
 -15  -7 -13   -3.15    4.92
  15  -7 -13   -5.57    4.46
  15  -7 -13   -2.35    3.45
  15   7 -13   -6.15    4.38
  15   7  13    3.57    5.35
  15   7  13   -3.09    4.96
 -15  -7 -14    3.59    5.91
 -15  -7 -14    5.68    5.24
  15  -7 -14    8.92    4.77
  15  -7 -14    8.88    3.92
  15   7 -14    4.11    4.67
 -15  -9   0   85.40    7.23
 -15  -9   0   55.40    4.73
 -15  -9  -1   37.39    4.37
 -15  -9   1   43.08    4.69
 -15  -9   1   29.60    4.35
 -15  -9  -2   10.01    4.04
 -15  -9   2   -5.63    3.85
 -15   9  -2    8.25    3.50
 -15  -9  -3   43.02    4.66
 -15  -9   3   16.96    4.20
 -15   9  -3   32.21    3.94
 -15  -9  -4  257.82    8.60
 -15  -9   4  173.75    7.70
 -15   9  -4  199.36    6.83
  15   9   4  191.27    8.20
 -15  -9  -5  268.16    9.54
 -15  -9  -5  301.23    9.11
 -15  -9   5  221.17    8.10
 -15   9  -5  249.15    7.42
 -15   9  -5  268.06    6.86
  15   9  -5  242.55    8.41
  15   9   5  293.29    8.99
 -15  -9  -6  217.91    9.19
 -15  -9  -6  244.19    8.95
 -15  -9   6  164.82    7.81
 -15   9  -6  183.35    7.30
 -15   9  -6  214.03    6.93
  15   9  -6  193.77    8.41
  15   9   6  228.95    8.70
 -15  -9  -7  113.06    8.67
 -15  -9  -7  141.43    8.46
 -15  -9   7   94.67    7.46
 -15   9  -7  102.23    7.21
 -15   9  -7  127.29    6.83
  15  -9   7  124.14    7.49
  15   9  -7  114.69    7.86
  15   9   7  131.26    8.34
 -15  -9  -8   40.47    5.52
 -15  -9  -8   41.56    5.06
 -15  -9   8   30.01    4.99
 -15  -9   8   29.27    4.54
 -15   9  -8   39.49    4.75
 -15   9  -8   64.61    7.00
  15  -9   8   37.36    4.74
  15   9  -8   31.16    4.96
  15   9   8   52.60    5.40
 -15  -9  -9   14.89    5.09
 -15  -9  -9   16.32    4.95
 -15  -9   9    8.34    4.55
 -15  -9   9   11.69    4.44
 -15   9  -9   10.44    4.53
 -15   9  -9   19.62    4.45
  15  -9   9   15.34    4.72
  15   9  -9   10.53    4.59
  15   9   9   18.30    5.06
 -15  -9 -10   -3.71    4.97
 -15  -9 -10    0.08    4.64
 -15  -9  10   -0.17    4.56
 -15  -9  10    0.20    5.58
 -15   9 -10    5.63    4.58
 -15   9 -10    4.91    4.46
  15  -9  10   -3.04    4.62
  15   9 -10   -6.22    4.39
  15   9  10    7.31    5.09
  15   9  10    1.74    4.77
 -15  -9 -11    2.83    5.20
 -15  -9 -11    8.10    4.88
 -15  -9  11    2.87    4.67
 -15   9 -11    3.29    5.33
 -15   9 -11    4.94    4.66
  15  -9  11   -3.49    3.45
  15   9 -11    5.11    4.62
  15   9  11   11.31    5.24
  15   9  11    3.23    4.78
 -15  -9 -12    4.81    5.17
 -15  -9 -12    2.32    4.82
  15  -9 -12    6.03    4.49
  15   9 -12    5.94    4.51
  15   9  12   10.77    5.37
  15   9  12   10.10    5.37
 -15  -9 -13   -1.27    5.38
 -15  -9 -13    2.56    4.86
  15  -9 -13   -0.12    4.50
  15  -9 -13    0.21    3.35
  15   9 -13   -2.65    4.66
  15   9  13    5.80    5.30
  15   9  13   -5.44    5.35
 -15 -11   0  139.68    7.77
 -15 -11   0  132.31    7.59
 -15 -11  -1  141.65    7.70
 -15 -11  -1  123.53    7.38
 -15 -11   1  143.23    7.79
 -15 -11   1  124.75    7.63
 -15 -11  -2   49.33    5.17
 -15 -11   2   43.56    4.86
 -15 -11   2   36.78    4.58
 -15  11  -2   45.94    5.35
 -15 -11  -3    5.86    4.32
 -15 -11   3    6.82    4.18
 -15  11  -3    6.44    3.34
  15  11   3    7.12    4.19
 -15 -11  -4   -0.72    4.28
 -15 -11   4   -0.06    3.99
 -15  11  -4    0.40    3.39
  15  11   4   -2.98    4.21
 -15 -11  -5   14.75    4.93
 -15 -11  -5   11.94    4.63
 -15 -11   5    0.04    4.03
 -15  11  -5    7.32    3.62
 -15  11  -5   10.22    3.33
  15  11  -5    2.34    4.14
  15  11   5    9.92    4.33
 -15 -11  -6   24.66    5.24
 -15 -11  -6   19.23    4.69
 -15 -11   6    7.59    4.23
 -15  11  -6   13.59    3.96
 -15  11  -6   19.34    3.55
  15  11  -6   15.05    4.35
  15  11   6   23.53    4.65
 -15 -11  -7   17.22    5.18
 -15 -11  -7   18.82    4.82
 -15 -11   7   13.03    4.44
 -15  11  -7   11.06    4.03
 -15  11  -7   19.38    3.77
  15 -11   7   16.36    4.20
  15  11  -7   16.46    4.72
  15  11   7   14.87    4.81
 -15 -11  -8    5.30    4.79
 -15 -11  -8    6.50    4.83
 -15 -11   8   -1.88    4.57
 -15 -11   8    1.69    4.22
 -15  11  -8   -1.00    4.06
 -15  11  -8    8.28    3.92
  15 -11   8    1.11    4.17
  15  11  -8   -1.68    4.46
  15  11   8    4.28    4.79
 -15 -11  -9   14.26    5.36
 -15 -11  -9   18.06    4.94
 -15 -11   9    4.62    4.86
 -15 -11   9    6.49    4.37
 -15  11  -9   10.22    4.52
 -15  11  -9   14.14    4.21
  15 -11   9    8.64    4.54
  15  11  -9    8.74    4.67
  15  11   9    5.98    4.77
 -15 -11 -10   99.41    9.17
 -15 -11 -10  116.57    9.12
 -15 -11  10   96.22    8.61
 -15 -11  10   90.12    8.21
 -15  11 -10   89.72    7.98
 -15  11 -10  128.88    7.88
  15 -11  10  102.33    8.20
  15  11 -10   95.41    8.57
  15  11  10  142.31    9.20
 -15 -11 -11  116.98    9.58
 -15 -11 -11  148.61    9.83
 -15 -11  11  113.86    8.85
 -15 -11  11  111.45    8.39
  15  11 -11  106.92    8.65
  15  11  11  160.25   10.01
  15  11  11  152.62    9.62
 -15 -11 -12   37.22    5.95
 -15 -11 -12   49.22    5.60
 -15 -11  12   40.22    5.61
 -15 -11  12   55.75    8.04
  15 -11 -12   48.45    5.07
  15  11 -12   39.33    5.26
  15  11  12   89.26    9.71
  15  11  12   64.68    6.25
 -15 -11 -13   10.58    5.58
 -15 -11 -13   11.54    5.06
  15 -11 -13   14.99    4.68
  15  11 -13   11.81    4.91
  15  11  13   26.68    5.94
  15  11  13   13.59    5.67
 -15 -13   0  397.56    9.27
 -15 -13   0  334.87    8.96
 -15 -13  -1  196.77    8.46
 -15 -13  -1  169.56    8.10
 -15 -13   1  191.81    8.23
 -15 -13   1  158.34    7.82
 -15  13  -1  165.89    5.95
 -15 -13  -2   50.68    5.06
 -15 -13  -2   44.41    4.70
 -15 -13   2   53.26    5.18
 -15 -13   2   45.64    4.81
 -15  13  -2   48.18    5.34
 -15 -13  -3   19.18    4.76
 -15 -13   3    7.67    4.44
 -15 -13   3   16.05    4.29
 -15  13  -3   17.64    3.45
  15  13   3   21.28    4.55
 -15 -13  -4   10.23    4.56
 -15 -13   4    7.01    4.24
 -15  13  -4   10.77    3.43
  15  13  -4    4.62    4.40
  15  13   4    6.90    4.46
 -15 -13  -5   14.81    4.96
 -15 -13  -5    8.13    4.68
 -15 -13   5    9.79    4.22
 -15  13  -5   10.36    3.64
 -15  13  -5   13.12    3.08
  15  13  -5    7.90    4.37
  15  13   5   12.32    4.60
 -15 -13  -6   11.11    5.05
 -15 -13  -6    7.44    4.76
 -15 -13   6    4.52    4.29
 -15  13  -6   10.81    3.77
 -15  13  -6    9.62    3.27
  15  13  -6    2.30    4.52
  15  13   6   11.61    4.72
 -15 -13  -7    0.94    5.05
 -15 -13  -7    2.12    4.76
 -15 -13   7   -2.80    4.26
 -15  13  -7    3.76    3.96
 -15  13  -7    5.27    3.64
  15 -13   7    2.77    3.94
  15  13  -7    4.67    4.67
  15  13   7   -0.46    4.53
 -15 -13  -8   22.28    5.66
 -15 -13  -8   25.47    5.03
 -15 -13   8    7.02    4.37
 -15  13  -8    9.43    4.17
 -15  13  -8   21.43    3.99
  15 -13   8   12.87    4.28
  15  13  -8    5.79    4.77
  15  13   8   20.34    5.00
 -15 -13  -9  126.33    9.37
 -15 -13  -9  132.49    9.21
 -15 -13   9   79.22    8.59
 -15 -13   9   83.48    8.24
 -15  13  -9   96.94    7.41
 -15  13  -9  138.14    7.39
  15 -13   9  124.73    7.82
  15  13  -9   88.76    8.66
  15  13   9  144.35    9.18
 -15 -13 -10  223.01   10.07
 -15 -13 -10  252.14   10.00
 -15 -13  10  208.75    9.79
 -15 -13  10  180.68    9.01
  15  13 -10  176.77    9.19
  15  13  10  290.36   10.16
 -15 -13 -11  214.31   10.34
 -15 -13 -11  245.92   10.10
 -15 -13  11  191.60    9.10
  15 -13 -11  189.56    8.09
  15  13 -11  192.36    9.35
  15  13  11  275.30   10.56
 -15 -13 -12  135.94    9.96
 -15 -13 -12  175.71   10.11
 -15 -13  12  132.76    9.40
 -15 -13  12  123.38    8.84
  15 -13 -12  141.36    7.96
  15  13 -12  127.47    9.02
  15  13  12  194.17   10.80
  15  13  12  180.51   10.60
 -15 -15   0  122.25    8.01
 -15 -15   0  111.47    7.80
 -15 -15  -1  179.46    8.77
 -15 -15  -1  127.44    8.00
 -15 -15   1  162.80    8.16
 -15 -15   1  128.28    7.96
 -15  15  -1  128.84    5.39
 -15 -15  -2   83.34    8.12
 -15 -15  -2   71.57    7.61
 -15 -15   2   83.33    7.87
 -15 -15   2   65.85    7.45
 -15  15  -2   62.17    5.19
 -15 -15  -3   17.59    4.89
 -15 -15  -3   16.62    4.43
 -15 -15   3   16.90    4.51
 -15 -15   3   13.40    4.46
 -15  15  -3    9.03    3.31
  15  15   3   18.80    4.53
 -15 -15  -4   -2.23    4.73
 -15 -15   4    4.37    4.22
 -15 -15   4    3.43    4.44
 -15  15  -4    1.91    3.35
  15  15  -4    0.19    4.42
  15  15   4    3.29    4.43
 -15 -15  -5    4.44    4.93
 -15 -15  -5   -1.41    4.66
 -15 -15   5   -0.61    4.19
 -15  15  -5    1.66    3.38
  15  15  -5  -10.21    4.31
  15  15   5    0.85    4.50
 -15 -15  -6   -2.96    4.93
 -15 -15  -6    0.71    4.80
 -15 -15   6   -0.82    4.25
 -15  15  -6   -3.54    3.53
 -15  15  -6    0.22    3.07
  15  15  -6   -8.89    4.39
  15  15   6    2.39    4.48
 -15 -15  -7    2.08    5.15
 -15 -15  -7    2.64    4.91
 -15 -15   7   -5.75    4.33
 -15  15  -7    2.15    3.78
 -15  15  -7   -5.31    3.30
  15 -15   7    1.38    3.81
  15  15  -7   -7.51    4.60
  15  15   7   -4.76    4.56
 -15 -15  -8   21.31    5.54
 -15 -15  -8   16.77    4.97
 -15 -15   8    4.01    4.59
 -15  15  -8    5.00    3.88
 -15  15  -8    8.57    3.69
  15 -15   8   13.21    4.19
  15  15  -8    0.68    4.80
  15  15   8   13.54    4.93
 -15 -15  -9   77.74    9.03
 -15 -15  -9   78.90    8.76
 -15 -15   9   40.33    5.80
 -15 -15   9   36.02    5.00
 -15  15  -9   31.27    4.58
  15 -15   9   62.53    7.28
  15  15  -9   37.05    5.47
 -15 -15 -10  151.55    9.71
 -15 -15 -10  161.83    9.42
 -15 -15  10  106.56    9.34
 -15 -15  10  109.10    8.63
  15  15 -10  104.85    8.90
 -15 -15 -11  196.79   10.15
 -15 -15 -11  218.16   10.21
 -15 -15  11  179.60    9.99
 -15 -15  11  146.33    9.34
  15 -15 -11  171.84    7.77
  15  15 -11  155.04    9.41
 -15 -17   0  123.82    8.42
 -15 -17   0   97.65    8.38
 -15  17   0  112.92    4.91
 -15 -17  -1   29.29    5.08
 -15 -17  -1   17.15    4.88
 -15 -17   1   26.32    4.97
 -15 -17   1   18.56    4.60
 -15  17  -1   19.43    3.06
 -15 -17  -2    1.42    4.85
 -15 -17  -2   10.70    4.68
 -15 -17   2   -3.65    4.34
 -15 -17   2   -2.74    4.38
 -15  17  -2   -0.32    2.93
 -15 -17  -3   -4.78    4.71
 -15 -17  -3    3.91    4.60
 -15 -17   3    0.08    4.51
 -15 -17   3   -7.85    4.22
 -15  17  -3    3.67    3.07
 -15 -17  -4   53.56    5.62
 -15 -17  -4   38.64    5.20
 -15 -17   4   37.14    5.04
 -15 -17   4   22.01    4.75
 -15  17  -4   33.44    3.54
  15  17  -4   26.19    4.89
 -15 -17  -5   99.72    9.24
 -15 -17  -5  119.87    8.75
 -15 -17   5  105.47    8.01
 -15 -17   5   73.41    8.02
 -15  17  -5   82.65    5.65
  15  17  -5   70.21    8.25
 -15 -17  -6   87.74    8.83
 -15 -17  -6  112.03    8.92
 -15 -17   6   51.54    5.23
 -15  17  -6   68.07    5.80
 -15  17  -6   74.87    5.16
  15  17  -6   58.30    5.74
 -15 -17  -7   51.41    6.12
 -15 -17  -7   48.17    5.47
 -15 -17   7   29.95    4.95
 -15  17  -7   32.60    3.90
 -15  17  -7   65.01    5.57
  15 -17   7   37.95    4.39
  15  17  -7   29.44    5.16
 -15 -17  -8    6.75    5.37
 -15 -17  -8    9.70    4.77
 -15 -17   8   -0.33    4.61
 -15  17  -8    7.35    3.86
 -15  17  -8    9.55    3.57
  15 -17   8    9.86    4.14
  15  17  -8    7.87    5.08
 -15 -17  -9    2.75    5.19
 -15 -17  -9    1.47    4.81
 -15 -17   9   -6.57    5.03
 -15 -17   9   -3.35    4.46
  15  17  -9   -4.11    4.88
 -15 -17 -10   18.41    5.42
 -15 -17 -10   26.89    5.23
 -15 -17  10   12.57    8.75
  15  17 -10   11.77    5.05
 -15 -19   0    5.51    4.67
 -15 -19   0    2.97    4.55
 -15 -19  -1   -5.61    4.49
 -15 -19   1  -10.01    4.32
 -15 -19  -2  -12.42    4.52
 -15 -19  -2    0.01    4.66
 -15 -19   2   -5.43    4.53
 -15 -19   2   -5.10    4.51
 -15 -19  -3   43.01    5.34
 -15 -19  -3   39.93    5.26
 -15 -19   3   36.44    5.09
 -15 -19   3   28.77    4.90
 -15  19  -3   58.33    4.66
  15  19  -3   31.21    5.31
 -15 -19  -4  206.91    9.10
 -15 -19  -4  148.46    8.56
 -15 -19   4  183.86    8.74
 -15 -19   4  116.54    8.27
 -15  19  -4  143.63    5.33
  15  19  -4  126.98    8.79
 -15 -19  -5  211.28   10.20
 -15 -19  -5  302.01   10.21
 -15 -19  -5  207.75    8.93
 -15 -19   5  246.05    9.02
 -15 -19   5  181.17    8.89
 -15  19  -5  182.41    5.87
  15  19  -5  202.80    9.51
 -15 -19  -6  250.98   10.35
 -15 -19  -6  308.45   10.22
 -15 -19   6  267.85    9.15
 -15 -19   6  189.25    8.81
 -15  19  -6  201.12    6.38
 -15  19  -6  236.18    5.48
  15  19  -6  222.10    9.81
 -15 -19  -7  214.53   10.23
 -15 -19  -7  227.10    9.52
 -15  19  -7  171.09    6.63
 -15  19  -7  204.79    5.80
  15 -19   7  193.15    7.07
  15  19  -7  161.59    9.47
 -15 -19  -8  118.14    9.74
 -15 -19  -8  128.98    9.27
 -15  19  -8   86.51    6.39
  15 -19   8  112.93    7.19
  15  19  -8   92.12    9.20
 -15 -19  -9   35.48    5.75
 -15 -19  -9   31.98    5.23
  15  19  -9   29.64    5.53
 -15 -21   0   -1.73    4.60
 -15 -21  -1    1.13    4.85
 -15 -21   1    1.47    4.62
 -15 -21  -2   90.53    8.89
 -15 -21   2   87.04    8.40
 -15 -21  -3   86.28    8.61
 -15 -21   3   72.22    8.25
  15  21  -3   59.61    5.81
 -15 -21  -4  101.40    9.00
 -15 -21   4   67.45    8.10
 -15  21  -4   58.18    4.60
  15  21  -4   48.20    5.56
 -15 -21  -5  105.08    9.62
 -15 -21  -5  160.57    9.40
 -15 -21   5  138.00    8.70
 -15  21  -5  107.59    5.32
  15  21  -5  112.11    9.25
 -15 -21  -6  201.96   10.24
 -15 -21  -6  267.94   10.03
 -15 -21   6  236.89    9.30
 -15  21  -6  171.75    6.09
  15  21  -6  206.47    9.94
 -15 -21  -7  299.19   11.06
 -15 -21  -7  320.06   10.40
 -15 -21   7  299.29    9.59
 -15  21  -7  214.83    6.83
 -15  21  -7  257.67    5.88
  15 -21   7  245.69    7.25
  15  21  -7  251.22   10.38
 -15 -23   0   30.63    5.27
 -15 -23  -1   45.78    5.53
 -15 -23   1   49.31    5.47
 -15 -23  -2   -4.39    4.71
 -15 -23   2   -9.62    4.42
 -15 -23  -3   76.64    8.85
 -15 -23   3   81.00    8.43
  15  23  -3   44.91    5.79
 -15 -23  -4  174.01    9.15
 -15 -23   4  167.75    8.74
  15  23  -4  115.51    9.10
 -16   0  -2  265.70    7.80
 -16   0  -3   82.86    6.94
 -16   0  -4   63.48    7.08
 -16   0  -4   58.01    6.53
 -16   0  -5   62.44    7.38
 -16   0  -5   63.78    7.17
 -16   0  -6   13.00    4.67
 -16   0  -6   10.67    4.42
 -16   0  -7   -1.76    4.54
 -16   0  -7    1.12    4.48
  16   0   7   -0.55    3.88
 -16   0  -8   21.03    4.80
 -16   0  -8   31.74    4.96
  16   0   8   22.59    4.37
 -16   0  -9  101.90    8.64
 -16   0  -9  126.86    8.40
  16   0  -9   81.26    7.17
  16   0   9   83.68    8.83
  16   0   9  112.66    8.11
 -16   0 -10  135.40    9.12
 -16   0 -10  169.02    9.51
  16   0 -10  116.20    7.61
  16   0  10  150.48    9.48
  16   0  10  169.62    8.55
 -16   0 -11  103.86    9.27
 -16   0 -11  121.92    9.01
  16   0 -11   91.16    7.72
  16   0  11  113.37    9.38
 -16   0 -12   48.64    6.11
 -16   0 -12   74.29    9.03
  16   0 -12   69.69    7.45
 -16   0 -13   92.55    9.64
  16   0 -13   67.05    7.66
 -16   0 -14  113.70   10.14
  16   0 -14   75.57    7.87
 -16  -2  -1  163.03    6.94
 -16  -2  -2   77.65    6.82
 -16  -2  -3   63.08    6.99
 -16   2  -3   62.97    6.73
 -16   2  -3   66.76    6.57
 -16  -2  -4   26.40    4.82
 -16  -2  -4   19.40    4.02
 -16   2  -4   18.04    4.22
 -16   2  -4   25.29    4.04
 -16  -2  -5   -1.48    4.20
 -16  -2  -5   -3.62    3.82
 -16   2  -5   -6.41    3.95
 -16   2  -5    0.16    3.73
 -16  -2  -6    4.76    4.53
 -16  -2  -6   -0.77    4.04
 -16   2  -6    3.07    4.28
 -16   2  -6    5.81    4.01
 -16  -2  -7   18.28    4.79
 -16  -2  -7   17.00    4.62
 -16   2  -7   12.73    4.41
 -16   2  -7   18.89    4.48
  16   2   7   14.65    4.12
 -16  -2  -8   14.86    4.93
 -16  -2  -8   21.16    4.75
 -16   2  -8   10.47    4.88
 -16   2  -8   17.13    4.60
  16  -2   8   11.87    4.00
  16   2   8   19.83    4.43
 -16  -2  -9   18.65    5.00
 -16  -2  -9   21.75    4.88
 -16   2  -9   10.38    4.94
 -16   2  -9   26.64    4.78
  16  -2   9   10.38    5.18
  16  -2   9   14.49    4.30
  16   2  -9    7.86    4.31
  16   2   9   24.17    4.69
 -16  -2 -10   47.64    5.84
 -16  -2 -10   51.45    5.52
 -16   2 -10   43.74    5.73
 -16   2 -10   54.51    5.40
  16  -2 -10   36.37    4.29
  16  -2  10   44.03    5.56
  16  -2  10   46.10    4.92
  16   2 -10   38.49    4.85
  16   2  10   38.78    5.79
  16   2  10   51.45    5.22
 -16  -2 -11   79.35    9.13
 -16  -2 -11   89.60    9.38
 -16   2 -11   55.56    6.12
 -16   2 -11   95.44    9.07
  16  -2 -11   70.96    7.00
  16   2 -11   70.60    7.86
  16   2  11   74.67    9.15
  16   2  11  107.24    8.68
 -16  -2 -12   95.78    9.56
 -16  -2 -12  110.12    9.42
 -16   2 -12  116.21    9.53
  16  -2 -12   89.26    7.33
  16   2 -12   90.60    8.01
 -16  -2 -13   64.33    6.34
 -16   2 -13   91.39    9.57
  16  -2 -13   70.07    7.23
  16   2 -13   47.96    5.03
 -16  -2 -14    3.23    5.42
  16  -2 -14   -2.17    4.21
  16   2 -14    0.13    4.41
 -16  -4  -1    3.70    3.76
 -16  -4  -2   -0.57    3.85
 -16  -4  -3   24.24    4.11
 -16   4  -3   18.54    4.17
 -16   4  -3   25.27    3.78
 -16  -4  -4   23.89    4.66
 -16  -4  -4   37.89    4.69
 -16   4  -4   29.66    4.32
 -16   4  -4   36.37    4.09
 -16  -4  -5    7.91    4.39
 -16  -4  -5   13.39    4.23
 -16   4  -5   10.50    4.15
 -16   4  -5    7.87    3.66
 -16  -4  -6   10.71    4.94
 -16  -4  -6    9.86    4.50
 -16   4  -6   13.90    4.36
 -16   4  -6   15.85    4.19
  16   4   6   10.21    4.22
 -16  -4  -7   27.42    5.09
 -16  -4  -7   25.55    4.94
 -16   4  -7   25.75    4.86
 -16   4  -7   33.61    4.51
  16   4   7   21.20    4.45
 -16  -4  -8   -0.23    4.86
 -16  -4  -8    2.65    4.69
 -16   4  -8    7.21    4.56
 -16   4  -8    8.09    4.56
  16  -4   8    0.87    4.50
  16   4  -8   -5.37    4.10
  16   4   8    8.69    4.40
 -16  -4  -9   14.16    4.95
 -16  -4  -9   11.65    4.90
 -16   4  -9   21.03    5.15
 -16   4  -9   13.56    4.81
  16  -4   9    9.30    4.96
  16  -4   9    5.94    3.99
  16   4  -9   -6.14    4.10
  16   4   9   15.51    4.84
 -16  -4 -10   93.66    9.02
 -16  -4 -10   83.03    8.89
 -16   4 -10   80.80    8.61
 -16   4 -10  101.31    8.37
  16  -4  10   92.80    8.82
  16  -4  10   98.44    7.54
  16   4 -10   50.24    5.17
  16   4  10   57.89    6.00
  16   4  10  107.25    8.68
 -16  -4 -11   77.04    9.05
 -16  -4 -11   53.80    5.85
 -16   4 -11   38.56    5.72
 -16   4 -11   56.95    5.57
  16  -4 -11   63.54    6.46
  16   4 -11   44.17    4.99
  16   4  11   52.24    6.08
  16   4  11   84.20    8.51
 -16  -4 -12   -0.44    5.20
 -16  -4 -12   -2.65    5.06
 -16   4 -12   -1.94    4.86
  16  -4 -12   -0.50    3.67
  16   4 -12   -6.23    4.36
  16   4  12   -5.38    7.31
 -16  -4 -13   15.53    5.72
 -16  -4 -13   11.98    5.46
  16  -4 -13    8.33    4.01
  16   4 -13   12.59    4.68
 -16  -4 -14    9.94    5.55
  16  -4 -14   -0.39    4.92
  16  -4 -14    6.19    4.21
  16   4 -14   13.45    4.80
 -16  -6   0    0.56    3.96
 -16  -6  -1    2.97    4.06
 -16  -6   1    4.66    3.99
 -16  -6  -2  179.94    7.78
 -16  -6   2  140.99    7.27
 -16  -6  -3  255.21    8.29
 -16  -6   3  204.96    8.16
 -16   6  -3  232.23    7.60
 -16  -6  -4  166.08    8.65
 -16  -6  -4  225.54    8.60
 -16  -6   4  198.77    9.70
 -16   6  -4  174.58    7.58
 -16   6  -4  190.64    6.98
 -16  -6  -5  179.70    8.74
 -16  -6  -5  213.86    8.53
 -16   6  -5  177.66    7.59
 -16   6  -5  187.33    7.11
  16   6   5  181.55    8.03
 -16  -6  -6  136.92    8.68
 -16  -6  -6  155.58    8.49
 -16   6  -6  147.87    7.65
 -16   6  -6  165.13    7.28
  16   6   6  148.99    7.99
 -16  -6  -7   53.16    5.84
 -16  -6  -7   55.30    5.55
 -16   6  -7   62.83    7.38
 -16   6  -7   75.63    7.28
  16   6  -7   37.50    4.75
  16   6   7   68.66    7.82
 -16  -6  -8   -0.60    4.76
 -16  -6  -8    9.50    4.76
 -16   6  -8    4.65    4.52
 -16   6  -8   11.36    4.36
  16  -6   8   11.95    4.75
  16   6  -8   -0.27    4.22
  16   6   8   13.83    4.63
 -16  -6  -9   -1.54    4.97
 -16  -6  -9    0.66    4.88
 -16   6  -9    5.98    4.68
 -16   6  -9    2.06    4.50
  16  -6   9    5.00    4.74
  16   6  -9   -0.61    4.41
  16   6   9    0.87    4.64
 -16  -6 -10    0.87    5.03
 -16  -6 -10    0.59    5.02
 -16   6 -10    0.69    4.77
 -16   6 -10    1.87    4.57
  16  -6  10    3.60    5.53
  16  -6  10    0.20    3.74
  16   6 -10    1.91    4.50
  16   6  10   -6.04    4.94
  16   6  10    1.64    4.80
 -16  -6 -11    1.84    5.35
 -16  -6 -11    1.28    5.11
 -16   6 -11    6.85    4.84
  16   6 -11    3.93    4.50
  16   6  11   10.33    5.41
  16   6  11   10.20    4.94
 -16  -6 -12   18.80    5.52
 -16  -6 -12   29.07    5.69
  16  -6 -12   18.31    3.66
  16   6 -12   19.80    4.82
  16   6  12   32.54    5.88
  16   6  12   39.34    8.43
 -16  -6 -13   15.47    6.01
 -16  -6 -13   12.97    5.33
  16  -6 -13   21.94    3.92
  16   6 -13   17.17    4.94
 -16  -8   0    0.77    4.01
 -16  -8  -1    9.40    4.13
 -16  -8   1    6.36    3.93
 -16  -8   1   -2.98    4.07
 -16  -8  -2   30.31    4.66
 -16  -8   2   18.42    4.42
 -16   8  -2   23.97    3.97
 -16  -8  -3  130.80    8.10
 -16  -8   3   80.18    7.28
 -16   8  -3   93.66    6.53
 -16  -8  -4  221.07    8.69
 -16  -8   4  159.71    7.90
 -16   8  -4  182.02    7.33
 -16   8  -4  194.57    6.78
 -16  -8  -5  151.88    8.86
 -16  -8  -5  170.29    8.70
 -16  -8   5  125.98    7.69
 -16   8  -5  138.88    7.20
 -16   8  -5  155.65    6.84
  16   8   5  144.68    8.14
 -16  -8  -6   69.17    8.50
 -16  -8  -6   56.22    5.40
 -16  -8   6   40.96    4.80
 -16   8  -6   64.78    7.08
 -16   8  -6   68.22    6.57
  16   8   6   70.26    7.82
 -16  -8  -7   34.16    5.46
 -16  -8  -7   35.41    5.15
 -16   8  -7   26.59    4.71
 -16   8  -7   35.29    4.38
  16   8  -7   19.30    4.58
  16   8   7   31.08    4.83
 -16  -8  -8   24.62    5.23
 -16  -8  -8   23.96    4.92
 -16  -8   8   15.50    4.79
 -16   8  -8   17.11    4.75
 -16   8  -8   29.48    4.52
  16  -8   8   22.64    4.71
  16   8  -8   15.54    4.59
  16   8   8   25.36    4.91
 -16  -8  -9   28.24    5.70
 -16  -8  -9   28.92    5.15
 -16   8  -9   29.78    5.01
 -16   8  -9   32.25    4.88
  16  -8   9   32.65    5.14
  16   8  -9   22.70    4.82
  16   8   9   35.62    5.12
 -16  -8 -10   46.59    6.15
 -16  -8 -10   38.24    5.37
 -16   8 -10   41.10    5.43
 -16   8 -10   48.59    5.23
  16   8 -10   38.74    5.01
  16   8  10   70.67    8.63
 -16  -8 -11   26.61    5.74
 -16  -8 -11   23.31    5.29
  16   8 -11   19.16    4.93
  16   8  11   27.71    5.82
  16   8  11   40.56    5.48
 -16  -8 -12   -2.35    5.24
 -16  -8 -12   -2.58    4.98
  16   8 -12   -0.05    4.57
  16   8  12    0.95    5.41
  16   8  12   -6.16    5.23
 -16  -8 -13   -8.96    5.45
 -16  -8 -13   -1.89    5.25
  16   8 -13   -8.00    4.51
 -16 -10   0    5.93    4.17
 -16 -10   0   -4.28    4.01
 -16 -10  -1    1.87    4.15
 -16 -10   1    6.16    4.13
 -16 -10   1   -3.70    4.00
 -16 -10  -2    9.80    4.32
 -16 -10   2   11.73    4.08
 -16 -10   2    5.77    4.38
 -16  10  -2    2.58    3.43
 -16 -10  -3    1.84    4.29
 -16 -10   3    1.37    4.16
 -16  10  -3    2.26    3.56
 -16 -10  -4   -2.33    4.25
 -16 -10   4    1.96    3.99
 -16  10  -4   -1.34    3.63
  16  10   4   -4.05    4.06
 -16 -10  -5   -6.47    4.77
 -16 -10  -5    2.43    4.41
 -16 -10   5    1.22    4.16
 -16  10  -5    3.40    3.83
 -16  10  -5   -0.94    3.39
  16  10   5   -1.70    4.37
 -16 -10  -6   -3.13    4.68
 -16 -10  -6    4.64    4.67
 -16 -10   6   -2.04    4.11
 -16  10  -6    3.89    4.02
 -16  10  -6    4.38    3.52
  16  10  -6   -1.04    4.22
  16  10   6   -1.10    4.47
 -16 -10  -7    6.39    5.21
 -16 -10  -7   10.46    4.86
 -16 -10   7    4.12    4.27
 -16  10  -7   10.35    4.33
 -16  10  -7   11.77    4.15
  16  10  -7    6.48    4.43
  16  10   7    8.57    4.72
 -16 -10  -8   13.71    5.38
 -16 -10  -8   15.55    4.89
 -16 -10   8   13.68    4.70
 -16  10  -8   14.28    4.57
 -16  10  -8   23.65    4.37
  16 -10   8   19.62    4.63
  16  10  -8   12.52    4.62
  16  10   8   15.75    5.04
 -16 -10  -9    8.07    5.17
 -16 -10  -9    3.68    4.92
 -16 -10   9    5.31    4.80
 -16  10  -9    6.23    4.62
 -16  10  -9    0.14    4.29
  16 -10   9    2.86    4.52
  16  10  -9    5.13    4.61
  16  10   9    2.39    4.72
 -16 -10 -10    2.89    5.22
 -16 -10 -10   -0.10    4.78
 -16 -10  10   -4.47    4.72
  16  10 -10    3.34    4.69
  16  10  10    6.88    4.88
 -16 -10 -11    8.33    5.36
 -16 -10 -11    8.72    5.05
  16  10 -11    8.34    4.74
  16  10  11    7.40    5.31
 -16 -10 -12  -14.16    5.39
 -16 -10 -12   -6.80    4.90
  16  10 -12   -3.52    4.48
  16  10  12    0.24    5.32
  16  10  12  -11.97    5.04
 -16 -12   0  176.17    8.24
 -16 -12   0  158.40    7.89
 -16 -12  -1   40.02    4.81
 -16 -12  -1   50.22    4.94
 -16 -12   1   44.28    5.19
 -16 -12   1   35.89    4.69
 -16 -12  -2    6.26    4.47
 -16 -12   2    2.40    4.46
 -16 -12   2   11.71    4.35
 -16  12  -2    9.78    3.46
 -16 -12  -3   23.28    5.06
 -16 -12   3   23.80    4.66
 -16  12  -3   16.38    3.65
 -16 -12  -4   51.01    5.39
 -16 -12   4   41.49    4.91
 -16  12  -4   57.63    6.12
  16  12   4   44.43    5.03
 -16 -12  -5   76.75    8.87
 -16 -12  -5   80.47    9.16
 -16 -12   5   45.04    4.96
 -16  12  -5   64.58    6.34
 -16  12  -5   73.29    5.89
  16  12  -5   50.24    5.14
  16  12   5   84.40    8.25
 -16 -12  -6   36.75    5.48
 -16 -12  -6   43.74    5.47
 -16 -12   6   34.70    4.69
 -16  12  -6   29.75    4.33
 -16  12  -6   40.47    4.03
  16  12  -6   33.86    4.86
  16  12   6   41.85    5.19
 -16 -12  -7   18.32    5.69
 -16 -12  -7   17.50    4.92
 -16 -12   7   11.74    4.65
 -16  12  -7   10.60    4.28
 -16  12  -7   18.32    4.10
  16  12  -7   10.34    4.89
  16  12   7   20.08    5.22
 -16 -12  -8   19.90    5.59
 -16 -12  -8   25.52    5.36
 -16 -12   8   10.53    4.66
 -16  12  -8   21.14    4.58
 -16  12  -8   25.52    4.23
  16 -12   8   24.73    4.59
  16  12  -8   18.27    4.84
  16  12   8   17.63    5.22
 -16 -12  -9   83.67    9.16
 -16 -12  -9   85.24    8.90
 -16 -12   9   45.87    5.60
 -16 -12   9   67.14    8.19
 -16  12  -9   70.99    7.81
  16  12  -9   73.17    8.39
  16  12   9  100.61    9.25
 -16 -12 -10   78.37    9.35
 -16 -12 -10   95.45    9.24
 -16 -12  10   75.97    8.72
 -16 -12  10   83.55    8.30
  16  12 -10   76.83    8.59
  16  12  10  101.71    9.21
 -16 -12 -11   48.84    6.45
 -16 -12 -11   45.16    5.75
 -16 -12  11   35.74    5.56
  16  12 -11   43.29    5.57
  16  12  11   55.29    6.14
 -16 -12 -12   14.09    5.84
 -16 -12 -12   23.68    5.52
  16  12 -12   21.04    5.09
  16  12  12   24.10    5.87
  16  12  12   21.40    5.89
 -16 -14   0   27.73    4.78
 -16 -14   0   22.35    4.88
 -16 -14  -1  105.85    8.53
 -16 -14  -1   78.99    7.63
 -16 -14   1   96.39    8.01
 -16 -14   1   69.74    7.77
 -16  14  -1   73.46    5.57
 -16 -14  -2   99.53    8.47
 -16 -14  -2   74.37    7.80
 -16 -14   2  100.89    8.12
 -16 -14   2   69.64    7.80
 -16  14  -2   84.75    5.83
 -16 -14  -3   52.09    5.60
 -16 -14   3   38.41    5.20
 -16 -14   3   26.82    4.89
 -16  14  -3   39.77    3.98
  16  14   3   40.86    5.07
 -16 -14  -4   41.36    5.34
 -16 -14   4   27.31    4.85
 -16  14  -4   27.14    3.86
  16  14   4   34.37    5.12
 -16 -14  -5   58.03    6.07
 -16 -14  -5   78.35    9.00
 -16 -14   5   41.50    5.12
 -16  14  -5   56.96    6.21
  16  14  -5   38.35    5.05
  16  14   5   75.69    8.40
 -16 -14  -6   78.04    8.77
 -16 -14  -6   77.79    8.56
 -16 -14   6   32.98    4.96
 -16  14  -6   65.54    6.72
 -16  14  -6   71.73    5.94
  16  14  -6   47.16    5.36
  16  14   6   99.44    8.86
 -16 -14  -7   75.36    9.39
 -16 -14  -7   81.58    8.83
 -16 -14   7   42.33    5.14
 -16  14  -7   55.36    6.76
 -16  14  -7   74.89    6.48
  16  14  -7   46.01    5.41
  16  14   7   92.68    8.64
 -16 -14  -8   80.43    9.41
 -16 -14  -8  111.62    9.09
 -16 -14   8   67.07    8.26
 -16  14  -8   59.67    7.12
 -16  14  -8  104.08    8.24
  16 -14   8   95.84    7.48
  16  14  -8   71.66    8.61
  16  14   8  116.56    9.02
 -16 -14  -9   97.47    9.53
 -16 -14  -9  100.57    9.05
 -16 -14   9   74.96    8.80
 -16 -14   9   58.23    5.53
  16  14  -9   74.81    8.72
  16  14   9  123.06    9.45
 -16 -14 -10  118.57    9.88
 -16 -14 -10  120.04    9.37
 -16 -14  10   97.49    9.00
 -16 -14  10   95.37    8.69
  16  14 -10   97.12    9.03
  16  14  10  146.79   10.14
 -16 -14 -11  120.21    9.90
 -16 -14 -11  121.42    9.57
 -16 -14  11   92.70    8.70
  16  14 -11   97.15    9.41
 -16 -16   0  154.67    8.70
 -16 -16   0  112.60    8.21
 -16  16   0  118.07    5.61
 -16 -16  -1   35.83    5.05
 -16 -16  -1   28.04    5.01
 -16 -16   1   29.93    4.92
 -16 -16   1   25.37    4.82
 -16  16  -1   21.70    3.43
 -16 -16  -2    5.77    4.65
 -16 -16  -2    1.95    4.49
 -16 -16   2    7.92    4.54
 -16 -16   2   -2.56    4.40
 -16  16  -2    0.50    3.19
 -16 -16  -3    0.07    4.88
 -16 -16  -3    2.09    4.58
 -16 -16   3    2.83    4.55
 -16 -16   3   -4.91    4.43
 -16  16  -3    1.63    3.26
  16  16   3    1.34    4.62
 -16 -16  -4   -0.69    4.94
 -16 -16   4   -0.49    4.42
 -16 -16   4   -3.95    4.42
 -16  16  -4   -2.02    3.25
  16  16  -4   -8.14    4.54
  16  16   4   -1.48    4.74
 -16 -16  -5    0.22    5.09
 -16 -16  -5    2.60    4.73
 -16 -16   5   -5.56    4.36
 -16  16  -5    4.03    3.54
  16  16  -5   -7.02    4.61
  16  16   5   -0.37    4.75
 -16 -16  -6    5.49    5.20
 -16 -16  -6    3.50    4.97
 -16 -16   6   -9.13    4.49
 -16  16  -6   -0.45    3.62
 -16  16  -6   -1.41    3.13
  16  16  -6   -6.19    4.57
 -16 -16  -7    5.04    5.28
 -16 -16  -7   -0.23    4.62
 -16 -16   7   -5.19    4.54
 -16  16  -7   -2.60    3.71
 -16  16  -7   -5.79    3.34
  16  16  -7   -6.20    4.80
 -16 -16  -8   11.97    5.43
 -16 -16  -8    6.33    4.81
 -16 -16   8   -1.54    4.62
 -16  16  -8   -1.61    5.38
  16 -16   8    7.77    4.91
  16  16  -8   -0.14    4.85
 -16 -16  -9   31.57    5.78
 -16 -16  -9   30.58    5.23
 -16 -16   9   26.43    5.76
 -16 -16   9   11.25    4.93
  16  16  -9   17.30    5.32
 -16 -16 -10   39.23    6.01
 -16 -16 -10   44.35    5.87
 -16 -16  10   25.48    5.44
 -16 -16  10   25.05    5.16
  16  16 -10   25.95    5.34
 -16 -18   0   10.08    4.73
 -16 -18   0    4.98    4.78
 -16  18   0   14.44    2.89
 -16 -18  -1    5.43    4.61
 -16 -18  -1   -2.16    4.52
 -16 -18   1    3.03    4.48
 -16 -18   1   -8.97    4.48
 -16  18  -1    1.81    2.88
 -16 -18  -2    4.96    4.77
 -16 -18  -2    3.90    4.74
 -16 -18   2    3.01    4.38
 -16 -18   2   -2.84    4.53
 -16  18  -2    2.40    2.92
 -16 -18  -3   22.70    5.13
 -16 -18  -3   14.56    4.76
 -16 -18   3   21.47    5.02
 -16 -18   3   10.69    4.68
 -16  18  -3   18.78    3.24
 -16 -18  -4  135.06    9.00
 -16 -18  -4   98.11    8.36
 -16 -18   4  110.41    8.33
 -16 -18   4   74.98    8.16
 -16  18  -4   94.11    5.62
  16  18  -4   80.25    8.67
 -16 -18  -5  116.39    9.50
 -16 -18  -5  136.02    9.46
 -16 -18   5  113.48    8.34
 -16 -18   5   71.54    8.19
 -16  18  -5   97.60    5.88
  16  18  -5   83.15    8.59
 -16 -18  -6   86.80    9.18
 -16 -18  -6   84.58    8.95
 -16 -18   6   28.99    5.02
 -16  18  -6   61.50    5.83
 -16  18  -6   59.82    5.24
  16  18  -6   41.73    5.60
 -16 -18  -7   26.85    5.55
 -16 -18  -7   26.63    5.22
 -16 -18   7   16.21    4.79
 -16  18  -7   18.69    3.85
  16  18  -7   15.69    5.15
 -16 -18  -8   17.28    5.55
 -16 -18  -8   16.82    5.10
  16  18  -8    9.21    5.17
 -16 -20   0   -5.55    4.70
 -16 -20   0   -5.31    5.11
 -16 -20  -1   65.54    6.01
 -16 -20  -1   36.48    7.05
 -16 -20   1   44.19    5.48
 -16 -20   1   37.75    5.98
 -16 -20  -2  124.47    9.02
 -16 -20   2  117.41    8.46
 -16 -20   2   73.02    9.43
 -16 -20  -3   52.69    5.47
 -16 -20   3   51.40    5.22
 -16  20  -3   32.50    3.22
 -16 -20  -4   25.57    5.17
 -16 -20   4   20.46    4.87
 -16  20  -4   13.97    3.12
  16  20  -4   13.36    5.12
 -16 -20  -5   47.64    6.11
 -16 -20  -5   75.06    9.25
 -16 -20   5   50.83    5.49
 -16  20  -5   45.54    5.32
  16  20  -5   30.63    5.51
 -16 -20  -6  144.77   10.09
 -16 -20  -6  178.85    9.81
 -16 -20   6  158.56    8.88
 -16  20  -6  127.42    6.15
  16  20  -6  133.53    9.54
 -16 -20  -7  210.68   10.57
 -16 -20  -7  248.67   10.40
 -16 -20   7  217.88    9.07
  16  20  -7  193.45   10.09
 -16 -22   0   15.88    5.21
 -16 -22  -1   -0.10    4.74
 -16 -22   1    0.01    4.77
 -16 -22  -2   29.51    5.30
 -16 -22   2   28.49    5.33
 -16 -22  -3  116.01    9.13
 -16 -22   3  107.69    8.66
  16  22  -3   91.83    9.30
 -16 -22  -4  112.13    8.98
 -16 -22   4  100.59    8.49
 -16  22  -4   53.89    5.53
  16  22  -4   77.56    9.19
 -17  -1  -2   84.95    7.21
 -17   1  -2   99.35    6.82
 -17  -1  -3   74.70    7.43
 -17   1  -3   86.75    7.16
 -17  -1  -4   67.63    7.81
 -17  -1  -4   77.38    7.25
 -17   1  -4   81.55    7.64
 -17   1  -4   77.85    6.93
 -17  -1  -5   46.66    5.23
 -17  -1  -5   84.99    7.83
 -17   1  -5   67.55    7.64
 -17   1  -5   69.60    7.46
 -17  -1  -6   49.81    5.50
 -17  -1  -6   75.89    7.80
 -17   1  -6   51.17    5.53
 -17   1  -6   64.51    7.62
 -17  -1  -7   37.24    5.27
 -17  -1  -7   46.32    5.33
 -17   1  -7   36.18    5.51
 -17   1  -7   37.07    4.87
 -17  -1  -8   26.66    5.36
 -17  -1  -8   31.44    5.27
 -17   1  -8   20.47    5.19
 -17   1  -8   23.54    5.00
  17  -1   8   19.47    4.36
  17   1   8   17.69    4.52
 -17  -1  -9   17.67    5.33
 -17  -1  -9   16.55    4.98
 -17   1  -9   13.70    5.30
 -17   1  -9   20.96    5.14
  17  -1   9   19.17    4.59
  17   1   9   12.44    4.68
 -17  -1 -10   12.51    5.22
 -17  -1 -10   13.86    5.12
 -17   1 -10    1.00    5.11
 -17   1 -10   13.95    4.89
  17   1 -10    6.82    4.21
  17   1  10   11.37    6.36
 -17  -1 -11    7.30    5.60
 -17  -1 -11    4.65    4.98
 -17   1 -11    3.87    4.91
  17  -1 -11    8.67    4.12
  17   1 -11    9.59    4.15
 -17  -1 -12    7.71    5.31
 -17   1 -12   15.95    5.34
  17  -1 -12   11.34    4.14
  17   1 -12    7.63    4.39
 -17  -1 -13   12.35    5.50
  17  -1 -13    6.96    4.32
  17   1 -13   13.21    4.53
 -17  -3  -1    0.59    4.10
 -17  -3  -2   -0.73    4.07
 -17  -3  -3   -5.86    3.87
 -17   3  -3   -0.53    4.18
 -17   3  -3   -2.92    3.73
 -17  -3  -4    4.22    4.50
 -17  -3  -4    0.24    3.94
 -17   3  -4    3.23    4.05
 -17   3  -4    8.93    3.89
 -17  -3  -5   18.16    4.93
 -17  -3  -5   14.87    4.53
 -17   3  -5   14.67    4.63
 -17   3  -5   21.45    4.04
 -17  -3  -6   15.55    5.10
 -17  -3  -6   12.89    4.54
 -17   3  -6   16.43    4.71
 -17   3  -6   20.48    4.59
 -17  -3  -7   10.83    5.30
 -17  -3  -7    7.82    4.81
 -17   3  -7    3.87    4.59
 -17   3  -7    6.60    4.41
  17   3   7    3.05    4.38
 -17  -3  -8    7.13    4.94
 -17  -3  -8    0.89    4.69
 -17   3  -8    1.77    4.85
 -17   3  -8    2.81    4.72
  17   3   8    1.65    4.44
 -17  -3  -9    4.91    5.15
 -17  -3  -9    4.34    4.92
 -17   3  -9    2.65    4.94
 -17   3  -9    3.31    4.85
  17  -3   9    1.86    4.96
  17  -3   9    2.92    4.10
  17   3  -9   -3.68    4.17
  17   3   9    2.77    4.66
 -17  -3 -10    8.89    5.21
 -17  -3 -10   -2.76    5.05
 -17   3 -10   -2.13    5.15
 -17   3 -10    2.46    4.94
  17   3 -10    0.78    4.27
 -17  -3 -11    2.30    5.53
 -17  -3 -11    0.50    5.20
 -17   3 -11   -9.12    5.02
  17   3 -11   -5.66    4.19
 -17  -3 -12   -7.37    5.14
  17  -3 -12   -1.55    3.83
  17   3 -12    0.05    4.33
 -17  -3 -13    2.72    5.51
  17  -3 -13   -1.95    4.01
  17   3 -13    4.53    4.51
 -17  -5   0  102.22    7.69
 -17  -5  -1  108.81    7.97
 -17  -5  -2  122.70    7.86
 -17  -5  -3   57.06    5.20
 -17   5  -3   64.50    7.23
 -17  -5  -4   23.91    5.22
 -17  -5  -4   18.55    4.92
 -17   5  -4   20.35    4.39
 -17   5  -4   22.14    4.20
 -17  -5  -5   10.68    4.88
 -17  -5  -5    7.00    4.76
 -17   5  -5   10.03    4.47
 -17   5  -5    9.82    4.02
 -17  -5  -6    0.26    4.90
 -17  -5  -6   -5.04    4.77
 -17   5  -6    5.55    4.40
 -17   5  -6    0.86    4.00
  17   5   6    8.02    4.45
 -17  -5  -7    5.73    4.90
 -17  -5  -7   -4.76    4.83
 -17   5  -7    0.72    4.49
 -17   5  -7    1.64    4.24
  17   5   7    2.20    4.44
 -17  -5  -8    0.55    4.88
 -17  -5  -8  -10.10    4.88
 -17   5  -8    1.41    4.64
 -17   5  -8   -4.73    4.52
  17   5  -8   -9.64    4.34
  17   5   8   -3.80    4.50
 -17  -5  -9    4.73    5.12
 -17  -5  -9   -1.72    5.05
 -17   5  -9   -0.08    4.75
 -17   5  -9    0.44    4.75
  17  -5   9    0.69    7.13
  17   5  -9   -3.43    4.32
  17   5   9    1.41    4.70
 -17  -5 -10    1.42    5.26
 -17  -5 -10   -3.69    4.88
 -17   5 -10    0.78    4.82
  17   5 -10   -4.30    4.28
  17   5  10    1.72    4.88
 -17  -5 -11   27.28    5.71
 -17  -5 -11   27.74    5.49
  17   5 -11   26.00    4.82
 -17  -5 -12   47.43    6.25
 -17  -5 -12   60.57    6.25
  17   5 -12   63.17    7.87
 -17  -7   0   87.64    7.75
 -17  -7  -1  120.75    8.11
 -17  -7  -2  108.27    8.00
 -17  -7  -3  115.27    8.32
 -17   7  -3   98.17    7.08
 -17  -7  -4   70.97    7.95
 -17   7  -4   60.96    7.18
 -17   7  -4   76.60    6.70
 -17  -7  -5   20.98    5.16
 -17  -7  -5   21.50    4.87
 -17   7  -5   24.46    4.49
 -17   7  -5   26.53    4.24
 -17  -7  -6    6.63    5.12
 -17  -7  -6   -4.09    4.72
 -17   7  -6   13.62    4.53
 -17   7  -6   10.00    4.10
  17   7   6    7.99    4.70
 -17  -7  -7    7.24    5.18
 -17  -7  -7    9.53    4.90
 -17   7  -7    3.48    4.53
 -17   7  -7   16.64    4.26
  17   7   7   11.96    4.85
 -17  -7  -8   23.77    5.55
 -17  -7  -8   19.67    5.20
 -17   7  -8   21.42    4.90
 -17   7  -8   26.27    4.74
  17   7  -8   14.77    4.70
  17   7   8   23.02    5.01
 -17  -7  -9   36.98    5.58
 -17  -7  -9   74.18    9.07
 -17   7  -9   42.45    5.50
 -17   7  -9   60.21    5.71
  17   7  -9   37.83    4.90
  17   7   9   70.91    8.82
 -17  -7 -10  104.27    9.37
 -17  -7 -10  106.83    9.27
  17   7 -10  103.94    8.62
  17   7  10  119.68    9.29
 -17  -7 -11   57.15    6.49
 -17  -7 -11   97.00    9.88
  17   7 -11   86.36    8.76
 -17  -7 -12   32.38    6.14
 -17  -7 -12   37.69    5.89
  17   7 -12   39.15    5.25
 -17  -9   0   76.12    7.88
 -17  -9   0   66.53    7.40
 -17  -9  -1   34.99    5.05
 -17  -9   1   23.42    4.67
 -17  -9   1   32.15    4.66
 -17  -9  -2   11.26    4.54
 -17  -9   2    6.13    4.27
 -17   9  -2   13.55    4.07
 -17  -9  -3    1.02    4.53
 -17  -9   3    3.84    4.38
 -17   9  -3    9.13    3.95
 -17  -9  -4    1.93    4.66
 -17  -9   4   -0.55    4.88
 -17   9  -4    0.35    4.02
 -17  -9  -5    3.27    5.02
 -17  -9  -5    3.69    4.58
 -17   9  -5    1.64    4.14
 -17   9  -5    1.25    3.69
  17   9   5   -0.05    4.50
 -17  -9  -6    5.41    5.01
 -17  -9  -6   -3.95    4.69
 -17   9  -6   -6.73    4.18
 -17   9  -6    3.28    3.83
  17   9   6   -0.42    4.49
 -17  -9  -7   20.27    5.78
 -17  -9  -7   14.28    5.07
 -17   9  -7   12.94    4.70
 -17   9  -7   15.42    4.28
  17   9  -7   11.01    4.52
  17   9   7    9.46    4.78
 -17  -9  -8   40.69    5.96
 -17  -9  -8   43.03    5.61
 -17   9  -8   36.37    5.18
 -17   9  -8   45.35    4.83
  17   9  -8   33.74    4.82
  17   9   8   46.60    5.55
 -17  -9  -9   39.36    6.06
 -17  -9  -9   48.60    5.55
  17   9  -9   42.24    5.35
  17   9   9   50.16    5.53
 -17  -9 -10   26.17    5.68
 -17  -9 -10   40.58    5.73
  17   9 -10   27.71    5.02
  17   9  10   41.76    5.56
 -17  -9 -11   11.79    5.85
 -17  -9 -11   19.59    5.47
  17   9 -11   13.25    4.98
  17   9  11   21.14    8.45
 -17  -9 -12   -2.59    5.75
 -17  -9 -12   10.51    5.68
  17   9 -12    2.03    4.91
 -17 -11   0    6.27    4.66
 -17 -11   0    0.95    4.27
 -17 -11  -1   -2.60    4.32
 -17 -11  -1   -3.70    4.20
 -17 -11   1   -2.04    4.46
 -17 -11   1    3.18    4.41
 -17 -11  -2    1.68    4.49
 -17 -11   2   -3.49    4.40
 -17 -11   2    4.96    4.36
 -17  11  -2   -1.49    3.64
 -17 -11  -3   15.89    4.68
 -17 -11   3   20.68    4.65
 -17  11  -3   18.68    3.99
 -17 -11  -4   87.06    8.90
 -17 -11   4   46.45    5.14
 -17  11  -4   76.73    6.69
 -17 -11  -5   94.40    9.16
 -17 -11  -5  104.19    9.14
 -17 -11   5   69.63    7.92
 -17  11  -5   87.41    7.07
 -17  11  -5   97.17    6.66
  17  11   5   93.18    8.54
 -17 -11  -6   48.26    6.11
 -17 -11  -6   51.78    5.63
 -17 -11   6   34.37    5.05
 -17  11  -6   41.78    4.81
 -17  11  -6   45.04    4.35
  17  11  -6   38.64    5.07
  17  11   6   44.57    5.37
 -17 -11  -7    8.95    5.36
 -17 -11  -7   15.70    5.08
 -17 -11   7   10.62    6.15
 -17  11  -7    9.04    4.45
 -17  11  -7   13.35    4.17
  17  11  -7    5.65    4.62
  17  11   7   13.34    4.93
 -17 -11  -8    1.61    5.38
 -17 -11  -8    0.15    4.98
 -17  11  -8    0.45    4.80
  17  11  -8    1.48    4.52
  17  11   8    0.81    4.76
 -17 -11  -9   -4.90    5.31
 -17 -11  -9    2.80    4.97
 -17 -11   9   -0.33    7.56
  17  11  -9   -1.16    4.62
  17  11   9   -3.96    5.05
 -17 -11 -10   -3.55    5.38
 -17 -11 -10   -1.27    5.03
  17  11 -10   -0.09    4.55
  17  11  10   -9.06    5.14
 -17 -11 -11  -16.14    5.41
  17  11 -11   -2.85    4.81
  17  11  11   -8.60    5.45
 -17 -13   0    3.94    4.45
 -17 -13   0    2.71    4.49
 -17 -13  -1    8.26    4.69
 -17 -13  -1    7.46    4.65
 -17 -13   1    9.63    4.56
 -17 -13   1    7.86    4.65
 -17  13  -1    7.29    3.64
 -17 -13  -2   33.78    5.36
 -17 -13  -2   22.59    4.89
 -17 -13   2   33.43    5.07
 -17 -13   2   16.12    4.75
 -17  13  -2   26.11    3.91
 -17 -13  -3   46.04    5.56
 -17 -13   3   41.05    4.97
 -17 -13   3   30.03    4.85
 -17  13  -3   50.08    6.05
 -17 -13  -4  118.04    9.23
 -17 -13   4   75.80    8.17
 -17  13  -4   95.06    6.59
  17  13   4  105.85    8.65
 -17 -13  -5  158.62    9.94
 -17 -13  -5  184.77    9.57
 -17 -13   5  130.30    8.55
 -17  13  -5  136.34    7.07
 -17  13  -5  143.01    6.55
  17  13   5  174.62    9.14
 -17 -13  -6  165.96    9.99
 -17 -13  -6  182.64    9.65
 -17 -13   6  141.57    8.70
 -17  13  -6  160.92    7.69
 -17  13  -6  157.67    6.89
  17  13  -6  142.31    8.80
  17  13   6  186.08    9.47
 -17 -13  -7  160.66    9.95
 -17 -13  -7  181.36    9.96
 -17 -13   7  116.57    8.57
 -17  13  -7  115.36    7.57
 -17  13  -7  165.39   11.41
  17  13  -7  114.66    8.95
  17  13   7  179.10    9.98
 -17 -13  -8  124.54    9.85
 -17 -13  -8  131.71    9.49
 -17 -13   8  100.58    8.57
  17  13  -8  103.18    9.24
  17  13   8  135.60    9.36
 -17 -13  -9   41.62    5.98
 -17 -13  -9   54.57    5.99
 -17 -13   9   40.26    5.76
 -17 -13   9   30.51    5.22
  17  13  -9   43.51    5.33
  17  13   9   64.29    6.21
 -17 -13 -10   12.06    5.95
 -17 -13 -10   20.51    5.36
 -17 -13  10   21.09    5.30
  17  13 -10   25.89    5.19
  17  13  10   15.54    5.79
 -17 -15   0   14.75    4.59
 -17 -15   0    9.64    4.70
 -17 -15  -1    7.00    4.89
 -17 -15  -1    4.47    4.70
 -17 -15   1    3.71    4.45
 -17 -15   1   -1.25    4.53
 -17  15  -1   -1.28    3.25
 -17 -15  -2    7.59    4.95
 -17 -15  -2    1.09    4.67
 -17 -15   2    5.74    4.66
 -17 -15   2    0.52    4.65
 -17  15  -2    2.98    3.47
 -17 -15  -3   19.32    5.08
 -17 -15   3   19.43    4.87
 -17 -15   3    8.06    4.80
 -17  15  -3   18.95    3.81
 -17 -15  -4   43.15    5.44
 -17 -15   4   39.87    5.33
 -17 -15   4   24.13    5.09
 -17  15  -4   34.50    4.04
  17  15   4   35.96    5.30
 -17 -15  -5   45.74    6.06
 -17 -15  -5   83.24    8.96
 -17 -15   5   30.33    5.01
 -17  15  -5   58.81    6.43
  17  15  -5   33.95    5.43
  17  15   5   71.05    8.72
 -17 -15  -6   57.18    6.31
 -17 -15  -6   99.50    9.00
 -17 -15   6   51.35    5.51
 -17  15  -6   57.72    6.81
 -17  15  -6   69.93    6.25
  17  15  -6   46.05    5.50
  17  15   6   91.48    8.98
 -17 -15  -7   92.68    9.62
 -17 -15  -7   97.94    9.34
 -17 -15   7   46.36    5.49
 -17  15  -7   43.07    5.92
  17  15  -7   47.54    5.54
  17  15   7   95.01    9.14
 -17 -15  -8   55.94    6.36
 -17 -15  -8   89.47    9.21
 -17 -15   8   42.83    5.43
  17  15  -8   46.10    5.87
  17  15   8   86.59    9.08
 -17 -15  -9   58.12    6.49
 -17 -15  -9   54.76    5.81
 -17 -15   9   37.29    5.97
 -17 -15   9   34.24    5.28
  17  15  -9   44.78    5.66
 -17 -17   0   10.13    4.77
 -17 -17   0    4.04    4.73
 -17  17   0    6.71    3.22
 -17 -17  -1   -1.89    4.74
 -17 -17  -1    2.41    4.76
 -17 -17   1   -5.79    4.53
 -17 -17   1   -4.39    4.66
 -17  17  -1    2.16    3.15
 -17 -17  -2   -4.83    4.68
 -17 -17  -2   -1.86    4.65
 -17 -17   2   -1.39    4.44
 -17 -17   2   -6.96    4.68
 -17  17  -2    1.59    3.16
 -17 -17  -3    9.95    4.97
 -17 -17  -3    1.82    4.71
 -17 -17   3    5.72    4.54
 -17 -17   3    6.02    4.64
 -17  17  -3    9.57    3.41
 -17 -17  -4   11.93    5.14
 -17 -17  -4    5.31    4.76
 -17 -17   4   11.36    4.72
 -17 -17   4    0.39    4.67
 -17  17  -4   11.16    3.65
 -17 -17  -5    0.02    5.20
 -17 -17  -5    2.67    4.98
 -17 -17   5    3.55    4.64
 -17 -17   5   -1.16    4.89
 -17  17  -5    4.04    3.58
  17  17  -5   -4.14    4.60
 -17 -17  -6    3.04    5.38
 -17 -17  -6    5.32    4.91
 -17 -17   6   -3.72    4.73
 -17  17  -6   -0.46    3.78
  17  17  -6   -5.68    4.72
 -17 -17  -7    4.85    5.55
 -17 -17  -7    2.62    4.86
 -17 -17   7   -8.69    4.53
  17  17  -7   -1.33    5.09
 -17 -17  -8    4.69    5.54
 -17 -17  -8    1.77    5.09
 -17 -17   8   -1.50    5.85
  17  17  -8    0.25    5.04
 -17 -19   0   14.70    4.87
 -17 -19   0   11.49    4.95
 -17  19   0    8.68    3.05
 -17 -19  -1   78.22    9.02
 -17 -19  -1   41.55    5.41
 -17 -19   1   78.07    8.44
 -17 -19   1   38.98    5.41
 -17  19  -1   61.50    5.07
 -17 -19  -2  103.86    9.17
 -17 -19  -2   86.03    9.29
 -17 -19   2   93.23    8.27
 -17 -19   2   71.45    8.28
 -17  19  -2   77.74    5.29
 -17 -19  -3   27.11    5.43
 -17 -19  -3   25.73    8.31
 -17 -19   3   25.82    4.90
 -17 -19   3   26.32    6.64
 -17  19  -3   22.60    3.55
 -17 -19  -4   13.56    5.29
 -17 -19   4    4.44    4.69
 -17  19  -4    8.17    3.49
 -17 -19  -5   16.27    5.76
 -17 -19  -5   18.72    5.38
 -17 -19   5   13.72    5.05
 -17  19  -5   11.63    3.63
  17  19  -5    6.94    5.12
 -17 -19  -6   30.42    5.98
 -17 -19  -6   43.47    5.74
 -17 -19   6   35.64    5.17
  17  19  -6   22.73    5.28
 -17 -21   0  217.11   10.21
 -17 -21  -1  108.08    9.70
 -17 -21   1  105.17    9.35
 -17 -21  -2   77.24    9.54
 -17 -21   2   81.23    8.97
 -18   0  -2   40.54    4.77
 -18   0  -3   85.37    7.73
 -18   0  -4  110.64    8.67
 -18   0  -4  110.36    7.86
 -18   0  -5   74.88    8.23
 -18   0  -5   94.59    8.15
 -18   0  -6  121.74    9.00
 -18   0  -6  121.87    8.41
 -18   0  -7  118.12    9.09
 -18   0  -7  169.54    8.92
 -18   0  -8   48.90    6.04
 -18   0  -8   71.02    8.56
 -18   0  -9    1.77    5.18
 -18   0  -9    7.28    5.00
 -18   0 -10   -5.91    5.07
 -18   0 -11   -6.73    5.08
  18   0 -11   -2.81    3.98
  18   0 -12   -3.67    4.11
 -18  -2  -1    3.39    4.04
 -18  -2  -2    8.86    4.47
 -18  -2  -3    5.40    4.45
 -18   2  -3    4.66    4.30
 -18  -2  -4   30.79    5.27
 -18  -2  -4   32.49    4.76
 -18   2  -4   29.25    4.79
 -18   2  -4   41.56    4.78
 -18  -2  -5   99.21    8.59
 -18  -2  -5  124.94    8.33
 -18   2  -5  109.77    8.37
 -18   2  -5  108.20    7.84
 -18  -2  -6   86.76    9.15
 -18  -2  -6   97.22    8.59
 -18   2  -6   89.00    8.49
 -18   2  -6   98.81    8.31
 -18  -2  -7   37.44    5.79
 -18  -2  -7   59.39    6.00
 -18   2  -7   40.44    5.69
 -18   2  -7   49.10    5.38
 -18  -2  -8   28.80    5.54
 -18  -2  -8   35.76    5.47
 -18   2  -8   10.33    5.14
 -18   2  -8   29.67    5.58
  18   2   8   35.87    5.74
 -18  -2  -9   12.67    5.61
 -18  -2  -9   16.14    5.48
 -18   2  -9   17.42    6.61
 -18   2  -9   13.82    5.29
 -18  -2 -10    1.09    6.30
 -18  -2 -10   -3.79    5.13
 -18   2 -10   -0.34    5.23
  18   2 -10   -0.76    4.22
 -18  -2 -11   -7.17    4.88
  18   2 -11   -7.36    4.08
 -18  -2 -12    6.59    5.30
  18  -2 -12    3.89    4.03
  18   2 -12    5.27    4.38
 -18  -4  -1  112.64    7.96
 -18  -4  -2   86.30    7.97
 -18  -4  -3   -1.73    4.40
 -18   4  -3   14.56    4.71
 -18   4  -3   15.17    4.28
 -18  -4  -4    4.17    4.85
 -18  -4  -4   -7.34    4.36
 -18   4  -4    2.31    4.41
 -18   4  -4   -0.36    4.31
 -18  -4  -5    2.89    4.92
 -18  -4  -5   -2.66    4.40
 -18   4  -5    3.53    4.59
 -18   4  -5   -2.15    4.20
 -18  -4  -6   13.04    5.15
 -18  -4  -6   -5.63    4.81
 -18   4  -6   11.93    4.79
 -18   4  -6   14.76    4.73
 -18  -4  -7   27.68    5.75
 -18  -4  -7   30.81    5.60
 -18   4  -7   37.12    5.37
 -18   4  -7   33.00    5.12
  18   4   7   35.56    4.97
 -18  -4  -8   28.02    5.95
 -18  -4  -8   18.65    5.37
 -18   4  -8   21.66    5.29
 -18   4  -8   43.29    5.53
  18   4   8   30.63    5.27
 -18  -4  -9   -1.03    5.11
 -18  -4  -9   -9.67    4.98
 -18   4  -9   -0.96    5.09
 -18  -4 -10   11.79    5.53
 -18  -4 -10   10.96    5.27
  18   4 -10    5.91    4.46
 -18  -4 -11   56.30    6.00
  18   4 -11   39.05    4.85
 -18  -6   0  380.24    9.92
 -18  -6  -1  291.23    9.47
 -18  -6  -2   99.83    8.41
 -18  -6  -3   22.92    5.05
 -18   6  -3   44.63    4.87
 -18  -6  -4    1.84    4.86
 -18   6  -4   11.95    4.59
 -18   6  -4   11.47    4.23
 -18  -6  -5    2.98    5.09
 -18   6  -5   -1.79    4.50
 -18   6  -5   -0.14    4.01
 -18  -6  -6    2.45    5.06
 -18  -6  -6  -13.56    5.01
 -18   6  -6    1.40    4.60
 -18   6  -6    8.83    4.34
 -18  -6  -7   -1.10    5.31
 -18  -6  -7  -10.81    4.91
 -18   6  -7    1.04    4.75
 -18   6  -7   -2.58    4.49
  18   6   7   -0.02    4.59
 -18  -6  -8    9.35    5.30
 -18  -6  -8   -4.04    5.16
 -18   6  -8    5.60    7.71
 -18   6  -8   -4.23    4.73
  18   6   8   -0.75    4.82
 -18  -6  -9   40.91    6.27
 -18  -6  -9   32.95    5.77
  18   6  -9   32.97    4.79
 -18  -6 -10  119.22    9.72
 -18  -6 -10  129.82    9.85
  18   6 -10   95.37    7.91
 -18  -6 -11  144.04   12.33
 -18  -6 -11  148.34   10.05
  18   6 -11  125.65    8.80
 -18  -8   0  251.44    9.53
 -18  -8  -1  155.15    8.88
 -18  -8   1  151.62    8.79
 -18  -8  -2   61.23    5.55
 -18  -8  -3    7.63    4.82
 -18   8  -3   15.46    4.32
 -18  -8  -4   -5.05    4.79
 -18   8  -4   -8.46    4.26
 -18   8  -4    3.60    4.00
 -18  -8  -5   15.07    5.53
 -18  -8  -5    9.16    4.89
 -18   8  -5    3.90    4.45
 -18   8  -5   14.05    4.30
 -18  -8  -6    4.45    5.34
 -18   8  -6   -1.20    4.45
 -18   8  -6   -3.70    3.88
  18   8   6   -0.89    4.57
 -18  -8  -7    6.40    5.38
 -18  -8  -7    6.73    5.09
 -18   8  -7    7.76    4.75
 -18   8  -7   13.69    4.78
  18   8   7    5.38    4.86
 -18  -8  -8   46.46    6.28
 -18  -8  -8   52.72    6.01
  18   8  -8   38.38    5.13
  18   8   8   50.62    5.70
 -18  -8  -9   83.43    9.61
 -18  -8  -9   96.65    9.80
  18   8  -9   72.98    7.99
  18   8   9  108.18   11.86
 -18  -8 -10   49.57    6.32
 -18  -8 -10   90.62    9.53
  18   8 -10   70.34    8.15
 -18  -8 -11   56.14    6.66
 -18  -8 -11   92.47    9.85
  18   8 -11   80.79    9.04
 -18 -10   0   10.74    4.87
 -18 -10  -1   21.91    5.00
 -18 -10   1   25.08    4.83
 -18 -10  -2   11.98    4.98
 -18 -10   2   13.21    4.67
 -18  10  -2   10.94    4.24
 -18 -10  -3    1.39    4.95
 -18  10  -3   -1.53    4.10
 -18 -10  -4   52.76    5.85
 -18  10  -4   42.12    4.86
 -18 -10  -5   92.21    9.41
 -18 -10  -5   88.09    9.14
 -18  10  -5   78.31    7.44
 -18  10  -5   76.66    7.07
  18  10   5   92.98    8.38
 -18 -10  -6   40.95    6.28
 -18 -10  -6   33.52    5.52
 -18  10  -6   29.02    4.84
 -18  10  -6   44.20    4.60
  18  10   6   29.77    5.18
 -18 -10  -7   -0.04    5.47
 -18 -10  -7    7.29    5.13
  18  10  -7    9.99    4.66
  18  10   7    4.56    4.83
 -18 -10  -8   -5.68    5.48
 -18 -10  -8   -1.75    4.96
  18  10  -8    0.63    4.62
  18  10   8   -3.03    5.03
 -18 -10  -9   -1.34    5.50
 -18 -10  -9    0.04    5.18
  18  10  -9   -3.09    4.57
  18  10   9   -1.32    5.20
 -18 -10 -10   15.04    6.07
 -18 -10 -10   24.61    5.67
  18  10 -10   16.56    4.92
 -18 -12   0   36.29    5.14
 -18 -12   0   28.11    4.88
 -18 -12  -1    0.84    4.52
 -18 -12  -1    0.77    4.48
 -18 -12   1   -3.21    4.55
 -18 -12   1   -0.40    4.52
 -18 -12  -2    8.85    4.98
 -18 -12   2    4.59    4.62
 -18 -12   2   10.78    4.74
 -18  12  -2    5.62    3.91
 -18 -12  -3   43.90    5.32
 -18 -12   3   40.05    5.15
 -18 -12   3   32.15    5.19
 -18  12  -3   43.09    4.58
 -18 -12  -4  115.47    9.11
 -18  12  -4   95.02    7.05
 -18 -12  -5  185.39   10.35
 -18 -12  -5  196.87    9.76
 -18  12  -5  164.41    7.80
 -18  12  -5  166.89    7.21
  18  12   5  207.85    9.58
 -18 -12  -6  218.75   10.66
 -18 -12  -6  239.92   10.11
 -18  12  -6  194.07    8.36
  18  12   6  251.07   10.01
 -18 -12  -7  222.43   10.99
 -18 -12  -7  239.53   10.20
  18  12  -7  207.37    9.56
  18  12   7  224.89   10.12
 -18 -12  -8   89.48   10.38
 -18 -12  -8  119.07    9.68
  18  12  -8  103.34    8.51
  18  12   8  101.29    9.72
 -18 -12  -9   -6.34    5.84
 -18 -12  -9    1.46    5.27
  18  12  -9   10.00    5.04
  18  12   9   -1.84    5.49
 -18 -14   0   -0.32    4.51
 -18 -14   0   -6.30    4.53
 -18 -14  -1    1.90    4.71
 -18 -14  -1   -4.11    4.50
 -18 -14   1    7.16    4.71
 -18 -14   1   -0.96    4.64
 -18  14  -1    2.33    3.66
 -18 -14  -2   -3.28    4.69
 -18 -14  -2   -3.50    4.67
 -18 -14   2   -2.37    4.68
 -18 -14   2   -5.82    4.55
 -18  14  -2   -1.92    3.75
 -18 -14  -3   35.48    5.44
 -18 -14   3   30.13    4.90
 -18 -14   3   17.67    4.81
 -18  14  -3   31.88    4.16
 -18 -14  -4  167.34    9.71
 -18 -14   4   97.11    8.56
 -18  14  -4  133.31    7.04
  18  14   4  134.29    9.12
 -18 -14  -5  208.85   10.76
 -18 -14  -5  248.47   10.28
 -18 -14   5  175.04    9.16
 -18  14  -5  183.81    7.63
  18  14   5  218.80   10.02
 -18 -14  -6  276.25   11.33
 -18 -14  -6  305.33   10.70
 -18 -14   6  225.78    9.57
  18  14  -6  238.03    9.71
  18  14   6  292.19   10.55
 -18 -14  -7  249.11   11.26
 -18 -14  -7  273.25   10.58
 -18 -14   7  187.89    9.29
  18  14  -7  211.73    9.50
  18  14   7  243.48   10.57
 -18 -14  -8  142.19   10.91
 -18 -14  -8  179.94   10.20
  18  14  -8  134.11    8.92
  18  14   8  166.77   10.36
 -18 -16   0   45.53    5.47
 -18 -16   0   35.93    5.35
 -18 -16  -1    5.16    4.95
 -18 -16  -1    7.11    4.86
 -18 -16   1    8.89    4.85
 -18 -16   1   -1.10    4.84
 -18  16  -1    6.85    3.62
 -18 -16  -2    0.35    5.02
 -18 -16  -2   -9.15    4.40
 -18 -16   2   -4.71    4.45
 -18 -16   2  -10.19    4.58
 -18  16  -2   -3.80    3.40
 -18 -16  -3   -0.40    4.85
 -18 -16  -3   -1.93    4.62
 -18 -16   3   -3.25    4.70
 -18 -16   3   -6.39    4.50
 -18  16  -3   -0.56    3.61
 -18 -16  -4   12.28    5.43
 -18 -16   4    6.98    4.69
 -18 -16   4   -1.95    4.63
 -18  16  -4    7.73    3.89
  18  16   4    6.76    5.12
 -18 -16  -5   38.62    6.10
 -18 -16  -5   56.35    6.03
 -18 -16   5   25.86    5.11
 -18  16  -5   40.37    5.24
  18  16   5   44.81    5.93
 -18 -16  -6  114.23   10.27
 -18 -16  -6  125.86    9.50
 -18 -16   6   87.35    8.80
  18  16  -6   87.77    8.95
  18  16   6   81.46   10.19
 -18 -16  -7  115.78   10.28
 -18 -16  -7  135.98    9.90
 -18 -16   7   96.25    9.01
  18  16  -7   87.87    8.94
 -18 -18   0   26.29    5.25
 -18 -18   0   19.14    5.22
 -18  18   0   16.80    3.51
 -18 -18  -1  105.59    9.06
 -18 -18  -1   87.59    9.24
 -18 -18   1   85.51    8.49
 -18 -18   1   70.91    8.68
 -18  18  -1   73.62    5.77
 -18 -18  -2  119.12    9.33
 -18 -18  -2   89.83    8.88
 -18 -18   2  117.38    8.73
 -18 -18   2   77.49    8.70
 -18  18  -2   91.36    6.05
 -18 -18  -3   16.42    5.50
 -18 -18  -3   11.87    5.10
 -18 -18   3   10.52    4.74
 -18 -18   3    5.20    4.94
 -18  18  -3    9.29    3.68
 -18 -18  -4  -10.91    5.03
 -18 -18  -4   -7.68    7.84
 -18 -18   4   -1.27    4.76
 -18 -18   4    1.33    5.21
 -18  18  -4   -5.81    3.58
 -18 -18  -5    4.61    5.55
 -18 -18  -5    6.79    5.40
 -18 -18   5    1.86    4.76
 -19  -1  -2    7.75    4.66
 -19   1  -2    5.48    4.66
 -19  -1  -3   41.14    5.34
 -19   1  -3   39.80    5.16
 -19  -1  -4   94.30    9.13
 -19  -1  -4  124.67    8.41
 -19   1  -4  118.38    9.10
 -19   1  -4  127.02    8.31
 -19  -1  -5  192.10    9.64
 -19  -1  -5  226.39    9.25
 -19   1  -5  185.41    9.30
 -19   1  -5  215.89    9.09
 -19  -1  -6  232.35   10.45
 -19  -1  -6  268.86    9.53
 -19   1  -6  223.32    9.95
 -19   1  -6  267.04    9.55
 -19  -1  -7  174.78   10.04
 -19  -1  -7  209.54    9.53
 -19   1  -7  173.17    9.72
 -19   1  -7  235.33    9.41
 -19  -1  -8  133.69   15.25
 -19  -1  -8  110.47    9.49
 -19   1  -8   89.47    9.11
 -19  -1  -9   21.32    5.53
 -19   1  -9   19.13    5.63
 -19  -1 -10   -0.72    5.11
 -19  -3  -1   83.53    8.01
 -19  -3  -2   29.88    5.08
 -19  -3  -3   -1.94    4.49
 -19   3  -3   -2.25    4.49
 -19   3  -3    0.92    4.49
 -19  -3  -4   33.87    5.70
 -19  -3  -4   31.19    5.22
 -19   3  -4   30.85    5.29
 -19   3  -4   29.23    4.79
 -19  -3  -5   92.30    9.15
 -19  -3  -5  102.65    8.74
 -19   3  -5   98.66    8.61
 -19   3  -5  105.91    7.99
 -19  -3  -6  157.64    9.88
 -19  -3  -6  147.48    9.76
 -19   3  -6  140.28    9.07
 -19   3  -6  184.54    9.10
 -19  -3  -7  153.54   10.04
 -19  -3  -7  156.39    9.68
 -19   3  -7  179.49    9.23
 -19  -3  -8   88.05    9.52
 -19  -3  -8  105.46    9.54
 -19   3  -8  131.66   14.71
 -19  -3  -9   10.43    5.69
 -19  -3 -10    9.39    5.21
 -19  -5   0  471.14   10.82
 -19  -5  -1  387.30   10.32
 -19  -5  -2  132.64    9.00
 -19  -5  -3    2.00    4.86
 -19   5  -3   29.03    5.02
 -19   5  -3   30.99    4.59
 -19   5  -4   -2.01    4.53
 -19   5  -4   -4.05    4.27
 -19  -5  -5   20.47    5.61
 -19  -5  -5   11.94    5.13
 -19   5  -5   25.05    5.14
 -19   5  -5   21.36    4.62
 -19  -5  -6   87.19    9.39
 -19  -5  -6   54.83    5.99
 -19   5  -6  104.78    9.01
 -19   5  -6   93.63    8.11
 -19  -5  -7  115.26    9.96
 -19  -5  -7   71.21    6.20
 -19  -5  -8   12.99    5.62
 -19  -5  -8    9.11    5.44
 -19  -5  -9   23.41    9.31
 -19  -5  -9   19.03    5.61
 -19  -5 -10  167.01   10.36
  19   5 -10  128.21    8.50
 -19  -7   0  636.58   12.00
 -19  -7  -1  471.71   11.33
 -19  -7   1  429.16   10.65
 -19  -7  -2  129.90    9.35
 -19  -7  -3   -2.75    5.02
 -19   7  -3   17.07    4.80
 -19  -7  -4   -8.29    5.22
 -19   7  -4    0.95    4.58
 -19   7  -4   10.12    4.35
 -19  -7  -5   39.19    6.01
 -19  -7  -5   35.40    5.77
 -19   7  -5   31.76    5.20
 -19   7  -5   36.06    4.81
 -19  -7  -6   27.86    5.68
 -19  -7  -6   11.10    6.04
 -19  -7  -7    4.22    5.66
 -19  -7  -7  -12.64    5.19
 -19  -7  -8   11.65    5.76
 -19  -7  -8   10.06    5.34
 -19  -7  -9   81.32    9.70
 -19  -7  -9   58.70    6.35
  19   7  -9   44.38    5.17
 -19  -7 -10  143.53   10.26
  19   7 -10   90.25    8.69
 -19  -9   0  169.79    9.61
 -19  -9  -1  171.33    9.46
 -19  -9   1  166.99    9.51
 -19  -9  -2   70.87    8.78
 -19   9  -2  124.17    7.86
 -19  -9  -3   -2.84    5.21
 -19   9  -3   -3.78    4.35
 -19  -9  -4   26.53    5.48
 -19   9  -4   17.08    4.79
 -19   9  -4   29.04    4.56
 -19  -9  -5   96.59    9.82
 -19  -9  -5   77.30    9.18
 -19   9  -5   60.34    7.15
 -19  -9  -6   44.11    6.21
 -19  -9  -6   34.99    5.72
  19   9   6   35.43    5.31
 -19  -9  -7    6.41    5.97
 -19  -9  -7    5.31    5.26
 -19  -9  -8   -0.16    5.65
 -19  -9  -8   -3.53    5.14
 -19  -9  -9    7.57    5.82
 -19  -9  -9   17.62    5.80
  19   9  -9   12.12    4.97
 -19 -11   0  170.87    9.41
 -19 -11  -1   73.68    8.49
 -19 -11   1   49.42    5.80
 -19 -11  -2    2.69    4.81
 -19 -11   2   -2.36    4.80
 -19  11  -2    6.27    4.12
 -19 -11  -3    5.61    5.14
 -19  11  -3    4.97    4.26
 -19 -11  -4  102.96    9.23
 -19  11  -4   77.11    7.48
 -19 -11  -5  188.27   10.65
 -19 -11  -5  217.03   10.20
 -19 -11  -6  254.36   11.16
 -19 -11  -6  282.99   10.78
  19  11   6  265.43   10.45
 -19 -11  -7  225.23   11.35
 -19 -11  -7  237.48   10.59
  19  11   7  246.43   11.86
 -19 -11  -8   45.80    6.61
 -19 -11  -8   96.21    9.66
  19  11  -8   80.28    8.61
 -19 -13   0   56.27    5.53
 -19 -13  -1   49.46    5.58
 -19 -13   1   48.81    5.76
 -19  13  -1   45.40    4.51
 -19 -13  -2    0.82    5.11
 -19 -13   2   -1.15    4.83
 -19  13  -2   -2.38    3.93
 -19 -13  -3   41.23    5.49
 -19 -13   3   36.52    5.59
 -19  13  -3   39.86    4.59
 -19 -13  -4  247.85   10.38
 -19 -13  -5  360.59   12.17
 -19 -13  -5  394.91   11.29
 -19 -13  -6  455.32   12.95
 -19 -13  -6  495.10   11.99
 -19 -13  -7  364.95   12.58
 -19 -13  -7  399.63   11.77
  19  13  -7  355.07   10.55
  19  13   7  380.57   12.02
 -19 -15   0  115.57    8.91
 -19 -15   0   88.65    8.92
 -19 -15  -1   31.33    5.52
 -19 -15  -1   13.42    5.13
 -19 -15   1   28.47    5.43
 -19 -15   1   20.12    5.24
 -19  15  -1   27.95    4.10
 -19 -15  -2   -6.28    4.74
 -19 -15  -2  -12.83    4.71
 -19 -15   2   -4.51    4.78
 -19 -15   2  -11.94    4.89
 -19  15  -2    1.28    3.91
 -19 -15  -3    9.56    5.04
 -19 -15   3    6.58    4.84
 -19 -15   3    1.71    4.95
 -19  15  -3   12.03    6.62
 -19 -15  -4  128.96   10.26
 -19 -15   4  115.53    8.97
 -19 -15   4   89.35    8.94
 -19 -15  -5  244.18   11.46
 -19 -15  -5  316.17   11.13
 -19 -15   5  224.54   10.64
  19  15   5  256.28   10.70
 -19 -17   0  108.79    9.11
 -19 -17   0   73.13    8.84
 -19  17   0   70.24    6.46
 -19 -17  -1  140.51    9.55
 -19 -17  -1  118.33    9.45
 -19 -17   1  139.30    9.12
 -19 -17   1  121.77    9.62
 -19  17  -1  108.60    6.59
 -19 -17  -2   84.98    9.78
 -19 -17  -2   36.36    5.52
 -19 -17   2   75.55    8.66
 -19 -17   2   43.91    5.61
 -19  17  -2   65.94    7.55
 -19 -17  -3   -4.54    5.12
 -19 -17  -3   -3.65    5.08
 -19 -17   3   -8.73    4.72
 -19 -17   3   -2.55    5.03
 -20   0  -2   -4.48    4.90
 -20   0  -3   29.31    5.28
 -20   0  -4  128.01    9.68
 -20   0  -4  190.18    8.95
 -20   0  -5  352.93   14.34
 -20   0  -5  367.57   10.35
 -20   0  -6  376.59   10.79
 -20   0  -7  237.18    9.74
 -20  -2  -1   36.52    5.35
 -20  -2  -2   -5.56    4.78
 -20   2  -2    3.56    4.28
 -20  -2  -3   14.96    4.92
 -20   2  -3   12.88    4.76
 -20  -2  -4   88.96    9.50
 -20  -2  -4  108.74    8.66
 -20   2  -4  101.49    9.70
 -20   2  -4  100.74    8.26
 -20  -2  -5  159.00    9.91
 -20  -2  -5  195.81    9.42
 -20   2  -5  192.71    8.98
 -20  -2  -6  282.27   10.30
 -20   2  -6  295.52   12.36
 -20  -2  -7  274.48   10.36
 -20  -2  -8  144.39    9.76
 -20  -2  -9   12.34    6.72
 -20  -4   0  367.36   10.01
 -20  -4  -1  283.84    9.91
 -20  -4  -2   77.41    8.88
 -20  -4  -3  -12.67    4.80
 -20   4  -3    7.02    5.10
 -20   4  -3    9.60    4.63
 -20  -4  -4    5.26    5.57
 -20  -4  -4    0.71    5.03
 -20   4  -4    6.04    5.43
 -20  -4  -5   93.96    9.56
 -20  -4  -5  105.10    9.27
 -20  -4  -6  213.99   11.25
 -20  -4  -6  204.61   10.00
 -20  -4  -7  170.90   10.20
 -20  -4  -8   30.56    5.84
 -20  -4  -9    9.13    5.40
 -20  -6   0  733.55   12.89
 -20  -6  -1  510.44   12.16
 -20  -6  -2  156.42   10.02
 -20  -6  -3  -12.52    5.15
 -20  -6  -4   -8.35    5.12
 -20  -6  -5   55.52    6.36
 -20  -6  -5   58.05    6.04
 -20  -6  -6   92.88    9.72
 -20  -6  -6   49.00    6.33
 -20  -6  -7   14.07    5.51
 -20  -6  -8   -1.91    5.22
 -20  -8   0  488.99   11.87
 -20  -8  -1  410.85   11.47
 -20  -8   1  399.51   11.48
 -20  -8  -2  129.35    9.87
 -20  -8  -3  -13.19    5.19
 -20  -8  -4   -9.10    5.40
 -20  -8  -5   39.00    6.21
 -20  -8  -5   44.05    5.81
 -20  -8  -6   24.81    5.93
 -20  -8  -6   19.48    5.73
 -20  -8  -7   11.90    6.10
 -20  -8  -7   -3.48    5.23
 -20  -8  -8    2.90    5.41
 -20 -10   0  287.26   10.42
 -20 -10  -1  144.74    9.57
 -20 -10   1  146.89    9.50
 -20 -10  -2   17.03    5.32
 -20 -10   2   16.58    5.31
 -20 -10  -3   -5.74    5.12
 -20 -10  -4   31.82    5.63
 -20 -10  -5  113.99   10.46
 -20 -10  -5  118.19    9.80
 -20 -10  -6  161.96   10.78
 -20 -10  -6  198.46   11.02
 -20 -10  -7  124.18   10.76
 -20 -10  -7  148.00   10.36
 -20 -12   0   71.52    8.68
 -20 -12  -1   74.50    8.74
 -20 -12   1   57.20    5.79
 -20 -12  -2    3.61    5.19
 -20 -12   2   -2.01    4.85
 -20 -12  -3   23.91    5.48
 -20 -12   3   19.26    5.35
 -20 -12  -4  216.57   10.57
 -20 -12  -5  314.22   12.19
 -20 -12  -5  414.96   11.89
 -20 -14   0   95.49    9.14
 -20 -14  -1   21.36    5.40
 -20 -14   1   22.03    5.48
 -20 -14  -2  -13.43    5.07
 -20 -14   2  -10.93    4.79
 -20 -14  -3   29.77    5.78
 -20 -14   3   25.13    5.52
 -21  -1  -1   -2.86    4.80
 -21  -1  -2   -7.24    4.75
 -21   1  -2   -5.33    5.35
 -21  -1  -3   43.33    5.54
 -21  -1  -4  185.30    9.48
 -21  -1  -5  310.42   12.16
 -21  -3  -1   86.70    8.74
 -21  -3  -2    3.00    5.12
 -21  -3  -3   -4.39    4.99
 -21  -3  -4   30.38    5.21
 -21  -3  -5  129.48    9.76
 -21  -3  -6  205.71   10.07
 -21  -3  -7  186.85   12.15
 -21  -5   0  404.21   11.09
 -21  -5  -1  303.13   10.88
 -21  -5  -2  103.71    9.48
 -21  -5  -3   -5.99    5.35
 -21  -5  -4    0.77    5.35
 -21  -5  -5   54.70    5.98
 -21  -5  -6   45.81    6.08
 -21  -7   0  406.76   11.86
 -21  -7  -1  329.88   11.31
 -21  -7   1  305.24   10.88
 -21  -7  -2  103.04   10.07
 -21  -7  -3    0.23    5.43
 -21  -7  -4  -14.45    5.19
 -21  -7  -5    0.89    5.38
 -21  -7  -6   -7.11    5.44
 -21  -9   0  277.90   10.91
 -21  -9  -1  139.27    9.90
 -21  -9   1  139.84    9.99
 -21  -9  -2   17.07    5.72
 -21  -9   2   18.57    5.78
 -21  -9  -3   -6.01    5.12
 -21  -9  -4  -12.22    5.26
 -21  -9  -5   17.79    5.67
 -21 -11   0   29.73    5.60
 -21 -11  -1   47.26    5.82
 -21 -11   1   37.26    5.75
 -21 -11  -2    8.43    5.41
 -21 -11   2    7.69    5.19
 -21 -11  -3   11.01    5.48
 -22  -4   0  143.21    9.68
 -22  -4  -1  104.76    9.28
 -22  -4  -2   19.72    5.59
 -22  -4  -3   -9.24    5.28
 -22  -6   0  200.26   10.26
 -22  -6  -1  177.59   10.25
 -22  -6   1  170.94    9.78
 -22  -6  -2   70.41    6.58
 -22  -6  -3    6.96    5.40
   0   0   0    0.00    0.00
;
_shelx_hkl_checksum              66727
_shelx_shelxl_version_number     2014/7
_olex2_submission_special_instructions 'No special instructions were received'
loop_
_space_group_symop_operation_xyz
'x, y, z'
'-x, -y, z'
'x, -y, -z'
'-x, y, -z'
'x+1/2, y+1/2, z'
'-x+1/2, -y+1/2, z'
'x+1/2, -y+1/2, -z'
'-x+1/2, y+1/2, -z'
'-x, -y, -z'
'x, y, -z'
'-x, y, z'
'x, -y, z'
'-x+1/2, -y+1/2, -z'
'x+1/2, y+1/2, -z'
'-x+1/2, y+1/2, z'
'x+1/2, -y+1/2, z'
loop_
_atom_site_label
_atom_site_type_symbol
_atom_site_fract_x
_atom_site_fract_y
_atom_site_fract_z
_atom_site_U_iso_or_equiv
_atom_site_adp_type
_atom_site_occupancy
_atom_site_site_symmetry_order
_atom_site_calc_flag
_atom_site_refinement_flags_posn
_atom_site_refinement_flags_adp
_atom_site_refinement_flags_occupancy
Zr1 Zr 0.0000 0.07391(3) 0.5000 0.0407(7) Uani 1 4 d S T P
Zr2 Zr 0.07539(4) 0.0000 0.41466(4) 0.0464(7) Uani 1 2 d S T P
O5 O 0.1063(3) 0.06093(18) 0.3807(3) 0.079(2) Uani 1 1 d . . .
O1 O 0.0000 0.0362(2) 0.4150(5) 0.077(3) Uani 1 2 d S T P
C2 C 0.1287(4) 0.1282(2) 0.3609(4) 0.066(3) Uani 1 1 d . . .
O4 O 0.0578(3) 0.10806(15) 0.4359(3) 0.0569(15) Uani 1 1 d . . .
O2 O 0.0740(5) 0.0360(3) 0.5000 0.093(4) Uani 1 2 d S T P
C7 C 0.1277(5) 0.1674(3) 0.3815(5) 0.085(3) Uani 1 1 d . . .
H7 H 0.1068 0.1739 0.4182 0.102 Uiso 1 1 calc R . .
C6 C 0.1566(5) 0.1974(3) 0.3495(5) 0.086(3) Uani 1 1 d . . .
H6 H 0.1546 0.2236 0.3641 0.103 Uiso 1 1 calc R . .
C3 C 0.1599(5) 0.1196(3) 0.3076(5) 0.086(3) Uani 1 1 d . . .
H3 H 0.1603 0.0934 0.2926 0.104 Uiso 1 1 calc R . .
C5 C 0.1886(5) 0.1882(3) 0.2956(5) 0.082(3) Uani 1 1 d . . .
C1 C 0.0948(4) 0.0972(3) 0.3960(5) 0.061(2) Uani 1 1 d . . .
C4 C 0.1918(6) 0.1484(3) 0.2739(5) 0.100(4) Uani 1 1 d . . .
H4 H 0.2143 0.1415 0.2385 0.119 Uiso 1 1 calc R . .
O3 O 0.0682(5) 0.0000 0.3103(4) 0.085(3) Uani 1 2 d S T P
O6 O 0.1681(4) 0.0000 0.4259(7) 0.116(4) Uani 1 2 d S TU P
C9 C 0.2500 0.2500 0.2917(6) 0.081(4) Uani 1 2 d S T P
H9 H 0.2500 0.2500 0.3367 0.097 Uiso 1 2 calc RS T P
C8 C 0.2207(5) 0.2198(3) 0.2590(4) 0.084(3) Uani 1 1 d . . .
C10 C 0.2204(6) 0.2203(3) 0.1925(5) 0.106(4) Uani 1 1 d . . .
H10 H 0.2004 0.2008 0.1697 0.127 Uiso 1 1 calc R . .
C11 C 0.2500 0.2500 0.1595(6) 0.117(7) Uani 1 2 d S T P
C12 C 0.2500 0.2500 0.0879(11) 0.151(10) Uani 1 2 d S T P
C13 C 0.2500 0.2500 0.0324(9) 0.146(10) Uani 1 2 d S T P
C15 C 0.2549(12) 0.0000 0.5000 0.294(15) Uani 1 4 d DS TU P
C16 C 0.2856(12) 0.0000 0.4418(14) 0.387(17) Uani 1 2 d DS TU P
H16 H 0.2663 0.0000 0.4025 0.465 Uiso 1 2 calc RS T P
C14 C 0.1920(12) 0.0000 0.5000 0.222(12) Uani 1 4 d DS TU P
C17 C 0.3443(12) 0.0000 0.4434(16) 0.445(19) Uani 1 2 d DS TU P
H17 H 0.3639 0.0000 0.4043 0.534 Uiso 1 2 calc RS T P
C20 C 0.470(2) 0.024(3) 0.459(3) 0.54(3) Uani 0.5 1 d D U .
C19 C 0.439(2) 0.0000 0.5000 0.52(3) Uani 1 4 d DS TU P
C18 C 0.376(2) 0.0000 0.5000 0.50(2) Uani 1 4 d DS TU P
O7 O 0.461(3) 0.026(3) 0.394(3) 0.57(3) Uani 0.5 1 d D U .
loop_
_atom_site_aniso_label
_atom_site_aniso_U_11
_atom_site_aniso_U_22
_atom_site_aniso_U_33
_atom_site_aniso_U_23
_atom_site_aniso_U_13
_atom_site_aniso_U_12
Zr1 0.0378(10) 0.0236(9) 0.0606(10) 0.000 0.000 0.000
Zr2 0.0405(9) 0.0296(8) 0.0691(9) 0.000 0.0087(4) 0.000
O5 0.083(5) 0.043(4) 0.111(5) -0.008(3) 0.036(4) -0.017(3)
O1 0.041(5) 0.036(5) 0.153(9) -0.035(5) 0.000 0.000
C2 0.076(6) 0.039(6) 0.084(6) -0.003(5) 0.007(5) -0.021(5)
O4 0.056(4) 0.037(3) 0.077(4) -0.002(3) 0.014(3) -0.004(3)
O2 0.126(9) 0.085(7) 0.067(5) 0.000 0.000 0.079(6)
C7 0.109(8) 0.062(7) 0.084(6) -0.015(5) 0.034(6) -0.041(6)
C6 0.123(9) 0.051(6) 0.083(7) -0.013(5) 0.033(6) -0.035(6)
C3 0.114(9) 0.040(5) 0.105(7) -0.019(5) 0.036(7) -0.031(6)
C5 0.115(9) 0.060(7) 0.072(6) -0.004(5) 0.002(6) -0.051(6)
C1 0.072(7) 0.029(6) 0.081(6) 0.001(5) 0.002(5) -0.015(5)
C4 0.138(10) 0.068(7) 0.093(7) -0.022(6) 0.048(7) -0.056(7)
O3 0.134(9) 0.051(5) 0.071(6) 0.000 0.013(5) 0.000
O6 0.040(6) 0.081(7) 0.228(13) 0.000 0.019(6) 0.000
C9 0.103(11) 0.073(9) 0.067(8) 0.000 0.000 -0.048(9)
C8 0.118(9) 0.069(7) 0.066(6) -0.001(5) 0.007(5) -0.052(6)
C10 0.158(11) 0.092(8) 0.068(7) -0.002(6) 0.011(6) -0.082(8)
C11 0.173(18) 0.131(14) 0.047(8) 0.000 0.000 -0.066(14)
C12 0.22(3) 0.123(17) 0.107(18) 0.000 0.000 -0.114(18)
C13 0.24(3) 0.138(17) 0.055(9) 0.000 0.000 -0.098(17)
C15 0.084(12) 0.51(4) 0.28(3) 0.000 0.000 0.000
C16 0.116(16) 0.66(4) 0.39(3) 0.000 0.096(14) 0.000
C14 0.080(12) 0.34(3) 0.244(17) 0.000 0.000 0.000
C17 0.121(16) 0.74(5) 0.47(4) 0.000 0.072(15) 0.000
C20 0.18(3) 0.83(7) 0.62(6) 0.02(3) 0.03(3) 0.01(3)
C19 0.17(3) 0.80(6) 0.58(6) 0.000 0.000 0.000
C18 0.17(3) 0.78(6) 0.54(4) 0.000 0.000 0.000
O7 0.25(4) 0.83(8) 0.63(6) 0.05(4) 0.02(4) 0.02(4)
loop_
_atom_type_symbol
_atom_type_description
_atom_type_scat_dispersion_real
_atom_type_scat_dispersion_imag
_atom_type_scat_source
C C 0.0015 0.0009 'International Tables Vol C Tables 4.2.6.8 and 6.1.1.4'
H H 0.0000 0.0000 'International Tables Vol C Tables 4.2.6.8 and 6.1.1.4'
O O 0.0056 0.0036 'International Tables Vol C Tables 4.2.6.8 and 6.1.1.4'
Zr Zr -0.5364 2.6141 'International Tables Vol C Tables 4.2.6.8 and 6.1.1.4'
loop_
_geom_angle_atom_site_label_1
_geom_angle_atom_site_label_2
_geom_angle_atom_site_label_3
_geom_angle
_geom_angle_site_symmetry_1
_geom_angle_site_symmetry_3
Zr2 Zr1 Zr2 60.42(3) . 10_556
Zr2 Zr1 Zr2 90.58(3) 2 10_556
Zr2 Zr1 Zr2 60.24(3) 9_556 10_556
Zr2 Zr1 Zr2 60.42(3) 2 9_556
Zr2 Zr1 Zr2 90.58(3) . 9_556
Zr2 Zr1 Zr2 60.24(3) . 2
O1 Zr1 Zr2 89.9(2) 10_556 2
O1 Zr1 Zr2 89.9(2) . 9_556
O1 Zr1 Zr2 35.03(13) 10_556 9_556
O1 Zr1 Zr2 35.02(13) . 2
O1 Zr1 Zr2 89.9(2) . 10_556
O1 Zr1 Zr2 35.02(13) . .
O1 Zr1 Zr2 35.03(13) 10_556 10_556
O1 Zr1 Zr2 89.9(2) 10_556 .
O1 Zr1 O1 108.7(5) 10_556 .
O1 Zr1 O4 142.06(16) . 10_556
O1 Zr1 O4 142.06(16) 10_556 11
O1 Zr1 O4 79.2(3) . 11
O1 Zr1 O4 142.06(16) 10_556 .
O1 Zr1 O4 79.2(3) . .
O1 Zr1 O4 79.2(3) 10_556 4_556
O1 Zr1 O4 79.2(3) 10_556 10_556
O1 Zr1 O4 142.06(16) . 4_556
O4 Zr1 Zr2 75.79(15) 11 2
O4 Zr1 Zr2 166.36(15) 11 10_556
O4 Zr1 Zr2 75.79(15) 4_556 9_556
O4 Zr1 Zr2 111.57(15) 11 .
O4 Zr1 Zr2 111.57(15) 10_556 9_556
O4 Zr1 Zr2 75.79(15) . .
O4 Zr1 Zr2 111.02(15) . 10_556
O4 Zr1 Zr2 75.79(15) 10_556 10_556
O4 Zr1 Zr2 166.36(15) . 9_556
O4 Zr1 Zr2 111.57(15) 4_556 10_556
O4 Zr1 Zr2 111.57(15) . 2
O4 Zr1 Zr2 111.02(15) 10_556 .
O4 Zr1 Zr2 166.36(15) 10_556 2
O4 Zr1 Zr2 111.02(15) 11 9_556
O4 Zr1 Zr2 111.02(15) 4_556 2
O4 Zr1 Zr2 166.36(15) 4_556 .
O4 Zr1 O4 75.3(3) . 11
O4 Zr1 O4 117.8(3) . 4_556
O4 Zr1 O4 117.8(3) 10_556 11
O4 Zr1 O4 73.8(3) . 10_556
O4 Zr1 O4 75.3(3) 10_556 4_556
O4 Zr1 O4 73.8(3) 11 4_556
O2 Zr1 Zr2 89.4(3) 11 .
O2 Zr1 Zr2 34.85(16) . 10_556
O2 Zr1 Zr2 89.4(3) . 2
O2 Zr1 Zr2 89.4(3) . 9_556
O2 Zr1 Zr2 89.4(3) 11 10_556
O2 Zr1 Zr2 34.85(16) . .
O2 Zr1 Zr2 34.85(16) 11 2
O2 Zr1 Zr2 34.85(16) 11 9_556
O2 Zr1 O1 69.8(2) 11 10_556
O2 Zr1 O1 69.8(2) . .
O2 Zr1 O1 69.8(2) 11 .
O2 Zr1 O1 69.8(2) . 10_556
O2 Zr1 O4 79.2(3) 11 11
O2 Zr1 O4 142.92(15) 11 .
O2 Zr1 O4 79.2(3) 11 4_556
O2 Zr1 O4 79.2(3) . .
O2 Zr1 O4 142.92(15) . 11
O2 Zr1 O4 142.92(15) . 4_556
O2 Zr1 O4 79.2(3) . 10_556
O2 Zr1 O4 142.92(15) 11 10_556
O2 Zr1 O2 107.5(7) . 11
Zr1 Zr2 Zr1 89.42(3) 9_556 .
Zr1 Zr2 Zr2 59.879(16) . 2
Zr1 Zr2 Zr2 59.791(16) 9_556 10_556
Zr1 Zr2 Zr2 59.791(16) . 10_556
Zr1 Zr2 Zr2 59.879(16) 9_556 2
Zr2 Zr2 Zr2 90.0 2 10_556
O5 Zr2 Zr1 71.62(16) . .
O5 Zr2 Zr1 161.04(16) . 9_556
O5 Zr2 Zr1 71.63(16) 12 9_556
O5 Zr2 Zr1 161.05(16) 12 .
O5 Zr2 Zr2 108.01(18) 12 10_556
O5 Zr2 Zr2 108.01(18) . 10_556
O5 Zr2 Zr2 108.56(18) 12 2
O5 Zr2 Zr2 108.56(18) . 2
O5 Zr2 O5 127.3(3) 12 .
O1 Zr2 Zr1 35.6(2) . .
O1 Zr2 Zr1 89.0(2) 2 .
O1 Zr2 Zr1 89.0(2) . 9_556
O1 Zr2 Zr1 35.5(2) 2 9_556
O1 Zr2 Zr2 34.45(18) . 2
O1 Zr2 Zr2 89.8(3) 2 10_556
O1 Zr2 Zr2 89.8(3) . 10_556
O1 Zr2 Zr2 34.45(18) 2 2
O1 Zr2 O5 75.9(3) 2 12
O1 Zr2 O5 140.4(3) . 12
O1 Zr2 O5 140.4(3) 2 .
O1 Zr2 O5 75.9(3) . .
O1 Zr2 O1 68.9(4) . 2
O1 Zr2 O2 107.6(4) . 3_556
O1 Zr2 O2 70.5(3) 2 3_556
O1 Zr2 O2 107.6(4) 2 .
O1 Zr2 O2 70.5(3) . .
O1 Zr2 O3 86.5(4) 2 .
O1 Zr2 O3 86.5(4) . .
O1 Zr2 O6 145.04(18) . .
O1 Zr2 O6 145.03(18) 2 .
O2 Zr2 Zr1 88.4(3) 3_556 .
O2 Zr2 Zr1 88.4(3) . 9_556
O2 Zr2 Zr1 35.0(2) . .
O2 Zr2 Zr1 35.0(2) 3_556 9_556
O2 Zr2 Zr2 89.1(3) 3_556 2
O2 Zr2 Zr2 89.1(3) . 2
O2 Zr2 Zr2 34.3(2) . 10_556
O2 Zr2 Zr2 34.3(2) 3_556 10_556
O2 Zr2 O5 75.9(3) . .
O2 Zr2 O5 139.9(3) 3_556 .
O2 Zr2 O5 75.9(3) 3_556 12
O2 Zr2 O5 139.9(3) . 12
O2 Zr2 O2 68.5(5) . 3_556
O2 Zr2 O3 145.4(2) . .
O2 Zr2 O3 145.4(2) 3_556 .
O2 Zr2 O6 85.8(4) . .
O2 Zr2 O6 85.8(4) 3_556 .
O3 Zr2 Zr1 117.55(18) . .
O3 Zr2 Zr1 117.55(18) . 9_556
O3 Zr2 Zr2 175.5(3) . 10_556
O3 Zr2 Zr2 85.5(3) . 2
O3 Zr2 O5 73.5(2) . 12
O3 Zr2 O5 73.5(2) . .
O3 Zr2 O6 100.6(5) . .
O6 Zr2 Zr1 116.4(2) . 9_556
O6 Zr2 Zr1 116.4(2) . .
O6 Zr2 Zr2 173.9(4) . 2
O6 Zr2 Zr2 83.9(4) . 10_556
O6 Zr2 O5 73.5(2) . .
O6 Zr2 O5 73.5(2) . 12
C1 O5 Zr2 134.8(6) . .
Zr2 O1 Zr1 109.4(3) 2 .
Zr2 O1 Zr1 109.4(3) . .
Zr2 O1 Zr2 111.1(4) . 2
C7 C2 C1 120.0(9) . .
C3 C2 C7 117.5(8) . .
C3 C2 C1 122.5(8) . .
C1 O4 Zr1 132.1(5) . .
Zr2 O2 Zr1 110.2(3) . .
Zr2 O2 Zr1 110.2(3) 10_556 .
Zr2 O2 Zr2 111.5(5) . 10_556
C2 C7 H7 118.9 . .
C6 C7 C2 122.3(9) . .
C6 C7 H7 118.9 . .
C7 C6 H6 120.2 . .
C7 C6 C5 119.6(9) . .
C5 C6 H6 120.2 . .
C2 C3 H3 118.4 . .
C2 C3 C4 123.1(8) . .
C4 C3 H3 118.4 . .
C6 C5 C4 120.0(8) . .
C6 C5 C8 121.5(9) . .
C4 C5 C8 118.5(9) . .
O5 C1 C2 115.1(9) . .
O4 C1 O5 125.6(7) . .
O4 C1 C2 119.3(8) . .
C3 C4 C5 117.4(9) . .
C3 C4 H4 121.3 . .
C5 C4 H4 121.3 . .
C14 O6 Zr2 116.2(12) . .
C8 C9 H9 119.0 . .
C8 C9 H9 119.0 6 .
C8 C9 C8 121.9(12) . 6
C9 C8 C5 120.7(8) . .
C10 C8 C5 120.7(8) . .
C10 C8 C9 118.6(9) . .
C8 C10 H10 120.1 . .
C8 C10 C11 119.9(9) . .
C11 C10 H10 120.1 . .
C10 C11 C10 121.1(12) . 6
C10 C11 C12 119.4(6) 6 .
C10 C11 C12 119.5(6) . .
C13 C12 C11 180.0 . .
C12 C13 C13 180.0 . 13
C16 C15 C16 118(3) 10_556 .
C16 C15 C14 120.8(17) 10_556 .
C16 C15 C14 120.8(17) . .
C15 C16 H16 120.3 . .
C17 C16 C15 119(3) . .
C17 C16 H16 120.3 . .
O6 C14 O6 140(2) 10_556 .
C15 C14 O6 110.0(10) . .
C15 C14 O6 110.0(10) . 10_556
C16 C17 H17 118.1 . .
C16 C17 C18 124(3) . .
C18 C17 H17 118.1 . .
C20 C20 C20 90.000(15) 11_655 12
C20 C20 C20 90.000(17) 11_655 10_556
C20 C20 C20 89.999(6) 12 10_556
C19 C20 C20 122(3) . 11_655
C19 C20 C20 54(4) . 12
C19 C20 C20 52(4) . 10_556
O7 C20 C20 171(5) . 10_556
O7 C20 C20 98(4) . 11_655
O7 C20 C20 93(7) . 12
O7 C20 C19 124(7) . .
C20 C19 C20 76(7) 12 3_556
C20 C19 C20 72(9) 10_556 3_556
C20 C19 C20 117(6) 10_556 12
C20 C19 C20 72(9) 12 .
C20 C19 C20 76(7) 10_556 .
C20 C19 C20 117(6) 3_556 .
C20 C19 C18 122(3) . .
C20 C19 C18 122(3) 3_556 .
C20 C19 C18 122(3) 12 .
C20 C19 C18 122(3) 10_556 .
C17 C18 C17 115(4) 10_556 .
C17 C18 C19 123(2) 10_556 .
C17 C18 C19 123(2) . .
C20 O7 O7 82(4) . 11_655
C20 O7 O7 87(7) . 12
O7 O7 O7 89.998(11) 12 11_655
loop_
_geom_bond_atom_site_label_1
_geom_bond_atom_site_label_2
_geom_bond_distance
_geom_bond_site_symmetry_2
Zr1 Zr2 3.5095(10) .
Zr1 Zr2 3.5095(10) 9_556
Zr1 Zr2 3.5095(10) 10_556
Zr1 Zr2 3.5095(10) 2
Zr1 O1 2.164(8) .
Zr1 O1 2.164(8) 10_556
Zr1 O4 2.210(6) .
Zr1 O4 2.210(6) 4_556
Zr1 O4 2.210(6) 11
Zr1 O4 2.210(6) 10_556
Zr1 O2 2.144(8) 11
Zr1 O2 2.144(8) .
Zr2 Zr1 3.5094(10) 9_556
Zr2 Zr2 3.5224(19) 2
Zr2 Zr2 3.5317(19) 10_556
Zr2 O5 2.271(6) .
Zr2 O5 2.271(6) 12
Zr2 O1 2.136(5) 2
Zr2 O1 2.136(5) .
Zr2 O2 2.136(6) 3_556
Zr2 O2 2.136(6) .
Zr2 O3 2.166(9) .
Zr2 O6 2.179(10) .
O5 C1 1.282(10) .
O1 Zr2 2.136(5) 2
C2 C7 1.378(13) .
C2 C3 1.352(12) .
C2 C1 1.493(12) .
O4 C1 1.248(11) .
O2 Zr2 2.136(6) 10_556
C7 H7 0.9300 .
C7 C6 1.375(13) .
C6 H6 0.9300 .
C6 C5 1.375(13) .
C3 H3 0.9300 .
C3 C4 1.402(13) .
C5 C4 1.403(14) .
C5 C8 1.502(13) .
C4 H4 0.9300 .
O6 C14 1.631(16) .
C9 H9 0.9300 .
C9 C8 1.394(11) .
C9 C8 1.394(11) 6
C8 C10 1.377(13) .
C10 H10 0.9300 .
C10 C11 1.389(11) .
C11 C10 1.389(11) 6
C11 C12 1.48(3) .
C12 C13 1.15(2) .
C13 C13 1.34(4) 13
C15 C16 1.401(18) 10_556
C15 C16 1.401(18) .
C15 C14 1.469(19) .
C16 H16 0.9300 .
C16 C17 1.372(18) .
C14 O6 1.631(16) 10_556
C17 H17 0.9300 .
C17 C18 1.388(19) .
C20 C20 1.71(14) 10_556
C20 C20 1.62(18) 12
C20 C20 1.41(11) 11_655
C20 C19 1.385(19) .
C20 O7 1.36(2) .
C19 C20 1.385(19) 10_556
C19 C20 1.385(19) 12
C19 C20 1.385(19) 3_556
C19 C18 1.46(2) .
C18 C17 1.387(19) 10_556
O7 O7 1.8(2) 12
O7 O7 1.81(14) 11_655
loop_
_geom_torsion_atom_site_label_1
_geom_torsion_atom_site_label_2
_geom_torsion_atom_site_label_3
_geom_torsion_atom_site_label_4
_geom_torsion
_geom_torsion_site_symmetry_1
_geom_torsion_site_symmetry_4
Zr1 O4 C1 O5 3.3(15) . .
Zr1 O4 C1 C2 -178.1(6) . .
Zr2 O5 C1 C2 177.8(6) . .
Zr2 O5 C1 O4 -3.6(16) . .
Zr2 O6 C14 O6 0.000(3) . 10_556
Zr2 O6 C14 C15 180.000(2) . .
C2 C7 C6 C5 -1.1(18) . .
C2 C3 C4 C5 -2.9(19) . .
C7 C2 C3 C4 1.5(17) . .
C7 C2 C1 O5 -168.0(9) . .
C7 C2 C1 O4 13.2(15) . .
C7 C6 C5 C4 -0.4(18) . .
C7 C6 C5 C8 179.9(11) . .
C6 C5 C4 C3 2.3(18) . .
C6 C5 C8 C9 40.8(16) . .
C6 C5 C8 C10 -137.1(13) . .
C3 C2 C7 C6 0.6(17) . .
C3 C2 C1 O5 13.8(14) . .
C3 C2 C1 O4 -165.0(10) . .
C5 C8 C10 C11 179.5(10) . .
C1 C2 C7 C6 -177.7(11) . .
C1 C2 C3 C4 179.7(11) . .
C4 C5 C8 C9 -138.9(11) . .
C4 C5 C8 C10 43.2(18) . .
C9 C8 C10 C11 1.5(18) . .
C8 C5 C4 C3 -178.0(11) . .
C8 C9 C8 C5 -178.7(13) 6 .
C8 C9 C8 C10 -0.8(9) 6 .
C8 C10 C11 C10 -0.8(9) . 6
C8 C10 C11 C12 179.2(9) . .
C15 C16 C17 C18 0.000(5) . .
C16 C15 C16 C17 0.000(4) 10_556 .
C16 C15 C14 O6 180.000(2) . 10_556
C16 C15 C14 O6 0.000(2) . .
C16 C15 C14 O6 180.000(2) 10_556 .
C16 C15 C14 O6 0.000(2) 10_556 10_556
C16 C17 C18 C17 0.000(4) . 10_556
C16 C17 C18 C19 180.000(2) . .
C14 C15 C16 C17 180.000(4) . .
C20 C20 C19 C20 -61(5) 10_556 3_556
C20 C20 C19 C20 125(4) 12 10_556
C20 C20 C19 C20 64(4) 12 3_556
C20 C20 C19 C20 -125(4) 10_556 12
C20 C20 C19 C20 61(5) 11_655 10_556
C20 C20 C19 C20 0.00(3) 11_655 3_556
C20 C20 C19 C20 -64(4) 11_655 12
C20 C20 C19 C18 -116(4) 12 .
C20 C20 C19 C18 119(5) 10_556 .
C20 C20 C19 C18 180.00(3) 11_655 .
C20 C20 O7 O7 90.4(12) 11_655 12
C20 C20 O7 O7 -90.4(12) 12 11_655
C20 C20 O7 O7 0.002(9) 11_655 11_655
C20 C20 O7 O7 0.000(6) 12 12
C20 C19 C18 C17 -43(5) 10_556 10_556
C20 C19 C18 C17 -43(5) 12 .
C20 C19 C18 C17 -137(5) 3_556 .
C20 C19 C18 C17 137(5) 10_556 .
C20 C19 C18 C17 43(5) 3_556 10_556
C20 C19 C18 C17 43(5) . .
C20 C19 C18 C17 137(5) 12 10_556
C20 C19 C18 C17 -137(5) . 10_556
C19 C20 O7 O7 -48(9) . 12
C19 C20 O7 O7 -138(10) . 11_655
O7 C20 C19 C20 65(11) . 12
O7 C20 C19 C20 129(13) . 3_556
O7 C20 C19 C20 -170(8) . 10_556
O7 C20 C19 C18 -51(13) . .
