#------------------------------------------------------------------------------
#$Date: 2019-11-26 04:12:51 +0200 (Tue, 26 Nov 2019) $
#$Revision: 242582 $
#$URL: file:///home/coder/svn-repositories/cod/cif/4/13/26/4132635.cif $
#------------------------------------------------------------------------------
#
# This file is available in the Crystallography Open Database (COD),
# http://www.crystallography.net/
#
# All data on this site have been placed in the public domain by the
# contributors.
#
data_4132635
loop_
_publ_author_name
'Lee, Seungkyu'
'B\"urgi, Hans-Beat'
'Alshmimri, Sultan A.'
'Yaghi, Omar M.'
_publ_section_title
;
 Impact of Disordered Guest-Framework Interactions on the Crystallography
 of Metal-Organic Frameworks.
;
_journal_issue                   28
_journal_name_full               'Journal of the American Chemical Society'
_journal_page_first              8958
_journal_page_last               8964
_journal_paper_doi               10.1021/jacs.8b05271
_journal_volume                  140
_journal_year                    2018
_chemical_formula_moiety         '0.25(C258.94 H163.96 O128 Zr24)'
_chemical_formula_sum            'C64.5 H41 O28.5 Zr6'
_chemical_formula_weight         1819.29
_chemical_name_systematic        UiO-67
_space_group_crystal_system      cubic
_space_group_IT_number           225
_space_group_name_Hall           '-F 4 2 3'
_space_group_name_H-M_alt        'F m -3 m'
_atom_sites_solution_hydrogens   mixed
_audit_creation_date             2018-04-24
_audit_creation_method
;
Olex2 1.2
(compiled 2017.08.10 svn.r3458 for OlexSys, GUI svn.r5381)
;
_cell_angle_alpha                90
_cell_angle_beta                 90
_cell_angle_gamma                90
_cell_formula_units_Z            4
_cell_length_a                   26.8422(6)
_cell_length_b                   26.8422(6)
_cell_length_c                   26.8422(6)
_cell_measurement_reflns_used    9843
_cell_measurement_temperature    260.15
_cell_measurement_theta_max      74.34
_cell_measurement_theta_min      2.85
_cell_volume                     19339.9(7)
_computing_cell_refinement       'SAINT V8.38A (?, 2016)'
_computing_data_reduction        'SAINT V8.38A (?, 2016)'
_computing_molecular_graphics    'Olex2 (Dolomanov et al., 2009)'
_computing_publication_material  'Olex2 (Dolomanov et al., 2009)'
_computing_structure_refinement  'ShelXL (Sheldrick, 2015)'
_computing_structure_solution    'SHELXT 2014/5 (Sheldrick, 2014)'
_diffrn_ambient_temperature      260.15
_diffrn_detector                 'CCD area detector'
_diffrn_detector_area_resol_mean 10.42
_diffrn_detector_type            'Bruker SMART CCD 1K area detector'
_diffrn_measured_fraction_theta_full 1.000
_diffrn_measured_fraction_theta_max 1.000
_diffrn_measurement_device       'three-circle diffractometer'
_diffrn_measurement_device_type  'Bruker D8 with PHOTON 100 detector'
_diffrn_measurement_method       '\f and \w shutterless scans'
_diffrn_radiation_monochromator  'silicon 111'
_diffrn_radiation_probe          x-ray
_diffrn_radiation_type           CuK\a
_diffrn_radiation_wavelength     1.54178
_diffrn_reflns_av_R_equivalents  0.1000
_diffrn_reflns_av_unetI/netI     0.0173
_diffrn_reflns_Laue_measured_fraction_full 1.000
_diffrn_reflns_Laue_measured_fraction_max 1.000
_diffrn_reflns_limit_h_max       33
_diffrn_reflns_limit_h_min       -33
_diffrn_reflns_limit_k_max       33
_diffrn_reflns_limit_k_min       -33
_diffrn_reflns_limit_l_max       33
_diffrn_reflns_limit_l_min       -33
_diffrn_reflns_number            41892
_diffrn_reflns_point_group_measured_fraction_full 1.000
_diffrn_reflns_point_group_measured_fraction_max 1.000
_diffrn_reflns_theta_full        67.679
_diffrn_reflns_theta_max         74.333
_diffrn_reflns_theta_min         2.851
_diffrn_source                   'sealed X-ray tube'
_diffrn_source_target            Mo
_diffrn_standards_number         0
_exptl_absorpt_coefficient_mu    2.819
_exptl_absorpt_correction_T_max  0.7176
_exptl_absorpt_correction_T_min  0.6241
_exptl_absorpt_correction_type   multi-scan
_exptl_absorpt_process_details
'SADABS-2016/2 (Bruker,2016/2) was used for absorption correction. wR2(int) was 0.1163 before and 0.0800 after correction. The Ratio of minimum to maximum transmission is 0.8697. The \l/2 correction factor is Not present.'
_exptl_crystal_colour            clear
_exptl_crystal_colour_lustre     clear
_exptl_crystal_density_diffrn    0.625
_exptl_crystal_description       'Truncated octahedron'
_exptl_crystal_F_000             3584
_exptl_crystal_size_max          0.1
_exptl_crystal_size_mid          0.1
_exptl_crystal_size_min          0.1
_platon_squeeze_details
;
TITL 260k1_a.res in Fm-3m
CELL   26.8422   26.8422   26.8422     90.00     90.00     90.00
SPGR Fm-3m
# Solvent Accessible Volume =     12350
# Electrons Found in S.A.V. =      3011
# Note: Atoms in Void are Labelled as Cxxx and Qxxx for all Others
Q101 0.112 0.120 0.106 !       2.28 eA-3
C102 0.500 0.502 0.250 !       1.32 eA-3
C103 0.345 0.343 0.157 !       1.04 eA-3
C104 0.250 0.250 0.250 !       0.90 eA-3
C105 0.326 0.369 0.173 !       0.90 eA-3
C106 0.642 0.321 0.141 !       0.84 eA-3
C107 0.335 0.335 0.225 !       0.80 eA-3
C108 0.617 0.381 0.157 !       0.79 eA-3
C109 0.944 0.323 0.045 !       0.79 eA-3
C110 0.687 0.342 0.158 !       0.78 eA-3
C111 0.666 0.166 0.166 !       0.77 eA-3
C112 0.500 0.042 0.176 !       0.74 eA-3
C113 0.149 0.305 0.151 !       0.73 eA-3
C114 0.135 0.338 0.133 !       0.73 eA-3
C115 0.842 0.213 0.134 !       0.71 eA-3
C116 0.690 0.189 0.347 !       0.70 eA-3
C117 0.781 0.312 0.365 !       0.69 eA-3
C118 0.196 0.466 0.034 !       0.68 eA-3
C119 0.140 0.390 0.139 !       0.68 eA-3
C120 0.544 0.211 0.001 !       0.67 eA-3
C121 0.664 0.132 0.166 !       0.66 eA-3
C122 0.392 0.133 0.001 !       0.66 eA-3
C123 0.368 0.140 0.140 !       0.64 eA-3
C124 1.000 0.080 0.344 !       0.60 eA-3
C125 0.850 0.355 0.225 !       0.59 eA-3
C126 0.912 0.084 0.283 !       0.58 eA-3
C127 0.515 0.015 0.015 !       0.57 eA-3
C128 0.689 0.419 0.419 !       0.56 eA-3
C129 0.500 0.195 0.004 !       0.56 eA-3
C130 0.500 0.140 0.140 !       0.56 eA-3
C131 0.650 0.041 0.041 !       0.55 eA-3
C132 0.118 0.391 0.115 !       0.55 eA-3
Q133 0.815 0.099 0.186 !       0.54 eA-3
C134 0.101 0.313 0.898 !       0.52 eA-3
C135 0.899 0.187 0.602 !       0.52 eA-3
C136 0.399 0.187 0.102 !       0.52 eA-3
Q137 0.730 0.480 0.224 !       0.52 eA-3
C138 0.399 0.602 0.687 !       0.52 eA-3
C139 0.593 0.095 0.015 !       0.52 eA-3
C140 0.725 0.225 0.225 !       0.51 eA-3
C141 0.079 0.353 0.091 !       0.51 eA-3
C142 0.157 0.115 0.285 !       0.51 eA-3
C143 0.345 0.178 0.212 !       0.51 eA-3
Q144 0.233 0.127 0.113 !       0.50 eA-3
C145 0.382 0.070 0.003 !       0.50 eA-3
C146 0.500 0.023 0.000 !       0.50 eA-3
;
_refine_diff_density_max         0.330
_refine_diff_density_min         -0.445
_refine_diff_density_rms         0.058
_refine_ls_extinction_method     none
_refine_ls_goodness_of_fit_ref   1.181
_refine_ls_hydrogen_treatment    constr
_refine_ls_matrix_type           full
_refine_ls_number_parameters     50
_refine_ls_number_reflns         1052
_refine_ls_number_restraints     12
_refine_ls_restrained_S_all      1.203
_refine_ls_R_factor_all          0.0303
_refine_ls_R_factor_gt           0.0260
_refine_ls_shift/su_max          0.001
_refine_ls_shift/su_mean         0.000
_refine_ls_structure_factor_coef Fsqd
_refine_ls_weighting_details
'w=1/[\s^2^(Fo^2^)+(0.0353P)^2^+47.0763P] where P=(Fo^2^+2Fc^2^)/3'
_refine_ls_weighting_scheme      calc
_refine_ls_wR_factor_gt          0.0719
_refine_ls_wR_factor_ref         0.0737
_reflns_Friedel_coverage         0.000
_reflns_number_gt                954
_reflns_number_total             1052
_reflns_threshold_expression     'I > 2\s(I)'
_iucr_refine_instructions_details
;
TITL 260k1_a.res in Fm-3m
    platon_sq.res
    created by SHELXL-2017/1 at 13:29:46 on 24-Apr-2018
REM Old TITL 260K1 in Fm-3m #225
REM SHELXT solution in Fm-3m
REM R1 0.174, Rweak 0.015, Alpha 0.020, Orientation as input
REM Formula found by SHELXT: C28 Zr3
CELL 1.54178 26.8422 26.8422 26.8422 90 90 90
ZERR 4 0.0006 0.0006 0.0006 0 0 0
LATT 4
SYMM -X,-Y,+Z
SYMM -X,+Y,-Z
SYMM +X,-Y,-Z
SYMM +Z,+X,+Y
SYMM +Z,-X,-Y
SYMM -Z,-X,+Y
SYMM -Z,+X,-Y
SYMM +Y,+Z,+X
SYMM -Y,+Z,-X
SYMM +Y,-Z,-X
SYMM -Y,-Z,+X
SYMM +Y,+X,-Z
SYMM -Y,-X,-Z
SYMM +Y,-X,+Z
SYMM -Y,+X,+Z
SYMM +X,+Z,-Y
SYMM -X,+Z,+Y
SYMM -X,-Z,-Y
SYMM +X,-Z,+Y
SYMM +Z,+Y,-X
SYMM +Z,-Y,+X
SYMM -Z,+Y,+X
SYMM -Z,-Y,-X
SFAC C H O Zr
UNIT 258 164 114 24
ISOR 0.01 0.02 C5
ISOR 0.02 0.04 C2AA

L.S. 5 0 18
PLAN  100
SIZE 0.1 0.1 0.1
TEMP -13
BOND $H
list 4
ABIN
fmap 2
acta
REM <olex2.extras>
REM <HklSrc "%.\\platon_sq.hkl">
REM </olex2.extras>

WGHT    0.035300   47.076302
FVAR       0.08476   0.77064
ZR1   4    1.000000    0.500000    0.592390    10.12500    0.01612    0.01612 =
         0.00968    0.00000    0.00000    0.00000
O3    3    1.073301    0.500000    0.631711    20.50000    0.02034    0.05157 =
         0.01764    0.00000   -0.00757    0.00000
C1    1    1.117506    0.500000    0.617506    20.25000    0.01984    0.04074 =
         0.01984    0.00000   -0.01270    0.00000
C2    1    1.156724    0.500000    0.656724    20.25000    0.02332    0.08535 =
         0.02332    0.00000   -0.01623    0.00000
C5    1    1.230067    0.500000    0.730067    20.25000    0.03723    0.11455 =
         0.03723    0.00000   -0.02204    0.00000
PART 2
O1    3    1.039528    0.539528    0.539528    10.08333    0.01407    0.01407 =
         0.01407    0.00186    0.00186    0.00186
PART 0
PART 1
O2    3    1.052615    0.552615    0.552615    10.08333    0.02147    0.02147 =
         0.02147   -0.00638   -0.00638   -0.00638
PART 0
PART 2
O4    3    1.060678    0.500000    0.646606   -20.50000    0.04255
PART 0
H1    2   11.069201   10.569201   10.569201    10.08333   10.05000
PART -1
C3    1    1.241889    0.488415    0.680264    20.50000    0.02449    0.19613 =
         0.03475   -0.00340   -0.01700    0.02052
AFIX  43
H3    2    1.274700    0.481305    0.671703    20.50000   -1.20000
AFIX   0
C2AA  1    1.205449    0.487472    0.643997    20.50000    0.02947    0.09076 =
         0.02501   -0.00682   -0.01252    0.01230
AFIX  43
H2AA  2    1.213332    0.478579    0.611452    20.50000   -1.20000
AFIX   0
HKLF 4




REM  260k1_a.res in Fm-3m
REM R1 =  0.0260 for     954 Fo > 4sig(Fo)  and  0.0303 for all    1052 data
REM     50 parameters refined using     12 restraints

END  
     
WGHT      0.0353     47.0956 

REM Highest difference peak  0.330,  deepest hole -0.445,  1-sigma level  0.058
Q1    1   1.2092  0.5000  0.6104  10.50000  0.05    0.33
Q2    1   1.1408  0.5000  0.6408  10.25000  0.05    0.20
Q3    1   0.9868  0.5000  0.5978  10.50000  0.05    0.20
Q4    1   1.2898  0.4809  0.6706  11.00000  0.05    0.19
Q5    1   1.0000  0.5000  0.6117  10.12500  0.05    0.19
Q6    1   1.0920  0.5313  0.6663  11.00000  0.05    0.19
Q7    1   1.2205  0.5290  0.7302  11.00000  0.05    0.19
Q8    1   1.2439  0.5000  0.6921  10.50000  0.05    0.18
Q9    1   1.2862  0.5000  0.6617  10.50000  0.05    0.16
Q10   1   1.1571  0.5000  0.6812  10.50000  0.05    0.16
Q11   1   1.2048  0.4457  0.6100  11.00000  0.05    0.15
Q12   1   1.1108  0.6108  0.6108  10.16667  0.05    0.15
Q13   1   1.2320  0.4612  0.7036  11.00000  0.05    0.14
Q14   1   1.2691  0.4462  0.6591  11.00000  0.05    0.14
Q15   1   1.2020  0.4401  0.6171  11.00000  0.05    0.14
Q16   1   1.2216  0.4434  0.6241  11.00000  0.05    0.14
Q17   1   1.2333  0.4429  0.6313  11.00000  0.05    0.14
Q18   1   1.2782  0.3155  0.6845  10.50000  0.05    0.13
Q19   1   1.1983  0.5000  0.6541  10.50000  0.05    0.13
Q20   1   1.2386  0.4857  0.6919  11.00000  0.05    0.13
Q21   1   1.1735  0.4426  0.6249  11.00000  0.05    0.12
Q22   1   1.1439  0.4870  0.6439  10.50000  0.05    0.12
Q23   1   1.1574  0.5561  0.6312  11.00000  0.05    0.12
Q24   1   1.0420  0.5000  0.6626  10.50000  0.05    0.11
Q25   1   1.1756  0.5000  0.6447  10.50000  0.05    0.11
Q26   1   1.1260  0.5501  0.6549  11.00000  0.05    0.11
Q27   1   1.1806  0.4790  0.6417  11.00000  0.05    0.10
Q28   1   1.2713  0.5000  0.5000  10.12500  0.05    0.10
Q29   1   1.1797  0.4526  0.6403  11.00000  0.05    0.10
Q30   1   1.3114  0.3885  0.6886  10.50000  0.05    0.10
Q31   1   1.3312  0.4689  0.5311  10.50000  0.05    0.10
Q32   1   1.2108  0.3506  0.7108  10.50000  0.05    0.10
Q33   1   1.0000  0.5000  0.6856  10.12500  0.05    0.09
Q34   1   1.1943  0.3789  0.6805  11.00000  0.05    0.09
Q35   1   1.1885  0.3796  0.6885  10.50000  0.05    0.09
Q36   1   1.2821  0.3675  0.6325  10.50000  0.05    0.09
Q37   1   1.2400  0.5000  0.7400  10.25000  0.05    0.09
Q38   1   1.3056  0.4355  0.5645  10.50000  0.05    0.09
Q39   1   1.3892  0.5000  0.6108  10.25000  0.05    0.09
Q40   1   1.2500  0.2659  0.7500  10.25000  0.05    0.09
Q41   1   1.2944  0.4500  0.7056  10.50000  0.05    0.09
Q42   1   1.2454  0.5000  0.5314  10.50000  0.05    0.09
Q43   1   1.3486  0.3486  0.6514  10.16667  0.05    0.09
Q44   1   1.2215  0.2987  0.7215  10.50000  0.05    0.08
Q45   1   1.1625  0.4577  0.6025  11.00000  0.05    0.08
Q46   1   1.1611  0.3741  0.6259  10.50000  0.05    0.08
Q47   1   1.2395  0.4599  0.6231  11.00000  0.05    0.08
Q48   1   1.2949  0.5000  0.5314  10.50000  0.05    0.08
Q49   1   1.2481  0.2863  0.7137  10.50000  0.05    0.08
Q50   1   1.2983  0.4133  0.5867  10.50000  0.05    0.08
Q51   1   1.2600  0.5000  0.5475  10.50000  0.05    0.08
Q52   1   1.3087  0.5000  0.5657  10.50000  0.05    0.08
Q53   1   1.3158  0.3395  0.6842  10.50000  0.05    0.08
Q54   1   1.2050  0.4064  0.6876  11.00000  0.05    0.08
Q55   1   1.2575  0.5000  0.6265  10.50000  0.05    0.07
Q56   1   1.3155  0.3997  0.6302  11.00000  0.05    0.07
Q57   1   1.5000  0.5000  0.5000  10.02083  0.05    0.07
Q58   1   1.1858  0.4073  0.6079  11.00000  0.05    0.07
Q59   1   1.1700  0.4039  0.5961  10.50000  0.05    0.07
Q60   1   1.3620  0.3963  0.6038  10.50000  0.05    0.07
Q61   1   1.1927  0.3917  0.6650  11.00000  0.05    0.07
Q62   1   1.1712  0.3288  0.6712  10.16667  0.05    0.07
Q63   1   1.1988  0.3652  0.6748  11.00000  0.05    0.07
Q64   1   1.4206  0.5000  0.5794  10.25000  0.05    0.07
Q65   1   1.2588  0.4172  0.5828  10.50000  0.05    0.07
Q66   1   1.2258  0.3421  0.6911  11.00000  0.05    0.07
Q67   1   1.1786  0.4102  0.6611  11.00000  0.05    0.07
Q68   1   1.2085  0.3905  0.7085  10.50000  0.05    0.07
Q69   1   1.2332  0.3664  0.7332  10.50000  0.05    0.07
Q70   1   1.2231  0.3610  0.6390  10.50000  0.05    0.07
Q71   1   1.2728  0.4777  0.6226  11.00000  0.05    0.07
Q72   1   1.2393  0.3503  0.6914  11.00000  0.05    0.07
Q73   1   1.1994  0.4286  0.6638  11.00000  0.05    0.07
Q74   1   1.2286  0.3094  0.7286  10.50000  0.05    0.07
Q75   1   1.3305  0.4716  0.6148  11.00000  0.05    0.07
Q76   1   1.2890  0.4299  0.6082  11.00000  0.05    0.07
Q77   1   1.3230  0.3901  0.6278  11.00000  0.05    0.07
Q78   1   1.2810  0.4223  0.6268  11.00000  0.05    0.07
Q79   1   1.2396  0.3224  0.6893  11.00000  0.05    0.07
Q80   1   1.3539  0.3994  0.6194  11.00000  0.05    0.07
Q81   1   1.3726  0.4543  0.5457  10.50000  0.05    0.06
Q82   1   1.4037  0.5000  0.5217  10.50000  0.05    0.06
Q83   1   1.2066  0.4049  0.6038  11.00000  0.05    0.06
Q84   1   1.3110  0.4441  0.6890  10.50000  0.05    0.06
Q85   1   1.2486  0.3780  0.6743  11.00000  0.05    0.06
Q86   1   1.3086  0.4215  0.5998  11.00000  0.05    0.06
Q87   1   1.2592  0.3921  0.6079  10.50000  0.05    0.06
Q88   1   1.2119  0.3438  0.6993  11.00000  0.05    0.06
Q89   1   1.2621  0.3503  0.6645  11.00000  0.05    0.06
Q90   1   1.3474  0.5000  0.5000  10.12500  0.05    0.06
Q91   1   1.1915  0.3585  0.6524  11.00000  0.05    0.06
Q92   1   1.3357  0.5000  0.5869  10.50000  0.05    0.06
Q93   1   1.2847  0.3728  0.6908  11.00000  0.05    0.06
Q94   1   1.2667  0.4781  0.5591  11.00000  0.05    0.06
Q95   1   1.2312  0.6213  0.7312  10.50000  0.05    0.06
Q96   1   1.2862  0.3456  0.6544  10.50000  0.05    0.06
Q97   1   1.2037  0.4166  0.6798  11.00000  0.05    0.06
Q98   1   1.2500  0.5000  0.7500  10.12500  0.05    0.06
Q99   1   1.2926  0.4248  0.6189  11.00000  0.05    0.06
Q100  1   1.3005  0.5000  0.5823  10.50000  0.05    0.06

  REM The information below was added by Olex2.
  REM
  REM R1 = 0.0260 for 954 Fo > 4sig(Fo) and 0.0303 for all 41892 data
  REM n/a parameters refined using n/a restraints
  REM Highest difference peak 0.33, deepest hole -0.45
  REM Mean Shift 0, Max Shift -0.001.

  REM +++ Tabular Listing of Refinement Information +++
  REM R1_all = 0.0303
  REM R1_gt = 0.0260
  REM wR_ref = 0.0737
  REM GOOF = 1.181
  REM Shift_max = -0.001
  REM Shift_mean = 0
  REM Reflections_all = 41892
  REM Reflections_gt = 954
  REM Parameters = n/a
  REM Hole = -0.45
  REM Peak = 0.33
  REM Flack = n/a

  
;
_cod_data_source_file            Uio-67_22defect_DMF_260K1.cif
_cod_data_source_block           UiO-67_22defect_DMF_260K1
_cod_original_cell_volume        19339.9(13)
_cod_original_formula_sum        'C64.50 H41 O28.50 Zr6'
_cod_database_code               4132635
_shelx_shelxl_version_number     2017/1
_shelx_space_group_comment
;
The symmetry employed for this shelxl refinement is uniquely defined
by the following loop, which should always be used as a source of
symmetry information in preference to the above space-group names.
They are only intended as comments.
;
_shelx_estimated_absorpt_t_max   0.766
_shelx_estimated_absorpt_t_min   0.766
_olex2_refinement_description
;
1. Fixed Uiso
 At 1.2 times of:
  All C(H) groups
2. Uiso/Uaniso restraints and constraints
Uanis(C5) \\sim Ueq: with sigma of 0.01 and sigma for terminal atoms of 0.02
Uanis(C2AA) \\sim Ueq: with sigma of 0.02 and sigma for terminal atoms of 0.04
3. Others
 Sof(O4)=0.5*(1-FVAR(2))
 Sof(C1)=Sof(C2)=Sof(C5)=0.25*FVAR(2)
 Sof(O3)=Sof(C3)=Sof(H3)=Sof(C2AA)=Sof(H2AA)=0.5*FVAR(2)
 Fixed Sof: O1(0.08333) O2(0.08333) H1(0.08333)
 Fixed Uiso: H1(0.05)
 Fixed X: H1(1.069201)
 Fixed Y: H1(0.569201)
 Fixed Z: H1(0.569201)
4.a Aromatic/amide H refined with riding coordinates:
 C3(H3), C2AA(H2AA)
;
_shelx_fab_file
;
 1 1 1 -550.67 0.00
 0 0 2 -161.44 0.00
 0 2 2 249.09 0.00
 2 2 2 -364.07 0.00
 1 1 3 22.18 0.00
 1 3 3 191.48 0.00
 3 3 3 -27.20 0.00
 0 0 4 -447.25 0.00
 0 2 4 183.59 0.00
 2 2 4 -141.12 0.00
 0 4 4 202.16 0.00
 2 4 4 -5.15 0.00
 4 4 4 87.73 0.00
 1 1 5 -77.25 0.00
 1 3 5 -75.33 0.00
 3 3 5 -36.03 0.00
 1 5 5 57.84 0.00
 3 5 5 -70.16 0.00
 5 5 5 -93.42 0.00
 0 0 6 195.56 0.00
 0 2 6 -57.21 0.00
 2 2 6 100.80 0.00
 0 4 6 -2.70 0.00
 2 4 6 27.22 0.00
 4 4 6 24.89 0.00
 0 6 6 19.58 0.00
 2 6 6 -110.72 0.00
 4 6 6 -5.99 0.00
 6 6 6 -24.44 0.00
 1 1 7 35.86 0.00
 1 3 7 -12.28 0.00
 3 3 7 -17.40 0.00
 1 5 7 30.85 0.00
 3 5 7 18.08 0.00
 5 5 7 32.31 0.00
 1 7 7 -6.37 0.00
 3 7 7 5.52 0.00
 5 7 7 10.69 0.00
 7 7 7 4.86 0.00
 0 0 8 153.49 0.00
 0 2 8 -72.35 0.00
 2 2 8 18.95 0.00
 0 4 8 -84.51 0.00
 2 4 8 -6.42 0.00
 4 4 8 63.85 0.00
 0 6 8 -24.70 0.00
 2 6 8 -27.63 0.00
 4 6 8 19.79 0.00
 6 6 8 -10.52 0.00
 0 8 8 91.73 0.00
 2 8 8 25.46 0.00
 4 8 8 4.25 0.00
 6 8 8 -12.19 0.00
 8 8 8 26.03 0.00
 1 1 9 40.12 0.00
 1 3 9 -31.06 0.00
 3 3 9 5.20 0.00
 1 5 9 14.93 0.00
 3 5 9 28.71 0.00
 5 5 9 5.81 0.00
 1 7 9 2.23 0.00
 3 7 9 -7.68 0.00
 5 7 9 -25.26 0.00
 7 7 9 -1.54 0.00
 1 9 9 17.69 0.00
 3 9 9 -27.93 0.00
 5 9 9 -12.26 0.00
 7 9 9 5.70 0.00
 9 9 9 9.94 0.00
 0 0 10 -35.18 0.00
 0 2 10 34.69 0.00
 2 2 10 -16.80 0.00
 0 4 10 2.39 0.00
 2 4 10 1.52 0.00
 4 4 10 28.43 0.00
 0 6 10 -41.99 0.00
 2 6 10 -10.11 0.00
 4 6 10 5.35 0.00
 6 6 10 -18.14 0.00
 0 8 10 22.42 0.00
 2 8 10 -5.46 0.00
 4 8 10 -17.58 0.00
 6 8 10 4.71 0.00
 8 8 10 27.38 0.00
 0 10 10 -3.27 0.00
 2 10 10 -23.06 0.00
 4 10 10 -10.18 0.00
 6 10 10 -12.10 0.00
 8 10 10 -2.74 0.00
 10 10 10 4.55 0.00
 1 1 11 -0.22 0.00
 1 3 11 -3.48 0.00
 3 3 11 -24.24 0.00
 1 5 11 1.18 0.00
 3 5 11 0.00 0.00
 5 5 11 5.19 0.00
 1 7 11 6.86 0.00
 3 7 11 0.85 0.00
 5 7 11 -10.51 0.00
 7 7 11 3.83 0.00
 1 9 11 6.77 0.00
 3 9 11 3.04 0.00
 5 9 11 15.09 0.00
 7 9 11 3.93 0.00
 9 9 11 -7.52 0.00
 1 11 11 -5.72 0.00
 3 11 11 5.69 0.00
 5 11 11 1.28 0.00
 7 11 11 -3.00 0.00
 9 11 11 -3.09 0.00
 11 11 11 7.77 0.00
 0 0 12 -18.75 0.00
 0 2 12 0.40 0.00
 2 2 12 -12.83 0.00
 0 4 12 15.18 0.00
 2 4 12 -2.17 0.00
 4 4 12 10.16 0.00
 0 6 12 3.92 0.00
 2 6 12 1.04 0.00
 4 6 12 -8.84 0.00
 6 6 12 -4.33 0.00
 0 8 12 4.19 0.00
 2 8 12 -3.28 0.00
 4 8 12 14.07 0.00
 6 8 12 6.36 0.00
 8 8 12 0.45 0.00
 0 10 12 -11.97 0.00
 2 10 12 -1.37 0.00
 4 10 12 13.70 0.00
 6 10 12 4.01 0.00
 8 10 12 -11.81 0.00
 10 10 12 -1.34 0.00
 0 12 12 15.59 0.00
 2 12 12 9.87 0.00
 4 12 12 -3.50 0.00
 6 12 12 -1.94 0.00
 8 12 12 14.21 0.00
 10 12 12 1.29 0.00
 12 12 12 -3.62 0.00
 1 1 13 -20.13 0.00
 1 3 13 25.07 0.00
 3 3 13 -4.30 0.00
 1 5 13 22.02 0.00
 3 5 13 -12.40 0.00
 5 5 13 -14.10 0.00
 1 7 13 -8.60 0.00
 3 7 13 -13.66 0.00
 5 7 13 13.37 0.00
 7 7 13 -1.39 0.00
 1 9 13 -13.39 0.00
 3 9 13 14.83 0.00
 5 9 13 3.52 0.00
 7 9 13 -11.99 0.00
 9 9 13 -6.68 0.00
 1 11 13 -4.84 0.00
 3 11 13 -3.63 0.00
 5 11 13 -5.82 0.00
 7 11 13 0.92 0.00
 9 11 13 1.39 0.00
 11 11 13 -0.80 0.00
 1 13 13 10.37 0.00
 3 13 13 -4.72 0.00
 5 13 13 10.98 0.00
 7 13 13 -1.22 0.00
 9 13 13 4.95 0.00
 11 13 13 -4.81 0.00
 13 13 13 -1.00 0.00
 0 0 14 -6.70 0.00
 0 2 14 -4.22 0.00
 2 2 14 -4.15 0.00
 0 4 14 21.93 0.00
 2 4 14 0.54 0.00
 4 4 14 -24.92 0.00
 0 6 14 18.66 0.00
 2 6 14 -9.02 0.00
 4 6 14 -4.30 0.00
 6 6 14 2.02 0.00
 0 8 14 -20.92 0.00
 2 8 14 5.14 0.00
 4 8 14 22.80 0.00
 6 8 14 0.48 0.00
 8 8 14 -6.86 0.00
 0 10 14 -5.22 0.00
 2 10 14 0.33 0.00
 4 10 14 7.18 0.00
 6 10 14 -0.73 0.00
 8 10 14 -4.81 0.00
 10 10 14 -6.27 0.00
 0 12 14 4.21 0.00
 2 12 14 0.57 0.00
 4 12 14 -9.75 0.00
 6 12 14 -10.62 0.00
 8 12 14 11.71 0.00
 10 12 14 2.56 0.00
 12 12 14 0.81 0.00
 0 14 14 -1.11 0.00
 2 14 14 0.76 0.00
 4 14 14 -10.27 0.00
 6 14 14 -13.51 0.00
 8 14 14 1.62 0.00
 10 14 14 7.39 0.00
 12 14 14 -1.34 0.00
 14 14 14 -4.48 0.00
 1 1 15 -11.13 0.00
 1 3 15 -0.24 0.00
 3 3 15 -4.38 0.00
 1 5 15 6.27 0.00
 3 5 15 -8.17 0.00
 5 5 15 -4.58 0.00
 1 7 15 -11.78 0.00
 3 7 15 3.72 0.00
 5 7 15 4.29 0.00
 7 7 15 -3.38 0.00
 1 9 15 -5.86 0.00
 3 9 15 2.59 0.00
 5 9 15 8.70 0.00
 7 9 15 -5.66 0.00
 9 9 15 -4.74 0.00
 1 11 15 5.54 0.00
 3 11 15 -15.31 0.00
 5 11 15 2.20 0.00
 7 11 15 -3.86 0.00
 9 11 15 -0.44 0.00
 11 11 15 5.53 0.00
 1 13 15 4.21 0.00
 3 13 15 -1.75 0.00
 5 13 15 -1.19 0.00
 7 13 15 5.35 0.00
 9 13 15 -2.02 0.00
 11 13 15 4.58 0.00
 13 13 15 -11.14 0.00
 1 15 15 -1.65 0.00
 3 15 15 -1.96 0.00
 5 15 15 -7.33 0.00
 7 15 15 3.39 0.00
 9 15 15 1.26 0.00
 11 15 15 -4.99 0.00
 13 15 15 -3.46 0.00
 15 15 15 11.13 0.00
 0 0 16 12.01 0.00
 0 2 16 6.26 0.00
 2 2 16 0.50 0.00
 0 4 16 0.46 0.00
 2 4 16 2.03 0.00
 4 4 16 6.50 0.00
 0 6 16 0.19 0.00
 2 6 16 1.65 0.00
 4 6 16 2.85 0.00
 6 6 16 -0.76 0.00
 0 8 16 7.30 0.00
 2 8 16 0.03 0.00
 4 8 16 -0.74 0.00
 6 8 16 -2.92 0.00
 8 8 16 8.88 0.00
 0 10 16 1.04 0.00
 2 10 16 4.69 0.00
 4 10 16 5.73 0.00
 6 10 16 -0.78 0.00
 8 10 16 10.94 0.00
 10 10 16 -7.41 0.00
 0 12 16 1.61 0.00
 2 12 16 7.87 0.00
 4 12 16 5.41 0.00
 6 12 16 0.13 0.00
 8 12 16 0.40 0.00
 10 12 16 7.78 0.00
 12 12 16 1.73 0.00
 0 14 16 1.08 0.00
 2 14 16 1.27 0.00
 4 14 16 0.91 0.00
 6 14 16 5.81 0.00
 8 14 16 5.41 0.00
 10 14 16 -9.00 0.00
 12 14 16 -6.43 0.00
 14 14 16 2.62 0.00
 0 16 16 -5.59 0.00
 2 16 16 -2.91 0.00
 4 16 16 6.00 0.00
 6 16 16 4.48 0.00
 8 16 16 7.62 0.00
 10 16 16 -2.27 0.00
 12 16 16 4.04 0.00
 14 16 16 9.59 0.00
 16 16 16 -0.22 0.00
 1 1 17 9.77 0.00
 1 3 17 -8.33 0.00
 3 3 17 0.14 0.00
 1 5 17 -9.10 0.00
 3 5 17 10.99 0.00
 5 5 17 7.26 0.00
 1 7 17 3.09 0.00
 3 7 17 1.53 0.00
 5 7 17 -3.94 0.00
 7 7 17 0.62 0.00
 1 9 17 9.84 0.00
 3 9 17 -8.91 0.00
 5 9 17 -3.48 0.00
 7 9 17 -0.65 0.00
 9 9 17 5.06 0.00
 1 11 17 -0.46 0.00
 3 11 17 -8.12 0.00
 5 11 17 -2.40 0.00
 7 11 17 -6.28 0.00
 9 11 17 -0.93 0.00
 11 11 17 0.00 0.00
 1 13 17 -5.23 0.00
 3 13 17 -1.65 0.00
 5 13 17 2.02 0.00
 7 13 17 -0.40 0.00
 9 13 17 -8.33 0.00
 11 13 17 15.44 0.00
 13 13 17 -4.89 0.00
 1 15 17 -1.97 0.00
 3 15 17 4.66 0.00
 5 15 17 4.56 0.00
 7 15 17 0.70 0.00
 9 15 17 -5.77 0.00
 11 15 17 0.46 0.00
 13 15 17 4.30 0.00
 15 15 17 4.81 0.00
 1 17 17 3.33 0.00
 3 17 17 -5.33 0.00
 5 17 17 -9.02 0.00
 7 17 17 3.50 0.00
 9 17 17 -1.76 0.00
 11 17 17 -1.37 0.00
 13 17 17 -2.41 0.00
 15 17 17 -6.84 0.00
 17 17 17 -0.37 0.00
 0 0 18 17.93 0.00
 0 2 18 2.97 0.00
 2 2 18 -2.74 0.00
 0 4 18 -20.56 0.00
 2 4 18 -1.30 0.00
 4 4 18 13.04 0.00
 0 6 18 -10.15 0.00
 2 6 18 -1.09 0.00
 4 6 18 3.72 0.00
 6 6 18 -3.86 0.00
 0 8 18 10.07 0.00
 2 8 18 -9.44 0.00
 4 8 18 -9.45 0.00
 6 8 18 -2.15 0.00
 8 8 18 -4.04 0.00
 0 10 18 2.72 0.00
 2 10 18 0.48 0.00
 4 10 18 -10.53 0.00
 6 10 18 -9.04 0.00
 8 10 18 5.12 0.00
 10 10 18 3.03 0.00
 0 12 18 -7.75 0.00
 2 12 18 5.00 0.00
 4 12 18 5.03 0.00
 6 12 18 -4.18 0.00
 8 12 18 3.94 0.00
 10 12 18 -8.61 0.00
 12 12 18 -8.51 0.00
 0 14 18 -6.87 0.00
 2 14 18 -6.10 0.00
 4 14 18 7.85 0.00
 6 14 18 -0.12 0.00
 8 14 18 -10.59 0.00
 10 14 18 -13.03 0.00
 12 14 18 -0.77 0.00
 14 14 18 2.02 0.00
 0 16 18 -1.62 0.00
 2 16 18 -2.22 0.00
 4 16 18 0.68 0.00
 6 16 18 -3.70 0.00
 8 16 18 -1.15 0.00
 10 16 18 1.79 0.00
 12 16 18 5.62 0.00
 14 16 18 -1.22 0.00
 16 16 18 -6.06 0.00
 0 18 18 26.04 0.00
 2 18 18 3.35 0.00
 4 18 18 -6.07 0.00
 6 18 18 -4.40 0.00
 8 18 18 5.07 0.00
 10 18 18 -4.00 0.00
 12 18 18 -9.96 0.00
 14 18 18 -10.67 0.00
 16 18 18 0.41 0.00
 18 18 18 17.29 0.00
 1 1 19 -0.25 0.00
 1 3 19 4.84 0.00
 3 3 19 -9.56 0.00
 1 5 19 -6.84 0.00
 3 5 19 3.02 0.00
 5 5 19 12.15 0.00
 1 7 19 4.28 0.00
 3 7 19 -3.46 0.00
 5 7 19 -0.79 0.00
 7 7 19 -3.09 0.00
 1 9 19 9.54 0.00
 3 9 19 1.75 0.00
 5 9 19 -8.30 0.00
 7 9 19 12.60 0.00
 9 9 19 7.53 0.00
 1 11 19 -3.62 0.00
 3 11 19 5.20 0.00
 5 11 19 3.68 0.00
 7 11 19 5.51 0.00
 9 11 19 3.38 0.00
 11 11 19 0.37 0.00
 1 13 19 -5.89 0.00
 3 13 19 -4.16 0.00
 5 13 19 10.52 0.00
 7 13 19 6.33 0.00
 9 13 19 -5.68 0.00
 11 13 19 -6.16 0.00
 13 13 19 13.89 0.00
 1 15 19 10.86 0.00
 3 15 19 2.81 0.00
 5 15 19 7.26 0.00
 7 15 19 -8.75 0.00
 9 15 19 -5.79 0.00
 11 15 19 19.79 0.00
 13 15 19 -0.75 0.00
 15 15 19 -8.78 0.00
 1 17 19 -6.26 0.00
 3 17 19 1.78 0.00
 5 17 19 -1.37 0.00
 7 17 19 1.74 0.00
 9 17 19 10.90 0.00
 11 17 19 -0.61 0.00
 13 17 19 -6.10 0.00
 15 17 19 1.07 0.00
 17 17 19 7.52 0.00
 1 19 19 0.05 0.00
 3 19 19 2.31 0.00
 5 19 19 -12.78 0.00
 7 19 19 18.23 0.00
 9 19 19 13.43 0.00
 11 19 19 -3.88 0.00
 13 19 19 5.71 0.00
 15 19 19 1.90 0.00
 17 19 19 1.17 0.00
 19 19 19 11.42 0.00
 0 0 20 -1.03 0.00
 0 2 20 -0.19 0.00
 2 2 20 1.38 0.00
 0 4 20 0.01 0.00
 2 4 20 3.94 0.00
 4 4 20 -4.42 0.00
 0 6 20 3.32 0.00
 2 6 20 4.66 0.00
 4 6 20 5.40 0.00
 6 6 20 -2.69 0.00
 0 8 20 1.15 0.00
 2 8 20 9.56 0.00
 4 8 20 -4.15 0.00
 6 8 20 -1.87 0.00
 8 8 20 -2.00 0.00
 0 10 20 3.83 0.00
 2 10 20 -2.44 0.00
 4 10 20 -1.57 0.00
 6 10 20 3.62 0.00
 8 10 20 3.26 0.00
 10 10 20 -5.96 0.00
 0 12 20 -1.22 0.00
 2 12 20 -2.63 0.00
 4 12 20 12.61 0.00
 6 12 20 0.59 0.00
 8 12 20 -2.35 0.00
 10 12 20 -3.16 0.00
 12 12 20 9.08 0.00
 0 14 20 -8.48 0.00
 2 14 20 -0.03 0.00
 4 14 20 -2.20 0.00
 6 14 20 -6.46 0.00
 8 14 20 12.40 0.00
 10 14 20 -1.16 0.00
 12 14 20 1.45 0.00
 14 14 20 1.13 0.00
 0 16 20 9.01 0.00
 2 16 20 -10.43 0.00
 4 16 20 -5.10 0.00
 6 16 20 -6.35 0.00
 8 16 20 1.61 0.00
 10 16 20 8.07 0.00
 12 16 20 1.87 0.00
 14 16 20 1.05 0.00
 16 16 20 -3.36 0.00
 0 18 20 0.33 0.00
 2 18 20 4.09 0.00
 4 18 20 -3.77 0.00
 6 18 20 1.29 0.00
 8 18 20 -15.89 0.00
 10 18 20 0.35 0.00
 12 18 20 1.53 0.00
 14 18 20 -5.44 0.00
 16 18 20 6.66 0.00
 18 18 20 -23.68 0.00
 0 20 20 -2.70 0.00
 2 20 20 -5.04 0.00
 4 20 20 -2.28 0.00
 6 20 20 8.19 0.00
 8 20 20 -2.09 0.00
 10 20 20 -8.34 0.00
 12 20 20 -0.21 0.00
 14 20 20 2.71 0.00
 16 20 20 0.24 0.00
 18 20 20 -1.21 0.00
 1 1 21 -1.59 0.00
 1 3 21 1.15 0.00
 3 3 21 3.76 0.00
 1 5 21 -5.23 0.00
 3 5 21 -2.12 0.00
 5 5 21 14.86 0.00
 1 7 21 -0.28 0.00
 3 7 21 -11.30 0.00
 5 7 21 -1.08 0.00
 7 7 21 3.43 0.00
 1 9 21 -4.40 0.00
 3 9 21 1.51 0.00
 5 9 21 -0.49 0.00
 7 9 21 2.44 0.00
 9 9 21 -2.49 0.00
 1 11 21 -0.46 0.00
 3 11 21 -0.56 0.00
 5 11 21 0.63 0.00
 7 11 21 -1.70 0.00
 9 11 21 -6.80 0.00
 11 11 21 4.12 0.00
 1 13 21 5.41 0.00
 3 13 21 -5.46 0.00
 5 13 21 -1.90 0.00
 7 13 21 -4.96 0.00
 9 13 21 -1.54 0.00
 11 13 21 -0.14 0.00
 13 13 21 -4.63 0.00
 1 15 21 4.77 0.00
 3 15 21 14.38 0.00
 5 15 21 -4.02 0.00
 7 15 21 -4.18 0.00
 9 15 21 3.01 0.00
 11 15 21 -3.06 0.00
 13 15 21 -1.91 0.00
 15 15 21 -6.83 0.00
 1 17 21 -4.15 0.00
 3 17 21 8.38 0.00
 5 17 21 2.27 0.00
 7 17 21 0.86 0.00
 9 17 21 1.87 0.00
 11 17 21 -4.68 0.00
 13 17 21 1.62 0.00
 15 17 21 7.09 0.00
 17 17 21 0.61 0.00
 1 19 21 -0.50 0.00
 3 19 21 -3.07 0.00
 5 19 21 5.94 0.00
 7 19 21 3.51 0.00
 9 19 21 -5.39 0.00
 11 19 21 -3.83 0.00
 13 19 21 4.26 0.00
 15 19 21 2.59 0.00
 17 19 21 5.84 0.00
 1 21 21 3.03 0.00
 3 21 21 -4.85 0.00
 5 21 21 3.84 0.00
 7 21 21 0.64 0.00
 9 21 21 -0.49 0.00
 11 21 21 2.91 0.00
 13 21 21 2.25 0.00
 15 21 21 -6.72 0.00
 0 0 22 5.16 0.00
 0 2 22 -4.34 0.00
 2 2 22 -3.50 0.00
 0 4 22 -1.42 0.00
 2 4 22 4.93 0.00
 4 4 22 -11.51 0.00
 0 6 22 9.69 0.00
 2 6 22 9.71 0.00
 4 6 22 -13.32 0.00
 6 6 22 -1.54 0.00
 0 8 22 -14.42 0.00
 2 8 22 -1.52 0.00
 4 8 22 5.56 0.00
 6 8 22 -1.00 0.00
 8 8 22 -4.18 0.00
 0 10 22 -1.01 0.00
 2 10 22 -3.92 0.00
 4 10 22 2.09 0.00
 6 10 22 -2.55 0.00
 8 10 22 -8.74 0.00
 10 10 22 -0.66 0.00
 0 12 22 4.78 0.00
 2 12 22 -0.28 0.00
 4 12 22 -6.65 0.00
 6 12 22 -3.18 0.00
 8 12 22 2.83 0.00
 10 12 22 3.41 0.00
 12 12 22 0.22 0.00
 0 14 22 2.32 0.00
 2 14 22 -3.37 0.00
 4 14 22 -1.67 0.00
 6 14 22 -3.93 0.00
 8 14 22 5.32 0.00
 10 14 22 2.37 0.00
 12 14 22 -4.77 0.00
 14 14 22 -3.89 0.00
 0 16 22 -3.00 0.00
 2 16 22 -1.67 0.00
 4 16 22 -6.80 0.00
 6 16 22 5.05 0.00
 8 16 22 -1.74 0.00
 10 16 22 1.18 0.00
 12 16 22 1.15 0.00
 14 16 22 -12.83 0.00
 16 16 22 11.61 0.00
 0 18 22 -6.63 0.00
 2 18 22 -2.68 0.00
 4 18 22 10.32 0.00
 6 18 22 1.21 0.00
 8 18 22 -0.60 0.00
 10 18 22 -4.59 0.00
 12 18 22 1.38 0.00
 14 18 22 1.88 0.00
 16 18 22 -0.39 0.00
 0 20 22 3.92 0.00
 2 20 22 0.25 0.00
 4 20 22 0.56 0.00
 6 20 22 0.69 0.00
 8 20 22 0.94 0.00
 10 20 22 3.09 0.00
 12 20 22 2.75 0.00
 14 20 22 -0.68 0.00
 0 22 22 11.55 0.00
 2 22 22 -5.93 0.00
 4 22 22 -4.31 0.00
 6 22 22 -7.71 0.00
 8 22 22 -0.50 0.00
 10 22 22 -1.24 0.00
 12 22 22 -6.47 0.00
 1 1 23 -5.14 0.00
 1 3 23 3.08 0.00
 3 3 23 9.67 0.00
 1 5 23 6.90 0.00
 3 5 23 -20.38 0.00
 5 5 23 -2.07 0.00
 1 7 23 -8.56 0.00
 3 7 23 3.19 0.00
 5 7 23 6.94 0.00
 7 7 23 -3.74 0.00
 1 9 23 -4.92 0.00
 3 9 23 7.06 0.00
 5 9 23 15.70 0.00
 7 9 23 -0.80 0.00
 9 9 23 -8.04 0.00
 1 11 23 5.22 0.00
 3 11 23 -0.71 0.00
 5 11 23 -3.16 0.00
 7 11 23 3.27 0.00
 9 11 23 4.82 0.00
 11 11 23 2.66 0.00
 1 13 23 -0.90 0.00
 3 13 23 -2.92 0.00
 5 13 23 -0.97 0.00
 7 13 23 2.69 0.00
 9 13 23 7.23 0.00
 11 13 23 0.26 0.00
 13 13 23 2.72 0.00
 1 15 23 1.67 0.00
 3 15 23 -7.18 0.00
 5 15 23 -0.44 0.00
 7 15 23 8.58 0.00
 9 15 23 0.46 0.00
 11 15 23 -5.42 0.00
 13 15 23 3.88 0.00
 15 15 23 8.78 0.00
 1 17 23 0.59 0.00
 3 17 23 0.44 0.00
 5 17 23 0.70 0.00
 7 17 23 1.44 0.00
 9 17 23 -3.62 0.00
 11 17 23 -6.30 0.00
 13 17 23 8.61 0.00
 15 17 23 0.87 0.00
 17 17 23 -2.51 0.00
 1 19 23 -2.66 0.00
 3 19 23 8.01 0.00
 5 19 23 -8.66 0.00
 7 19 23 -15.01 0.00
 9 19 23 3.10 0.00
 11 19 23 1.35 0.00
 13 19 23 3.46 0.00
 15 19 23 -11.38 0.00
 1 21 23 2.32 0.00
 3 21 23 -1.27 0.00
 5 21 23 -1.11 0.00
 7 21 23 4.07 0.00
 9 21 23 5.62 0.00
 11 21 23 -4.68 0.00
 1 23 23 -2.37 0.00
 3 23 23 -2.17 0.00
 5 23 23 -0.94 0.00
 7 23 23 -6.55 0.00
 0 0 24 2.58 0.00
 0 2 24 -11.09 0.00
 2 2 24 1.35 0.00
 0 4 24 15.63 0.00
 2 4 24 -7.56 0.00
 4 4 24 -2.76 0.00
 0 6 24 -1.34 0.00
 2 6 24 17.78 0.00
 4 6 24 5.28 0.00
 6 6 24 -0.25 0.00
 0 8 24 -2.70 0.00
 2 8 24 2.74 0.00
 4 8 24 -0.85 0.00
 6 8 24 -3.57 0.00
 8 8 24 16.08 0.00
 0 10 24 0.72 0.00
 2 10 24 -2.87 0.00
 4 10 24 11.27 0.00
 6 10 24 4.27 0.00
 8 10 24 -2.11 0.00
 10 10 24 1.78 0.00
 0 12 24 -2.60 0.00
 2 12 24 3.03 0.00
 4 12 24 2.10 0.00
 6 12 24 2.91 0.00
 8 12 24 -0.41 0.00
 10 12 24 -3.03 0.00
 12 12 24 -1.80 0.00
 0 14 24 2.09 0.00
 2 14 24 8.73 0.00
 4 14 24 -2.16 0.00
 6 14 24 2.12 0.00
 8 14 24 -12.50 0.00
 10 14 24 6.61 0.00
 12 14 24 1.35 0.00
 14 14 24 -15.42 0.00
 0 16 24 -2.53 0.00
 2 16 24 3.06 0.00
 4 16 24 -0.82 0.00
 6 16 24 -1.07 0.00
 8 16 24 0.98 0.00
 10 16 24 1.82 0.00
 12 16 24 3.13 0.00
 14 16 24 3.89 0.00
 16 16 24 8.13 0.00
 0 18 24 10.02 0.00
 2 18 24 -10.90 0.00
 4 18 24 4.19 0.00
 6 18 24 2.30 0.00
 8 18 24 -4.39 0.00
 10 18 24 3.97 0.00
 12 18 24 8.33 0.00
 14 18 24 -5.35 0.00
 0 20 24 -4.92 0.00
 2 20 24 -0.40 0.00
 4 20 24 12.60 0.00
 6 20 24 -10.72 0.00
 8 20 24 10.05 0.00
 10 20 24 -2.34 0.00
 12 20 24 -1.06 0.00
 0 22 24 -3.34 0.00
 2 22 24 -2.31 0.00
 4 22 24 -0.94 0.00
 6 22 24 13.06 0.00
 8 22 24 -1.18 0.00
 1 1 25 -1.52 0.00
 1 3 25 11.72 0.00
 3 3 25 4.30 0.00
 1 5 25 -5.43 0.00
 3 5 25 2.15 0.00
 5 5 25 2.73 0.00
 1 7 25 1.32 0.00
 3 7 25 -5.95 0.00
 5 7 25 -1.13 0.00
 7 7 25 -2.48 0.00
 1 9 25 0.88 0.00
 3 9 25 -5.45 0.00
 5 9 25 -4.63 0.00
 7 9 25 -10.21 0.00
 9 9 25 -1.57 0.00
 1 11 25 -3.47 0.00
 3 11 25 -1.28 0.00
 5 11 25 -8.17 0.00
 7 11 25 1.15 0.00
 9 11 25 -3.04 0.00
 11 11 25 -3.04 0.00
 1 13 25 5.64 0.00
 3 13 25 -3.32 0.00
 5 13 25 -5.08 0.00
 7 13 25 -1.64 0.00
 9 13 25 5.53 0.00
 11 13 25 -2.66 0.00
 13 13 25 8.46 0.00
 1 15 25 -1.34 0.00
 3 15 25 -3.71 0.00
 5 15 25 4.64 0.00
 7 15 25 1.26 0.00
 9 15 25 1.85 0.00
 11 15 25 -12.24 0.00
 13 15 25 0.77 0.00
 15 15 25 -0.99 0.00
 1 17 25 -1.86 0.00
 3 17 25 5.03 0.00
 5 17 25 3.62 0.00
 7 17 25 4.28 0.00
 9 17 25 -3.50 0.00
 11 17 25 -7.88 0.00
 13 17 25 -0.28 0.00
 1 19 25 4.59 0.00
 3 19 25 -9.33 0.00
 5 19 25 -2.70 0.00
 7 19 25 6.92 0.00
 9 19 25 5.16 0.00
 11 19 25 0.31 0.00
 1 21 25 -0.64 0.00
 3 21 25 13.11 0.00
 5 21 25 -6.03 0.00
 7 21 25 -11.23 0.00
 0 0 26 20.88 0.00
 0 2 26 3.09 0.00
 2 2 26 -13.65 0.00
 0 4 26 -20.17 0.00
 2 4 26 -0.20 0.00
 4 4 26 -3.49 0.00
 0 6 26 -3.50 0.00
 2 6 26 -0.54 0.00
 4 6 26 2.75 0.00
 6 6 26 -5.00 0.00
 0 8 26 6.68 0.00
 2 8 26 -7.28 0.00
 4 8 26 -1.24 0.00
 6 8 26 3.26 0.00
 8 8 26 -2.50 0.00
 0 10 26 2.18 0.00
 2 10 26 5.36 0.00
 4 10 26 -5.43 0.00
 6 10 26 -1.63 0.00
 8 10 26 10.67 0.00
 10 10 26 -7.13 0.00
 0 12 26 -2.69 0.00
 2 12 26 -3.80 0.00
 4 12 26 1.28 0.00
 6 12 26 0.56 0.00
 8 12 26 -12.05 0.00
 10 12 26 3.19 0.00
 12 12 26 14.36 0.00
 0 14 26 -7.72 0.00
 2 14 26 -1.86 0.00
 4 14 26 2.39 0.00
 6 14 26 2.57 0.00
 8 14 26 -4.42 0.00
 10 14 26 -2.52 0.00
 12 14 26 -5.01 0.00
 14 14 26 -0.34 0.00
 0 16 26 -2.92 0.00
 2 16 26 0.74 0.00
 4 16 26 -0.36 0.00
 6 16 26 -0.55 0.00
 8 16 26 -0.04 0.00
 10 16 26 6.68 0.00
 12 16 26 4.37 0.00
 0 18 26 -0.51 0.00
 2 18 26 1.43 0.00
 4 18 26 -3.86 0.00
 6 18 26 -3.43 0.00
 8 18 26 -0.45 0.00
 10 18 26 -3.42 0.00
 0 20 26 15.39 0.00
 2 20 26 -10.13 0.00
 4 20 26 1.16 0.00
 6 20 26 3.94 0.00
 1 1 27 5.01 0.00
 1 3 27 -2.89 0.00
 3 3 27 5.88 0.00
 1 5 27 -7.10 0.00
 3 5 27 8.16 0.00
 5 5 27 -2.51 0.00
 1 7 27 1.69 0.00
 3 7 27 -1.86 0.00
 5 7 27 1.35 0.00
 7 7 27 5.44 0.00
 1 9 27 0.78 0.00
 3 9 27 3.07 0.00
 5 9 27 2.31 0.00
 7 9 27 -1.61 0.00
 9 9 27 14.71 0.00
 1 11 27 7.59 0.00
 3 11 27 -0.16 0.00
 5 11 27 1.16 0.00
 7 11 27 6.54 0.00
 9 11 27 10.38 0.00
 11 11 27 -5.46 0.00
 1 13 27 -5.30 0.00
 3 13 27 10.84 0.00
 5 13 27 3.19 0.00
 7 13 27 6.75 0.00
 9 13 27 -0.95 0.00
 11 13 27 -3.12 0.00
 13 13 27 -0.57 0.00
 1 15 27 -1.35 0.00
 3 15 27 -1.99 0.00
 5 15 27 1.59 0.00
 7 15 27 -7.29 0.00
 9 15 27 3.32 0.00
 11 15 27 -2.70 0.00
 13 15 27 11.93 0.00
 1 17 27 0.95 0.00
 3 17 27 -1.43 0.00
 5 17 27 -2.75 0.00
 7 17 27 -1.73 0.00
 9 17 27 -0.88 0.00
 1 19 27 -3.78 0.00
 3 19 27 1.54 0.00
 5 19 27 0.80 0.00
 0 0 28 3.41 0.00
 0 2 28 -3.49 0.00
 2 2 28 -7.48 0.00
 0 4 28 -9.40 0.00
 2 4 28 1.54 0.00
 4 4 28 7.28 0.00
 0 6 28 11.42 0.00
 2 6 28 2.97 0.00
 4 6 28 -0.18 0.00
 6 6 28 -3.21 0.00
 0 8 28 10.58 0.00
 2 8 28 -1.17 0.00
 4 8 28 -4.94 0.00
 6 8 28 0.66 0.00
 8 8 28 1.28 0.00
 0 10 28 1.43 0.00
 2 10 28 -3.84 0.00
 4 10 28 -6.12 0.00
 6 10 28 4.79 0.00
 8 10 28 -23.20 0.00
 10 10 28 -1.84 0.00
 0 12 28 -4.79 0.00
 2 12 28 -7.41 0.00
 4 12 28 1.10 0.00
 6 12 28 -1.04 0.00
 8 12 28 0.15 0.00
 10 12 28 2.22 0.00
 12 12 28 1.33 0.00
 0 14 28 0.06 0.00
 2 14 28 3.76 0.00
 4 14 28 0.06 0.00
 6 14 28 -1.71 0.00
 8 14 28 1.33 0.00
 10 14 28 -6.46 0.00
 12 14 28 -1.33 0.00
 0 16 28 14.35 0.00
 2 16 28 2.98 0.00
 4 16 28 -0.18 0.00
 6 16 28 1.52 0.00
 8 16 28 8.36 0.00
 0 18 28 2.12 0.00
 2 18 28 3.12 0.00
 4 18 28 1.73 0.00
 1 1 29 0.24 0.00
 1 3 29 18.99 0.00
 3 3 29 -5.52 0.00
 1 5 29 1.74 0.00
 3 5 29 1.71 0.00
 5 5 29 -5.16 0.00
 1 7 29 -12.35 0.00
 3 7 29 -0.31 0.00
 5 7 29 2.98 0.00
 7 7 29 5.65 0.00
 1 9 29 -0.42 0.00
 3 9 29 0.49 0.00
 5 9 29 -0.69 0.00
 7 9 29 2.76 0.00
 9 9 29 1.73 0.00
 1 11 29 -0.48 0.00
 3 11 29 12.00 0.00
 5 11 29 -4.94 0.00
 7 11 29 -11.51 0.00
 9 11 29 9.70 0.00
 11 11 29 -8.16 0.00
 1 13 29 7.91 0.00
 3 13 29 -2.55 0.00
 5 13 29 -7.83 0.00
 7 13 29 -2.74 0.00
 9 13 29 8.89 0.00
 1 15 29 -12.38 0.00
 3 15 29 -1.20 0.00
 5 15 29 8.71 0.00
 7 15 29 5.66 0.00
 0 0 30 -13.71 0.00
 0 2 30 -4.85 0.00
 2 2 30 -2.07 0.00
 0 4 30 -5.83 0.00
 2 4 30 -14.25 0.00
 4 4 30 -1.12 0.00
 0 6 30 12.05 0.00
 2 6 30 -4.44 0.00
 4 6 30 2.16 0.00
 6 6 30 0.20 0.00
 0 8 30 -1.84 0.00
 2 8 30 9.06 0.00
 4 8 30 -0.76 0.00
 6 8 30 2.96 0.00
 8 8 30 -13.06 0.00
 0 10 30 3.09 0.00
 2 10 30 -2.71 0.00
 4 10 30 9.25 0.00
 6 10 30 -7.44 0.00
 8 10 30 11.68 0.00
 10 10 30 4.20 0.00
 0 12 30 -8.77 0.00
 2 12 30 -2.35 0.00
 4 12 30 2.10 0.00
 6 12 30 20.16 0.00
 8 12 30 1.52 0.00
 0 14 30 8.05 0.00
 2 14 30 1.18 0.00
 4 14 30 -6.48 0.00
 1 1 31 -6.09 0.00
 1 3 31 4.93 0.00
 3 3 31 11.23 0.00
 1 5 31 11.95 0.00
 3 5 31 -9.46 0.00
 5 5 31 6.14 0.00
 1 7 31 -6.25 0.00
 3 7 31 3.52 0.00
 5 7 31 1.41 0.00
 7 7 31 -14.06 0.00
 1 9 31 1.47 0.00
 3 9 31 2.28 0.00
 5 9 31 -17.88 0.00
 7 9 31 17.74 0.00
 9 9 31 -10.99 0.00
 1 11 31 -3.20 0.00
 3 11 31 -12.12 0.00
 5 11 31 3.34 0.00
 0 0 32 6.54 0.00
 0 2 32 -2.08 0.00
 2 2 32 4.84 0.00
 0 4 32 -1.96 0.00
 2 4 32 -2.04 0.00
 4 4 32 -13.31 0.00
 0 6 32 2.88 0.00
 2 6 32 -1.83 0.00
 4 6 32 -1.27 0.00
 6 6 32 5.39 0.00
 0 8 32 -8.96 0.00
 2 8 32 -8.86 0.00
 4 8 32 14.62 0.00
 6 8 32 -14.85 0.00
 0 10 32 -12.05 0.00
 1 1 33 -2.36 0.00
 1 3 33 -4.25 0.00
 3 3 33 4.26 0.00
 1 5 33 -2.29 0.00
 3 5 33 14.63 0.00
 20 20 20 4.00 0.00
 19 19 21 -2.00 0.00
 17 21 21 4.86 0.00
 18 18 22 -14.76 0.00
 16 20 22 -0.16 0.00
 18 20 22 2.24 0.00
 14 22 22 -2.86 0.00
 16 22 22 -2.76 0.00
 17 19 23 -1.88 0.00
 13 21 23 1.43 0.00
 15 21 23 2.66 0.00
 9 23 23 4.86 0.00
 11 23 23 18.42 0.00
 13 23 23 -8.84 0.00
 16 18 24 -6.04 0.00
 18 18 24 6.63 0.00
 14 20 24 2.44 0.00
 10 22 24 -13.74 0.00
 12 22 24 0.25 0.00
 0 24 24 14.88 0.00
 2 24 24 3.19 0.00
 4 24 24 3.17 0.00
 6 24 24 10.51 0.00
 8 24 24 -3.85 0.00
 15 17 25 -2.80 0.00
 17 17 25 7.01 0.00
 13 19 25 -8.12 0.00
 15 19 25 5.18 0.00
 9 21 25 3.80 0.00
 11 21 25 9.20 0.00
 1 23 25 -0.49 0.00
 3 23 25 -3.16 0.00
 5 23 25 -5.39 0.00
 7 23 25 -1.29 0.00
 14 16 26 2.41 0.00
 16 16 26 -2.94 0.00
 12 18 26 -4.38 0.00
 14 18 26 -1.88 0.00
 8 20 26 -6.22 0.00
 10 20 26 -6.65 0.00
 12 20 26 5.14 0.00
 0 22 26 -2.44 0.00
 2 22 26 -3.84 0.00
 4 22 26 0.63 0.00
 6 22 26 -5.33 0.00
 8 22 26 8.30 0.00
 15 15 27 -4.97 0.00
 11 17 27 5.09 0.00
 13 17 27 1.82 0.00
 7 19 27 1.48 0.00
 9 19 27 6.50 0.00
 11 19 27 4.57 0.00
 1 21 27 0.42 0.00
 3 21 27 3.87 0.00
 5 21 27 0.12 0.00
 7 21 27 0.05 0.00
 14 14 28 -7.17 0.00
 10 16 28 -0.15 0.00
 12 16 28 -5.09 0.00
 6 18 28 1.44 0.00
 8 18 28 -1.20 0.00
 10 18 28 -3.49 0.00
 0 20 28 1.93 0.00
 2 20 28 0.88 0.00
 4 20 28 -2.98 0.00
 6 20 28 5.41 0.00
 11 13 29 -2.54 0.00
 13 13 29 -1.26 0.00
 9 15 29 -11.11 0.00
 11 15 29 11.34 0.00
 1 17 29 -0.80 0.00
 3 17 29 -8.12 0.00
 5 17 29 -0.04 0.00
 7 17 29 -7.86 0.00
 9 17 29 2.07 0.00
 1 19 29 -5.81 0.00
 3 19 29 4.18 0.00
 5 19 29 -4.10 0.00
 10 12 30 -5.29 0.00
 12 12 30 5.81 0.00
 6 14 30 -4.54 0.00
 8 14 30 -1.55 0.00
 10 14 30 -5.72 0.00
 0 16 30 2.83 0.00
 2 16 30 8.15 0.00
 4 16 30 -1.01 0.00
 6 16 30 -8.42 0.00
 8 16 30 1.14 0.00
 0 18 30 4.77 0.00
 2 18 30 -0.78 0.00
 7 11 31 -0.77 0.00
 9 11 31 -9.81 0.00
 11 11 31 -7.31 0.00
 1 13 31 1.32 0.00
 3 13 31 -4.00 0.00
 5 13 31 3.78 0.00
 7 13 31 -9.73 0.00
 9 13 31 4.60 0.00
 1 15 31 -3.06 0.00
 3 15 31 0.45 0.00
 5 15 31 4.04 0.00
 8 8 32 4.53 0.00
 2 10 32 5.74 0.00
 4 10 32 3.95 0.00
 6 10 32 4.87 0.00
 8 10 32 -1.35 0.00
 10 10 32 2.64 0.00
 0 12 32 4.08 0.00
 2 12 32 8.85 0.00
 4 12 32 -0.98 0.00
 6 12 32 -3.13 0.00
 0 14 32 1.52 0.00
 2 14 32 1.13 0.00
 5 5 33 -0.15 0.00
 1 7 33 10.82 0.00
 3 7 33 -6.52 0.00
 5 7 33 -8.62 0.00
 7 7 33 31.54 0.00
 1 9 33 10.09 0.00
 3 9 33 -6.23 0.00
 5 9 33 13.80 0.00
 7 9 33 -9.21 0.00
 1 11 33 0.99 0.00
 3 11 33 -3.05 0.00
 0 0 34 12.63 0.00
 0 2 34 14.07 0.00
 2 2 34 0.90 0.00
 0 4 34 -9.19 0.00
 2 4 34 -5.59 0.00
 4 4 34 1.90 0.00
 0 6 34 -9.10 0.00
 2 6 34 5.41 0.00
 4 6 34 2.53 0.00
 6 6 34 -10.45 0.00
 0 8 34 -7.27 0.00
 2 8 34 -2.31 0.00
 0 0 0 0.00 0.00
# SQUEEZE RESULTS (Version = 91117)
# Note: Data are Listed for all Voids in the P1 Unit Cell
# i.e. Centre of Gravity, Solvent Accessible Volume,
# Recovered number of Electrons in the Void and
# Details about the Squeezed Material
;
_platon_squeeze_void_probe_radius 1.20
_olex2_submission_original_sample_id UiO-67_22defect_DMF_260K1
_olex2_submission_special_instructions 'No special instructions were received'
loop_
_space_group_symop_operation_xyz
'x, y, z'
'-x, -y, z'
'-x, y, -z'
'x, -y, -z'
'z, x, y'
'z, -x, -y'
'-z, -x, y'
'-z, x, -y'
'y, z, x'
'-y, z, -x'
'y, -z, -x'
'-y, -z, x'
'y, x, -z'
'-y, -x, -z'
'y, -x, z'
'-y, x, z'
'x, z, -y'
'-x, z, y'
'-x, -z, -y'
'x, -z, y'
'z, y, -x'
'z, -y, x'
'-z, y, x'
'-z, -y, -x'
'x, y+1/2, z+1/2'
'-x, -y+1/2, z+1/2'
'-x, y+1/2, -z+1/2'
'x, -y+1/2, -z+1/2'
'z, x+1/2, y+1/2'
'z, -x+1/2, -y+1/2'
'-z, -x+1/2, y+1/2'
'-z, x+1/2, -y+1/2'
'y, z+1/2, x+1/2'
'-y, z+1/2, -x+1/2'
'y, -z+1/2, -x+1/2'
'-y, -z+1/2, x+1/2'
'y, x+1/2, -z+1/2'
'-y, -x+1/2, -z+1/2'
'y, -x+1/2, z+1/2'
'-y, x+1/2, z+1/2'
'x, z+1/2, -y+1/2'
'-x, z+1/2, y+1/2'
'-x, -z+1/2, -y+1/2'
'x, -z+1/2, y+1/2'
'z, y+1/2, -x+1/2'
'z, -y+1/2, x+1/2'
'-z, y+1/2, x+1/2'
'-z, -y+1/2, -x+1/2'
'x+1/2, y, z+1/2'
'-x+1/2, -y, z+1/2'
'-x+1/2, y, -z+1/2'
'x+1/2, -y, -z+1/2'
'z+1/2, x, y+1/2'
'z+1/2, -x, -y+1/2'
'-z+1/2, -x, y+1/2'
'-z+1/2, x, -y+1/2'
'y+1/2, z, x+1/2'
'-y+1/2, z, -x+1/2'
'y+1/2, -z, -x+1/2'
'-y+1/2, -z, x+1/2'
'y+1/2, x, -z+1/2'
'-y+1/2, -x, -z+1/2'
'y+1/2, -x, z+1/2'
'-y+1/2, x, z+1/2'
'x+1/2, z, -y+1/2'
'-x+1/2, z, y+1/2'
'-x+1/2, -z, -y+1/2'
'x+1/2, -z, y+1/2'
'z+1/2, y, -x+1/2'
'z+1/2, -y, x+1/2'
'-z+1/2, y, x+1/2'
'-z+1/2, -y, -x+1/2'
'x+1/2, y+1/2, z'
'-x+1/2, -y+1/2, z'
'-x+1/2, y+1/2, -z'
'x+1/2, -y+1/2, -z'
'z+1/2, x+1/2, y'
'z+1/2, -x+1/2, -y'
'-z+1/2, -x+1/2, y'
'-z+1/2, x+1/2, -y'
'y+1/2, z+1/2, x'
'-y+1/2, z+1/2, -x'
'y+1/2, -z+1/2, -x'
'-y+1/2, -z+1/2, x'
'y+1/2, x+1/2, -z'
'-y+1/2, -x+1/2, -z'
'y+1/2, -x+1/2, z'
'-y+1/2, x+1/2, z'
'x+1/2, z+1/2, -y'
'-x+1/2, z+1/2, y'
'-x+1/2, -z+1/2, -y'
'x+1/2, -z+1/2, y'
'z+1/2, y+1/2, -x'
'z+1/2, -y+1/2, x'
'-z+1/2, y+1/2, x'
'-z+1/2, -y+1/2, -x'
'-x, -y, -z'
'x, y, -z'
'x, -y, z'
'-x, y, z'
'-z, -x, -y'
'-z, x, y'
'z, x, -y'
'z, -x, y'
'-y, -z, -x'
'y, -z, x'
'-y, z, x'
'y, z, -x'
'-y, -x, z'
'y, x, z'
'-y, x, -z'
'y, -x, -z'
'-x, -z, y'
'x, -z, -y'
'x, z, y'
'-x, z, -y'
'-z, -y, x'
'-z, y, -x'
'z, -y, -x'
'z, y, x'
'-x, -y+1/2, -z+1/2'
'x, y+1/2, -z+1/2'
'x, -y+1/2, z+1/2'
'-x, y+1/2, z+1/2'
'-z, -x+1/2, -y+1/2'
'-z, x+1/2, y+1/2'
'z, x+1/2, -y+1/2'
'z, -x+1/2, y+1/2'
'-y, -z+1/2, -x+1/2'
'y, -z+1/2, x+1/2'
'-y, z+1/2, x+1/2'
'y, z+1/2, -x+1/2'
'-y, -x+1/2, z+1/2'
'y, x+1/2, z+1/2'
'-y, x+1/2, -z+1/2'
'y, -x+1/2, -z+1/2'
'-x, -z+1/2, y+1/2'
'x, -z+1/2, -y+1/2'
'x, z+1/2, y+1/2'
'-x, z+1/2, -y+1/2'
'-z, -y+1/2, x+1/2'
'-z, y+1/2, -x+1/2'
'z, -y+1/2, -x+1/2'
'z, y+1/2, x+1/2'
'-x+1/2, -y, -z+1/2'
'x+1/2, y, -z+1/2'
'x+1/2, -y, z+1/2'
'-x+1/2, y, z+1/2'
'-z+1/2, -x, -y+1/2'
'-z+1/2, x, y+1/2'
'z+1/2, x, -y+1/2'
'z+1/2, -x, y+1/2'
'-y+1/2, -z, -x+1/2'
'y+1/2, -z, x+1/2'
'-y+1/2, z, x+1/2'
'y+1/2, z, -x+1/2'
'-y+1/2, -x, z+1/2'
'y+1/2, x, z+1/2'
'-y+1/2, x, -z+1/2'
'y+1/2, -x, -z+1/2'
'-x+1/2, -z, y+1/2'
'x+1/2, -z, -y+1/2'
'x+1/2, z, y+1/2'
'-x+1/2, z, -y+1/2'
'-z+1/2, -y, x+1/2'
'-z+1/2, y, -x+1/2'
'z+1/2, -y, -x+1/2'
'z+1/2, y, x+1/2'
'-x+1/2, -y+1/2, -z'
'x+1/2, y+1/2, -z'
'x+1/2, -y+1/2, z'
'-x+1/2, y+1/2, z'
'-z+1/2, -x+1/2, -y'
'-z+1/2, x+1/2, y'
'z+1/2, x+1/2, -y'
'z+1/2, -x+1/2, y'
'-y+1/2, -z+1/2, -x'
'y+1/2, -z+1/2, x'
'-y+1/2, z+1/2, x'
'y+1/2, z+1/2, -x'
'-y+1/2, -x+1/2, z'
'y+1/2, x+1/2, z'
'-y+1/2, x+1/2, -z'
'y+1/2, -x+1/2, -z'
'-x+1/2, -z+1/2, y'
'x+1/2, -z+1/2, -y'
'x+1/2, z+1/2, y'
'-x+1/2, z+1/2, -y'
'-z+1/2, -y+1/2, x'
'-z+1/2, y+1/2, -x'
'z+1/2, -y+1/2, -x'
'z+1/2, y+1/2, x'
loop_
_atom_site_label
_atom_site_type_symbol
_atom_site_fract_x
_atom_site_fract_y
_atom_site_fract_z
_atom_site_U_iso_or_equiv
_atom_site_adp_type
_atom_site_occupancy
_atom_site_site_symmetry_order
_atom_site_calc_flag
_atom_site_refinement_flags_posn
_atom_site_refinement_flags_adp
_atom_site_refinement_flags_occupancy
_atom_site_disorder_group
Zr1 Zr 1.000000 0.500000 0.59239(2) 0.01397(14) Uani 1 8 d S T P .
O3 O 1.07330(12) 0.500000 0.63171(12) 0.0299(7) Uani 0.771(5) 2 d S T P .
C1 C 1.11751(11) 0.500000 0.61751(11) 0.0268(11) Uani 0.771(5) 4 d S T P .
C2 C 1.15672(12) 0.500000 0.65672(12) 0.0440(16) Uani 0.771(5) 4 d S T P .
C5 C 1.23007(14) 0.500000 0.73007(14) 0.063(2) Uani 0.771(5) 4 d S TU P .
O1 O 1.03953(16) 0.53953(16) 0.53953(16) 0.0141(14) Uani 0.5 6 d S T P 2
O2 O 1.05262(15) 0.55262(15) 0.55262(15) 0.0215(17) Uani 0.5 6 d S T P 1
O4 O 1.0607(5) 0.500000 0.6466(5) 0.043(4) Uiso 0.229(5) 2 d S T P 2
H1 H 1.069201 0.569201 0.569201 0.050 Uiso 0.5 6 d S T P .
C3 C 1.2419(2) 0.4884(13) 0.6803(2) 0.085(11) Uani 0.385(3) 1 d . . . -1
H3 H 1.274700 0.481305 0.671703 0.102 Uiso 0.385(3) 1 calc R . . -1
C2AA C 1.20545(19) 0.4875(3) 0.64400(19) 0.048(3) Uani 0.385(3) 1 d . U . -1
H2AA H 1.213332 0.478579 0.611452 0.058 Uiso 0.385(3) 1 calc R . . -1
loop_
_atom_site_aniso_label
_atom_site_aniso_U_11
_atom_site_aniso_U_22
_atom_site_aniso_U_33
_atom_site_aniso_U_23
_atom_site_aniso_U_13
_atom_site_aniso_U_12
Zr1 0.01612(16) 0.01612(16) 0.0097(2) 0.000 0.000 0.000
O3 0.0203(15) 0.0516(18) 0.0176(14) 0.000 -0.0076(12) 0.000
C1 0.0198(15) 0.041(3) 0.0198(15) 0.000 -0.0127(19) 0.000
C2 0.0233(17) 0.085(5) 0.0233(17) 0.000 -0.016(2) 0.000
C5 0.037(2) 0.115(6) 0.037(2) 0.000 -0.022(3) 0.000
O1 0.0141(14) 0.0141(14) 0.0141(14) 0.0019(16) 0.0019(16) 0.0019(16)
O2 0.0215(17) 0.0215(17) 0.0215(17) -0.0064(16) -0.0064(16) -0.0064(16)
C3 0.024(2) 0.20(3) 0.035(3) -0.003(6) -0.017(2) 0.021(7)
C2AA 0.029(2) 0.091(9) 0.025(2) -0.007(3) -0.0125(19) 0.012(3)
loop_
_atom_type_symbol
_atom_type_description
_atom_type_scat_dispersion_real
_atom_type_scat_dispersion_imag
_atom_type_scat_source
C C 0.0181 0.0091 'International Tables Vol C Tables 4.2.6.8 and 6.1.1.4'
H H 0.0000 0.0000 'International Tables Vol C Tables 4.2.6.8 and 6.1.1.4'
O O 0.0492 0.0322 'International Tables Vol C Tables 4.2.6.8 and 6.1.1.4'
Zr Zr -0.1862 2.2449 'International Tables Vol C Tables 4.2.6.8 and 6.1.1.4'
loop_
_geom_angle_atom_site_label_1
_geom_angle_atom_site_label_2
_geom_angle_atom_site_label_3
_geom_angle
_geom_angle_site_symmetry_1
_geom_angle_site_symmetry_3
O3 Zr1 O3 77.09(8) . 182_545
O3 Zr1 O3 77.09(8) . 181_665
O3 Zr1 O3 123.58(19) 182_545 181_665
O3 Zr1 O3 77.09(8) 2_765 181_665
O3 Zr1 O3 123.58(19) . 2_765
O3 Zr1 O3 77.09(8) 182_545 2_765
O1 Zr1 O3 82.65(17) 100_755 2_765
O1 Zr1 O3 141.04(6) 2_765 .
O1 Zr1 O3 141.04(6) 100_755 181_665
O1 Zr1 O3 141.04(6) 99_565 2_765
O1 Zr1 O3 82.65(17) 2_765 181_665
O1 Zr1 O3 141.04(6) 100_755 .
O1 Zr1 O3 82.65(17) 99_565 181_665
O1 Zr1 O3 82.65(17) 99_565 .
O1 Zr1 O3 82.65(17) 2_765 2_765
O1 Zr1 O3 82.65(17) . .
O1 Zr1 O3 141.04(6) . 2_765
O1 Zr1 O3 141.04(6) . 181_665
O1 Zr1 O1 93.2(4) 2_765 .
O1 Zr1 O1 61.8(2) 100_755 .
O1 Zr1 O1 61.8(2) 99_565 .
O1 Zr1 O4 147.24(12) . 2_765
O1 Zr1 O4 94.3(4) 100_755 2_765
O1 Zr1 O4 147.24(13) 100_755 .
O1 Zr1 O4 147.24(12) . 181_665
O1 Zr1 O4 94.3(4) 2_765 181_665
O1 Zr1 O4 94.3(4) . .
O1 Zr1 O4 94.3(4) 99_565 .
O1 Zr1 O4 147.24(12) 99_565 2_765
O1 Zr1 O4 147.24(13) 100_755 181_665
O1 Zr1 O4 147.24(12) 2_765 .
O1 Zr1 O4 94.3(4) 99_565 181_665
O1 Zr1 O4 94.3(4) 2_765 2_765
O4 Zr1 O3 13.6(3) . .
O4 Zr1 O3 110.0(4) . 2_765
O4 Zr1 O3 71.64(17) . 181_665
O4 Zr1 O3 71.64(17) 181_665 .
O4 Zr1 O3 71.64(17) 2_765 181_665
O4 Zr1 O3 71.64(17) 182_545 .
O4 Zr1 O3 13.6(3) 2_765 2_765
O4 Zr1 O3 110.0(4) 182_545 181_665
O4 Zr1 O3 13.6(3) 181_665 181_665
O4 Zr1 O3 110.0(4) 2_765 .
O4 Zr1 O3 71.64(17) 181_665 2_765
O4 Zr1 O3 71.64(17) 182_545 2_765
O4 Zr1 O4 96.4(7) 2_765 .
O4 Zr1 O4 63.6(4) 181_665 .
O4 Zr1 O4 63.6(4) 181_665 2_765
O4 Zr1 O4 63.6(4) 182_545 .
O4 Zr1 O4 96.4(7) 182_545 181_665
O4 Zr1 O4 63.6(4) 182_545 2_765
C1 O3 Zr1 134.0(3) . .
O4 O3 Zr1 77.9(17) . .
O4 O3 C1 148.1(18) . .
O3 C1 O3 125.6(4) 70_564 .
O3 C1 C2 117.2(2) 70_564 .
O3 C1 C2 117.2(2) . .
O3 C1 O4 134.9(5) 70_564 .
O3 C1 O4 9.3(5) 70_564 70_564
O3 C1 O4 9.3(5) . .
O3 C1 O4 134.9(5) . 70_564
C2 C1 O4 107.9(5) . 70_564
C2 C1 O4 107.9(5) . .
O4 C1 O4 144.2(10) . 70_564
C2AA C2 C1 119.4(3) . .
C3 C5 C5 120.8(4) . 145_766
Zr1 O1 Zr1 116.23(13) . 57_554
Zr1 O1 Zr1 116.23(13) . 77_545
Zr1 O1 Zr1 116.24(13) 57_554 77_545
Zr1 O1 H1 101.3(2) 57_554 .
Zr1 O1 H1 101.3(2) 77_545 .
Zr1 O1 H1 101.3(2) . .
Zr1 O2 Zr1 101.48(19) 77_545 .
Zr1 O2 Zr1 101.48(19) 77_545 57_554
Zr1 O2 Zr1 101.48(19) . 57_554
Zr1 O2 H1 116.61(15) 77_545 .
Zr1 O2 H1 116.61(15) 57_554 .
Zr1 O2 H1 116.61(15) . .
O3 O4 Zr1 88.5(17) . .
O3 O4 C1 22.6(13) . .
C1 O4 Zr1 111.1(7) . .
C5 C3 H3 119.5 . .
C2AA C3 C5 120.9(8) . .
C2AA C3 H3 119.5 . .
C2 C2AA H2AA 120.4 . .
C3 C2AA C2 119.2(7) . .
C3 C2AA H2AA 120.4 . .
loop_
_geom_bond_atom_site_label_1
_geom_bond_atom_site_label_2
_geom_bond_distance
_geom_bond_site_symmetry_2
Zr1 O3 2.233(3) 182_545
Zr1 O3 2.233(3) 181_665
Zr1 O3 2.233(3) 2_765
Zr1 O3 2.233(3) .
Zr1 O1 2.0651(14) 100_755
Zr1 O1 2.0651(15) 2_765
Zr1 O1 2.0651(15) 99_565
Zr1 O1 2.0652(15) .
Zr1 O4 2.184(14) .
Zr1 O4 2.184(14) 182_545
Zr1 O4 2.184(14) 181_665
Zr1 O4 2.184(14) 2_765
O3 C1 1.246(4) .
O3 O4 0.524(12) .
C1 C2 1.489(6) .
C1 O4 1.714(14) 70_564
C1 O4 1.714(14) .
C2 C2AA 1.393(6) .
C5 C5 1.513(11) 145_766
C5 C3 1.409(10) .
O1 H1 1.380(7) .
O2 H1 0.771(7) .
C3 H3 0.9300 .
C3 C2AA 1.380(7) .
C2AA H2AA 0.9300 .
loop_
_platon_squeeze_void_nr
_platon_squeeze_void_average_x
_platon_squeeze_void_average_y
_platon_squeeze_void_average_z
_platon_squeeze_void_volume
_platon_squeeze_void_count_electrons
_platon_squeeze_void_content
1 0.342 -0.009 -0.006 12157 3049 ' '
loop_
_refln_index_h
_refln_index_k
_refln_index_l
_refln_F_squared_meas
_refln_F_squared_sigma
1 1 -1 8747.33 248.38
-1 1 -1 8584.24 248.28
-1 1 1 7987.1 248.38
-1 1 -1 8131.49 248.08
0 2 0 7092.59 214.48
-2 0 0 7147.98 214.48
2 0 0 7374.16 214.18
0 0 -2 7276.87 214.68
-2 2 0 2828.22 84.29
-2 0 -2 2746.93 83.59
0 2 -2 2822.42 84.09
2 0 -2 2748.53 84.09
2 2 0 2834.92 83.99
-2 0 2 2793.52 84.09
0 2 2 2863.01 84.29
-2 2 2 2906.41 85.69
-2 2 -2 2834.42 85.29
2 2 -2 2800.32 85.29
-2 2 -2 2807.72 84.79
3 1 -1 1279.27 38.5
1 -1 -3 1258.57 38.9
1 1 -3 1253.27 38.8
1 3 -1 1282.97 38.8
-3 1 -1 1270.97 38.7
3 -1 -1 1262.27 38.5
1 3 1 1290.27 38.5
-1 3 1 1265.77 38.9
1 3 -1 1268.17 38.1
-1 3 -1 1254.07 38.7
-3 -1 -1 1272.57 38.3
-3 -1 1 1239.98 38.2
-3 1 1 1246.68 38.8
3 -1 -3 316.87 11.6
3 3 -1 326.67 11.1
-3 3 1 320.37 11.7
-1 3 -3 312.77 11
-1 3 3 327.17 11.7
-3 1 3 315.07 11.6
-3 3 -1 326.17 11.5
-3 1 -3 312.67 10.3
-1 3 -3 306.17 11
1 3 -3 310.97 11.3
3 1 -3 304.87 11.2
-3 3 -3 648.44 22
3 -3 -3 673.73 23.8
-3 3 -3 690.03 21.5
3 3 -3 689.93 22.2
-3 3 3 653.23 22.7
3 -3 3 700.23 23.4
0 4 0 995.4 30.6
0 0 -4 975.4 30.8
4 0 0 990.9 29.9
-2 0 -4 1.8 2.1
0 2 -4 3.1 2.2
4 2 0 2.3 1.7
2 4 0 2.9 1.7
-4 -2 0 2.3 1.5
-4 2 0 2.1 2.5
0 4 -2 4.6 2.1
0 4 2 0.8 2.5
-2 4 0 -0.1 2.5
4 0 -2 4.1 2.1
-4 0 -2 3 2.2
0 4 -2 3.9 2.3
-4 0 2 3 2.4
2 0 -4 3.3 2.5
2 4 -2 10.8 1.7
-2 4 2 8.6 3.4
-4 2 2 13.4 3.2
2 -4 -2 12.9 5.3
2 -2 4 13 5.6
4 -2 2 22 4.7
-4 2 -2 12.4 3
2 4 -2 8.8 2.7
-4 -2 2 11.7 2.1
4 2 -2 11.3 2.7
2 -2 -4 18.6 3.6
-2 2 4 11.7 3.3
-2 4 -2 12.1 2.7
4 -2 -2 12.5 2.8
-2 2 -4 9.6 2.4
-2 4 -2 12.9 2.5
2 2 -4 15 3.2
4 4 0 108.09 5.9
4 0 4 132.19 9.5
-4 4 0 95.39 6.6
4 -4 0 123.09 8.2
-4 0 -4 102.29 4.9
0 4 -4 100.89 6
4 0 -4 105.79 6.6
0 4 -4 106.39 5.5
-4 0 4 93.69 6.4
-2 4 -4 709.03 23.3
2 -4 4 721.83 24.8
-4 2 -4 717.13 22.3
-4 2 -4 723.33 23.4
-4 2 4 704.63 24
-4 4 -2 703.73 23.6
-4 4 2 714.13 24.1
4 -2 -4 728.73 23.8
-2 4 4 720.83 24
4 -4 2 700.53 24.4
4 -2 4 718.93 24.9
4 2 -4 733.53 23.6
4 4 -2 713.03 23.3
4 -4 -2 717.83 24.7
2 4 -4 705.83 23.5
-2 4 -4 627.34 22.9
-4 4 -4 341.37 11.9
4 4 -4 330.47 12.7
4 -4 -4 310.27 14.6
-4 4 4 310.17 13.6
-4 4 -4 306.17 12.5
4 -4 4 337.67 14.4
5 -1 1 287.57 9
1 5 1 269.87 10.5
-1 5 1 300.17 11.3
1 5 -1 287.97 10.1
-1 -1 -5 289.87 10.9
-5 1 -1 290.97 10.9
-5 1 1 274.47 10.7
-1 5 -1 291.47 10.9
-5 -1 -1 283.67 10.2
-5 -1 1 275.17 10.1
-1 1 -5 284.47 10.8
5 1 -1 293.97 10.1
5 1 1 279.07 9.3
1 1 -5 272.87 10.9
1 5 -1 296.17 10.8
5 -1 -1 282.57 10.1
1 -1 -5 277.57 11.3
1 -3 5 1109.19 36.8
5 -3 -1 1065.59 35.3
-5 1 3 1073.49 34.5
3 5 -1 1085.99 34.4
-3 5 1 1042.6 34.8
-5 3 -1 1101.69 34.8
5 1 -3 1130.99 34.3
-5 -3 1 1063.89 32.8
1 3 -5 1134.19 34.8
3 -5 1 1092.09 35.2
-3 1 -5 1091.19 33.8
-1 5 -3 1117.29 34.5
5 -1 3 1081.39 35.5
3 5 -1 1072.99 32.8
3 -1 -5 1106.19 34.9
-1 5 -3 1117.89 34.3
-1 3 -5 1093.39 34.3
3 1 -5 1108.89 34.8
3 -1 5 1090.69 37
-1 5 3 1086.79 35
1 5 -3 1109.69 34.6
5 -3 1 1102.49 35.2
5 1 3 1032.5 35.6
1 -5 3 1053.49 35.1
-3 -1 -5 1057.89 34.1
-5 -3 -1 1072.99 33.2
3 -5 -1 1061.49 35.5
-5 3 1 1053.99 34.7
5 -1 -3 1072.89 35.4
-5 1 -3 1079.19 34.4
1 5 -3 1094.19 33.6
5 3 -1 1076.59 33.9
-5 -1 3 1095.29 34
-3 5 -1 1118.49 34.8
-3 3 -5 514.55 17.6
-3 5 -3 535.85 17.9
-5 3 3 545.15 18.5
3 5 -3 525.25 16.1
3 -3 -5 534.05 18.6
3 3 -5 504.85 17.9
3 5 -3 506.65 17.7
5 -3 -3 508.45 18
-3 5 3 509.75 18.3
3 -3 5 475.35 19.8
-5 3 -3 526.55 17.9
-3 3 5 535.65 18.6
3 -5 -3 431.06 19.5
3 -5 3 447.66 18.7
-3 3 -5 510.25 17.1
5 -3 -3 491.65 19.3
5 -3 3 492.65 18.7
5 3 -3 524.25 17.6
1 -5 5 721.83 24.9
5 -5 -1 646.04 23.8
5 -5 1 652.23 23.7
5 -1 5 718.13 25.4
-5 -1 -5 657.93 21.8
-5 1 -5 663.73 22.8
-5 1 5 691.63 23.4
-5 5 -1 683.33 23.5
-5 5 1 666.13 23.6
-1 -5 5 707.73 25.5
5 5 -1 698.13 22.7
-5 1 -5 687.23 21.5
-1 5 -5 696.63 22.9
1 5 -5 699.13 23.2
-1 5 -5 648.34 22.4
1 5 -5 660.43 22.1
5 -1 -5 681.43 23.2
5 1 -5 678.23 23.1
-3 5 -5 2079.99 64.39
5 -3 -5 2015.5 66.09
5 -3 5 2068.09 66.09
3 5 -5 2073.89 64.69
3 -5 5 2029.4 65.79
5 -5 -3 1989.5 65.69
-5 3 -5 2121.09 64.69
-5 3 5 2063.09 65.09
5 -3 -5 2056.99 64.79
5 3 -5 2137.99 64.69
5 5 -3 2159.58 64.49
-3 5 5 2170.38 65.29
-5 5 3 2094.79 65.39
-5 5 -3 2127.99 64.89
-3 5 -5 2082.79 64.09
-5 3 -5 2107.19 63.19
5 -5 3 2023.5 65.39
-5 5 -5 2623.74 78.19
5 -5 -5 2407.56 80.59
-5 5 5 2562.04 79.99
5 5 -5 2584.84 79.19
5 -5 5 2595.14 80.49
-5 5 -5 2604.34 79.29
0 0 -6 7510.45 223.08
-6 0 0 7316.97 222.58
6 0 0 7428.36 221.68
0 6 0 7570.24 222.78
-6 0 -2 132.29 6.8
-6 0 2 124.29 7.3
-2 6 0 138.29 7.6
0 2 -6 136.49 7.6
0 -6 -2 154.28 10.3
-6 -2 0 130.19 6.3
2 6 0 130.39 6.7
-2 0 -6 138.69 7.2
6 -2 0 155.88 8.7
6 2 0 134.09 6.1
-6 2 0 131.49 7.5
6 -2 0 136.39 6.2
0 6 -2 150.88 7.7
0 6 -2 142.29 7
0 -2 -6 136.19 8.2
6 0 -2 143.79 6.8
0 6 2 136.59 7.4
6 0 2 149.29 9
2 0 -6 143.49 8
2 -6 0 152.68 9.1
-2 6 -2 158.78 8.2
2 -2 -6 162.98 8.9
6 2 -2 148.29 7.2
-6 2 2 136.49 8.3
2 -6 -2 140.09 10.2
-2 2 -6 155.98 7.6
-6 -2 2 131.29 6.8
-2 6 2 147.19 8.4
-2 -2 -6 162.58 8.3
2 -6 2 173.08 9.5
6 -2 2 162.38 9.6
2 6 -2 142.79 6.7
6 -2 -2 154.08 7.5
-6 2 -2 144.99 8.1
2 2 -6 154.28 8.4
2 -2 6 166.68 12.3
-6 -2 -2 141.99 7
6 -2 -2 176.68 9.8
2 6 -2 156.38 7.8
-6 0 4 501.45 17.3
6 -4 0 461.25 18
0 -6 4 477.55 18.6
4 0 -6 484.45 17.5
-4 0 -6 478.45 16.4
-6 4 0 467.25 17.5
0 6 -4 492.15 16.6
0 6 4 489.45 17.5
-6 0 -4 490.35 16.9
6 0 4 420.86 18.7
0 6 -4 490.65 17.3
6 0 -4 484.65 17.1
6 4 0 500.05 16.5
-6 -4 0 475.85 15.1
4 -6 0 471.45 18.1
0 -4 6 479.15 20.8
0 4 -6 483.25 17.4
-4 6 0 482.75 17.7
6 0 -4 465.65 18.6
-6 2 4 604.14 20.7
6 -4 -2 544.15 21.2
6 -2 4 541.95 21.5
4 -2 -6 559.04 20.4
-2 6 -4 604.14 20
2 -6 -4 552.34 22.5
-4 2 -6 581.74 19.1
-2 6 -4 580.64 19.9
-6 4 -2 592.84 20.4
2 4 -6 629.04 20.6
-4 6 2 606.84 21
6 2 -4 585.24 19.9
4 6 -2 583.44 20
2 -4 6 533.95 22.8
4 -6 2 558.04 21
6 -4 2 540.25 21.1
4 2 -6 596.24 20.5
4 -6 -2 529.05 21.2
-2 4 -6 588.64 19.8
6 -2 -4 553.04 21.4
-2 6 4 597.84 21
2 6 -4 597.34 18.9
2 6 -4 566.84 20.1
-6 4 2 579.14 20.7
-4 -2 -6 529.95 19.6
6 4 -2 599.34 19.7
4 -2 6 551.24 22.5
-6 2 -4 595.74 20.2
2 -6 4 547.55 21.1
6 -2 -4 596.14 20.2
-2 4 -6 580.24 19.8
-4 6 -2 592.04 20.5
4 -6 4 762.82 27.1
-4 6 4 784.12 26.7
6 4 -4 779.62 25.7
4 6 -4 770.02 23.5
6 -4 4 753.92 27
6 -4 -4 743.73 27.5
-4 4 -6 739.83 25.6
4 -6 -4 754.12 27.6
-4 6 -4 759.92 25.9
-6 4 -4 767.72 25.9
-6 4 4 764.12 26.4
4 -4 -6 771.32 26.6
-4 4 6 769.52 26.4
-4 4 -6 751.02 24.8
6 -4 -4 737.13 25.8
4 4 -6 746.73 25.8
4 6 -4 747.93 25.6
4 -4 6 696.53 27.4
6 -6 0 681.53 25.7
-6 0 -6 707.63 22.9
0 6 -6 733.53 24.8
0 -6 6 682.93 27.1
-6 6 0 748.53 25.5
0 6 -6 755.82 24.1
6 0 6 676.23 27.1
6 0 -6 761.82 25.1
-2 6 -6 1969.2 60.59
6 2 -6 1967.1 60.99
6 6 -2 1962.3 60.59
2 6 -6 1911.11 60.99
-6 6 -2 1936.41 61.19
6 -2 -6 1986.4 61.19
-2 6 -6 1980.5 60.59
2 6 -6 1942.81 59.59
-6 6 2 1986.7 61.69
6 -2 6 1828.22 62.59
6 -6 -2 1890.61 61.89
-6 2 -6 1964.1 59.09
2 -6 6 1907.91 62.29
-6 2 -6 1954.9 60.89
6 -6 2 1924.71 61.79
-6 -2 -6 1920.41 59.69
-6 2 6 2023.3 61.39
-6 6 4 2234.98 69.29
6 6 -4 2224.08 68.29
4 6 -6 2218.78 68.59
-4 6 -6 2238.48 68.39
6 -4 6 2142.89 70.09
-6 4 -6 2284.87 66.89
-6 4 6 2237.88 69.09
4 -6 -6 2185.28 70.69
4 -6 6 2153.48 69.99
6 -6 -4 2056.19 69.49
-4 6 6 2135.69 68.99
6 -4 -6 2195.68 70.19
-4 6 -6 2223.08 67.69
6 -6 4 2066.89 69.39
6 -4 -6 2265.07 68.89
6 4 -6 2185.08 68.39
-6 4 -6 2194.18 68.49
4 6 -6 2124.49 66.39
-6 6 -4 2203.98 68.69
6 -6 -6 5248.88 155.58
6 -6 6 4944.71 156.18
-6 6 6 5039.4 155.58
-6 6 -6 5129.99 154.98
6 6 -6 5094.39 154.68
-7 -1 -1 1674.93 51.89
1 -7 1 1630.64 52.79
-7 1 -1 1737.13 52.49
-7 1 1 1682.13 52.49
-1 7 -1 1749.82 52.49
-1 7 1 1710.63 52.79
1 7 -1 1719.33 51.99
1 7 1 1730.83 52.29
1 1 -7 1710.23 52.89
7 -1 -1 1707.13 51.39
7 -1 1 1712.83 50.39
7 1 -1 1670.93 51.39
7 1 1 1693.73 50.69
7 -1 -1 1655.33 52.79
7 -1 1 1690.33 52.99
7 1 1 1593.54 52.59
1 -7 -1 1640.84 53.19
-1 1 -7 1693.63 52.59
-1 -7 -1 1582.44 52.79
-1 -1 -7 1697.33 52.79
-7 -1 1 1699.43 51.89
1 -1 -7 1670.23 52.89
-7 -3 1 55.29 4.9
-7 3 -1 57.39 6.2
7 -3 -1 63.39 7.2
1 7 3 66.59 6.5
3 -1 -7 68.19 7.1
3 -7 1 62.59 8
-3 1 -7 54.79 5.9
7 1 -3 58.89 5.5
1 3 -7 51.79 5.9
-1 -3 -7 48.5 6.6
-3 7 1 59.49 6.7
3 7 -1 52.69 4.9
-7 -1 -3 72.09 5.8
-7 1 3 53.19 6.8
-1 7 -3 50.99 5.5
-1 7 -3 57.69 6.4
7 -1 3 63.69 8.3
1 -7 -3 71.59 9.9
7 -3 -1 62.19 5.6
1 -3 -7 63.69 7.5
7 3 -1 58.49 5
-3 -1 -7 59.49 6.2
-1 7 3 55.29 7
7 -1 -3 67.69 8.2
1 7 -3 46.9 6.3
1 7 -3 54.59 5.4
1 -7 3 64.49 8.4
-7 3 1 66.29 6.5
7 -1 -3 63.89 5.8
3 1 -7 54.19 6.7
-7 -1 3 62.49 6.1
-7 1 -3 59.89 6.2
3 -7 -1 65.19 8.4
-3 7 -1 61.19 6.5
-7 -3 -1 50.39 4.9
-1 3 -7 66.79 6.1
7 -3 1 61.79 7.8
7 1 3 58.59 7.4
7 -3 -3 51.39 6.1
3 -3 -7 38.7 5.7
7 -3 -3 64.29 8.4
7 -3 3 54.89 8.3
-3 3 -7 63.19 5.9
-3 7 -3 31.2 4.8
-3 7 3 39.5 5.5
3 7 -3 41.7 4.8
-7 3 3 46.9 5.9
3 7 -3 46.5 5.8
3 -7 -3 46.6 7.3
-3 -3 -7 57.59 7
7 3 -3 41.9 5.6
-7 3 -3 35.7 4.9
3 -7 3 64.89 8.7
3 -3 7 58.39 9.1
-7 -3 -3 39.3 5.3
3 3 -7 48.2 6.1
-7 5 -1 243.08 11.7
-5 7 1 233.48 11.9
-1 7 -5 247.38 10.8
5 7 -1 250.87 10.9
-5 1 -7 241.58 10
7 -5 -1 223.18 12.7
-7 -1 -5 222.68 8.6
-7 1 5 240.88 11.7
5 -7 1 258.57 12.9
1 -5 7 208.98 15.7
-1 7 -5 244.88 11.2
7 1 -5 244.68 11
-7 -1 -5 235.98 10.6
-1 -7 5 242.28 14.7
7 1 -5 237.78 13.5
5 -1 -7 247.38 11.7
1 5 -7 245.18 11.1
7 -1 5 268.97 14.5
1 -7 5 259.77 13.8
-5 7 -1 259.27 11.9
-7 -5 -1 236.58 9
7 -1 -5 236.98 11.2
-5 -1 -7 246.88 10.3
7 1 5 238.78 14.8
5 -1 7 239.98 14.9
1 7 -5 238.98 11.1
-1 5 -7 232.98 10.4
7 -5 1 244.88 12.9
7 5 -1 252.77 10.5
5 -7 -1 243.18 12.5
-7 5 1 242.88 12.2
7 -1 -5 246.88 13.5
1 7 -5 239.18 10.2
-7 1 -5 244.78 11
-1 7 5 241.38 11.7
5 1 -7 234.98 11.3
-1 5 -7 235.88 11
-5 7 3 809.62 28.1
-5 3 -7 783.02 26
3 -7 -5 714.33 28.9
3 5 -7 809.52 27.5
5 7 -3 811.12 27.1
7 -3 5 818.12 29.2
7 3 -5 802.32 27.1
3 -5 7 784.32 30.1
-3 7 -5 829.72 27
5 -7 3 776.82 28.1
-3 7 -5 802.72 27.1
-7 3 5 804.52 28
7 -5 -3 792.02 28.5
-5 3 -7 802.02 27.2
5 -3 -7 800.52 27.7
-7 5 -3 828.22 27.7
5 -7 -3 747.63 28.9
7 -5 3 823.42 28.8
3 -7 5 786.42 28.6
5 -3 7 769.52 29.7
7 5 -3 794.72 26.7
-3 5 -7 781.22 26.9
-7 5 3 775.02 28
3 7 -5 791.62 27.2
7 -3 -5 800.12 28.8
-3 7 5 785.82 28
-3 5 -7 801.02 26.7
3 -5 -7 777.62 28.1
-5 -3 -7 784.92 26.9
-7 3 -5 798.02 27.3
5 3 -7 799.22 27.5
-5 7 -3 795.42 27.7
7 -3 -5 785.62 27.2
3 7 -5 821.02 25.6
5 5 -7 1896.81 58.49
7 -5 -5 1834.72 58.49
7 5 -5 1836.02 57.99
-5 5 -7 1820.72 58.19
-5 7 -5 1793.32 58.29
5 -5 -7 1848.62 59.09
-5 5 -7 1898.41 57.19
5 -7 -5 1849.21 59.99
5 -7 5 1781.22 59.29
5 -5 7 1643.74 59.69
7 -5 -5 1816.92 59.49
5 7 -5 1799.52 58.09
-7 5 -5 1910.71 58.69
-7 5 5 1840.52 59.09
7 -5 5 1890.01 59.69
-5 5 7 1863.81 59.09
5 7 -5 1869.11 55.49
-5 7 5 1818.42 59.09
7 -1 7 200.98 15.8
7 -7 1 195.48 12.3
7 -7 -1 196.58 11.7
1 7 -7 187.88 10.1
7 -1 -7 174.98 10.1
7 1 -7 185.38 10.6
7 7 -1 177.88 9.7
-7 -1 -7 173.68 8.7
1 -7 7 164.78 15.3
-7 7 1 186.88 11.7
-1 7 -7 183.28 9.6
1 7 -7 178.58 9.1
-7 1 -7 197.38 10.7
-7 7 -1 189.38 11
-7 -7 -1 175.28 7.4
-7 1 -7 169.08 8.2
-1 7 -7 181.68 9.8
-7 -3 -7 721.13 25
7 -3 -7 750.52 28.6
7 -3 7 614.44 27.9
7 3 -7 776.42 26.5
7 7 -3 761.42 26
7 -7 3 742.03 27.5
-7 3 -7 751.42 26.3
-7 3 7 759.62 27
-7 7 -3 742.63 26.6
-7 7 3 758.22 27.4
-3 7 -7 752.92 25.9
3 7 -7 766.62 24.6
-7 3 -7 731.03 24
-3 7 -7 778.72 25.9
3 7 -7 740.93 26.3
7 -3 -7 775.02 26.8
3 -7 7 747.93 29.1
7 -7 -3 632.84 26.9
7 -5 -7 3166.08 98.49
7 -5 7 3119.19 98.09
5 -7 -7 3123.89 98.59
5 -7 7 3205.38 98.49
7 5 -7 3031.2 96.09
7 7 -5 3125.29 96.09
7 -7 -5 3159.18 97.99
-5 7 -7 3126.49 95.29
5 7 -7 3143.59 96.39
7 -5 -7 3096.39 96.79
7 -7 5 3115.89 97.49
-5 7 7 3003.3 96.89
-7 5 -7 3057.09 96.29
-7 5 7 3042.4 96.89
-7 7 -5 3159.48 96.79
-7 7 5 3043.8 97.29
-5 7 -7 3027.5 96.19
7 -7 -7 4829.92 151.28
7 -7 7 5085.59 151.88
7 -7 -7 4908.51 150.18
-7 7 -7 4826.22 149.69
-7 7 7 5010.3 150.58
7 7 -7 4693.23 146.79
7 7 -7 4832.02 149.39
0 -8 0 9668.33 290.57
8 0 0 9520.75 288.77
0 8 0 9709.73 290.37
0 0 -8 9999 290.97
-8 0 0 9585.14 290.17
8 0 0 9806.52 290.47
8 -2 0 207.48 8.3
2 0 -8 203.18 10.5
2 -8 0 209.48 11.3
8 0 -2 202.08 11
0 -8 -2 196.38 12.1
0 -8 2 211.78 11.6
8 -2 0 211.18 11.4
8 0 2 204.08 11.5
-8 0 -2 220.18 10
-8 -2 0 199.28 9.2
-8 2 0 198.58 10
0 2 -8 217.68 10.3
-2 0 -8 210.98 10
0 8 2 206.48 10.3
0 8 -2 196.98 9.8
-8 0 2 195.78 10
-2 8 0 205.38 10.6
2 8 0 191.48 9.4
0 -2 -8 201.18 10.5
8 2 0 208.68 8.3
8 0 -2 204.68 8.9
2 8 2 501.25 18
-2 8 2 503.85 18.8
2 -8 2 503.55 19.3
8 -2 2 499.35 19.3
8 2 2 494.45 20.1
8 -2 -2 488.65 17.3
-2 -2 -8 501.45 18.7
-2 2 -8 489.15 18.1
8 -2 -2 464.35 18.9
2 -8 -2 468.55 19.9
2 8 -2 517.45 17.3
8 2 -2 485.65 17.3
-8 -2 -2 498.95 17.6
2 -2 -8 503.85 19
2 2 -8 504.35 18.7
-8 2 2 505.95 18.9
-2 8 -2 509.45 18.6
-8 2 -2 496.25 18.3
-8 -2 2 529.05 17.7
-2 -8 -2 480.35 20.1
-8 0 4 60.19 7.4
-4 0 -8 67.69 6.7
-8 0 -4 75.39 7.3
0 -4 -8 64.99 7.8
-4 8 0 49.6 6.3
8 0 -4 87.39 9.6
0 8 -4 58.19 7
0 8 4 71.39 7.6
-8 -4 0 57.69 5.5
-8 4 0 65.99 7.4
0 -8 -4 75.09 10.7
0 -8 4 85.89 9.8
8 -4 0 86.29 8.2
0 8 -4 65.59 6.5
4 0 -8 69.29 7.7
8 4 0 75.19 5.9
4 -8 0 65.89 8.9
8 0 4 71.29 10.1
0 4 -8 81.79 6.9
8 0 -4 69.19 6.4
-2 -4 -8 124.09 9.6
8 2 -4 126.59 8
4 8 -2 123.79 8.5
4 -8 2 127.79 10.3
4 8 -2 130.99 6.1
2 -8 -4 114.29 12.2
4 -2 -8 116.69 8.8
-8 4 -2 119.29 8.7
8 -4 -2 129.39 8.1
-4 2 -8 127.19 7.9
-8 2 4 138.59 9.2
8 2 -4 122.79 10.9
-8 -2 -4 126.89 8
8 -2 4 116.99 10.5
8 -4 -2 114.29 10
-4 8 2 123.39 9.2
-2 8 -4 122.59 8.6
-2 -8 4 121.49 12.2
2 4 -8 130.19 8.5
-2 8 4 130.79 9
-2 4 -8 121.59 8.4
8 2 4 114.79 12.7
-8 2 -4 126.89 8.3
2 8 -4 129.89 8.6
2 -8 4 111.49 10.7
4 2 -8 126.29 9
8 -2 -4 124.99 10.6
-4 -2 -8 130.69 8.6
8 4 -2 132.29 7.5
4 -8 -2 110.69 10.5
-8 4 2 121.39 9.4
2 8 -4 136.39 7.5
2 -4 -8 115.09 9
-8 -2 4 104.49 7.8
8 -2 -4 126.39 8.1
-8 -4 -2 117.79 7.2
-4 8 -2 128.29 9.2
8 -4 2 123.79 10.2
-8 4 4 177.78 11
-4 4 -8 183.18 9.7
4 -8 4 182.68 12.5
4 -8 -4 175.58 12.4
-4 -4 -8 179.98 10.8
-4 4 -8 195.18 10.1
-4 8 -4 193.38 10.9
-8 -4 -4 191.08 9.3
4 4 -8 188.78 10.5
4 -4 -8 198.48 11.3
8 -4 -4 187.08 10.6
8 4 -4 190.18 9.8
-4 8 4 176.68 11.3
4 8 -4 183.38 8.2
4 8 -4 210.28 10.3
8 -4 4 187.08 11.8
-8 4 -4 175.58 10.4
8 -4 -4 204.68 12.9
4 -4 8 194.18 14.8
0 8 -6 2 3.9
6 -8 0 8 5.9
6 0 -8 2.1 4.5
0 8 -6 5.8 4.1
-6 8 0 7.2 4.9
8 0 -6 9 4.6
0 6 -8 5.3 4.3
-8 6 0 1.9 4.7
-6 0 -8 3.5 3.9
8 0 -6 5.5 7
8 0 6 -5.5 7.3
0 6 -8 6.2 3.8
8 -6 0 5.6 5.5
0 -8 6 2.2 7.7
-8 0 -6 2.5 4.1
-8 -2 -6 171.28 10
-2 8 -6 169.68 10
-8 -2 -6 160.38 8.1
-8 6 -2 173.58 11.3
-6 2 -8 170.88 8.9
-6 2 -8 178.78 10.1
2 6 -8 176.28 10
2 -6 8 165.88 15.9
-8 2 6 161.78 11
8 -2 6 168.58 14.1
8 2 -6 174.18 13.5
-2 -8 6 184.48 17.2
-6 8 2 174.48 11.2
6 8 -2 175.28 10.1
2 -8 -6 147.89 14.1
6 -8 2 163.78 11.2
6 -2 -8 173.48 11
8 -6 -2 180.48 11.4
-2 8 -6 178.28 10.1
8 2 -6 178.68 10.2
8 6 -2 168.48 9.5
6 -2 8 184.08 15.4
-2 6 -8 177.18 10.1
-2 8 6 183.08 11.3
2 -8 6 163.38 13.5
8 -2 -6 172.98 10.1
2 8 -6 166.48 9
-2 6 -8 173.48 9.9
-8 6 2 159.98 10.9
-8 -6 -2 170.28 8.2
8 -6 2 167.88 11.4
8 -2 -6 178.98 12.9
-6 8 -2 176.48 10.8
-6 -2 -8 178.88 9.8
2 8 -6 176.18 10.1
-8 2 -6 177.78 10.2
6 2 -8 178.38 10.7
6 -8 -2 176.28 12.3
8 4 -6 916.31 31
-6 4 -8 877.51 29.5
6 -4 -8 907.51 31.9
8 -4 6 913.11 33.6
-6 4 -8 894.71 31
-8 6 -4 893.61 31.4
4 -8 -6 891.81 33.8
6 -8 4 911.51 32.7
-6 8 4 887.31 31.8
8 -6 -4 839.62 32.4
8 -6 -4 908.21 31.3
4 -6 8 899.71 34.3
6 8 -4 884.21 30.9
-8 4 6 905.81 32
-4 8 -6 882.21 30.9
4 6 -8 888.81 31.2
-4 8 -6 897.51 30.6
6 -8 -4 918.01 33.1
8 -4 -6 903.01 31.3
4 -8 6 934.51 33
4 -6 -8 889.51 32.3
4 8 -6 863.91 30.9
-6 -4 -8 896.31 30.7
-4 8 6 906.01 31.8
4 8 -6 894.91 28.8
-8 6 4 880.91 32
8 -4 -6 899.81 32.8
8 6 -4 901.51 30.6
-4 6 -8 920.11 30.4
-8 4 -6 894.51 31.2
6 4 -8 886.91 31.1
-6 8 -4 895.41 31.5
6 -4 8 924.81 34.5
-4 6 -8 871.61 30.8
8 -6 4 921.11 32.8
6 -8 -6 3117.19 96.79
6 -8 6 2905.81 96.09
6 -6 -8 2964.6 96.99
6 -6 8 3066.09 97.19
8 -6 -6 3061.09 96.29
8 -6 6 3212.08 96.89
-6 6 -8 3049.79 93.29
6 -6 -8 3043.2 95.49
6 6 -8 3050.89 94.79
-8 6 -6 3055.09 95.09
-8 6 6 3037.7 95.69
-6 6 -8 3092.29 94.99
-6 6 8 2970.8 95.39
-6 8 -6 2997.4 94.89
-6 8 6 3019.2 95.69
6 8 -6 3040.1 94.69
8 -6 -6 2999.1 94.79
8 6 -6 3050.79 94.49
0 8 -8 553.24 20.8
-8 0 -8 541.55 19.1
0 8 -8 582.64 21.8
8 0 -8 549.65 21.8
8 -8 0 565.34 22.8
-8 0 -8 585.94 21.8
-8 8 0 582.64 22.8
0 -8 8 571.54 27.1
8 0 -8 564.34 23.9
-8 -2 -8 15.8 4.8
8 8 -2 13 4.9
-8 2 -8 13.3 5.3
-8 8 -2 24.2 6.1
-8 8 2 12.3 6.2
-2 8 -8 20.8 5.4
2 8 -8 21.9 4.8
2 -8 8 13.5 9.3
8 -8 -2 28.3 7.6
8 -8 2 16.2 7.4
8 -2 -8 22.6 8.8
8 -2 8 13.5 9.3
2 8 -8 15.9 5.4
8 -2 -8 11.2 5.7
8 2 -8 10.7 5.4
-8 2 -8 26.1 4.6
-2 8 -8 28.7 5.7
-4 8 -8 505.95 20.3
-8 8 4 511.95 22.6
8 -4 -8 492.75 21
8 4 -8 519.45 21.1
8 -8 4 527.85 23.2
8 -4 -8 548.85 24.6
4 -8 -8 553.44 25.1
4 -8 8 563.44 24.9
8 -8 -4 530.35 23.4
8 8 -4 520.45 20.5
-8 4 8 512.55 21.9
-8 8 -4 485.25 21.4
8 -4 8 540.15 25.1
-4 8 -8 512.65 20.5
4 8 -8 508.15 18.7
-8 4 -8 534.85 21.4
4 8 -8 513.05 21
-8 -4 -8 505.85 20
-8 8 -6 2259.17 72.19
-6 8 -8 2260.87 71.79
-8 6 8 2202.78 72.39
6 8 -8 1976 68.19
8 -8 6 2176.78 73.59
8 -6 -8 2227.78 73.59
6 -8 -8 2255.77 72.79
6 8 -8 2214.38 71.59
-6 8 8 2288.57 72.89
6 -8 8 2312.07 74.29
8 6 -8 2253.37 71.59
-8 6 -8 2292.77 72.29
8 -6 -8 2261.07 72.39
8 -8 -6 2233.58 72.19
-8 8 6 2296.87 73.09
8 8 -6 2280.87 71.49
8 -8 -8 1112.99 41.4
-8 8 8 1179.48 42.1
-8 8 -8 1193.78 41.2
8 -8 8 1145.09 43.4
-8 -8 8 1105.49 54.19
8 8 -8 1195.28 40.5
1 1 -9 3031.2 92.89
1 -1 -9 2961.1 92.99
-1 -1 -9 3110.89 92.99
-1 1 -9 3066.39 92.69
1 9 -1 3042.7 91.99
1 9 1 3081.19 92.29
9 -1 -1 3030.5 90.99
-9 -1 -1 3121.29 92.09
-9 -1 1 3056.09 91.99
-1 -9 -1 2835.42 92.59
-1 -9 1 2942.31 92.29
1 -9 -1 2980.4 93.19
1 -9 1 2921.01 92.79
9 -1 -1 3076.89 92.89
-1 9 1 3045.9 92.79
9 1 -1 2995 92.19
9 1 1 2891.21 92.39
9 1 -1 3045.5 91.09
-1 9 -1 3075.59 92.59
-9 1 -1 3043.6 92.49
9 -1 1 2873.11 92.89
-9 1 1 3056.99 92.59
9 1 -3 43.4 6.9
-1 -3 -9 42.3 6.1
-3 -9 -1 33.7 7.3
-3 1 -9 37.1 5.3
3 -1 -9 40.8 5.8
9 3 1 40.6 8.1
1 -9 -3 48.2 8.3
9 1 -3 49.4 6.2
-1 -9 3 42.6 7.4
-9 -1 -3 32.7 5.2
3 -9 1 48.9 7.2
-9 1 3 44.1 5.9
9 -1 3 41.4 6.9
-3 9 1 40 6
3 9 -1 37 4.7
-9 -3 1 52.79 6.5
9 -3 -1 47.8 7
1 3 -9 38.5 5.7
-1 9 -3 50.09 5.8
1 9 3 50.49 5.8
-9 3 -1 41.2 5.7
9 -3 1 59.99 8.8
-9 -3 -1 42 4.9
-9 -1 3 43 5.5
3 1 -9 53.79 6.9
9 -3 1 38 4.8
-3 -1 -9 32.2 5.1
9 -1 -3 46 5
-1 3 -9 49.4 5.9
1 -3 -9 33.2 6.1
9 1 3 58.89 8.5
-1 9 3 33 5.8
-1 -9 -3 57.09 8.7
1 -9 3 49.1 7.3
-3 9 -1 44 6
9 3 -1 37.7 5.3
9 -1 -3 51.89 7.1
-9 3 1 33.8 6
-9 1 -3 48.1 5.9
3 -9 -1 39.9 6.9
1 9 -3 42.3 5.3
-9 -3 -3 34.4 4.9
3 -3 -9 23.4 5.5
3 3 -9 32.6 5.4
-3 -9 -3 41.7 8.1
9 -3 3 35.6 7.1
9 3 -3 29.2 4.4
-3 9 3 23.7 5.5
3 9 -3 32.6 5.4
9 -3 -3 30.3 5
3 -9 -3 33.7 8
-3 -3 -9 24.6 5.4
-3 3 -9 29.3 4.9
-9 3 3 28.9 5.9
3 -9 3 33.5 7.1
9 -3 -3 34.6 6.7
3 9 -3 36.6 4.7
9 3 3 35.1 8.7
-9 3 -3 29.1 5.4
-9 -3 3 28.8 4.7
-3 9 -3 27.5 5.5
1 5 -9 8.6 4.7
-1 -9 5 16.9 8.2
-1 9 -5 31.3 5.4
-9 1 5 25 5.9
5 -1 -9 25.9 6
-1 -5 -9 26.8 6
9 -5 -1 18 4.8
9 -5 -1 23.4 6.3
-9 -1 -5 32.7 5.3
9 1 -5 21.5 4.7
1 -9 -5 24 8.1
-5 1 -9 21.3 4.8
9 -1 5 32.7 7.7
-5 9 1 17.2 5.7
-1 9 -5 28.2 5.3
5 -9 1 26.8 7
9 1 -5 27.5 7.1
-9 5 -1 21.4 5.6
9 -5 1 22.5 6.3
-9 5 1 20.5 6.1
1 -9 5 31.3 7.9
1 9 -5 26.4 5.2
-9 1 -5 25 5.3
-1 5 -9 19.6 5
5 1 -9 27.5 5.7
-5 -1 -9 14.1 4.7
9 -1 -5 19.9 4.9
9 1 5 30.5 9
1 9 -5 20 4.9
9 -1 -5 25 7.4
-1 9 5 18.1 5.4
1 -5 -9 27.3 6.1
-5 9 -1 21.2 5.7
5 -9 -1 24.7 6.2
-9 -5 -1 21.6 4.2
-9 -1 5 25.9 5.5
9 5 -1 17.2 4.3
3 -5 9 93.29 12.3
-9 5 -3 96.09 9.1
9 -5 -3 93.49 10.2
-3 9 -5 98.09 8.3
3 5 -9 95.99 8.9
5 9 -3 98.89 8.2
9 -3 5 86.09 11.5
-3 -5 -9 104.39 9.9
3 -9 -5 89.39 12.1
5 -9 3 64.49 8.8
-5 3 -9 92.99 8.2
-9 3 5 106.59 9.4
5 -3 -9 73.79 9.4
-5 9 3 74.19 9.4
9 3 -5 101.09 8.3
-9 -3 -5 98.69 8.4
9 -5 -3 90.09 8.5
-5 3 -9 100.09 8.3
9 3 -5 87.99 12.1
-5 -3 -9 77.29 9.1
3 9 -5 99.09 7.6
5 -3 9 104.29 12.8
5 -9 -3 100.89 10.7
-3 9 5 107.49 9.4
3 -5 -9 86.39 9.2
9 -5 3 83.99 10.7
-9 3 -5 85.29 9.1
9 -3 -5 97.09 8.6
-3 5 -9 96.29 8
9 5 -3 97.79 7.8
3 -9 5 97.59 10.9
3 9 -5 91.99 8.9
9 -3 -5 102.29 11.6
-9 5 3 89.39 10.4
-9 -5 -3 101.29 7.6
-5 9 -3 99.19 9.1
-3 5 -9 90.99 8.3
5 3 -9 87.79 8.4
5 9 -5 620.94 23
5 -5 -9 570.24 23.5
5 -9 5 601.54 24.1
5 -5 9 618.94 27.4
5 5 -9 576.64 22.6
-9 -5 -5 565.94 21.4
5 9 -5 602.34 19.3
-5 -5 -9 585.94 23
-5 9 -5 594.04 22.9
9 5 -5 613.84 22.4
-9 5 5 589.44 23.7
-5 5 -9 586.54 21.7
-9 5 -5 633.54 23.6
-5 9 5 604.54 24.1
-5 5 -9 616.14 23.1
9 -5 -5 593.64 22.8
5 -9 -5 618.44 25.7
9 -5 5 593.84 24.9
9 -5 -5 564.34 24.3
-7 1 -9 242.38 11.4
-1 9 -7 224.48 12.1
-9 7 -1 243.08 13.5
7 -1 -9 228.38 13
9 -7 -1 245.08 14.4
-7 9 1 217.08 13.4
7 -9 1 220.28 14.1
1 7 -9 238.68 12.4
9 1 -7 255.57 15.6
-1 9 -7 228.48 12.5
9 -1 7 234.48 17.7
-7 1 -9 233.58 12.3
-1 -9 7 234.08 19.5
9 1 -7 213.28 12.3
-9 -1 -7 237.18 12.2
1 7 -9 234.68 11.3
1 9 -7 243.48 12.4
-1 7 -9 233.98 12.4
9 -1 -7 222.78 15.6
1 -9 7 258.97 17.2
-7 9 -1 245.28 13.5
9 -7 1 243.48 14
-1 7 -9 226.68 11.8
7 -9 -1 226.68 14.1
1 9 -7 228.98 11.6
-9 7 1 238.38 13.6
-9 1 -7 235.78 12.3
9 -1 -7 223.98 12.7
7 1 -9 214.48 12.8
-7 -1 -9 230.98 11.7
-7 9 3 12.6 6.5
3 -9 -7 7.2 8.5
-7 3 -9 12.3 5
-3 9 -7 16.5 5.4
-9 -3 -7 13.3 5.2
9 -3 7 6 8.3
9 3 -7 16.5 8.9
9 -7 -3 6.4 7.1
3 7 -9 10.9 5.4
7 9 -3 9.6 5
-9 7 -3 -0.2 5.7
9 3 -7 3.7 5
-7 3 -9 5 5.3
7 -3 -9 10.8 5.8
3 7 -9 13 4.6
-9 3 7 1.9 6.1
-3 9 -7 17.6 5.3
7 -9 3 12.8 7.7
3 -7 9 25.9 10.4
-9 -3 -7 4.6 5
-3 7 -9 18.7 5.7
3 -7 -9 10.8 6.8
9 -7 3 9.4 6.9
-9 3 -7 15 5.7
9 -3 -7 5.5 5.1
-9 7 3 3.9 6.4
3 9 -7 16.4 5.6
7 -9 -3 5.5 7
7 3 -9 7 5.4
3 9 -7 15.5 4.8
7 -3 9 13.7 9.7
-3 7 -9 13.9 5
-7 -3 -9 3.5 5.6
9 -3 -7 14.8 8.1
9 7 -3 12.9 4.8
-3 9 7 9.3 6.2
-9 -7 -3 14.2 4.8
3 -9 7 15.2 8.1
-7 9 -3 11.3 5.9
9 -7 -5 1021.8 36.4
-7 5 -9 1023.2 34.3
5 -9 -7 1021.7 38.9
7 -9 5 1033.8 37.9
9 5 -7 1038.7 35.7
-5 9 -7 1069.09 36.4
7 9 -5 1063.79 36.1
-7 5 -9 1039.1 36.1
5 -7 9 1044.2 39.5
-9 7 -5 1042.4 36.8
-9 5 7 1049.09 36.9
9 -7 -5 1056.99 38.2
-7 9 5 1024.8 37.3
7 -5 -9 1017.2 38.5
5 7 -9 1009 35.9
7 -5 -9 1028.5 36.8
5 9 -7 1053.99 36.3
7 5 -9 1025.1 36
5 9 -7 1041.3 33.2
9 7 -5 1032.7 35.5
5 -9 7 1035.8 38.5
-9 7 5 1044.3 37.3
5 -7 -9 1030.7 37.3
9 -5 -7 1043.6 38.1
-5 7 -9 1063.09 36
-9 5 -7 1018.7 36.3
-7 9 -5 1048.3 36.7
-7 -5 -9 979.2 35.4
-5 9 7 1017.6 36.8
-5 7 -9 1019.2 35.1
9 -5 -7 1009.1 36.1
7 -9 7 1406.66 49.7
7 -7 9 1424.96 50.69
-7 9 -7 1431.06 47.9
7 -7 -9 1392.96 48.3
7 7 -9 1407.96 47.3
-7 7 -9 1386.56 47.5
9 -7 -7 1385.26 47.6
-9 7 7 1361.66 48.5
9 7 -7 1361.76 46.7
-9 7 -7 1406.96 47.9
7 9 -7 1354.26 47
-7 9 7 1388.06 48.2
1 -9 9 2724.83 89.59
-9 9 1 2677.53 87.19
9 1 -9 2715.53 86.09
-1 9 -9 2692.23 85.29
-9 1 -9 2685.63 86.09
-9 9 -1 2769.32 87.19
-9 -1 -9 2776.12 85.99
1 9 -9 2718.73 84.79
9 -1 -9 2794.92 87.79
9 1 -9 2703.53 86.99
-1 9 -9 2720.53 85.99
1 9 -9 2805.42 86.29
9 -1 -9 2729.03 86.19
-9 9 3 795.22 30.8
9 9 -3 770.02 28.4
9 -3 -9 788.82 31.9
-9 9 -3 810.72 30.2
3 -9 9 795.02 33.7
-9 3 -9 809.72 29.6
9 3 -9 767.02 31.3
-9 -3 -9 732.53 27.7
-3 9 -9 762.62 28.6
3 9 -9 801.22 29.6
9 -3 -9 759.32 29.2
9 3 -9 811.72 29.2
3 9 -9 774.22 27.2
-3 9 -9 769.02 28.9
-5 9 -9 3.2 6.7
5 9 -9 1.1 5.6
9 -5 -9 -1.2 6.7
-9 9 5 -2.4 7.7
-9 -5 -9 -6.8 7.2
-5 9 9 -22.3 30.4
-9 9 -5 -1.9 6.9
-5 9 -9 7.7 6.2
5 -9 -9 -8.6 7.5
5 9 -9 5.4 6.3
5 -9 9 -3.5 10.3
9 5 -9 0.8 6.4
9 9 -5 0.1 6.1
-9 5 -9 -4.7 6.3
-9 7 9 -12.3 37.8
-9 9 7 29.8 36.2
-7 -9 9 0.7 18.3
-7 9 9 9 34.7
9 9 -7 0 6.7
7 -9 9 -12.6 10.4
-9 7 -9 1.2 7.2
-9 7 9 3.9 8.1
-9 -9 7 28 23.8
-9 9 -7 -4.2 7
-9 -7 9 19.4 21.6
-7 9 -9 9 6.9
9 -9 -7 3.8 8
9 -7 -9 11.2 8.6
9 7 -9 8 7.1
7 -9 -9 -1.9 8.1
-9 9 7 0.7 7.6
9 -7 9 8.9 11
9 -9 7 9.8 9.8
9 -7 -9 4.4 9.7
9 -9 -7 1.8 9.6
7 9 -9 4.3 6.8
-9 -9 9 920.51 51.69
-9 9 9 949.51 37.9
9 -9 9 1012.5 41.2
9 -9 -9 1004.2 38.2
9 9 -9 1005.8 36.8
-9 9 -9 970.8 37.6
-9 9 9 945.61 69.79
9 -9 -9 989.2 40.2
0 0 -10 3077.99 95.29
0 10 0 3109.69 94.89
10 0 0 3034.3 94.99
0 -10 0 3071.99 95.19
10 0 0 3047.4 92.59
-10 0 0 3148.28 94.69
0 -2 -10 786.72 27.4
-2 -10 0 729.83 26.8
10 0 -2 766.32 25.1
-10 0 2 752.12 26.5
10 2 0 754.82 26.8
2 0 -10 767.92 27.2
10 -2 0 761.92 24.1
-2 10 0 760.52 27.1
2 10 0 734.13 25.7
-10 2 0 788.32 27.1
0 -10 2 721.33 27.1
10 2 0 748.53 24.3
-10 0 -2 756.72 26.3
0 10 -2 764.82 26.1
0 10 2 756.72 26.6
0 -10 -2 744.73 27.8
0 2 -10 740.13 26.6
10 -2 0 768.52 27.4
10 0 -2 714.53 26.8
10 0 2 740.33 27.4
-10 -2 0 755.92 25.7
2 -10 0 738.13 27.5
-2 0 -10 759.52 26.7
10 2 -2 1059.69 36.4
-10 -2 2 1091.89 36.1
2 -10 -2 1101.19 38.1
2 -10 2 1068.69 37.5
10 -2 -2 1110.09 35.5
-2 10 2 1089.79 37.3
2 10 -2 1095.69 35.8
10 2 2 1123.09 38.2
-10 -2 -2 1104.19 36.1
-10 2 2 1129.69 37.3
-2 10 -2 1086.69 36.9
-2 -10 -2 1099.59 37.9
-2 -10 2 1063.79 37
10 2 -2 1109.89 35.5
-2 -2 -10 1137.39 37.4
-2 2 -10 1095.99 36.8
2 -2 -10 1135.89 37.7
2 2 -10 1109.69 37.3
2 10 2 1129.89 36.3
-10 2 -2 1106.49 37
10 -2 2 1159.08 38.1
10 -2 -2 1106.69 37.4
-4 10 0 13.5 5.6
0 10 -4 15.7 5.1
0 -10 -4 4.1 7.5
-10 0 -4 -0.1 4.9
-10 0 4 10.8 5.7
10 0 4 8.7 8.1
0 -10 4 11.4 7.4
10 -4 0 12.5 6
10 0 -4 8 4.5
-10 4 0 3.3 5.3
4 -10 0 7.1 6.3
0 -4 -10 11.4 5.6
4 0 -10 8 5.1
0 10 4 7.1 5.3
10 0 -4 -2.5 6.4
0 4 -10 6.5 5
-10 -4 0 6.5 4.6
10 -4 0 16 4.4
-4 0 -10 10.6 4.7
-10 4 -2 24.4 6.1
4 -10 2 28.5 7.2
4 -2 -10 24.3 5.8
10 2 -4 31.5 5.1
-10 -4 2 19.7 4.9
-4 10 2 23.4 6.2
10 -2 4 39.9 8.2
2 -10 -4 24.1 8
-2 10 -4 30.3 6.1
10 -4 -2 27.8 7.2
-10 -2 -4 24.2 5.4
-4 2 -10 29.1 5.3
10 2 -4 31 7.5
-10 2 4 23.3 6.1
-2 -4 -10 37.1 6.8
10 -4 -2 28.5 5.2
-4 -10 -2 32 8.9
4 10 -2 19.7 4.5
2 4 -10 21.9 5.8
-2 -10 4 23 9.2
-4 -2 -10 28 5.9
10 -2 -4 25.7 4.9
4 2 -10 17.3 5.4
2 -4 -10 25.7 6.3
10 -4 2 30.3 3.6
10 4 -2 20.3 4.5
-10 2 -4 33.2 6
10 2 4 38.3 10
-4 10 -2 27.2 6.3
-2 4 -10 30.5 6
-10 -4 -2 23.7 5.1
2 -10 4 18.3 7.5
10 -4 2 38 7.6
-10 -2 4 24.4 5.7
2 10 -4 25.5 5.9
4 -10 -2 35.7 7.9
-10 4 2 18.3 6.2
10 -2 -4 25.6 7.1
-2 10 4 26.6 6.4
2 10 -4 22.4 5.2
-2 -10 -4 22.9 9
-10 -4 -4 9.8 5.2
4 -10 4 1.8 7.3
-10 4 4 3.3 6.1
10 4 -4 14.6 4.9
4 -10 -4 16.4 8.4
-4 4 -10 9.7 5
10 -4 -4 8.3 5.3
4 10 -4 17.9 4.7
-10 4 -4 16.3 5.8
10 -4 4 23.1 7.5
-4 4 -10 16.4 5.2
4 -4 -10 5.4 5.5
4 4 -10 4.4 5.5
4 10 -4 15 5.4
-4 10 4 3.6 5.8
-4 -4 -10 16.4 6.2
10 -4 -4 9.8 6.9
-4 -10 -4 -2.1 9.1
-4 10 -4 10 5.6
0 -10 -6 37.6 9.7
10 0 -6 26.7 5.8
-10 0 -6 30.4 6.5
-10 0 6 25.7 6.5
6 0 -10 31.4 6.6
-6 0 -10 27.1 5.6
-6 10 0 32 7
-10 6 0 29.5 6.7
0 10 -6 9 5.3
10 0 6 25.9 9.6
10 0 -6 35.3 8.6
0 -10 6 38.2 9.4
10 -6 0 17 5.5
0 6 -10 28 6
0 10 -6 28 5.6
6 -10 0 38 7.9
0 -6 -10 22.5 7
10 -6 0 31.6 7.9
6 -2 -10 72.49 9.2
10 -2 6 109.19 14.2
-2 10 -6 76.89 9
-10 6 -2 90.59 9.9
10 2 -6 98.89 13
-10 2 6 80.99 10.3
-2 -10 6 104.59 14.2
10 -6 -2 85.19 9.5
-10 -2 -6 87.79 9.2
-2 -6 -10 90.19 10.5
-6 2 -10 88.09 9.1
10 2 -6 83.19 8.9
6 -10 2 81.89 12
2 -10 -6 102.89 14.5
2 6 -10 83.79 9.4
-6 10 2 90.49 10.4
10 -6 -2 73.69 10.6
-10 -6 -2 89.69 8.4
-6 10 -2 75.29 9.7
10 -2 -6 107.99 12.5
-2 6 -10 87.89 9.3
-2 10 6 83.29 9.7
2 10 -6 91.69 9.4
-10 2 -6 84.09 9.6
10 -6 2 79.49 11.6
6 2 -10 97.49 9.8
10 6 -2 74.29 8
-2 6 -10 85.79 8.4
2 -6 -10 98.39 11.3
2 -10 6 93.89 11
-10 6 2 72.89 9.9
10 -2 -6 77.39 8.9
2 10 -6 74.79 8.8
6 -10 -2 89.79 11.9
-6 -2 -10 77.19 9.5
6 -4 -10 123.59 11.6
-4 10 -6 131.59 10.4
10 -6 -4 132.99 11.1
6 -10 4 147.19 13.9
-10 6 -4 135.79 11.8
-10 4 6 121.99 11.3
4 6 -10 125.59 10.1
6 10 -4 130.69 10.6
4 -10 -6 120.19 14.9
-10 -4 -6 120.89 10.2
-6 10 4 123.79 11.5
-4 -6 -10 123.89 11.9
10 -6 -4 124.79 13.2
10 -4 6 118.99 13.6
-6 4 -10 137.39 10.3
10 4 -6 127.79 10
-6 4 -10 137.79 10.3
4 -6 10 130.59 17.7
10 6 -4 123.49 9.9
-6 -4 -10 119.39 11.5
-6 10 -4 124.29 10.8
-10 4 -6 142.09 11
10 -4 -6 116.29 10.5
4 -6 -10 121.79 11.2
-4 6 -10 144.29 10.3
-10 6 4 104.79 11.9
10 -6 4 127.99 12.7
6 -10 -4 132.19 14.1
-4 10 6 122.79 11.1
-4 6 -10 126.99 10
6 4 -10 148.79 11.2
4 -10 6 133.29 13.9
-10 -6 -4 122.49 9.5
4 10 -6 125.89 9.9
10 -4 -6 123.29 13.6
4 10 -6 129.09 9.5
-6 6 -10 696.03 27.2
-6 10 6 698.53 28.2
10 -6 -6 731.73 27.3
10 -6 -6 728.43 29.2
6 -6 10 727.13 32.7
6 -10 -6 676.73 29.8
6 -10 6 736.23 29.8
-6 10 -6 721.73 27.8
-6 -6 -10 703.03 27.5
-10 -6 -6 685.03 25.6
-10 6 -6 717.73 27.8
-10 6 6 712.13 28.6
6 10 -6 699.93 27.2
6 -6 -10 714.43 28.6
6 6 -10 727.53 27.5
-6 6 -10 699.03 26
10 6 -6 703.63 26.5
0 10 -8 2570.04 80.49
10 0 8 2591.54 84.29
-10 0 -8 2497.15 80.29
-8 10 0 2642.74 81.89
-8 0 -10 2502.55 80.29
0 10 -8 2535.35 79.39
10 0 -8 2547.95 80.29
8 0 -10 2467.35 80.49
8 -10 0 2575.04 81.79
-8 0 -10 2498.85 78.09
0 -10 8 2428.76 83.29
10 0 -8 2628.64 81.29
0 8 -10 2522.05 80.39
0 8 -10 2462.65 79.29
-10 8 0 2610.64 81.89
10 2 -8 1798.32 60.69
-10 -2 -8 1785.62 59.89
10 -8 -2 1944.11 63.59
2 8 -10 1832.62 58.99
2 -10 -8 1884.31 63.69
-8 2 -10 1780.12 57.99
8 -10 2 1877.01 61.89
10 2 -8 1889.01 60.39
-2 10 -8 1841.72 59.89
-8 2 -10 1859.01 60.69
-10 8 -2 1928.91 61.79
2 8 -10 1890.71 60.89
8 -2 -10 1875.81 60.99
-2 10 -8 1872.71 60.29
-8 10 2 1875.51 62.09
10 -2 8 1847.02 64.39
2 10 -8 1890.21 60.79
2 -8 -10 1839.42 61.99
-10 8 2 1848.72 61.79
8 2 -10 1896.31 60.89
10 -2 -8 1886.21 60.49
10 -2 -8 1887.51 61.99
-8 -2 -10 1772.22 58.49
-2 8 -10 1831.42 59.89
-2 8 -10 1861.61 60.19
2 10 -8 1920.21 59.09
-10 2 -8 1880.81 60.89
2 -10 8 1811.92 63.09
-8 10 -2 1825.52 61.39
8 -4 -10 226.58 18.1
4 -8 10 222.98 19.7
8 -10 4 208.28 15.3
-4 10 -8 179.38 13
-10 8 -4 194.38 14.8
-8 4 -10 178.58 12.1
-10 4 8 219.88 14.8
-8 4 -10 189.38 13.1
8 -4 -10 201.28 14.6
8 10 -4 180.88 12.3
-10 -4 -8 193.58 12.4
10 -8 -4 216.98 14
4 8 -10 208.18 11.6
-8 10 4 202.88 14.5
4 8 -10 210.18 13.9
4 -10 -8 213.08 18.1
10 4 -8 204.08 13.1
10 8 -4 195.98 12.6
-8 -4 -10 193.78 13.6
4 10 -8 225.48 13.3
4 -10 8 201.28 18.2
10 -4 -8 176.68 13
-4 8 -10 217.08 13.7
-8 10 -4 197.58 14.8
-10 4 -8 202.18 13.7
-4 8 -10 208.38 13
8 4 -10 198.98 13.2
4 10 -8 169.18 11.9
-10 8 4 207.18 15.2
4 -8 -10 218.48 16
-4 10 8 249.18 48.1
10 -4 -8 223.08 17
6 -10 -8 4 10.9
-8 -6 10 2.6 22.2
-10 8 -6 8.6 7.9
-6 10 -8 13.2 6.9
-8 10 6 13.8 8.2
6 8 -10 4.5 7.2
-6 8 10 0.4 28.1
8 -6 -10 13.7 8.4
8 10 -6 4.7 6.3
10 6 -8 8.9 6.7
6 8 -10 16.6 6.1
-10 -6 -8 16.6 7.9
-10 6 8 -2 7.1
8 -10 6 12.3 9.2
10 -8 -6 -2.8 7.6
10 -8 -6 8.6 7.4
-8 6 -10 12.5 7.2
8 -6 -10 -7.8 9.5
6 -8 10 13.7 11.5
-6 -8 10 -31.9 17.9
6 -8 -10 13.4 8.1
-8 10 -6 11.3 7.5
10 -6 -8 14 7.8
-8 -6 -10 3.3 7.8
6 -10 8 9.7 9.7
-6 8 -10 10.8 6.9
8 6 -10 17.7 7
-10 6 -8 17.9 7.9
-8 6 10 -13.8 34.1
6 10 -8 13.6 7
-10 8 6 5.3 8.1
10 8 -6 9.7 6.8
-6 10 8 -1.2 32.7
-6 10 8 4.5 7.9
-6 8 -10 6.5 7.1
10 -8 -8 233.58 18.3
8 -8 10 278.77 20.9
8 8 -10 245.48 16.5
8 -10 -8 283.17 17.6
8 -8 -10 251.57 17.1
-10 8 -8 257.67 17.4
-8 8 10 331.97 42.1
-8 10 8 312.37 41.5
8 10 -8 250.57 16.5
-10 -8 8 243.08 29.3
-10 8 8 334.77 48
-8 -8 10 293.87 37.1
8 -10 -8 267.57 20.3
8 -10 8 248.88 20.5
10 -8 -8 261.87 19.5
10 -8 8 268.47 20.3
10 8 -8 259.97 16
-8 8 -10 233.88 16.8
-8 10 -8 236.48 16.4
8 -8 -10 258.87 20.6
-10 8 8 236.78 17
-8 10 8 274.97 18.1
-10 10 0 2096.69 68.69
-10 0 -10 2116.59 67.29
0 10 -10 1731.83 66.49
10 0 -10 2122.19 67.49
0 10 -10 2144.49 66.29
10 0 -10 2161.68 68.79
2 10 -10 2130.09 69.59
-2 10 10 2321.47 97.59
-10 -2 -10 2110.39 68.99
-10 2 -10 2098.99 69.59
-10 10 -2 2140.19 70.69
-10 10 2 2197.18 71.29
10 -2 -10 2162.38 69.59
2 10 -10 2129.29 67.69
10 -2 -10 2141.49 71.19
-2 10 -10 2169.78 69.29
-10 -2 10 2069.59 87.89
-10 2 10 2043.6 94.79
2 -10 10 2185.58 74.19
-2 10 -10 2097.29 68.59
10 2 -10 2162.68 70.39
10 2 -10 1964.2 68.89
10 -4 -10 447.46 22
4 10 -10 436.76 20.7
-4 10 -10 449.95 21.2
10 -4 -10 444.06 33.5
10 -10 4 478.35 24.1
-10 4 -10 448.46 21
4 -10 -10 460.45 23.6
-4 10 10 369.66 53.19
4 10 10 472.85 56.29
4 10 -10 432.26 19.2
4 -10 10 463.05 27.8
-10 10 -4 467.95 21.9
-10 10 4 434.96 22.1
10 4 -10 425.36 25.5
-4 -10 10 399.26 37.9
10 4 -10 451.95 21
10 10 -4 491.05 20.9
10 -4 10 454.15 27.6
-10 4 10 369.76 42
10 -10 -4 439.96 23.1
4 -10 -10 470.05 25.9
-4 10 -10 467.85 20.9
-10 -4 10 383.76 48.3
6 -10 10 91.29 14.7
10 -10 -6 111.49 14.2
10 10 -6 97.99 10.9
10 -6 -10 87.29 13
10 -6 10 93.89 14.7
-10 -6 10 64.69 26.2
-10 10 6 79.69 11.6
10 -10 -6 87.29 12
-6 -10 10 93.99 19.9
-6 10 10 93.89 33.9
6 -10 -10 85.19 13.6
-10 6 10 94.79 35.9
-10 10 6 90.99 40.7
-6 10 -10 100.89 12.3
10 -6 -10 100.09 14
10 6 -10 74.99 10.1
10 -10 6 79.29 11.9
-10 6 -10 79.69 10.8
-10 10 -6 79.89 11.2
6 -10 -10 89.69 12
6 10 -10 99.49 12.9
10 -8 10 1182.58 47.7
10 8 -10 1141.69 42.1
8 -10 -10 1179.68 45.8
10 10 -8 1118.49 41.4
8 10 -10 1228.78 42.8
10 -10 -8 1145.19 43.1
10 -10 8 1119.69 45.6
10 -8 -10 1168.98 45.3
-8 -10 10 1111.49 55.79
-8 10 10 1171.38 71.09
8 -10 10 1159.38 47.3
10 -8 -10 1167.28 43.7
-10 8 -10 1150.88 42.9
-10 10 -8 1145.49 43
-10 10 8 1169.48 43.6
-8 10 -10 1146.49 42.5
-10 8 10 1188.88 77.09
-10 10 8 1093.09 75.09
-10 -10 8 1098.79 57.49
10 -10 -8 1149.98 45.1
8 -10 -10 1138.59 43.3
-10 -8 10 1111.69 58.29
10 -10 -10 1553.04 55.69
-10 10 10 1424.56 82.69
-10 10 10 1486.35 89.49
-10 -10 10 1464.95 68.89
10 -10 -10 1571.44 57.29
10 -10 10 1536.65 58.49
-10 10 -10 1534.25 55.29
10 10 -10 1568.44 54.09
1 11 -1 1361.56 43.5
-11 -1 -1 1343.87 43.5
-11 -1 1 1375.46 43.6
1 -11 1 1227.48 44.4
-11 1 -1 1286.57 43.9
-1 11 1 1327.97 44.1
11 1 -1 1302.17 41.7
-1 -11 1 1369.46 44.5
1 -11 -1 1252.37 44.4
-11 1 1 1326.97 44
-1 11 -1 1313.77 43.9
-1 -1 -11 1354.66 44.6
-1 1 -11 1381.56 44.3
1 -1 -11 1365.46 44.9
1 1 -11 1375.26 44.6
11 -1 -1 1332.87 41.7
-1 -11 -1 1276.27 44.4
11 1 1 1344.77 44.5
11 1 -1 1382.06 44.2
1 11 1 1348.47 43.6
11 -1 1 1332.57 44.7
11 -1 -1 1392.86 44.6
1 11 3 166.48 11.2
-11 1 3 158.28 12
3 -1 -11 170.08 11.3
-3 1 -11 181.88 11.1
-3 -11 -1 160.98 13.3
-1 -11 3 164.48 14.1
1 -11 -3 171.48 13.7
11 3 1 173.58 15
11 -3 -1 173.78 12.8
-11 3 -1 194.58 12.1
-3 11 1 155.88 11.9
11 -1 3 180.38 13.6
11 -3 -1 173.28 9.5
-1 -3 -11 168.58 11.9
3 -11 1 169.18 13
-1 11 -3 165.08 11.2
1 3 -11 190.58 11.6
-11 -3 1 182.78 11
11 1 -3 180.58 9.9
3 11 -1 176.88 10.4
-11 -1 -3 188.78 11.3
11 1 -3 175.28 13.2
-11 1 -3 184.18 11.5
11 -3 1 167.88 13
-1 -11 -3 155.38 14.6
-1 3 -11 167.38 11.6
-11 -3 -1 157.68 10.5
11 -1 -3 166.98 12.4
-3 11 -1 175.58 11.8
-11 -1 3 185.98 11.5
1 -3 -11 180.88 11.8
-11 3 1 156.98 11.9
11 3 -1 171.38 9.1
11 1 3 180.08 15
3 1 -11 186.08 11.3
-3 -11 1 164.68 13.9
3 -11 -1 166.38 12.8
1 -11 3 184.38 14
-1 11 3 166.68 11.6
1 11 -3 175.68 11
11 -1 -3 171.98 10.1
-3 -1 -11 184.08 11.6
11 3 -1 169.38 14.3
-3 11 -3 273.97 14
3 -11 3 268.07 15.6
11 3 -3 233.18 15.5
-3 3 -11 250.67 13.4
-11 -3 -3 251.37 13
11 -3 3 257.07 15.4
-3 -11 3 246.38 18.1
-3 -3 -11 251.47 14
11 3 -3 252.57 12.2
-3 11 3 263.87 14.7
-3 -11 -3 246.18 17.1
3 3 -11 257.57 13.9
-11 3 -3 245.08 14
-11 3 3 250.27 14.6
3 11 -3 238.28 12.5
3 -11 -3 243.68 16
11 3 3 244.88 19.1
3 -3 -11 266.27 14.7
11 -3 -3 227.18 12.1
-11 -3 3 246.78 12.7
-5 11 1 0.5 6
-11 -1 -5 0.3 5.8
5 -11 1 -1 7.4
-5 1 -11 10.7 5.8
11 1 -5 13.6 5.3
-11 5 -1 -3.4 6.1
11 1 -5 8.6 7.9
1 -11 -5 -5.6 8.5
-1 -5 -11 -1.3 6.6
-1 -11 5 12.1 9.8
-1 11 -5 6.5 5.6
11 -5 -1 8.1 5.4
1 5 -11 5.4 5.5
5 -1 -11 3.4 5.5
11 -1 5 -3.4 8.7
-11 1 5 7 6.4
11 -5 -1 13.7 7.5
1 -5 -11 5 6.9
-1 11 5 9.5 6.1
-11 5 1 -6.3 6.2
5 -11 -1 3.1 7.4
5 1 -11 2.4 5.8
1 11 -5 3.1 5.4
11 -5 1 13.5 5.1
11 -1 -5 2.4 5
-1 -11 -5 6.8 9.3
-5 11 -1 1.1 5.8
-11 1 -5 11.8 6.2
-1 5 -11 6.5 5.3
-11 -1 5 18 6.5
11 -5 1 3.5 7
11 5 -1 5.1 4.6
-5 -1 -11 16.2 5.8
11 -1 -5 9 7.3
1 -11 5 14.2 8.8
-11 -5 -1 8.2 5.7
11 1 5 1.7 9.4
-11 3 5 6.4 6.7
-3 -11 5 -1.6 13.9
3 5 -11 0.6 5.7
11 -5 -3 10.4 5.6
3 -11 -5 0.2 8.2
-5 11 3 7.4 6.1
-3 -5 -11 4.1 6.7
-5 -11 -3 10.2 9.9
-11 -3 -5 -0.5 5.8
5 -3 -11 8.6 6.5
11 -3 5 -2.3 8.2
-5 3 -11 9.5 5.8
11 -5 -3 4.8 7.4
5 -11 3 1.2 7.6
11 3 -5 0.4 4.9
11 3 -5 10.5 8.4
-11 5 -3 -8.2 5.7
-3 11 -5 1.5 5.7
11 -3 -5 -0.8 7.6
5 -11 -3 3.3 8.2
-5 11 -3 5.3 6.3
5 3 -11 -0.8 5.1
-3 -11 -5 -4.3 9.4
-11 3 -5 3.8 6.2
11 -3 -5 -1.4 5.2
3 -11 5 1 8.1
3 11 -5 12.4 5.6
-3 11 5 5.3 6
3 11 -5 1.8 5.7
-5 -3 -11 4.3 6.2
-3 5 -11 -6.7 4.8
-11 5 3 7.6 6.8
11 5 -3 6.3 5.1
-11 -5 -3 7 5.7
3 -5 -11 3.8 6
11 -5 3 0.1 7.3
-3 5 -11 3.3 5.6
11 -5 -5 195.28 14.8
-5 5 -11 202.38 12.9
5 5 -11 190.98 13.2
11 -5 5 203.98 15
-5 11 5 200.38 14.1
-5 11 -5 183.08 12.8
11 5 -5 195.28 12.1
5 -5 -11 208.38 14.2
-5 5 -11 193.68 12.6
5 11 -5 183.48 12.9
11 -5 -5 194.18 12.9
5 -11 -5 179.98 16.1
-11 5 -5 188.58 13.3
-5 -5 -11 203.98 13.9
-11 5 5 197.08 13.8
-5 -11 -5 198.48 17.9
5 -11 5 200.58 15.6
-11 -5 -5 177.58 12.2
-7 1 -11 1159.48 39
-1 -7 -11 1213.88 42.1
-11 7 -1 1241.28 42
-1 11 -7 1152.88 39.9
-11 -1 -7 1190.78 40.6
-1 11 -7 1168.38 40.2
7 -1 -11 1138.19 40.9
-7 11 1 1162.18 41.8
-1 -11 7 1124.69 45.3
1 7 -11 1148.59 39.2
-11 1 7 1189.88 41
1 -11 -7 1209.28 43.7
11 1 -7 1172.88 41
11 -7 -1 1193.08 42.8
11 -7 -1 1181.78 39.4
7 -11 1 1190.58 42.2
11 1 -7 1202.48 40.1
1 7 -11 1186.68 40.8
11 -1 7 1167.28 44
7 -11 -1 1191.68 42.2
-1 7 -11 1193.28 40.5
-1 7 -11 1127.09 39.5
11 -1 -7 1177.98 41.4
1 -11 7 1115.49 42.9
1 11 -7 1184.58 40.9
-11 1 -7 1153.68 40.5
11 -7 1 1376.16 51.79
-1 -11 -7 1091.89 43.2
7 1 -11 1131.79 40.7
-7 -1 -11 1116.49 39.1
-11 7 1 1207.78 42.1
-7 11 -1 1130.69 41.3
11 -1 -7 1241.88 40.4
1 -7 -11 1177.28 42.1
1 11 -7 1175.58 39.4
7 -3 -11 502.85 22.7
-7 11 3 517.35 24.1
-7 3 -11 534.25 22.3
11 3 -7 534.45 21.8
-11 7 -3 558.04 23.9
-11 -3 -7 541.75 21.8
11 -7 -3 547.65 22
3 7 -11 546.55 22.7
7 -11 3 556.14 24.2
-3 -7 -11 558.54 23.6
3 -11 -7 561.14 25.9
-7 3 -11 535.25 20.9
11 3 -7 506.95 23.8
-11 3 7 528.55 22.6
-3 11 -7 539.55 22.5
7 3 -11 530.85 22.5
-3 11 7 520.85 23
-11 7 3 523.95 23.7
-7 -3 -11 501.65 21.5
-7 11 -3 539.05 23.3
11 7 -3 539.25 21.2
3 -11 7 532.95 25.8
3 -7 -11 542.45 24.2
-3 7 -11 526.95 21.7
11 -3 -7 541.15 24.3
-3 7 -11 529.95 21.6
-11 3 -7 544.05 22.7
11 -3 -7 519.55 21.7
3 11 -7 509.05 22
7 -11 -3 542.75 24.6
3 11 -7 550.74 20.9
-7 5 -11 17 7.4
11 -7 -5 11.1 7.5
7 -11 5 13.1 9.4
7 11 -5 4.8 6.2
-11 -5 -7 13.7 6.7
5 7 -11 12.2 6.7
-11 7 -5 32.6 8.1
5 -11 -7 24.6 9.7
7 -5 -11 15.1 7.9
11 5 -7 11.6 6.3
-7 -5 11 41.4 22.6
5 -7 11 21.2 12.1
-5 11 -7 12 7.9
-5 -7 -11 18.4 7.9
-7 5 -11 7.4 6.8
-11 5 7 14.2 8.2
-5 7 11 -4.4 28.1
-7 11 5 6.3 8.2
11 -5 7 -5.4 8.8
-5 11 7 -3.8 28.8
-11 -7 -5 23.2 7.1
-7 11 -5 5.2 7.2
-11 7 5 -1 7.9
11 -7 5 1.8 8.2
-7 -5 -11 6.2 7.6
5 -11 7 14.4 9.6
5 -7 -11 13.6 8.2
-5 7 -11 23 7
7 5 -11 4.1 6.5
-7 5 11 14.5 30.3
5 11 -7 17.6 6.8
7 -11 -5 15.4 9
11 7 -5 14.8 6.1
11 -5 -7 15.4 6.8
-5 7 -11 1.5 6.4
-5 11 7 13.3 8
-11 5 -7 17.8 7.7
7 -7 11 2.7 11.8
-7 -7 11 8.8 21.1
-11 7 7 2 7.9
7 -7 -11 4.8 11.2
11 -7 -7 0.5 7.9
11 7 -7 2.8 7.1
-7 7 -11 -1.5 7.2
7 -11 -7 1.4 9.9
-7 11 7 8.1 7.8
7 7 -11 3.1 7.1
7 11 -7 6.7 6.5
-11 -7 -7 -8.6 6.8
-7 11 -7 -8.3 7.5
-11 7 -7 12.2 7.6
-11 -7 7 -13 27.8
-7 -7 -11 2.1 8.3
11 -7 7 1.3 10
-7 7 -11 -1.9 7.5
7 -11 7 15.1 10.4
-7 11 7 13.8 33.6
7 -7 -11 -1 7.8
11 -7 -7 6.7 9.5
-7 7 11 -41.7 28.5
-11 -1 -9 2196.48 69.39
11 1 -9 2132.09 69.09
9 -11 1 2102.59 70.79
1 9 -11 2176.68 69.69
-9 -1 11 2074.79 89.09
1 9 -11 2194.88 68.09
1 -11 -9 2120.49 72.49
-1 11 -9 2153.18 68.59
9 -1 -11 2103.59 71.29
9 -1 -11 2235.68 70.09
-9 11 1 2191.38 71.29
-11 9 -1 2193.98 70.89
-1 11 -9 2201.88 69.49
-9 1 -11 2147.29 69.69
11 -1 -9 2076.79 69.19
1 -9 -11 2184.28 71.39
1 -11 9 2088.39 73.19
-1 9 -11 2140.89 68.59
-11 9 1 2167.38 70.89
11 -1 -9 2141.29 70.49
-9 11 -1 2142.69 70.69
9 1 -11 2167.88 69.69
-11 1 -9 1795.02 69.09
-1 11 9 2120.79 88.39
1 11 -9 2155.48 67.99
-1 9 -11 2162.38 69.39
1 11 -9 2118.69 69.29
-9 1 11 2119.29 90.89
-9 -1 -11 2079.59 69.29
11 3 -9 1116.59 39.3
3 -11 -9 1146.29 43.7
11 3 -9 1044.1 40.8
3 9 -11 1070.79 37.5
11 -9 -3 1098.89 39.2
9 -3 -11 1047.5 39.7
-11 9 -3 1105.69 40.7
-3 11 -9 1092.79 39
-9 3 -11 1094.19 39.7
-11 -3 -9 1106.69 38.7
9 -11 3 1114.89 41.6
11 -9 -3 1109.19 41.2
3 9 -11 1072.09 39.2
-9 -3 11 1111.79 59.59
-3 9 11 1110.99 68.89
-9 11 3 1135.49 41.2
-3 11 -9 1130.19 39.3
3 11 -9 1071.99 37.5
3 -9 -11 1104.29 41.1
9 3 -11 1150.48 40.3
-3 -9 11 1012.8 51.09
3 11 -9 1083.79 39.2
11 -3 -9 1194.08 49.1
-11 9 3 1116.29 41.2
11 -9 3 1103.79 47.8
-11 3 -9 1121.19 40.2
-9 11 -3 1084.89 40.6
-11 -3 9 1266.77 75.39
-3 9 -11 1102.59 38.9
-3 9 -11 1135.09 39.3
3 -11 9 1131.09 44.3
-9 3 11 1079.39 67.69
3 9 11 1048.8 72.59
11 -3 -9 1107.79 39.8
5 -11 -9 138.49 15.5
5 9 -11 102.19 12.6
9 11 -5 111.89 11.6
-11 9 -5 120.29 13.5
-9 11 5 107.69 14.3
-11 5 9 181.88 43.4
9 -5 -11 123.89 17.8
-9 11 5 165.58 34.6
-5 9 11 126.49 34.4
-9 -5 11 139.09 29
5 9 -11 108.99 11.8
11 -9 -5 103.39 12.7
9 -11 5 110.29 15.5
-9 5 -11 93.29 10.9
-5 11 -9 113.29 13.7
11 5 -9 102.99 12.8
9 -5 -11 107.89 13.9
-11 -5 -9 106.19 12.3
11 -9 -5 109.59 13.8
-11 -9 5 177.58 32.3
5 -9 11 128.79 17.4
11 -5 9 103.19 15.2
-5 9 -11 112.49 12.3
-5 11 9 57.99 26.7
9 5 -11 88.29 12.5
5 -9 -11 114.69 16.7
-5 -9 11 119.69 21.1
5 -9 -11 139.09 15.1
11 -5 -9 113.69 13.8
5 11 -9 114.29 11.9
11 -9 5 125.99 14.6
-9 -5 -11 132.39 15.6
-9 5 11 150.18 38.3
11 9 -5 85.39 12
9 -11 -5 117.29 16
-11 5 -9 110.69 13.8
-9 11 -5 122.39 13.4
-11 -5 9 110.99 29.8
-11 9 5 119.49 14.3
9 -5 11 111.09 16
-5 9 -11 124.29 13.1
5 -11 9 125.69 18.8
9 11 -7 239.58 16.5
9 -11 7 289.37 21.6
7 -11 -9 254.97 19.3
11 7 -9 260.87 16.4
-7 9 11 315.47 42.9
11 -9 -7 264.57 19.8
11 -9 -7 231.78 18.3
-11 9 -7 253.67 18.4
-9 11 7 267.67 18.2
-9 7 -11 242.88 17.1
-11 -7 -9 257.67 16.1
7 9 -11 262.07 16.2
-11 7 9 243.28 19.2
-11 -9 7 285.47 43
-11 7 9 277.27 43.8
9 -7 -11 253.97 21.4
-9 -7 11 301.27 39.2
-7 11 -9 236.78 17
11 -7 9 265.27 22.3
-9 11 7 273.27 39.5
9 -7 -11 247.78 18.6
7 -11 -9 267.97 21.2
-7 -9 -11 248.18 19.8
7 -9 11 255.77 24.5
7 -9 -11 268.17 21.2
-7 -9 11 254.47 36.3
9 -11 -7 264.57 20.6
-11 9 7 223.08 45.5
11 -7 -9 258.67 18.2
-9 7 11 166.68 35.7
-7 11 9 260.67 37.6
9 7 -11 242.68 17
-9 11 -7 240.18 17.1
-11 9 7 246.48 19
7 -11 9 271.17 22.6
9 -7 11 226.48 24.3
7 11 -9 256.57 16.2
7 -9 -11 232.08 19.2
-11 7 -9 249.18 17.4
11 9 -7 244.48 16.7
-7 9 -11 252.47 17.8
-11 -7 9 260.87 30.3
11 -7 -9 252.67 19.5
11 -9 7 249.78 19.6
9 -11 -7 283.57 19.6
9 -11 -9 1070.79 42.9
-9 11 -9 1047.3 40.3
9 -9 11 1016.5 45.5
9 -9 -11 1059.49 43.1
-9 9 11 1040.7 73.59
-9 11 9 984.3 69.59
-9 9 -11 1071.49 40.2
11 -9 9 1026 43.4
9 -11 9 1037.2 43.6
-11 9 -9 1081.19 41.1
-11 9 9 1020.9 40.8
-11 -9 9 1028.7 58.39
-11 9 9 987 75.89
9 -9 -11 1050.99 40.8
-9 -9 -11 1006.5 40.7
9 -11 -9 1045.7 40.9
-9 11 9 1029 40.8
9 9 -11 1064.39 39.6
9 11 -9 1030.1 39.2
11 -9 -9 1051.99 40.3
11 9 -9 1017.5 39.2
-9 -11 9 1041.3 54.29
-9 -9 11 877.11 54.19
11 -9 -9 1067.89 42.4
-11 11 1 2026.8 67.79
-1 11 -11 1977.5 65.49
1 11 -11 1979.5 65.59
11 1 -11 1910.61 65.39
11 -11 1 2036.9 67.59
11 1 -11 1934.91 66.79
1 11 -11 1994.3 64.29
-11 -1 11 1813.22 86.19
-11 1 11 1945.11 89.39
11 -1 -11 2005 65.89
-1 11 11 1939.71 85.59
1 11 11 1952.6 84.79
-11 1 -11 2019.8 65.99
-1 -11 11 1944.01 75.29
-11 11 -1 1994.9 67.29
-11 -1 -11 2030.2 65.89
-1 11 -11 2026.6 65.09
11 -11 -1 1967 67.29
-11 3 11 1201.08 76.69
-11 -3 11 1257.37 68.69
-3 11 11 1271.77 69.09
3 -11 11 1324.77 63.89
-3 11 -11 1343.57 46.8
-11 11 -3 1411.56 49.2
3 -11 -11 1359.76 49.6
3 11 -11 1366.36 47.8
3 -11 11 1355.16 53.89
11 -11 -3 1369.36 49.2
11 -11 3 1394.76 49.3
11 3 -11 1348.97 49.8
3 -11 -11 1376.16 51.79
-11 11 3 1366.46 49.3
-11 3 -11 1368.66 48.5
3 11 -11 1339.97 45.4
-11 -3 -11 1352.16 47
3 11 11 1255.17 67.89
-3 11 -11 1389.96 47.5
-3 -11 11 1251.47 57.39
11 3 -11 1371.96 47.3
11 -3 -11 1324.47 47.5
5 -11 -11 281.87 24.6
5 -11 -11 301.37 20.7
5 11 -11 305.27 19.3
11 -11 -5 333.57 21
11 -5 -11 306.57 20.1
-11 -5 -11 336.17 18.8
11 -11 -5 342.27 22.1
-5 11 -11 313.37 18.8
-11 11 5 329.37 20.9
-5 -11 11 301.47 34.8
5 -11 11 334.57 27
11 11 -5 298.57 18.6
-11 -5 11 310.67 47.4
11 5 -11 322.27 18.8
-5 11 11 322.57 50.29
-11 5 11 425.96 61.79
-11 5 -11 335.97 20.4
11 -11 5 315.17 22.2
11 -5 -11 286.57 22
11 -5 11 337.37 27
-11 11 -5 295.97 20
-11 -7 11 818.02 55.59
-11 7 11 803.22 70.79
7 -11 -11 787.82 34.7
11 7 -11 792.22 33.3
11 11 -7 817.92 33.2
-7 11 11 814.92 62.99
11 -11 7 850.91 37.2
11 -11 -7 827.02 34.8
-7 11 -11 851.31 34.5
7 -11 11 799.12 40
11 -7 -11 856.41 34.4
7 11 -11 842.92 34.1
-11 -11 7 739.83 52.99
-11 7 -11 843.62 34.4
-11 11 -7 813.62 34.8
-11 11 7 867.31 36
7 -11 -11 834.02 37.8
11 -7 11 826.72 40.8
-11 11 7 704.33 70.39
-7 -11 11 732.53 47.2
11 -7 -11 840.02 37.1
11 -11 -7 817.92 35.7
11 -9 -11 1247.88 47.1
11 -9 -11 1241.48 48.6
9 11 -11 1283.27 45.9
11 9 -11 1130.89 53.89
11 9 -11 1247.18 45.3
11 -11 9 1211.38 49.1
-9 -11 11 1082.79 59.89
11 -11 -9 1198.58 47
9 -11 -11 1213.68 47.5
9 -11 11 1101.49 67.19
11 11 -9 1094.29 51.59
9 -11 -11 1267.37 49.8
9 -11 11 1186.58 51.19
11 -11 -9 1216.48 47.9
-11 9 11 1141.99 68.99
-11 11 9 1244.38 68.69
11 -9 11 1201.78 51.99
9 11 -11 1220.18 63.29
11 11 -9 1195.18 44.8
11 -9 -11 1149.08 52.79
-11 9 -11 1202.18 46.9
-11 11 -9 1145.39 45.8
-11 11 9 1210.28 47.2
-9 11 -11 1257.27 46.5
11 -11 9 1183.18 68.59
11 -9 11 1244.78 72.59
11 -9 11 1152.28 73.09
-11 11 9 1182.58 76.69
-11 -9 11 1179.18 61.09
11 -11 -9 1245.98 68.99
9 11 -11 1191.08 53.79
-11 9 11 1270.27 79.89
-9 11 11 1243.28 74.79
-9 11 11 1192.58 71.89
-11 11 9 1239.98 65.59
-11 -11 9 1177.38 61.79
11 11 -11 1415.76 50.39
11 11 -11 1384.66 69.59
11 -11 -11 1292.77 56.79
11 11 -11 1286.27 55.79
-11 11 11 1141.09 75.19
-11 -11 11 1287.77 65.19
11 -11 -11 1430.86 54.39
-11 11 -11 1433.16 52.29
11 -11 -11 1406.86 52.59
11 -11 11 1304.07 71.19
11 11 11 1323.27 81.69
11 -11 11 1301.57 68.09
11 -11 11 1367.56 57.19
-11 11 11 1321.27 70.89
-11 11 11 1179.58 67.09
11 11 11 1242.18 87.49
0 0 -12 3953 121.59
0 12 0 3995.2 120.69
0 -12 0 3726.53 120.99
12 0 0 3952.9 117.69
-12 0 0 3948.2 120.69
12 0 0 4007.4 121.19
-12 0 2 523.55 21
12 2 0 484.85 22.2
-12 0 -2 527.65 20.9
0 -12 2 518.85 22.1
12 0 -2 499.85 21.8
-2 0 -12 508.75 21.1
0 12 -2 502.15 20.6
-2 12 0 526.15 21.3
12 0 -2 489.35 18.7
0 12 2 498.25 20.6
0 -2 -12 497.85 21.1
2 -12 0 537.75 22.2
0 -12 -2 505.25 22.5
2 0 -12 532.95 21.4
-2 -12 0 485.15 22
0 2 -12 526.95 21.3
2 12 0 531.35 20.2
12 0 2 524.35 22.7
-12 2 0 527.05 21.3
-12 -2 0 522.55 20.4
2 12 2 150.78 11.1
2 2 -12 134.99 10.8
12 -2 2 155.68 13.7
12 2 2 142.79 15.7
-2 12 2 131.89 11
-2 -12 -2 154.08 14.7
-2 2 -12 132.49 11.3
2 -2 -12 127.89 11.9
12 2 -2 141.19 13.7
2 12 -2 149.29 10.9
-12 -2 -2 166.28 11.1
-2 -12 2 139.29 15
2 -12 -2 136.29 13.6
-12 -2 2 137.19 11.9
-2 -2 -12 142.19 11.9
-12 2 2 148.39 11.9
-2 12 -2 138.39 11.8
12 -2 -2 156.58 9.7
12 2 -2 143.29 9.2
12 -2 -2 121.19 12.6
2 -12 2 113.09 13.1
-12 2 -2 138.89 12.1
-12 0 4 141.99 12.6
4 0 -12 133.69 11.1
-12 -4 0 117.49 11.2
-12 4 0 135.09 11.4
12 -4 0 126.39 9
-4 12 0 127.79 11.6
-4 0 -12 122.49 11
0 -12 -4 121.89 15.5
12 0 -4 132.79 13.4
12 0 4 141.09 15.5
-12 0 -4 127.69 11.1
12 0 -4 133.49 10.5
0 12 -4 124.99 11.2
0 12 4 112.69 11.5
0 4 -12 138.09 11.5
4 -12 0 123.59 12.8
0 -4 -12 118.89 12.2
0 -12 4 105.39 14.6
12 -4 0 141.39 13.1
2 -12 -4 0.6 8.2
-4 -12 -2 2.5 9.5
4 -12 2 6.6 8.1
-4 12 2 9.8 7
12 -2 4 1.4 8.9
12 2 -4 0.4 8.4
-2 12 -4 8.1 6.1
-12 4 -2 11.3 6.6
2 4 -12 -0.8 5.8
-2 -12 4 10.6 10.6
-12 -2 -4 -4.6 6.1
-12 2 4 5.4 6.9
-4 2 -12 8.2 5.9
4 12 -2 4.4 5.7
4 -2 -12 5 6.8
12 -4 -2 -9.6 5.2
12 2 -4 2.9 5.1
12 -4 -2 -0.8 7.4
-2 -4 -12 -0.6 6.6
-12 4 2 4.8 6.9
-2 12 4 -4 6.5
12 -2 -4 1.8 5.4
12 4 -2 11.8 4.9
-4 -2 -12 5.7 6.4
4 -12 -2 -2.2 7.1
12 2 4 -0.1 10.5
12 -4 2 10.2 8.1
-2 4 -12 2.1 5.8
-12 -4 -2 5.2 6.1
-4 12 -2 11.6 6.6
2 -12 4 -7.3 8.3
-12 -2 4 3.8 6.7
-2 -12 -4 7.7 9.4
12 -2 -4 3 7.5
4 2 -12 8.6 6.6
2 12 -4 1.8 6.3
2 -4 -12 1.4 6.8
-12 2 -4 -1.3 6
-4 4 -12 -1.1 6
4 -12 4 -4.3 8.3
-12 -4 -4 6.7 6.5
-4 12 -4 13.2 7.1
-4 12 4 6.8 7.4
-12 4 -4 0.6 6.3
4 -4 -12 11.3 7.4
4 4 -12 5.6 6.8
12 4 -4 -1.1 5.4
12 -4 -4 2.3 8.4
-12 4 4 -9.2 7.3
-4 -12 -4 8.2 10.7
-4 -4 -12 -1.5 6.9
4 -12 -4 13.1 8.1
12 -4 4 -4.3 8
12 -4 -4 11.5 6
6 -12 0 416.16 20.9
12 0 -6 408.16 20.4
0 6 -12 440.06 19.7
12 0 6 411.86 24.3
-6 12 0 431.86 20.5
0 -12 6 437.86 23.1
0 -6 -12 431.76 20.9
0 -12 -6 427.56 23
6 0 -12 411.66 19.9
-12 0 -6 428.76 19.2
12 0 -6 417.06 18.3
12 -6 0 425.36 17.6
-6 0 -12 388.36 18.3
-12 0 6 435.66 19.5
-12 6 0 397.06 20.1
6 -12 2 60.39 10.4
-6 2 -12 59.39 8
-12 6 -2 59.49 9.6
2 6 -12 56.59 8.5
12 2 -6 69.39 9.8
-12 2 6 57.69 9.4
-2 -6 -12 61.79 9.6
12 -2 6 63.39 11.5
12 -6 -2 77.29 10.8
-6 12 2 66.79 9.4
-2 -12 6 69.19 15.6
-12 -2 -6 62.19 8.4
-2 6 12 57.69 43.7
-2 12 -6 47.8 8.1
12 2 -6 51.89 10.6
6 -2 -12 43 8.2
2 -12 -6 52.19 10.6
2 -12 6 66.99 11.7
-12 6 2 66.29 10.2
12 -2 -6 55.69 9.9
2 12 -6 60.59 8
-6 -2 -12 53.59 7.8
-6 12 -2 54.49 8.9
12 6 -2 55.19 7.3
-2 6 -12 53.89 7.8
12 -2 -6 63.39 8
6 -12 -2 57.89 10.7
-6 2 12 16.8 29
-2 -12 -6 65.19 12.9
6 2 -12 49.4 8.3
-2 6 -12 59.79 8.4
-2 12 6 58.89 8.9
2 -6 -12 56.59 9.6
-12 2 -6 63.79 8.5
4 6 -12 16 7.1
-6 4 -12 29.9 7.3
-6 4 -12 29.4 7.9
4 -12 -6 25.2 10.1
12 -6 -4 30.2 7.6
12 4 -6 18.9 6.7
-4 -6 -12 32.2 8.2
-12 4 6 38.6 8.5
-6 -12 -4 32 13.1
-4 12 -6 21.4 7.8
-6 12 4 28.3 8.5
-12 6 -4 20.8 8.1
6 -12 4 13.3 8.8
-12 -4 -6 25.4 7.2
6 -4 -12 23.6 8
4 12 -6 31.4 7.8
4 -6 -12 20.3 8.4
12 6 -4 30 6.9
4 -12 6 27 9.6
-4 6 -12 23.6 7.1
-6 12 -4 31 8.5
12 -4 -6 13.5 7.2
-4 6 -12 14.7 6.6
12 -6 4 6.5 9.1
12 -4 -6 23.3 8.7
-4 12 6 11.7 7.5
-12 -6 -4 33.4 8.2
-6 4 12 36.3 31.1
-12 6 4 15.1 8.3
-4 12 6 -1 25.9
-4 -12 -6 27.6 11.6
-12 4 -6 19.3 7.8
6 4 -12 24.6 7.5
6 -12 -4 23.8 9.1
-6 -4 -12 19 7.8
-6 -6 -12 120.79 14.5
-12 -6 -6 95.09 10
-6 12 -6 109.29 13
-6 -12 -6 138.79 19.5
6 -12 -6 117.99 14.2
6 -6 -12 118.79 14.4
-12 6 6 114.69 15
12 -6 6 119.69 16.4
-6 12 6 122.19 28.8
-6 6 -12 103.29 13.1
6 -12 6 140.19 16.5
-6 6 -12 128.69 13
-6 6 12 142.19 33.1
-6 12 6 130.49 14.6
12 -6 -6 118.69 13.2
6 6 -12 130.89 12.9
6 12 -6 107.39 11.7
-12 6 -6 126.59 13.1
-6 -6 12 110.49 24.3
12 6 -6 107.69 12.1
12 0 -8 1587.74 53.49
0 12 -8 1583.84 52.99
0 12 -8 1550.14 51.79
0 8 -12 1559.44 51.79
0 -12 -8 1604.14 56.29
12 0 -8 1600.94 52.29
0 12 8 1549.34 69.59
-8 12 0 1627.04 54.59
12 -8 0 1555.74 51.19
8 -12 0 1564.34 54.49
0 8 -12 1627.64 53.09
0 -8 -12 1540.15 54.29
-8 0 12 1520.25 72.79
8 0 -12 1512.35 53.09
-12 0 -8 1591.64 53.19
-12 8 0 1555.74 54.09
-8 0 -12 1574.04 51.69
0 -12 8 1450.25 57.39
-2 8 12 509.25 53.39
12 2 -8 553.14 23.1
-12 -2 -8 549.65 23.8
12 -8 -2 454.55 24.1
2 8 -12 540.65 23.7
2 -12 -8 577.64 28.3
-8 12 2 565.74 26
8 -2 -12 544.05 24.4
-8 2 -12 524.05 23.3
12 2 -8 554.54 25.9
-2 12 -8 563.64 23.1
8 -12 2 573.14 25.2
12 -8 -2 535.15 23.1
-8 -2 12 626.04 49.3
-12 8 -2 518.65 24.5
2 8 -12 554.94 22
-2 -8 -12 574.54 25.6
2 -12 8 538.25 28.4
-8 12 -2 556.54 24.8
2 12 -8 527.45 22.4
12 -8 2 581.94 26
2 -8 -12 581.14 25.8
12 -2 -8 550.34 23.1
-2 8 -12 572.34 24
-2 12 8 539.25 48.6
-2 8 -12 558.94 23.2
8 2 -12 542.85 24.1
8 -12 -2 511.85 24.5
-12 8 2 512.25 24.6
-12 2 -8 538.35 24.5
2 12 -8 560.94 23.9
-2 -12 -8 534.95 27.4
-8 2 12 534.85 53.39
-8 -2 -12 550.34 22.7
12 -2 -8 514.65 25.4
-2 -8 12 503.85 40.3
12 4 -8 61.39 9.3
4 8 -12 72.59 8.3
-12 -4 -8 70.69 9.2
12 -4 8 67.79 13.8
-12 4 8 63.69 10.4
-4 8 12 93.39 30.3
4 8 -12 64.89 9.3
12 -8 -4 82.49 12.2
-12 8 -4 74.29 10.5
-8 4 -12 66.89 9.6
-8 -4 12 77.29 27.9
8 -12 4 76.59 12.6
4 -12 -8 84.89 13.1
8 -4 -12 83.79 10.8
-4 -8 -12 74.19 11
-8 12 4 80.99 11.4
12 -8 -4 79.09 10.1
-4 12 -8 57.79 10.1
-12 4 -8 73.99 10.2
-4 12 8 48.5 25.9
4 -12 8 75.09 12.7
-4 8 -12 60.99 9.3
4 -8 -12 65.79 10.6
-12 -4 8 123.49 51.99
-8 -4 -12 94.29 13.4
4 8 12 77.99 42.2
4 12 -8 88.69 11.1
-4 -8 12 127.59 22.2
-4 8 -12 87.49 10.2
-12 8 4 75.49 11
-8 12 -4 72.29 10.9
12 -4 -8 65.59 9.5
12 -8 4 88.49 12.8
-8 4 12 79.79 32.6
8 4 -12 87.19 12.4
12 8 -4 104.89 11.4
8 -12 -4 63.89 11
12 6 -8 11.6 7.8
-12 8 -6 4.3 8.9
8 -12 6 1.6 10.2
6 -8 12 -7 12.8
8 12 -6 -1.1 7.2
-12 6 8 47 44.4
-6 8 12 25.3 30
12 -8 -6 0.2 9.3
6 8 -12 7.6 7.2
6 -12 -8 11.8 11.2
6 8 -12 3.4 7.5
12 -6 8 0.6 11.6
-8 12 6 4.7 9.2
12 -8 -6 4.5 8.9
8 -6 -12 -11.7 10.2
-6 12 -8 12.4 8.5
-6 -8 -12 4.7 9.9
-8 12 6 33.5 28.5
-8 -6 12 26.8 24.9
-8 6 -12 13.3 8.3
-12 -8 6 26.5 30.2
-12 6 8 7 8.4
8 -6 -12 17.9 9.1
-12 8 6 12.7 9.4
-6 12 8 -2.1 8.8
8 -12 -6 -3.9 10.3
-8 12 -6 6.9 8.9
-8 6 12 16.6 30.2
6 12 -8 -8.3 7.6
12 8 -6 -4.6 7.2
-6 -8 12 -1.7 19.2
6 -8 -12 13.2 9.5
12 -6 -8 3.3 8.8
-6 12 8 35.6 29.3
8 6 -12 1.1 7.1
-12 -6 8 11 29.2
12 -8 6 6 10.8
6 -12 8 16 11.8
-6 8 -12 15.8 8
6 -8 -12 22 12.9
12 -6 -8 -5 10.3
-12 6 -8 4.3 8.2
-8 12 -8 22.6 9.3
8 -8 12 36.7 14.9
8 -8 -12 52.99 11.6
-8 -8 -12 47 12.2
8 -8 -12 10.5 12.6
-8 -8 12 36.4 22.3
-12 -8 8 57.59 29.6
8 -12 -8 33.2 12.4
-8 12 8 62.69 31.6
8 8 -12 27.4 9.1
-12 8 8 -16.6 42.9
12 -8 -8 30.1 10.4
12 8 -8 25.4 8.9
-12 8 -8 27.2 10.2
-12 8 8 33 10
-8 8 -12 11.2 9.2
8 -12 -8 29.8 10.9
8 -12 8 21.1 12.2
-8 12 8 26.6 10.5
12 -8 -8 34 11.9
12 -8 8 34.6 13.1
8 12 -8 12.4 8.5
-8 8 12 39.5 32
-12 0 10 1866.31 88.69
-10 0 12 1776.62 85.59
-12 0 -10 1995.6 64.39
10 -12 0 1883.01 64.89
0 10 -12 1925.51 62.59
0 -10 -12 1956.8 65.49
0 10 -12 1971 63.79
-12 10 0 1849.71 64.89
-10 0 -12 1930.51 63.49
0 12 -10 1878.91 62.19
10 0 -12 1948.61 63.89
0 12 -10 1907.91 63.49
-10 12 0 1935.21 65.19
12 0 -10 1904.31 63.39
0 -10 12 1792.62 73.79
12 -10 0 1881.01 64.69
12 0 -10 1881.71 64.59
0 10 12 1886.11 84.19
0 -12 -10 1875.51 66.69
0 12 10 1908.61 80.69
-12 -2 -10 1327.17 46.2
2 -12 -10 1299.97 50.09
-10 12 2 1347.47 48.9
-10 -2 12 1259.37 68.49
2 10 -12 1327.57 46.6
-2 12 -10 1335.37 46.1
12 -10 -2 1318.87 48.2
-2 -10 -12 1300.27 48.1
10 -12 2 1369.66 48.8
-10 2 -12 1285.47 46.6
12 2 -10 1340.37 46.5
2 12 10 1304.97 65.29
12 -10 -2 1293.97 46.1
-12 2 10 1372.36 80.79
10 -2 -12 1342.17 47.2
-2 12 -10 1321.97 46.4
2 10 -12 1304.97 44.7
2 -10 12 1278.87 59.89
-12 10 -2 1325.27 48
-2 10 12 1280.87 70.19
12 2 -10 1284.57 47.7
12 -2 -10 1376.06 46.9
2 10 12 1287.77 70.39
-12 2 -10 1306.47 47.1
2 -12 10 1300.57 52.59
-10 -2 -12 1304.17 45.9
-2 12 10 1231.48 66.59
2 12 -10 1307.87 46.5
10 -12 -2 1303.77 48
-2 -10 12 1268.77 57.89
2 12 -10 1308.67 44.9
-10 2 12 1331.87 73.59
-2 10 -12 1297.27 46.2
2 -10 -12 1325.17 48.9
-2 10 -12 1291.57 45.5
-10 12 -2 1323.87 47.9
-12 10 2 1334.17 48.8
10 2 -12 1280.47 48.9
-12 -2 10 1327.17 73.49
10 2 -12 1355.86 47
12 -10 2 1333.07 48.5
-10 4 -12 400.66 21.4
4 10 -12 401.06 20.5
-4 -10 -12 394.46 23.3
10 -4 -12 403.06 21.8
-4 10 12 319.47 52.09
-10 12 4 406.86 22.7
-10 -4 12 418.56 45.3
-12 10 -4 382.06 22
-12 -4 -10 427.26 21.3
12 -10 -4 407.36 22.4
4 -12 -10 438.36 26.5
12 4 -10 399.56 21.1
-12 4 10 419.76 65.79
12 -10 -4 423.16 22.7
4 10 -12 401.96 19.9
10 -4 -12 438.96 25.2
10 -12 4 442.56 24.2
12 -4 10 426.76 28.4
-4 12 -10 404.86 20.6
12 -4 -10 411.76 21.4
10 -12 -4 396.66 23.9
4 12 -10 405.66 21.1
12 -10 4 430.86 23.2
-12 4 -10 429.06 22.4
-4 10 -12 379.36 21.2
10 4 -12 400.96 28
-4 -10 12 352.46 37.1
10 4 -12 425.26 21.5
12 -4 -10 430.26 24.7
-4 12 10 371.86 50.59
-12 -4 10 298.57 34.9
4 -10 -12 422.26 23.3
-12 10 4 413.06 22.2
4 10 12 393.46 55.49
-10 4 12 381.16 42.7
-4 10 -12 423.86 22
4 -12 10 408.16 28.5
-10 12 -4 419.66 22.4
4 -10 -12 393.36 25.1
10 -6 -12 167.98 16.6
-12 10 -6 187.98 18.1
-12 -6 -10 137.99 16.4
6 -10 12 206.48 42
10 -6 -12 172.48 20.5
-12 -10 6 202.98 31.9
10 12 -6 176.18 16.3
-12 6 10 126.69 39.4
-10 6 -12 175.18 17.5
-10 12 6 210.08 38.3
6 -10 12 189.48 25.4
-6 -10 -12 185.28 19
12 -10 -6 170.28 18.8
12 6 -10 175.68 16.4
6 -12 -10 179.98 20.2
12 -6 10 199.38 23.1
-6 12 -10 169.48 17
6 10 -12 173.08 16.2
10 -12 6 150.48 17.6
-6 10 12 134.39 35.2
-6 -12 10 224.78 27.9
6 -12 -10 163.28 19.6
-10 12 6 164.38 18.8
12 -10 -6 180.78 18.4
-10 -6 12 153.08 28.6
-6 -10 12 150.58 23.4
12 -6 -10 151.18 16.8
-6 12 10 172.88 34.2
-12 10 6 173.28 17.8
10 -12 -6 171.58 18.7
-12 -6 10 229.68 34.3
-12 10 6 187.18 45.2
10 -12 -6 153.78 18.9
6 -12 10 196.68 23.9
12 -6 -10 163.58 20
10 -6 12 191.58 25.1
10 6 -12 167.08 15.8
-10 6 12 209.88 38.9
6 -10 -12 184.08 19.4
-12 6 -10 197.18 17.1
-10 12 -6 195.88 17.9
6 -10 -12 159.58 22.7
-6 10 -12 171.28 16.7
12 -10 6 167.28 19.5
12 10 -6 162.08 15.8
6 12 -10 191.98 16.4
10 -8 -12 610.24 32.1
-12 -10 8 620.64 52.09
10 -8 -12 615.14 29.3
10 12 -8 584.14 27.7
8 -12 -10 646.44 30.5
-12 8 10 567.64 78.09
-10 12 8 606.24 53.59
-8 10 12 649.04 62.49
8 -10 12 515.45 56.79
-12 -8 -10 568.54 27.4
-10 12 8 613.94 29.2
-12 10 -8 605.64 28.7
8 10 -12 612.24 28.3
-10 8 -12 595.94 28.6
10 -12 8 592.14 32.1
-10 12 8 516.55 60.29
12 -8 10 631.24 34.6
8 -10 12 638.24 36.1
12 8 -10 636.54 28.1
-8 12 -10 593.04 28.5
-10 -8 12 585.84 50.29
-8 -10 -12 624.64 31.2
-8 10 12 536.25 62.39
10 12 -8 588.34 37.4
12 -10 -8 568.44 30.4
-8 -12 10 535.75 43.2
12 -10 -8 609.44 29.6
8 -12 -10 644.64 32.9
-12 8 10 606.34 56.89
-12 8 -10 621.74 28.7
8 -10 -12 639.04 32.9
12 -8 -10 598.14 29.2
-10 -12 8 549.15 46.2
8 -12 10 574.64 52.29
-8 -10 12 554.74 45.3
10 8 -12 610.44 28.2
-12 10 8 562.14 29.2
-10 12 -8 619.74 29.3
10 -12 -8 585.24 30.3
-8 12 10 597.34 59.29
12 10 -8 540.45 39.9
-12 -8 10 607.04 52.99
-8 10 -12 649.93 29.6
-8 12 10 564.34 61.29
12 10 -8 628.84 28.1
8 12 -10 614.74 28.1
-10 8 12 542.45 61.49
-12 10 8 539.55 70.09
-10 8 12 621.54 91.69
8 -10 -12 586.64 30.3
12 -10 8 587.04 31.5
10 -12 -8 596.54 30.6
-12 10 8 472.25 51.89
12 -8 -10 607.44 30.8
8 12 -10 516.25 38.5
8 -12 10 638.14 33.8
10 -8 12 615.64 34.9
-12 -10 10 992.1 57.79
10 -12 -10 1006 42.2
12 10 -10 905.61 47.9
-10 12 10 975.4 60.69
12 -10 10 984 45.7
10 -12 -10 1028 43.5
10 12 10 954.5 71.99
10 -10 -12 1026 42
10 10 -12 989.4 39
12 -10 10 872.41 65.29
10 -10 -12 906.81 47.5
10 12 -10 961.5 38.9
12 -10 -10 956.1 47.3
12 -10 10 1000.9 58.39
-10 12 10 901.11 64.49
-12 -10 -10 994.2 39.2
-12 10 -10 1017.8 41.9
-10 10 -12 934.01 40
10 10 12 1133.39 92.29
10 12 -10 902.01 60.09
-12 10 10 1001.7 62.29
-10 10 12 939.31 82.49
10 10 -12 951.8 47.3
10 12 -10 901.91 45
-10 -12 10 946.61 55.29
10 -12 10 962.9 45.1
10 -10 -12 963.1 42.9
10 -10 12 962 47.1
12 -10 -10 1003 42.9
-10 12 -10 965.9 40.5
10 -10 12 944.61 60.39
-10 10 12 917.71 63.59
12 -10 -10 997.8 40.8
12 10 -10 987.2 39.5
10 -10 12 968.9 63.39
10 -12 -10 878.71 47.9
10 10 12 971.7 74.89
-12 10 10 924.61 58.69
-10 -10 -12 955.8 42.2
10 -12 10 902.01 59.99
12 10 -10 973.8 77.89
-10 10 12 1011.4 71.49
-12 10 10 841.42 73.89
-10 12 10 935.61 68.59
-10 -10 12 981.1 54.69
0 12 -12 2201.28 72.59
0 12 12 2115.79 91.59
12 0 -12 2152.48 72.49
0 -12 -12 2194.28 74.39
12 -12 0 2151.28 73.89
-12 12 0 2200.78 74.89
0 12 -12 2100.89 71.19
-12 0 12 2136.19 95.79
0 -12 12 2186.68 82.39
-12 0 -12 2256.07 73.29
-12 -2 -12 1036.9 38.1
-12 12 -2 1022.2 40.1
-2 12 12 942.11 61.49
-2 -12 12 912.11 49.3
-12 2 -12 1013.2 39.3
-12 2 12 936.71 70.19
12 2 -12 976.5 38.5
12 -12 2 1020.3 40.7
2 -12 12 997.5 53.09
12 -12 -2 913.31 38.9
2 12 -12 994 37
12 -2 -12 955 38.3
-12 -2 12 920.31 65.79
-2 12 -12 994 38
2 -12 -12 971 39.9
-12 12 2 985.4 40.1
-2 12 -12 960.3 37.6
12 2 -12 979.5 41.1
12 -2 -12 982.6 40.2
2 -12 -12 988.2 42.5
2 12 12 1019.8 61.09
2 12 -12 967.6 37.7
-12 -4 12 322.17 49.4
-12 12 4 336.07 45.4
12 -4 12 271.97 37.4
12 -12 -4 329.97 23
-4 12 -12 298.47 21
12 -4 -12 391.16 25.3
4 -12 -12 330.47 24.6
4 12 -12 336.57 20.9
12 -12 -4 300.17 22
12 -4 -12 367.56 22.3
4 -12 -12 339.27 26.5
-12 4 12 278.97 41.7
-4 12 -12 279.07 33
-4 12 12 332.67 51.59
4 12 -12 339.67 41.4
-12 -4 -12 347.37 20.3
4 -12 12 378.96 34.9
-12 4 -12 327.27 21.3
12 -12 4 335.57 24.2
12 4 -12 368.26 21.4
-12 12 4 354.16 24
-12 12 -4 327.57 23
-4 -12 12 274.07 35.9
12 -12 -6 282.37 23.4
-12 12 6 254.37 30.9
6 12 -12 295.97 20.8
6 -12 12 299.67 30.1
12 -12 -6 275.07 23.3
12 -6 -12 257.37 31.4
-6 -12 12 287.67 37
-12 -6 12 250.97 33.9
12 6 12 220.58 34.7
-6 12 -12 291.77 30.6
6 12 -12 280.07 32.7
12 12 -6 226.28 31.8
-12 -6 -12 335.07 20.5
-12 6 12 172.68 38.2
12 -6 12 295.77 32.1
-6 12 12 266.07 38.1
-6 12 -12 266.27 21.3
-6 12 12 275.17 39.6
12 -6 12 305.27 42
12 -12 6 300.27 23.9
-12 12 -6 336.97 23.8
12 -6 -12 312.47 25.1
6 -12 12 290.87 38.3
-12 6 12 252.57 36.9
6 12 -12 250.47 31.6
12 -12 6 252.77 32.9
6 -12 12 242.88 35.4
-12 6 -12 277.37 22.2
-12 -12 6 301.37 33.6
12 6 -12 296.57 20.5
6 -12 -12 293.07 25.7
6 12 12 301.67 39.2
-12 12 6 261.87 23.2
12 -6 -12 272.57 21.5
12 -6 12 269.87 29.2
6 -12 -12 293.67 23.1
12 -8 12 518.25 36.1
8 12 -12 480.95 37.3
12 8 -12 550.34 41.9
12 -12 8 514.95 51.49
12 -8 -12 546.95 31.2
-8 12 12 437.26 59.69
-12 -12 8 533.85 49.5
12 -8 -12 520.95 35
-12 8 12 543.55 55.99
-12 12 8 471.55 64.39
-8 -12 12 539.75 44.5
12 -12 8 515.75 32.8
-12 12 8 434.76 48.5
-8 -12 -12 580.24 31.4
-12 8 12 512.35 54.99
8 12 -12 580.94 27.9
12 -12 -8 545.65 30.4
12 -8 -12 578.64 30.1
12 8 -12 572.34 28
12 12 -8 546.75 28.1
-12 -8 -12 522.35 27.6
12 12 -8 531.45 38.2
-8 12 12 455.85 57.39
12 -12 8 531.45 51.89
12 -8 12 385.26 62.49
-8 12 -12 546.25 29.4
12 -8 12 388.36 48.9
12 8 12 502.15 61.09
12 -12 -8 523.15 38.1
-12 12 8 478.35 50.09
-8 12 12 454.65 62.09
8 12 12 546.95 73.59
12 -12 -8 524.55 30.1
8 -12 -12 532.35 30.6
8 12 -12 562.94 48.1
8 12 12 535.85 57.89
12 12 -8 526.35 60.09
-12 -8 12 577.64 50.99
8 -12 -12 460.55 40
8 -12 12 499.15 36
-12 8 -12 575.54 29.8
-12 8 12 465.45 67.79
12 -8 12 497.75 45.9
-12 12 8 562.54 30.6
8 -12 12 449.26 55.39
-12 12 -8 534.95 30.2
8 -12 -12 543.75 33.3
12 10 -12 698.23 42.6
10 12 12 647.14 59.89
12 12 -10 594.34 56.99
10 -12 12 505.95 62.99
-12 12 10 723.13 53.09
12 -10 12 646.94 52.29
12 10 12 587.84 75.69
10 12 12 704.83 71.39
12 12 10 673.23 67.29
-12 -12 10 767.52 53.09
-12 -10 12 668.63 55.49
-12 10 12 673.43 69.69
10 -12 12 754.82 58.79
12 -12 10 725.43 56.69
12 -10 12 662.63 60.69
-12 12 10 686.73 66.69
-10 -12 12 689.63 52.19
-10 -12 -12 668.13 38.4
10 -12 -12 733.13 37.2
10 12 -12 762.52 33.8
-10 12 12 809.02 65.99
12 12 10 556.54 78.69
10 -12 -12 697.73 37.7
-10 12 -12 739.43 36.2
-10 12 12 678.53 57.29
-12 10 12 680.03 54.09
-12 10 12 704.83 55.49
-12 12 10 674.63 50.99
12 10 12 628.64 65.69
10 12 -12 615.34 50.89
10 -12 12 647.54 55.59
12 -12 -10 677.43 40.3
-12 10 -12 734.23 35.6
10 12 -12 668.63 40
12 -10 12 734.73 50.69
12 -10 -12 759.32 36.3
12 10 -12 720.13 34.4
-12 -10 -12 708.13 34
12 12 -10 707.33 33.6
10 -12 12 709.03 42.8
12 -12 -10 733.23 36.7
12 -12 10 719.73 40.2
12 -10 -12 743.83 37.5
10 -12 -12 652.93 41.1
-12 12 -10 733.13 35.8
12 -12 -10 705.73 36.2
12 -12 10 596.24 54.49
12 -10 -12 683.23 40.1
12 -10 12 697.83 42.5
12 12 -10 597.54 39.6
-10 12 12 649.54 54.49
12 -12 -12 639.64 37
-12 12 12 669.63 52.19
12 -12 12 509.25 53.69
12 -12 -12 562.34 37.1
12 -12 12 591.34 51.59
12 -12 12 528.15 55.89
-12 12 12 601.64 52.39
12 -12 -12 652.83 38.2
12 12 -12 651.93 39.7
-12 -12 12 589.64 54.19
-12 12 12 548.65 68.09
12 12 12 573.74 66.69
-12 12 -12 661.63 36.7
12 -12 12 626.54 42.3
12 12 12 678.63 69.39
12 12 -12 648.64 33.4
13 1 1 1776.12 59.19
1 -13 1 1631.04 58.59
13 -1 -1 1587.64 58.29
-1 -13 1 1801.32 58.79
-1 13 -1 1829.22 58.39
-1 13 1 1838.12 58.69
-1 -13 -1 1776.52 58.79
1 13 1 1818.62 57.89
-13 1 1 1802.32 58.69
-13 1 -1 1834.12 58.69
13 1 -1 1780.62 58.39
1 -13 -1 1729.63 59.19
-13 -1 -1 1805.12 58.09
-13 -1 1 1826.92 58.09
13 1 -1 1783.22 55.39
1 1 -13 1829.22 59.09
13 -1 -1 1760.42 56.19
-1 -1 -13 1861.01 59.19
-1 1 -13 1847.22 58.89
1 -1 -13 1813.32 59.39
1 13 -1 1806.42 57.59
13 -1 1 1807.12 58.99
13 1 -3 21.8 6
13 1 -3 26.9 9
-3 1 -13 12 6.5
-13 1 3 19 7.7
1 -13 -3 25 9.8
-3 -13 -1 8.5 9.3
3 13 -1 13.8 6.7
13 -3 -1 20.5 8.6
3 -1 -13 19.2 7.4
-13 -1 -3 7.4 7
1 3 -13 13.9 6.7
-13 -3 1 29 7.7
13 -1 3 26.2 9.8
3 -13 1 13.9 8.9
1 13 3 21.1 6.9
-1 -3 -13 16.1 7.2
-3 13 1 21.4 7.3
13 3 1 23.2 12.2
-13 3 -1 21.3 7.5
-1 -13 3 33.6 10
-1 13 -3 14.3 7.1
13 -1 -3 16.3 8.4
13 3 -1 7.3 11.2
13 -1 -3 11.1 5.9
-1 -13 -3 9.6 8.8
1 -13 3 7.5 9
-13 -1 3 24.4 7.9
13 -3 1 4.7 7.9
3 1 -13 27.4 7.9
-13 -3 -1 27.6 7.9
-1 3 -13 14.8 6.7
-13 3 1 21 7.7
-3 -1 -13 25.1 7.4
-1 13 3 17.2 7.2
-3 13 -1 16.9 7.4
13 1 3 32.9 10.3
-13 1 -3 13.7 7
1 13 -3 34.1 7.2
-3 -13 1 26.2 11
1 -3 -13 21 7.7
13 3 -1 26.6 5.6
3 -13 -1 23.3 8.3
3 -13 3 268.37 17.7
-3 13 3 259.87 15.9
3 13 -3 266.77 14.6
13 -3 -3 246.48 13.5
3 -13 -3 242.88 17.4
3 -3 -13 210.68 14.9
-3 3 -13 267.17 15.4
13 -3 3 236.38 17.3
-13 -3 -3 244.18 14.8
-13 3 -3 248.68 15.2
-13 3 3 256.97 16.6
3 3 -13 261.97 15.6
-3 -13 -3 263.37 18.8
13 3 3 234.18 22.4
13 3 -3 248.68 13.2
-3 13 -3 226.18 14.5
-3 -3 -13 278.17 15.9
13 -3 -3 231.88 16.9
1 -13 -5 53.79 11.2
-5 13 1 51.49 9.8
5 -13 1 58.29 10.4
-1 -13 5 75.89 13.5
13 1 -5 47.2 7.5
13 1 -5 39.8 10.4
-1 13 -5 49.2 8.7
13 -1 5 63.09 11.7
-13 -1 -5 44.2 8.3
1 5 -13 55.99 8.8
-13 5 -1 40.4 9.4
-13 1 5 57.99 9.5
13 -5 -1 47.5 7.3
5 -1 -13 55.39 9.6
-1 -5 -13 45 9.7
-5 1 -13 53.69 8.2
-13 5 1 55.19 10.1
13 1 5 74.49 13.9
-5 -1 -13 45.3 8
-1 5 -13 52.19 8.5
13 -1 -5 68.09 10.6
1 -13 5 53.09 11.6
5 1 -13 47 8.6
1 13 -5 36 8.2
13 -1 -5 50.29 7.5
-5 13 -1 54.49 9.5
-1 13 5 56.89 8.5
-13 -1 5 52.29 8.9
-13 1 -5 31.1 7.7
-1 -13 -5 49.7 12
5 -13 -1 38 9.2
1 -5 -13 41.2 9.4
-5 13 3 287.27 17.9
-5 -13 -3 293.37 23.6
13 3 -5 317.87 15.9
5 -3 -13 306.37 17.8
-13 -3 -5 284.17 17
3 5 -13 306.67 17.5
-3 -5 -13 311.97 18.5
-5 3 -13 304.97 16.7
13 -5 -3 318.07 16.3
3 -13 -5 328.77 20.3
-13 3 5 327.07 18.6
5 -13 3 336.57 20.1
-3 5 13 296.97 37.3
-3 13 -5 321.07 17.3
-13 5 3 330.57 18.6
3 13 -5 302.27 16.3
-3 5 -13 334.17 16.8
13 -3 -5 316.47 16.2
-3 -13 -5 309.47 21.3
13 5 -3 309.97 15.4
3 -13 5 326.97 19.9
5 3 -13 306.47 17.7
-13 3 -5 332.07 18.5
3 -5 -13 299.47 18.1
5 -13 -3 315.37 18.8
-5 -3 -13 313.57 17.9
13 -3 -5 322.37 19.2
-5 13 -3 333.27 18.7
-3 13 5 336.47 17.6
-3 5 -13 323.67 17
-5 5 13 251.07 35.9
-5 13 -5 314.47 18.9
-13 -5 -5 293.97 16.9
-13 5 -5 320.87 17.9
13 -5 -5 292.27 24.9
-5 -13 -5 328.87 23
-5 13 5 271.87 17.8
-5 -5 13 321.77 39
-5 -5 -13 322.37 18.3
5 5 -13 275.47 16.7
13 -5 -5 302.27 16.6
13 5 -5 302.67 16.1
5 -13 5 294.97 19.8
5 -5 -13 295.87 18.6
-5 5 -13 313.07 16.9
-13 5 5 256.57 18
13 -5 5 270.67 20
5 -13 -5 328.17 20.2
-5 5 -13 305.27 16.8
-1 7 13 379.36 43.3
-13 7 -1 250.27 17
-7 1 -13 248.68 16
13 1 -7 236.18 19.4
-1 13 -7 228.98 16.1
1 7 -13 257.27 16.2
7 -13 1 271.37 17.9
-1 -13 7 285.47 26
-7 13 1 271.37 17.6
-13 -1 -7 276.77 16.8
-7 -1 13 297.67 34.6
13 -7 -1 254.87 15.7
1 -13 -7 245.38 20.4
13 1 -7 245.68 15.4
13 -7 -1 233.48 17.4
-1 -7 -13 271.77 18.4
7 -1 -13 249.58 16
-13 1 7 243.58 17.6
1 7 -13 257.27 15.3
13 -1 -7 273.67 15.9
-7 -1 -13 241.38 15.9
-1 -7 13 230.28 36.9
-13 7 1 255.37 17.3
1 13 -7 235.78 16
-1 -13 -7 270.67 20.6
-7 13 -1 253.47 17.8
-1 7 -13 245.38 15.3
1 -13 7 254.07 22.5
7 1 -13 254.17 16.3
1 -7 -13 267.07 18.6
-13 1 -7 204.78 16.4
7 -13 -1 266.57 18.5
-1 7 -13 269.27 16.5
-7 1 13 219.98 31.8
13 -7 1 268.47 18.1
13 -1 -7 249.28 18.6
13 -7 -3 81.79 10.2
-3 7 13 79.29 33.2
3 7 -13 84.39 10.6
-7 13 3 73.19 10.8
-7 3 -13 71.49 9.7
7 -3 -13 69.89 10.2
13 -3 7 71.79 13.5
-3 13 -7 88.99 11.2
-7 -3 13 98.69 22.8
7 -13 3 110.19 13.4
13 -7 -3 76.89 11.1
-13 7 -3 67.79 11.2
3 -13 -7 93.59 14.5
13 3 -7 85.59 11.8
-13 -3 -7 99.39 12.4
-13 3 7 86.69 11.4
-3 -7 -13 81.69 12.1
-7 3 -13 70.39 9.7
-3 -7 13 95.19 21.1
-3 7 -13 72.39 9.6
13 -3 -7 86.29 11.9
3 7 13 18 36.6
3 -7 -13 78.39 11.4
13 7 -3 66.09 8.7
-3 7 -13 78.09 10.3
-3 -13 -7 81.49 14.9
-13 7 3 75.99 11.9
7 -13 -3 79.99 12.5
3 -13 7 74.19 13.1
13 -7 3 83.29 12.3
7 3 -13 69.39 9.6
-7 3 13 43.1 27.8
-7 -3 -13 57.79 10.7
-13 3 -7 84.79 11
-7 13 -3 81.69 11.2
7 -13 5 267.87 19.8
-13 5 7 219.28 18.7
-7 13 5 254.57 19
5 7 -13 270.57 17.2
13 -5 7 269.97 20.2
13 -7 -5 231.88 16.9
-13 7 -5 239.58 17.7
-5 -7 -13 250.17 18.8
-7 5 -13 250.97 16.5
13 -7 -5 266.47 19.1
13 5 -7 241.68 16.4
-7 -5 13 250.17 40.4
-5 13 -7 251.77 18.2
-5 7 13 293.67 38.9
5 -13 -7 253.57 20
7 -5 -13 267.47 18.2
5 -13 7 264.67 21.6
-5 7 -13 266.67 16.9
13 -7 5 256.37 19.8
7 5 -13 249.68 16.2
-5 13 7 240.38 17.5
-13 7 5 265.57 19.5
-13 -5 7 300.87 42.6
-7 13 -5 224.88 17
13 -5 -7 261.87 19.1
5 7 13 343.17 48.7
-13 5 -7 273.97 18.6
-5 13 7 289.87 35.4
13 -5 -7 245.58 17.4
-5 7 -13 249.68 16.8
5 13 -7 251.57 16.8
7 -13 -5 239.78 19
5 -7 -13 253.27 18
-5 -7 13 248.48 28
-7 5 13 302.37 39.1
13 7 -5 258.77 16.4
-5 -13 -7 255.47 23.9
13 -7 -7 425.06 22.4
7 -7 -13 401.86 23.5
-7 -13 -7 408.66 29.6
-7 -7 13 315.97 42
13 -7 -7 411.76 23.9
-13 7 7 401.16 58.89
-7 13 7 390.26 22.1
-7 -7 -13 415.46 23.4
-13 7 7 372.26 22.2
-7 7 -13 436.36 22.1
-13 -7 7 401.26 55.19
13 -7 7 388.86 25.4
-7 13 -7 402.06 22.7
-13 7 -7 402.26 22.1
7 -13 -7 400.86 24.6
-7 7 13 407.96 54.59
7 7 -13 393.46 20.9
7 -13 7 375.46 24.7
13 7 -7 422.36 20.9
7 -7 -13 399.86 27
7 13 -7 396.86 20.5
-7 13 7 376.86 50.99
13 1 -9 1001 37.2
9 -13 1 982.3 39.1
-9 1 -13 1004.5 37.8
9 -1 -13 987 38.3
1 9 -13 1024.3 37.5
-1 9 13 959 64.49
13 -1 9 940.81 42.9
13 -9 -1 980.4 36.7
13 -9 -1 1007.8 39
-1 13 -9 1009.3 37
1 9 -13 951.7 35.8
-13 -1 -9 1022.2 38
1 -13 -9 1031.7 41.7
-1 -9 -13 999.9 38.9
1 -9 13 1002.4 54.49
13 1 -9 979.9 39.2
-13 9 -1 1009 38.9
-13 1 9 978.7 77.69
-9 -1 13 1037.6 61.19
-9 13 1 1047.9 40
1 -9 -13 971.3 38.7
-1 -9 13 915.61 51.49
-9 13 -1 1043.4 39.5
-13 -1 9 922.01 74.29
-1 9 -13 978.3 36.6
-9 1 13 908.01 62.79
1 13 -9 994.4 36.4
-1 -13 -9 1039.7 41.7
-13 1 -9 1001.1 37.7
-13 9 1 987.8 39.1
13 -1 -9 986.3 37.3
1 9 13 1116.09 66.49
1 -13 9 981.3 44.6
-1 9 -13 999.4 37.3
-1 13 9 940.01 55.69
1 13 -9 1037.8 37.8
13 -1 -9 965.6 40.4
9 -13 -1 1013.1 39.4
-9 -1 -13 1012.7 37.1
13 -9 1 1029.4 39.7
9 1 -13 1019.2 38.3
-3 13 -9 115.49 14.3
13 3 -9 96.49 13.7
9 -3 -13 130.79 19.6
-13 9 -3 108.99 14.9
13 -9 -3 126.29 13
-9 3 -13 118.59 13.4
9 -3 -13 106.49 14.8
9 -13 3 133.99 16.3
13 -3 9 118.29 18.2
13 -9 -3 131.29 15.7
-9 13 3 139.29 15.1
3 -9 13 112.09 29.3
-13 -9 3 50.19 63.19
-13 3 9 101.19 41.6
3 9 -13 117.69 13
-3 9 13 90.29 33.1
3 9 -13 96.99 11.5
-9 -3 13 136.89 30.9
-3 -9 -13 118.79 16.2
-13 -3 -9 135.39 15.3
3 -13 -9 96.79 14.7
9 3 -13 85.09 11.6
3 9 13 83.19 31.5
-13 -3 9 111.29 36.7
13 -9 3 131.79 17.2
-3 13 9 157.68 28
9 -13 -3 79.79 12.5
-3 9 -13 112.89 12.2
-3 9 -13 112.89 13.6
3 13 -9 119.99 13.9
13 -3 -9 110.09 14.8
-9 3 13 119.29 32.1
-9 13 -3 100.39 12.6
-13 9 3 106.79 13.1
-3 -9 13 124.09 24.8
-3 -13 -9 137.59 16.8
-13 3 -9 108.59 14.4
3 -13 9 130.69 18.3
3 -9 -13 145.79 15.7
9 -13 5 -1.8 10.2
-5 13 -9 -17.5 8.9
5 9 -13 -4.3 8.4
13 -5 9 15.3 13.9
-5 9 13 14.1 31.6
5 9 -13 -1.6 8.6
9 -5 -13 -5.4 9.7
13 5 -9 1.6 8.2
-13 9 -5 3.7 9.7
-13 -9 5 -16.1 33.8
5 -13 -9 11.7 12.5
-13 -5 -9 6.9 9.8
9 -5 -13 2.8 12.1
-9 5 -13 -1.6 8.8
13 -9 -5 -8.4 9.9
13 -9 -5 -4.5 10
-5 -9 -13 25.4 11.1
-13 5 9 61.49 41.9
5 -9 13 -3.8 32.8
-9 -5 13 18.5 26.5
-9 13 5 2.8 9.8
13 -5 -9 3.6 11.4
13 -5 -9 10.3 8.9
-9 13 -5 8.3 9.6
-9 5 13 -16.4 33.5
5 9 13 25.7 35.6
-13 5 -9 -4.8 8.8
5 -9 -13 -5.5 12.7
-5 9 -13 -7.5 9.7
5 13 -9 -14.3 8.6
13 -9 5 3.6 10.5
13 9 -5 11.3 8.4
-13 -5 9 -12.5 32
5 -13 9 3.3 13.2
-5 -9 13 7.2 19.2
-13 9 5 2.4 9.9
-5 13 9 17.9 27.7
-5 9 -13 8 8.5
9 5 -13 1.1 8.3
9 -13 -5 5.1 10.7
5 -9 -13 -3.8 10.2
9 -13 7 5.3 11.5
13 -9 -7 -1.6 10.3
7 -9 13 65.19 37.5
-13 7 9 11 11.3
-13 9 -7 0 10.9
9 13 -7 -3.5 24.2
-9 7 -13 5.2 9.5
7 -13 -9 11.3 12
-7 -9 -13 8.2 12.3
-13 7 9 37.6 44.6
13 -9 -7 10 10.7
9 -7 -13 21.1 11.4
7 9 -13 -17.1 8.5
-13 -9 7 50.29 31.3
-7 9 13 -3 34.2
9 -7 -13 30.2 14.1
9 -13 7 -15.3 33.8
9 13 -7 5.6 9.4
-9 13 7 -9.5 10.4
13 -7 9 16.6 13.7
-7 9 13 32.9 47.1
-7 13 -9 2.3 9.9
-13 -7 -9 10.9 10.5
13 7 -9 10.2 10
-9 -7 13 19.9 25.1
7 -9 -13 6.1 10.3
-7 -9 13 16.5 21.2
7 13 -9 2 24.4
7 -13 9 15.3 13.8
13 -7 -9 1.5 11.3
13 9 -7 5 9.1
9 7 -13 13.9 9.5
-13 -7 9 26.1 31.2
9 -13 -7 6 12
-9 7 13 49.4 33.8
13 -9 7 -1.2 12.4
-13 9 7 65.29 47.8
13 -7 -9 10.3 10.3
-13 9 7 29.6 11
-9 13 -7 5.5 9.8
7 13 -9 9.8 9.5
7 -9 -13 12.3 13.4
-7 9 -13 2.2 10.1
-13 7 -9 2.9 10
13 -7 -9 9.7 24.5
7 -13 9 23.8 40.5
-7 13 9 17.6 29.6
-13 9 7 21.8 44.1
-9 9 13 308.67 39.7
9 13 -9 260.97 25.6
9 -9 -13 256.87 22.8
-13 -9 -9 221.88 30.3
-9 13 -9 294.67 21.3
9 9 -13 297.17 35.1
13 -9 -9 277.67 23.1
13 -9 -9 252.77 22.5
9 -13 9 268.37 25.8
13 9 -9 218.78 25
13 -9 9 261.87 25.5
9 9 -13 269.17 19.5
9 -9 -13 311.17 26.1
-13 -9 9 322.47 36.4
-9 13 9 235.38 35.8
-9 9 -13 245.48 20.6
-9 13 9 306.27 22.4
9 -9 13 246.08 37.1
-13 9 9 284.17 48.7
-13 9 -9 286.27 23
9 13 -9 245.28 20
9 13 -9 318.87 46.8
13 9 -9 260.67 20.5
-13 9 9 298.17 22.2
13 -9 9 271.37 39.5
-13 9 9 296.37 34.2
9 -13 -9 280.87 23.3
-9 -13 9 259.27 38.6
-13 9 9 311.97 47.7
13 -9 -9 239.38 30.2
-9 13 9 313.57 39.3
-9 9 13 285.57 42.6
9 9 13 211.28 40.8
9 13 9 295.77 42.3
13 -9 9 332.47 41.2
-9 -9 -13 231.98 25.7
9 -9 13 276.07 32.8
9 -13 -9 291.87 24.7
9 -13 9 260.37 33
-9 -9 13 248.38 30.9
-9 13 9 305.27 46.5
1 -11 13 1217.18 59.09
13 1 -11 1257.87 45.2
1 13 11 1219.88 64.49
1 -13 -11 1217.38 49.4
-11 1 -13 1242.38 45.6
-1 13 -11 1239.18 44.5
11 -13 1 1187.78 46.2
13 1 -11 1210.98 50.29
-13 11 -1 1227.68 47.2
-13 -1 -11 1269.77 45.4
13 -11 -1 1172.58 46.4
-1 13 -11 1202.68 44.9
-1 11 13 1209.18 68.19
-13 1 11 1169.08 77.39
1 11 -13 1223.78 43.7
13 -11 -1 1219.78 44.9
1 11 -13 1252.27 45.5
11 -1 -13 1211.78 48.1
-11 -1 13 1191.58 70.69
11 -1 -13 1242.28 45.5
-1 -11 -13 1319.77 47.9
-11 13 1 1214.68 47
1 11 13 1187.68 68.89
-1 13 11 1148.09 63.99
1 13 -11 1157.78 44
-11 1 13 1241.28 71.89
13 -1 -11 1240.38 45.1
-1 -13 -11 1165.48 48.7
11 1 -13 1230.98 45.5
-13 -1 11 1196.78 75.59
-11 13 -1 1239.28 47.2
-11 -1 -13 1236.98 45
1 13 -11 1256.97 45.3
1 -11 -13 1200.78 47.1
-13 11 1 1204.58 46.9
-1 -11 13 1226.88 57.89
-13 1 -11 1224.98 45.3
13 -11 1 1232.98 46.9
11 -13 -1 1242.28 46.8
-1 11 -13 1209.58 44.9
-1 11 -13 1197.48 44
13 3 -11 255.47 19.3
11 -13 3 239.08 20.3
-3 11 13 316.77 50.19
3 -13 -11 294.77 23.9
13 -11 -3 246.18 21.4
3 -11 13 309.97 32.9
13 -3 11 168.78 34.2
-11 13 3 270.97 20.4
11 -3 -13 260.77 19.7
-11 -3 13 238.08 35.1
-3 -11 -13 269.87 21.8
11 -3 -13 251.87 22.8
3 13 11 211.28 39.3
3 11 -13 259.07 19.5
3 11 -13 258.17 19.1
-13 3 11 212.08 42
-11 13 3 218.38 39.7
11 3 13 154.58 43.1
-3 13 -11 281.77 19.1
-11 3 -13 259.27 19.2
-13 -3 -11 263.77 19.5
-13 11 -3 238.58 20
13 -11 -3 277.97 21.4
13 -11 3 248.08 21.3
-13 11 3 235.08 20.4
3 -13 11 322.47 29.9
-3 13 11 273.07 34
3 13 -11 255.27 18.6
-13 3 -11 259.97 19
-3 -11 13 232.18 35.6
13 -3 -11 228.78 22.4
3 -11 -13 263.57 21.7
-3 11 -13 282.77 19.5
3 11 13 181.98 39.7
13 -3 -11 267.77 20.1
-13 11 3 157.78 42.1
-3 11 -13 262.47 19.8
-11 -3 -13 259.37 18.8
3 11 13 305.07 39.7
-13 -3 11 290.97 40.3
3 -11 -13 271.57 24.3
11 -13 -3 256.97 20.9
-11 13 -3 270.57 21.5
11 3 -13 238.68 27.1
-11 3 13 227.48 36
11 3 -13 281.67 19.7
-5 13 -11 63.99 12.5
-13 5 11 39 36.6
5 -13 -11 39.2 14.4
-11 -5 13 17.7 24.7
13 -11 -5 33.6 11.5
-5 13 -11 59.69 19
11 -13 5 28.3 27.2
5 11 -13 69.69 31.5
13 -5 11 53.79 23.7
11 5 13 35.5 30.6
5 11 -13 35.9 26.8
-13 -5 -11 45.3 10.9
-5 -11 -13 35.7 14
13 5 -11 38.8 10.9
-11 5 -13 33.9 10.2
-5 11 13 65.49 37.2
5 -11 13 49.9 31.8
11 -13 5 40.1 13
-5 11 13 41.7 30.8
13 -5 11 37 23.8
-11 13 5 34 11.1
11 -5 -13 47.1 15.3
5 11 -13 17.3 9.2
5 -11 13 72.29 33
-11 13 5 -14.5 25.6
-13 -11 5 55.89 32.1
5 13 11 41.3 29.2
5 -13 -11 37.3 11.2
13 -11 -5 42.1 12
13 -5 11 24.6 17.4
-5 -13 11 55.19 20.5
11 13 -5 57.69 20.2
11 -5 -13 34.3 11.6
-13 11 -5 43.3 11.4
-5 -11 13 66.69 21.8
11 -13 -5 34.5 13.4
-5 11 -13 24.1 11.6
-11 5 13 64.59 35.2
13 11 -5 31.7 17.3
-5 11 -13 46.3 11.6
13 -5 -11 30.6 17.8
5 13 -11 34.5 9.4
13 -5 -11 46.7 12.1
-11 -5 -13 55.79 11
-13 -5 11 9.1 29.4
11 -13 -5 41.1 12.5
-11 13 -5 42.3 11.1
-13 11 5 47.7 26.4
-5 13 11 75.09 37.4
5 -13 11 5 28.7
11 5 -13 49.7 11
-13 11 5 23.7 11.2
5 13 -11 36.1 25.7
13 -5 -11 31.4 12.8
5 11 13 82.59 33.9
13 -11 5 35.4 12.5
-13 5 -11 27 11.5
5 -11 -13 39.2 12.3
-5 13 11 20.7 25.6
5 -13 11 25.4 17.1
5 13 -11 55.39 17.2
-5 11 -13 40.3 19.9
5 -11 -13 32.8 15.3
11 -5 13 33.2 24.6
-13 7 11 137.39 42
-7 11 13 150.08 36.6
13 -7 11 135.99 39.2
-7 13 -11 146.99 21.2
7 11 -13 157.48 18.1
-11 7 -13 141.59 18.8
11 13 -7 134.09 33
13 -7 11 124.19 20.6
11 -13 7 91.29 26.2
-13 -7 -11 134.79 14.8
-7 -13 11 147.49 25.7
11 -13 7 156.98 22.3
-7 -11 -13 155.48 17.9
13 -7 11 167.78 28.3
-13 7 11 139.19 32
11 -7 -13 116.29 15.2
7 11 -13 96.09 20.8
13 7 -11 154.88 17.8
-11 13 7 126.99 16.4
-13 11 -7 130.69 16.4
-11 13 7 162.88 27.7
-11 13 7 111.89 30.1
13 -11 -7 112.69 15.6
-13 7 11 194.98 32.5
11 7 13 120.49 33
-7 13 -11 113.49 15.3
13 7 -11 96.29 21.4
13 -11 -7 124.09 20.2
13 -11 -7 152.78 21.2
7 -11 13 145.29 35.2
-13 -11 7 126.59 31.7
-7 11 13 125.89 32.3
7 -13 -11 145.29 17.6
11 13 -7 139.39 21.2
11 -7 -13 130.99 17.6
7 -13 -11 128.99 18
7 13 11 115.89 30.8
-11 -7 13 92.99 28.5
13 7 11 118.89 33.6
-13 -7 11 133.99 33.3
13 11 -7 120.79 20.9
11 7 -13 119.09 25.1
13 11 -7 140.19 15.4
13 -7 -11 168.58 20.4
7 -13 11 150.08 22.2
-7 11 -13 150.38 22.1
-13 11 7 134.89 28
13 -11 7 121.69 31.8
11 -7 13 97.99 28.4
7 11 13 160.78 33.6
7 -13 11 144.49 46.6
13 -7 -11 138.39 17.7
7 -11 -13 119.69 18.2
7 -11 -13 132.09 16.8
7 -13 11 94.99 29.3
7 13 -11 188.78 30.5
11 -7 13 140.49 27.3
-11 7 13 90.79 33.8
-7 13 11 120.99 35.6
-13 7 -11 145.49 18.9
7 11 13 241.98 42.7
11 7 -13 137.69 17.8
-7 -11 13 90.69 23.5
-13 11 7 213.48 43.3
13 -11 7 133.89 27.7
-11 7 13 150.38 38.7
-13 11 7 187.48 21.1
11 -13 -7 171.08 22.4
11 -13 -7 113.69 16.3
-7 13 11 129.79 31.5
11 -7 13 126.69 38.5
13 -7 -11 112.19 19.1
7 13 -11 126.49 21.2
-7 11 -13 147.19 16.2
-11 -13 7 137.39 29.2
13 -11 7 113.29 16.6
-11 13 -7 142.09 16.7
7 13 -11 127.09 17.2
9 -13 -11 387.46 38
13 -9 11 343.87 32.3
13 -11 -9 394.06 28.3
-13 9 11 352.56 36.8
11 -13 9 412.26 41.3
13 11 9 409.46 55.79
9 -13 -11 425.56 29.1
11 -13 9 365.86 48.6
-11 13 9 439.76 46.4
-9 11 13 380.16 57.09
-13 -11 9 336.07 50.29
13 -11 -9 343.87 32.2
9 -11 13 371.36 52.39
-9 -11 -13 412.16 30.4
13 -9 11 289.77 42.4
11 9 13 320.57 40.5
9 11 -13 373.46 34.3
-9 11 13 296.37 57.59
9 -11 13 407.46 35.6
11 -9 -13 390.66 33.1
9 11 -13 380.86 25.1
-11 13 9 401.16 55.59
13 -9 11 451.95 43.7
-9 11 13 368.56 56.19
-13 9 11 367.16 49.3
11 -13 9 330.47 30.2
13 9 -11 404.16 25.6
11 13 -9 441.26 25.2
9 13 11 390.56 53.89
11 9 13 317.67 44.7
-13 11 -9 419.26 28.6
13 11 9 483.65 74.39
13 9 -11 321.57 34.2
11 13 -9 418.96 51.59
-11 13 9 392.76 26.8
11 13 -9 346.47 32.6
9 -13 -11 372.26 28.8
-11 -9 13 455.45 49.6
9 13 11 454.85 53.69
-9 -13 11 433.46 45.1
-11 13 9 325.57 47.5
-9 11 13 400.96 54.29
-11 9 -13 406.56 27.4
-13 -9 -11 385.76 26.2
-13 9 11 333.57 46.6
-9 13 -11 371.36 24.9
13 -11 -9 403.66 28.2
9 -11 13 368.96 52.19
11 -9 -13 387.46 27
11 -9 -13 439.96 30.4
9 11 13 386.96 44.7
-11 13 -9 356.76 25.7
13 -9 -11 439.76 27.4
-13 11 9 343.17 46.4
11 -13 -9 354.26 35.9
9 13 -11 413.46 34
11 9 -13 381.46 37.6
-9 11 -13 428.96 27.7
-9 -11 13 449.86 44.7
13 -9 -11 364.36 28.6
9 13 -11 357.96 44.3
-13 11 9 385.56 46.3
13 11 -9 391.16 33.9
-13 9 -11 405.36 28
11 -9 13 351.56 34.8
9 -13 11 420.26 42.9
13 -11 9 382.56 30.6
13 -11 9 433.36 40.4
-11 9 13 457.95 53.09
-13 -9 11 366.56 49.99
9 -11 -13 414.56 28
-11 -13 9 330.47 43.9
-13 11 9 394.86 45.9
-11 9 13 405.86 43.9
11 -13 -9 321.57 28.1
9 11 13 365.06 40.5
13 -9 -11 332.77 32
13 -11 9 392.86 46.1
11 9 -13 390.56 24.8
9 -13 11 363.16 49
11 -9 13 391.86 56.39
-11 9 13 425.66 65.29
11 -9 13 352.76 49.9
-9 13 11 440.16 54.49
9 13 -11 417.16 25.7
11 13 9 421.56 44.4
9 -11 -13 348.07 29.8
9 -13 11 392.06 33.8
11 -13 -9 428.56 29.3
13 9 11 440.26 45
13 11 -9 391.46 44.1
13 11 -9 398.26 25.6
11 -9 13 300.97 33.5
-9 13 11 397.66 52.19
-9 13 11 401.96 52.19
-13 11 9 388.16 27
-13 11 -11 472.15 29.9
-13 11 11 499.95 69.89
11 11 13 436.06 61.29
-11 11 -13 443.26 29.9
11 13 11 434.76 62.79
13 11 11 452.55 51.09
11 11 -13 452.55 28.1
-11 11 13 470.85 63.99
-11 13 11 467.55 62.99
11 -13 -11 505.35 33.3
-11 13 -11 445.26 30.1
-13 11 11 354.76 48.5
-13 11 11 486.85 49.5
13 -11 11 454.15 57.99
11 13 -11 492.45 50.19
11 -13 -11 440.66 31.3
11 -13 11 433.16 35.4
-11 -13 11 441.46 48.4
-11 -11 13 442.26 50.79
11 -13 11 464.25 51.29
11 -11 13 423.56 56.19
-13 -11 11 460.75 54.39
13 11 -11 406.06 35.8
-11 11 13 360.46 52.69
-11 13 11 432.46 47.5
11 -11 13 373.26 50.99
11 11 13 483.35 47.4
11 13 11 458.95 50.89
13 11 11 384.06 45.7
11 11 -13 449.06 36.9
13 11 -11 474.05 29
-11 13 11 512.85 48.3
13 -11 11 424.46 47.6
13 -11 -11 503.75 31.1
13 -11 11 492.65 34.8
11 -11 -13 501.15 32.3
11 -11 -13 455.25 31.1
11 13 -11 480.45 28.6
13 -11 -11 481.15 32
11 -13 -11 393.46 35.6
11 -13 11 436.76 52.69
11 13 -11 441.56 34.5
11 -11 13 467.25 47.1
11 -11 13 490.25 37.9
13 -11 -11 441.36 34.6
11 -11 -13 462.45 34.8
-11 11 13 447.16 52.69
1 -13 13 901.71 82.59
-1 13 13 810.62 69.99
-13 -1 -13 949.31 38.6
13 -1 13 898.51 53.59
13 1 13 976 56.59
-1 13 -13 952.4 38.5
1 13 -13 897.61 37.8
1 13 -13 1012.7 39.3
13 -13 -1 921.11 40.2
13 1 13 933.91 53.99
13 -13 1 869.61 60.09
1 -13 -13 958.9 43.3
1 13 13 967.2 61.89
-13 -1 13 934.21 68.79
-13 1 -13 969 39.1
-13 13 -1 974.6 41.3
1 13 13 824.92 76.89
-1 -13 -13 958.1 41.7
-1 13 -13 982.9 38.7
-13 1 13 1032.1 72.49
-1 -13 13 999.6 52.39
1 -13 -13 991.6 42.2
13 -13 -1 1103.99 62.29
13 -13 1 1012.2 41.5
13 -1 -13 909.71 41.7
13 13 -1 905.61 47.7
13 13 1 902.61 49.8
13 -1 13 933.91 52.09
-13 13 -1 892.61 59.79
-13 13 1 899.61 59.29
-1 -13 -13 939.91 43.6
13 -13 -1 955.2 40.3
13 -1 -13 891.21 45.2
13 1 -13 1008.1 39.4
13 -1 -13 975.8 38.9
-1 13 13 945.41 67.19
1 13 -13 962.3 58.49
-13 13 1 992.5 41.6
1 -13 13 1036.4 54.39
1 13 13 950.7 58.29
-1 13 -13 918.41 46.3
1 13 -13 924.61 46.1
13 1 -13 862.11 46.2
13 1 -13 959.7 43.3
-1 13 13 968.5 59.89
13 3 13 26.9 24.1
-3 13 13 49.4 36.1
13 -3 13 -8.9 22.1
3 13 -13 -1.2 23.1
3 -13 -13 34.4 14.4
-13 13 3 11.9 12.6
-3 -13 -13 8.8 13.5
-3 13 -13 0.2 17.6
13 3 -13 23.6 11.9
13 13 -3 36.5 18
13 -3 -13 23 12.5
3 -13 -13 21.9 15.2
13 -13 -3 20.6 13.3
13 -13 3 38.3 14.6
13 -3 -13 26.9 14.7
3 -13 13 2.9 26.3
3 13 13 4 28.4
13 3 -13 16.6 24.3
13 3 13 28.2 24.7
3 13 -13 66.29 19.6
-13 -3 -13 28.9 11.3
-13 3 13 73.99 42.7
-13 -3 13 -37.8 30.2
13 -3 13 -0.5 55.19
-3 -13 13 39.1 21.2
-3 13 13 37 28.4
3 13 -13 30.4 11.4
13 -13 -3 25.5 13.9
-13 13 -3 33 32.5
-13 13 3 22.1 25.9
3 -13 13 31.4 36.1
13 -13 -3 59.59 19.8
-13 3 -13 20 12.3
-13 13 -3 22.3 13.5
-3 13 -13 14.5 12.6
13 -13 3 27.2 23.4
13 -3 -13 -6.5 16.3
-13 3 13 47.4 35.5
-3 13 13 51.89 37.3
3 13 13 18.9 40.2
13 -13 3 51.09 29
13 -3 13 55.09 24.7
13 -13 5 19.3 29
5 -13 -13 4.4 15.4
-13 5 13 25.4 32
-5 -13 -13 -16 14
5 13 -13 11.6 17.9
13 5 -13 2.9 23.9
5 13 -13 -5.8 22.3
5 13 13 -15.2 24.3
13 13 -5 -23.1 37.8
5 13 -13 -5.1 10.8
-5 -13 13 -7.6 21.8
-5 13 13 -8.5 31.9
5 -13 13 15.3 29.5
13 -5 13 -6.6 21.1
13 13 -5 -7.8 16.5
13 5 -13 -6.6 11.2
5 13 13 -38.5 37.6
13 -5 13 -9.5 23.7
13 5 13 -2.3 26.1
-5 13 -13 22.6 13.4
13 -13 -5 -15.9 18.5
-5 13 13 -2.9 32.1
-13 13 -5 -30.8 35.7
-13 13 5 8.9 22.1
-5 13 13 117.79 40.1
-5 13 -13 -22.1 16.8
-13 -5 -13 5.8 11.4
-13 5 -13 28.7 12.7
-13 13 -5 -9.9 13.1
5 -13 -13 3.6 13.4
13 -13 -5 4.7 13.5
13 -13 5 -18.3 13.5
13 -5 -13 18.6 14.3
13 13 5 -18.1 41.3
-13 5 13 3.2 31
5 -13 13 25.4 31.3
13 -13 5 -25.2 27.9
13 -5 13 48.2 46.8
-13 13 5 3.6 13.3
13 5 13 21.8 27.5
13 -13 -5 -13 14.1
13 -5 -13 7.7 12.1
-13 -13 5 54.39 30.7
-13 -5 13 -6.7 27.4
13 -5 -13 -8.5 16.8
-13 5 13 35.1 35.4
-7 13 13 -9.8 31.7
13 -13 7 -1.3 15.1
7 -13 13 34.8 28
13 -7 13 -3.1 22.3
-7 13 13 -13.6 32.5
13 -7 13 -29.2 22.5
7 13 13 28.8 36.2
13 -7 -13 5.5 14.4
-7 13 -13 33 16.4
13 -13 -7 4 15.5
-13 -13 7 56.69 29.8
-13 -7 13 18.8 27.6
-13 7 13 45.1 37.3
13 7 -13 11.9 12.5
-7 -13 13 31.3 22.5
7 13 -13 -4.7 17.9
13 13 -7 33.8 33.8
13 13 7 10.5 36.6
7 13 -13 22 12.6
13 13 -7 25.9 17.5
-13 7 -13 14 13.7
13 -13 7 34.4 28.7
13 -13 -7 -0.8 17.5
13 -13 -7 18.3 14.5
-13 13 -7 57.39 41.6
13 7 13 15.2 31.2
-13 13 7 3.6 22.7
-13 7 13 -37.5 29
13 -13 7 45.9 26.2
-13 -7 -13 4.4 12.9
13 7 -13 2 20.4
7 -13 -13 -1.5 15.2
-13 7 13 -12 26.3
13 -7 13 -23.5 35.4
7 13 13 61.19 30.2
-13 13 -7 15.1 14.4
-13 13 7 -2.5 13.3
-7 13 -13 13.8 14.6
-7 13 13 23.9 35.5
7 13 -13 -9.2 24.3
-7 13 13 -9.3 44.1
-7 -13 -13 25 16.6
13 -7 -13 35.7 16.4
7 -13 -13 23.3 15.4
13 -7 -13 -1 16.2
13 -9 13 143.49 35.1
13 9 -13 138.19 21.8
13 -13 9 158.48 32.2
13 13 -9 160.48 21.8
-13 13 9 139.79 19.4
-9 13 -13 140.09 18.8
-9 -13 13 130.39 27.4
-13 13 9 116.79 25.8
-9 13 13 191.48 34.1
13 -9 -13 134.09 20.3
13 -9 13 150.88 28.9
13 -9 13 134.69 23.3
13 -9 -13 142.59 19.6
-13 9 -13 175.38 21
-13 13 -9 149.49 19.7
-13 -9 13 110.39 33.4
-13 9 13 220.98 45.9
9 -13 13 127.59 33.3
-9 13 13 142.79 35
13 9 13 255.47 74.89
13 13 -9 145.09 34.8
-13 -13 9 172.38 33.9
-9 13 13 268.07 52.39
9 -13 13 137.19 24.1
-13 9 13 146.89 29.5
-13 13 9 174.18 30.3
-13 -9 -13 153.68 18.9
-9 13 13 143.19 32.4
9 13 13 124.69 40.6
13 -9 13 173.98 28.7
13 9 13 134.49 37
13 -13 -9 158.98 24.1
13 -9 -13 167.28 20.6
13 9 -13 167.78 23.4
9 13 13 216.98 36.5
13 13 9 244.98 39.6
13 -13 9 184.28 32.7
9 -13 -13 182.28 26.2
-13 9 13 159.28 31.8
9 -13 -13 147.79 23.2
9 -13 13 121.49 32.6
13 -13 -9 130.49 20.7
-9 -13 -13 149.09 22.2
9 -13 -13 162.58 20.9
9 13 -13 139.89 17.5
13 -13 -9 134.59 20.2
9 13 -13 161.78 22.7
13 -13 9 108.49 19.4
-9 13 -13 138.89 20.7
-13 -11 13 183.78 34.6
-13 11 13 231.38 45
-13 13 11 262.37 43.5
11 13 13 256.07 38.7
11 13 -13 222.08 29.9
13 13 -11 252.07 32.3
13 13 11 181.68 36.9
-11 -13 13 238.98 34.5
-13 13 -11 225.58 28.8
-11 13 -13 166.18 20.9
-11 13 13 162.78 30.3
-13 11 13 171.98 29.8
-13 13 11 134.39 26.4
11 -13 13 194.78 27.8
11 -13 13 142.19 30.9
-13 11 -13 189.18 22.3
13 -13 11 168.28 29.8
13 -11 -13 190.38 23.2
13 -11 13 220.08 29.7
11 -13 -13 212.48 27.7
11 -13 13 172.58 35.6
-13 11 13 143.89 28.2
-11 13 13 259.57 43.4
13 11 13 186.78 36.6
-11 13 13 220.78 33.2
11 13 13 196.58 41.4
13 11 -13 192.28 23.1
13 13 -11 209.98 24.3
13 13 11 190.28 45.1
11 -13 -13 209.68 30.3
13 -13 11 195.18 33.4
13 -11 13 155.88 34.2
13 11 13 151.08 41.6
13 -13 -11 184.48 25.8
13 -13 11 189.78 25.9
13 -11 -13 205.18 28
13 -11 13 198.98 27.9
13 13 -11 179.08 20.7
11 -13 13 246.58 36.7
13 -11 13 215.58 30.8
13 -13 -11 160.68 20.8
-13 -13 11 185.68 32.9
-13 13 11 213.18 32.2
11 -13 -13 237.08 25.6
11 13 -13 191.88 25.8
13 -13 -11 257.47 31.9
13 -11 -13 181.88 23.2
13 11 -13 201.18 27.1
13 -13 -13 222.08 30.2
13 -13 -13 164.68 23.1
-13 13 13 149.19 28.7
-13 -13 13 175.78 35.1
13 -13 -13 199.98 27
13 -13 13 95.19 25
13 -13 13 147.99 29.6
-13 13 13 167.58 29.4
13 13 13 219.58 40.9
13 13 -13 159.58 20.9
13 13 -13 165.08 20.2
13 13 13 234.88 38.1
13 -13 13 240.68 37.5
-13 13 -13 187.58 24.5
13 -13 13 228.28 32.3
-13 13 13 217.28 41.3
0 0 -14 3503.95 108.69
-14 0 0 3409.26 107.79
0 14 0 3463.95 107.59
14 0 0 3385.26 107.89
0 -14 0 3483.25 108.49
14 2 0 554.44 26.8
0 -2 -14 597.74 24.7
-14 -2 0 534.55 23.5
14 0 -2 527.75 21.2
-2 14 0 580.04 23.9
14 0 -2 473.35 24
2 14 0 543.35 22.3
14 0 2 531.65 26
-14 2 0 553.84 23.9
0 14 -2 558.14 23.3
0 14 2 523.95 23
0 2 -14 540.55 23.3
14 -2 0 553.04 24.9
2 0 -14 561.94 24.4
-2 -14 0 518.95 25.2
2 -14 0 571.54 25.6
0 -14 -2 529.85 25.2
0 -14 2 539.35 25.5
-14 0 2 531.05 23.9
-2 0 -14 546.75 23.8
-14 0 -2 534.55 23.5
2 14 -2 95.59 13
-2 14 2 106.29 12.6
2 2 -14 101.09 13.2
-14 2 2 130.29 14.4
-14 -2 -2 120.09 13.3
2 -14 -2 122.99 15.5
-14 2 -2 99.29 12.9
14 -2 -2 120.19 15
14 -2 2 98.19 11.8
14 2 -2 127.89 17.5
14 2 2 122.49 18.7
2 -2 -14 122.69 13.9
-2 -2 -14 130.69 13.4
14 2 -2 103.89 10.6
-2 -14 -2 100.09 12.4
-2 -14 2 122.49 13.7
-2 2 -14 113.19 12.8
-2 14 -2 110.99 13.1
-14 -2 2 102.59 13.7
2 -14 2 112.89 15.8
-14 0 -4 50.29 9.5
0 4 -14 48.5 9.4
0 -4 14 4.3 27.1
0 -4 -14 74.29 10.6
-14 0 4 60.99 10
0 14 -4 61.39 8.8
-4 14 0 57.19 10
-4 0 14 59.59 28.6
4 -14 0 76.09 11.2
14 0 4 58.89 12.2
0 14 4 40.7 8.4
14 0 -4 57.69 11.1
-14 4 0 55.59 9.8
0 4 14 10.5 34.6
0 -14 -4 69.89 12.1
0 -14 4 55.29 12.5
14 0 -4 54.19 7.8
4 0 -14 56.89 9.8
-4 0 -14 56.99 9.2
-2 14 -4 439.26 21
-14 2 4 479.35 22.6
-4 2 -14 457.05 20.9
-2 -14 4 405.56 27.1
-14 -2 -4 461.65 21.1
-4 -2 14 386.76 46.4
4 -2 -14 449.36 21.7
-2 4 14 433.26 54.09
-4 14 2 441.96 22.4
2 -14 -4 478.65 23.9
2 4 -14 434.16 21
-2 -4 -14 468.95 22.1
14 2 -4 401.56 26.3
-14 4 -2 352.76 21
4 -14 2 446.86 23.2
14 2 -4 440.36 19.3
-14 2 -4 443.46 21.9
-2 -4 14 441.46 45.5
14 -2 -4 453.75 19.8
4 -14 -2 478.45 23.4
-4 -2 -14 452.25 21.2
14 4 -2 449.56 18.9
-14 4 2 433.36 22.8
-4 2 14 434.96 50.99
-2 14 4 448.26 21.7
-2 -14 -4 410.96 24.3
-4 14 -2 452.65 22.1
2 4 14 416.46 50.99
2 14 -4 397.66 20.7
-2 4 -14 468.15 21.2
4 2 -14 452.85 21.9
14 2 4 492.45 28
2 -14 4 450.25 23.5
2 -4 -14 456.25 22.4
14 -2 -4 452.85 22.7
4 -14 -4 1672.33 57.89
4 -14 4 1681.03 57.79
-4 -4 14 1663.33 70.99
-4 -14 -4 1692.83 57.29
-4 -4 -14 1629.64 56.29
-4 4 -14 1638.74 55.49
-4 4 14 1602.84 76.89
14 -4 -4 1651.43 54.19
-14 -4 -4 1610.74 54.99
14 4 -4 1664.53 54.09
-14 4 4 1731.53 57.19
-4 14 4 1640.54 56.99
4 -4 -14 1620.24 56.89
-14 4 -4 1722.93 57.49
4 4 -14 1626.24 56.39
6 -14 0 19.8 10.4
0 -14 6 27.4 13.4
0 -6 14 31.1 25.7
0 6 -14 22 8.6
14 -6 0 16.7 9.3
-14 6 0 14.2 9.5
-6 0 14 21 26.1
-14 0 -6 25.9 9
14 0 -6 22.5 11
14 0 -6 28.6 7.8
0 14 -6 3.8 8.5
0 -14 -6 23.1 11.5
0 6 14 56.29 32.8
-6 14 0 11.4 8.9
-14 0 6 27 9.4
0 -6 -14 10 8.9
6 0 -14 19.1 8.2
-2 -6 -14 89.79 11.8
-6 14 2 108.69 12.5
14 2 -6 93.49 12.7
2 6 -14 130.39 13.4
-6 -2 14 62.99 25.1
6 -2 -14 94.49 13.1
-14 6 -2 119.39 15.8
-2 14 -6 119.59 14.3
14 -6 -2 107.49 15.2
-14 2 6 119.69 13
-2 6 14 108.19 33.6
6 -14 2 90.49 12.5
-14 -2 -6 112.39 14
2 -14 -6 138.59 17.3
-14 2 -6 112.79 14.6
2 -14 6 117.39 15.6
-2 6 -14 111.39 12.1
-2 -14 -6 94.99 14.4
-2 -6 14 92.99 24.3
-6 -2 -14 109.79 18.4
-6 14 -2 120.69 15.2
2 14 -6 115.69 14.8
-14 6 2 114.39 14.3
6 -14 -2 105.49 16.1
-6 2 14 80.99 29
14 -2 -6 105.89 12.9
-2 6 -14 118.99 14.2
6 2 -14 84.09 11
2 -6 -14 128.19 15.1
14 -2 -6 128.99 13.3
14 -6 2 101.29 13.5
2 6 14 113.99 38.9
-6 14 4 1183.68 43.6
-14 4 6 1147.19 43.4
-14 6 -4 1233.58 43.9
14 -4 6 1155.28 44.6
-6 4 -14 1162.68 42
-4 6 14 1038 68.69
6 -14 4 1190.38 44.3
-6 -4 14 1037.5 58.29
14 -6 -4 1123.79 40.6
6 -4 -14 1158.98 43.5
-4 -6 -14 1160.98 43.1
4 -14 -6 1163.78 44.1
4 6 -14 1195.98 42.6
-4 14 -6 1130.69 42.4
14 4 -6 1158.68 40.5
14 -6 -4 1184.78 43.3
4 -14 6 1185.68 44.8
-4 6 -14 1162.18 41.8
6 4 -14 1148.59 42.4
4 -6 -14 1176.18 43.6
-4 6 -14 1135.99 41.6
14 6 -4 1119.39 40
6 -14 -4 1158.08 43.4
-6 14 -4 1148.19 42.5
-6 -4 -14 1147.69 41.9
-4 -6 14 1053.89 57.39
14 -4 -6 1163.28 40.8
-14 4 -6 1204.88 43
-6 4 14 1053.89 64.79
-14 6 4 1185.08 43.1
14 -6 4 1169.58 43.7
-4 -14 -6 1168.18 44.8
-4 14 6 1159.78 42.4
-6 14 -6 1123.39 42.2
-14 -6 6 1160.38 80.19
-6 6 14 1113.39 70.09
6 -14 6 1184.48 44.8
-6 -6 14 1061.09 57.79
6 6 -14 1153.88 42.2
6 6 14 1127.69 91.29
14 -6 -6 1138.09 43
14 6 -6 1187.08 40.7
-14 6 6 1151.08 43.5
-6 6 -14 1145.19 42.1
-6 -14 -6 1087.59 46.9
14 -6 -6 1101.09 41
6 -14 -6 1155.58 44.4
-6 -6 -14 928.81 41.4
6 -6 -14 1124.89 43
-14 6 -6 1153.88 42.5
-6 14 6 1159.18 42.8
14 -6 6 1134.69 44.9
0 8 -14 373.66 20.6
0 14 -8 398.76 20.9
0 -8 -14 399.66 22.1
-14 0 8 304.77 47.6
0 8 14 436.46 56.49
0 -14 8 356.86 32.2
14 0 -8 298.17 20.1
-8 0 14 335.77 49.7
14 0 -8 377.06 24
-8 14 0 373.96 22
0 8 -14 378.46 19.5
8 0 -14 406.66 21.7
-14 8 0 378.16 22.8
0 -14 -8 396.96 25.9
0 -8 14 419.66 42.3
8 -14 0 405.16 23
-14 0 -8 391.16 21.5
14 -8 0 368.06 22.3
2 -8 14 42.4 26.3
8 -2 -14 29.4 9.7
-14 2 8 15.7 46.6
-14 -2 -8 43.4 10.8
8 -14 2 20.2 10.8
14 2 -8 22.6 9.1
2 -14 -8 26.6 13.2
-2 14 -8 48.4 10.9
2 8 -14 36.5 9.4
-8 2 -14 26.9 8.5
14 -2 8 39.7 15.5
-8 -2 14 66.79 27.8
-2 8 14 62.89 32.3
-2 -8 -14 34.2 11.6
14 -8 -2 34.5 11
2 8 -14 52.49 9.6
-8 14 2 21.9 10
-14 8 -2 34.9 10.6
14 -8 2 29.3 11.3
-2 8 -14 18.6 9.2
-14 2 -8 34.8 10.4
-2 8 -14 38.8 9.3
-8 2 14 59.09 27.8
8 -14 -2 30.5 11.4
-2 -14 -8 22.1 13.1
2 8 14 -7.6 33
2 -8 -14 46.4 11
-14 -2 8 73.39 40.7
8 2 -14 39.6 9.4
2 -14 8 53.29 15.4
-2 -8 14 3.6 21
-8 14 -2 28 10.7
-14 8 2 27 10.8
14 -2 -8 26.7 9.4
14 -2 -8 37.9 19.4
2 14 -8 14 11.1
-8 4 -14 308.07 20.3
4 -8 14 353.86 40.4
4 -14 -8 306.17 23.8
-14 4 8 282.27 53.69
-14 8 -4 317.67 20.8
4 8 -14 301.97 19.8
14 -4 8 317.67 25.6
-4 8 14 242.18 34.6
8 -4 -14 326.17 20.9
-14 -4 -8 255.47 19.9
14 -8 -4 290.37 20.1
-8 14 4 322.67 22.5
-4 -8 -14 328.57 21.6
14 -8 -4 325.77 21.3
-14 4 8 301.27 21.5
8 -14 4 321.17 22.5
-8 -4 14 271.87 43.6
14 4 -8 330.87 19.2
-4 14 -8 332.57 20.4
4 8 -14 315.67 18.7
14 -4 -8 337.87 19.7
-4 -8 14 323.97 38.6
8 4 -14 313.37 20.1
-14 -4 8 363.76 44.7
-4 8 -14 331.37 19
14 8 -4 300.27 18.8
-14 4 -8 305.97 19.9
8 -14 -4 308.77 21.9
-4 8 -14 282.77 20
-4 -14 -8 291.97 26.3
-14 8 4 328.97 21.2
4 8 14 368.56 44.3
4 -14 8 356.86 25.5
-8 4 14 340.27 51.49
4 -8 -14 296.17 21.7
14 -4 -8 297.27 21.7
-8 14 -4 318.27 21.3
14 -8 4 313.17 21.9
-14 -6 -8 609.84 27.4
14 -8 -6 531.45 27.5
14 6 -8 579.54 26.4
-8 6 -14 607.04 27.8
-8 -6 14 555.84 48.9
-14 6 8 591.04 29.3
8 -14 6 585.94 30.5
-6 -8 -14 567.44 29.1
-6 14 -8 582.24 28.4
6 -14 -8 585.54 30.4
-14 -8 6 581.84 61.79
-14 6 8 557.34 64.09
-6 8 14 560.64 58.49
8 -6 -14 617.14 28.8
14 -8 -6 572.54 29
6 8 -14 545.85 25.3
14 -6 8 572.84 31.6
8 -6 -14 606.84 32.4
-8 14 6 600.74 28.6
6 8 -14 581.34 27.7
-14 8 -6 594.04 28.6
6 -8 -14 606.44 32.8
-6 8 -14 562.04 28.5
6 -8 -14 569.14 29.1
-14 -6 8 598.64 65.89
8 6 -14 590.54 26.8
14 -8 6 599.84 30.6
-6 8 -14 606.04 28.2
-8 -6 -14 588.74 28.4
14 -6 -8 621.74 27.2
14 -6 -8 592.94 29.4
-8 6 14 563.24 58.99
6 8 14 548.85 74.99
-14 6 -8 613.04 28.6
-14 8 6 568.94 29.7
6 -14 8 583.54 31.7
-6 -14 -8 555.24 34.8
-8 14 -6 581.24 28.2
-6 14 8 549.54 28
-6 -8 14 530.85 46.6
14 8 -6 592.34 26.2
8 -14 -6 594.74 30
-8 14 -8 205.18 20.1
-14 8 -8 199.38 20.3
-14 -8 8 171.28 37.1
8 -14 8 158.68 27.3
8 -8 -14 182.88 20.4
14 -8 8 211.68 28.4
14 -8 -8 175.98 19
8 14 8 189.38 37
14 -8 -8 217.88 23.4
8 -8 -14 197.28 25.6
8 -8 14 79.19 34.7
8 -14 8 181.08 23.6
-8 14 8 173.38 19.5
14 -8 -8 168.58 20.7
-8 8 14 216.18 38.4
-8 -8 14 226.18 32.1
8 -14 -8 175.68 21.7
-8 8 -14 188.88 19.8
-14 8 8 128.79 26.9
-8 8 14 155.78 33.8
-8 14 8 154.38 31.4
-8 14 8 243.78 39.8
-8 -8 -14 187.78 23
8 14 -8 205.08 23.8
14 8 -8 133.19 22.6
14 -8 8 208.98 23
-14 8 8 187.18 21.2
8 14 -8 141.59 29.5
8 -8 14 152.38 37.1
14 8 -8 198.78 18.7
-14 8 8 139.79 49
8 8 -14 191.38 18.8
8 8 14 149.69 35.8
10 0 -14 756.72 33.3
0 14 -10 628.64 32.2
10 -14 0 801.92 34.6
0 10 -14 833.92 33.3
-10 14 0 781.22 34.5
0 10 -14 779.72 31.6
-14 10 0 789.82 35
0 -10 -14 805.02 34.8
14 -10 0 778.72 34.3
-14 0 10 827.62 73.09
-10 0 -14 790.92 32.8
10 0 -14 774.52 36
-14 0 -10 783.02 33
0 -10 14 802.52 50.29
0 10 14 662.43 59.39
14 0 -10 735.53 32
0 -14 -10 770.72 37.3
-10 0 14 856.91 59.89
2 -10 14 361.56 44.8
-2 14 -10 319.57 38.1
10 -14 2 368.76 24.3
-10 -2 14 370.46 50.49
14 2 -10 356.46 21.1
-10 2 -14 342.17 20.8
2 -14 -10 363.16 26
10 -2 -14 366.46 26.7
-2 14 -10 356.36 21.4
2 14 10 299.27 41.3
14 -10 -2 336.87 21.9
-2 -10 -14 372.56 24.1
-10 14 2 324.47 22.7
-2 10 14 409.66 53.59
-14 10 -2 319.37 22.1
-14 -2 -10 344.47 21.7
-14 2 10 293.87 47.2
10 -2 -14 325.17 22.3
2 10 -14 344.17 20.5
-10 14 2 231.68 32.3
2 10 -14 342.07 21.2
2 10 14 413.36 57.49
-10 2 14 280.67 37.1
-2 -10 14 338.77 39.6
-2 -14 -10 362.26 27
-2 14 10 285.77 44.2
14 -2 -10 332.57 21.3
2 10 14 227.28 36.5
-14 2 -10 323.67 22.7
-2 10 -14 360.86 21.3
2 -14 10 329.27 32.7
10 -2 14 333.07 46.6
10 2 -14 338.27 21.4
14 -2 -10 328.47 24.1
-10 -2 -14 350.26 21
14 -10 2 344.17 23.1
2 -10 -14 327.27 23.8
-2 10 -14 370.56 21.7
10 -14 -2 354.16 23.3
-10 14 -2 327.97 22.4
2 14 -10 358.66 21.4
-14 -2 10 349.37 46.2
-14 10 2 336.57 23.1
-4 10 14 21.6 31
-4 10 14 51.09 35.2
-14 -4 -10 22 10.7
-14 4 10 69.19 44.5
10 -4 -14 22.1 14.9
4 10 -14 9.6 9.5
14 -10 -4 21.8 12.7
14 -10 -4 39.4 12.3
-10 4 -14 3.3 10
4 14 10 33.6 29.7
10 -14 4 23 28.1
-4 14 -10 2.8 16.8
-14 -10 4 36.4 35.4
-10 -4 14 35.3 27.5
-14 10 -4 10.3 11.2
-4 14 -10 19.7 11.4
10 -4 -14 11.2 11
4 10 -14 24.4 11
4 -10 14 25.6 29.5
-4 -10 -14 38.2 12.5
-10 14 4 31.4 27.5
14 -4 10 31.9 23
14 -4 10 42.7 17.2
10 -14 4 6.9 12.4
14 4 -10 34.8 10.5
4 -14 -10 25.6 14
-10 14 4 22.9 10.9
10 4 14 91.49 30.4
4 -10 14 -19.8 36.8
10 4 -14 25.4 10
4 -10 -14 32.5 14.2
-10 4 14 38.4 32.1
4 10 14 -17.4 49
-4 -10 14 30.8 21
4 14 -10 34.6 17.2
-4 10 -14 19.2 10.4
-14 10 4 30 26.2
-4 10 -14 36.6 11.6
4 14 -10 6.3 24.5
4 14 -10 19.4 9.3
4 -10 -14 17.8 11.6
14 -10 4 15.5 12
-14 -4 10 4.5 34.5
10 -14 -4 23.7 11.6
14 -4 -10 10.4 17.8
4 -14 10 23 18
14 -4 -10 5.1 10.4
10 -4 14 46.2 24.9
4 10 14 34.6 32.6
-10 14 -4 22.5 11.8
14 -4 -10 25.7 13.2
-14 4 -10 16.6 11.5
-4 -14 -10 13.9 15.9
-4 14 10 16 25.1
-14 10 4 18.5 12.4
4 10 14 35 33.2
14 10 -4 44.2 19.5
6 -10 14 56.59 31.9
14 -6 10 60.29 22.6
-10 6 -14 82.19 13.5
-10 14 6 66.19 28.4
-6 10 14 49.8 32.3
-6 -10 -14 91.69 15.3
10 14 -6 68.79 17.4
14 6 -10 99.69 23
6 -10 14 78.39 55.49
-14 6 10 29.6 29.4
10 -14 6 55.69 14.2
6 -14 -10 44.8 14.1
-6 14 -10 31.1 12.6
-10 14 6 60.49 13.7
6 -14 -10 61.89 16.7
6 14 10 64.39 31.8
6 10 -14 54.19 11.6
10 -6 -14 84.59 17
14 -10 -6 73.19 14
-14 -10 6 32.4 34.4
-14 6 10 26.4 45
-14 -6 -10 53.39 12.8
-10 14 6 71.49 29.6
14 -6 10 51.59 17.3
-6 14 -10 37.3 17.2
10 6 14 54.49 32.2
-6 10 14 56.29 48.3
14 -10 -6 64.29 14.4
10 -6 -14 53.09 12.9
-10 -6 14 74.69 26.4
14 6 -10 63.19 13.1
-14 10 -6 52.29 13.2
-6 10 14 78.49 31
14 -10 -6 38.5 17.9
10 -14 6 54.19 27.6
6 10 -14 41.2 19.9
10 14 -6 78.79 35.4
14 6 10 36.4 28.5
-6 14 10 42.4 36.6
6 -10 -14 41.9 16
6 -14 10 42.1 17.6
10 -6 14 38.6 23.7
14 10 -6 51.19 12
6 -10 -14 65.69 15
10 -6 14 62.79 30.4
6 10 14 59.89 31.5
6 14 -10 37.2 17
6 10 14 17.2 36.1
10 6 -14 63.19 11.9
-10 6 14 40.4 32.5
-6 10 -14 59.29 19.6
6 -14 10 35 28.5
14 -6 -10 46.3 13.8
-14 -6 10 0.9 31.1
14 -6 -10 71.79 19.6
10 14 6 105.49 38.2
-10 6 14 54.59 31.6
10 -6 14 61.79 38.5
-6 -10 14 61.39 23.7
-14 10 6 105.49 47.4
-6 10 -14 63.29 13.5
-6 -14 -10 35.6 18.1
14 10 -6 56.99 19.9
6 10 14 86.09 37.1
10 -14 -6 69.99 13.7
-14 6 -10 44.4 13.6
14 -10 6 47.1 25.3
6 14 -10 68.69 12.5
-6 10 -14 43.3 12
-14 10 6 68.59 14.1
14 -6 -10 67.79 13.4
14 -10 6 53.19 14.8
-6 14 10 75.89 28.4
-14 10 6 92.59 27.3
6 14 -10 46.1 23.7
-10 14 -6 60.39 14.2
10 -14 8 51.89 17.2
-8 10 14 15.2 46.1
14 -10 -8 57.39 14.8
-10 14 8 40.1 25.7
8 -10 14 57.49 29.5
10 8 14 27.7 31
14 -10 -8 32.2 13.6
14 -10 -8 61.09 18.7
-8 10 14 56.89 36.4
-10 -8 14 35.3 29.8
10 14 -8 54.79 28
-8 -10 -14 39.1 16
8 -14 -10 37.5 15.5
14 8 -10 29.6 12.6
-8 -14 10 14.9 22.5
10 -8 -14 37.5 16
8 10 -14 45.9 12.6
-14 -8 -10 35.4 14.5
8 -14 -10 22.4 24.8
8 10 -14 28.1 21
-10 14 8 48.7 28.1
10 14 -8 51.19 17.1
-10 14 8 31.5 13.7
14 -8 10 8.6 37.4
8 -14 -10 37.3 14.9
8 14 10 45.1 30.8
-8 14 -10 23.8 17.2
14 -8 10 29.5 23.3
10 -14 8 61.39 26
14 8 -10 40.3 20.1
-14 8 10 26.1 27.2
10 -8 -14 31.6 13.3
-14 -10 8 68.39 32.1
8 -10 14 2.5 29.5
-8 14 -10 46.8 13.7
-14 8 10 -4.6 25.2
-14 8 10 35.7 44.2
14 -8 10 47.3 17.6
-14 10 -8 69.79 14.4
-8 10 14 -30.2 28.2
-10 8 -14 38.7 13.5
10 8 14 56.29 35.9
14 -8 -10 51.19 14.7
-8 10 -14 61.69 13.4
10 8 -14 30.7 12.1
8 -14 10 14.5 25.3
-10 8 14 8.5 29.5
-8 -14 -10 33.2 21.2
8 14 -10 44.5 25.2
-14 -8 10 108.39 33.8
8 14 -10 10.7 11.1
-14 10 8 44.3 26.2
14 -10 8 46.2 16.1
8 10 14 12.4 32.9
14 10 -8 20.7 17.2
-14 10 8 19.4 42.9
14 -10 8 56.09 33.2
-8 14 10 25.5 29
-10 8 14 -5.9 32.4
-8 14 10 67.99 28.4
-8 -10 14 19.7 23.5
8 -10 -14 34.2 13.8
10 -14 -8 43.7 21
14 8 10 68.19 35.5
8 10 14 56.99 32.3
-14 10 8 38.6 14.6
-14 8 -10 54.49 14.1
-10 14 -8 45.2 13.9
8 -14 10 34.9 17.9
8 14 -10 20.5 16.9
10 8 -14 20.6 21.4
10 -8 14 28.7 30.3
10 -14 -8 32.6 14.4
10 14 8 33.5 30.7
14 -8 -10 38.4 16.4
-8 14 10 67.39 31.8
-10 -14 8 49.6 27.3
10 -14 -8 21.4 14.4
14 -8 -10 28.6 13.9
10 -8 14 32.9 33.7
14 -10 8 83.39 24.4
14 10 -8 30.3 11.5
8 -10 -14 33.9 16.4
14 -10 -10 235.68 25.8
-10 10 14 155.98 34
-10 10 -14 207.18 25.3
14 -10 10 269.57 41.5
10 -14 10 233.78 30.6
10 -10 -14 211.18 28.1
10 -10 -14 302.87 26.2
10 14 -10 240.38 29.3
-10 14 10 196.08 32.4
10 14 10 258.27 54.09
10 -14 -10 225.68 34.1
-14 10 10 198.78 29.1
14 -10 10 284.67 41.6
14 10 -10 208.88 30.6
-14 10 10 233.68 29.9
10 -10 14 254.77 37.1
-10 10 14 267.47 44.4
14 10 10 242.28 42.7
10 10 14 170.58 34.3
-10 -14 10 267.47 41.9
10 -10 14 198.88 31.1
14 -10 -10 245.18 28.3
-10 -10 14 206.48 31.4
-10 10 14 313.37 39.6
-14 10 10 272.57 47.9
14 -10 -10 251.77 25.8
-14 10 -10 201.48 25.4
10 10 14 197.88 38.1
-10 14 -10 224.08 23.8
14 -10 10 212.48 30
10 14 10 294.37 39.5
-14 -10 10 164.88 35
10 10 -14 199.98 23.9
10 -14 -10 263.97 26.8
10 10 -14 253.97 22.7
-10 14 10 199.88 34.6
10 14 -10 299.07 45.5
-10 14 10 223.08 31.9
10 -10 14 247.38 37.9
10 14 -10 219.78 22.4
-10 10 14 209.18 55.09
14 10 -10 183.38 22.8
10 -14 10 193.48 31.5
10 -14 -10 247.88 27.7
10 -14 10 186.58 37.9
14 -12 0 711.03 44.7
12 0 14 696.73 52.89
-14 12 0 818.42 37.3
-14 0 -12 781.92 34.3
0 12 14 755.32 59.79
-14 12 0 742.33 56.19
14 0 12 656.23 49.3
0 14 -12 779.02 34.7
0 -14 -12 823.12 39.2
0 14 -12 748.43 41.7
0 12 -14 773.62 34
0 -14 12 846.22 101.69
0 14 12 651.73 70.29
14 12 0 760.72 44.9
12 0 14 787.62 49.9
0 14 -12 784.52 34.3
-14 0 12 764.92 69.59
12 14 0 754.92 46.2
0 12 -14 788.92 33.5
0 -14 12 860.01 47.8
0 12 14 849.02 61.09
0 14 -12 756.52 54.79
12 0 -14 785.02 34.6
14 0 -12 742.73 41.7
-12 14 0 788.22 57.79
0 14 12 767.72 59.69
14 -12 0 768.72 36.1
-12 14 0 796.82 36.5
-12 0 -14 804.62 34.5
12 0 -14 774.62 38
0 -12 -14 811.92 37
0 -12 14 774.52 84.29
0 12 -14 728.93 43.4
0 12 14 781.82 71.29
0 -12 14 784.02 51.19
14 0 -12 797.62 34.5
-12 0 14 788.02 62.89
14 0 -12 778.12 37.1
14 0 12 691.83 47.8
12 -14 0 780.52 36.2
-2 14 -12 129.39 15.6
-14 12 -2 167.88 18.5
-2 -14 12 121.49 22.4
2 12 -14 142.09 18.4
12 -2 -14 170.48 24.4
2 -14 -12 153.68 18.7
-2 12 14 146.49 36.7
12 14 -2 83.49 41.6
-14 2 12 96.69 39.7
2 -14 -12 160.68 24
14 -12 -2 140.29 20.3
-12 14 2 154.78 29.2
14 -2 12 150.48 24.9
12 -2 -14 168.48 20.3
14 -12 -2 160.78 22.2
12 2 14 150.68 27.7
12 14 -2 162.48 23.2
-14 12 -2 153.08 34.2
-2 14 -12 216.58 36.1
2 -12 14 148.59 40.7
2 12 -14 139.29 15.4
2 14 12 84.69 44.9
-14 -2 -12 163.68 19.2
12 -14 2 142.49 28.7
14 2 -12 132.19 23.5
14 -2 12 87.69 24.9
2 12 -14 142.59 22.3
14 2 -12 124.79 14.6
-2 -12 -14 159.98 22
2 14 12 136.89 31.7
-2 12 14 107.29 32.9
12 -14 2 140.09 17.7
-12 14 2 137.19 18.1
-2 12 14 81.19 33.6
-12 2 -14 158.88 20.2
2 -12 14 124.09 28.9
-12 -2 14 175.18 36.2
-2 14 -12 224.48 30.1
12 2 14 139.29 27.7
14 12 2 155.58 25.3
2 12 14 186.38 40.3
-2 14 12 183.48 43.1
-2 12 -14 168.98 23.1
12 -2 14 164.28 27.9
14 12 -2 199.18 24.8
-2 12 -14 138.69 19.4
14 2 12 146.19 27
-12 2 14 154.68 36.6
2 -14 12 134.89 41.4
-2 14 12 100.39 28.4
14 -2 -12 154.28 20.4
-2 -14 -12 113.59 17.9
2 -14 12 192.78 28.7
2 12 14 192.98 33
-14 -2 12 181.18 39.2
-12 14 -2 182.18 34.1
-2 12 -14 142.09 15.9
-12 -2 -14 151.78 17.2
12 2 -14 168.18 19.6
14 -2 -12 147.39 20.2
-2 -12 14 138.69 24.2
2 12 14 182.88 33.2
12 -14 -2 155.98 20.6
-12 14 -2 157.98 18.5
-14 12 2 145.69 30.1
12 -2 14 173.88 26.8
14 2 12 110.49 27.6
14 -2 -12 142.69 17.8
12 -2 14 118.39 51.49
2 -12 -14 148.19 19.8
14 -12 2 151.18 18.7
-14 12 2 139.79 17.3
-14 2 -12 186.88 19.7
12 14 2 167.18 59.49
2 14 -12 168.58 19
14 -12 2 196.78 36.6
12 2 -14 146.09 20.6
14 -12 2 160.58 25.7
2 -12 -14 171.58 21.2
2 14 -12 148.49 20.2
-2 14 12 97.49 33.2
2 14 -12 136.89 27.7
4 -12 14 100.89 35.5
-12 4 -14 55.29 13.7
14 -12 -4 33.7 13.6
-4 12 14 60.09 35.2
12 -14 4 31.3 26.2
4 14 12 81.09 26.7
-12 14 4 44.7 25.8
4 12 -14 50.09 19.2
-14 -4 -12 71.69 13.8
14 4 -12 47.7 12.2
-12 -4 14 48.1 30.8
12 -4 -14 33.8 12.8
14 12 4 37.3 24.3
-4 12 14 38.9 34.8
-4 14 -12 33.2 13.1
14 -12 -4 37.5 15.1
-14 4 12 57.09 40.5
4 -14 -12 31.9 15.1
-14 12 -4 39.8 35.9
14 -4 12 27 21.1
14 -12 -4 33.8 18.5
12 -4 -14 59.79 16.1
4 14 12 55.99 42.6
14 4 -12 29.3 23.4
-4 12 14 28.4 28.7
-4 -12 -14 55.39 14.5
12 -14 4 64.29 15.6
-12 14 4 4.5 13.2
12 14 -4 40.3 39.2
14 -4 12 96.19 55.99
4 -12 14 37.3 29.4
-14 4 12 29.2 32
12 4 14 56.49 29.1
4 -14 -12 40.8 14.5
-14 12 -4 34.3 13.7
12 14 -4 47.9 19
4 12 -14 38.1 12.7
-4 -14 12 51.69 23.3
-4 14 -12 36.8 18.8
12 -14 4 83.79 35.8
-14 -12 4 5.3 33.1
14 -4 12 51.89 21.1
-4 14 12 49.8 34.6
14 -4 -12 46.1 13.1
-4 -12 14 34.7 21.7
12 4 -14 55.09 12.3
14 12 -4 55.69 20.1
12 14 4 -16.3 37.6
-12 4 14 51.09 37
12 -14 -4 36 13.7
4 14 -12 43.4 12.1
14 -12 4 47.6 14
-4 12 -14 57.19 13.3
12 -14 -4 79.09 16.3
4 12 14 52.99 29.5
12 -14 -4 43.2 22.4
-4 14 12 96.79 28.9
12 -4 14 77.49 45.5
4 -14 12 33.6 32.4
-12 4 14 9.1 33.6
-4 14 12 63.69 36.2
4 14 -12 70.89 26.9
14 4 12 68.59 25.4
-4 12 -14 43.4 13.4
4 -14 12 40.9 27.4
14 4 12 42.4 28
-14 4 -12 50.79 13.5
4 -12 -14 51.69 18
14 -4 -12 44.7 14.7
14 -12 4 72.29 24.8
-14 12 4 47.8 14.7
-4 12 -14 32.6 18.2
4 14 -12 24.6 17.2
14 -4 -12 15.5 16.5
4 -12 -14 28 13.7
-12 14 -4 33 32.9
-12 -4 -14 28.2 12.4
4 12 14 40.4 36.1
-14 -4 12 45.2 33.5
12 -4 14 66.79 26.7
14 -12 4 83.59 31.4
-14 12 4 40.7 23.7
-4 -14 -12 47.3 17.3
12 -4 14 51.19 23.3
-12 14 -4 66.19 14.6
6 -14 -12 17.6 23.1
6 -12 14 58.19 32.5
-6 12 14 72.69 33.2
-14 6 12 -16 28
12 -6 -14 8.9 15.4
-6 14 -12 27.1 18.5
-14 6 12 26.3 29.3
12 14 -6 93.29 32.8
6 -12 14 32.4 35.3
-14 -6 -12 35.2 13.4
-12 6 -14 32.7 13.8
-14 12 -6 76.49 41.7
14 -6 12 31.8 18.3
-6 14 -12 27.1 13.9
12 -14 6 18.7 14.6
6 14 12 -47.5 41.2
-12 14 6 56.19 15.7
-14 12 -6 50.49 15.9
6 14 12 15.5 26.2
12 6 14 30.4 29.8
-6 -12 -14 37.6 15.4
14 12 6 16.4 26.6
-14 -12 6 3.1 31.9
6 12 -14 45.1 19.3
12 -14 6 29.7 23.2
14 -6 12 18.1 41.3
-6 -14 12 25.9 22.6
6 -14 -12 58.39 15.4
12 -6 -14 28.9 13.5
12 -14 6 35.8 32.3
6 -14 -12 20.7 15.1
14 -6 12 33.1 21.5
6 12 -14 30.5 12.5
-6 12 14 32.1 39
-12 -6 14 -7.2 29.7
12 14 -6 23.3 17.2
14 -12 -6 30.1 18.4
14 -12 -6 36.5 15.4
14 -12 -6 24.2 14.5
-6 12 14 50.19 33.1
14 -6 12 24 22.8
-14 6 12 73.89 40.9
14 6 -12 48 23.4
14 6 -12 29 12.9
-12 14 6 9 23.5
-6 12 -14 49.99 18.2
6 -12 -14 33 14.8
14 -12 6 8.6 15
6 -14 12 37.5 21.2
12 6 -14 23.2 12
-6 14 12 76.39 43.7
-6 14 12 33.2 31.9
12 -6 14 46.6 23.5
14 -12 6 19.3 24.9
12 6 -14 -2 23
6 14 -12 25.4 22.5
14 -6 -12 22.4 15.2
-12 6 14 19.7 29.8
14 -12 6 69.39 29.6
-12 14 -6 35.6 14.4
12 -14 -6 30 14.6
-6 14 12 67.99 34.8
14 12 -6 35 16.8
6 14 -12 35.9 13.2
6 12 14 26.9 27.2
14 -6 -12 43.3 16.5
-14 -6 12 21.9 30.4
12 -6 14 -6.8 23.6
14 12 -6 119.39 44.3
6 12 14 31.2 34.5
-14 12 6 55.59 23
14 6 12 81.89 31.7
12 -14 -6 49.2 16.1
-12 14 -6 45 35
12 14 6 23.2 32.9
-12 -6 -14 42.2 13
-6 -12 14 40.9 22.8
-6 14 12 11.6 31.3
-6 12 -14 25.5 13.2
6 -12 -14 12.8 15.5
12 -6 14 73.89 41.1
6 -14 12 26.1 28.5
-14 12 6 36.5 14.6
6 14 -12 26 16.9
14 6 12 8.7 28.4
6 -14 12 -9.9 31
12 -14 -6 21.2 20.5
-14 6 -12 27.5 14.1
-12 6 14 51.69 35.9
-12 6 14 20.8 33.2
14 -6 -12 31.3 13.6
-14 8 12 -21 27.5
12 -8 -14 65.29 18.6
14 8 -12 4.6 13.1
12 14 -8 23.8 18
-12 -8 14 9.6 29.2
12 -14 8 -21.1 25.5
8 -14 -12 18.1 20.1
8 -14 -12 43.4 16.8
-12 14 8 12.6 15
8 14 12 16.1 27.8
14 -12 -8 13.2 15.2
8 -14 -12 20.9 15.7
-14 8 12 67.99 41
-12 14 8 32.6 25.6
12 14 -8 -23.1 27.5
14 12 8 30.2 42.1
-8 12 14 -15.3 30.8
14 8 -12 7.1 20.5
-12 8 -14 16.7 14.5
12 -14 8 32 31.8
-14 12 -8 8.9 14.8
-14 8 12 0.5 27.6
14 -8 12 35.7 19.5
14 -8 12 60.79 36.4
8 14 12 0.7 41
-8 12 14 -76.29 44
12 -8 -14 27.8 17.3
12 8 14 29.8 43.6
-8 12 14 7.4 34.7
8 12 -14 22.1 12.9
14 -8 12 6.6 20.9
12 8 14 -13.9 29.4
-8 -12 -14 10.4 17.9
12 -8 -14 19.8 16
14 -8 12 -3.1 22.5
14 -12 -8 9.8 16.5
14 -12 -8 20.6 17.5
-14 -12 8 -13.4 30.1
8 12 -14 23.5 19.8
-8 14 -12 50.29 16.8
-8 14 -12 23.7 14.7
12 -14 8 36.7 16.4
-8 -14 12 33.5 25.4
-12 14 8 9.3 23
-14 -8 -12 29 15.3
-8 12 14 34.4 35.1
8 -12 14 4.4 28.9
-14 8 -12 20 15.8
-14 -8 12 -6.9 31.7
8 14 -12 6.8 12.5
8 14 -12 10.1 16.5
8 12 14 14.2 29.6
12 -8 14 -1.3 23.9
-8 14 12 70.69 44.3
-12 8 14 -1.4 38.1
8 14 -12 39.2 23
14 -8 -12 18.2 15.5
8 -14 12 3.7 28.6
12 -8 14 -11.9 33.5
12 -14 -8 34.7 17.6
12 -8 14 12.7 23.2
-8 14 12 34.1 29.4
-12 -14 8 11.3 27.1
-14 12 8 39 25.1
14 8 12 36 32.9
8 12 14 23.7 35.3
12 8 -14 9 13.8
-8 -12 14 22 24.9
-8 14 12 -2.7 29.6
-12 8 14 34.5 31.2
-8 14 12 30.3 29.6
14 12 -8 -1.6 35
8 -12 -14 10.2 15.7
14 -12 8 -28.5 24
14 -8 -12 15.6 16.5
-12 14 -8 14.6 15.1
-8 12 -14 -4 17
12 -14 -8 22.3 15.5
14 -12 8 41.6 30.7
-12 -8 -14 13.5 13.6
12 -14 -8 33.9 20.2
8 -14 12 3.7 21
8 -12 -14 13.7 15
-8 12 -14 28.4 15.7
12 8 -14 19 21.6
14 12 -8 -26.7 16.6
-14 12 8 23 15.3
14 -12 8 50.59 16.2
14 -8 -12 26.8 15.5
-12 8 14 -11.9 29.6
12 14 8 87.49 33.5
12 -14 10 137.19 33
14 -10 12 77.59 34.4
12 10 14 82.19 37.2
10 -12 14 165.78 32.9
12 14 -10 133.09 32.4
-14 12 -10 112.39 20.7
10 12 -14 120.59 16.3
-10 12 14 126.69 34.3
14 -12 -10 106.69 19.4
-12 14 10 120.49 29.4
-10 14 -12 137.49 20.6
12 -10 -14 81.49 18.5
12 -14 10 115.89 29.5
-12 -10 14 62.89 32
-10 12 14 167.78 55.69
14 -12 -10 114.49 18.9
10 14 12 74.19 32.9
10 -12 14 105.39 42
12 -10 -14 98.19 18.9
14 10 -12 133.39 22.1
-10 14 -12 124.79 20
12 10 14 83.99 33.5
10 -14 -12 136.59 21.9
-14 10 12 137.59 31.9
-12 14 10 99.29 26.8
14 -12 -10 129.99 20.5
-14 10 12 117.79 28.5
14 -10 12 101.69 27.9
10 12 -14 108.89 20.5
12 14 -10 104.49 18.9
10 -14 -12 75.49 19.8
14 12 10 63.89 40
14 12 10 113.79 43.4
12 -10 -14 136.89 21.7
14 -10 12 108.19 23.7
10 -14 -12 93.89 18.9
-14 -12 10 114.09 31.8
-10 12 14 71.89 28.2
-14 10 12 137.79 45.4
14 10 -12 155.48 19.1
-10 -14 12 81.99 26.5
10 -12 14 97.89 30.4
-10 12 14 177.38 41.9
-12 10 -14 110.39 19.8
12 -14 10 102.59 20.7
10 14 12 127.89 42
14 -10 12 109.59 25.3
14 -12 10 85.29 28.9
10 -12 -14 133.59 21.7
14 -10 -12 89.79 19.4
12 -10 14 91.99 27.6
14 12 -10 104.19 17.7
10 -14 12 134.39 34.6
10 12 14 168.08 34
12 -14 -10 149.59 22.3
-10 12 -14 119.09 20.2
10 -14 12 89.79 22.8
-12 10 14 163.98 42.3
12 10 -14 148.09 19.3
-14 -10 12 110.09 37.6
10 -14 12 107.59 30.4
14 12 -10 90.09 18.1
14 -12 10 113.79 33.7
10 -12 -14 138.09 22.1
-12 -10 -14 120.49 19.2
14 -10 -12 128.79 20.5
-14 10 -12 144.29 20.3
14 12 -10 83.59 31.2
-10 12 -14 147.09 20.5
-10 -12 14 99.09 33.3
10 14 -12 125.99 28.1
-12 10 14 166.68 31.4
-10 14 12 115.39 29.7
12 -14 -10 68.29 20
12 -10 14 118.19 29.5
-10 -14 -12 107.39 23.3
-10 14 12 111.39 34.7
10 14 -12 97.79 16.3
14 10 12 123.29 38.4
12 -10 14 59.89 31.2
-14 12 10 79.09 25.3
-14 12 10 137.89 39.9
-12 -14 10 59.79 28.6
10 -12 -14 116.09 20.2
-12 14 -10 124.19 20
-10 14 12 111.69 30.3
12 -14 -10 137.19 20.1
10 12 14 174.68 39
12 14 10 142.59 34.6
10 14 -12 97.79 19.2
12 10 -14 130.59 23.3
14 -12 10 102.09 21.4
14 -10 -12 141.19 20.9
-12 10 14 110.89 30.6
14 12 -12 116.29 19.4
12 14 -12 121.29 21
14 -12 12 147.19 28.2
12 -12 -14 140.69 22.9
12 12 -14 127.59 21.3
14 12 12 108.39 38.9
-14 12 -12 122.99 21.6
12 14 12 52.89 30.5
-14 -12 12 102.09 33.9
-12 12 14 110.89 27.9
12 12 14 94.29 34.7
12 -14 12 102.69 30.6
12 -12 14 106.99 32
14 -12 12 122.09 31.7
-14 12 12 105.39 27.2
14 -12 12 102.79 26.5
-14 12 12 156.78 43.8
-12 -14 12 134.09 30
-12 -12 14 124.69 33.9
12 -12 14 132.59 32.2
12 -14 -12 110.89 21.7
14 -12 12 141.19 26.9
14 12 -12 69.19 17.4
12 -14 -12 104.19 20.4
-12 14 12 124.39 28.3
12 12 -14 109.49 17.9
-12 12 14 153.88 41.8
-12 14 12 143.19 36.9
12 -14 -12 87.59 19.6
-12 12 -14 138.99 20.5
12 -14 12 63.09 26.9
12 -12 -14 100.49 18
12 -12 14 89.49 27.2
14 -12 -12 108.19 18.4
-14 12 12 112.59 25.5
12 14 12 83.99 41.5
12 -14 12 82.09 23.7
12 -12 -14 90.19 19.9
14 -12 -12 114.69 20.1
12 12 14 125.99 36.8
-12 12 14 74.99 27
14 -12 -12 129.19 21.8
-12 14 -12 139.69 22.4
-12 14 12 119.49 27.5
12 -14 12 148.99 33.5
14 12 12 136.59 39.2
12 14 -12 115.59 18.7
14 -14 0 771.52 46.4
14 0 -14 716.63 39.1
-14 0 -14 814.42 37
14 0 -14 645.44 40.2
0 -14 14 591.44 85.19
14 -14 0 771.62 37.6
-14 0 14 809.82 69.59
0 14 -14 712.63 35.9
0 14 -14 763.42 35.9
14 0 -14 762.02 36.4
14 0 14 743.93 51.39
-14 14 0 712.13 55.09
0 14 -14 701.23 40.4
0 14 14 745.53 57.19
0 -14 14 784.72 52.69
14 0 14 634.34 81.59
0 14 14 824.22 57.19
0 14 14 626.44 64.49
0 -14 -14 790.82 41.5
0 -14 -14 788.52 39.1
-14 14 0 768.22 37.9
14 0 14 670.93 46.1
14 14 0 741.63 44.1
14 14 0 584.24 76.79
-2 -14 14 171.08 61.39
-2 14 -14 94.59 17.1
14 -2 14 79.49 24.7
2 -14 14 113.19 29.3
14 -14 2 121.19 18.2
-14 14 -2 115.29 19.3
-14 14 2 96.79 17.9
-14 -2 14 131.19 39.3
-14 2 14 92.49 38.9
-2 -14 14 112.09 26.1
-2 14 14 106.59 32.3
-2 -14 -14 83.39 19.3
-2 14 14 118.39 31.3
14 -14 -2 115.29 17.8
-14 -2 -14 111.39 17
-14 2 -14 91.39 17.4
-2 -14 -14 126.19 18.6
2 -14 -14 133.79 22
2 14 -14 85.09 15.1
14 -2 -14 93.39 16.8
14 2 -14 126.29 17.5
14 14 2 126.69 23.3
14 2 14 73.59 23.2
-14 2 14 32 35.3
-2 14 14 121.69 34.2
2 14 14 109.49 37.6
2 14 -14 112.59 20.4
2 14 14 60.29 26.7
14 -14 -2 83.89 20.9
14 -14 2 100.29 23.4
2 -14 -14 84.99 16.8
-2 14 -14 96.89 20.2
-14 14 2 110.29 28.2
14 14 -2 75.69 19
2 -14 14 51.39 37.4
14 -14 2 83.99 28.9
14 2 14 57.99 23.4
14 14 -2 143.99 45.7
14 14 2 79.29 39.9
14 -2 14 166.68 54.79
-14 14 -2 107.09 30.4
14 -2 -14 129.79 19.2
14 2 -14 89.79 20.8
14 2 14 248.98 88.09
14 -2 -14 93.99 18.9
14 -2 14 72.89 22.2
4 -14 14 195.18 32.7
4 -14 -14 197.88 27.2
14 -14 -4 176.98 23.7
-4 14 14 221.68 40.2
4 14 14 143.69 28.8
14 4 -14 163.68 23.1
14 -4 -14 226.18 28.8
4 14 14 117.89 38.8
-4 14 14 164.28 37.6
-14 14 -4 174.28 21.5
-14 14 4 161.68 20.7
-4 14 -14 229.58 25.6
4 -14 -14 205.48 27.6
14 -14 -4 204.68 23.9
14 -14 4 203.28 23.5
14 -4 14 114.79 24.8
14 4 14 206.78 32.6
14 14 4 180.98 45.3
-4 -14 -14 205.18 24.9
14 14 -4 173.28 42.9
-14 14 -4 190.78 34.4
4 14 -14 188.08 23.1
14 -14 -4 185.98 22.2
14 -4 -14 174.08 19.3
-14 -14 4 185.68 35.6
-4 14 14 141.19 31.5
-14 4 14 226.98 37.8
-4 14 -14 207.08 23.1
4 14 -14 163.68 21
14 4 -14 206.18 28.5
14 14 -4 145.39 20.6
14 14 4 231.98 28.3
-14 -4 -14 218.88 24.2
-14 4 -14 179.18 20.8
4 -14 14 162.08 36.7
14 -14 4 141.49 30.1
14 -4 14 165.08 51.99
-4 -14 -14 167.38 20.6
14 -4 14 133.49 24.6
-14 14 4 187.98 29.1
14 -4 -14 215.68 28.6
14 4 -14 163.68 24.9
14 4 14 208.08 29.1
14 -14 4 157.08 27.9
-4 -14 14 213.48 30.3
-14 -4 14 132.79 37
-14 4 14 178.58 43.4
-14 6 -14 187.88 22.3
14 14 6 173.58 30
14 -14 6 194.08 31.2
14 -6 14 230.58 50.09
6 -14 14 226.78 37.2
6 14 -14 195.48 23.5
14 -14 -6 194.78 23.5
14 -6 -14 209.78 26.9
-14 14 -6 205.38 22.6
-14 6 14 186.58 34
-6 14 -14 160.88 20.4
6 14 -14 219.88 30.8
14 6 -14 197.98 26.6
14 14 -6 252.17 30.4
-6 14 14 192.68 36.5
6 14 14 180.58 40.1
14 -6 14 151.18 26.4
-6 14 14 282.87 43.7
6 14 14 138.19 29
-14 6 14 225.78 46
-14 -6 -14 190.28 25.5
14 -14 -6 233.08 31.2
14 -14 6 238.38 32.6
14 -6 -14 164.78 20.9
6 -14 14 204.48 39.1
14 -14 6 181.98 26.4
14 -6 -14 191.68 27.7
-14 14 6 217.38 27.6
-6 14 -14 216.88 22.6
-14 14 -6 241.98 38.4
14 14 -6 244.78 41.4
-6 14 14 181.98 36.8
6 -14 -14 215.88 28.1
14 6 -14 205.98 25.8
-6 -14 -14 174.68 21.9
6 -14 -14 172.18 22.1
-14 -14 6 237.88 37.7
-14 -6 14 175.68 37.8
14 -6 14 222.58 29.3
-6 -14 14 172.88 28.1
14 6 14 238.58 34.6
-14 14 6 168.08 27.3
14 -14 -6 199.48 24.8
-14 6 14 169.18 32.4
-6 14 14 253.97 41.6
14 14 6 159.38 41.7
14 -14 -8 18 16
14 -14 -8 -13.7 19.3
-8 -14 -14 50.29 22
8 14 -14 8.5 16.2
14 -8 -14 14.7 17
8 -14 14 14.4 28.9
-8 14 14 18.6 29.1
-14 8 14 37.1 28.2
-8 14 14 10.5 33.5
8 -14 -14 -11.2 17.9
-8 14 -14 -19 16.5
-14 8 14 -62.49 25.8
-14 14 8 -0.8 23.3
-8 14 14 19.9 32.8
-14 8 14 10.6 40.7
14 8 -14 7.4 19.9
14 14 -8 29.7 17.4
14 -8 -14 10.3 18.2
14 8 -14 10.9 15.1
-8 14 14 24.8 41.6
8 14 14 54.99 30.9
14 14 -8 -23.6 32.4
14 14 8 -11.7 35.9
-14 -8 14 66.19 34.2
8 -14 -14 7.2 15.8
-14 14 8 16.3 16.9
14 -14 8 10.4 17.2
-14 -8 -14 3.5 17.8
-14 8 -14 5.2 16.6
8 14 14 -20.3 35.7
14 -8 14 -20.3 22.2
14 -8 14 -23.9 36.4
14 -8 14 30.1 21.3
14 -14 8 19.7 28.8
-8 14 -14 24 18
8 14 -14 -0.4 14.9
14 -14 8 57.59 29.9
8 -14 -14 -4.8 18.4
14 -14 -8 11.2 17.4
14 -8 -14 40.9 17.2
-8 -14 14 -10.5 25.1
-14 -14 8 64.79 32.1
14 8 14 16 29.7
-14 14 -8 17.2 17.6
14 10 -14 35.5 18.9
14 14 -10 4.7 14.2
-14 10 -14 30.5 18.3
-14 14 -10 47.1 18.8
-10 14 -14 12.1 17.8
-10 14 -14 -21.5 14.6
14 -10 -14 27 20.7
14 -14 10 -7.1 27.8
14 -10 14 34.6 32.2
-10 14 14 60.79 36.6
14 -10 14 3.5 21.3
14 -14 -10 -4.3 20.7
-10 14 14 -23.9 45.9
10 14 14 5.6 28.9
10 -14 -14 48 19.5
14 14 10 24 32.8
-14 -14 10 49.4 30.1
10 -14 -14 1.9 19
14 -14 -10 6.9 17.9
14 14 -10 14.2 30
14 10 14 14.2 30.2
10 14 -14 9.6 15.2
10 -14 -14 -6.5 16.9
14 -14 -10 -0.2 16.7
14 -14 10 -26 26.6
14 -10 -14 14.6 15.7
14 -14 10 19.8 21.4
14 -10 -14 1.3 17.8
-10 14 14 21.2 26
14 10 -14 3.1 17.6
-10 14 14 41.7 28.4
10 -14 14 33.8 28.1
-14 10 14 -24.3 40.6
-10 -14 14 38.3 26.9
10 14 14 8.4 35.8
14 -10 14 40.2 22.5
-14 10 14 -3.8 27.3
-14 14 10 3.6 21.4
-14 10 14 46.6 25.9
-14 -10 14 15.9 32.8
10 14 -14 -17 14.6
12 14 14 17.1 29.2
14 12 14 70.59 37.7
14 14 12 18.5 32.7
12 -14 -14 7.1 22.3
-14 12 14 -36.9 25.2
14 12 -14 11.4 17.5
12 -14 14 41.4 25.6
12 -14 14 -13.9 29.7
14 14 12 24.3 40.4
-14 12 14 -3.3 23.8
14 14 -12 -8.1 14.8
12 -14 -14 23.7 16.1
12 14 14 21.4 34.3
14 -14 12 49.4 27.8
14 -12 14 31.8 25.8
14 12 14 32.5 34.5
14 -14 -12 24.9 22.7
-12 14 -14 21.5 16
14 12 -14 5.9 17.8
-14 -14 12 -2.4 30.8
-14 -12 14 -12.7 32.8
-12 14 14 10.2 24.6
14 -12 -14 4.6 16.1
14 -12 14 -2.2 23.4
14 -14 -12 33.4 20.6
14 -14 12 9.6 23.9
14 -12 -14 18.9 19.9
-14 14 12 -5.5 22.6
-12 14 14 -6.8 25.9
14 -14 12 3 28
14 -12 14 -6.9 31.7
12 -14 -14 -8.4 19
14 -14 -12 7.2 16.3
-14 12 -14 2.9 21.1
-14 14 -12 -8.7 20.8
-12 14 -14 42.3 21.6
12 -14 14 15.9 35.1
12 14 -14 -4.7 17.2
14 -12 -14 -19.4 21.8
-14 12 14 -12.2 39.3
-12 -14 14 22.8 31.9
-12 14 14 17.9 34.4
12 14 -14 16.4 18.7
14 -14 12 -5.9 25.6
14 14 14 -5.3 31.3
14 -14 14 -8.2 31.1
14 -14 -14 3.5 14.8
14 14 14 -15.6 34.4
14 -14 14 1.5 25.4
14 -14 -14 -25.2 27.9
-14 -14 14 7.6 33.7
-14 14 -14 12.9 16
14 14 -14 1.6 14.7
14 -14 14 9.5 29.8
-14 14 14 -6.1 21.2
-14 14 -14 -30.8 22.8
14 -14 -14 -41.9 19.1
-14 14 14 -5 22.2
-1 1 15 1068.19 63.59
15 -1 -1 1008.9 37.7
-1 -1 -15 969.5 37.3
-1 -1 15 1027.3 61.89
1 -1 -15 984.8 37.6
-15 1 -1 968 36.7
-15 1 1 981.5 37
-1 15 -1 1025.8 36.4
-1 15 1 994.3 36.7
1 15 -1 956.5 35.8
1 15 1 981.7 35.9
-15 -1 1 991 37.2
-1 -15 -1 956.8 37.8
15 -1 1 978.2 38
1 1 -15 1002.3 37.3
15 1 1 1038.8 39.6
-1 -15 1 1022.4 38.4
-1 1 -15 1007.7 37.1
1 -15 -1 975.7 38.2
15 1 -1 930.41 37.6
-15 -1 -1 947.61 36.5
1 -15 1 953.5 37.7
-1 -15 3 22.8 12.2
-3 -1 15 55.89 26
-15 -1 -3 8.8 9.3
-1 -3 -15 35.6 9.7
-3 1 -15 24.4 9.1
-15 3 -1 15.1 9.4
-3 15 1 19.6 9.8
-3 -15 -1 59.19 16.8
3 -1 -15 21.1 8.5
3 -15 1 28.4 11.3
-1 3 15 0.3 28.9
15 1 -3 26 11.5
1 -15 -3 25.8 10.6
-15 1 3 19.4 9.4
1 -3 15 -13.7 29
1 3 -15 15.9 8.5
-1 15 -3 23.1 9.4
3 1 15 -5.4 37.3
-1 -3 15 32.3 28.1
15 1 3 22.3 13.2
1 15 -3 25.6 9
15 -1 -3 26.9 10.7
-15 3 1 29.5 10.4
-1 -15 -3 9.3 10.7
3 -15 -1 35.1 10.4
-1 3 -15 24 9.1
-15 1 -3 18.6 9.6
-1 15 3 21.6 8.9
-3 -1 -15 21.2 8.8
3 -1 15 40.1 47.2
1 -3 -15 16.2 8.8
-3 1 15 30.9 29.1
3 1 -15 9.1 8.4
-15 -1 3 4.8 10
15 -3 1 9.3 12
1 -15 3 28.6 11.7
1 3 15 40.4 34.7
-3 15 -1 28.9 9.7
-3 -15 -3 485.75 26.6
3 -15 -3 552.34 26.3
3 -15 3 508.75 26
-3 3 15 479.15 53.09
-3 3 -15 476.85 23.5
3 3 -15 524.25 24.4
-3 -3 -15 514.15 24.7
3 -3 15 438.36 61.79
15 3 -3 486.75 21.1
3 -3 -15 503.45 24.2
-15 3 -3 493.95 25
-3 15 3 515.25 24.8
-3 -3 15 444.56 47.4
-15 3 3 552.84 26.1
-5 15 1 419.46 23.1
-1 -5 -15 435.56 23.3
1 -15 -5 430.26 25.1
5 -1 -15 451.05 23.1
15 1 -5 441.86 20.8
15 -5 -1 427.86 24
-5 1 -15 443.16 22.4
1 5 -15 480.25 22.9
15 1 -5 386.36 25.3
-1 -15 5 424.16 29
-15 5 -1 460.15 24
1 -5 15 461.35 48.1
-1 15 -5 455.65 22.2
-15 -1 -5 439.66 23.2
-5 -1 15 405.86 48.1
-1 5 15 387.26 59.59
5 -15 1 443.16 24.5
5 -15 -1 457.35 24.3
-15 1 -5 431.46 23.1
1 -15 5 497.75 27.3
-1 -15 -5 451.65 25.9
15 -1 -5 453.75 20.8
-5 15 -1 418.96 23
1 5 15 415.96 61.29
15 -1 -5 458.55 24.4
-15 5 1 411.16 23.8
-5 1 15 504.15 50.89
1 15 -5 438.86 21.9
5 1 -15 440.36 22.9
-5 -1 -15 427.26 22.5
-1 5 -15 457.85 22.4
1 -5 -15 468.95 23.9
15 -5 1 423.76 24.1
-1 -5 15 388.86 46.8
-3 -5 -15 1609.54 56.49
5 3 15 1955.4 120.09
15 -5 -3 1595.94 56.59
3 -15 -5 1628.14 57.99
-15 3 5 1639.74 57.39
5 -3 -15 1644.24 57.19
-5 3 -15 1632.74 55.59
-3 5 15 1588.94 81.69
-3 15 -5 1616.94 55.99
-5 -3 15 1528.85 72.89
-5 15 3 1680.43 57.49
-15 5 -3 1700.53 57.39
3 5 -15 1590.04 56.09
15 -3 5 1627.04 58.49
15 3 -5 1611.94 53.89
5 -15 3 1680.93 57.99
3 5 15 1580.94 91.19
-3 5 -15 1683.23 56.19
3 -15 5 1676.13 57.99
3 -5 -15 1614.44 57.09
15 -3 -5 1544.35 53.89
15 5 -3 1603.24 53.39
-5 -3 -15 1694.03 56.09
-3 -5 15 1596.54 72.09
15 -5 3 1606.84 57.29
-3 -15 -5 1572.84 57.59
5 3 -15 1610.74 56.29
-5 15 -3 1650.73 56.59
-15 5 3 1676.23 57.69
-3 5 -15 1621.14 55.89
-3 15 5 1585.74 55.99
-15 3 -5 1600.94 56.79
-5 3 15 1500.85 76.99
5 -15 -3 1669.53 57.79
15 -5 -5 2736.63 90.49
15 5 -5 2759.32 88.29
5 -15 -5 2915.21 92.49
-15 5 -5 2865.51 91.89
-15 5 5 2766.32 91.59
15 -5 -5 2735.73 88.29
5 5 -15 2764.72 90.49
-5 -5 -15 2816.42 90.49
5 -5 -15 2837.12 91.89
-5 5 15 2716.73 112.39
5 -5 15 2573.34 117.39
15 -5 5 2759.62 92.49
-5 15 -5 2896.21 91.19
-5 -5 15 2700.73 103.59
5 -15 5 2836.32 91.79
-5 5 -15 2751.32 90.29
-5 15 5 2834.82 91.19
1 -7 15 -29 26.8
7 -15 1 -0.7 10.2
15 -7 -1 10.8 10.5
7 -1 -15 -2.7 9.3
-1 15 -7 -10.4 10.1
1 7 -15 23.1 9
1 -15 -7 4.5 11.3
-1 -7 -15 -6.5 9.8
-1 -15 7 6.5 21.1
1 7 -15 7.1 8.2
-7 -1 15 -12.1 25.2
-15 -1 -7 -7.7 9.9
15 1 -7 4.4 9.1
15 1 -7 -25.9 16.4
-15 7 -1 12.9 10.3
-7 15 1 2.7 10.1
-1 7 15 30 29.9
15 -1 7 6.3 14.2
7 1 -15 -5.5 9.2
15 -7 1 2.9 11.1
-7 15 -1 5.1 10.2
-15 7 1 -2.5 9.7
1 -7 -15 6.9 9.9
1 7 15 -8.3 30.2
-1 7 -15 -6.6 9.1
1 -15 7 -2 15.3
-1 -15 -7 -7.7 12.9
7 -15 -1 6.4 11
-1 -7 15 -25.7 24.8
-15 1 -7 -7.2 8.9
-7 1 15 -29.6 25.6
15 -1 -7 -3.4 9.5
-1 7 -15 10.6 8.6
1 15 -7 -1.7 10.5
-3 7 15 495.85 58.79
7 -15 3 504.25 27
15 -3 7 476.25 29.7
15 -7 -3 482.15 25.7
-15 3 7 481.35 26.7
7 -3 -15 493.55 25
-15 -3 -7 527.75 26.3
-3 15 -7 502.45 25.4
-7 3 -15 478.75 24.2
-7 15 3 505.55 27.3
-3 -7 -15 514.95 26.5
15 3 -7 516.45 24.1
3 -15 -7 503.15 27.9
3 -7 15 520.25 55.49
3 7 -15 480.45 24.6
-15 7 -3 482.55 26.8
-7 -3 15 388.66 47.9
3 7 15 497.05 67.09
15 -3 -7 508.25 25
15 -7 3 486.35 26.9
-7 -3 -15 485.15 26.6
-7 3 15 489.55 54.29
-7 15 -3 505.75 25.5
-3 7 -15 549.85 24.2
3 -15 7 450.55 29.6
7 -15 -3 482.75 26.6
15 -3 -7 491.05 26.8
3 -7 -15 532.65 27.3
-15 3 -7 451.15 24.8
7 3 -15 506.05 25.7
-3 -7 15 535.15 45.1
-3 7 -15 471.85 24.7
-15 7 3 516.25 26.1
-3 -15 -7 479.25 29.6
15 -7 -5 1625.94 56.79
-15 7 -5 1701.83 59.69
15 -7 -5 1667.53 59.19
7 -15 5 1683.13 60.39
7 5 15 1528.65 105.69
5 -7 15 1501.15 86.99
5 7 -15 1675.53 58.49
-7 -5 15 1627.04 73.39
-5 7 15 1560.04 82.49
-7 5 -15 1589.24 57.99
-5 15 -7 1661.83 58.49
5 -15 -7 1756.72 61.09
15 -5 7 1676.03 61.59
-5 -7 -15 1634.54 58.69
15 5 -7 1699.13 56.69
-15 5 7 1700.53 59.49
7 -5 -15 1660.93 59.39
-7 15 5 1736.03 60.19
-15 -5 -7 1754.72 58.79
-15 -5 7 1572.34 90.79
-7 -5 -15 1690.53 58.59
-5 7 -15 1716.73 58.19
7 5 -15 1709.33 58.49
-5 -7 15 1733.93 72.89
15 -7 5 1729.83 61.09
5 -15 7 1708.03 61.69
7 -15 -5 1677.73 60.09
-5 15 7 1674.93 58.99
5 7 15 1278.27 102.29
5 7 15 1730.33 93.59
-5 7 -15 1651.13 57.69
-7 5 15 1643.74 84.19
-15 5 -7 1756.52 59.39
-7 15 -5 1681.03 59.49
-15 7 5 1686.23 60.19
15 -5 -7 1661.73 59.19
-15 7 5 1342.87 83.79
15 -5 -7 1662.03 57.19
5 -7 -15 1725.83 59.89
-5 -15 -7 1673.93 61.39
15 7 -5 1640.24 56.29
15 -7 -7 1157.08 49.3
-7 -7 15 1229.78 62.49
7 7 -15 1184.58 44.6
15 -7 7 1122.19 47.2
7 15 -7 1012.8 59.29
7 -15 -7 1210.58 46.8
-7 7 15 1134.09 73.49
7 -7 15 1059.89 79.49
7 -15 7 1114.39 61.69
-15 7 7 1216.08 46.5
7 15 -7 1074.49 63.29
-7 -7 -15 1140.19 45
7 -7 -15 1167.98 45.7
7 15 7 1131.59 67.69
-7 7 -15 1175.88 45.3
7 -15 7 1191.38 48.2
-7 7 -15 1193.88 44.5
7 -7 -15 1205.28 48.9
15 -7 -7 1180.48 45.6
-7 15 -7 1062.59 50.19
-7 15 7 1239.58 45.9
-7 15 7 1081.29 62.39
-15 -7 7 1116.79 80.09
7 15 -7 1152.48 51.69
15 7 -7 1164.78 54.09
-7 15 -7 1182.68 45.5
7 7 15 1017.7 69.19
-15 7 -7 1154.58 45.1
-15 7 7 956.5 59.59
15 7 -7 1138.49 42.3
-7 7 15 1144.09 71.49
15 -7 -7 1178.28 43.8
15 -7 7 1133.79 55.99
-9 15 1 192.58 21
1 -9 15 235.28 32.7
-1 9 15 140.09 35.9
1 9 -15 160.08 16.6
-1 15 -9 145.29 20.3
-15 -1 -9 176.88 18.9
1 -15 -9 195.78 22.7
9 -1 -15 182.28 18.9
-15 1 9 135.89 49
-9 -1 15 158.78 32.4
-9 1 -15 183.58 17.8
-15 9 -1 159.78 19
-9 15 1 191.58 31.4
-1 15 -9 187.38 20.1
1 9 -15 166.58 17.2
15 -9 -1 178.08 19.4
9 -15 1 191.98 19.9
1 15 9 159.88 38.4
9 1 15 164.08 34.9
-1 -9 -15 191.78 20.4
15 1 -9 198.28 17.7
-1 9 15 202.08 40.9
-1 9 15 261.47 40
-15 1 -9 189.08 19.8
-15 -1 9 161.28 45.8
-1 9 -15 174.68 17.7
15 -9 1 188.28 20.2
15 -1 -9 178.18 17.8
9 -1 15 188.18 29
1 15 -9 198.98 22.5
-1 -15 -9 181.88 24.4
-1 9 -15 174.78 18.5
-9 -1 -15 211.78 18.3
1 15 -9 204.68 20.2
9 -15 -1 168.28 19
-15 9 1 242.58 20
1 9 15 201.98 35.2
-9 15 -1 186.68 18.8
1 -15 9 202.78 24.6
9 1 -15 194.08 18.4
1 9 15 274.87 40.8
-1 -9 15 176.48 28
1 -9 -15 199.08 20
-9 1 15 192.28 37.4
1 9 15 240.18 41.3
15 -9 -3 32.9 16.3
9 15 -3 41.7 20.7
3 15 9 76.29 31.5
-3 9 15 53.99 33.9
-15 -3 -9 61.29 12.3
3 -15 -9 49.3 15.1
9 -15 3 19.8 25.8
-3 -9 -15 28.9 13.1
-3 9 15 40.8 32.6
15 -9 -3 51.59 13.1
3 9 -15 28 11.2
3 -9 15 30.4 30.7
9 -15 3 48.7 13.1
9 3 15 83.99 32
3 9 -15 24.5 10.5
3 -9 15 -18.5 41.8
15 -3 9 40.6 16.2
15 -3 9 6.9 20.9
-15 9 -3 18.5 12
-3 9 15 68.69 36.9
-3 15 -9 45.4 11.7
9 -3 -15 66.39 15.2
-9 -3 15 57.59 27.4
-9 3 -15 33 10.2
15 3 -9 20.8 10.3
-15 3 9 73.49 50.89
-3 15 -9 26 17
-9 15 3 26.6 12
9 -3 -15 26.8 10.6
-9 15 3 58.99 25.7
-15 3 -9 33.1 12.7
3 15 -9 49.2 26.6
-3 9 -15 37.8 11.8
3 -9 -15 23.9 11.7
15 9 -3 59.69 19.9
-15 -3 9 78.79 40.2
-9 3 15 14.2 31.9
9 -15 -3 25.1 12.1
9 -3 15 53.29 23.3
15 -3 -9 33.8 13.7
9 -3 15 49.99 66.19
9 3 -15 43.7 10.8
3 9 15 50.99 33.1
3 15 -9 37.5 18
-3 -9 15 49 25.6
-3 -15 -9 49.5 16
15 -3 -9 34.3 11.4
-15 9 3 49 27.7
3 9 15 9.3 34.8
15 -9 3 16.7 23.4
-3 9 -15 38 11.1
15 -3 -9 38.3 19.6
-9 15 -3 33.5 12.5
-15 9 3 37.6 12.6
15 -9 3 61.49 13.4
3 9 15 2 33.1
3 -15 9 25.9 18.3
15 -9 -5 620.54 37.7
-15 5 9 536.45 85.79
5 -15 -9 587.54 32.5
-5 15 -9 590.64 37.7
15 5 -9 615.84 28.8
-9 15 5 608.04 50.59
-15 -9 5 659.03 70.09
15 -5 9 590.84 43.1
-9 15 5 603.24 30.8
9 15 -5 532.45 43.3
5 15 9 636.84 57.99
9 5 15 598.14 56.99
-9 15 5 591.34 56.29
9 -5 -15 601.64 33.6
-5 9 15 568.74 67.79
5 -9 15 541.75 66.49
-9 -5 15 637.84 51.19
9 -5 -15 620.14 30.7
15 5 -9 556.04 43.2
9 -15 5 596.44 31.5
-5 9 15 598.14 62.09
15 -5 9 594.04 35.1
-5 15 -9 603.44 30.1
9 -15 5 617.74 47.9
9 15 -5 615.14 56.29
5 9 -15 619.34 29.2
-5 -9 -15 628.44 31
5 -9 15 453.35 65.99
15 -9 -5 569.04 29.7
15 -9 -5 651.23 30.6
-15 -5 -9 570.64 29.6
9 15 -5 563.74 37.1
-5 9 15 541.95 58.79
-9 5 -15 615.84 30.1
5 9 -15 530.95 27.7
-15 9 -5 619.14 32.2
15 -5 -9 512.95 35.4
-5 9 -15 600.54 28.1
5 9 15 664.33 72.19
-15 5 -9 579.34 29.7
5 9 15 678.43 93.39
5 -15 9 614.84 35.8
15 -9 5 605.64 31.5
-9 5 15 594.24 61.69
9 5 -15 602.24 29.3
-5 9 -15 604.64 29.8
-15 9 5 661.33 32
5 15 -9 499.85 48.1
15 -9 5 541.45 39.7
-15 9 5 614.84 50.19
15 -5 -9 580.44 30.6
-9 15 -5 575.24 29.6
-15 -5 9 449.06 65.89
-5 -15 -9 621.04 35.1
5 -9 -15 606.04 31.6
5 15 -9 627.04 54.69
15 -5 -9 640.24 28.7
9 -15 -5 615.54 31.8
9 -5 15 583.94 46
5 9 15 601.64 62.69
5 9 15 546.95 57.79
5 15 -9 550.74 37.4
15 9 -5 542.75 40.8
-5 9 -15 593.54 41.2
9 -5 15 592.44 84.79
-5 -9 15 631.94 47.3
-5 15 9 702.03 69.69
15 5 9 634.84 55.99
-9 5 15 572.34 63.59
9 15 5 558.84 54.69
5 -9 -15 603.04 35.5
9 -5 15 516.95 53.09
5 -15 9 499.05 53.39
-7 15 -9 260.97 24.4
9 15 -7 231.58 29.5
7 9 -15 300.17 22.5
-7 15 -9 263.57 29.3
9 7 15 186.18 74.09
15 7 -9 301.17 28.7
7 15 9 245.68 37.9
9 -15 7 259.37 30.6
-9 -7 15 306.27 36.5
15 -7 9 324.17 30.1
-9 15 7 227.58 33.4
9 7 15 322.87 42.9
-9 15 7 317.87 34.6
9 -15 7 303.27 26.9
9 -7 -15 273.67 28
7 -9 15 289.97 40.4
7 -15 -9 306.27 25.7
-7 9 15 227.48 46
15 -7 9 272.87 36.8
-15 7 9 281.37 32.6
9 15 -7 289.97 34.2
15 -7 9 318.17 49.5
9 -7 -15 277.07 23.8
15 7 -9 254.17 22.9
15 -9 -7 285.47 24
7 9 -15 275.57 37.5
-7 9 15 334.87 45.5
-7 -9 -15 240.58 26.8
-15 -9 7 306.07 42.5
9 7 15 241.58 36.8
-15 9 -7 282.47 23.4
-9 15 7 301.17 23.3
-15 -7 -9 233.58 30.3
-15 7 9 302.37 57.99
-9 7 -15 301.17 23.4
-7 9 15 264.07 38.9
15 -9 -7 290.87 29.9
15 -9 -7 275.07 24.3
-15 7 9 285.27 25.7
15 -9 7 275.87 25.8
-7 15 9 282.57 33.5
-15 9 7 305.67 44
7 -15 9 238.68 31.8
9 7 -15 236.28 29
-15 9 7 294.37 24.8
15 -7 -9 278.97 23.2
-15 7 -9 273.27 22.9
-9 15 -7 252.57 46.9
9 15 7 312.27 38.6
-9 7 15 252.07 51.89
-9 7 15 309.67 40.4
15 9 -7 297.37 22.4
-9 7 15 232.98 38.3
7 9 15 309.77 37.9
15 -7 -9 247.38 29.1
7 9 15 305.77 40.2
9 -7 15 277.77 38.3
9 -7 15 263.47 30.9
-7 9 -15 289.17 27.2
7 -9 -15 295.67 29
-9 15 -7 255.17 24.9
9 -15 -7 309.17 24.8
9 -7 15 301.87 43.3
15 -9 7 329.67 44.9
7 9 15 257.47 62.39
7 -15 9 333.97 29.6
9 7 -15 292.37 22.2
7 15 -9 209.08 28.9
-7 9 -15 266.87 25.6
7 -9 -15 299.57 24.9
-7 9 -15 298.77 23.9
-7 15 9 176.98 35.6
-15 -7 9 298.77 41.9
15 7 9 246.68 37.3
7 15 -9 227.08 31.6
15 -7 -9 267.67 24.4
-7 -9 15 310.67 42.7
15 9 -7 303.77 33.6
15 -9 7 284.17 38.2
7 9 15 304.57 47.4
15 -9 -9 -24.3 15.1
-15 9 9 29.4 47.8
9 15 -9 33.6 17
-9 9 -15 11.9 13.2
15 -9 -9 23.2 15
9 -9 15 -21.5 34.1
9 9 -15 -9.1 12
15 9 -9 6.7 17.4
15 -9 -9 26.1 15
-9 15 9 23.4 27
-9 9 15 35.7 36.9
-9 -15 9 -3.7 25.2
15 -9 9 24.7 17.9
-9 -9 15 8.3 25.6
-15 9 9 11.4 15
-15 -9 9 -14 34.6
15 -9 9 21.2 22.2
15 9 9 36.1 38.7
9 -15 9 31 24.4
9 -9 -15 9.9 13.7
9 -15 -9 8.5 14
9 -9 15 -20.5 30.2
-9 15 -9 2 15.9
-9 9 15 -34.3 28.8
-15 9 9 56.39 26.2
-9 -9 -15 6.3 17.7
-9 15 9 27.6 28.2
9 -15 -9 -0.8 15.7
9 15 9 47.8 31.2
15 9 -9 21.2 13.1
9 -15 9 6.7 17.6
15 -9 9 -1.5 38.1
9 9 15 18.1 29.4
9 -15 -9 4.1 23
9 -9 15 16.2 24.2
9 15 -9 28.3 25.1
-9 9 15 -26.3 45.5
-15 9 -9 10.1 13.7
9 9 -15 8.1 18.8
-9 15 -9 -5.1 13.4
9 9 15 -34.9 31.7
9 -9 -15 1 15.5
11 1 15 390.26 70.29
15 -1 11 282.67 30.5
15 1 -11 288.97 22.2
-15 11 -1 310.77 24
-15 -1 -11 332.97 24
11 1 15 230.88 30.3
1 11 -15 308.27 22.1
1 -11 15 308.97 44
11 1 15 250.17 38.1
15 -11 -1 290.77 23.6
11 -15 1 282.67 24.9
-1 15 -11 269.27 24
1 -11 15 311.97 49.1
15 -1 11 304.07 37.9
-15 1 11 318.77 48.3
1 15 11 399.96 49.1
-11 -1 15 332.27 50.69
11 15 -1 303.87 36.4
1 11 -15 296.87 34.7
15 -11 -1 245.88 32.2
11 15 -1 335.27 42.3
11 -1 -15 301.57 23.8
-11 1 -15 309.27 21.6
-15 11 -1 355.06 38
1 15 11 338.67 50.09
-11 15 1 273.97 23.6
1 -15 -11 248.18 27.1
-11 15 1 364.26 46.7
-1 -11 -15 322.67 25.5
-1 11 15 364.86 53.39
1 11 -15 265.87 22.8
-1 15 -11 280.87 31.1
-1 15 -11 252.67 32.3
15 1 -11 245.78 32.5
-1 11 15 296.37 42.1
11 -1 -15 333.17 28.2
-1 11 15 247.78 36.6
15 11 1 272.27 36.2
15 -1 -11 275.47 22.6
11 -1 15 326.07 63.19
-11 -1 -15 328.67 21.3
-1 15 11 299.97 47.3
15 -1 -11 341.97 31.2
1 -15 11 337.17 44.9
-1 -15 -11 257.07 26.8
15 1 11 358.36 40.4
11 -15 -1 301.17 23.3
-1 15 11 271.67 37.9
1 15 -11 349.96 46
11 15 1 232.68 38.3
-1 11 -15 332.07 22.3
1 -11 -15 252.07 25.1
-15 1 -11 330.67 22.7
11 1 -15 315.57 22.5
-11 1 15 244.08 36.6
-1 11 -15 315.47 35.2
11 15 1 318.57 43.6
11 -1 15 253.37 38.4
11 -1 15 314.07 44.6
-15 -1 11 282.47 43
11 1 -15 323.37 30.2
-1 -11 15 297.67 32.2
15 -11 1 260.77 23.9
15 -1 -11 281.97 27.7
1 11 15 319.37 40.7
-11 15 -1 402.86 39.1
15 -11 1 275.47 34.8
15 -11 1 293.37 52.09
1 15 -11 278.97 30.8
15 11 -1 248.18 32.1
-1 11 -15 315.07 22.7
1 11 15 299.17 39.2
-15 11 1 304.37 25.2
1 11 15 300.57 41.8
-15 11 1 352.96 46.5
-11 15 -1 275.17 23.6
15 1 11 295.57 40.1
-1 -11 15 300.57 62.39
15 3 -11 46.1 24.5
15 -11 -3 13.3 12.9
15 -3 11 49.3 20.3
-15 11 -3 -2.4 12.7
-3 15 -11 10.9 31.2
15 -11 -3 13.1 17.3
3 15 11 -24.8 43.8
-11 3 -15 -0.4 11
11 -15 3 3.9 13.3
3 -11 15 27.5 38.8
15 3 -11 8.2 21.7
-3 15 -11 -11.4 15.6
11 3 15 14.3 24.7
-11 15 3 -21.3 24.8
11 15 -3 19.5 19.9
11 -3 -15 -12 11.1
3 11 -15 5.6 11.2
-3 11 15 25.5 30.1
3 -11 15 -3.3 28.5
-15 3 11 29.3 45.2
-3 -11 -15 23.9 14
15 3 -11 -2.3 11.9
15 11 3 1.5 19.9
11 -15 3 37.8 25.3
11 -3 -15 -7.4 14
11 3 15 1.1 68.69
-11 15 3 0.1 12.9
3 11 -15 -10.6 12.6
3 11 -15 19.8 20
3 15 11 -14.5 26.2
-3 11 15 9.9 34.5
-15 -11 3 56.09 48.3
-3 11 15 1 32.5
-11 -3 15 -32 29.1
11 15 -3 4.4 30.1
-15 -3 -11 21.3 12.6
3 -15 -11 11.5 14.8
-15 11 -3 -47.6 32.5
-3 15 -11 -5.2 13.2
15 -3 11 6.2 21.4
3 15 -11 31.8 34.1
-11 -3 -15 9.2 10.9
3 -11 -15 8.1 13.8
11 -3 15 -2.6 25.3
3 15 -11 1.5 14.9
-11 3 15 42 31.6
11 -3 15 25.6 21.4
-11 15 -3 -0.9 27.3
-3 15 11 52.59 40.3
-3 15 11 -21.3 33.2
11 3 -15 7.6 19.4
15 3 11 13.9 26.1
-3 -15 -11 3.8 17.2
3 15 -11 15.9 23.6
3 11 15 -9.3 28.1
3 -15 11 5.8 21.7
-15 -3 11 -19.1 37.1
-3 11 -15 1.3 11.5
-3 11 -15 6.4 12.3
3 -15 11 49.1 34.8
-15 3 -11 3.3 12.7
11 -3 15 10.1 41.9
3 11 15 32.1 34.5
15 11 -3 9.3 18.6
15 3 11 28.5 25.6
11 15 3 32.1 33.2
11 3 -15 -14.9 11.3
15 -11 3 -63.39 35.7
15 -3 -11 -22 16
-3 -11 15 -5.9 21
-11 3 15 -28.1 36.5
15 -3 -11 14.3 12.4
15 -11 3 -3.4 20.4
-15 11 3 -9.7 24.4
3 -11 -15 7 15.7
-11 15 -3 -8.1 12.4
3 11 15 -24.1 30.6
15 -11 3 4.6 12.8
-3 11 -15 38.2 19.2
11 -15 -3 -6.8 12.9
-15 11 3 -12.2 11.8
15 -3 -11 1.6 13.7
-5 15 -11 209.98 27.4
15 -5 11 301.57 54.99
5 -11 15 271.47 41.3
-15 -5 -11 270.07 23.7
-15 5 11 240.68 47.7
-5 11 15 202.28 35.7
11 -15 5 232.48 31.3
11 5 15 273.07 37.4
5 15 11 285.07 36.2
11 -5 -15 235.28 23
15 -5 11 239.08 35.3
5 11 -15 210.78 25.9
-11 -5 15 260.07 37.2
5 11 -15 249.58 22.5
11 5 15 219.08 76.19
15 -5 11 239.68 27.1
5 -11 15 229.88 36.7
15 -5 11 239.08 31
-5 -11 -15 246.98 25.8
-15 11 -5 227.58 40.4
15 11 5 269.87 37.6
11 -15 5 227.98 25.4
-5 11 15 180.78 39.2
-5 -15 11 246.88 38.4
-5 15 -11 260.77 41.8
11 -5 -15 218.68 27
-11 15 5 246.68 31.2
-15 11 -5 240.18 24.5
5 -15 -11 206.08 27.1
5 -15 -11 224.08 25.5
5 15 11 221.38 52.79
15 -11 -5 211.28 22.4
-5 15 -11 258.67 24.4
15 5 -11 245.08 23.1
11 15 -5 270.27 38
-11 15 5 217.28 25.1
-5 11 15 244.28 39.4
-11 5 -15 218.68 22.1
11 15 -5 225.88 30.5
15 -11 -5 248.98 27.6
15 -11 -5 251.97 24.2
-15 -11 5 277.37 41.3
15 5 -11 180.48 25.7
15 -5 -11 252.07 25.6
-5 -11 15 256.17 39.3
5 -11 -15 208.08 27
15 -11 5 222.18 24.5
-5 15 11 184.68 36.9
5 -15 11 213.98 27.5
-5 11 -15 233.58 24.5
-5 11 -15 251.57 24.6
11 15 5 182.28 37.2
11 -5 15 236.38 29.6
-15 -5 11 252.97 41.7
15 -11 5 209.98 26.3
15 -5 -11 210.08 27.6
-5 -15 -11 171.88 23.6
-5 15 11 250.37 42.2
15 5 11 210.18 30.2
-11 15 -5 269.37 39
-11 15 -5 265.97 25.1
-15 11 5 229.78 24.6
5 15 -11 185.88 21.2
5 11 15 234.28 33.5
-15 11 5 212.08 29
11 -5 15 195.98 46
11 -15 -5 203.58 23.6
5 11 15 221.78 37.3
11 5 -15 207.98 29.1
-11 5 15 201.98 40.8
-15 5 -11 216.68 22.1
11 -15 -5 216.38 26.9
15 5 11 144.89 30.7
5 15 -11 271.17 39.6
5 -11 -15 252.67 25.5
11 -5 15 198.28 30.1
15 -5 -11 222.48 23.3
15 -11 5 219.38 35
15 11 -5 215.68 30.9
-5 15 11 165.48 35.1
-11 5 15 187.78 35
-5 11 -15 244.48 23.7
11 5 -15 232.18 21.5
-11 -5 -15 231.78 21.7
5 -15 11 236.08 34.7
5 11 15 153.78 34.8
5 15 -11 234.88 21.4
-15 7 11 34 25.9
15 -11 -7 -1.4 15.2
15 7 -11 28.2 13.8
-15 -7 -11 31.2 16
-11 15 7 10.6 14.2
-11 7 -15 21.1 14
-7 15 -11 23.4 14.6
7 -15 -11 44.7 16
-7 -11 -15 26 17
11 -7 -15 -2 15.5
-11 -7 15 26.7 27.2
11 -15 7 3.3 15.7
7 15 11 44.9 47.5
-15 -11 7 33.9 34.5
-15 11 -7 7.5 14.6
-15 7 11 45.2 45.5
15 -11 -7 17.6 13.9
7 15 11 8.3 30.4
11 -7 -15 29.6 14.6
7 11 -15 19.4 13.2
11 7 15 43 73.99
15 -7 11 42.9 38.3
11 -15 7 68.99 25.2
-7 -15 11 17.1 24.1
11 7 15 42.8 30.5
-7 15 -11 11 16.8
15 -11 -7 24.3 15.7
15 7 -11 21 19.9
11 15 -7 21.8 29.3
15 -7 11 31 19.3
-7 11 15 45.8 31.9
-11 15 7 12.2 26.9
7 11 -15 27.2 19.1
7 -15 -11 4.6 16.4
7 -15 -11 29.5 25.1
11 7 15 27.6 39.1
11 15 -7 10.6 15.8
15 -7 11 4.5 20.7
-7 11 15 26.8 40
11 -15 7 -31.8 40.9
7 -11 15 40.6 32.9
-7 11 15 25.8 33.5
-11 15 7 31.3 23.5
-7 15 11 -25.7 41.9
15 11 -7 -26.5 43.9
-7 15 11 37.1 28.1
7 -11 -15 6.9 15.5
7 15 -11 4.9 17.3
-7 -11 15 10.5 26.6
11 15 7 31.9 27.6
15 -7 -11 -0.2 14.6
-15 -7 11 35.4 33.5
-11 7 15 69.39 39.2
-11 7 15 23.4 27.7
7 -15 11 -5.7 33.3
-11 15 -7 15.8 14.4
15 -11 7 16.2 15.2
-7 15 11 17.5 31.7
-15 11 7 17.6 14.7
15 -7 -11 20.2 14.7
-7 11 -15 17.6 13.8
-7 11 -15 -11.7 16.8
15 7 11 20 30.6
7 15 -11 -1.9 12.1
-15 11 7 20.9 25.7
11 7 -15 -5.8 12
15 -11 7 52.19 33.3
11 -15 -7 15.5 22.6
-11 15 -7 16.8 36.3
11 -7 15 16.6 24.6
7 11 15 -5.9 31.4
-11 7 15 -10 54.99
11 7 -15 0.8 21.9
-7 -15 -11 11.4 22.7
11 -15 -7 19.2 16.4
15 7 11 -0.1 31.2
7 15 -11 1.2 22.8
15 -7 -11 25.4 16.8
11 -7 15 62.79 26.7
7 11 15 13.3 26.1
11 -7 15 -17.9 37.4
7 -11 -15 5.3 15.2
7 -15 11 32.9 28.2
15 -11 7 25.2 23.2
11 -15 -7 28.4 14.6
15 11 -7 -8.4 16
-15 7 -11 -4.4 14.6
7 -15 11 4.9 20.7
-11 7 15 -3.7 33.5
-15 11 -9 85.59 18.5
15 11 9 110.99 46.3
11 -15 9 89.79 19.5
-15 -11 9 114.29 35.9
15 -11 -9 78.49 16.9
11 -15 9 106.79 37.8
15 -11 -9 58.99 17.2
-9 15 -11 32.6 16.1
11 15 -9 55.49 18
11 -9 -15 55.59 19.4
-15 9 11 22.5 26.9
-9 11 15 15.6 30.7
-11 15 9 56.99 28.5
9 15 11 90.49 33.2
-11 9 -15 77.19 17.3
9 11 -15 31.8 18.3
-11 -9 15 28.7 28.6
11 -15 9 63.09 25.7
9 15 11 110.89 50.49
-9 -11 -15 98.29 22.5
9 -15 -11 57.79 18
-11 15 9 81.39 26.3
11 9 15 74.69 39.2
-9 11 15 81.09 45.1
11 -9 -15 64.29 18.5
15 -9 11 127.19 39.2
9 11 -15 40.8 15.2
-15 9 11 56.69 47.1
15 9 -11 63.79 15.3
15 -11 -9 65.79 18.6
9 -11 15 53.79 33.8
9 -15 -11 109.49 22.6
15 9 -11 65.29 20.2
-9 -15 11 68.09 27.6
11 9 15 28.4 30.9
9 -15 -11 57.39 16.9
15 -9 11 27.8 22.5
11 15 -9 91.79 28.7
-9 15 -11 82.09 17.7
15 -9 11 48.7 21.1
-9 11 15 56.79 35
-9 11 15 81.39 36.8
11 -9 -15 50.89 17.7
11 -15 -9 29.5 20.1
-15 11 9 137.99 44
15 -9 -11 68.29 17.9
-9 -11 15 44.8 25.7
15 11 -9 53.19 18.6
-11 15 -9 53.19 17.2
11 9 -15 60.39 22.3
9 -15 11 47.2 27.1
11 -9 15 78.49 31
11 15 9 55.19 29.2
-11 9 15 30 36.4
-9 15 11 78.99 29.1
-15 9 -11 51.19 16.9
9 11 15 139.89 35
11 -9 15 33.8 35.3
15 -11 9 50.49 33.1
-9 11 -15 89.39 17.9
11 9 -15 46.1 15
15 -11 9 53.69 19.1
15 -9 -11 74.49 17.6
11 -15 -9 64.99 18.6
9 -11 -15 34.6 16.5
9 -15 11 61.29 21.2
-11 9 15 86.69 38
9 -11 -15 34.2 17.2
-15 11 9 82.49 28.1
15 11 -9 68.49 16.6
15 -11 9 62.19 25.6
15 9 11 23.4 36
-15 -9 11 112.89 36.5
-9 11 -15 62.09 19.7
-9 15 11 71.59 30.8
-15 11 9 70.99 17.6
9 11 15 120.29 35
-11 9 15 55.79 28.5
15 -9 -11 58.49 16.4
11 -9 15 54.89 26.1
9 15 -11 28.2 25.4
11 -15 -9 90.39 18.1
-11 -15 9 38.3 24.7
9 15 -11 76.39 19.1
15 -11 11 146.99 36.1
15 -11 -11 139.89 19.8
-15 11 11 160.88 29.8
-11 11 15 121.59 32.9
-11 11 15 95.89 28.3
15 -11 -11 119.89 21.5
11 -15 11 128.09 33.1
11 15 -11 159.08 27.5
11 15 11 108.89 29.9
11 11 15 152.18 34
15 -11 11 173.58 26.9
11 -15 -11 183.78 26.8
15 11 -11 126.69 19.6
11 15 -11 135.59 19.4
11 -15 11 153.28 24.4
-11 11 15 107.09 38.7
11 -15 -11 156.28 23.2
-11 15 -11 153.18 21
11 -11 15 159.38 36.5
11 -11 15 89.19 26.6
-11 15 11 125.79 27.8
-11 15 11 211.48 31
11 11 15 160.58 36.1
11 11 -15 129.89 21.5
11 -11 -15 190.78 23.6
11 -11 -15 147.49 21.6
11 11 -15 192.68 26.1
-11 15 -11 146.49 19.4
15 11 -11 146.39 20.2
11 15 11 171.78 49.8
-15 11 -11 150.38 21.7
11 -11 -15 150.58 22.3
-15 -11 11 179.78 39
15 -11 11 161.08 28.2
-15 11 11 135.09 43.9
11 -15 -11 197.88 24
-11 -15 11 164.58 32.2
-11 -11 15 128.09 33.6
11 -15 11 147.19 31.9
11 -11 15 149.79 33.2
15 11 11 211.28 40.4
-11 11 -15 175.28 22.2
15 -11 -11 118.19 18.4
-13 -1 15 160.88 36.5
1 13 -15 204.78 23
15 1 -13 220.88 29.2
-15 -1 -13 205.38 24.4
15 -1 13 238.58 30.6
15 -1 13 228.18 27.9
-1 -15 13 228.38 51.19
-1 15 -13 213.38 22.8
-1 13 15 284.47 38.1
-1 -15 13 234.38 29.5
-1 -13 -15 266.87 30.7
13 -15 1 295.87 43.5
15 -1 13 194.38 73.89
13 1 15 259.37 71.19
1 -13 15 261.87 33.1
-15 1 13 224.98 44.5
15 13 1 235.18 34.3
-1 13 15 177.88 36.9
1 -13 15 199.38 48.9
-13 1 -15 223.68 24.4
15 -13 -1 227.28 25.8
13 1 15 194.18 26.4
-13 15 1 207.98 24.6
-1 15 -13 323.17 36.8
13 -1 -15 223.08 28.9
13 15 -1 177.98 22.3
-1 13 15 216.08 35.3
1 -15 -13 218.08 28.7
1 -15 -13 237.78 27.7
13 -15 1 258.07 31.9
1 15 13 240.28 35
13 -1 -15 215.98 24
13 15 -1 208.58 38.3
-13 15 1 182.08 29.2
-15 13 -1 232.68 26.6
-1 15 -13 208.98 26.9
1 15 13 230.18 40.6
15 1 -13 219.98 23.6
1 13 -15 217.48 30.5
-15 13 -1 271.37 33.5
13 -15 1 247.88 25.5
1 13 -15 177.58 19.5
13 1 15 272.67 32.9
15 -13 -1 203.48 23.9
-1 -13 -15 233.68 27
-15 -1 13 259.27 45.7
13 1 -15 234.58 24.2
15 13 -1 323.07 56.19
-1 15 13 233.38 41.1
15 -13 1 235.18 27.6
-1 -15 -13 199.98 29.3
15 -1 -13 244.68 29.6
15 1 13 208.88 29.2
-1 15 13 271.57 37.6
-13 15 -1 209.38 34.5
-15 13 1 227.58 25
13 1 -15 213.28 30.9
-1 13 -15 253.27 31.8
15 -1 -13 242.38 29
13 15 1 234.48 26.4
-1 -13 15 325.67 56.89
15 -13 1 244.28 34.8
13 -15 -1 200.48 24.1
13 -1 15 204.48 29.5
13 -1 15 189.38 25.5
1 -15 13 278.77 41.1
1 -15 13 311.07 47.6
15 13 -1 230.58 24.7
-1 13 -15 230.68 24.7
-13 -1 -15 236.88 22
1 -13 -15 200.28 27.1
15 1 13 203.38 28
1 15 -13 246.88 31.5
1 13 15 302.37 40.4
13 -15 -1 275.47 30.3
-1 -15 -13 221.48 26.8
-1 -13 15 236.78 32
15 -13 1 224.78 25.3
-13 1 15 141.39 35.5
1 13 15 195.18 35.2
1 -13 -15 189.68 28.9
15 -1 -13 230.88 24.6
-15 1 -13 208.08 23.1
-1 13 -15 255.07 25.2
1 13 15 229.48 37.7
1 15 -13 226.08 29.2
-15 13 1 229.58 32.7
13 15 1 180.08 37.5
-13 15 -1 212.08 25.4
13 -1 15 233.28 59.79
3 13 -15 64.39 18.2
-15 13 -3 86.49 32.9
13 -15 3 73.09 16.2
13 3 15 83.89 28.4
3 15 13 53.09 39
-15 13 -3 82.29 17.1
-3 15 -13 100.89 17.9
-15 -3 -13 69.99 15.6
-15 3 13 97.49 43.8
3 15 13 39.2 27.2
15 3 -13 37.1 20.7
-3 13 15 65.29 35.7
-3 -13 -15 105.79 19.2
13 3 15 115.29 80.19
-3 13 15 58.39 31
-3 13 15 98.89 33.5
3 -15 -13 79.09 18.9
13 -3 -15 64.49 18.6
-13 3 -15 82.69 16.3
13 15 -3 89.89 20.2
-3 15 -13 80.39 19.7
15 -3 13 47.5 23.4
3 -15 -13 105.99 20.4
15 -13 -3 99.39 21.5
-13 15 3 77.09 17.9
13 -3 -15 52.49 16.3
3 -13 15 55.19 29
-13 15 3 79.59 27.6
15 3 -13 62.79 25.7
13 -15 3 64.19 28.3
15 -3 13 75.59 23.6
13 -15 3 111.69 29.2
13 15 -3 68.79 38.6
-13 -3 15 85.09 35.1
15 -13 -3 61.49 14.9
-3 -15 13 97.09 25.3
3 -13 15 63.69 35.7
3 13 -15 106.19 16.9
15 -3 13 43.3 50.79
-15 -13 3 124.99 38.1
15 3 -13 67.99 14.8
-13 15 -3 69.39 17.1
15 13 -3 18.5 48.7
13 3 -15 77.69 15.2
15 -3 -13 80.89 19
-15 13 3 80.49 25.6
-3 -15 -13 125.79 22.1
15 -3 -13 98.69 17.5
-3 -13 15 181.98 74.39
15 13 -3 59.69 19.5
15 3 13 46.5 24.4
3 -15 13 139.29 29.2
13 15 3 90.19 25.4
13 -3 15 129.09 50.19
-13 3 15 95.59 32.6
15 -13 3 52.99 31.1
-13 3 15 64.79 39.4
3 -13 -15 73.99 18.4
3 13 15 99.69 37.4
-3 15 13 118.09 32.4
3 13 15 64.49 26.4
-15 3 -13 69.39 16.6
-15 13 3 64.29 17.1
-3 -15 -13 82.79 19.2
-3 13 -15 65.79 16.1
13 -3 15 104.89 24.8
3 15 -13 84.19 25
3 15 -13 80.59 15.4
-3 15 13 60.49 37.1
13 15 3 80.69 38.3
3 -13 -15 68.59 17.2
13 -15 -3 53.89 21.7
15 -13 3 96.99 24.1
13 -15 -3 66.99 14.8
13 -3 15 60.39 27.5
3 15 -13 69.59 18.2
-15 -3 13 90.79 40.4
-13 15 -3 35.8 27.9
15 3 13 91.69 26.1
15 -13 3 99.59 16.9
-3 15 13 82.59 35.3
-3 13 -15 86.29 19.1
15 -3 -13 63.89 17.3
13 -15 -3 57.59 18.6
-3 -13 15 50.49 24.4
3 -15 13 32.1 33.2
-13 -3 -15 93.09 16.3
5 -13 15 382.76 58.09
15 -13 -5 405.06 28.6
5 15 13 388.76 49.1
15 5 -13 339.77 41.7
-13 15 5 365.46 45.3
5 -15 -13 291.87 41
13 -15 5 436.06 30.7
13 15 -5 457.35 63.09
5 15 13 381.16 47.3
-15 -13 5 377.06 59.89
15 5 -13 387.66 29.1
13 5 15 225.38 89.79
-5 -15 13 450.05 44.2
-5 13 15 407.06 61.99
-15 5 13 472.75 72.09
5 -13 15 428.96 43.5
-15 13 -5 407.76 32
13 -5 -15 346.87 31.9
-5 15 -13 345.07 32.6
-5 -13 -15 435.86 33.5
13 15 -5 407.06 33.3
15 5 -13 400.96 39
13 -15 5 401.86 52.09
13 5 15 425.36 50.59
-15 5 13 353.06 51.19
15 -5 13 317.17 37.8
-15 -5 -13 418.96 29
15 -13 -5 375.66 33.1
-5 15 -13 379.76 29.5
5 -15 -13 423.46 31.9
15 13 5 437.96 39.6
5 -15 -13 459.75 31.7
-13 5 -15 378.36 29.7
13 -5 -15 399.46 29.8
-15 13 -5 399.66 61.39
15 -5 13 518.95 62.19
15 -5 13 388.96 41.6
5 13 -15 400.16 33.8
13 -15 5 320.07 47.4
-5 13 15 463.65 59.69
-5 13 15 515.85 57.59
13 -5 -15 390.66 33.2
-13 15 5 421.86 30.2
5 13 -15 392.76 27.9
13 5 -15 402.06 29.3
13 5 -15 319.17 33.4
-13 15 -5 491.05 56.19
-5 13 -15 376.26 28.9
15 -13 5 332.87 43.6
-15 13 5 383.66 31.6
-13 15 -5 439.66 32.6
15 -5 -13 395.66 31.3
-5 -13 15 376.36 43.5
13 -15 -5 355.16 33.9
-5 -15 -13 310.47 36.7
5 13 15 398.16 45.7
-5 15 13 432.46 44.7
-15 13 5 324.57 43.5
13 -5 15 326.57 43.6
-13 5 15 372.46 39.5
-15 -5 13 327.97 43.9
13 -15 -5 326.67 35.7
5 15 -13 425.56 33.1
15 -13 5 407.56 28.8
-15 5 -13 375.36 28.9
13 5 -15 290.87 39.2
5 13 15 390.56 47.5
15 5 13 371.76 49.1
13 15 5 468.45 61.99
5 -13 -15 397.86 32.4
-5 15 13 455.95 61.19
5 15 -13 391.26 43.2
13 15 5 402.26 39
-5 13 -15 336.17 32.4
-13 -5 -15 399.16 27.8
5 -15 13 363.66 54.09
15 -5 -13 279.47 30
-13 5 15 397.56 63.19
5 -15 13 419.86 54.99
-5 15 13 425.56 51.29
13 -5 15 550.14 60.19
15 5 13 348.27 45.2
15 -13 5 545.35 54.69
-13 5 15 434.26 59.69
5 15 -13 359.86 27.7
5 -13 -15 424.06 31.7
-5 15 13 394.96 60.69
13 -15 -5 383.46 28.7
-5 -15 -13 421.66 33.9
13 -5 15 361.16 40.1
15 13 -5 344.17 33.5
15 -5 -13 386.36 30.4
15 13 -5 493.45 72.29
13 7 15 153.18 31.6
7 15 13 160.28 44
15 7 -13 116.69 22.1
-13 7 -15 136.59 20.8
15 -7 13 129.39 22.8
-13 15 7 153.68 26.6
-15 -13 7 151.28 35.7
-13 -7 15 197.48 38.2
13 15 -7 209.08 37.4
15 -13 -7 146.19 23.2
7 13 -15 171.38 24
7 -13 15 138.89 32.6
7 15 13 160.68 31.5
15 7 -13 125.79 18.3
13 -15 7 125.79 26.6
15 -7 13 169.28 44.7
7 -15 -13 148.89 24.7
13 -7 -15 117.79 19.2
13 -7 -15 113.29 19.2
7 -15 -13 131.89 19.9
7 -15 -13 182.48 23.3
-15 13 -7 168.38 22.1
-15 -7 -13 150.28 20.6
-13 15 7 154.68 21.2
-7 13 15 161.18 42.1
-7 15 -13 138.59 20.4
13 -15 7 130.89 20.1
-7 15 -13 136.59 20.1
-7 13 15 175.78 38.5
-15 7 13 177.08 32.6
15 -7 13 94.89 22.9
7 13 -15 166.08 22.4
13 15 -7 101.69 18.7
-7 13 15 131.69 32.9
-7 -13 -15 148.79 22.9
-15 7 13 112.59 47.6
13 -7 -15 161.88 22.3
15 -13 -7 158.08 21.1
15 -13 -7 157.48 20.8
-7 -15 13 177.98 30.3
-15 7 13 140.29 30.4
13 -15 7 151.78 35.1
-15 13 -7 163.98 41.2
7 -15 13 199.18 51.69
-13 7 15 111.49 32.6
-13 7 15 143.49 32.3
7 -15 13 155.78 33.4
15 -7 -13 119.79 18.5
13 -7 15 156.28 27.5
13 -7 15 152.48 45.8
7 -13 -15 156.28 22
7 15 -13 132.79 20.9
-7 -15 -13 182.18 27.8
13 -7 15 150.98 29
-13 15 -7 165.88 22.1
15 -7 -13 121.29 20.1
-7 13 -15 171.78 20.9
-15 13 7 136.39 27.1
-15 -7 13 75.89 37.1
13 -15 -7 161.18 23.4
7 15 -13 154.68 18.5
-15 13 7 154.38 21.5
13 7 -15 141.39 18.2
15 7 13 243.68 36
13 -15 -7 126.29 22.4
-7 15 13 187.68 37
15 -13 7 212.68 34.5
-7 -13 15 173.98 29.8
13 -15 -7 164.98 21.4
-7 15 13 204.58 42.5
-13 -15 7 163.98 30.4
13 7 -15 120.79 25.5
15 -7 -13 170.98 21.8
15 -13 7 165.98 29.2
7 13 15 79.79 26.8
-15 7 -13 100.69 19.6
-7 13 -15 116.29 19.6
7 -13 -15 169.18 22.7
7 13 15 119.99 37.2
15 13 -7 113.29 39.6
-13 7 15 200.18 43.2
-13 -7 -15 154.78 19
-7 15 13 158.28 33.6
15 -13 7 113.19 20
15 13 -7 128.99 21.7
-7 15 13 127.29 33.1
-13 15 -7 172.08 36.9
-7 -15 -13 209.88 24.5
7 15 -13 151.38 27.7
13 15 7 170.08 37.2
-13 15 9 18.9 22.1
-9 13 15 2.2 42.7
13 15 -9 3.5 15.2
13 9 15 9.1 30.8
15 -13 -9 -13 15.5
-9 15 -13 3.1 18.3
-9 15 -13 -10.6 15.7
-15 9 13 -71.39 42.1
-13 9 -15 5.2 18.2
13 -15 9 23.6 26.6
-15 9 13 -24.6 26.5
13 9 15 59.99 41.6
-9 13 15 17.7 33.8
15 -9 13 -1.1 21.3
-13 -9 15 10 28.5
15 13 9 15.7 40.9
15 -9 13 -17 21.6
9 -15 -13 4.6 17.7
-9 -13 -15 -11.6 27.1
-15 9 13 36.3 24
-9 13 15 -60.19 25.7
9 13 -15 30.8 15.9
9 -15 -13 -12.7 19.5
13 -9 -15 -4.3 16.7
15 -9 13 -64.49 33.6
13 -9 -15 -10.8 17.8
15 9 -13 36.9 17.7
9 15 13 -34.1 27
-15 -13 9 -1.4 32.2
9 13 -15 12.5 15.4
13 -15 9 31.8 19.9
-9 -15 13 -16 24.9
15 -13 -9 4.4 14.9
9 -13 15 0.4 28.2
-9 13 15 -33.3 33.8
15 -13 -9 18.1 21.5
13 -9 -15 -4.5 19
15 9 -13 14.8 18.3
-15 13 -9 17.7 18.5
13 -15 9 -25.7 29.5
13 15 -9 -20.7 28
9 -15 -13 6.3 20.1
9 15 13 -74.39 39.3
-15 9 -13 6.7 18
-9 15 13 -14.8 44.5
15 -13 9 2.6 19.7
9 13 15 26.7 34.4
-15 -9 13 5.1 33.2
9 -15 13 -42.9 26.2
-15 13 9 31.3 24
13 -15 -9 10.7 16.4
15 -13 9 11.8 24.9
9 -13 -15 9.6 19.3
-9 -13 15 -10.4 26.6
-13 9 15 33.5 39.3
-13 15 -9 17.4 18.4
-13 9 15 -13.1 23.7
9 -13 -15 9.4 17.2
13 -9 15 -11.9 37.3
15 -13 9 34.3 32
9 -15 13 46.9 26.3
-9 15 13 5.5 27.9
13 -15 -9 -28.2 20.6
13 -9 15 22.8 23.4
9 15 -13 3.9 21.7
-13 -9 -15 33 19.5
15 -9 -13 -4 15.1
-15 13 9 -6.9 17.4
15 9 13 -35.9 32
9 15 -13 -25.5 13.7
-13 -15 9 -8 28.6
13 9 -15 27.3 17
9 15 -13 -4.3 15.5
13 15 9 17 31.8
9 -13 -15 1.5 18.5
13 -9 15 40.9 23.7
13 9 -15 -26.1 17.8
-9 -15 -13 27.9 23.7
-9 15 13 -31.3 27.5
-9 13 -15 11.5 18.2
9 13 15 -1 27.2
15 13 -9 24.2 33
-13 9 15 32.4 28.8
15 -9 -13 -7.4 18
-9 15 13 8.4 27.2
15 13 -9 -9 16.8
13 -15 -9 -3.3 18
-9 13 -15 14.4 17
15 11 -13 -30.1 16.3
11 -15 -13 1.5 17.1
11 -15 -13 8.1 17.9
15 -13 -11 -33.3 22.3
15 -11 13 -9.5 23.7
-11 -15 13 -16 25.9
13 -15 11 -20.5 26.5
15 13 11 58.59 41.2
-11 13 15 22.2 38.6
15 -11 13 56.09 35
13 15 -11 -3.8 15.9
-11 13 15 -7.7 25.7
13 -11 -15 18.1 15.6
-11 15 -13 22.9 15.9
15 -11 13 24.9 22.8
13 15 -11 25.1 25.6
-15 11 13 -21.8 23.4
11 13 -15 4.5 16.3
11 13 -15 -1.1 15.6
-13 15 11 3.3 23.9
13 -15 11 20 24.6
15 -11 13 -6.4 21.8
-13 11 -15 -28.2 19.3
-13 15 11 -1 22.1
13 -11 -15 -16.3 19.6
11 15 13 -7 27.6
13 11 15 13.9 35.8
-11 13 15 -16.7 27.8
15 11 -13 15 17.2
-15 11 13 51.09 45.1
13 -11 -15 -0.4 21.3
11 -13 15 -3.9 28.2
13 -15 11 7.2 29.6
11 15 13 10.3 38.9
15 13 11 44.7 36.6
13 11 15 -10.4 31.2
15 -13 -11 -6.8 17.8
-15 -13 11 9.5 33.6
-11 15 -13 -1.6 18.9
15 -13 -11 -6 14.8
11 -15 -13 -5.3 21.3
-13 -11 15 -46.3 30.5
-15 13 -11 -15.9 20
-15 -11 13 4.3 34.6
13 -11 15 -41.9 22.5
13 -15 -11 12.1 18.7
11 -13 -15 5.2 16.9
-11 15 13 32.2 25.7
13 -11 15 61.89 26.4
11 -15 13 18 28.2
11 13 15 -14.6 33.3
11 -15 13 6.7 27.5
13 -11 15 -6 31.3
15 -11 -13 25 21.8
11 -15 13 2.4 24.5
-11 13 -15 4.5 16.6
11 15 -13 -2.2 15.4
13 11 -15 -7.8 16.3
11 -13 -15 14.6 20.8
-13 11 15 -16.6 38.4
-15 13 11 36.5 22.5
11 -13 -15 16.3 21.3
-11 15 13 46.1 25.9
15 -11 -13 18.9 14.9
13 -15 -11 0.6 17
15 13 -11 -1.9 17.1
13 -15 -11 -32.2 21.2
-11 -13 15 4.6 28.1
15 -11 -13 13.5 17.3
-13 -15 11 14.9 29.6
11 13 15 29.7 29.7
-13 11 15 1.2 26.9
13 15 11 16.9 29.7
13 11 -15 13.7 17
-15 11 -13 -8.3 19.2
-13 15 -11 -1.5 19.8
-11 13 -15 -9.7 18.6
15 -13 11 -5.3 22.6
15 -13 11 27.9 23.3
15 11 13 -6.1 32.4
-13 11 15 -28.4 25.4
15 -13 11 42.7 30.3
13 15 -13 19.5 17.9
15 13 -13 -6.5 14.9
15 13 13 21.8 36.3
-13 13 -15 28.7 22.6
-13 15 -13 -24.4 21
13 13 15 5.4 31
13 15 13 -53.99 28.8
15 13 13 42.8 35.7
15 -13 13 -37.2 24.3
-15 -13 13 -35.2 34.6
15 -13 -13 8.3 19.6
-13 13 15 0 26.3
-13 15 13 -6.8 25.2
13 13 -15 3.1 16.6
-15 13 13 10.4 23.4
-13 13 15 -24.8 25.1
13 -13 -15 -9 15.8
13 -15 -13 63.09 26.8
13 -13 15 28.3 33.1
13 13 15 -0.7 32.1
13 15 13 34.5 40.1
15 -13 -13 -4.8 26.6
15 13 -13 -17.5 20.3
13 -15 -13 -7.2 18.1
15 -13 13 -33.5 28.1
13 -15 13 -17.7 28.4
-13 15 -13 -13.2 15.8
-13 15 13 -17.3 24.2
-13 13 -15 14.9 16.2
13 -13 -15 -1.2 25.6
13 13 -15 -21.4 18.2
-13 -13 15 13 33.2
-13 13 15 23.6 34.8
-15 13 -13 29.7 22
13 -15 13 14.5 27.6
13 -15 -13 16.4 15.6
13 -13 15 -13.4 22.4
13 -13 15 -22.7 30.1
13 -15 13 4.4 26.9
15 -13 -13 4.7 14.6
15 -13 13 16.7 21.6
13 -15 13 53.39 34.9
-15 13 13 11.4 38.8
-13 -15 13 -1.8 33.6
13 -13 -15 -16.6 19.5
15 -13 13 -9.6 30.4
1 15 15 45.6 32.9
-1 -15 -15 47.4 19
1 -15 15 92.19 42.9
15 -15 1 36.7 28.7
15 -1 15 66.39 63.79
15 1 15 -16.6 74.19
15 1 15 22.1 22.6
-1 15 15 94.89 36.4
15 -1 15 33.1 20.8
-1 15 15 36.7 28.8
15 15 1 76.49 21.7
-15 15 1 37.8 25.9
15 -1 -15 32.6 17.4
15 1 15 40.8 22.2
-1 15 -15 17.8 17.7
1 15 15 2.7 24.8
15 -1 15 36.3 25.9
15 -15 -1 44.5 22.2
15 -15 1 6.2 22
-15 -1 15 44.2 36.9
-15 1 15 32.6 37.6
-1 -15 15 31.4 25.2
1 -15 15 14.4 27.1
15 1 -15 23.2 18.7
-15 15 -1 66.49 28.1
1 15 -15 21.4 15.8
15 15 1 35.1 39.3
15 -1 -15 34.8 16.7
-1 -15 -15 69.09 21.5
-15 -1 -15 19.9 16.9
-15 1 -15 60.69 17.2
-15 15 -1 34.9 18.4
-15 15 1 42.5 18.6
-1 15 -15 28 22.9
1 -15 -15 28.7 18.3
15 -15 -1 23.9 15.4
15 -1 -15 96.79 24.1
15 15 -1 100.99 42.9
-1 -15 15 132.29 55.49
15 15 -1 27.9 18
1 -15 -15 62.29 18.8
15 1 -15 53.69 17.9
15 -15 3 314.57 37.4
15 3 15 286.27 32
15 -15 3 264.87 31.9
-3 15 -15 275.27 32
15 -3 15 246.08 36.8
-3 15 15 266.87 36.6
3 15 15 270.97 33.6
-3 -15 15 132.99 73.79
15 3 -15 282.57 31.6
-3 15 15 307.97 41.1
-3 15 -15 255.07 30.3
3 15 -15 217.68 29.6
15 15 -3 251.27 33.3
15 15 3 216.48 26.4
15 -3 15 188.28 28.4
-3 15 15 210.68 35.2
15 -3 -15 274.67 28.9
-15 3 -15 251.67 29
-15 15 -3 309.87 32.1
-15 15 3 269.77 29.7
-3 -15 -15 235.98 27.4
15 15 -3 237.58 45.2
15 15 3 313.67 46.3
15 3 15 337.07 45.4
-15 -15 3 325.47 42.5
-15 -3 15 324.17 46.9
15 -15 -3 254.17 34.5
-15 15 -3 221.18 33.4
-15 15 3 248.28 32
15 -15 -3 229.78 27.1
15 -15 3 267.17 27.8
15 -3 -15 235.08 32.2
-15 3 15 283.17 50.49
15 -3 15 257.87 57.79
-3 -15 -15 247.28 32.7
3 -15 -15 247.98 31
3 15 -15 282.27 27.9
15 -3 -15 270.97 30.3
15 3 -15 248.08 28.5
-3 -15 15 281.77 35.7
3 -15 -15 251.67 30.7
3 -15 15 291.97 36.5
3 -15 15 254.17 42.7
-15 -3 -15 225.78 23
3 15 15 306.97 42.8
-5 -15 -15 1001.2 49.7
-5 15 -15 997.5 47
15 15 -5 1049.2 47.9
-15 5 15 927.51 62.19
-15 15 5 987.9 47.2
-15 -5 -15 1018.4 46.4
-15 5 -15 999.6 47.6
-15 15 -5 986.4 47.4
5 -15 -15 952.7 50.59
5 -15 -15 1027.3 49.7
15 5 -15 976.5 50.19
-15 15 -5 846.22 65.89
-15 15 5 1043.3 56.79
15 -5 15 927.01 54.39
5 -15 -15 978.5 48.1
15 -15 -5 1018.9 45.9
15 -15 5 992.8 47.7
15 -5 -15 985.2 48.9
15 -5 -15 967.8 47.3
-5 -15 15 1030.5 59.99
15 -15 -5 995.9 48.5
5 -15 15 878.61 69.69
-5 15 15 776.82 68.69
5 15 15 822.42 57.69
15 15 -5 1038.6 70.99
15 15 5 936.01 78.59
15 5 -15 1073.59 46.7
5 -15 15 940.11 68.99
15 -5 15 900.21 88.19
5 15 -15 1078.49 45.6
-15 -15 5 901.51 67.19
-15 -5 15 838.82 75.29
-15 5 15 999.1 82.19
15 5 15 948.41 61.29
-5 15 15 991.1 64.39
15 5 -15 937.01 51.19
-5 15 15 1009.6 70.29
15 15 5 1028.8 53.09
15 -15 5 924.61 56.99
15 -5 15 889.31 51.29
-15 5 15 1025.3 64.09
-5 15 -15 1005.2 47
5 15 -15 917.51 46.3
15 -15 5 908.21 60.19
15 -5 -15 967.5 45.1
5 15 15 996.6 76.69
-5 -15 -15 1029.5 50.99
-15 15 7 508.45 35.8
-7 15 -15 520.05 37.3
-15 7 15 478.45 74.99
7 -15 -15 470.05 36.8
-7 -15 -15 402.96 42.5
7 15 -15 443.66 32.6
15 -15 -7 432.06 49.5
-15 7 15 473.55 50.79
-15 -15 7 374.26 55.39
15 -7 15 523.15 41.8
15 -15 7 442.36 49.2
15 -7 -15 466.65 33.4
-15 7 15 384.26 47.1
-7 15 15 456.55 56.79
7 15 15 438.66 46.2
15 -7 15 324.07 41.2
15 7 15 429.36 52.69
-7 15 15 480.95 54.99
-15 15 -7 493.65 37.8
7 -15 -15 464.55 37.9
15 -15 -7 440.26 34.2
-15 -7 -15 533.65 38.5
7 15 15 478.15 49.2
-15 -7 15 525.95 68.59
-7 15 -15 466.25 33.3
7 15 -15 529.75 35.3
15 7 -15 491.55 39.6
15 15 -7 482.65 35.6
15 -15 7 452.65 36
15 -7 -15 446.46 36.6
15 15 -7 435.36 62.39
15 15 7 471.15 70.19
-15 15 7 522.45 45.4
-7 15 15 468.65 61.69
-7 -15 15 380.16 49.4
15 -15 -7 516.35 34.8
7 -15 -15 515.65 38.2
-7 15 15 546.95 64.69
-7 -15 -15 450.35 41.9
-15 7 -15 467.25 36
7 -15 15 498.45 56.59
15 -15 7 450.25 51.99
15 -7 15 498.35 79.49
15 7 -15 413.56 34.4
-15 15 -7 530.05 61.29
15 -7 -15 513.05 37.5
15 9 -15 70.79 19.5
15 -15 9 67.19 28.2
9 -15 -15 71.49 23.2
9 15 -15 45.4 17.8
15 -9 -15 80.69 18.8
15 -9 -15 70.59 22.6
15 9 -15 81.19 20.1
-15 9 15 98.99 28.6
-15 15 9 98.79 24.4
-9 15 15 105.99 32.5
15 -15 -9 65.29 18.1
-15 9 15 86.99 42.5
15 15 -9 145.19 21.5
-15 15 -9 69.89 23.5
-9 15 -15 99.49 18.3
9 15 -15 79.69 17.5
9 -15 -15 67.39 20.3
15 -15 -9 67.29 20.1
15 -15 9 121.79 25.8
15 -9 -15 85.89 23.3
9 -15 -15 72.39 19
15 15 -9 132.99 33
-15 9 15 52.39 24.9
15 -15 9 122.89 31
15 -9 15 94.09 40.8
15 9 15 101.89 33.6
-9 15 15 154.78 33.5
9 15 15 79.29 36.2
15 -9 15 45.7 23.4
15 -15 -9 103.09 27.7
-9 15 15 81.49 39.2
9 15 15 93.49 31.3
-15 9 -15 69.89 22.9
15 15 9 69.69 37.9
-15 -15 9 64.79 30.7
-15 -9 15 69.99 38.6
15 -9 15 122.79 25.5
-9 -15 15 94.09 31.9
-9 15 -15 83.29 24.4
9 -15 15 92.99 34.4
-9 15 15 83.29 31.5
-11 15 15 4.7 33.8
15 -15 11 9.9 25.9
-15 15 -11 41.9 23.4
-11 15 -15 17.1 23.3
15 -15 11 14.4 30.2
15 -15 -11 27.7 19.3
15 -15 11 -6.3 28.2
11 15 15 3.3 29.9
15 15 11 10.2 34.8
-15 -15 11 4.2 33.8
-15 -11 15 20.2 34.8
11 -15 15 -28.8 29.7
-11 -15 15 54.99 29.6
15 -11 -15 15.9 26.2
11 -15 -15 14 17.1
15 -15 -11 26 16.5
-11 15 -15 38.4 17.4
11 15 -15 40.2 17
15 11 -15 43.6 17.6
15 15 -11 18.6 17.8
15 11 -15 68.49 21.1
-15 11 15 58.99 42.1
-15 11 -15 10.6 22.3
11 -15 -15 1 20.8
15 -11 15 50.99 25.9
15 11 15 21.1 31.7
15 -11 -15 14.4 20.4
15 -11 15 14.4 21.8
-11 15 15 26.6 27.9
15 -11 15 47.3 37.7
15 -15 -11 45.7 27.6
-15 11 15 34.7 25.6
-11 15 15 5.5 24.5
11 15 15 -12.1 35.3
15 -15 11 -9.6 26
-15 15 11 13.9 22.6
11 -15 -15 -15.8 23.3
11 15 -15 64.49 20.2
15 -11 -15 23.1 16.1
-15 13 15 70.99 38.5
13 -15 -15 119.39 19.5
15 -13 -15 127.69 18.8
15 15 -13 61.49 16.6
-13 15 15 68.09 24.8
15 13 15 151.58 36.5
15 15 13 56.89 40
-13 -15 15 109.59 36.2
15 -15 -13 113.69 24.3
-15 13 15 116.29 26.2
-15 15 13 125.09 26.2
-13 15 15 118.59 26.2
15 -13 -15 156.88 32.8
15 -13 15 114.59 29.6
-15 15 -13 125.69 20.2
13 15 15 80.29 29.7
15 13 15 132.99 36.8
-15 -15 13 107.19 39.2
13 -15 -15 128.19 29.6
15 -15 -13 98.79 32.1
15 -15 13 108.19 27.4
13 -15 -15 104.99 23.4
-15 13 -15 112.49 27.1
-15 15 -13 100.99 27.6
-13 15 -15 110.59 26.6
-15 13 -15 137.49 19.7
15 -13 15 134.99 35.2
-13 15 -15 132.59 19.8
13 15 -15 94.79 17.8
15 15 13 115.39 34.4
-15 -13 15 74.09 35.2
15 -15 -13 103.49 17.7
13 15 15 151.78 38.7
15 -15 13 105.39 31.2
15 -13 -15 80.79 24
15 13 -15 128.29 20.8
15 -13 15 88.99 23.9
15 -15 13 191.28 35.6
15 13 -15 91.29 24.7
13 -15 15 71.09 30.5
15 15 -15 240.38 28
15 -15 -15 237.18 30.7
-15 -15 15 222.08 42.7
15 -15 15 253.77 40.7
-15 15 -15 241.78 28.1
15 -15 -15 209.08 27.3
-15 15 -15 195.48 35.3
-15 15 15 278.97 41.7
15 15 15 203.48 34.1
15 -15 15 280.07 39.5
15 15 15 269.77 40.4
16 0 0 1608.04 55.49
0 16 0 1575.44 53.19
0 -16 0 1531.15 54.99
0 0 16 1499.05 77.59
0 0 -16 1571.74 54.59
0 16 2 107.49 12.4
2 16 0 130.09 16.4
0 2 16 93.29 34.7
-2 16 0 106.99 13.2
16 0 -2 137.69 19.8
0 -2 -16 124.19 16.1
-16 0 -2 139.69 17.5
-2 -16 0 147.99 20
2 -16 0 93.39 14.2
2 0 -16 109.89 15.5
2 0 16 128.29 37.5
-16 2 0 132.09 17.6
0 2 -16 116.59 14.6
0 -2 16 141.49 33.4
0 16 -2 148.59 15.5
16 -2 0 102.39 14.6
-2 0 -16 115.19 15.5
0 -16 -2 111.49 14.4
0 -16 2 141.39 21.4
16 2 0 102.99 23.2
-2 0 16 64.19 27.7
2 -16 -2 -3.6 10.4
2 -2 16 -31.6 32.3
2 2 16 -1.2 35.9
16 2 2 -18.5 16.4
-2 -16 -2 -10.4 12.9
-16 2 2 -5.5 11
2 -16 2 -1 12
-2 16 2 -9.7 9.2
16 -2 2 -15.1 11
-2 2 16 35.7 31.8
2 -2 -16 -2.3 9.1
-2 -2 -16 4.7 9.5
-16 2 -2 7.9 10.3
2 2 -16 12.4 8.6
-2 16 -2 -10.4 9.7
-2 -2 16 -12.9 26.2
-2 2 -16 3.2 8.8
0 4 -16 280.37 19.4
-4 0 16 330.17 39.2
0 -16 -4 317.77 22.9
-16 4 0 285.87 20.8
4 -16 0 335.57 22
-4 16 0 278.77 20.2
16 -4 0 263.67 21.1
-4 0 -16 294.67 19.9
0 -16 4 287.17 25.7
0 16 -4 249.68 19.4
-16 0 -4 287.27 21.9
4 0 -16 279.77 18.7
0 4 16 225.38 40.9
0 -4 -16 286.27 20.3
16 0 -4 283.27 23.5
0 -4 16 303.97 49
-4 16 2 675.63 30.6
2 -16 -4 696.73 31.8
-16 2 4 712.23 32.2
-2 16 -4 682.73 30.2
2 4 -16 696.43 29.3
-2 4 16 672.53 62.09
4 2 16 779.32 86.39
-16 4 -2 702.03 30.9
-2 -4 -16 678.23 30.3
2 -4 16 623.64 60.89
16 -2 4 683.23 32.7
4 -2 -16 697.73 30.7
-16 -2 -4 675.23 31.6
4 -16 2 705.63 32.5
16 -4 -2 655.03 30.6
-4 -2 16 692.43 54.49
-4 2 -16 676.03 29.9
-2 -16 -4 660.73 32.2
-16 4 2 679.73 31
4 2 -16 696.93 30.1
2 -16 4 617.84 31.8
2 4 16 695.33 70.29
16 2 4 645.74 37.4
16 -2 -4 564.84 30.4
-16 2 -4 631.84 30.1
4 -16 -2 692.83 31.7
-2 -4 16 750.62 52.29
4 -2 16 492.45 70.89
-4 16 -2 706.43 30.8
-4 2 16 698.13 59.19
-2 4 -16 659.13 29.4
16 -4 2 673.13 31.1
2 -4 -16 712.23 30.7
-2 16 4 685.13 29.8
-4 -2 -16 650.23 29.8
4 -4 16 1540.55 86.39
-4 16 -4 1519.45 53.69
-4 4 16 1461.95 77.29
-4 16 4 1521.05 53.69
-4 -4 -16 1464.35 53.39
4 4 16 1484.85 93.09
4 -16 4 1478.65 54.79
16 -4 -4 1518.35 53.69
4 -16 -4 1516.65 55.29
-16 4 4 1450.75 54.49
-4 4 -16 1451.85 52.79
-16 4 -4 1561.14 54.29
4 4 -16 1546.05 53.89
-4 -4 16 1396.06 70.59
16 -4 4 1501.55 55.79
16 4 -4 1486.75 58.79
-4 4 -16 1549.14 53.09
4 -4 -16 1565.54 54.89
0 6 -16 335.67 21.1
-6 0 -16 253.77 21.6
0 -6 16 348.27 48.4
16 -6 0 351.86 23.2
-16 0 -6 327.97 22.1
-6 16 0 334.27 21.9
16 0 -6 313.87 20.4
0 -6 -16 344.37 22.9
16 0 -6 316.17 25.8
16 0 6 315.67 29.7
6 0 -16 364.96 22.1
0 -16 -6 318.27 24.5
6 -16 0 327.07 22.9
-16 6 0 357.66 22.9
0 16 -6 354.36 22.7
-6 0 16 364.96 49
0 6 16 245.28 38.9
0 -16 6 352.56 31.6
-6 -2 16 726.63 56.39
-2 6 16 760.32 62.19
16 -2 6 791.82 37.4
6 -2 -16 738.73 32.5
-6 16 2 749.73 33.4
-16 6 -2 795.72 33.8
2 -6 16 730.63 56.79
2 -16 -6 804.62 34.9
16 2 -6 770.72 31.1
16 -6 -2 739.33 33.1
2 6 -16 746.63 31.9
-16 -2 -6 711.13 33.3
-2 -6 -16 756.92 33.3
-16 2 6 731.13 34.2
6 -16 2 780.72 35.3
-2 16 -6 765.32 32.6
-6 2 -16 631.94 32
-6 -2 -16 741.53 32.9
-2 -16 -6 762.02 35.9
2 -6 -16 744.53 33.6
-2 6 -16 751.02 32.2
-16 2 -6 729.33 32.9
-2 -6 16 751.32 53.79
-6 16 -2 780.42 33.9
-16 6 2 751.02 33.9
2 6 16 732.53 64.99
-2 6 -16 752.02 31.2
-6 2 16 678.63 59.59
16 -2 -6 710.53 30.6
6 -16 -2 744.23 34.1
16 -6 2 751.42 33.9
6 2 -16 777.12 33.1
2 -16 6 770.32 37.3
6 -4 -16 2010.6 69.59
6 16 -4 1891.61 84.09
6 -16 4 2052.99 70.69
-16 6 -4 2077.09 70.69
16 4 -6 2036.4 66.79
-4 6 16 2145.39 92.49
-6 4 -16 2023.9 68.89
-4 16 -6 2042.8 68.69
-4 -6 -16 1985.2 68.69
16 -4 6 2027.3 71.79
16 -6 -4 2055.79 69.29
6 16 -4 1997.2 79.89
-6 16 4 2056.09 69.89
6 4 16 1802.52 90.09
4 16 6 1988.6 87.89
-6 -4 16 1852.71 84.89
-16 4 6 2006 69.59
4 -16 -6 2048.3 70.59
4 6 -16 2052.49 68.79
-6 4 -16 1989.5 67.89
16 -6 -4 1860.81 72.29
6 -16 4 2083.89 108.89
6 4 16 2099.89 113.49
16 -4 6 1959.2 75.49
4 -6 16 1946.21 93.29
-16 -4 -6 2098.79 69.09
4 -6 16 1947.01 102.79
-6 16 4 2059.19 85.99
16 -6 4 1907.61 75.09
6 -16 -4 2104.09 70.69
16 -6 4 2017.1 70.49
4 -6 -16 1982.1 69.79
4 6 16 2032.1 101.99
16 -4 -6 1862.41 72.89
16 6 -4 1838.32 74.79
-6 4 16 2023 90.89
-6 16 -4 2074.19 70.09
-4 -6 16 2111.59 84.49
-4 6 -16 2068.19 68.19
-16 6 4 2047.8 70.49
4 -16 6 2031.2 71.39
-4 -16 -6 1963.1 70.39
16 -4 -6 2081.39 69.49
-6 -4 -16 2068.69 68.69
4 16 -6 1948.91 83.79
4 6 16 1921.01 91.69
-4 6 -16 2047 68.69
6 -4 16 1893.01 99.79
16 -4 -6 1975.7 66.89
6 4 -16 2041.8 69.09
6 16 4 2030.1 104.39
16 6 -4 1979.9 66.29
-4 16 6 2051.69 69.29
-16 4 -6 2050.39 69.79
-6 16 -6 2404.16 88.79
-6 16 6 2488.15 96.99
6 6 16 2663.13 120.29
-6 6 16 2568.54 106.49
6 -16 6 2593.84 86.79
6 -16 -6 2541.15 85.89
16 -6 -6 2390.56 85.79
6 16 -6 2485.55 95.99
-16 6 -6 2625.14 85.59
6 16 -6 2502.65 98.59
-6 6 -16 2616.34 84.69
6 6 -16 2505.75 84.19
6 6 16 2568.74 139.89
6 -16 6 2487.95 96.59
-6 -6 16 2589.04 98.39
-6 16 -6 2627.44 85.19
6 16 -6 2453.65 88.89
16 -6 -6 2651.93 85.09
-6 -6 -16 2515.55 84.19
-6 6 -16 2417.96 82.89
6 -6 16 2637.84 114.19
-6 16 6 2518.55 84.99
16 -6 6 2453.65 90.39
-16 6 6 2536.95 85.49
6 -6 -16 2687.63 86.09
6 6 16 2377.56 105.79
-6 6 16 2346.17 108.19
6 6 16 2430.16 104.49
6 16 6 2502.45 100.29
16 -6 -6 2490.05 87.69
16 6 -6 2415.36 89.59
16 -6 6 2599.34 86.99
16 6 -6 2549.84 81.99
0 8 16 85.29 37.7
0 -16 8 5.8 23.8
16 -8 0 35.6 12.4
16 0 8 46.9 24.5
0 -16 -8 27.4 14.6
8 0 16 69.69 52.39
8 16 0 -11.5 28.2
8 16 0 28 25.2
-16 8 0 8.3 44.2
-16 8 0 19.2 12.2
16 -8 0 30.5 16.5
-16 0 -8 22.9 11.8
0 8 16 68.69 33
0 8 -16 57.19 12.3
16 0 -8 15.8 11
-8 0 -16 38.2 10.4
0 -8 16 60.19 26.1
8 0 -16 33.1 12
0 16 -8 18 17.6
0 -8 -16 33.8 12.2
0 8 16 17.6 35.4
0 16 -8 51.89 14.3
8 -16 0 12.7 11.9
-8 16 0 47.7 26.3
8 0 16 18.9 32
-8 0 16 5.4 26.9
-8 16 0 34.4 12.7
0 16 -8 86.09 29.2
0 16 8 3.9 36.7
0 8 -16 23.3 10.5
16 8 0 14.7 18.3
-8 2 -16 60.69 12.7
16 2 -8 68.19 11.8
8 -16 2 46.3 13.8
-8 16 2 58.69 25.4
8 2 16 102.19 32.2
-16 8 -2 41 13.2
-2 8 16 30 29.5
-16 -2 -8 41.9 13.6
16 8 2 24.9 18.1
16 -8 -2 46.4 16.6
-2 8 16 34.5 36.9
16 -2 8 51.79 24
-2 8 16 86.79 37.8
2 -16 -8 55.19 15.2
-8 -2 16 51.29 27.5
8 2 16 -3.5 54.29
-2 16 -8 64.29 13.1
8 -2 -16 77.79 14
-8 16 2 29.4 11.7
2 -8 16 119.39 32.6
16 -8 -2 33.6 12.3
-2 16 -8 51.49 19.4
2 8 -16 52.49 11.8
2 -8 16 23.3 44.1
2 8 -16 57.99 11.1
2 16 8 69.89 34.5
16 -2 8 51.39 18
8 16 -2 49.7 21.6
8 16 -2 32 31.9
-2 -8 -16 47.3 12.7
8 -2 16 27 48.4
-2 8 -16 57.39 12.8
8 -16 -2 65.39 14.3
-16 8 2 69.39 29.2
2 8 16 60.99 34.9
8 2 -16 42.2 11.3
8 16 2 46 32.2
-8 16 -2 53.69 13.5
-2 -16 -8 44.7 16.8
-16 8 2 43.5 13.1
8 16 2 58.59 25.8
2 16 -8 79.49 25.9
2 16 -8 76.79 19.3
16 8 -2 39.4 20.3
2 -16 8 27.8 19.6
16 -2 -8 54.09 12.5
-2 -8 16 96.69 28.9
16 -8 2 40 13.4
-2 16 8 61.09 39.5
16 -8 2 51.29 18.4
-16 2 -8 47.7 13.7
-8 16 -2 60.79 26.7
2 8 16 47 34.4
8 -2 16 49 32.7
16 2 8 5.8 23.8
-8 2 16 26.6 31.5
-2 8 -16 54.49 11.7
2 -8 -16 54.49 12.8
2 8 16 78.69 32.7
2 8 16 97.89 53.19
16 -2 -8 37.7 13.7
16 -2 -8 36.7 18.9
4 8 -16 717.43 32.6
-4 -8 -16 764.62 34.9
8 16 -4 718.93 53.89
4 -8 16 751.22 64.39
16 -8 -4 729.93 33.6
16 -4 8 729.23 45.2
-4 8 16 654.93 68.09
-4 8 16 693.83 61.79
-4 8 16 736.93 59.79
8 16 -4 607.14 40.6
-16 4 8 712.73 35
-4 16 -8 721.73 33.9
-16 8 -4 733.13 35.3
8 4 16 736.03 61.89
-8 16 4 617.24 50.49
-4 16 -8 681.83 39.6
8 -4 -16 723.33 34
8 4 16 779.12 108.59
-8 4 -16 779.82 33.5
8 -16 4 748.93 35.3
16 -8 -4 600.34 36.5
4 8 -16 716.83 30.5
-16 -4 -8 695.93 33.6
-8 -4 16 686.43 56.59
-8 16 4 714.93 34
4 -8 16 604.94 73.29
16 4 -8 711.93 31.3
8 16 -4 615.54 46.2
4 16 8 700.93 58.29
16 -4 8 726.63 38.4
4 -16 -8 703.43 35.2
8 -16 4 755.72 51.09
16 4 -8 740.03 46.1
4 8 16 717.03 59.19
8 4 -16 726.83 32.5
-16 8 4 717.83 50.39
-16 8 4 726.93 35.2
8 -4 16 658.73 76.19
4 16 -8 729.53 55.19
16 -4 -8 712.63 34.3
16 -4 -8 664.43 38.4
-4 8 -16 699.83 32.9
-16 4 -8 678.73 33.3
-4 -8 16 766.82 52.19
4 -16 8 755.42 38.9
16 4 8 652.43 51.59
-4 8 -16 754.42 32.4
4 8 16 612.44 92.59
4 -8 -16 732.03 34.7
8 16 4 677.23 49.6
4 16 -8 668.93 38.9
16 8 -4 691.53 41.1
-4 -16 -8 660.83 37.6
8 -4 16 635.04 60.19
-4 16 8 816.82 73.09
16 -8 4 692.33 33.9
4 8 16 620.84 63.69
-8 16 -4 708.33 58.79
16 -4 -8 678.83 32.4
16 -8 4 713.33 43
-8 4 16 820.02 60.59
4 -16 8 676.73 55.39
-8 -4 -16 721.03 35.4
8 -16 -4 720.23 34.5
-8 4 16 537.65 65.49
4 16 -8 702.33 50.39
4 8 16 678.63 70.79
-8 16 -4 779.22 34.5
-4 8 -16 794.82 55.59
8 16 4 739.43 58.39
-4 16 8 631.04 56.89
-16 -4 8 630.04 83.19
8 -16 6 1040.8 60.59
16 6 -8 1234.08 45.6
-8 -6 16 1236.08 65.49
16 -6 8 1260.27 52.19
-8 16 6 1276.17 49
16 -8 -6 1237.38 47.8
8 -6 -16 1244.38 48.1
-8 16 6 1167.08 72.89
6 8 -16 1201.88 58.59
16 6 -8 1200.18 55.19
-8 6 -16 1208.18 46.9
6 16 8 1178.88 66.79
-16 8 -6 1305.67 49.5
-6 16 -8 1025 73.69
-6 8 16 1284.67 72.79
-6 -8 -16 1203.38 47.8
8 6 16 1043.9 66.69
8 16 -6 1110.69 57.39
8 -6 -16 1217.98 51.09
-6 8 16 1161.88 73.69
-8 16 6 1045.5 60.79
-16 6 8 1258.57 48
-6 16 -8 1170.28 50.89
8 16 -6 1199.58 52.39
8 6 16 1262.37 122.79
-6 8 16 1236.98 80.99
6 -16 -8 1236.68 49.6
8 6 16 1226.38 78.19
-6 16 -8 1231.18 48
6 -8 16 1146.99 80.09
8 16 -6 1307.67 65.19
16 -6 8 1011.2 54.59
6 8 -16 1211.78 46.4
16 -8 -6 1021.9 48.6
8 -16 6 1210.48 49.9
6 16 -8 1207.28 61.79
6 16 -8 1157.18 51.69
-16 8 6 1194.28 48.4
-16 6 -8 1213.08 48.5
-8 6 16 1179.98 73.29
-6 -8 16 1297.17 65.59
6 8 16 1163.58 68.49
16 -6 -8 1220.48 47.3
8 -16 -6 1253.97 49.5
-6 16 8 1190.18 78.19
-8 16 -6 1219.98 48.3
6 16 -8 1151.38 60.79
16 -8 6 1191.78 55.39
-6 8 -16 1160.08 54.59
-16 -6 8 1100.89 84.39
16 8 -6 1205.58 44.9
6 -8 -16 1182.38 51.59
-6 8 -16 1225.28 46.9
8 6 -16 1180.08 46.1
16 -6 -8 1094.19 49.3
6 -16 8 1088.69 62.39
-6 16 8 1152.38 87.69
16 6 8 1091.19 68.49
6 -8 -16 1180.08 48.1
-6 8 -16 1179.28 46.7
-8 6 16 1239.48 74.69
-8 16 -6 1137.29 51.89
16 -8 6 1231.98 50.29
-16 8 6 1144.59 59.59
8 16 6 1045.6 62.09
6 -16 8 1213.98 51.09
8 -6 16 1288.87 82.89
16 -6 -8 1284.27 46.4
6 8 16 1235.28 89.09
-8 -6 -16 1181.18 47.4
6 8 16 1275.97 72.09
6 8 16 1096.49 108.99
-6 16 8 1210.78 63.19
-8 16 -6 1191.38 72.39
8 16 6 1173.28 65.79
16 8 -6 1010.7 51.59
8 -6 16 1114.39 74.89
8 16 -8 219.78 31.5
-16 8 8 266.37 41.3
-8 -8 16 285.57 35.4
-8 16 8 228.98 33.8
8 -16 -8 267.87 26.4
16 -8 -8 278.17 27.4
-8 8 -16 269.57 26.6
-8 16 8 277.67 24.5
16 -8 -8 288.47 26.2
16 -8 8 291.37 29.4
-16 8 8 271.67 24.7
-8 8 16 225.78 36.2
8 -8 -16 283.47 25.8
8 8 16 249.88 63.09
8 16 8 217.48 31.1
-16 -8 8 271.97 45.8
8 8 16 268.77 35.5
8 8 -16 286.07 30
-8 8 16 326.97 49
-8 8 16 337.67 44.5
8 -16 8 298.77 42.2
-8 16 -8 306.97 25.8
16 8 8 309.67 43.4
8 16 -8 262.57 30.2
-8 8 -16 257.37 23
8 8 16 248.88 36.2
8 -8 16 247.58 42.6
-8 16 -8 267.97 29
-8 16 -8 291.27 39.3
16 -8 -8 256.97 26.6
16 8 -8 302.07 34
8 -8 16 269.57 42.8
8 -16 8 286.17 30.2
16 8 -8 290.47 23.9
-16 8 -8 312.47 26.9
-8 -8 -16 237.98 29.6
16 -8 8 275.67 36.8
16 -8 8 335.27 50.49
8 -8 -16 302.27 30
8 8 -16 298.77 23.5
-8 16 8 225.88 30
8 16 8 268.27 34.4
0 10 -16 203.08 21.3
-16 10 0 227.28 23.4
-10 0 16 173.08 32.7
-16 0 10 176.48 51.69
0 -10 16 162.08 29.8
10 0 -16 193.58 21.4
16 -10 0 180.18 22.6
16 10 0 142.19 21.5
0 16 -10 167.88 21.6
0 10 16 164.98 32.6
10 0 -16 216.58 27.6
16 0 -10 148.19 21
10 16 0 173.38 25.4
0 10 16 188.28 39.8
10 -16 0 211.58 22.8
0 16 -10 196.08 35.8
10 16 0 124.99 22
-10 16 0 188.78 30.4
16 0 10 157.78 25.4
16 0 10 133.59 26.6
0 -10 -16 176.98 22.7
-10 0 -16 170.48 18.5
0 10 -16 185.38 20.4
0 16 -10 200.18 31.7
10 0 16 214.98 34.2
10 0 16 250.27 57.69
0 10 -16 177.18 25.1
-16 0 -10 155.08 16.2
0 -16 -10 134.69 18.9
-10 16 0 201.08 23.6
-16 10 0 200.88 33
0 16 10 163.88 51.49
16 -10 0 171.58 21.4
0 16 10 156.08 33.1
16 0 -10 163.38 19.9
10 16 0 200.18 36.4
0 -16 10 167.28 43.8
0 10 16 172.68 36
0 -10 16 154.78 53.69
2 16 10 13.1 26.1
-2 10 16 64.19 33.1
16 2 -10 1.4 23.6
-10 -2 16 35.3 30
2 10 -16 35 12.8
16 -10 -2 35.6 16.8
2 16 10 70.69 50.29
10 2 16 143.59 60.19
10 -2 -16 35.6 13.3
-16 -2 -10 47.6 14.4
2 -10 16 137.19 44.4
-2 16 -10 11.7 30.5
2 10 -16 36.9 13
16 -2 10 35.1 21.5
16 -2 10 47.7 21.4
16 2 -10 33.3 20.6
10 -2 -16 45.2 17.2
-16 10 -2 25.8 13.6
10 16 -2 42.6 30.2
2 -10 16 41.6 29.9
-10 16 2 28.7 13.3
-16 10 -2 66.59 30.7
-2 10 16 38 30.5
10 2 16 -0.5 25.6
10 16 -2 43.1 21
16 10 2 34.4 20
16 2 -10 42.9 12.9
-2 -10 -16 51.29 14.7
-2 16 -10 10.9 16.1
2 10 -16 22.7 20.9
16 -10 -2 23 13.1
-2 16 -10 30.2 15
10 -16 2 16.2 14.7
-2 16 -10 125.89 62.49
-10 2 -16 35.9 12.1
-10 16 2 46.1 26
10 16 -2 51.79 20.9
-2 10 16 28.7 30.3
2 -16 -10 38.6 17
-16 2 10 79.59 51.99
2 16 -10 50.99 25.4
-10 16 -2 20.5 28.6
16 10 -2 28.3 17.4
-16 10 2 22.3 14.2
2 -10 -16 19.9 13.9
-16 -2 10 50.49 44.6
-2 -10 16 57.89 25.7
16 -10 2 41.9 14.6
-10 2 16 76.79 37.9
-16 2 -10 12.3 14.3
-16 10 2 22.6 26.3
2 16 -10 48.7 16.2
2 10 16 -13.2 31.9
-2 -16 -10 17.9 16.7
10 2 -16 42.4 13.8
-10 2 16 57.09 34
-2 10 -16 50.69 14.4
-2 -10 16 143.69 63.09
-10 16 -2 60.39 14.8
10 2 -16 40 18
16 -10 2 61.99 20.9
-2 10 -16 13.6 21
-2 16 10 -22.2 34.3
-2 16 10 -19 33.4
16 -2 -10 40 13.4
2 16 -10 37.2 31.8
10 -2 16 -1.6 48.7
16 -2 -10 27.4 17
16 -2 -10 14.7 15.7
2 -16 10 52.39 24.4
2 -16 10 42.6 33.8
2 10 16 63.79 32.1
10 -16 -2 19.4 13.2
16 -10 2 -63.59 46.5
-2 16 10 18.9 41.7
16 2 10 37.6 23.8
-2 10 -16 26.1 12.4
10 16 2 40 21.2
2 10 16 -31.7 26.4
10 16 2 25.6 32.7
16 2 10 17 23
-10 -2 -16 31 12.7
10 -2 16 40.8 29.4
-16 10 -4 179.68 38.9
10 -4 -16 153.08 21.1
16 4 -10 145.69 26.5
4 -10 16 165.28 40.1
10 4 16 268.87 68.59
-16 10 -4 149.19 18.9
-4 10 16 90.39 33.2
-4 16 -10 184.78 35.2
-10 16 4 185.68 22.3
16 4 -10 144.89 24.7
4 -10 16 165.68 37.4
-16 -4 -10 197.88 23.6
16 4 -10 163.48 21.5
16 -4 10 162.88 25
10 16 -4 113.29 19.9
4 16 10 117.79 32.6
10 4 16 131.79 31.1
-10 -4 16 178.38 37.1
-10 4 -16 157.58 21.1
10 -16 4 166.58 28.5
10 -4 -16 132.39 20.4
16 -10 -4 129.69 17.2
4 -16 -10 180.98 21.3
4 16 10 137.49 51.39
10 4 16 106.69 48.1
-4 16 -10 135.59 17.5
10 16 -4 123.59 32.1
4 10 -16 149.49 20.4
-10 16 4 148.99 29.8
4 10 -16 168.88 24.1
-4 -10 -16 161.88 19.2
16 -10 -4 155.08 20.1
-4 16 -10 215.88 39.1
-4 10 16 149.09 34
16 -4 10 137.39 23.2
-16 4 10 167.08 52.29
-4 16 -10 159.58 20.1
16 10 4 181.58 24.1
-4 10 16 107.69 34.8
10 -16 4 179.08 24.2
-10 4 16 128.59 35.7
10 16 4 107.29 32.9
16 10 -4 139.69 20.6
-4 10 -16 168.88 23.1
10 -16 -4 128.19 18.2
4 16 -10 119.99 25.4
-16 10 4 119.99 27.5
10 -4 16 138.09 25.8
10 4 -16 152.18 20.6
16 4 10 189.38 28.8
4 10 16 189.28 32.7
-10 4 16 119.09 35
16 -4 -10 141.29 17.1
4 16 -10 165.88 20.8
-4 -16 -10 148.39 21.9
-10 16 -4 177.18 21.9
10 -4 16 144.29 31.8
16 -10 4 159.48 23.7
4 -10 -16 191.78 27.4
4 10 16 125.49 36.3
-4 10 -16 153.08 16.9
-4 16 10 212.88 35.2
4 10 16 204.78 40.8
16 4 10 168.18 29.2
16 -10 4 148.59 22.1
-4 16 10 231.98 41.6
10 16 4 204.58 27.4
16 -10 4 173.38 39.1
4 -10 -16 135.39 17.8
4 -16 10 142.89 25.4
-4 10 -16 182.38 22.7
-4 -10 16 197.48 32.7
-16 4 -10 138.39 18.9
-16 10 4 178.18 20
4 -16 10 129.49 32.6
-16 -4 10 181.98 44.6
-4 16 10 220.88 42.4
16 -4 -10 166.18 24.4
16 -4 -10 182.48 26.3
4 16 -10 165.58 32.5
10 -4 16 171.68 42.9
-10 16 -4 158.58 33.7
6 -10 16 281.27 40.8
10 -16 6 248.38 31.9
10 -6 -16 300.57 26.4
10 -16 6 299.87 29.1
6 16 10 298.77 59.09
10 -6 -16 273.27 30.3
16 6 -10 255.67 35
-10 -6 16 349.17 51.99
16 6 -10 285.57 24.6
-6 10 16 297.17 44
-16 10 -6 377.66 49
6 10 -16 304.97 23.8
6 10 -16 268.97 34.7
-6 10 16 230.38 41.6
16 -10 -6 317.37 26.2
-6 16 -10 404.76 46.4
-6 16 -10 243.98 26.2
-6 16 -10 279.77 29.1
-6 10 16 261.47 40.6
10 6 16 325.37 73.79
-10 16 6 237.58 27
6 -16 -10 264.57 28.1
-16 -6 -10 308.47 28.4
10 6 16 291.97 36.8
-16 6 10 398.76 59.59
10 16 -6 318.27 30.4
-10 6 -16 296.77 25.9
10 16 -6 258.67 33.5
16 -6 10 292.87 36.9
6 16 10 270.67 35.8
16 -6 10 241.08 33.3
-10 16 6 328.17 43.4
-16 -10 6 302.07 47.4
-16 10 -6 262.97 26.1
16 -6 10 334.47 52.79
10 6 16 326.37 44.4
-16 6 10 284.57 33.1
16 -10 -6 236.38 29
-6 -10 -16 283.97 28.6
-10 6 16 220.38 39.1
-6 16 10 255.17 37.8
10 16 6 236.38 30.5
6 -16 10 212.68 31.5
-10 16 -6 324.57 40
10 6 -16 279.27 24
6 -10 -16 308.27 30.5
16 -10 6 407.96 64.99
6 -16 10 259.27 35.7
-6 16 10 298.17 35.2
-10 6 16 210.28 34.9
6 10 16 350.56 50.19
16 -6 -10 299.37 27.5
-6 -10 16 253.87 33.4
-16 10 6 294.37 27.4
6 16 -10 318.47 30.6
10 16 6 213.88 32.3
-6 10 -16 280.07 35.4
-16 10 6 271.07 31.7
16 -10 6 290.07 29
16 10 -6 222.38 31.8
16 -6 -10 303.77 29.2
10 -6 16 303.17 38.7
10 -6 16 301.07 43
10 6 -16 354.66 49.1
-16 -6 10 238.78 44
16 6 10 334.57 39.8
-6 16 10 148.39 42.9
16 -10 6 307.07 37.2
6 10 16 279.87 40
-10 16 -6 291.67 27
-6 -16 -10 269.27 35.5
6 -10 -16 264.57 27.3
10 -16 -6 315.57 26.3
16 -6 -10 316.57 26.9
6 10 16 262.27 43.2
6 16 -10 283.67 41.2
-16 6 -10 285.17 25.2
16 6 10 239.38 34
10 -6 16 213.58 32
-6 10 -16 292.07 23.8
-6 10 -16 242.18 28.2
10 -8 -16 4.7 15.9
-16 8 10 1 23.6
16 -10 -8 16.6 14.8
-10 16 8 55.09 29
-8 10 16 -24.9 29.3
16 10 8 35.5 43.7
10 -16 8 -23.6 22.8
10 8 16 55.39 62.69
-16 8 10 27.9 50.99
-10 16 8 -3.1 15.1
8 -10 16 21.7 35.8
-8 16 -10 15.2 15.3
16 -8 10 -27.7 19.8
10 8 16 1.8 33.7
-10 16 8 5.9 24.9
8 10 -16 15.5 19.2
10 16 -8 29.4 25.7
10 8 16 42.3 30
-8 16 -10 21.2 15.9
-16 -10 8 -19.4 40.1
-10 -8 16 40.5 27.7
8 -16 -10 3.6 17.7
10 -8 -16 1.8 15.9
16 8 -10 -6.3 17.6
-16 10 -8 6.8 15.6
16 8 -10 10.8 14.5
-10 8 -16 -13 14.1
-8 10 16 38 41.1
10 16 -8 18.5 15.8
16 -8 10 4.6 18.5
-8 -16 10 9.5 23.5
-8 10 16 -26.4 35.7
8 -16 -10 -8.1 14.6
16 -10 -8 8.2 17.5
8 16 10 -5.4 28.8
10 -16 8 23.8 16.9
8 10 -16 26.3 13.8
16 -8 10 69.09 41.4
16 -10 -8 -24.7 14.8
-8 -10 -16 -19.4 18.4
10 -16 -8 11 14.6
-16 -8 10 13 35.8
16 -8 -10 20.3 15.6
-10 8 16 -20.9 35
8 -10 -16 -6.1 15.9
16 -10 8 3.6 37.1
-8 10 -16 -9.1 14.1
10 -16 -8 -17.8 22.6
8 16 -10 28.5 17
8 16 -10 4.5 21.4
16 -8 -10 30.9 17
-10 8 16 46 44.6
-10 8 16 7.9 28.3
8 -10 -16 -11.7 14.8
8 10 16 1.9 29.9
10 -8 16 7.5 32.9
-16 8 -10 -0.5 15.5
16 8 10 10.8 33.3
-8 16 10 7.8 26.8
-10 16 -8 3 15.9
8 -16 10 2.2 21
-8 10 -16 -27.3 17.2
10 8 -16 8.4 14
16 -10 8 19.6 22.2
10 -8 16 13 23.8
16 -8 -10 -7 15.3
10 -16 -8 16.2 18
8 10 16 38.5 31.2
-8 -10 16 16.8 26.1
8 -16 10 27.7 26.5
10 -8 16 -34.6 36.7
16 -10 8 9.6 15.8
-16 10 8 28.1 16
16 10 -8 -0.5 15
10 8 -16 31.4 21.7
-10 16 -8 22.5 16.6
-10 16 -8 -9.6 33.9
-16 10 8 28 25
-8 16 10 29.7 46.1
10 16 8 35.5 27
16 10 -8 -8.3 17.3
-8 16 10 -21.1 29.2
16 -10 -10 187.78 27.1
16 -10 -10 172.78 23
-10 16 10 161.38 29.9
-10 10 16 184.38 35.1
10 10 16 191.48 36.4
10 -10 -16 161.98 21.5
-10 16 -10 200.68 23.7
10 -16 -10 195.48 25.9
16 -10 10 220.38 27.1
-10 10 16 189.88 43.7
10 -16 10 199.68 32.8
-10 16 10 109.79 26.2
10 16 -10 224.58 28.8
16 -10 10 185.18 37.2
-10 -10 16 245.98 38.3
10 -10 16 180.18 35.6
-10 16 -10 200.58 28.4
10 -16 -10 247.08 26.6
-10 10 -16 159.78 21.9
16 10 -10 153.38 21.5
-10 10 -16 212.78 30.6
-10 10 16 198.68 49.5
16 -10 10 190.78 27.6
16 -10 -10 218.28 27
10 16 -10 186.88 29.5
10 -10 16 212.08 38.4
10 10 -16 201.98 24.9
10 -10 -16 237.58 29.5
-16 10 -10 210.28 27.3
10 -16 -10 169.48 25.9
10 -16 10 160.38 24.4
-16 -10 10 191.98 42.4
16 10 10 197.28 42
10 10 16 214.18 37.6
-10 -16 10 196.18 32.1
-16 10 10 207.18 28.3
10 10 -16 182.18 24.2
16 10 -10 138.19 19.2
-16 10 10 144.59 49.8
10 16 10 193.98 34
12 -16 0 186.48 32.5
16 -12 0 233.98 25.7
0 12 -16 229.28 26.1
-16 12 0 191.28 31.7
12 0 -16 217.78 24.2
0 16 -12 197.28 31.5
0 16 12 205.18 43.8
12 0 16 216.68 32.9
0 -12 -16 250.27 27.7
0 12 -16 198.78 24
0 12 -16 220.28 31.9
-12 16 0 256.87 27.2
0 16 -12 199.88 28.1
16 0 -12 174.78 22.6
-12 16 0 208.28 32.2
16 0 -12 261.27 25.6
0 16 -12 232.38 50.29
0 -16 12 301.67 33.7
-16 12 0 219.18 25.7
12 0 -16 231.78 30.8
16 -12 0 248.58 38.5
0 12 16 195.58 31.9
0 12 16 204.48 36.1
0 12 16 218.38 39.7
12 0 16 223.08 57.49
-12 0 -16 202.78 23.2
0 -12 16 294.37 55.89
-16 0 12 146.49 45.4
12 16 0 225.38 25.1
0 -12 16 215.98 30.9
12 -16 0 212.58 24.9
-12 0 16 300.17 44.7
16 12 0 230.98 33.3
12 16 0 389.26 56.39
16 0 12 163.28 25
0 -16 12 273.47 46
0 -16 -12 214.38 28.9
-16 0 -12 183.98 24.9
0 16 12 241.98 35.3
16 -12 0 238.68 32.2
16 0 12 211.38 29
-2 -16 12 -5.2 22.7
-12 -2 16 -9.4 30.2
-2 12 16 46.2 33.3
2 12 -16 32.4 19.5
-2 16 -12 3.9 26.8
16 2 -12 20.7 14.8
16 2 -12 -14.3 19.4
2 16 12 26.5 29.6
2 -12 16 19.7 29.3
2 -16 -12 17.6 16.6
16 -12 -2 5.4 13.4
16 -2 12 -16.5 19.8
-12 16 2 11.6 25.5
-16 12 -2 28.6 30.4
16 -2 12 10.9 20.4
-2 12 16 2.3 29.7
-12 2 -16 19 13.8
12 2 16 27.9 24.6
-2 -16 12 16.9 56.49
-16 12 -2 39 17
12 -16 2 12.7 47.8
-2 12 16 35.5 30.7
-2 -12 -16 25.2 16.1
12 -16 2 1 13.9
12 2 16 23.3 63.59
2 16 12 17.9 38.1
-2 16 -12 -1.7 15.5
16 -12 -2 29.5 17.5
2 -12 16 -22.2 41.9
-16 2 12 -12.5 44.3
16 2 -12 54.19 24.4
12 16 -2 18.5 17.6
12 -2 -16 24.1 18.6
12 16 -2 4.7 32
2 12 -16 12.1 13.6
12 -16 2 37.7 26
-16 -2 -12 -8.5 14.6
12 -2 -16 -1.5 14.4
-2 16 -12 -7.6 16.6
-12 16 2 29.8 15.4
16 -2 -12 16.9 16.3
-2 12 -16 -20.2 17.4
16 2 12 43.3 23.8
-12 2 16 -38 36.4
-16 12 2 16.7 15.4
-2 -16 -12 7.9 18.9
-16 2 -12 18.4 15.1
2 -16 12 29.2 36.7
16 -2 -12 -0.4 17.7
12 -16 -2 -1.7 26
-2 16 12 30.3 37.4
12 16 2 31.6 23.2
12 -16 -2 16.3 14.7
2 12 16 58.69 32.8
12 -2 16 -5.9 19.8
2 -12 -16 6.9 15.8
16 -12 2 25.9 35.1
12 16 2 -52.49 32.3
2 -16 12 -12.3 26.3
-16 12 2 -1.2 24.5
16 -12 2 19 14
16 -12 2 18.2 20.1
12 -2 16 -23.2 23.9
-12 -2 -16 5.9 13.4
2 16 -12 9.4 26.8
2 12 16 8.1 27.5
12 2 -16 35.2 13.8
-16 -2 12 98.19 40.3
-2 -12 16 -9.7 23.5
2 12 16 -1.5 31.2
-2 12 -16 22.9 15.2
-2 -12 16 180.78 64.29
2 16 -12 19 15.2
-12 16 -2 19.1 15
2 16 -12 -4.6 32.5
-2 16 12 23 37.6
16 12 -2 12 16.3
2 -12 -16 32.9 16.7
-12 16 -2 62.79 26.9
16 2 12 28.3 24.2
-2 12 -16 -3.5 14
-2 16 12 -5.6 27.7
16 -2 -12 11.8 14.5
12 -2 16 -5.9 48.9
-12 2 16 10.9 32.2
16 12 4 133.99 21.7
16 -12 -4 154.88 22.9
4 -16 -12 259.37 28.6
12 -16 4 183.38 29.3
16 4 -12 118.29 24.9
4 -12 16 185.88 41.1
-16 4 12 251.77 50.09
12 -4 -16 146.59 21.4
12 16 -4 138.09 34.8
16 4 -12 153.18 18.7
-12 -4 16 188.48 39.1
-16 -4 -12 197.48 21
-12 4 -16 175.88 23
16 -4 12 169.08 25.9
-12 16 4 178.28 20.8
12 16 -4 128.19 20.4
-4 16 -12 155.68 20.5
-4 12 16 170.08 35.8
4 -16 -12 163.18 20.8
-4 12 16 138.19 35.8
-4 12 16 134.89 35.6
12 -16 4 185.88 24.7
12 4 16 162.28 30.3
-4 -16 12 177.58 28.3
12 -4 -16 154.68 19.2
4 16 12 196.38 30.6
4 -12 16 250.97 39.5
16 -4 12 193.18 60.69
16 -12 -4 121.59 19.9
-4 -12 -16 188.88 22.2
4 16 12 149.09 43.3
-16 12 -4 182.78 36.1
4 12 -16 127.49 20.6
4 12 -16 199.18 23.8
-12 16 4 155.98 28.9
-4 16 -12 150.58 20
16 -4 12 177.68 26.9
-16 12 -4 195.88 22.7
12 4 16 370.96 75.09
16 4 -12 203.68 25.3
-4 12 -16 153.88 18.8
16 4 12 148.39 26.5
-4 -12 16 389.16 97.19
16 -12 4 170.78 23.8
16 -4 -12 147.29 19.5
-4 16 12 174.78 38.6
-12 16 -4 162.18 30.1
12 -4 16 199.38 46.5
-16 4 -12 160.68 20.1
4 16 -12 145.09 26.6
-4 12 -16 155.28 21.5
4 -16 12 168.98 31.5
12 -16 -4 234.08 30.4
12 4 -16 221.08 23.3
-4 16 12 200.18 39.4
4 12 16 157.08 36.4
-12 4 16 121.99 40.2
12 16 4 202.38 38.2
16 -4 -12 170.68 21.3
-16 -4 12 193.18 45.8
12 -4 16 187.78 30.8
-4 -16 -12 158.08 25.1
-4 12 -16 222.48 26.3
12 16 4 196.38 31.5
-16 12 4 138.39 27.2
12 -16 -4 206.68 24.4
4 12 16 149.09 35.1
4 -12 -16 130.49 20.6
16 -4 -12 188.28 27.4
4 12 16 165.58 30.3
-12 4 16 207.48 43.8
-12 16 -4 187.48 21.3
4 16 -12 196.08 27.7
4 -16 12 213.98 36.5
-16 12 4 149.79 20.5
16 4 12 143.89 29
-4 -12 16 166.28 29.9
-12 4 16 148.29 34.9
-4 16 12 227.58 38.8
12 -4 16 162.28 24.6
16 -12 4 175.98 24.2
16 12 -4 136.09 19.9
16 -12 4 181.08 34.9
-12 -4 -16 195.98 23.8
4 -12 -16 183.18 22.4
-6 12 16 239.68 40.7
16 -6 12 219.38 28.4
16 -6 12 182.88 51.89
-6 12 16 168.18 39.8
12 -6 -16 251.47 29.7
16 -6 12 210.18 27.4
6 -12 16 149.19 36.6
-16 12 -6 202.58 40.2
12 -6 -16 205.18 27.3
-16 -6 -12 185.48 21.9
16 -12 -6 228.68 28
12 -16 6 188.18 27.8
6 -12 16 261.97 52.29
12 6 16 272.57 47.9
-12 6 -16 197.78 22.5
12 16 -6 276.77 36
6 -16 -12 239.28 28.3
16 6 -12 217.38 26.7
16 -12 -6 194.98 25.6
-6 16 -12 217.18 29.4
12 -16 6 253.67 39.7
-12 16 6 228.78 28.3
6 12 -16 158.28 22.9
12 16 -6 196.98 22.8
-6 -12 -16 202.48 24.4
-16 -12 6 196.28 41.6
-12 -6 16 183.88 36.3
12 6 16 184.58 78.49
6 12 -16 231.48 25
-6 16 -12 194.78 21.9
6 16 12 222.18 49.4
12 -16 6 218.48 29.8
6 -16 -12 243.68 30.6
6 16 12 223.78 35
-6 -16 12 159.28 25.9
-6 12 16 187.38 35.8
16 6 -12 262.27 34.8
-16 12 -6 228.68 27.5
-12 16 6 192.18 27.2
-16 6 12 160.08 27.9
-16 6 12 138.89 52.99
12 6 16 147.79 33.7
-12 16 -6 139.79 33.7
-6 -12 16 225.48 34.1
6 -12 -16 218.68 28
-6 12 -16 192.98 21.5
6 16 -12 227.18 29.7
12 6 -16 226.98 25.3
-6 16 12 173.58 32
12 -6 16 210.78 32.7
-16 12 6 214.58 29.3
12 16 6 233.68 37
6 12 16 175.68 35.6
16 -12 6 246.18 29.4
-6 16 12 230.88 39.4
16 -6 -12 181.78 21.6
-12 6 16 184.88 67.09
-16 12 6 213.98 26.1
-6 -16 -12 274.97 31.8
16 6 12 176.28 31
16 6 12 261.67 35.6
-6 16 12 273.57 41.9
6 16 -12 210.18 30.3
6 -16 12 155.08 31
6 -16 12 191.48 27.7
-12 6 16 205.58 36.3
16 -6 -12 190.68 21.2
-6 12 -16 240.28 30.4
-12 16 -6 212.08 26.8
16 -12 6 287.67 37
-12 6 16 183.38 39.8
-12 6 16 191.88 39.9
16 -12 6 204.18 28.1
6 -16 12 232.88 35.7
-16 -6 12 191.18 44.4
6 12 16 173.98 29.1
12 -16 -6 172.38 23.9
-12 -6 -16 206.08 24.9
12 6 -16 171.68 27.7
12 -6 16 258.57 48
12 -16 -6 208.08 25.7
-16 6 -12 249.68 29.5
16 -6 -12 205.78 28.5
16 12 -6 164.18 21.5
6 -12 -16 219.88 25
12 -16 -6 170.08 24.9
12 -6 16 207.58 27.7
16 -8 12 28.8 37.9
-16 8 12 58.19 49.6
12 -8 -16 5.6 17.1
-8 16 -12 6.8 15.7
16 -8 12 2.4 21.1
8 16 12 21.1 27.1
-12 -8 16 -4.7 30.3
12 -16 8 -14.3 34
-8 12 16 -46.4 39.2
12 8 16 -4.8 68.99
8 -16 -12 3.1 18.5
8 12 -16 22.3 15.8
12 -16 8 14.2 23.6
8 -16 -12 32.8 22.3
12 16 -8 1.7 17.1
8 -12 16 3.4 30.8
-8 16 -12 -14.3 17.7
-8 12 16 -28.4 35.9
12 -16 8 5.9 18.5
8 16 12 -90.59 44.2
-12 16 8 -14.1 18.2
12 -8 -16 6.8 17.3
-12 8 -16 10.9 17.6
16 -12 -8 12.8 15.4
-16 12 -8 12.1 18.8
12 8 16 74.19 42.4
-12 16 8 11.7 23.9
16 -8 12 -1.8 21.5
12 8 16 -27.7 28
12 16 -8 0.5 27.8
12 -8 -16 20.7 18.6
-16 8 12 3.5 25.9
-8 12 16 -22.1 28.4
-8 -12 -16 37.8 23.7
-16 -12 8 35.3 37.2
-8 -16 12 4.8 25.1
16 -8 12 -9.5 20.7
16 8 -12 -2.8 18.6
8 -16 -12 11.6 17.5
16 8 -12 10.1 16.9
16 -12 -8 7.6 15.8
8 12 -16 12.7 18.7
-8 12 -16 4.4 17.3
12 -16 -8 -3.8 20.9
8 -16 12 11.7 22.4
8 12 16 14.9 30.2
16 -8 -12 4.1 18.8
12 -8 16 -3.5 35.7
-16 8 -12 27.8 18.5
16 -12 8 8.6 23.2
8 16 -12 5.9 15.5
12 8 -16 -11.8 14.1
16 -8 -12 -11.3 16.6
16 12 -8 -15.1 17.2
-16 -8 12 8.1 37.2
-12 8 16 13.1 34.5
-12 8 16 -24.9 25.6
-8 12 -16 9.8 17.9
8 -16 12 33.4 28
16 12 -8 46.2 36.7
12 -8 16 0.8 29
8 16 -12 -3.1 22.9
-12 16 -8 6.8 18.6
-8 -12 16 29 28.5
-12 8 16 52.69 38.4
-12 16 -8 -19.9 35.1
8 12 16 -15.4 28.8
8 -12 -16 -27.4 17.4
12 16 8 52.19 29.5
-8 16 12 -19 27
16 8 12 2.7 32.5
12 -16 -8 -18.4 16.1
16 -12 8 14.1 18.7
-16 12 8 2.7 22.8
12 -8 16 18.5 21.2
-8 16 12 25.4 42
12 8 -16 -2.6 19.8
-12 -16 8 29.9 27.7
12 -16 -8 -14.3 20.9
16 -8 -12 -20.7 15.3
-12 -8 -16 -2.4 17.1
16 -12 8 -34.9 31.1
8 -12 -16 0.6 16.7
-16 12 8 -6.6 17.5
-8 16 12 -10.8 29.3
-10 -16 12 56.89 27.2
12 -16 10 59.89 27.8
12 -10 -16 56.09 20.8
16 -10 12 36.7 20.7
12 -16 10 61.69 23.9
10 12 -16 66.69 19.2
-12 16 10 60.79 23.6
16 -12 -10 33.5 15.1
10 12 -16 39.9 16.5
-16 10 12 34 25.6
12 -10 -16 55.49 20.7
-10 16 -12 42.3 16.1
10 16 12 24.7 25.4
-16 -12 10 57.69 37.4
-10 12 16 21.8 33.2
12 16 -10 37.4 16.6
12 10 16 23.9 33.4
-12 10 -16 93.19 20.8
12 -10 -16 66.09 16.5
-12 16 10 65.79 27
16 12 10 61.69 42.5
16 10 -12 53.29 19.7
12 10 16 3.7 29.6
-10 12 16 69.49 46.3
10 -16 -12 50.49 22.3
-16 10 12 73.09 48.3
16 10 -12 40.6 18.4
16 -10 12 43.6 23.7
-10 12 16 5 25.1
16 -10 12 43.6 20.4
10 -16 -12 80.49 21.3
16 -10 12 67.59 35.2
10 -12 16 89.19 34.3
16 -12 -10 42.7 23.7
12 16 -10 45.4 26
10 -16 -12 55.69 19.3
10 16 12 36.9 44.5
16 -12 -10 64.69 19.6
-16 12 -10 35.1 20.7
-10 16 -12 58.09 20.5
12 -16 10 40.2 33.1
-10 12 16 63.59 40.2
-12 -10 16 62.89 31.3
12 -16 -10 75.29 20.8
16 -10 -12 22.6 15.3
-12 10 16 53.09 32.5
-10 12 -16 57.39 17.3
-16 -10 12 31.7 35.5
10 -16 12 29 24.4
-12 16 -10 104.89 22.1
-12 16 -10 53.19 17.3
10 16 -12 -6.3 22.8
12 -16 -10 83.09 20.3
-10 16 12 86.59 28
16 12 -10 48 16.6
-12 -10 -16 73.39 21.4
12 -10 16 37.5 23.1
12 10 -16 31.5 17.1
10 -12 -16 52.49 19.1
-10 -16 -12 83.89 26.9
12 16 10 61.49 29.4
-10 -12 16 59.39 31.2
-12 -16 10 31.1 28.4
16 10 12 37.2 33.4
16 -10 -12 32.6 22
12 -16 -10 80.09 22.7
12 -10 16 110.59 37.7
10 12 16 72.79 33.4
-12 10 16 93.09 42.9
16 -12 10 80.89 25.2
10 -16 12 5 26.4
-10 12 -16 61.29 20.2
10 16 -12 65.39 17.6
16 -10 -12 44.3 18.4
16 -12 10 14.1 20.8
16 -12 10 37.6 32.8
12 10 -16 54.09 20.4
12 -10 16 80.39 30.3
-12 10 16 41.9 26.9
10 -12 -16 49 18
-16 10 -12 8.7 19.7
10 -12 -16 68.59 21.4
10 12 16 91.69 31.1
-10 16 12 33.5 26.3
-16 12 10 74.29 24.7
12 -12 -16 23.7 20.1
-12 12 16 -7.3 23.9
12 -16 -12 13.2 18
12 -16 12 37.7 29.9
12 12 16 17.3 31.3
12 12 -16 27.4 19.6
-12 16 12 4.2 23.1
12 -12 16 13.9 34.9
-16 12 12 -4.1 42.1
16 -12 -12 21.8 16.4
12 -16 -12 24.9 20.1
-12 12 -16 25.1 20.7
-12 12 16 25.8 29
12 -16 12 -16.4 25.4
12 16 12 -57.99 44.9
16 -12 12 22.5 24.3
16 -12 -12 -0.2 19.2
-12 16 -12 -27 21.3
-16 12 12 19.1 22.9
12 -12 -16 -5.3 15.3
-12 16 -12 -7.1 15.7
12 16 -12 -5.1 15.5
16 -12 12 10.3 33.7
16 -12 -12 -4.1 25.4
12 -12 16 63.49 34.8
12 -12 -16 32.8 21.7
16 12 -12 9.6 16.3
12 16 -12 14.9 25
16 -12 12 19.8 24.5
12 -16 12 45.3 31.5
-12 12 16 31.1 37.8
-16 12 -12 33.6 22.4
12 12 16 10.2 31.8
16 12 12 38.8 36.3
-12 -16 12 15.4 28.1
12 -16 -12 -21.8 22.9
16 -12 12 27.7 21.2
16 12 -12 9.2 20
12 12 -16 35.3 18.6
-12 -12 16 -7 32.9
12 16 12 34.6 27.1
-12 16 12 19.2 25.4
-16 -12 12 3.4 37.4
-12 12 -16 12.8 16.4
0 14 16 30.5 29.2
16 -14 0 21.7 30.4
0 -16 14 18.5 45.3
16 -14 0 5 15.7
0 14 -16 27.5 17.8
0 16 14 0.6 29.5
14 0 16 5.9 21.3
14 -16 0 23.5 25.1
14 -16 0 19.2 16.1
16 14 0 16.9 19
-16 0 14 -10.7 41.4
0 16 14 33.1 37.8
-14 0 -16 16.2 15.7
-14 0 16 17 35.3
-16 0 -14 18.8 18.6
16 0 -14 20.7 17.6
16 0 14 17.5 22
0 -16 -14 33.9 19.5
0 14 16 -13.6 28.9
0 -16 14 3.2 25.2
0 -14 16 52.69 27.4
14 0 -16 16.8 15.8
-16 14 0 22.9 17.5
14 16 0 19.4 20.4
-14 16 0 7.4 24.7
0 -14 -16 9.5 17.8
0 -14 -16 29.3 19.2
16 0 14 6 23.7
-14 16 0 36.5 18.6
0 14 16 10.9 25.8
14 -16 0 60.09 26.9
14 0 -16 45.8 32
14 0 16 31.4 62.59
14 0 -16 15.5 16.6
-16 14 0 25.2 25.7
16 -14 0 39.4 21.1
14 0 16 5.7 25.1
0 16 -14 34.4 17.3
0 -16 -14 39.8 19
16 0 -14 32.7 17.2
14 16 0 9.9 35.8
0 -14 16 -7.8 49.5
0 14 -16 28.3 15.9
14 16 -2 104.19 39.6
2 16 14 56.39 28.1
2 16 14 100.09 35.3
16 -14 -2 49.99 17.3
2 14 -16 93.19 18.6
-2 -14 -16 84.39 21.4
-14 16 2 60.49 18.8
14 -16 2 50.39 26.6
14 -16 2 84.59 18.8
16 -14 -2 72.69 18.8
14 2 16 94.09 74.69
14 -16 2 75.69 26.5
14 -2 -16 79.69 19.7
-16 14 -2 106.99 30.3
2 14 -16 86.19 19
2 -16 -14 119.49 21.4
2 -14 16 78.99 29.3
-14 2 -16 86.39 18.6
2 -14 16 34.7 41.3
-2 16 -14 80.69 18
-14 16 2 45.3 23.8
-2 -16 14 76.49 59.39
-2 14 16 60.29 30.9
-2 16 -14 78.69 21.9
14 16 -2 80.99 20.9
-2 14 16 123.09 33.1
-2 -14 -16 91.79 21.5
16 2 -14 80.89 18.9
16 2 -14 120.29 20.5
-2 -16 14 95.39 27.6
16 14 2 58.99 19.6
-2 14 16 56.09 34.1
16 -2 14 53.79 23.3
16 -2 14 87.39 23.7
-16 2 14 30.4 43.7
-14 -2 16 77.29 39.2
14 2 16 50.69 26.5
16 -2 14 51.79 66.59
14 -2 -16 87.59 19.7
14 -2 -16 74.69 20.9
2 -16 -14 87.59 20.3
-16 14 -2 81.49 19.7
-16 -2 -14 88.19 20.1
-2 14 -16 55.69 17.5
2 -14 -16 94.59 20.9
14 -2 16 45 24.2
-14 2 16 36.6 37.3
-16 14 2 65.69 19
16 2 14 121.79 25.9
2 -16 14 61.29 38
14 16 2 110.79 23.8
-2 -16 -14 75.89 20
-16 -2 14 87.39 42
14 2 -16 72.09 20
14 16 2 68.69 37.1
-2 16 14 100.89 37
-2 -14 16 84.79 27.6
14 -16 -2 63.09 16.1
2 16 -14 47.1 15.9
2 14 16 54.39 25.9
14 -2 16 49 21.8
-14 2 16 72.09 37.1
16 -14 2 67.19 16.6
-14 -2 -16 102.29 18.7
2 -14 -16 68.39 19.8
2 -16 14 97.09 29.6
14 2 -16 56.59 17.4
-2 14 -16 93.09 20.6
14 -2 16 77.69 53.39
16 -2 -14 79.49 18.3
16 14 -2 23.1 47.9
-2 16 14 129.09 31.2
16 -14 2 67.39 32.8
16 -2 -14 101.19 19.1
-14 16 -2 83.39 20
-2 -14 16 151.18 65.39
-16 2 -14 53.69 19.1
16 2 14 54.29 22.9
-14 16 -2 53.99 27.3
2 14 16 98.79 35.5
16 -2 -14 86.99 23.9
-2 -16 -14 102.59 22.3
16 14 -2 89.29 20.5
-16 14 2 58.49 25.1
16 -14 2 54.39 20.9
14 -16 -2 72.09 23.6
-4 16 -14 792.92 45
-4 14 16 802.72 63.59
4 -16 -14 886.71 45.1
16 4 -14 814.72 51.19
14 -4 -16 768.02 44.2
4 16 14 816.92 57.39
-16 14 -4 848.42 62.79
14 16 -4 861.81 44.6
-4 -14 -16 847.12 46.8
16 -14 -4 843.92 41
16 4 -14 801.32 46.1
16 -4 14 598.44 88.99
-4 14 16 862.61 63.69
16 -4 14 741.13 49.6
-14 4 -16 819.62 42.7
14 -16 4 809.32 57.79
14 -4 -16 892.21 43
-16 4 14 726.03 80.49
16 14 4 766.72 46.6
-14 -4 16 922.61 70.99
-14 16 4 839.32 42.9
-4 -14 -16 856.71 46.2
4 14 -16 789.62 43
4 14 -16 894.81 41.3
-14 16 4 730.83 51.99
16 -4 14 806.82 48.9
16 -14 -4 772.82 44
14 4 16 782.72 89.89
-4 -16 14 813.02 53.69
-16 -4 -14 804.52 42.9
14 -16 4 828.42 57.99
14 -4 -16 866.01 43.7
14 16 -4 760.22 65.39
14 4 16 829.02 58.59
4 -16 -14 866.31 45
4 -14 16 875.61 67.69
4 -14 16 769.82 71.19
-16 14 -4 820.82 45.2
-4 16 -14 833.32 42.4
-16 -14 4 702.93 70.89
16 4 -14 858.81 42.7
4 16 14 798.82 69.29
14 -16 4 833.82 42.6
-4 14 16 808.82 63.49
16 -14 4 815.12 58.39
-14 16 -4 739.13 58.29
-16 14 4 724.43 52.89
-14 4 16 734.93 65.09
-16 14 4 874.21 45.2
-14 -4 -16 862.11 41.2
16 -4 -14 840.42 43.8
-4 14 -16 824.22 43.2
-16 -4 14 856.91 76.59
4 -16 14 883.71 62.19
-4 16 14 753.02 67.49
14 4 -16 771.42 45.1
14 16 4 675.63 68.49
-4 -16 -14 884.01 47.6
-4 -16 -14 863.71 46.9
16 14 -4 873.51 44.5
-14 4 16 793.12 64.09
14 -4 16 806.52 49.1
4 14 16 879.91 70.29
-4 16 14 716.83 62.89
16 4 14 783.02 56.09
-4 -14 16 819.22 55.39
16 -14 4 842.92 42.4
14 4 -16 824.02 41.5
-4 14 -16 835.82 42.8
4 16 -14 836.52 42.8
4 -16 14 843.82 69.09
-14 4 16 791.92 71.99
16 -4 -14 847.02 45.1
16 4 14 857.21 53.99
-14 -16 4 929.41 63.39
14 -4 16 720.63 54.39
16 14 -4 804.02 79.69
-14 16 -4 844.62 44.5
4 -14 -16 801.72 43.7
16 -4 -14 778.42 41.2
16 -14 4 776.72 51.89
14 -16 -4 856.51 46.6
-16 4 -14 797.42 43.5
14 -4 16 799.12 89.19
14 -16 -4 856.71 41.8
4 -14 -16 894.11 45.6
4 14 16 767.42 56.19
14 16 4 854.31 53.69
14 -6 -16 927.11 43.4
16 6 -14 961.9 44.8
6 -16 -14 892.31 46.1
16 -14 -6 900.91 43.7
16 6 -14 863.01 48.5
6 16 14 814.22 76.29
-6 14 16 832.22 67.19
6 -14 16 885.81 77.69
14 6 16 828.12 58.59
-6 -16 14 972.1 57.09
-14 16 6 773.42 44.5
6 -16 -14 742.43 45.8
-16 -6 -14 868.21 47.2
-14 6 -16 704.63 43.4
-14 -6 16 806.42 72.29
14 16 -6 935.31 64.39
-16 14 -6 795.12 46.2
14 -6 -16 929.51 46.2
-6 16 -14 937.91 44.3
16 -6 14 907.61 50.69
-16 -14 6 1124.89 71.09
6 14 -16 829.12 44.6
16 -6 14 763.72 91.99
14 -16 6 911.61 61.99
14 -16 6 906.71 47.2
16 -6 14 754.72 50.39
-16 14 -6 858.11 64.79
6 -16 -14 832.42 48.4
6 -14 16 830.32 66.49
6 16 14 838.72 57.69
14 16 -6 914.21 45.2
14 -16 6 918.81 55.29
-14 16 6 893.91 52.89
-6 14 16 923.01 64.79
-16 6 14 934.71 58.69
16 -14 -6 889.21 44.4
-16 6 14 979.9 89.39
14 -6 -16 951.6 45.9
-6 14 16 994.5 69.09
-6 -14 -16 906.11 49.7
-6 16 -14 900.21 46.9
-6 -16 -14 818.72 49.3
6 -14 -16 903.61 46.1
16 -14 6 904.81 46.6
14 -16 -6 870.81 46.3
16 -6 -14 911.11 43.4
-6 14 -16 905.41 46.5
-14 6 16 856.11 77.59
14 -16 -6 902.51 44.6
-14 16 -6 689.73 44.6
16 -14 6 903.81 53.79
-14 -6 -16 843.42 43.7
-16 14 6 722.33 44.9
14 6 -16 821.82 48.8
14 -16 -6 853.51 52.09
16 6 14 784.42 59.29
-6 16 14 887.81 65.49
-16 14 6 1010.4 55.69
-14 6 16 860.01 64.19
6 -16 14 994.9 72.39
-6 -14 16 907.51 58.19
6 -14 -16 831.02 46.4
-16 6 -14 866.51 44.5
-6 14 -16 819.52 43.7
-14 -16 6 928.51 60.79
6 -16 14 909.91 64.19
-6 -16 -14 881.61 50.39
16 -14 6 944.71 62.49
-6 16 14 963.4 70.99
14 16 6 901.51 70.49
16 14 -6 808.42 76.89
-14 16 -6 954 63.09
16 -6 -14 924.91 46.2
16 -6 -14 938.81 46.5
14 -6 16 844.82 49.99
6 16 -14 891.11 43.9
14 -6 16 860.01 79.19
6 14 16 834.82 68.59
-16 -6 14 867.51 77.09
-6 16 14 895.31 67.59
-14 6 16 862.11 60.09
14 6 -16 947.51 44.5
16 14 -6 1019 47
14 6 -16 827.32 51.29
6 14 16 903.91 58.49
14 -6 16 829.32 53.79
16 -8 14 303.57 31.4
-14 -8 16 230.68 42.2
16 -8 14 268.77 46.5
16 -8 14 322.87 38.7
14 -16 8 398.16 49
14 -8 -16 322.47 30
14 16 -8 360.56 53.69
-16 8 14 349.27 46.9
-8 -16 14 278.47 44.6
-8 14 16 306.17 43.6
14 16 -8 297.97 31.1
16 8 -14 260.97 26.4
14 -8 -16 271.77 34.4
8 14 -16 276.87 30.3
-16 14 -8 291.97 33.8
16 8 -14 232.48 24.9
-8 -14 -16 237.98 30.4
8 -16 -14 250.27 35.5
-8 14 16 231.38 34.2
-8 16 -14 289.87 31.3
-8 16 -14 272.37 36.5
-14 8 -16 238.28 26.9
8 -14 16 263.97 37.1
14 -16 8 265.67 34.7
-14 16 8 232.48 26.2
8 -16 -14 244.78 33.3
8 16 14 224.38 42.2
16 -14 -8 264.97 30.4
14 8 16 192.78 33.3
-16 -14 8 262.57 40.9
8 16 14 297.37 35.4
14 -8 -16 288.27 34.1
-8 14 16 309.77 40.9
8 -16 -14 217.78 24.6
-14 16 8 273.57 40.6
-16 8 14 284.87 53.99
14 -16 8 256.67 34.9
8 14 -16 237.58 29
16 -14 -8 292.77 29.2
-16 14 8 280.17 33.3
14 -16 -8 210.38 31.9
-14 16 -8 289.37 33.8
-8 14 -16 263.37 30.8
14 -8 16 219.18 44.4
8 16 -14 294.07 30.9
8 -14 -16 294.97 33.6
14 -8 16 294.17 33.7
8 14 16 206.48 38.3
8 14 16 370.66 48.2
16 -8 -14 325.77 32.9
16 -14 8 270.77 36.1
-16 -8 14 250.47 44.3
-16 8 -14 252.87 32.4
16 -14 8 271.57 32.1
14 -8 16 271.27 37.2
16 14 -8 339.47 41
16 14 -8 243.48 30.2
14 -16 -8 259.77 30.7
-14 -8 -16 296.27 33.1
-14 8 16 318.37 37.2
-8 14 -16 302.77 35.1
14 -16 -8 199.18 29.3
16 -8 -14 267.17 35.5
14 16 8 278.07 39.3
-16 14 8 197.88 27.4
-8 -14 16 319.07 38.8
14 8 -16 259.47 31.3
-8 16 14 365.26 45.7
-14 8 16 256.97 33.8
-8 16 14 265.57 36.8
8 -16 14 181.18 33.5
8 -14 -16 322.87 37
8 -14 -16 259.37 32.5
16 -8 -14 286.77 29.3
-8 -16 -14 357.06 42.1
-8 16 14 224.88 33.9
-14 8 16 296.07 50.49
14 8 -16 306.27 36.5
16 -14 8 301.97 34.4
-14 -16 8 307.47 38
16 8 14 295.47 38.3
14 10 16 62.89 41.4
16 -10 14 78.19 25.2
14 -16 10 25.6 25.3
14 16 -10 46.7 27.4
16 -10 14 49.3 22.4
14 10 16 37.2 31.3
14 -10 -16 64.09 17.4
-10 14 16 88.29 35.4
10 16 14 25.1 37.7
-10 16 -14 20.9 15.7
-14 10 -16 30.4 21.7
10 16 14 47.4 28.7
-16 10 14 40.8 26.6
10 14 -16 30.4 17.2
16 -14 -10 45.2 19
-10 14 16 12.5 43.6
14 16 -10 76.99 18.9
16 10 -14 29.3 19.6
-14 16 10 61.69 25.6
10 -14 16 67.29 34.3
14 -16 10 24.5 29.5
-10 -16 14 47 26.2
14 -16 10 38.2 28.5
10 -16 -14 84.39 24.7
10 14 -16 67.19 19.4
14 -10 -16 36.8 23.8
16 -10 14 76.29 39.3
16 10 -14 86.69 22.8
10 -16 -14 54.09 19.3
-14 -10 16 49.6 35.7
-16 -14 10 9.3 35.4
-16 10 14 53.59 45.8
-10 14 16 72.79 34.4
14 -10 -16 39.6 21.3
-10 16 -14 72.19 25.4
16 -14 -10 52.19 17.3
-10 14 16 78.89 30.6
-16 14 -10 43.3 22.7
10 -16 -14 50.19 20.8
14 -16 -10 19.1 27.2
10 -14 -16 32.7 17.5
16 14 -10 60.19 18.7
-16 10 -14 54.09 24.2
10 -14 -16 84.79 22.7
14 16 10 98.89 32.8
14 -16 -10 48.7 18.4
14 -10 16 22.5 20.9
14 -16 -10 45.3 19.9
10 -16 14 86.49 33.2
14 10 -16 40.4 20.7
-10 16 14 64.29 27.1
14 -10 16 37 27.1
-10 14 -16 43 21.7
16 -14 10 82.39 24.5
-14 10 16 -4.6 24
14 10 -16 5.2 19.4
-14 16 -10 52.49 22.9
10 14 16 60.29 33.2
-10 16 14 41 28.6
10 14 16 72.69 29.2
16 -10 -14 102.89 24
-10 14 -16 51.39 18.7
16 -14 10 44.4 32.1
-14 10 16 -8.8 40.4
-14 10 16 60.69 27.7
16 -10 -14 67.29 18.1
10 -14 -16 95.29 21.9
-16 14 10 34.6 23.5
16 10 14 114.09 35.3
-10 -14 16 125.79 36
16 -10 -14 77.99 24.9
-10 16 14 58.59 46.3
16 -14 10 34.6 26
14 -10 16 18.4 38.9
-16 -10 14 70.69 41
10 16 -14 39.6 16.4
-14 -16 10 44.1 30.4
-12 14 16 37.7 28.3
-14 12 -16 64.69 17.9
14 16 -12 72.69 17.9
16 -12 14 70.99 24.4
-16 -14 12 42.8 37.2
14 -16 12 29.6 27.8
12 -16 -14 81.29 18.8
14 -12 -16 39.9 23.2
12 16 14 64.69 37.9
16 -14 -12 61.49 16.6
16 12 -14 98.39 25
16 -12 14 102.19 23.4
16 -12 14 4.6 33.6
12 -16 -14 107.99 22.3
-12 14 16 73.99 34
12 14 -16 58.29 19.9
16 14 12 87.79 41.1
14 12 16 89.69 36.9
-16 12 14 71.39 23.7
-14 16 12 95.49 26.5
12 -14 16 102.19 35.9
-14 -12 16 44.9 34.3
14 -16 12 69.19 29.6
-12 -16 14 58.59 32.9
14 12 16 88.89 32.1
12 -16 -14 69.99 27.3
14 -12 -16 59.79 28.2
-12 16 -14 38.7 16.6
16 14 12 58.79 59.89
12 14 -16 64.99 19
14 -16 12 95.49 34.6
-16 14 -12 71.19 26.3
14 -12 -16 101.29 18.6
-14 12 -16 95.59 24.7
12 16 14 45.2 28.7
-16 12 14 112.89 43
16 12 -14 63.69 18.6
-12 14 16 108.79 29.4
14 -16 12 73.69 29.5
16 -14 -12 89.49 34.6
-12 16 -14 49.2 25.6
16 -14 -12 70.19 21.4
12 -14 -16 58.49 16.5
16 12 14 73.19 33.9
16 -14 12 55.89 33.2
14 -12 16 67.09 23.7
-16 12 -14 69.79 25.2
-14 16 -12 52.99 24.8
-12 14 -16 31.5 24.5
-12 16 14 90.19 27.7
-14 12 16 39.2 26.4
12 -14 -16 46.6 21.8
-14 12 16 -19.7 37
14 -12 16 82.99 30.3
16 14 -12 58.99 17.2
14 -16 -12 70.99 22.1
16 -12 -14 84.79 31.1
14 -12 16 98.79 39.2
16 -12 -14 50.29 15.7
14 12 -16 74.99 19.4
12 -16 14 94.59 30.8
-16 14 12 97.39 26.6
-14 12 16 51.39 27.4
-12 16 14 72.39 26.8
-14 -16 12 8.9 32.2
-12 -14 16 56.19 33.6
16 -14 12 63.29 24.9
-12 14 -16 60.59 17.9
16 -12 -14 103.19 23.4
14 -16 -12 76.59 28.6
-14 16 -12 63.29 16.8
-16 -12 14 42.5 38
14 -16 -12 40.1 17.9
12 14 16 60.99 30
14 16 12 114.79 31
16 -14 12 88.29 31.9
12 14 16 74.49 34.5
12 16 -14 55.29 17.5
14 12 -16 58.69 22.8
12 -14 -16 161.38 29.6
16 -14 12 41 23.2
14 -16 -14 181.08 27.2
16 -14 -14 237.88 29
-14 -16 14 200.98 39.5
-14 -14 16 160.78 38.4
-16 14 -14 125.29 30.5
-14 14 -16 207.88 34
-14 16 -14 185.98 32
14 -14 -16 213.28 27.8
-16 14 14 260.07 30.1
-14 14 16 203.78 30.5
14 -14 -16 239.38 31
14 -16 -14 216.78 38.3
14 -16 14 195.78 33.4
-16 14 -14 211.98 22.6
-14 14 -16 249.38 27.4
16 -14 14 188.98 27.1
16 -14 14 185.38 30.2
16 14 14 210.48 39
14 -14 -16 159.08 32.9
14 14 -16 171.08 27.9
16 -14 -14 149.29 38.1
14 -14 16 211.98 40.7
16 -14 14 237.88 36.6
-14 16 -14 219.38 28
14 14 -16 140.79 19.6
14 16 14 216.48 32.9
16 14 14 307.87 55.59
14 -16 -14 189.38 27
16 -14 -14 186.08 25.5
-14 16 14 242.08 29.9
-16 -14 14 265.77 44.2
-14 14 16 192.48 29.2
14 -14 16 236.78 39.1
14 14 16 197.18 35.6
14 16 14 215.28 41.5
14 14 16 216.18 35.6
14 16 -14 214.68 22.7
16 14 -14 215.18 29.6
16 0 16 -7.8 22.3
16 16 0 -44.5 18
16 -16 0 13 18
0 16 16 -37.7 31.7
0 16 -16 8.6 16
16 -16 0 9.4 27.9
-16 16 0 61.59 27.2
16 0 16 -7.7 68.09
0 16 16 5.4 27.8
-16 0 16 17.4 41.1
16 0 16 4.9 19.5
16 -16 0 4.7 20.9
-16 0 -16 0.7 19
-16 16 0 2.5 20.1
0 -16 -16 32.2 20.2
16 0 -16 15.6 17
0 -16 -16 -2.9 20.8
16 0 -16 -23.8 17.7
0 -16 16 -10.3 48.8
0 -16 16 2.2 27.5
16 16 0 73.89 42
-16 -2 16 163.68 42.3
2 16 16 184.58 31.5
-16 16 -2 159.98 24.9
2 -16 16 137.89 32.2
16 -16 -2 197.68 25.3
16 -16 2 179.18 27.5
-16 2 16 181.18 48.3
-16 2 -16 184.68 25
16 2 16 146.49 30.5
-2 16 -16 155.18 21.3
16 16 -2 170.28 43.8
16 16 2 160.28 41.8
-16 -2 -16 146.19 23.5
-2 16 16 138.79 35.9
2 16 16 113.09 34.8
16 -2 16 148.59 28.4
-16 16 -2 133.99 28
-2 -16 -16 155.48 24.9
2 -16 -16 163.88 24.9
-2 -16 16 203.38 63.49
-16 16 2 160.28 24.4
-16 -16 2 161.98 41.7
-2 -16 -16 153.48 26.2
2 -16 -16 174.68 24.3
16 -2 -16 148.59 22.4
16 2 -16 182.58 24
-16 16 2 224.28 31.5
16 -16 2 122.59 20.5
16 -16 2 205.28 34.6
16 -2 16 146.99 59.39
16 16 -2 162.08 21.9
16 16 2 169.18 24.5
-2 -16 16 190.88 32.6
-2 16 16 120.29 31.5
16 2 -16 193.38 28.8
16 -16 -2 153.08 21.9
16 -2 -16 209.48 27
16 -2 16 166.18 24.7
16 -16 -2 210.68 32.8
2 -16 16 146.19 43.4
2 16 -16 196.08 22
16 4 -16 1025.9 55.89
-4 16 16 897.01 68.69
-4 -16 -16 1101.89 54.69
4 -16 16 976.2 76.39
16 -16 4 1041.1 61.29
4 -16 -16 1062.29 53.29
-4 -16 -16 1050.89 53.59
4 -16 -16 1084.59 52.39
16 16 -4 1057.69 49.3
16 -4 -16 982.7 53.39
-4 -16 16 1099.99 60.69
4 -16 16 1098.49 70.49
16 16 -4 996.6 71.69
16 16 4 879.61 76.59
-4 16 -16 990 47.7
-16 16 4 942.71 52.39
16 -4 16 838.22 101.29
4 16 -16 1076.29 48.3
-16 -16 4 941.51 73.49
-16 -4 16 875.11 77.69
-16 4 16 868.01 79.69
-4 16 16 919.21 66.19
4 16 16 1017.8 60.79
16 -16 4 1008.2 50.49
16 -4 -16 997.9 46.4
16 -4 16 1044.3 53.99
16 4 -16 999.6 48.9
-4 16 -16 911.61 55.09
4 16 16 1066.09 69.79
16 -4 -16 1027.5 51.59
16 4 -16 995.6 50.99
-16 16 -4 1043.4 53.09
16 -16 4 1008.6 56.89
-16 4 16 1067.59 61.99
-16 16 -4 1013.7 64.29
-16 16 4 997.2 57.29
-16 -4 -16 1036.6 50.89
16 -16 -4 971.3 49.9
-16 4 -16 1016.1 51.59
16 -4 16 1003.3 58.09
16 -16 -4 1071.39 49.1
16 4 16 910.91 62.19
16 16 4 969.9 50.99
-6 -16 -16 1206.08 64.19
-16 16 6 1217.28 61.49
16 -6 -16 1326.57 53.49
16 -6 16 1093.99 58.89
-16 6 16 1038.8 90.59
6 -16 -16 1239.58 56.19
16 -16 6 1267.97 67.49
6 16 16 1201.58 66.89
16 16 -6 1207.98 76.19
16 6 -16 1260.97 56.49
-6 16 -16 1181.78 59.99
-6 -16 16 1190.18 65.79
-16 6 16 1257.77 67.69
-6 -16 -16 1177.18 63.89
6 -16 -16 1248.88 57.29
16 -16 -6 1184.48 54.69
16 -16 6 1227.08 58.29
-16 -6 -16 1224.98 58.09
16 16 6 1305.87 79.99
-16 6 -16 1239.78 58.69
16 -16 6 1187.48 64.29
-6 16 16 1267.67 74.59
6 16 16 1186.48 76.29
16 -6 16 1225.58 63.29
16 6 16 1293.87 69.79
-6 16 16 1182.48 73.69
-16 16 -6 1151.68 70.49
16 -6 -16 1181.08 57.09
16 -16 -6 1185.98 55.09
-16 -16 6 1206.28 74.69
16 6 -16 1207.68 57.69
16 -6 16 1325.47 88.99
6 -16 16 1142.49 86.89
-16 16 -6 1224.48 57.69
-16 16 6 1280.57 57.59
6 -16 -16 1178.98 58.59
16 -6 -16 1191.38 59.49
16 6 -16 1140.19 55.49
6 -16 16 1253.27 75.99
-6 16 -16 1235.18 53.19
6 16 -16 1213.58 54.09
-16 -6 16 1322.67 83.59
16 16 -6 1168.48 54.49
16 16 -8 497.65 36.1
8 16 -16 511.85 34.5
16 8 -16 461.15 41.9
-8 16 16 496.35 48
-8 -16 16 453.05 54.39
16 -8 -16 525.05 41
-16 16 8 524.85 40.6
16 -16 8 434.76 50.09
8 -16 -16 453.95 39.9
-8 16 -16 383.56 44.4
16 -8 -16 491.95 34.1
-16 8 16 476.25 51.39
8 16 16 477.35 51.59
-16 16 -8 392.66 41.3
-8 16 -16 507.95 34.4
-8 16 16 524.75 56.99
8 16 16 365.26 43.1
16 -8 16 488.85 46.1
16 8 16 500.85 57.49
16 16 -8 473.55 56.79
8 -16 -16 407.76 35.9
16 -16 -8 441.06 34.7
16 -16 -8 468.85 37.4
16 -16 8 467.85 43.3
16 -8 16 456.65 41.5
8 -16 -16 541.25 46.1
16 -8 -16 356.86 45.3
-16 -8 16 305.87 47
16 16 8 471.15 48.4
-16 16 8 430.06 43.2
-8 16 16 428.36 62.79
8 -16 16 525.15 59.39
16 8 -16 470.75 39
16 -8 16 345.87 50.19
-16 -16 8 445.46 60.29
-16 16 -8 487.45 48.7
-16 8 16 475.75 76.29
-16 8 -16 414.36 43.5
16 -16 8 450.05 53.79
-10 16 16 71.99 25.7
16 10 -16 88.39 23.7
10 16 16 139.39 30.9
-16 16 -10 103.29 28.3
10 -16 -16 87.09 18.5
16 -10 16 128.19 27.5
10 -16 -16 136.79 27.6
-16 -16 10 137.89 37.5
16 -16 10 100.89 29.7
10 -16 16 54.19 30.2
16 -16 10 148.79 32.4
16 -10 16 117.19 40.6
10 16 -16 122.49 19.8
16 10 -16 130.79 22.1
10 -16 -16 149.09 28.8
16 -16 -10 139.59 24.7
-16 10 -16 57.59 28.4
16 10 16 161.28 33.2
16 -10 -16 147.19 31.7
-10 16 16 127.69 43
16 16 10 165.88 39.3
-16 10 16 96.09 44.4
16 -10 -16 118.19 26.6
-16 -10 16 74.09 40.3
10 16 16 82.59 33.5
16 -16 -10 91.39 19.1
16 -16 10 136.79 28.5
16 -10 -16 139.89 20.5
16 -10 16 168.18 26.6
-10 16 -16 39 27.3
-10 16 -16 113.49 18.6
-16 10 16 153.18 28.5
-16 16 10 76.89 22.1
16 16 -10 80.69 17
-10 16 16 101.99 32.4
-10 -16 16 100.99 32.9
16 -12 16 157.88 29.7
12 -16 -16 293.67 38.5
-16 12 -16 189.18 27.5
16 -12 16 204.78 27.6
-16 16 -12 191.48 34.2
-16 12 -16 171.18 32.8
16 -16 12 194.08 31.2
16 -12 -16 193.38 27
16 -16 -12 261.87 31.5
-16 12 16 135.59 26.9
-16 16 12 113.79 23.8
-12 16 16 223.08 32.2
-12 16 -16 168.08 19.9
12 16 -16 211.18 30.1
16 12 16 174.18 34.1
-12 16 16 175.58 32.2
12 16 16 179.38 36.4
12 -16 -16 154.98 33.4
16 -12 -16 266.67 41.2
12 16 16 234.88 33.8
12 -16 16 191.28 37.3
16 -16 12 144.49 32.4
16 -12 16 201.18 42
16 -16 12 207.48 39.5
16 -12 -16 162.68 28.9
12 -16 -16 242.48 28.2
-12 -16 16 112.69 37.5
-12 16 -16 140.09 33.8
16 12 -16 144.59 20.1
-16 -16 12 169.08 43.2
-16 16 -12 143.49 18.8
16 -16 -12 213.68 28.3
16 12 -16 108.19 26.1
16 16 12 190.18 35.3
16 16 -12 199.78 28.6
-16 -12 16 210.48 46
-16 12 16 218.28 45.2
16 -16 12 179.48 28.8
14 16 -16 493.35 33.8
16 -16 14 444.66 45.2
16 -14 -16 451.55 30.9
-14 -16 16 446.56 57.19
14 16 16 437.46 58.79
-16 14 16 491.85 44.9
14 16 16 474.15 47.4
14 -16 -16 433.96 31.9
16 -16 -14 498.55 32.3
-16 -16 14 438.86 58.69
-16 -14 16 514.35 66.19
-16 14 -16 498.05 32.9
14 -16 -16 445.46 45.6
16 -16 -14 525.15 45.8
16 -14 -16 438.36 45.3
-14 16 16 427.56 46.9
16 -16 14 418.06 55.99
16 -14 16 428.86 60.49
14 -16 16 556.84 58.29
16 -16 14 513.55 62.59
16 -14 16 469.95 60.29
16 14 16 535.45 57.59
-16 16 14 430.06 43.6
-16 16 -14 480.85 32.3
-14 16 -16 507.55 33.4
16 14 -16 437.16 33.5
16 16 -14 474.55 33.3
16 16 14 418.96 53.29
16 16 -16 663.23 36.3
-16 16 -16 681.83 36.4
-16 16 16 585.54 46.6
-16 -16 16 775.52 65.49
16 -16 16 641.74 62.79
16 16 16 502.15 62.49
16 -16 -16 606.34 51.99
16 16 16 604.84 58.29
16 -16 -16 695.23 35.7
1 1 -17 370.56 22.7
-1 1 17 343.17 42.1
1 -1 17 358.36 55.89
1 17 -1 367.06 22.2
1 17 1 362.56 22.8
-1 -17 1 353.26 28.9
-17 1 -1 384.26 25.5
1 -17 1 348.87 26.8
17 1 -1 333.87 30.7
17 1 1 355.26 29
-1 -17 -1 314.97 26.8
-1 17 1 328.97 22.2
-1 -1 17 358.56 41.2
-1 -1 -17 357.86 22.1
-1 1 -17 362.46 22.1
1 -1 -17 389.06 22
-17 1 1 359.76 25.9
-1 17 -1 360.36 23
1 -17 -1 376.16 25.8
1 1 17 410.16 59.79
-1 -3 -17 78.39 12.8
-1 3 17 85.29 34.8
3 1 17 104.59 62.69
3 1 17 121.49 43.4
-3 -1 17 89.19 32.4
-17 3 -1 84.49 14
-3 17 1 83.99 13.4
17 -1 3 87.79 17.5
3 17 -1 22.2 36.5
1 -3 17 101.29 33
3 -17 1 88.99 14.5
17 -3 -1 87.19 13.1
-17 -1 -3 69.09 14.5
-3 17 1 56.39 35.7
3 17 -1 74.09 33.3
1 -17 -3 54.69 14.5
-3 1 -17 66.79 12.1
-1 17 -3 85.69 13.2
-17 1 3 94.79 15.9
3 -1 -17 65.49 12.3
1 3 -17 69.39 12.6
-3 17 -1 28.7 29.7
-3 1 17 72.09 29.4
-17 1 -3 56.09 13.8
17 -3 1 71.69 14.5
1 -17 3 103.09 17.3
3 1 -17 76.69 12.4
17 1 3 100.29 21.7
-1 -17 -3 95.19 16.6
-3 -1 -17 62.49 12.2
17 -1 -3 88.19 15.7
-17 3 1 58.99 13.6
-1 -3 17 67.09 29.3
1 3 17 54.59 64.39
1 -3 -17 100.99 14.2
3 -1 17 65.59 37
-3 17 -1 70.59 12.4
-1 3 -17 94.09 13.3
3 -1 17 87.19 58.39
-1 17 3 74.39 12.5
1 3 17 57.29 38.9
3 17 1 66.89 35
3 -17 -1 96.19 15.5
3 3 17 376.76 53.49
-3 -3 17 390.06 50.49
-3 17 3 424.96 54.79
3 -17 3 375.16 27.4
-3 3 17 449.66 56.09
3 3 17 315.87 49.7
17 -3 -3 348.97 24.7
17 -3 3 390.86 26.7
-3 17 -3 406.06 24.2
-17 3 3 365.86 25.4
3 17 -3 422.76 48.9
3 -17 -3 341.07 25.3
3 -3 17 378.56 54.39
3 17 -3 455.25 44.6
-3 -3 -17 388.96 23.9
-3 3 -17 383.76 22.7
3 -3 -17 378.26 24
3 3 -17 381.96 23.9
3 -3 17 409.56 45.9
-17 3 -3 399.96 25.5
-3 17 3 366.36 23.7
17 3 -3 348.47 40.9
3 17 3 371.06 51.29
17 -5 -1 521.85 28.5
1 -5 17 525.25 57.19
-17 5 -1 523.35 28.8
5 -1 -17 515.05 27.2
1 -17 -5 535.05 28.8
-17 -1 -5 521.25 29.3
5 1 17 525.75 60.39
-1 5 17 509.95 63.69
17 5 1 531.75 36.7
-5 -1 17 599.34 55.29
-17 1 5 510.25 30.6
-1 -5 -17 512.95 27.7
17 -5 -1 478.75 33
17 -1 5 492.25 32.9
-1 5 17 477.65 65.59
5 17 -1 471.65 53.49
-1 17 -5 481.25 28
5 1 17 535.45 64.29
1 5 -17 551.34 27.4
5 1 17 637.84 91.49
-5 17 1 512.75 28.7
-5 17 1 448.66 45.1
17 -1 5 463.15 57.19
-5 1 -17 558.84 28.3
1 -5 17 617.84 92.29
5 17 -1 492.55 45.1
1 17 5 512.25 54.29
-1 5 17 542.15 79.49
5 -17 1 534.65 29.7
-17 1 -5 505.25 28.6
17 -5 1 511.75 28.8
-1 5 -17 556.84 27.2
-5 17 -1 533.75 29
-17 5 1 505.15 29.2
5 1 -17 489.35 26.9
1 -17 5 504.35 34.6
5 -17 -1 522.15 29.2
-5 -1 -17 513.15 27.3
17 1 5 516.45 36.2
17 -5 1 472.25 34.8
1 5 17 508.05 64.09
5 -1 17 499.25 56.09
1 -5 -17 529.05 28.4
5 -1 17 587.84 81.39
1 17 -5 466.55 51.19
1 5 17 551.14 66.89
5 17 1 569.14 48.4
-5 1 17 595.54 55.99
-1 -17 -5 510.65 30.7
-1 -5 17 441.46 52.59
17 5 -1 449.46 37
1 17 -5 604.74 63.19
1 5 17 516.15 67.29
-5 17 -1 560.44 48.9
5 17 1 512.05 51.99
-3 5 17 1047 69.49
-5 17 3 967.6 56.69
-3 5 17 981.7 76.79
3 -5 17 844.12 86.19
3 -17 -5 1012.2 41.7
3 5 -17 1005.8 39.8
-17 -3 -5 873.41 41.3
-5 3 -17 986.8 38.8
17 -5 -3 923.11 44
5 17 -3 954.9 56.29
-3 5 17 794.32 104.79
3 17 5 918.81 61.39
-17 3 5 1001.1 41.1
17 -5 -3 981.9 40.5
-5 17 3 994 40.7
3 17 5 962.8 93.69
-3 -5 -17 957 40.3
3 -5 17 934.81 70.29
17 -3 5 978.8 43
5 17 -3 1022.5 62.19
-17 5 -3 992.9 41
5 3 17 1000.3 96.29
5 -17 3 1018.1 42.7
-3 17 -5 1015.7 40
-5 3 -17 931.71 39.4
17 3 -5 961.6 49.7
5 -3 -17 976.9 40.6
17 -3 5 851.91 47.5
5 3 17 1070.59 70.49
-3 17 -5 978 70.49
5 3 17 989.4 96.99
-5 -3 17 937.21 61.69
-5 3 17 1057.69 155.88
-3 -5 17 1039.7 59.99
5 -3 17 951.6 81.69
-17 5 3 956.3 40.7
5 -3 17 974.4 91.89
17 -3 -5 907.61 45.4
5 -17 -3 974.5 41.3
3 5 17 848.92 103.99
-3 5 -17 993.2 38.3
17 5 -3 992.2 48.6
3 5 17 912.51 71.59
-3 -17 -5 956.1 43
-5 3 17 1050.79 65.89
-3 17 5 885.31 58.39
3 -17 5 846.32 82.59
17 -5 3 968.9 41.6
3 5 17 919.41 77.89
-5 17 -3 999.6 41.7
3 17 -5 1010.5 59.49
3 -5 -17 1076.89 41.8
-17 3 -5 1004.9 40.9
-3 5 -17 997.5 39.6
-5 -3 -17 1003.7 39.9
3 -17 5 1016.3 42.9
17 -5 3 926.41 48.1
-3 17 5 993.5 40.3
5 17 3 975.3 57.89
5 3 -17 1017.6 40.5
3 17 -5 975.7 57.99
17 -3 -5 1003.2 41.1
5 17 3 925.41 62.39
-5 17 -3 963.7 60.79
-5 -5 -17 1704.83 60.79
5 -17 5 1669.23 75.69
5 -5 17 1629.74 96.79
5 5 17 1799.12 101.99
-5 17 -5 1501.85 77.29
-5 5 -17 1646.94 59.69
17 5 -5 1624.74 65.89
5 -5 17 1680.53 93.19
17 -5 -5 1733.43 60.79
5 17 -5 1731.03 73.49
-5 5 17 1610.84 88.49
17 -5 5 1758.22 62.99
5 5 17 1666.33 87.39
-17 5 5 1746.93 61.99
-5 17 5 1627.84 72.49
5 5 -17 1779.62 61.09
5 -5 -17 1737.63 61.59
5 17 5 1619.44 78.09
5 -17 -5 1747.43 62.29
5 -17 5 1717.03 62.59
-5 17 -5 1637.84 65.79
-5 5 -17 1666.83 59.69
5 5 17 1650.33 113.09
5 17 -5 1693.83 66.19
5 17 5 1659.53 76.29
5 17 -5 1606.94 73.89
-5 5 17 1701.43 85.79
-5 -5 17 1671.43 77.99
-5 17 5 1746.93 61.09
-17 5 -5 1719.53 61.09
5 5 17 1578.44 82.39
17 -5 -5 1730.23 63.89
17 -5 5 1590.54 65.79
-1 17 -7 136.69 31
-1 17 -7 139.69 33.2
1 7 -17 128.99 15
17 -1 7 136.09 25.3
-17 7 -1 128.99 34.4
17 -7 -1 125.59 16.2
-17 7 -1 144.69 17
-7 17 1 121.29 16.2
-1 7 17 128.19 36.4
7 -17 1 159.38 22.3
7 -1 -17 142.59 18.6
-17 -1 -7 148.59 16.5
7 17 -1 128.79 32.3
-1 17 -7 119.29 15.9
7 1 17 101.59 33.5
1 17 7 118.79 35.6
7 1 17 117.59 50.89
-1 7 17 134.29 33.8
1 -7 17 119.39 31.6
1 7 -17 153.68 18.3
-7 17 1 126.99 27.4
7 17 -1 138.09 25.3
1 17 7 106.79 33.3
-1 -7 -17 147.29 20.6
-7 1 -17 138.49 18.1
1 -7 17 155.48 49.3
17 1 -7 138.09 24.6
17 7 1 133.49 22.3
-1 17 -7 123.59 20.4
-7 -1 17 107.19 29.8
17 1 -7 122.19 22.4
-7 1 -17 125.79 17.1
-1 7 17 164.38 54.89
17 1 -7 145.19 17.6
17 -7 -1 117.69 18.5
1 -17 -7 144.79 18.5
-1 7 17 144.09 34.1
17 -1 7 143.59 22.4
7 -1 17 136.99 48.3
17 1 7 92.49 25.5
1 7 17 92.99 35.6
-7 -1 -17 116.59 16.7
1 7 17 134.99 35.6
1 7 17 146.39 36.3
1 17 -7 115.09 30.2
1 -7 -17 150.78 17.7
-1 17 7 120.79 36.5
1 -17 7 173.78 46.6
-1 -7 17 150.98 29.8
-17 7 1 109.09 16.3
-17 1 -7 163.48 21.1
-7 17 -1 136.59 27.3
17 -7 1 123.09 16.1
-1 17 7 85.19 31.5
1 -17 7 84.99 23.9
7 1 -17 119.19 15.1
1 7 17 104.19 51.59
17 -1 -7 105.19 20.2
-1 7 -17 143.09 20.1
17 7 -1 151.68 22.8
-7 17 -1 112.69 15.2
-1 7 -17 161.38 17.6
7 -1 17 156.08 32.7
7 17 1 144.69 31.6
-7 1 17 113.09 33.6
1 17 -7 107.19 19.5
-17 7 1 104.19 29.7
-1 -17 -7 126.99 18.7
17 -7 1 123.49 20.7
7 -17 -1 155.78 18.1
-1 -7 17 221.28 61.29
17 -1 -7 153.78 19.1
1 17 -7 150.48 29.8
7 17 1 133.29 26.3
-7 3 -17 687.63 31.4
3 17 7 633.44 56.29
-7 3 -17 657.13 33.6
3 -17 -7 725.43 34.9
17 3 -7 691.63 31
17 -7 -3 622.74 36.7
-3 17 -7 647.54 39.5
-17 3 7 660.43 35.1
-7 -3 17 678.03 57.09
-3 17 -7 518.85 54.89
-3 -7 -17 686.03 33.2
7 3 17 665.03 59.89
3 17 7 609.34 59.49
17 -3 7 670.53 42.8
7 17 -3 581.54 54.69
7 -17 3 620.04 49.7
-17 7 -3 705.13 67.39
17 -3 7 696.03 38.5
-3 7 17 704.43 65.69
-7 17 3 700.43 34.7
7 3 17 719.03 72.29
-3 17 -7 666.33 33.2
17 3 -7 680.33 43.9
-3 7 17 550.14 61.19
-3 17 -7 665.33 61.59
-3 7 17 710.43 62.49
7 -3 -17 688.73 33.4
3 7 -17 675.53 31.6
17 -7 -3 725.43 33.6
3 -7 17 627.54 61.89
7 -17 3 680.43 35.2
3 -7 17 649.54 77.09
7 17 -3 603.44 41.7
7 17 -3 708.33 48.7
-17 7 -3 704.73 34.9
-17 -3 -7 651.03 34.3
-7 17 3 645.04 46.2
3 7 -17 680.63 30.9
3 7 17 779.52 72.49
-3 -17 -7 720.53 37.9
-3 -7 17 639.94 83.29
3 7 17 586.04 64.89
-7 3 17 711.73 75.39
-7 17 -3 624.04 53.99
-3 7 -17 675.23 32.4
7 17 3 608.54 54.99
7 3 -17 736.63 33.1
3 17 -7 673.73 53.19
3 7 17 625.14 59.39
-7 -3 -17 679.23 33.3
-3 17 7 715.83 66.09
-3 -7 17 644.04 52.59
17 -7 3 690.63 40.4
17 3 7 567.14 52.09
-3 7 -17 646.74 31.6
7 -3 17 552.34 82.49
3 -7 -17 708.83 34.1
3 -17 7 674.73 39.6
17 -7 3 684.63 34.3
7 -17 -3 669.23 34
17 3 7 541.75 49.8
3 -17 7 663.63 58.29
-17 3 -7 702.43 34.3
-17 7 3 691.83 53.19
-7 3 17 783.02 61.59
-7 17 -3 670.53 33.6
-17 7 3 673.93 32.6
17 -3 -7 694.03 33.9
-3 17 7 715.43 55.49
7 17 3 696.83 48.9
3 7 17 768.12 73.59
7 -3 17 608.14 61.29
3 17 -7 552.24 51.79
17 -3 -7 650.43 38.6
17 7 -3 670.43 39.3
3 17 -7 661.13 39.4
-7 17 5 1318.07 83.29
-17 5 7 1567.74 56.39
-7 5 -17 1484.25 58.49
-7 17 5 1564.24 55.99
7 17 -5 1401.36 69.09
17 5 -7 1460.25 52.79
-5 7 17 1423.46 81.69
-5 17 -7 1572.44 55.49
7 17 -5 1471.75 60.19
-7 17 5 1488.75 66.49
-5 17 -7 1596.54 82.19
7 5 17 1328.07 74.19
-5 17 -7 1429.46 75.29
5 17 7 1370.56 69.49
7 17 -5 1315.67 63.49
5 17 7 1439.36 72.49
-5 7 17 1580.14 82.69
5 -7 17 1456.65 90.69
17 5 -7 1386.36 61.59
7 -17 5 1592.74 58.39
17 -5 7 1390.96 61.79
-7 5 -17 1588.14 55.69
-17 7 -5 1545.25 57.39
7 -17 5 1206.58 65.69
5 7 -17 1541.95 69.99
5 -7 17 1364.86 89.59
7 -5 -17 1517.95 56.19
-17 7 -5 1213.38 106.49
7 5 17 1364.86 80.89
-7 5 -17 1364.16 66.09
17 -5 7 1478.25 59.49
-5 -7 -17 1525.45 55.99
-5 17 -7 1423.06 58.79
17 -7 -5 1231.98 55.79
5 7 -17 1491.75 52.59
-5 7 17 1402.26 79.59
7 5 17 1540.65 112.29
-7 -5 17 1592.14 75.29
5 7 -17 1585.54 55.49
17 -7 -5 1548.05 55.49
5 -17 -7 1505.85 57.29
17 7 -5 1289.47 59.59
7 -5 17 1497.25 86.89
-7 5 17 1357.46 85.09
5 7 17 1516.15 91.49
-7 17 -5 1580.44 56.39
17 5 7 1415.26 77.29
-17 7 5 1304.17 67.89
7 -5 17 1401.06 81.39
-7 5 17 1530.55 83.19
-5 17 7 1421.86 89.09
7 17 5 1503.55 67.69
5 -7 -17 1573.44 56.99
-5 17 7 1459.35 68.99
17 -7 5 1497.25 57.59
7 -17 -5 1616.84 57.59
5 17 -7 1386.26 68.59
5 17 -7 1469.25 69.29
-5 7 -17 1490.15 54.79
5 7 17 1386.46 106.89
17 -7 5 1357.56 59.49
-5 17 7 1541.25 85.99
-7 -5 -17 1525.25 55.29
5 7 17 1451.15 74.79
7 5 -17 1539.05 55.29
5 -17 7 1526.45 70.69
-7 17 -5 1473.35 60.39
-5 -7 17 1762.72 218.28
17 -5 -7 1560.84 56.09
-5 7 -17 1555.24 54.79
-17 7 5 1485.55 57.19
17 -5 -7 1429.66 57.49
17 5 7 1441.36 72.99
7 17 5 1432.76 70.19
-5 -7 17 1529.45 71.99
-17 5 -7 1602.24 56.69
-7 17 -5 1411.66 74.19
5 -17 7 1431.56 58.79
5 7 17 1411.46 77.29
5 17 -7 1394.06 58.79
-5 7 -17 1374.26 62.99
-7 17 7 1141.29 68.89
7 7 -17 1049.09 59.99
7 17 7 1152.68 64.09
7 -7 -17 1186.28 48.2
-7 7 17 1167.88 79.69
-17 7 -7 1204.88 48.5
17 -7 -7 1076.09 48.3
7 7 -17 1141.09 46.6
17 7 -7 1135.69 52.69
7 17 -7 1108.19 60.49
-7 17 -7 1210.08 68.09
7 17 -7 1066.09 57.79
-7 7 17 1167.88 75.59
7 17 7 1076.49 62.89
-17 7 7 1100.29 58.89
17 -7 -7 1263.57 48.5
17 -7 7 1231.38 51.19
-7 -7 17 1227.88 65.99
17 -7 7 1100.29 53.99
-7 17 7 1204.48 48.3
-17 7 7 1148.09 48.8
7 -17 -7 1211.58 49.5
-7 17 7 1028.6 85.69
7 -17 7 1198.58 52.19
-7 17 -7 1119.49 49.7
7 7 17 1052.19 68.09
7 17 -7 1125.89 51.39
7 -17 7 1144.89 61.29
-7 7 -17 1070.99 54.69
7 7 17 1282.57 105.09
17 -7 7 1133.29 102.09
-7 17 -7 1131.09 48
7 -7 -17 1172.38 51.69
17 7 7 1022.5 74.09
-7 17 7 1140.59 59.79
-7 7 17 1072.69 72.49
17 7 -7 1167.18 45.3
-7 7 -17 1198.98 46.8
-7 -7 -17 1154.78 48.3
7 7 17 1068.69 68.99
7 -7 17 1135.49 83.19
9 1 17 65.29 51.39
9 17 -1 44 20.4
-17 9 -1 69.89 31.9
1 -17 -9 105.69 18.3
1 -9 17 65.49 29.6
9 17 -1 24.2 26.5
-1 17 -9 58.59 17.6
17 -1 9 65.79 21.3
-1 -17 9 88.19 45.6
-9 17 1 52.69 14.5
17 -1 9 84.99 22.6
1 17 9 0.2 55.59
1 9 -17 82.39 14.7
-9 -1 17 101.59 33.5
17 -9 -1 77.09 17.3
1 17 9 58.39 36.8
-17 -1 -9 89.29 16.4
-1 -9 -17 90.19 16.4
-1 17 -9 85.49 30.9
-1 17 -9 63.69 28
9 1 17 67.59 31.4
17 1 -9 71.49 23.1
-9 17 1 78.09 24.9
1 9 -17 112.39 24.7
17 1 -9 65.29 19.5
9 17 -1 83.89 22
-1 9 17 100.69 34.8
-9 1 -17 103.89 15.2
1 9 -17 53.69 12.6
17 -9 -1 100.39 17.5
-1 9 17 77.99 35
-17 9 -1 72.59 16.9
-1 9 17 55.59 30.1
1 17 9 58.19 31
9 -1 -17 83.69 16.2
17 1 -9 56.19 14.7
-1 17 -9 73.49 16.8
17 9 1 45.7 17.1
9 -17 1 89.09 16.5
1 -9 17 -39.4 45.6
-17 9 1 26.3 28.1
17 1 9 48 21.4
1 9 17 93.59 31.8
-9 -1 -17 65.79 14.1
-1 17 9 109.79 50.19
17 -1 -9 65.79 21.8
-17 9 1 83.89 16.2
9 -17 -1 55.49 16.6
9 -1 17 135.29 47.8
-1 9 -17 76.89 24.5
-1 17 9 61.59 32.9
1 17 -9 95.59 31.5
-9 17 -1 70.09 16.2
-1 17 9 78.89 32.6
9 1 -17 94.79 15.9
-17 1 -9 36.6 15.6
9 17 1 51.09 19.6
-1 -9 17 102.49 56.09
1 9 17 47.3 31.1
9 -1 17 109.79 30.8
-9 17 -1 85.19 26.3
17 1 9 42.4 23.3
1 -17 9 105.39 39.3
1 -9 -17 108.39 17.4
9 17 1 46.8 24
-1 9 -17 51.09 13.3
17 -1 -9 96.69 18.2
-1 -17 -9 65.69 17.6
1 17 -9 81.49 17.1
17 9 -1 42.3 16.7
1 17 -9 82.09 25.3
17 -1 -9 53.49 14.7
-1 9 -17 71.29 14.7
-1 -9 17 62.49 28.2
1 -17 9 75.39 28.2
-9 1 17 49.9 34.5
9 17 1 78.49 28.4
-9 1 17 72.39 42.4
-9 17 -1 50.19 24
1 9 17 74.79 34.9
17 -9 1 42.1 17.4
17 -9 1 61.59 15.6
-17 -3 -9 29.7 15.7
9 3 17 54.69 41.3
17 -9 -3 34.5 14.8
9 3 17 43.8 28.7
3 -9 17 52.79 31.7
3 9 -17 37.1 13.6
-9 17 3 43.3 15
-3 17 -9 54.69 31.8
-17 9 -3 51.39 15.1
17 -3 9 26.2 19
17 -3 9 19 20.6
9 17 -3 31.7 17.7
-17 9 -3 32.7 31.4
-9 -3 17 24 29.1
17 -9 -3 37.2 16.5
3 17 9 34.2 68.69
3 17 9 -2.4 30.7
3 17 9 21 34.5
9 -17 3 21.9 15.6
9 -3 -17 62.79 17.6
9 -17 3 43.4 24.7
17 9 3 38.4 16.9
3 -9 17 49.1 44.1
-3 17 -9 67.09 17.1
-9 17 3 57.79 25.1
17 3 -9 32.3 14.6
9 3 17 39.9 58.09
17 3 -9 15 21.3
17 3 -9 8.8 19.2
-3 9 17 -5.3 30.3
9 17 -3 51.59 19.7
-3 17 -9 26.8 30.8
-3 9 17 28.2 35.7
-3 -9 -17 35.4 15.5
3 -17 -9 35.6 16.3
-3 17 -9 50.79 16
-9 3 -17 39.2 13
9 17 -3 90.89 28.4
3 9 -17 39.9 24.3
9 -3 -17 16.9 13.1
-3 9 17 75.29 34.3
3 9 -17 30.4 13.6
-9 3 17 98.99 37
9 -17 -3 31.6 14.7
-17 3 -9 22.6 14.7
-3 9 -17 21.9 13.8
-3 9 -17 20.4 14
3 -17 9 -1.4 23.7
17 -3 -9 56.49 16.6
3 -17 9 42.3 31.9
3 17 -9 27.5 26.9
9 17 3 -3.2 29
17 -9 3 -1.1 44.2
-9 17 -3 47.3 26.2
17 -3 -9 40.7 16
-17 9 3 41 15.1
17 -3 -9 46.5 15.2
3 9 17 26.7 34.8
17 9 -3 42.8 18.9
3 17 -9 46.4 24.2
-3 -17 -9 29.1 19.5
-9 17 -3 40.7 14.9
9 3 -17 33.5 13.8
3 9 17 30.4 31.3
-17 9 3 23.3 25.1
-3 17 9 27.5 30.5
-3 9 -17 42.2 22
-3 17 9 9.9 33.8
17 3 9 52.79 26.3
-3 17 9 90.89 42.1
-9 3 17 74.89 31.6
17 -9 3 38.5 14.1
9 17 3 19.4 21.1
3 17 -9 68.69 18.5
3 9 17 34.3 29.1
17 -9 3 56.89 19.3
3 -9 -17 50.99 15.1
9 -3 17 59.59 29.9
-9 17 -3 22.6 19.3
-3 -9 17 -8 75.19
17 3 9 44.4 23.6
9 -3 17 -44 43.9
-3 -9 17 74.09 27.2
9 -17 5 353.66 29.9
5 -9 17 478.35 70.49
-5 17 -9 218.88 38.7
9 17 -5 260.27 36.9
-5 9 17 331.57 43.6
17 -9 -5 325.17 28.3
17 5 -9 345.87 27
-5 17 -9 380.66 40.3
5 -9 17 319.77 46.2
-9 17 5 306.17 42.2
9 5 17 372.46 46.6
-9 17 5 400.76 29.4
17 -9 -5 319.37 26.8
17 -5 9 334.77 35.5
-5 17 -9 352.76 28.3
-5 9 17 350.76 42.6
5 -17 -9 318.27 29.8
9 17 -5 352.66 49.2
9 -17 5 369.86 42.4
5 17 9 336.47 38.4
9 5 17 408.86 68.99
9 -5 -17 348.97 32.2
-5 17 -9 313.07 30.1
5 9 -17 336.77 40.4
5 17 9 396.16 48.9
9 5 17 341.67 51.79
-17 9 -5 333.17 44.3
9 17 -5 352.26 33.1
-5 -9 -17 333.27 28.8
-17 9 -5 390.76 29.5
5 9 -17 325.67 25.3
-9 5 -17 374.56 26
-9 -5 17 401.26 54.99
9 -5 -17 348.07 27
17 5 -9 375.56 36.8
17 -5 9 354.26 35.6
-5 9 17 390.46 48.9
5 -9 -17 364.36 28.9
-17 9 5 348.57 27.5
-5 9 -17 370.06 28.6
-5 9 -17 337.87 25.5
5 -17 9 282.87 30.5
17 -5 -9 382.26 27.8
17 5 9 351.16 38
17 -9 5 408.56 50.49
-5 17 9 425.96 48.4
-5 9 -17 347.47 35
-9 17 -5 308.47 36.3
5 17 -9 271.87 40.6
9 17 5 373.56 50.89
-5 -9 17 209.18 105.49
-17 5 -9 362.46 26.9
5 -9 -17 333.87 31.1
5 9 17 380.46 50.79
5 -17 9 278.87 33.7
-17 9 5 355.56 44.6
9 -5 17 373.26 52.99
-9 5 17 372.26 56.19
-5 -9 17 413.46 49
9 5 -17 349.17 25.3
17 5 9 338.67 46.6
9 -5 17 310.67 44.9
17 -5 -9 350.86 28.4
17 -9 5 334.37 29.5
9 -17 -5 322.47 28.3
-5 17 9 325.37 41.7
-9 17 -5 393.66 27.6
5 9 17 336.97 41.7
17 9 -5 304.97 32
17 -5 -9 351.46 29.8
5 17 -9 313.57 30.1
5 9 17 234.98 45
5 17 -9 303.27 46.2
-9 5 17 391.96 48.7
9 17 5 260.17 29.5
17 -9 5 328.37 34.4
-9 17 -5 315.47 31.4
-17 -5 9 352.46 54.99
-5 17 9 345.47 49.4
-7 9 17 99.69 32.5
17 -9 -7 124.79 18.5
17 7 -9 153.88 19.2
9 -7 -17 218.78 28.8
17 -9 -7 145.69 19.1
17 7 -9 137.89 20.5
7 17 9 105.09 29.4
-9 -7 17 111.89 30.7
-7 17 -9 186.08 27.1
-9 7 -17 159.58 23.4
-7 17 -9 170.38 20.7
-9 7 -17 161.28 19.9
9 17 -7 125.79 19.7
17 -7 9 143.59 50.29
17 -7 9 149.19 22.5
9 7 17 120.19 36.1
-17 9 -7 177.28 22.4
7 -9 17 141.49 38.7
17 -7 9 172.98 25.5
9 7 17 97.79 30.9
17 9 7 200.78 44.1
-7 -9 -17 195.58 22.6
7 9 -17 168.68 26.4
9 -7 -17 144.39 19.6
7 17 9 139.89 28.3
9 -17 7 129.29 20.3
9 -17 7 176.48 27.4
-7 17 -9 201.28 37.8
7 9 -17 152.38 18.4
-9 17 7 208.98 26.9
-9 17 7 176.48 34
9 7 17 153.88 58.79
9 17 -7 203.58 30.6
-17 7 9 144.39 28.3
-7 9 17 146.19 40.2
-7 9 17 149.29 39.1
-9 17 7 160.98 26.5
7 -17 -9 140.29 20.1
7 -9 -17 184.48 25.7
7 -17 9 139.69 27.5
17 7 9 131.79 33.3
-17 7 -9 168.38 21.5
7 -17 9 143.79 24.5
-7 -9 17 141.09 32
7 9 17 143.29 33.6
9 7 -17 153.18 18.3
9 17 7 127.59 26
-17 9 7 106.79 26
-17 9 7 146.29 20.1
9 7 -17 115.99 26.6
-7 17 9 230.48 36.5
9 -7 17 123.59 34.5
17 -9 7 146.29 25.5
7 9 17 165.78 33.6
17 -7 -9 148.39 29.3
-7 9 -17 216.98 25.8
17 -7 -9 166.18 25.2
-9 7 17 154.38 40
9 17 7 160.08 30.1
7 -9 -17 151.08 21.5
7 9 17 93.99 46.3
-7 9 -17 168.68 23.5
7 17 -9 180.58 22.9
17 -7 -9 127.79 18.7
-17 -7 9 266.97 48.2
-9 17 -7 201.88 35.6
17 -9 7 170.08 22.3
7 17 -9 130.79 24.6
-7 17 9 166.18 43.9
-7 17 9 185.08 30.5
-9 7 17 145.19 43.7
-9 7 17 89.69 31.3
9 -17 -7 169.18 24.9
-9 17 -7 162.08 19.8
17 9 -7 162.48 22.9
17 -9 7 183.78 46.5
9 -7 17 133.29 39.9
-9 17 -7 155.68 20.9
9 17 -9 95.29 25
-9 9 17 82.29 32.7
-17 -9 9 102.39 43.9
-9 17 9 86.09 25.1
9 -9 17 36.5 36
9 9 -17 133.39 18.7
9 -9 -17 112.69 20.1
9 17 9 143.29 31.3
-17 9 -9 114.49 20
-17 9 9 82.89 24.7
17 -9 9 99.39 21.3
9 9 17 115.49 32.7
-9 17 9 142.39 32.6
17 -9 -9 144.39 20.4
-9 -17 9 152.08 32
-9 -9 17 105.29 33.3
-9 9 -17 114.79 19.2
17 -9 -9 130.49 20.2
17 9 -9 90.89 21.1
9 9 -17 99.19 22.4
9 17 -9 79.39 17.5
-9 9 17 166.48 42.9
9 -9 17 55.19 39.2
9 9 17 123.69 31.4
9 -17 9 147.59 24.9
9 -9 -17 81.79 19.5
-9 17 -9 96.09 18.4
17 9 9 179.28 40.5
17 -9 9 137.19 42.9
17 -9 9 100.09 24.4
-9 9 -17 89.09 19.6
9 -17 -9 132.49 21.7
-9 17 -9 115.39 21.8
17 9 -9 84.89 18.3
-9 9 17 126.99 36.7
9 -17 -9 95.69 17.9
-9 17 -9 62.29 36.2
9 -17 9 82.39 26.1
9 17 9 150.28 31.4
-17 11 -1 112.89 19.4
-11 -1 17 77.29 32
1 17 11 80.19 47.9
1 11 -17 75.89 15.9
1 -17 -11 104.39 21.5
11 -17 1 82.59 17.2
-1 11 17 62.89 32.8
1 17 11 108.69 41
11 1 17 43.8 25.8
-11 17 1 81.49 17.4
-1 11 17 72.79 30.2
-17 -1 -11 102.99 18.7
-1 17 -11 71.09 32.2
11 -1 -17 115.69 18.1
11 -1 -17 91.99 21.9
-11 17 1 115.19 28.3
1 -11 17 95.49 32.2
-17 1 11 42.5 49.9
-17 11 -1 77.39 30.1
-1 -17 11 149.49 48.5
1 11 -17 84.69 17.1
17 11 1 123.09 22.2
17 1 -11 132.09 21.6
-1 17 -11 144.59 20.6
11 17 -1 117.49 22.8
-1 11 17 56.69 31.9
17 1 -11 42.9 16
17 -11 -1 125.89 19.5
-1 -11 -17 97.39 18.6
11 17 -1 114.89 33.4
17 -1 11 79.29 22.6
17 1 -11 72.79 22.9
17 -11 -1 118.39 19.8
-11 1 -17 127.19 17.8
11 1 17 162.18 58.79
-1 17 -11 77.19 27.1
17 -1 11 137.99 25
1 11 -17 75.59 22.3
1 17 11 81.89 31.7
17 -11 -1 137.49 40.6
1 -11 17 132.59 50.09
11 1 -17 99.69 22.6
17 1 11 93.49 22.9
17 11 -1 86.39 19.7
1 11 17 83.79 35.7
-1 11 -17 79.49 20.7
17 -11 1 95.89 41.6
11 1 -17 80.49 16.4
17 -11 1 105.79 17
-11 -1 -17 101.39 15.7
-1 -17 -11 36.8 20.4
17 -11 1 92.19 20
-11 1 17 100.89 35.5
-11 17 -1 80.29 23.8
11 -1 17 77.29 27.8
-1 17 11 122.59 36
1 -17 11 109.09 37.6
17 1 11 81.99 24.8
1 -11 -17 116.29 19.6
1 11 17 93.29 32.7
11 17 1 77.19 32.3
-1 17 11 71.99 33
1 17 -11 97.19 28.4
-11 17 -1 79.69 26.2
-1 17 11 78.69 40.7
-1 -11 17 120.09 57.79
-1 11 -17 89.69 17.4
1 17 -11 62.09 32.1
-17 1 -11 108.29 18.7
-1 11 -17 87.69 17
-17 11 1 77.99 17.7
-11 17 -1 113.29 19.2
-17 11 1 135.59 29.7
-11 1 17 -29 56.19
1 17 -11 102.99 17.4
17 -1 -11 94.79 17.4
17 -1 -11 89.69 18.9
1 11 17 103.99 31.7
-17 -1 11 59.49 47.2
11 -1 17 74.99 54.09
-1 -11 17 56.59 28.8
11 17 1 93.29 23.9
11 -17 -1 123.19 17.8
17 -3 11 3.5 18.1
-11 17 3 30.7 15.8
11 17 -3 -46.2 29.3
17 3 -11 7.6 16.3
-17 3 11 60.69 50.39
17 11 3 -21.3 18.1
-3 11 17 56.09 32.6
3 -11 17 23.9 41.4
-3 11 17 -23.1 31.3
3 -11 17 54.39 33.9
-11 -3 17 -24 33.8
11 -17 3 -3.2 15.2
11 3 17 -51.99 61.29
11 17 -3 5.6 18.2
-3 11 17 -1.5 32.2
-17 11 -3 4.9 15.3
-17 -3 -11 12.4 17
-3 17 -11 6.6 34.8
-3 17 -11 -9.8 18.1
3 -17 -11 -11.9 15.8
17 -11 -3 26.2 16.9
-3 17 -11 8.8 16.2
-17 11 -3 5.7 31.7
11 -3 -17 8.3 15.6
-11 17 3 4 22.1
3 17 11 16.3 30.9
3 17 11 15.7 45.2
11 -3 -17 21.1 18.7
11 -17 3 -3 24.9
17 3 -11 16.2 20.2
3 11 -17 0.5 19.1
17 -3 11 -7.8 19.2
-3 17 -11 -11.5 29.3
3 11 -17 36.3 15.1
-3 -11 -17 21 17.7
11 3 17 -10.3 27.8
17 -11 -3 10.6 14.5
17 3 -11 21 21.4
11 3 17 37.4 63.79
-11 3 -17 3.6 14.9
3 -11 -17 -5.4 15.4
17 -11 3 -10.2 14.2
-3 11 -17 -19 19.4
3 11 17 -3.1 34.3
3 11 17 -26.1 32.1
17 -3 -11 -3.1 16.2
17 -3 -11 9.5 15.1
-3 17 11 4.7 37.1
-3 -17 -11 27.7 21.8
3 -11 -17 13 17.6
11 3 -17 -7.1 13.3
-3 11 -17 17.2 15.2
-17 11 3 -53.39 22.8
11 -3 17 24.7 45.9
11 -17 -3 12.9 13.6
17 -11 3 67.19 35.8
-11 3 17 -4.3 32.3
3 11 17 -10.7 26.5
-11 17 -3 -30.3 25.1
11 -3 17 -26.9 25.1
3 -17 11 -40.9 30.4
-17 3 -11 0.8 16.3
-11 17 -3 19.3 16.9
3 17 -11 19.9 22.8
11 17 3 -2.4 25.9
-11 3 17 -42.7 33.1
17 11 -3 3.9 15.9
17 3 11 30.8 23.4
3 17 -11 11.2 14.8
-11 -3 -17 4.4 12.9
17 -11 3 28.5 19.1
17 3 11 4.6 25
11 17 3 -6.1 31.5
-17 11 3 34.5 17.5
-3 -11 17 -13.3 25.2
3 17 -11 21.3 28.7
-3 17 11 -3.1 32.4
-3 17 11 44.1 32.2
-11 17 -3 -8.5 17.8
-3 11 -17 -36 15.5
17 -3 -11 14.5 18.5
-17 -3 11 68.59 45
-3 -11 17 145.19 74.09
17 -11 -5 142.39 18.8
5 -11 17 147.99 42.5
-5 17 -11 174.98 38.6
5 11 -17 107.79 22.6
11 5 17 121.39 40.2
-5 -11 -17 149.59 22.1
-17 11 -5 179.68 38
5 -17 -11 103.99 19.2
-5 -17 11 158.88 31.6
17 -5 11 144.19 23.6
11 17 -5 128.99 33.1
11 -17 5 145.29 20.3
-5 11 17 108.49 35.2
17 -11 -5 139.49 18.2
5 17 11 222.18 50.09
5 11 -17 134.39 18
-11 17 5 154.58 21.1
11 5 17 138.79 32.2
-5 17 -11 155.08 20.6
11 17 -5 96.89 19.4
11 -5 -17 141.69 20.5
17 5 -11 165.48 24.4
11 -5 -17 132.69 20.3
17 -5 11 147.69 24.1
5 17 11 99.69 31.5
-17 5 11 63.19 58.69
5 -11 17 127.19 42.7
17 -5 11 105.79 61.99
17 5 -11 165.98 26.5
-17 11 -5 161.78 21.6
-5 17 -11 123.19 21.7
-5 11 17 123.39 37.2
5 -17 -11 158.68 23.4
11 5 17 193.78 66.39
-17 -5 -11 152.38 22.6
-5 11 17 165.98 38.8
11 -17 5 99.79 25.7
-11 5 -17 137.99 19.3
-11 -5 17 149.39 35
17 5 -11 127.29 19.3
-11 17 5 140.09 28.5
17 -11 5 119.99 19.6
17 -11 5 144.89 23.9
-5 11 -17 160.38 20
17 11 -5 193.78 22.7
5 17 -11 111.99 24.3
11 -5 17 258.97 45.9
5 11 17 154.68 29.2
17 -5 -11 145.79 21.4
-11 5 17 74.89 31.3
-11 17 -5 132.29 20.3
-11 5 17 191.38 41.5
-5 11 -17 126.69 20.5
-11 17 -5 155.38 21.2
5 -11 -17 145.19 21.9
11 -17 -5 118.19 18.5
11 5 -17 170.58 24.1
-5 17 11 124.99 39.2
17 -5 -11 144.09 19.8
5 17 -11 122.59 19.3
5 11 17 167.78 38.9
-5 -17 -11 156.38 28.7
5 -17 11 117.49 29.8
11 17 5 133.69 34.3
-11 17 -5 164.88 33.9
11 -5 17 142.09 31.3
-17 -5 11 143.19 49.99
17 -11 5 176.78 38.9
-5 11 -17 135.29 21.9
5 -11 -17 131.09 20.9
17 5 11 141.39 30
-11 -5 -17 157.78 19.2
-5 17 11 146.79 32.5
17 5 11 97.29 28.4
5 -17 11 153.48 30.8
5 11 17 175.28 37.6
-17 11 5 180.58 29.6
-17 11 5 124.39 20.4
-5 17 11 95.69 36.4
-5 -11 17 116.09 29.5
-17 5 -11 155.58 20.8
17 -5 -11 162.08 22.1
17 -7 11 24.5 20.1
-7 11 17 19.7 32
-11 7 -17 -2.4 16.2
7 17 11 44.4 28
-17 11 -7 -26.9 17.1
-7 17 -11 33.9 16.3
11 7 17 -33.4 63.59
-7 17 -11 18.1 18.7
17 -11 -7 22.5 15.3
-7 11 17 12.4 34.5
7 11 -17 9.8 19.3
11 7 17 30.9 37.8
7 -17 -11 8.1 18.8
11 -17 7 38.5 23.1
-17 7 11 -23.5 23.9
-17 7 11 15.3 54.49
17 -7 11 11.5 20.7
17 -11 -7 5.8 15.4
11 -17 7 22.2 19.5
7 17 11 18.5 46.8
11 17 -7 -16 26
7 -17 -11 0 17.8
17 7 -11 0 17.6
17 7 -11 24.6 17.1
-7 11 17 53.99 36.7
-11 -7 17 20.5 32.6
17 -7 11 5.8 45.1
-17 -11 7 29.4 45.8
7 11 -17 17.8 14.9
7 -11 17 -8 34.2
-11 17 7 60.79 24.8
11 7 17 21.6 27.6
-7 -17 11 18.3 22.2
-7 -11 -17 27.1 21.7
11 -7 -17 31.6 17.7
11 -7 -17 -6.4 17.3
-11 17 7 -2.6 16.3
11 17 -7 13.8 16.8
7 11 17 15.8 28.2
11 -17 -7 -6.9 14.9
7 -11 -17 18.3 17.7
7 -17 11 -16 25.7
11 7 -17 19.4 22.3
11 7 -17 2.2 15.1
-7 17 11 -57.09 39.4
-17 -7 11 -85.89 41.1
17 -7 -11 9.1 15.1
17 7 11 49.6 30.7
11 -17 -7 -19.2 23.9
-17 11 7 16.7 24.3
-11 17 -7 4.4 31.7
7 -11 -17 15.1 18.2
11 -17 -7 14.5 20.4
-7 17 11 7.9 26.8
17 7 11 32.4 30.7
-17 7 -11 38.4 18.8
-11 17 -7 -10.3 16.5
-7 -11 17 51.79 32
11 17 7 -12.2 28.1
7 -17 11 -33.7 34.1
-11 7 17 -23.1 33.9
-11 7 17 -27.2 46.2
-7 17 11 15.1 30.5
7 17 -11 19.9 22.8
11 -7 17 -41.3 28.4
7 11 17 7.1 28.8
-11 7 17 16.4 29.3
-11 17 -7 -9.4 17.3
11 -7 17 6.2 38.9
7 -17 11 -31.9 23.8
-11 -7 -17 16.6 15.6
17 -11 7 39.9 35.9
17 -11 7 17.3 16.8
-17 11 7 14.1 18.1
17 -7 -11 -5.1 17.6
7 17 -11 18.1 17.1
17 -7 -11 30.4 20.1
17 -11 7 43.8 22.9
-7 11 -17 14.1 16.6
17 11 -7 14.2 15.7
-7 11 -17 -2.1 16.9
-11 -9 17 168.48 37.5
-11 17 9 165.48 28.5
-9 11 17 159.28 31.8
17 9 -11 113.69 20.7
11 -9 -17 149.79 22.7
17 -9 11 207.08 43.9
9 -11 17 116.09 35.4
11 -9 -17 82.49 20
17 -9 11 124.99 23.9
-11 9 -17 137.59 20
9 -17 -11 133.49 20.9
11 9 17 122.39 36.6
9 -17 -11 165.48 27.1
11 17 -9 181.48 31.3
9 -17 -11 147.79 25.2
-9 -17 11 174.38 31.7
-17 9 11 157.38 26
-9 17 -11 150.98 23.3
9 11 -17 150.88 21.9
-17 11 -9 146.39 22.4
17 -11 -9 152.58 20.6
-9 11 17 133.09 38.8
-17 -11 9 193.98 45.5
11 9 17 71.29 30
-11 9 -17 144.89 21.3
-11 17 9 109.29 27.4
9 17 11 128.39 29.4
17 -9 11 129.79 26.7
17 -11 -9 154.08 20.3
17 11 9 222.58 47.3
-17 9 11 97.89 56.89
11 -9 -17 133.19 18.7
-9 11 17 138.79 41.3
11 -17 9 184.98 27.7
11 -17 9 167.38 30.8
9 11 -17 132.69 18.4
-9 17 -11 167.68 20.3
17 9 -11 161.88 21.8
11 17 -9 171.98 21.4
-17 11 9 162.58 28
17 -11 9 107.39 23.2
-11 17 -9 104.19 21.3
17 -11 9 170.48 38.9
-9 17 11 131.29 27.6
17 -11 9 138.79 23.9
9 11 17 74.19 29.5
9 17 -11 148.59 28.4
-9 11 -17 176.28 21.7
-9 11 -17 135.89 21
-11 9 17 214.78 45.4
-9 17 11 115.69 46.9
9 -17 11 163.78 32.4
11 9 -17 138.39 19.5
11 -17 -9 190.48 27.1
11 -9 17 114.19 35.6
17 11 -9 114.39 18
17 9 11 155.58 36.3
-17 9 -11 96.39 21
11 -17 -9 149.69 21.2
17 -9 -11 193.18 25.6
9 -11 -17 124.79 21.6
11 17 9 145.69 29.9
9 17 -11 105.69 17.5
11 -9 17 148.19 37.7
-11 17 -9 169.18 20.5
-11 9 17 153.18 32.6
11 9 -17 107.99 22.9
-11 -17 9 160.78 30.4
-9 -11 17 141.19 36
9 -11 -17 136.09 22.5
-11 17 -9 175.38 38.3
-17 -9 11 92.89 43
-9 17 11 161.68 30.3
9 11 17 138.19 35
9 -17 11 174.18 32.2
11 -17 -9 128.39 24.1
17 -9 -11 146.99 22.3
17 -9 -11 148.49 19.9
-11 9 17 164.98 48.6
11 -11 -17 210.48 27.3
11 11 -17 189.08 23.4
-11 -11 17 225.58 38.8
-11 -17 11 135.09 30.4
11 -17 11 227.68 34.1
-11 17 11 127.39 27.5
17 -11 11 150.28 26.1
-11 11 -17 163.98 22
-11 11 -17 159.88 25.8
17 11 -11 139.39 19.9
-17 -11 11 174.78 41.8
-11 11 17 129.59 48.8
-17 11 -11 122.59 25.5
11 11 17 203.98 37.2
11 11 17 140.79 32.3
11 17 -11 154.68 28.1
11 -11 17 148.59 39.9
11 -17 -11 230.28 31.9
11 -17 -11 173.08 29
17 11 -11 152.68 24
11 -11 -17 184.88 26.4
17 11 11 163.88 38.7
-11 11 17 128.69 29.7
-11 17 11 199.58 32.9
17 -11 11 191.18 39.1
17 -11 -11 169.48 21.6
17 -11 11 184.98 29.6
-17 11 11 162.18 29.1
11 11 -17 159.08 23.2
17 -11 -11 155.08 23.4
11 17 11 120.09 27.7
-11 17 -11 147.19 19.2
-17 11 11 209.68 51.59
11 -11 17 156.68 39.6
11 -17 -11 180.08 23.8
-11 11 17 188.18 41.7
-11 17 -11 171.08 25.7
11 -11 -17 205.58 28.4
11 17 -11 200.08 29.1
11 -17 11 163.48 31.9
13 -1 -17 37.6 21.3
-13 -1 17 29.1 33.9
1 17 13 -4.3 25.7
1 -13 17 23.2 47.6
17 1 -13 20.8 18
17 -13 -1 49.99 34.9
-1 -17 13 66.29 50.39
13 -17 1 9.5 17.4
13 17 -1 14.5 31.2
-1 13 17 10.3 27.5
-13 17 1 12.3 17.4
-13 17 1 16.9 23.9
17 -1 13 21.5 20.5
13 1 17 26.4 25.8
-1 -13 -17 27.9 19.5
-17 -1 -13 -10.2 17.8
-1 -13 -17 0.2 18.4
1 -17 -13 21.5 17.9
-1 17 -13 47.6 26.8
-17 1 13 -31.4 48
17 -1 13 26 20.9
13 -17 1 4.4 28.4
17 13 1 -4.9 19.1
1 -17 -13 26.2 19.1
-17 13 -1 -8.1 18
-13 1 -17 9.1 16.8
13 -1 -17 33.1 16.6
-1 17 -13 5.4 15.7
-1 13 17 9.8 30.8
-17 13 -1 -0.8 27.6
-1 13 17 23.2 30.8
1 -13 17 -5.2 29.6
13 1 17 14 60.49
17 -13 -1 -18.1 18.2
1 17 13 42.1 40.2
1 13 -17 10.2 16.1
17 -13 -1 3.2 16.3
1 13 -17 35.5 17.1
17 1 -13 26.3 17.2
13 17 -1 17.2 18.7
-1 -17 13 28.2 25.2
13 -17 1 -27.7 24.9
17 13 -1 27.4 18.8
1 -17 13 48.3 41.7
17 -13 1 18.8 18.2
13 -1 17 87.69 54.99
13 1 -17 5.8 15.7
1 -13 -17 44.8 19.6
1 17 -13 42.7 26.1
17 1 13 2.3 23.2
-17 13 1 17.4 19
1 17 -13 -25.7 34.6
1 13 17 26 29.7
17 -13 1 4 16.1
13 -17 -1 -7.3 15.9
-13 1 17 17.7 36.1
-1 17 13 22.2 31
-17 13 1 -11.5 25.5
-13 17 -1 -26.6 22.9
-17 -1 13 -23 44.8
-1 -17 -13 3.4 18.3
13 -1 17 22.8 25.9
-1 17 13 43.6 35.7
-13 -1 -17 12.7 16.6
-1 -13 17 81.09 55.59
1 13 17 -8.5 25.9
13 17 1 2.7 32.4
1 13 17 17.9 32.3
-1 13 -17 25.5 17.6
-1 13 -17 -17.8 18.6
1 17 -13 25.3 15.9
17 -1 -13 11.1 16.9
-13 17 -1 -0.5 18.7
17 -13 1 4.7 34.1
-17 1 -13 4.5 17.8
-1 13 -17 25.5 16.9
1 -13 -17 14.7 19.1
-1 -13 17 7.6 29.5
17 -1 -13 0.1 17.8
-1 -17 -13 7.6 18.6
17 1 13 -29.9 22.5
13 17 1 21.6 21.7
1 -17 13 26.3 24.7
13 -17 -1 30.3 27.8
-17 13 -3 168.08 32.8
17 3 -13 160.48 22
3 -17 -13 144.19 22.3
-3 -13 -17 146.49 22.6
-3 -17 13 191.38 29.7
3 -13 17 187.68 37.8
17 -3 13 78.39 64.79
3 -13 17 212.48 43.3
17 -3 13 145.69 25.7
-3 17 -13 158.88 24.6
3 13 -17 205.68 30
-17 -3 -13 168.58 23.3
3 17 13 141.39 43
17 13 3 202.48 24.5
17 3 -13 196.38 23.2
-3 13 17 114.39 33
-3 13 17 127.49 36.8
3 13 -17 227.08 27.3
-13 17 3 166.18 22.7
13 17 -3 196.78 38.7
-17 3 13 115.19 49.1
13 -3 -17 139.99 23.9
13 -17 3 112.69 25.7
-13 -3 17 200.88 39.4
13 -17 3 134.89 35.5
13 17 -3 190.88 23.2
-3 13 17 137.09 35
13 3 17 166.98 68.99
13 -17 3 201.78 28
13 -3 -17 217.48 23.6
17 -3 13 141.29 25.5
17 -13 -3 142.89 20
-3 17 -13 194.48 22.1
-13 3 -17 170.68 20.8
17 -13 -3 187.28 25.9
13 3 17 105.79 28.4
-13 17 3 169.28 28.9
17 3 -13 222.88 27.1
3 17 13 212.08 34
3 -17 -13 145.79 22
-17 13 -3 167.98 23.9
-3 17 13 174.98 39
-13 17 -3 185.58 31.1
17 13 -3 122.89 19.8
-3 13 -17 164.18 20.9
3 13 17 227.18 39
17 -13 3 150.98 20.6
-3 -17 -13 224.98 34.1
17 -13 3 196.98 33
-17 13 3 196.28 28.2
3 -13 -17 170.18 24.6
3 17 -13 196.58 27.6
13 17 3 187.38 28.9
17 -3 -13 169.78 20.3
17 3 13 183.08 30.1
17 -3 -13 208.08 25
13 -17 -3 140.39 26.3
-3 17 13 176.58 40.8
13 -17 -3 126.49 27.4
13 17 3 119.19 33.3
-13 17 -3 203.78 23.9
17 -13 3 178.68 23.6
-3 13 -17 180.58 23.5
-13 3 17 114.69 44.2
-17 -3 13 124.29 45.2
-13 3 17 177.78 35.6
13 -17 -3 166.88 21.2
13 -3 17 234.48 53.29
13 -3 17 166.48 29.7
3 -17 13 177.48 39
17 3 13 128.99 25.8
-13 3 17 162.18 44.9
3 -13 -17 148.99 23
-17 13 3 173.88 24.8
-13 -3 -17 191.78 26.1
13 -3 17 117.59 23.1
3 13 17 109.19 27.4
-3 17 13 230.18 38.1
-17 3 -13 197.78 22.8
-3 -13 17 179.18 33
-3 -13 17 204.68 72.69
13 3 -17 194.08 22.2
3 -17 13 162.38 30
-3 -17 -13 172.38 24.3
17 -3 -13 153.08 21.7
3 17 -13 146.59 27.3
-13 17 5 411.36 44.6
17 -5 13 464.55 37.5
5 -17 -13 484.95 35.8
17 -5 13 379.96 39.5
13 -17 5 459.55 47.2
-13 5 -17 451.35 32.6
13 17 -5 403.86 52.59
-13 -5 17 416.66 64.79
-17 13 -5 443.26 57.69
13 -5 -17 429.06 36.2
-5 -17 13 463.05 48
-17 13 -5 396.76 33.9
13 -5 -17 413.86 34.5
17 5 -13 451.25 34.1
-13 17 5 458.35 33.1
5 -13 17 373.26 48.6
17 5 -13 396.96 39.3
5 13 -17 325.67 34.4
-17 -5 -13 489.35 39.2
-17 5 13 413.86 47
13 5 17 440.26 50.59
-5 -13 -17 305.57 38.8
-17 -13 5 445.56 53.59
13 -17 5 438.76 46.1
-5 17 -13 395.76 38.7
5 13 -17 466.55 32.2
13 -17 5 404.76 34.4
-5 13 17 439.26 61.99
13 -5 -17 438.66 32
-5 13 17 445.46 55.49
5 -13 17 495.05 65.69
13 17 -5 437.86 34
5 17 13 463.55 68.29
17 -13 -5 403.76 32.7
17 5 -13 426.76 38.8
17 -13 -5 382.56 32
-5 17 -13 446.46 31.7
5 -17 -13 476.75 36.6
17 -5 13 403.46 60.99
-5 13 17 410.76 57.09
5 17 13 457.05 50.59
-17 5 13 448.86 61.29
13 5 17 484.35 79.69
5 -17 13 403.86 55.99
5 13 17 450.75 48.7
-5 -13 17 430.26 50.39
-13 17 -5 500.35 37.7
13 -17 -5 395.86 32.3
-5 -17 -13 401.86 39
13 5 -17 455.95 33.1
-5 13 -17 471.85 35.3
-5 17 13 404.96 57.29
17 -13 5 579.44 59.09
13 -5 17 401.36 44.8
-13 5 17 288.37 44.3
17 13 -5 451.35 34.6
17 5 13 499.15 47.6
-5 -17 -13 417.96 44
13 -5 17 398.86 39.4
17 -13 5 327.27 40
17 5 13 383.26 48.1
-5 17 13 448.86 60.29
13 -17 -5 477.35 42.2
5 17 -13 433.96 43.5
5 -17 13 461.85 57.69
-17 13 5 466.55 44.5
-17 5 -13 443.96 35.2
-13 5 17 388.16 53.89
-13 -5 -17 361.16 30.9
5 17 -13 433.06 32.7
5 13 17 427.56 57.09
17 -13 5 372.96 33.6
13 17 5 435.76 57.69
-17 -5 13 493.85 75.39
5 -13 -17 412.26 36.5
5 -13 -17 457.55 35.3
-5 13 -17 377.96 33.2
17 -5 -13 360.76 36.2
-13 17 -5 363.66 51.09
13 5 -17 393.76 37.9
13 -5 17 378.76 49.7
-13 5 17 465.95 45.8
13 -17 -5 424.16 41.6
17 -5 -13 420.06 31.1
-5 17 13 422.16 60.19
17 -5 -13 445.36 38.3
-17 13 5 366.46 36
-17 13 -7 173.38 25
-7 13 17 207.98 38.4
17 -13 -7 264.17 27.8
13 -7 -17 198.98 27.7
7 13 -17 204.38 28.1
7 17 13 127.49 40.5
17 -7 13 151.68 24.5
-7 -13 -17 231.28 29.2
-13 -7 17 183.58 39.7
17 -7 13 264.67 51.19
-7 -17 13 196.48 31.5
-13 17 7 217.88 29.4
7 -13 17 271.97 43.7
17 -7 13 133.89 23.3
7 17 13 166.88 31.7
13 17 -7 208.28 28.3
13 7 17 247.48 75.99
-17 -13 7 179.88 45.4
13 -17 7 185.28 24.9
-17 7 13 177.38 29.3
-17 7 13 240.18 56.99
7 -17 -13 213.98 26.8
17 -13 -7 203.28 29.2
13 7 17 248.38 35
7 13 -17 153.68 20.6
-13 7 -17 200.68 25.3
-13 17 7 202.18 24.3
7 -17 -13 179.68 24.4
13 -7 -17 174.48 23.5
13 17 -7 183.78 33.7
13 -17 7 234.08 32.4
-7 17 -13 165.48 26.3
-7 13 17 225.58 36.9
13 -7 -17 233.68 27
-7 17 -13 184.48 21.2
13 7 17 266.67 71.29
17 7 -13 148.59 21.8
-7 13 17 157.98 38.9
-13 7 17 184.18 44.3
7 -17 13 224.08 43.4
-17 7 -13 228.88 26
13 -7 17 218.58 28.5
-13 -7 -17 267.57 30.5
17 -7 -13 197.58 27.3
17 -13 7 165.38 23.3
17 13 -7 141.19 20
7 13 17 206.28 34
-17 13 7 229.38 30.9
13 7 -17 210.88 29
-17 -7 13 196.28 45.9
13 -7 17 226.48 45.7
-13 7 17 218.78 32.7
13 17 7 184.08 35
17 -13 7 195.48 26.2
13 -17 -7 203.98 25.9
13 -7 17 120.59 26.7
7 17 -13 205.98 23.7
-13 7 17 166.38 38.9
7 -13 -17 167.58 24.4
-13 17 -7 212.08 27.2
13 7 -17 187.38 24.8
-13 17 -7 178.78 34.6
13 -17 -7 223.18 29.8
-7 17 13 261.47 34.8
-7 -17 -13 200.28 26.4
-7 -13 17 250.27 38.3
17 -13 7 211.38 36.8
-13 -17 7 213.18 34.5
-7 17 13 197.98 36.3
13 -17 -7 193.58 29.4
17 -7 -13 218.08 25.6
17 -7 -13 255.37 28.7
7 -13 -17 247.58 32.1
-13 17 -7 175.58 23.9
-7 17 13 119.39 39.1
-17 13 7 188.98 24.7
-7 13 -17 253.57 32.5
-7 13 -17 181.48 22.7
7 -17 13 204.88 34.6
7 13 17 220.08 37.8
17 7 13 239.88 36.3
7 17 -13 227.98 30.4
-17 9 13 20.9 24.9
-17 9 13 -37.4 48.4
13 -17 9 19.2 23.7
13 -9 -17 4 21
-9 13 17 0.4 39.2
13 -17 9 -43.1 31.3
17 -9 13 -1.4 21.1
17 -13 -9 4.8 18.1
-13 9 -17 10.4 21
13 17 -9 12 26.3
9 -13 17 14.8 35.7
17 -9 13 47.3 41.7
-9 13 17 -25.7 28.1
-9 -17 13 18.2 25.5
9 13 -17 37.7 18.6
9 17 13 -22 25.7
17 9 -13 2.7 17.1
9 -17 -13 -4 21.8
-9 13 17 -53.09 35.6
-9 17 -13 10.7 15.7
17 9 -13 -19.4 20
-13 17 9 1.1 22.9
17 -13 -9 -21.9 13.9
9 -17 -13 2.2 19.8
13 -9 -17 -39.7 21.3
13 17 -9 7.8 15.6
13 9 17 -21.5 28.6
-13 -9 17 16.3 35
17 -9 13 -1.5 21
9 -17 -13 12.6 20.5
-17 -13 9 8.8 39.5
13 -17 9 -14 25.9
-9 17 -13 -19.9 22.2
9 17 13 40.8 43.4
-17 13 -9 2.6 21.5
13 9 17 10.1 37.8
9 13 -17 2.5 17.3
13 -9 -17 3.7 15.3
-13 9 17 37.9 32
17 -9 -13 -39.5 19.3
-9 17 13 -4.2 25.7
-9 17 13 8.3 42.5
9 -13 -17 9.5 19.8
13 9 -17 5.6 17.6
9 -13 -17 -6.9 17.3
13 -17 -9 51.89 20.4
-17 -9 13 11 42.7
13 -17 -9 -20.7 17.3
-9 13 -17 19.4 16.1
-9 -17 -13 -52.29 29
-13 17 -9 -4.2 58.19
17 9 13 -26.6 32.2
17 -13 9 43.8 24.2
17 -13 9 -18.6 34.3
17 -9 -13 -61.99 24.3
9 -13 -17 15.2 21.2
-13 17 -9 4.5 15.9
9 13 17 -6.1 27.1
9 17 -13 -17.2 15.1
9 -17 13 11.4 27.4
-9 -13 17 51.59 33.1
-9 17 13 -22 26.3
17 -13 9 0.7 21.8
-9 13 -17 10.3 22.2
13 9 -17 -5.3 19.7
-13 17 -9 20.8 20.9
-13 9 17 -11.6 25
13 -17 -9 52.29 25.2
-13 9 17 -6 36.7
13 17 9 -12.7 28.8
17 -9 -13 -17.6 14.8
9 17 -13 -19.3 21.8
13 -9 17 -25.2 25.4
17 13 -9 12.7 15.7
9 13 17 -11.4 30.5
-13 -17 9 -44.5 28.3
13 -9 17 30.1 40.5
-13 -9 -17 -8.1 22.9
-17 13 9 -13.9 22.6
-17 9 -13 -6.8 22.1
-11 13 17 -2.3 27.3
13 -11 -17 -31.2 21.5
17 -13 -11 -3.6 14.9
17 11 -13 -19.1 16.4
17 11 -13 32 24.2
-17 -13 11 66.59 39.4
13 -11 -17 12.3 23.2
13 -17 11 9.2 28
13 -17 11 -12.2 32.4
-11 -17 13 26.2 27.8
-13 11 -17 5.5 16.8
11 -17 -13 5.6 21.4
-11 17 -13 -6.7 15.1
11 13 -17 -21 17.6
11 -13 17 1.7 34.6
-13 11 -17 36.2 24.2
17 -11 13 9.2 21.1
13 11 17 -8 35.2
17 -11 13 -1.2 22.4
11 -17 -13 1.7 18.3
13 17 -11 9.9 23.6
-17 11 13 13.6 22.5
-13 -11 17 8.1 33.9
11 13 -17 -33.8 15.9
11 17 13 10.7 42.9
13 17 -11 -14.1 15.4
13 -17 11 37.8 29.3
-11 17 -13 19.8 25.3
17 13 11 -38.7 40
13 -11 -17 -18 15.4
17 -11 13 -14.8 34.4
17 -13 -11 25.8 21.5
11 -17 -13 70.59 28.6
-11 13 17 -48.5 32.2
13 11 17 32 30.4
11 17 13 11.1 24.5
-17 11 13 49.9 47.2
-13 17 11 0.4 23.3
-11 13 17 31.8 34.6
-11 13 17 29.6 45.9
-17 13 -11 0.7 24.4
13 -11 17 -25.4 37.2
-11 -13 17 -68.79 30.5
13 17 11 15.9 27
11 13 17 -4.2 30
13 -17 -11 -2.1 28.6
17 -11 -13 46.2 39.6
11 -13 -17 14.7 21.5
11 -13 -17 8.9 25.8
17 -11 -13 -6 15.2
11 17 -13 23 15.5
-17 13 11 -12.2 20.3
-13 17 -11 -3.8 13.8
17 -13 11 -64.39 32.7
17 -13 11 28.2 26.5
-13 17 -11 5.3 24.6
-11 13 -17 -6.4 23.6
13 11 -17 22.6 18.6
17 -13 11 15.8 21.5
-13 -17 11 7.8 28.9
-11 17 13 -13.2 25.2
17 13 -11 27 15.6
-13 11 17 45.1 26.2
-17 11 -13 -3.9 24.5
-11 13 -17 -8.3 16.7
11 -17 13 0.1 28.1
13 -11 17 16 29.7
-17 -11 13 23.2 40.2
-13 11 17 -19.4 38
17 -11 -13 -8.3 21.4
17 11 13 6.8 33.1
13 -17 -11 -21.2 19
11 13 17 -8.5 31.1
-11 17 13 2.6 24.6
11 -13 -17 -23.7 15.6
13 11 -17 -3.1 18.3
13 -17 -11 -0.3 18.7
-13 11 17 2.2 30.2
13 -13 -17 7 14.2
-13 -17 13 -2.1 30.7
13 17 13 34.4 26.4
13 17 -13 28.8 16.8
13 13 -17 17.8 15.4
-13 -13 17 1 33.5
13 -13 17 19.4 33.8
-13 13 -17 42.6 26.8
-17 13 -13 17.1 25.5
17 -13 13 52.59 24.4
13 13 -17 18.3 21.3
13 -17 -13 33.8 28.8
13 -13 -17 69.99 28.7
-13 17 13 2 22.6
-13 13 17 84.49 35.8
-13 13 -17 30.4 15.6
17 -13 -13 12.3 21.6
-13 13 17 36.8 27.9
17 -13 -13 35.9 16
13 -17 -13 7.6 16.9
17 -13 13 13.5 32.9
-13 17 -13 13.7 14.9
-13 13 17 -26.9 29.1
-17 13 13 37.2 22.1
13 -17 13 -2.2 27.5
13 13 17 22.3 31.4
17 13 -13 23 16.2
13 -13 17 -16.8 39.1
13 -17 -13 56.09 21.9
17 -13 13 21.7 20.6
-13 17 -13 5.9 25.6
13 -13 -17 13.1 24.3
13 13 17 29.6 30.1
17 13 13 93.69 36.8
-17 -13 13 64.39 40.2
-15 1 -17 94.69 20.6
17 -15 -1 111.89 31.6
-1 -17 15 115.29 31.2
-17 1 15 46.4 46.2
-17 -1 -15 96.19 22.4
-1 15 17 97.89 35.2
17 -1 15 56.29 73.19
-1 17 -15 73.19 16.7
15 -17 1 78.59 29
15 17 -1 21.8 35.1
-17 15 -1 78.19 28.4
15 -17 1 58.59 24.6
-1 15 17 115.19 29.9
15 1 17 86.89 26.6
-15 17 1 75.79 25.3
17 1 -15 101.99 19.4
15 17 -1 45.8 18
-1 -15 -17 79.59 23.3
15 -1 -17 69.89 19.6
1 15 -17 80.09 17.9
17 -1 15 74.99 23.7
-15 -1 17 75.69 39.6
1 -17 -15 35.1 20.6
17 -15 -1 109.39 21.1
1 17 15 128.39 38.4
17 1 -15 99.89 20.7
1 17 15 98.89 29.6
1 -17 -15 38.5 21.5
15 -17 1 70.49 20.2
1 -15 17 20.9 46.5
17 15 1 58.29 21.3
-17 15 -1 55.99 22.3
-1 -15 -17 62.69 23.8
15 -1 -17 93.99 19.3
-15 17 1 76.69 22.1
1 -15 17 117.69 34.6
17 -15 -1 98.09 21.5
15 1 17 26.5 68.49
17 -1 15 88.89 22.7
-1 -17 15 68.49 52.69
-1 15 -17 81.59 17
15 -1 17 63.69 23.8
15 17 1 112.09 22.2
15 1 -17 112.39 18.7
17 -15 1 21.5 31
1 15 17 80.09 31.6
17 -15 1 46.5 19.5
-15 17 -1 62.29 22.4
-1 -17 -15 111.99 23.3
15 -17 -1 92.29 29
-1 17 15 88.39 35.1
-1 -17 -15 71.59 21.9
-15 1 17 92.39 41
-17 -1 15 -13 43.3
-1 17 15 76.59 28.7
17 1 15 63.59 22.1
17 -1 -15 62.79 17.8
15 17 1 61.19 34.2
17 15 -1 111.39 21.4
15 -1 17 139.49 59.49
17 1 15 103.89 24.4
-1 -15 17 178.78 57.19
1 17 -15 59.39 15.9
15 -17 -1 62.19 19.6
-15 17 -1 106.29 25.1
1 -15 -17 69.79 21.8
17 -15 1 55.59 18.8
15 -17 -1 47.8 22.4
15 1 -17 54.69 19.3
-17 1 -15 95.19 21.8
1 -17 15 41.5 41.5
1 15 17 131.09 31.3
-17 15 1 72.89 21.9
-1 -15 17 71.29 30.5
1 -15 -17 90.79 21.7
1 -17 15 59.89 30
-15 -1 -17 70.29 20.5
17 -1 -15 106.39 22.7
-17 15 1 69.49 24.9
3 -17 -15 713.83 44
-3 -17 15 657.93 52.79
15 -3 -17 684.83 37.5
-3 15 17 531.25 60.49
3 17 15 660.63 68.99
-3 15 17 743.93 56.69
-3 -15 -17 665.23 46.5
17 -3 15 750.52 46.1
17 3 -15 705.83 40
-15 17 3 649.83 50.49
15 -3 -17 666.13 46.5
-15 3 -17 658.03 41.4
17 15 3 722.03 42.6
-15 17 3 573.74 43.7
-17 15 -3 658.23 55.99
15 3 17 691.13 55.19
15 -3 -17 606.94 41.5
3 -15 17 741.03 65.39
17 -15 -3 650.73 41.5
-15 -3 17 589.94 70.59
17 -3 15 746.33 105.29
17 3 -15 589.54 47
15 -17 3 652.13 40.2
3 -17 -15 604.14 44.7
3 15 -17 620.04 39.9
3 15 -17 661.93 39.4
-17 -3 -15 738.03 44
15 3 17 787.92 124.99
15 17 -3 768.82 42.1
-3 -15 -17 595.84 45.7
15 -17 3 647.44 51.19
3 -15 17 817.12 79.89
-17 15 -3 687.13 45.1
17 -3 15 682.23 49.1
15 -17 3 654.73 55.69
15 17 -3 588.64 62.39
17 3 -15 738.03 43
3 17 15 715.13 53.39
17 -15 -3 681.23 40.4
-3 15 17 608.44 57.19
-17 3 15 523.55 81.79
-3 17 -15 676.63 38.7
17 15 -3 758.52 74.19
15 3 -17 650.53 41.1
15 -3 17 599.54 94.99
15 3 -17 642.44 39.4
-3 15 -17 687.53 39.2
-15 -17 3 538.85 62.29
-17 -3 15 658.93 78.19
15 17 3 638.34 63.09
15 -17 -3 692.33 40.1
17 -15 3 628.04 46.7
17 -3 -15 700.13 37.9
17 -15 3 658.63 56.39
3 -17 15 509.35 67.29
-3 17 15 669.13 57.99
-3 -15 17 759.02 82.19
15 17 3 611.44 45
17 15 -3 700.83 40.6
-17 15 3 713.53 43.7
-17 3 -15 690.03 43.8
-15 17 -3 607.24 52.69
3 -17 15 666.83 60.19
3 15 17 627.94 52.49
-3 15 -17 666.93 44.7
17 3 15 692.03 53.39
-3 -15 17 685.23 54.99
17 3 15 714.43 48.8
-3 -17 -15 672.23 46.8
-3 -17 -15 680.73 44.6
-15 17 -3 651.83 43.5
-17 15 3 659.23 50.79
-3 17 15 687.53 65.69
-15 3 17 619.84 59.19
3 -15 -17 743.63 45.4
3 -15 -17 648.44 43.3
3 17 -15 709.73 39.3
-15 -3 -17 644.94 41
15 -3 17 662.83 50.49
15 -17 -3 638.74 44.3
3 15 17 706.73 61.09
15 -3 17 609.64 44.6
17 -15 3 686.93 41.3
17 -3 -15 623.04 43.4
-15 3 17 631.84 73.39
-5 15 17 1405.86 80.49
15 -17 5 1323.17 71.39
-17 5 15 1382.16 69.79
-5 15 17 1450.35 76.99
17 5 -15 1400.86 60.19
17 -15 -5 1394.56 58.79
5 -17 -15 1448.96 61.99
-17 15 -5 1185.38 72.89
-5 17 -15 1356.86 57.19
5 -15 17 1369.46 85.59
15 17 -5 1414.46 74.49
5 15 -17 1451.05 59.19
-5 -15 -17 1395.26 64.59
5 17 15 1523.95 80.09
-5 -17 15 1435.06 70.19
15 -5 -17 1460.65 62.19
-15 5 -17 1433.26 62.69
17 -15 -5 1463.25 59.79
15 5 17 1402.26 73.19
-15 17 5 1366.56 67.29
5 15 -17 1415.06 58.59
5 17 15 1434.96 71.39
17 -5 15 1434.26 66.39
-17 15 -5 1420.06 63.29
-5 -15 -17 1420.56 65.09
-17 5 15 1452.05 98.19
15 -5 -17 1393.76 62.09
17 -5 15 1474.45 103.49
15 17 -5 1403.96 59.59
5 -15 17 1319.67 85.49
-15 -5 17 1401.46 87.69
15 -5 -17 1351.66 57.19
5 -17 -15 1435.66 64.09
-17 -15 5 1443.06 87.49
-17 -5 -15 1418.66 63.29
-15 17 5 1369.96 60.89
17 5 -15 1365.36 60.19
-5 15 17 1397.66 75.09
17 -5 15 1430.36 64.59
15 -17 5 1375.36 61.89
17 5 -15 1353.86 61.79
15 -17 5 1444.76 69.99
-15 17 -5 1198.48 61.39
15 -17 -5 1363.26 60.29
15 5 -17 1339.67 64.49
-5 17 15 1334.17 77.19
17 15 -5 1462.55 86.39
15 -5 17 1357.36 67.29
-15 -5 -17 1422.66 60.29
-17 15 5 1486.25 67.89
-15 5 17 1381.86 73.79
15 17 5 1406.76 77.89
-15 5 17 1454.45 91.69
5 -17 15 1424.76 82.09
17 -5 -15 1388.76 56.99
-17 -5 15 1432.66 89.79
17 -15 5 1432.96 72.59
17 -5 -15 1395.06 63.69
5 -15 -17 1425.06 62.29
5 17 -15 1399.96 58.19
15 5 -17 1396.96 60.29
15 -17 -5 1384.66 58.89
5 15 17 1483.45 82.09
-5 -15 17 1433.56 73.89
17 5 15 1494.75 73.59
17 15 -5 1448.46 59.89
15 -5 17 1402.96 99.39
15 -5 17 1354.96 63.89
5 15 17 1404.76 71.39
15 5 -17 1339.87 58.79
-15 -17 5 1534.55 76.29
17 -15 5 1388.36 61.49
-15 17 -5 1310.07 71.49
15 17 5 1370.16 63.39
-17 5 -15 1303.67 62.59
-5 -17 -15 1342.57 64.49
-17 15 5 1238.58 61.19
17 -15 5 1409.86 66.19
5 -17 15 1314.97 77.69
17 -5 -15 1381.16 61.89
-5 -17 -15 1390.56 86.19
5 -15 -17 1454.95 64.09
-5 17 15 1368.26 80.19
-5 15 -17 1493.25 58.89
15 17 -7 965 65.39
17 -15 -7 905.41 45
-17 15 -7 772.72 52.19
-7 15 17 910.91 65.69
17 -15 -7 936.41 48
7 15 -17 892.51 45.5
15 7 17 1063.19 64.59
-7 -15 -17 926.11 58.79
17 7 -15 903.01 50.49
7 -15 17 979.7 74.49
-7 17 -15 862.21 53.59
15 -17 7 893.01 63.19
-17 -15 7 883.11 75.89
-17 15 -7 966.5 68.89
7 17 15 903.01 71.19
-7 -15 -17 916.11 56.89
-7 15 17 1031.8 68.69
-15 17 7 998.4 55.09
17 7 -15 868.11 48.3
-15 7 -17 960.7 52.49
-17 7 15 751.72 89.19
7 -17 -15 838.32 52.99
15 -7 -17 937.31 51.89
15 17 -7 923.31 45.9
-17 7 15 916.81 57.89
15 -7 -17 952.6 44.7
-15 -7 17 846.32 77.39
17 -7 15 885.21 84.99
7 -17 -15 894.21 49
17 -7 15 982.6 52.29
17 -7 15 928.21 53.79
15 -17 7 884.31 50.59
15 -7 -17 921.71 53.29
-7 -17 15 927.11 59.19
-7 17 -15 887.61 45.3
7 -17 -15 924.71 49.7
15 -17 7 931.31 61.19
7 15 -17 826.82 46
-15 17 7 859.21 51.09
-7 15 17 869.11 68.69
7 17 15 907.71 60.39
7 -15 -17 843.82 45.8
-7 15 -17 849.81 50.99
15 -17 -7 827.92 47.7
15 -17 -7 963 48
15 -7 17 896.51 51.49
-17 15 7 855.21 50.89
7 15 17 986.3 60.39
-7 15 -17 954.9 45.7
-7 17 15 852.31 65.59
17 15 -7 859.51 71.69
17 -7 -15 820.82 55.69
15 -7 17 995.6 82.09
17 -15 7 893.01 64.09
17 -15 7 883.21 55.09
17 -15 7 966.7 52.19
7 -15 -17 939.41 52.29
-15 7 17 783.92 77.89
-17 -7 15 971.1 80.59
7 15 17 883.71 69.79
7 -15 -17 946.71 51.19
-15 -7 -17 883.51 52.29
15 7 -17 860.61 48.4
-7 17 15 967.8 71.19
17 -7 -15 927.21 44.4
7 -17 15 929.01 68.09
15 17 7 833.52 68.49
7 17 -15 921.61 44.8
-7 -15 17 926.81 64.09
15 -7 17 861.71 54.29
-15 -17 7 853.61 64.79
-17 15 7 928.91 54.89
17 -7 -15 864.51 50.49
-7 -17 -15 879.41 58.29
17 7 15 859.41 64.09
-15 7 17 900.51 58.59
-15 17 -7 783.02 68.79
-7 17 15 838.42 67.89
15 7 -17 837.72 50.19
-15 17 -7 847.42 52.69
17 15 -7 962.3 46.4
-17 7 -15 917.21 52.29
-15 7 17 958.5 65.89
15 -9 -17 208.68 27.9
17 -9 15 241.48 47.5
9 17 15 219.48 41.4
9 -17 -15 308.37 43.6
9 17 15 289.27 36
-9 17 -15 241.48 33.1
-9 -17 15 217.58 32.5
-17 15 -9 244.68 30.7
-15 -9 17 181.18 43.1
-15 9 -17 210.48 30.3
-9 15 17 232.38 39.6
15 -9 -17 259.47 28.5
15 -9 -17 221.48 30
15 -17 9 217.78 32.4
17 -15 -9 270.37 35.9
9 -17 -15 251.27 34.6
15 17 -9 294.67 31.3
15 -17 9 252.47 33.6
15 17 -9 221.78 32.4
17 -9 15 278.47 38.7
9 15 -17 262.57 30.6
-9 17 -15 272.47 29.1
17 9 -15 279.17 33
-17 9 15 268.37 31.7
-15 17 9 269.97 41.4
-17 9 15 185.18 50.49
17 -9 15 286.17 40.3
17 9 -15 220.88 30.1
-17 -15 9 201.08 44.1
15 -17 9 320.17 36.6
-9 15 17 179.98 35.2
-9 15 17 278.47 37
9 -17 -15 194.28 26.2
9 -15 17 219.08 38.1
15 9 17 278.97 38
9 15 -17 263.37 31.9
17 -15 -9 288.17 29.8
-9 -15 17 303.47 41.3
17 -9 -15 299.37 29.3
9 15 17 317.07 41
-9 15 -17 208.28 30.2
17 15 -9 273.17 29.6
-15 9 17 269.47 31.8
-9 17 15 220.48 33.2
-17 9 -15 235.38 30.7
17 -15 9 221.98 30.1
-9 17 15 295.37 45.2
-17 15 9 204.98 27.2
9 -15 -17 287.57 31.7
9 15 17 258.47 34.7
17 -9 -15 262.57 35.5
-15 9 17 166.48 44.1
15 -9 17 245.48 28.8
15 -17 -9 243.78 32.3
9 17 -15 236.98 29.4
15 -17 -9 248.98 28.5
9 -17 15 275.87 39.3
-9 15 -17 178.98 21.3
-15 17 -9 264.07 31.5
17 -9 -15 280.17 31.6
17 -15 9 267.77 36.8
-15 9 17 197.18 32
-17 -9 15 178.48 45
17 -15 9 302.57 43.7
15 9 -17 244.68 35.1
17 9 15 336.87 39.3
-15 17 -9 263.97 28.9
9 -15 -17 270.47 31.5
15 -9 17 252.27 32
15 17 9 279.37 37.8
-15 -17 9 317.57 39.9
15 9 -17 273.67 38.8
9 -15 -17 244.98 29.4
-9 17 15 358.26 38.2
11 -15 17 143.69 36.5
-15 -11 17 171.88 43.4
11 15 -17 117.89 25.4
17 -11 15 121.49 22.4
15 -17 11 78.99 32.1
15 -17 11 161.58 34
-11 17 -15 120.29 19.2
-11 17 -15 136.09 32.4
11 -17 -15 128.49 31
15 -11 -17 141.59 33.3
11 15 -17 148.79 21.6
11 -17 -15 105.29 20.2
15 -17 11 178.08 35.2
17 11 -15 78.89 17.9
17 -11 15 93.59 39.8
11 -17 -15 183.78 28.3
17 -11 15 108.99 25.3
-17 15 -11 145.09 32
17 11 -15 124.99 28.9
-11 15 17 264.17 46.5
-11 15 17 148.99 29.7
15 -17 11 127.79 30.1
15 17 -11 140.39 20.1
-17 11 15 123.09 47.8
-15 17 11 166.08 27.3
-15 11 -17 156.98 31.2
17 -15 -11 169.58 27.9
-15 11 -17 107.29 18.7
15 11 17 144.29 33.7
-11 15 17 138.59 38
-11 15 17 152.08 33.9
17 -15 -11 134.59 19.1
11 17 15 161.88 39.7
-11 -17 15 176.78 35.5
-17 -15 11 112.99 43.6
-17 11 15 139.59 27.3
15 -11 -17 141.29 28.6
15 -11 -17 136.19 18.7
11 17 15 114.79 27.9
11 -15 -17 111.69 28.3
-17 11 -15 119.79 31.3
11 -17 15 176.48 35.3
15 -11 17 159.98 41.1
17 15 -11 92.09 16.7
-17 15 11 150.78 26.4
-17 -11 15 173.48 45.5
-11 -15 17 200.58 41
17 -11 -15 85.59 39.2
-11 17 15 108.69 29.2
11 -15 -17 154.68 31.4
17 -11 -15 164.88 28.8
-15 17 -11 157.58 32.2
15 -11 17 93.29 29.2
15 11 -17 116.59 21.6
17 -15 11 154.88 26.5
17 -11 -15 128.49 19.2
15 -17 -11 110.69 19.9
17 -15 11 88.89 31.8
11 17 -15 168.68 21.9
-15 11 17 160.38 30.6
-15 17 -11 111.09 18.7
15 17 11 137.49 33.9
17 -15 11 156.98 35.3
-15 -17 11 162.98 37.9
11 15 17 120.39 28.9
-11 15 -17 85.99 31.1
17 11 15 97.89 30.3
15 11 -17 124.49 26
-11 15 -17 151.68 19.9
11 -15 -17 114.99 18.5
-15 11 17 192.48 47.3
11 15 17 115.29 31.2
-11 17 15 147.89 32.3
15 -17 -11 95.39 26.9
17 -15 11 106.09 26.3
13 17 15 221.88 40
-13 15 17 375.56 49.9
-13 -17 15 287.07 44.1
15 -17 13 368.36 46
-15 17 13 333.47 41.9
-17 15 -13 221.78 27.2
-17 -15 13 370.86 48.6
-13 17 -15 311.97 28.1
15 17 -13 299.57 29.3
17 13 -15 266.87 29.8
17 -13 15 325.07 37.4
17 -15 -13 242.38 30.2
15 -17 13 340.27 38
15 13 17 233.88 37.1
13 17 15 319.87 46.4
-13 15 17 272.97 32.5
17 -15 -13 269.87 28.5
-15 13 -17 281.57 28.4
17 -13 15 365.36 47.6
15 -13 -17 289.27 34.8
15 -17 13 247.28 32.1
13 15 -17 265.57 29.6
-17 13 15 303.57 40.9
15 -13 -17 320.47 27.8
17 -13 15 336.97 45.1
15 13 17 192.68 33
13 -15 17 361.96 57.99
-15 -13 17 313.37 47.1
-15 13 -17 197.48 46.8
-17 15 -13 209.48 39.6
13 -17 -15 326.47 30.3
17 -13 -15 294.27 43.6
13 15 17 302.17 35.9
13 17 -15 235.18 27.4
15 -13 17 299.97 38.8
13 -15 -17 254.77 28.4
-15 -17 13 244.88 41.8
-13 -15 17 262.27 42.5
15 -17 -13 280.67 29.6
17 15 -13 328.77 29.5
17 -15 13 301.37 33.2
17 -13 -15 280.97 26.7
17 -15 13 261.07 30.7
17 13 15 242.18 36.5
15 17 13 272.87 34.8
-17 13 -15 229.88 39.1
15 -13 17 322.87 42.5
-15 13 17 288.37 44.3
-17 -13 15 304.47 50.19
15 -17 -13 310.07 41.7
15 13 -17 262.67 30.5
-13 15 -17 301.87 29
-15 17 -13 282.67 53.69
-17 13 -15 246.28 27
13 15 17 280.57 37.3
-17 15 13 240.48 37.5
-15 13 17 235.68 30.4
17 -15 13 272.77 35.9
-13 17 15 268.37 32
13 -15 -17 321.47 34.9
-15 17 -13 255.97 28.2
13 -17 15 266.67 37
-15 -15 17 615.14 62.99
15 15 17 571.34 52.49
-15 17 -15 609.84 35
-15 -17 15 672.03 63.49
-17 15 -15 588.14 34
-15 15 17 659.33 49.6
-17 -15 15 605.14 70.19
15 -17 -15 485.75 48.2
15 17 15 590.54 50.29
15 17 -15 632.64 35.3
-15 15 -17 549.74 34.9
-15 17 15 571.84 44.8
17 -15 -15 569.54 50.99
17 15 -15 577.94 35.3
15 -17 -15 598.74 34.8
15 -15 -17 566.44 34
17 -15 -15 569.44 34.3
15 15 -17 639.44 36
15 -15 17 604.54 62.49
15 -15 -17 498.45 50.29
15 17 15 647.34 72.59
17 -15 15 724.03 64.39
-17 15 15 600.14 44.6
17 -15 15 549.05 63.39
15 -17 15 548.05 55.69
15 15 17 596.94 50.99
17 15 15 565.54 62.49
17 1 17 149.39 92.39
17 -17 1 9.7 21.9
17 -1 17 39 66.69
1 17 17 9 25.7
-1 17 -17 38.8 15.4
1 17 -17 18.4 14.7
17 -1 -17 16.1 16.4
-17 -1 17 29.9 42.1
-1 17 17 31.4 27.4
17 1 -17 7.4 16.5
-1 17 17 0.8 31.2
1 17 17 76.09 36.1
17 -1 17 -5.5 21.3
17 1 17 30.6 24.3
17 17 1 38.4 19.5
17 -17 -1 9.8 21.9
-1 -17 -17 35.6 26
-17 1 17 -3.4 42.1
-1 -17 17 37.2 30.7
1 -17 17 51.89 32.2
-17 -1 -17 -2.9 25.7
17 -17 -1 33.7 28.7
-1 -17 -17 35.9 26.6
1 -17 -17 13.6 24.6
17 -17 -1 -23 20.9
17 -17 1 52.59 21.1
1 -17 17 -29 46.6
17 17 1 -41.4 41
1 -17 -17 35.8 26.8
17 -1 -17 -34.8 23.9
17 1 -17 3.2 24.3
-17 17 -1 4.1 21.9
-1 -17 17 116.59 57.59
-17 17 -1 8.8 24.1
-17 17 1 46.1 24.9
-17 1 -17 -15.9 24.7
17 -17 1 -4.1 28.9
-17 17 1 51.79 24.9
17 17 -1 38.4 17.6
17 17 -1 -53.99 36.7
17 -3 -17 336.27 44.5
17 -17 3 425.06 44.8
-3 17 -17 390.86 31.9
-17 17 -3 431.86 49.99
-17 3 17 413.46 50.69
17 3 -17 407.56 32.7
-17 -3 17 398.16 54.69
3 17 17 347.47 40.6
17 -3 17 444.96 45.4
-17 -3 -17 380.06 46.4
-17 3 -17 389.26 42.8
-17 17 -3 439.76 45.2
17 -17 -3 386.16 54.09
17 -17 3 421.96 50.29
17 -3 17 374.66 65.59
17 17 -3 515.65 65.79
17 17 3 486.05 69.69
17 -3 -17 439.06 31.7
3 17 -17 445.66 33.1
17 17 -3 415.36 35
17 17 3 417.56 35.4
-3 17 17 379.36 49.8
3 17 17 402.56 48.6
17 -3 17 413.56 38.9
-3 -17 -17 445.36 48.6
-3 17 17 467.75 58.59
3 -17 -17 458.05 42.1
17 -17 -3 396.56 37.9
17 -17 -3 327.07 37.1
3 -17 -17 426.46 43.2
17 -17 3 382.26 38.5
-3 -17 17 380.46 99.39
3 -17 17 451.85 54.19
-17 17 3 387.56 43.4
-3 -17 17 363.26 52.59
17 3 17 396.36 48.4
-17 17 3 423.46 44.7
17 3 -17 418.46 44
-17 -17 3 364.46 62.49
-17 3 17 426.36 56.99
-3 -17 -17 445.46 48.4
3 -17 17 413.26 62.39
5 17 -17 968.9 46.8
17 5 -17 918.81 54.49
17 17 -5 922.71 70.19
-17 -5 -17 951.4 61.59
-5 -17 -17 869.41 62.09
17 -5 -17 987.5 57.39
-17 5 17 770.72 83.49
17 -17 -5 938.21 49.1
17 -17 5 929.71 58.39
17 -5 -17 964.9 45
-5 -17 -17 986.7 60.69
-5 17 -17 981.6 46.2
-5 17 17 1016.3 68.89
5 17 17 1063.29 67.29
5 -17 17 974.8 79.49
5 17 17 968.7 59.79
5 -17 -17 904.11 52.39
5 -17 -17 892.21 52.69
-5 -17 17 976.6 65.49
-17 -17 5 942.61 75.29
-17 -5 17 1002.4 85.09
17 17 5 945.91 73.59
-17 5 -17 963.6 56.39
-17 17 -5 880.51 57.59
5 -17 17 994.9 79.19
17 -17 5 909.81 59.69
17 -5 17 905.31 98.49
17 -17 5 882.31 52.89
17 -5 -17 871.71 56.89
-17 17 5 981.2 55.59
-17 5 17 912.91 59.69
-17 17 -5 857.51 59.59
17 -5 17 927.31 51.39
-17 17 5 976.5 56.09
17 -17 -5 909.61 50.99
17 -5 17 890.51 55.09
17 5 17 943.71 59.99
17 5 -17 976.6 47.7
17 5 -17 993.7 53.09
17 17 -5 989.6 47.1
-5 17 17 912.91 64.19
7 17 -17 644.14 37.9
-7 -17 -17 442.76 66.49
17 -17 7 616.44 50.69
-7 17 -17 642.34 36.5
-17 -7 17 586.74 75.89
7 -17 17 482.55 65.89
17 -17 7 591.34 54.29
17 -7 -17 640.04 36
17 -7 17 564.34 42.2
17 -17 7 635.74 48.8
17 -7 -17 560.44 50.59
7 17 17 588.34 50.79
-17 17 -7 519.45 51.49
7 -17 -17 631.94 40.3
-17 7 -17 520.65 49.1
17 -17 -7 618.24 39.3
17 -7 -17 637.94 56.59
17 7 -17 526.15 48.2
-17 17 -7 639.34 63.99
-17 17 7 580.94 46.6
-17 17 7 437.76 46.6
7 -17 -17 618.84 45.9
17 -17 -7 653.63 43.9
17 17 -7 522.95 58.79
-17 7 17 524.85 54.19
17 7 -17 603.44 42.6
17 17 -7 634.24 37.8
-17 7 17 631.24 82.79
-7 -17 17 715.63 56.19
-7 17 17 540.15 55.19
7 17 17 568.34 58.29
17 -7 17 620.04 47.9
17 7 17 627.64 55.69
7 -17 -17 560.14 51.19
-17 -17 7 539.45 69.89
-7 17 17 606.24 57.29
17 17 7 814.42 69.29
-7 17 -17 559.34 57.79
17 -7 17 463.35 56.29
17 -17 9 141.49 25.9
-17 -17 9 94.79 41.6
17 9 -17 103.19 32.1
-17 17 -9 98.99 31.9
17 -9 -17 119.59 17.4
17 -9 17 60.09 39.2
9 17 17 89.99 26.5
-17 -9 17 177.08 48.1
-17 9 17 88.19 49.8
9 -17 -17 128.59 19.9
17 -9 17 117.59 22.8
9 -17 -17 110.99 28.3
17 -17 -9 137.29 27.4
17 -17 9 68.79 30.5
17 -9 -17 105.09 29.6
17 9 17 125.29 30.6
-17 17 -9 106.89 17.5
-9 17 -17 119.79 19.1
-9 17 -17 93.49 37.1
17 9 -17 153.58 21.6
17 17 -9 87.59 17.1
17 -17 -9 128.59 19.8
-17 17 9 143.79 27.3
17 -9 -17 93.69 38.7
-17 9 17 129.09 26.8
9 -17 17 129.69 36
9 17 -17 155.18 21.1
-9 -17 17 122.79 33
17 -9 17 110.29 27
17 -17 9 171.18 32.9
-9 17 17 90.89 35.5
17 17 9 121.89 34.4
-17 9 -17 133.39 30.8
-9 17 17 167.78 31.4
9 17 17 103.59 32.9
9 -17 -17 86.79 28.9
-11 -17 17 90.59 35.2
11 17 -17 105.79 18
-11 17 -17 83.29 16.5
11 -17 17 36.2 31.6
17 -17 11 59.49 30.2
11 -17 -17 109.99 25.6
17 -17 11 160.48 37.3
17 -11 -17 91.59 29.8
17 -17 -11 134.79 18.7
11 17 17 108.39 33.1
17 -17 11 112.59 28.8
17 -11 17 115.29 27
17 11 17 87.49 29.9
17 -17 -11 74.29 27.3
17 -17 11 105.19 26.5
-11 17 17 88.29 31.7
11 17 17 85.99 27.8
-11 17 17 112.09 27.3
-17 11 -17 111.49 17.3
17 -11 17 90.39 37.1
-17 17 -11 83.89 17.5
-17 17 11 77.39 21.7
17 17 -11 109.79 17.6
-17 11 17 102.39 26.3
17 11 -17 97.69 19.7
-17 -17 11 177.68 56.59
11 -17 -17 90.79 17.9
17 17 11 -3.7 34.4
-17 -11 17 63.49 41.7
17 -11 -17 63.29 15.3
13 -17 -17 310.77 28.6
-17 13 17 204.58 26.7
17 -17 13 331.67 39.1
17 -13 17 333.47 43
-17 -17 13 322.27 44.6
13 -17 -17 250.37 32
17 -13 -17 305.67 26.5
17 13 -17 317.87 28.3
13 17 17 203.68 34.1
17 13 17 286.77 34.5
17 -17 13 333.97 50.19
13 17 17 281.37 42.1
17 -17 -13 316.57 36.9
-17 17 13 277.37 38.5
17 -17 13 272.17 31.3
17 -17 -13 271.47 28.1
17 17 -13 234.28 26.9
-17 13 -17 295.27 26.7
17 -13 17 263.07 36.8
13 -17 17 324.97 41.3
-13 17 17 303.47 45.4
17 -13 -17 227.88 33.3
17 17 13 340.07 55.99
-17 17 -13 316.27 26.9
-17 -13 17 235.48 47.1
-13 -17 17 217.58 38.9
-13 17 -17 275.57 26.8
13 17 -17 301.77 28.4
-15 -17 17 705.63 62.89
-17 17 15 649.34 45
-15 17 -17 661.03 35.2
-17 15 17 652.93 47.6
-17 15 -17 656.03 35.9
17 -15 -17 604.34 58.39
17 17 -15 678.73 36.4
-17 17 -15 723.43 36.5
17 15 17 729.23 55.49
-17 -17 15 697.53 69.99
-17 -15 17 739.63 73.39
17 -17 -15 662.53 35.3
17 -15 -17 740.63 36.1
-15 17 17 646.14 49.5
15 -17 -17 652.63 56.89
15 17 17 648.54 49.7
17 15 -17 652.73 36.1
15 -17 -17 721.03 36.5
17 -17 -15 630.24 56.29
15 17 17 602.94 57.99
15 -17 17 611.84 62.19
17 -15 17 680.33 63.99
15 17 -17 675.33 36.7
17 -17 15 624.64 60.79
17 -17 -17 543.05 29.6
17 -17 17 538.85 52.39
-17 17 17 485.65 42.2
17 17 -17 521.35 29.3
-17 -17 17 489.95 65.59
-17 17 -17 535.65 29.7
0 0 18 1127.49 100.19
0 -18 0 1006 44
0 18 0 936.71 39.5
0 0 18 991.6 71.19
-18 0 0 985.4 43.8
0 0 -18 983.9 40.3
0 18 0 946.71 64.79
0 18 0 883.11 55.99
18 0 2 106.39 23
0 2 18 120.79 53.69
0 -18 2 157.08 21
-2 18 0 117.79 50.99
0 -2 18 171.08 37.1
0 2 18 143.89 38.7
0 -2 -18 128.49 16.1
0 2 -18 154.68 20.1
0 18 2 148.29 29.3
2 18 0 115.09 32.9
-18 0 2 152.98 19.9
2 18 0 152.88 27.9
0 18 -2 143.69 31.2
2 -18 0 169.88 24.4
-2 0 18 108.29 32.2
-2 18 0 174.68 20.2
18 -2 0 116.49 17.6
-2 0 18 89.69 57.79
0 18 -2 132.29 28.1
-18 2 0 138.69 17.5
0 18 -2 117.39 16.1
2 0 18 103.89 47.9
0 -2 18 231.18 57.49
0 2 18 86.29 54.39
2 0 -18 140.19 16.1
18 0 -2 116.09 22.4
18 0 2 148.89 21.4
-2 18 0 124.89 26.9
0 -18 -2 149.59 19.7
0 18 2 132.39 33.1
-18 0 -2 115.49 17.8
18 -2 0 132.49 20.7
-2 0 -18 123.79 15.4
2 0 18 145.49 40.1
-2 18 2 122.49 35.6
-2 18 -2 6 12.8
2 2 18 -2.5 38.1
-18 2 -2 31.1 14.4
-2 18 -2 -41.1 22.3
-2 18 2 10 12.2
2 -2 18 0.6 49.4
2 -2 -18 -3.9 10.9
2 -18 -2 13.7 15.4
2 -18 2 2.1 15.8
18 -2 -2 10.9 14.8
2 2 18 7.3 40.3
18 -2 -2 13.9 18.1
2 2 18 -66.19 48.2
2 18 2 0.9 25.8
2 2 -18 21.4 11.8
18 -2 2 27.1 16.2
18 -2 2 37.2 19.2
-2 2 18 -4.7 59.09
-2 -2 -18 24.7 12.5
-2 2 -18 30.5 12.5
2 18 -2 -8.5 24.1
2 18 2 34.3 28.8
2 18 -2 1.4 25.5
-2 18 2 5 25.1
-2 2 18 -3.5 31.7
-2 -2 18 6.8 28.8
-18 2 2 10.4 14
-2 18 -2 24.1 33.9
2 -2 18 -23 32.7
-2 -2 18 -3.7 59.19
0 4 18 137.59 38.8
0 18 -4 200.48 31.8
0 -4 18 151.38 53.39
0 18 4 150.58 30.9
4 0 18 159.48 39
0 -4 18 158.68 36.9
0 -18 -4 152.98 19.5
4 -18 0 128.49 17.3
-18 0 -4 144.79 18.7
-18 4 0 129.39 17
-4 18 0 189.08 22.4
18 0 4 245.28 32.4
-4 0 -18 156.08 17.2
4 18 0 146.99 31.2
0 -4 -18 160.08 20.9
0 4 -18 136.59 19.3
18 -4 0 189.38 22.7
4 0 18 116.39 49.4
-4 0 18 113.09 66.09
0 4 18 186.28 59.49
4 0 -18 175.68 20.9
18 -4 0 136.09 20.1
4 0 18 132.69 46.6
-4 0 18 209.98 37.8
-4 18 0 103.09 25.7
0 4 18 167.08 41.1
0 18 -4 200.28 34.8
0 18 4 87.19 31.3
4 18 0 162.48 27.8
18 0 4 148.89 22.9
0 18 -4 142.29 28.2
18 0 -4 142.19 21
18 -4 -2 248.68 24.7
2 18 4 246.48 31.3
4 2 18 256.77 57.89
2 -4 18 239.88 40
4 -2 -18 254.37 23.3
18 -2 4 201.78 23.5
-2 18 -4 245.98 23.9
2 -18 -4 191.48 24.6
-4 18 2 286.27 42.3
18 -2 4 232.18 27.9
4 18 -2 255.87 34.3
18 -4 -2 255.77 28.2
-4 -2 18 237.58 39.1
4 2 18 264.07 43.1
-2 18 -4 277.07 33.5
4 18 -2 207.58 28.8
-18 2 4 285.47 26.9
-2 18 -4 222.48 36.6
-4 18 2 294.47 43.3
-18 -2 -4 265.57 27.3
-2 4 18 329.97 46.4
-4 2 -18 223.68 23.1
-2 4 18 223.18 59.09
2 -4 18 284.37 54.19
2 18 4 268.07 37
-4 18 2 242.88 23.6
-4 -2 18 257.47 68.49
4 2 18 158.48 52.69
4 -18 2 194.68 25.9
2 4 -18 238.38 21.8
-2 4 18 264.17 43
-2 18 -4 275.07 38.7
-2 -4 -18 222.58 23
-18 4 -2 220.28 24.6
4 -2 18 301.77 46.7
2 18 -4 250.77 33.8
2 18 -4 181.88 23.2
-2 -4 18 266.17 36.6
4 -2 18 243.28 50.29
-4 2 18 243.38 48.8
2 4 18 242.68 39.9
-4 18 -2 229.58 24
-2 -18 -4 253.47 29.5
-18 2 -4 188.68 25.4
18 -2 -4 233.28 28.3
-18 4 2 288.77 26.2
2 18 -4 235.18 32.1
-2 4 -18 224.08 22.7
2 -4 -18 275.87 23.9
2 -18 4 243.98 30.2
18 2 4 242.58 29.8
18 -2 -4 210.38 26.2
2 4 18 252.17 44.3
-2 -4 18 212.28 59.99
-4 18 -2 245.88 31.3
-2 18 4 283.17 43.1
4 -2 18 161.98 46.6
4 18 2 262.57 33.3
4 -18 -2 222.98 24.7
-4 2 18 210.68 35.2
2 4 18 221.78 53.99
4 18 2 278.17 33.1
18 4 -2 221.08 32
-2 18 4 230.68 39.4
2 -18 4 202.38 34
-4 2 18 249.58 65.79
-4 -2 -18 244.58 23
18 -4 2 229.68 24.6
4 2 -18 259.47 22.2
18 -4 2 247.58 31.7
18 4 4 435.86 56.09
-18 4 -4 524.85 30.2
4 -4 18 615.74 79.29
-4 18 -4 556.74 30.3
4 -18 -4 498.45 31.1
4 -4 18 599.14 71.29
-18 4 4 545.25 32.1
4 4 -18 524.75 28.4
4 4 18 493.95 61.69
4 18 -4 478.25 38.6
-4 4 18 603.74 71.59
4 -18 4 533.85 34
18 -4 -4 509.75 33.1
-4 -4 18 521.15 55.59
-4 18 4 439.36 46.2
4 -4 18 559.64 61.09
4 4 18 487.45 75.79
-4 4 18 498.55 63.59
18 -4 4 496.05 32.2
4 4 18 481.05 57.99
-4 -4 18 467.45 80.49
18 -4 -4 573.04 31.2
-4 4 -18 580.34 28.6
-4 4 -18 519.45 29.7
4 -18 4 510.95 52.19
-4 18 4 448.66 46.4
4 18 -4 463.15 44.9
4 18 4 474.45 49.5
-4 18 -4 430.96 48.3
4 18 -4 486.55 47.9
18 -4 4 500.95 35.9
-4 4 18 553.54 70.39
-4 18 -4 534.85 64.79
-4 -4 -18 524.55 30.3
-4 18 -4 473.85 38.2
4 -4 -18 495.95 29.5
-18 4 -4 629.54 81.59
-4 18 4 559.54 29.1
18 4 -4 456.85 36.7
4 18 4 477.35 51.99
6 0 18 184.78 37.2
6 18 0 157.78 27.2
18 -6 0 179.08 26.8
0 6 18 103.79 38.4
0 18 -6 156.48 28.9
0 -6 18 177.18 56.89
0 -18 6 262.17 41.8
0 6 18 175.58 38.2
0 6 -18 171.78 21.9
-6 18 0 200.48 24.6
0 18 -6 154.48 22
18 6 0 120.99 21.2
-18 0 -6 144.59 19.2
18 0 -6 162.78 21.3
18 0 6 115.69 24.3
0 -18 -6 189.78 25
18 -6 0 151.68 19
0 6 -18 172.28 21
0 -6 18 154.38 33.2
0 18 6 124.89 32.2
18 0 6 163.28 25.1
6 18 0 162.28 30
-6 0 18 249.38 82.49
0 6 18 150.08 50.19
-18 6 0 199.18 20.4
0 -6 -18 141.19 17.4
0 18 -6 190.48 34.5
0 18 6 218.48 34
-6 18 0 117.49 27.5
-6 0 -18 192.18 18.8
6 -18 0 164.58 20
-18 6 0 216.08 36.2
-6 0 18 111.19 34.8
6 0 -18 172.98 21.2
6 0 18 148.89 48
-2 18 -6 303.97 32.3
6 2 18 244.28 35.6
-2 18 -6 239.48 26.8
-2 18 -6 281.77 38.1
-2 18 -6 300.87 34.7
6 18 -2 242.18 30.8
18 2 -6 282.17 34.9
-18 -2 -6 293.47 28.2
-6 18 2 285.67 26.4
2 -6 18 381.56 55.99
6 -18 2 275.07 27.8
6 -2 -18 313.97 24.6
-18 2 6 272.77 28.8
18 -6 -2 300.97 24.8
-6 18 2 368.96 52.39
2 18 6 319.47 36.4
-2 6 18 349.67 46.3
2 18 6 281.57 34.8
-6 2 -18 287.27 21.9
-6 18 2 243.28 29.8
2 -18 -6 305.87 26.2
18 -6 -2 226.68 27.4
-2 6 18 234.38 49.6
-2 -6 -18 259.17 26.4
2 -6 18 325.07 41
-18 6 -2 302.27 27
6 18 -2 252.57 36.4
2 6 -18 255.97 23.1
-6 -2 18 189.18 80.39
-6 -2 18 245.08 37.5
-6 2 -18 303.17 26.3
6 18 -2 311.57 40.4
6 2 18 288.77 54.19
18 -2 6 288.47 32.8
18 -2 6 315.67 34.5
-2 6 18 253.47 40.6
18 2 -6 267.47 35.7
-18 6 -2 214.08 36.3
6 2 -18 305.97 24.1
6 -2 18 295.87 39.7
18 -6 2 307.67 25.7
2 18 -6 300.97 26.6
18 6 -2 230.18 29.3
2 18 -6 307.07 45.3
-6 2 18 369.36 57.09
18 -2 -6 272.47 28.6
-6 2 18 316.97 72.69
2 -6 -18 281.07 25.4
2 6 18 291.87 36.3
-6 2 18 335.47 49
-18 6 2 369.86 27.6
2 -18 6 281.47 35.4
2 18 -6 225.18 31.7
-2 -6 18 259.57 64.79
-2 18 6 298.97 40.7
-2 18 6 370.66 45.6
2 6 18 249.58 40.9
-6 18 -2 331.67 44.2
2 -18 6 329.57 39.5
2 6 18 194.78 37.9
18 -6 2 230.78 30.7
-6 18 -2 281.37 39.4
6 18 2 338.37 45.5
6 -2 18 295.87 45.7
-6 18 -2 313.77 27.3
18 -2 -6 320.37 30.5
18 2 6 293.77 41.9
2 6 18 310.07 53.69
6 18 2 256.47 39.9
-2 -6 18 319.07 48.4
6 -18 -2 286.07 26.4
-18 2 -6 272.07 25.4
-2 -18 -6 244.38 30
-2 6 -18 256.37 24.4
-2 6 -18 355.56 24
-6 -2 -18 264.87 25.6
6 4 18 706.53 89.29
-6 -4 18 1010 150.68
-6 18 4 836.32 38.8
-6 -4 18 835.02 61.99
18 -6 -4 815.92 40.1
-18 6 -4 853.61 40.6
18 -4 6 796.62 44.5
-4 18 -6 691.03 55.99
6 -4 -18 820.92 38.7
6 -18 4 879.51 40.9
4 18 6 809.02 55.69
-6 18 4 797.02 51.99
6 18 -4 829.42 50.69
18 -4 6 823.12 42.4
6 18 -4 829.32 45.2
-4 -6 -18 870.61 39.3
18 6 4 749.82 68.39
18 4 -6 701.23 43.4
6 4 18 721.43 68.09
-6 4 -18 879.91 39.1
4 -6 18 867.41 75.89
-4 6 18 779.52 66.79
-4 6 18 764.32 68.09
-18 6 -4 810.32 72.89
-6 18 4 796.72 74.69
-6 4 -18 877.81 36.8
-4 18 -6 803.02 38.7
6 -18 4 803.12 54.79
4 -18 -6 811.92 39.8
4 6 -18 849.32 37.3
4 -6 18 913.51 82.09
-18 4 6 792.22 39.4
18 -6 -4 833.82 38.7
6 4 18 827.22 96.29
6 18 -4 675.43 53.19
18 4 -6 726.03 51.09
6 4 18 872.51 62.69
4 18 6 796.62 56.69
-4 18 -6 991.4 67.99
-4 18 -6 780.02 42.7
-6 4 18 815.02 74.19
-4 18 6 696.93 67.49
-4 18 6 809.52 78.39
4 -18 6 721.63 58.09
4 6 18 716.83 63.09
-18 4 -6 835.92 39.9
4 18 -6 829.62 42.7
-6 4 18 894.91 70.09
18 -6 4 787.32 42.8
6 -4 18 672.63 67.69
-6 -4 -18 860.41 38.9
6 -4 18 767.02 83.59
-6 18 -4 886.01 40.3
-6 18 -4 729.33 79.29
-6 18 -4 762.92 54.29
18 -4 -6 861.01 38.9
4 6 18 791.32 79.09
4 -18 6 876.71 43.7
-4 -6 18 901.31 59.79
-4 6 -18 829.72 36.3
-18 6 4 816.32 40.7
18 4 6 783.22 57.49
-4 6 -18 858.21 37.9
6 18 4 779.02 49.9
6 18 4 809.52 57.29
18 -4 -6 883.01 41.4
-4 6 -18 690.23 53.49
18 4 6 722.13 56.59
4 18 -6 737.53 55.19
4 6 18 826.72 92.99
18 -6 4 828.62 41.2
-4 -6 18 984.2 91.09
-6 18 -4 757.32 43.5
6 4 -18 879.31 37.8
-4 18 6 849.41 54.49
4 18 -6 816.82 51.89
4 6 18 798.32 61.19
6 -18 -4 841.92 39.9
4 -6 -18 877.41 39.4
18 6 -4 780.42 43.3
6 -6 18 1013 78.29
18 -6 -6 1014.3 47.1
6 6 18 1096.99 104.29
6 18 -6 1132.79 50.89
6 18 6 1037.7 58.19
18 -6 -6 1134.99 46.3
6 6 18 1054.79 66.89
18 6 6 936.01 66.59
-6 -6 18 1195.68 68.59
-6 18 6 1125.49 46.2
-18 6 6 1135.49 48.3
-6 18 -6 1079.49 63.29
-6 18 6 1114.29 75.29
6 18 6 966.6 60.49
18 -6 6 1005.5 49
-6 6 -18 1052.89 57.39
6 -18 -6 1134.09 48.2
6 -18 6 1132.89 50.99
18 6 -6 1073.49 51.19
6 6 18 1092.19 68.69
-6 6 -18 1158.08 46.1
-6 -6 -18 1117.99 46.8
-6 6 18 1155.28 75.09
18 -6 6 970.3 51.19
-6 18 -6 1080.59 47.2
6 18 -6 1038.2 60.49
6 6 18 1092.49 94.59
-18 6 -6 1081.29 49
-6 18 -6 1134.09 81.59
-6 18 -6 1042.7 48.4
-6 -6 18 1163.58 162.48
6 -18 6 1094.39 62.59
-6 6 18 1155.88 74.29
6 -6 -18 1120.99 47.6
6 6 -18 1144.29 45.8
-6 6 -18 1101.89 46.4
6 -6 18 1075.29 80.49
-6 18 6 1068.39 60.09
6 18 -6 1080.49 55.79
-8 0 18 25.9 34
0 8 -18 51.59 24
0 8 18 47.1 32
0 18 8 138.89 53.79
0 18 -8 43.4 27.8
0 -18 -8 67.29 18.4
-8 18 0 79.59 16.6
8 18 0 62.89 27.4
0 18 -8 35.1 16.6
18 8 0 34.7 17
18 -8 0 70.29 15.7
0 -8 -18 107.79 18.2
8 0 18 42.8 31.8
8 18 0 59.09 23
18 0 8 48.9 21
0 8 18 92.09 30.9
-8 0 18 26.3 81.69
0 -18 8 71.49 40.6
0 18 8 91.39 31.2
8 -18 0 76.89 17.2
0 8 -18 65.89 15.1
-18 8 0 72.59 31.1
0 18 8 29.9 29.9
-18 8 0 67.39 18.1
-8 0 -18 73.89 14.5
8 0 18 23.5 45.4
0 -8 18 71.89 28.7
-18 0 -8 63.99 16.9
0 -8 18 112.99 54.89
18 0 -8 81.29 19.3
8 0 -18 74.39 15
0 8 -18 70.59 15.8
8 18 0 113.99 25.3
-8 18 0 68.59 24.1
18 -8 0 59.39 18
0 18 -8 65.39 26.6
18 0 8 80.19 22.5
0 8 18 28.4 36.4
8 -18 2 -31.1 15.2
-8 -2 18 108.59 91.69
-8 -2 18 -5.1 27.6
-2 8 18 -32.9 37.2
-2 -18 8 -50.69 50.19
8 18 -2 -10.9 18.6
2 8 -18 10.4 12.8
-8 2 -18 4 12.7
18 -2 8 6.1 19.3
-2 18 -8 11.3 26.9
2 18 8 1.8 31.3
-2 -8 -18 1.4 14.9
8 18 -2 -14.2 18.1
18 -8 -2 5.5 15.3
2 18 8 36.7 29.6
2 8 -18 -4.7 13.1
8 -2 -18 -2.2 13.1
18 -8 -2 1.8 14.3
-18 -2 -8 -17.5 16.9
-2 18 -8 4.4 16.8
18 2 -8 -4.1 19.1
-8 18 2 2.1 15.6
-2 18 -8 -0.9 17
18 -2 8 4.5 20
18 2 -8 9.6 18.7
-8 18 2 -0.9 20.9
8 2 18 -14.8 29.6
-18 8 -2 0.7 15.5
-2 18 -8 19.3 29.1
-2 8 18 -47.1 29.9
2 -8 18 -47 31.7
8 2 18 -47.5 39
8 2 18 2.2 49.6
8 18 -2 11.1 25.7
2 -8 18 35.1 43.2
-18 8 -2 -40 29.9
2 -18 -8 4.7 17.3
-2 8 18 30.6 33.6
18 -2 -8 11.3 17.9
-2 -8 18 -10.9 24.7
2 18 -8 1 25.2
18 -2 -8 -14.8 15.8
-8 2 18 14.7 36
-2 18 8 2.9 30.9
18 2 8 -5.1 23.3
2 8 18 4.4 36
2 18 -8 -20.5 14.8
2 8 18 25 32.5
8 2 -18 12.7 13.2
-2 8 -18 -20.8 14.5
8 -2 18 -12.9 28.7
2 8 18 26.3 29
2 8 18 25.8 43.7
2 -8 -18 0.7 13.9
-8 18 -2 -3.6 20.4
-2 8 -18 9.1 24.2
2 -18 8 36.1 26.6
18 -8 2 -6.9 14
-2 8 -18 17.2 13
-18 8 2 -6.9 26.6
8 -18 -2 -11.5 14.9
2 -18 8 45.5 31.4
-2 18 8 9 47.8
2 18 -8 8 23.5
-18 8 2 0.2 16.3
18 8 -2 18.7 17.3
-18 2 -8 10.8 16.5
-8 18 -2 -10.7 15.5
-2 18 8 -41.4 25.5
18 -8 2 3.1 17.3
-8 18 -2 -34.4 25.1
18 2 8 -24 23.2
-2 -8 18 42.9 64.49
8 18 2 -21 28.7
8 -2 18 -22.1 44.9
-2 -18 -8 -8.9 19.3
8 18 2 1.8 22.4
8 4 18 160.48 32.8
8 18 -4 213.88 31.3
8 -18 4 249.88 28.1
18 -4 8 259.17 34
18 -4 8 156.68 24.3
-4 8 18 200.68 40.4
-18 8 -4 178.78 21.5
18 -8 -4 210.38 25.1
-8 4 -18 198.78 24.2
4 -8 18 234.78 42.5
4 18 8 229.18 34
-8 -4 18 190.38 34.4
-4 18 -8 215.28 22.7
4 8 -18 166.78 22.8
-4 -8 -18 170.78 20.9
18 4 -8 143.29 25.8
4 8 -18 245.98 28.8
4 8 -18 222.18 24.4
18 4 -8 173.38 22.4
-4 18 -8 209.78 35.6
4 -8 18 218.38 43.5
-18 8 -4 194.58 35.4
-4 18 -8 155.58 32.2
4 -18 -8 230.88 27.7
-8 18 4 264.07 26.6
18 -8 -4 135.19 18.2
8 4 18 242.18 57.59
4 18 8 138.69 28.9
-8 18 4 143.09 25.1
-8 4 -18 232.18 29.5
8 -4 -18 234.38 31.3
8 4 18 228.28 42.2
-4 8 18 158.28 36.5
8 18 -4 232.48 30.7
-4 18 -8 215.28 22.7
8 18 -4 214.88 27.5
8 -18 4 274.97 42.2
-4 8 18 209.78 38.3
8 -4 -18 226.38 25
-8 18 -4 210.38 27.5
-8 4 18 135.19 35.5
-8 4 18 127.69 38.5
18 -4 -8 168.48 19.9
-4 18 8 233.58 42.6
-4 -8 18 191.88 31.9
4 8 18 174.78 35.1
8 18 4 193.18 28.6
4 -18 8 183.68 27
-8 18 -4 157.28 31.1
18 4 8 177.98 27.7
-4 18 8 236.48 36.7
-4 -8 18 312.37 75.39
8 -18 -4 209.38 26.8
8 -4 18 197.78 48.9
-8 18 -4 240.88 30.5
-4 18 8 237.58 33
-4 8 -18 198.58 26.1
4 8 18 217.88 45.3
-4 8 -18 214.28 20.7
-4 8 -18 139.39 19.2
4 18 -8 215.98 22.8
8 18 4 206.78 33
18 4 8 175.98 30.1
4 8 18 196.68 35
18 -8 4 188.98 26.2
18 -4 -8 225.58 27.2
18 8 -4 196.58 23.1
-18 4 -8 205.48 22.7
4 18 -8 215.88 30.9
18 -8 4 155.78 21.6
4 -18 8 194.98 31.5
-18 8 4 174.38 27.8
8 -4 18 231.98 37.7
-18 8 4 230.38 28.7
4 -8 -18 265.07 26.7
4 8 18 250.87 51.59
8 4 -18 198.28 22.1
4 18 -8 130.39 25.6
18 -8 -6 359.66 29.7
-6 18 -8 294.67 35.8
-18 8 -6 318.27 55.89
8 -18 6 439.86 33
6 -8 18 300.17 45.2
18 6 -8 352.16 33.8
-6 18 -8 327.87 30.4
6 18 8 395.06 48.6
-6 18 -8 315.57 31
6 8 -18 323.37 26.9
18 8 6 387.06 44.4
8 6 18 468.75 65.79
-6 8 18 302.87 41
18 -6 8 378.86 37.6
8 -6 -18 379.16 30.6
-8 6 -18 331.07 40.4
8 6 18 329.27 41.3
-18 6 8 367.66 33.1
18 -6 8 349.37 34
8 18 -6 364.76 37.7
6 -18 -8 344.57 29.3
-18 6 8 370.76 44.6
8 -6 -18 347.57 32.2
8 -18 6 315.27 46.9
8 6 18 293.27 39.4
-8 18 6 366.46 41.5
-6 -8 -18 365.26 32.7
18 -8 -6 360.46 29.4
6 8 -18 312.47 42.4
-8 -6 18 376.56 54.79
-8 18 6 339.27 28.2
-8 18 6 384.16 41
-18 8 -6 353.66 32.6
-6 8 18 334.57 42.8
8 18 -6 327.37 32.1
-6 8 18 432.56 58.19
-6 18 -8 295.67 43
-8 6 -18 336.27 28.9
6 18 8 301.27 45
8 18 -6 294.47 39.6
-18 8 6 303.97 30.3
6 8 18 396.16 61.99
8 18 6 341.17 41.9
6 8 18 299.57 36.5
8 -18 -6 358.36 29.1
8 -6 18 288.07 39.2
-18 6 -8 340.07 30.5
18 -6 -8 351.36 31.2
-8 18 -6 293.97 29
18 6 8 404.16 40
-6 8 -18 338.27 28.2
6 -8 -18 372.56 33.4
18 6 8 388.06 53.59
-6 8 -18 311.27 37.6
8 18 6 256.67 33.7
6 -18 8 342.87 36.8
-18 8 6 373.16 43.3
-8 6 18 384.36 43.2
-6 18 8 287.37 38.7
6 8 18 305.07 39.4
6 -8 -18 336.47 30.2
-8 18 -6 314.17 36
18 -8 6 302.77 30.3
8 -6 18 399.36 47.7
-6 18 8 337.27 46.9
18 -6 -8 360.56 29
6 18 -8 353.06 43
18 -8 6 477.35 85.89
6 -18 8 315.17 46.7
8 6 -18 382.46 28.4
-8 18 -6 321.37 30.9
6 8 18 410.46 56.29
18 -8 6 341.87 35.5
18 8 -6 264.77 32.7
-6 8 -18 336.77 32.9
-8 6 18 419.66 60.19
-6 -8 18 403.46 51.09
-6 18 8 339.17 45.3
6 18 -8 325.17 33.4
6 18 -8 372.36 42.4
18 -8 8 -23.6 18.8
-18 8 8 -3 18.8
18 -8 -8 -28.1 14.9
-8 18 -8 11.6 31.6
8 18 -8 10.6 15.4
8 18 -8 21 23.4
8 -18 8 -4.3 20.2
8 8 18 -8.1 52.89
8 8 18 35.3 28.9
-8 -8 18 18.5 30.3
-8 8 -18 43.9 20.7
8 8 -18 2.4 22.5
-8 18 8 -17.8 22.5
18 8 8 59.69 36.5
-8 18 -8 8 14.5
18 8 -8 -2.2 18.1
-18 8 -8 -25.7 18.1
8 18 8 -9.9 23.7
-8 18 -8 14.2 18.5
8 -8 -18 13.8 19.8
-18 8 8 -19 23.6
18 -8 8 -23.2 47.6
8 -8 18 -3.9 36
8 8 18 -20.3 26.5
8 -18 8 -36.3 25.1
-8 8 18 -1.6 32
8 8 -18 25.3 14.7
8 -18 -8 -28 16.4
-8 8 18 1.9 36.9
8 -8 18 33.3 40.6
18 -8 8 -4.2 18.1
8 18 8 36.3 25.9
-8 8 -18 -1.5 16.8
18 -8 -8 3.9 15.8
-8 8 18 -17.2 28.8
-8 18 8 -46.7 30.8
8 -8 -18 9.3 16
-18 10 0 151.28 31.3
18 10 0 113.09 19.6
-18 0 -10 128.09 20.6
18 0 -10 147.99 21.8
0 10 -18 126.29 18.4
10 0 -18 115.79 18.7
0 18 -10 104.59 19.7
10 18 0 186.58 25.4
-10 18 0 164.08 21.5
0 -10 18 103.89 52.49
0 10 18 181.78 41.6
0 18 10 170.88 36
10 0 -18 98.79 23.2
0 -18 -10 123.49 21.8
10 -18 0 168.98 21.5
-18 10 0 140.89 21.4
0 18 10 165.98 37.2
0 10 18 143.59 36.2
10 0 18 139.49 32.7
18 -10 0 151.48 22.5
10 0 18 76.59 48.7
10 18 0 173.18 25.4
0 -18 10 118.99 41.8
-10 18 0 126.79 25.4
18 0 10 161.38 25.2
18 0 -10 145.69 19.9
-10 0 18 137.29 38.8
-10 0 -18 138.39 18.2
10 0 18 60.89 51.39
0 18 -10 130.49 31.5
10 18 0 113.69 30.6
0 10 -18 149.69 23.8
0 10 -18 146.69 18.6
0 10 18 176.08 34.8
0 -10 -18 131.69 19.4
0 -10 18 121.69 32.3
0 18 10 181.78 48.7
18 0 10 158.58 27.1
0 18 -10 107.39 25
18 -10 0 146.49 20.6
-18 10 -2 60.19 28.8
-2 18 -10 8.2 26.2
-2 -10 -18 51.79 17.8
2 -10 18 29.6 32.8
-10 18 2 45.1 17.9
10 -2 -18 35.6 21.1
2 18 10 40.4 29
2 10 -18 36.8 17
2 18 10 42.1 35.1
18 2 -10 21.4 21.2
18 2 -10 26.4 17.7
10 2 18 42.8 40.4
-2 18 -10 54.49 17.6
2 10 -18 33.4 15.2
18 -2 10 26.8 20.4
10 -2 -18 15.4 15.6
10 2 18 41.9 29.4
-2 -18 10 52.49 50.29
-2 10 18 30 30.2
-10 2 -18 31.2 14.7
-18 10 -2 12.8 17.1
10 -18 2 22.8 25.6
-2 10 18 46 35.5
18 10 2 26.4 16.8
-18 -2 -10 21.2 19.3
10 -18 2 54.19 17.1
-10 -2 18 35.6 31.3
18 2 -10 38.6 20.1
10 18 -2 52.99 28
18 -10 -2 28 16.3
18 -2 10 35 21.2
18 -10 -2 68.19 17.4
10 18 -2 36.1 19
2 18 10 11.9 50.19
2 -10 18 50.39 43.7
-2 10 18 85.49 32
10 2 18 -3.4 55.39
2 -18 -10 19.9 18.2
-10 18 2 41.7 22
10 18 -2 32.7 19.1
2 10 -18 45.2 22.2
-2 18 -10 74.59 31
18 10 -2 36.9 17.3
10 -2 18 49.4 28
10 18 2 55.09 19.5
18 -2 -10 50.59 17.9
-10 -2 -18 35.5 14.5
10 18 2 3.1 24
-2 18 10 101.19 34.9
-10 2 18 66.79 36.1
2 -10 -18 71.49 19
2 10 18 42.8 30.3
2 18 -10 56.79 28.6
2 10 18 46 36.5
-18 2 -10 104.19 19.6
-10 18 -2 44.3 18.5
10 2 -18 50.59 15.3
10 2 -18 69.09 22.7
10 -2 18 106.99 47.4
18 2 10 30.7 23.8
-2 10 -18 48.9 17.2
2 10 18 64.79 29.6
18 2 10 30.4 24.5
-2 18 10 42.6 29.6
-10 18 -2 48 20.5
-2 -10 18 108.09 32.4
18 -10 2 -22.9 41.2
-2 10 -18 22.3 21.4
10 18 2 14.2 29.3
-18 10 2 56.09 28
-10 18 -2 46.8 25.9
-2 18 10 54.99 41.8
-2 -18 -10 7.6 20.2
-18 10 2 65.79 18.2
18 -10 2 70.59 20.2
2 18 -10 44.9 16.9
-10 2 18 27.8 33.5
-2 10 -18 47.1 17.6
-2 -10 18 85.99 64.99
18 -10 2 49.2 16
10 -18 -2 25.6 14.9
2 18 -10 28.8 22.1
2 -18 10 12.6 32.1
-18 10 -4 10.9 34.7
-4 18 -10 52.99 17.1
-18 10 -4 8.7 17.2
10 4 18 18.4 27
4 -10 18 40.2 42.9
18 4 -10 0.3 19.3
-10 4 -18 40.2 16.8
18 -4 10 45.6 21.6
18 -10 -4 20.2 15.9
18 4 -10 43.1 18.3
10 -18 4 46.9 17.9
-10 18 4 -1.5 21.1
18 -10 -4 24.8 15.1
10 -4 -18 50.09 20.9
4 -18 -10 50.49 17.5
18 4 -10 70.89 21.6
-4 -10 -18 48 19.8
-4 18 -10 23.7 31.9
4 18 10 13.2 29.3
10 4 18 -70.99 53.89
-10 -4 18 -10.9 29.9
10 -18 4 32.3 25.3
4 18 10 89.59 59.89
4 10 -18 20.8 20.9
-4 10 18 39.4 32
4 10 -18 15.4 15.1
10 18 -4 32.7 27.5
18 -4 10 32.7 20.3
-4 18 -10 36.7 20
-4 10 18 6.8 32.6
10 18 -4 40 17.7
4 -10 18 7.7 37
10 -4 -18 19.2 15.6
4 18 10 4 26.7
-4 18 -10 71.99 32.7
10 4 18 -39.5 39
-4 10 18 38.8 33.7
-10 18 4 6.8 16.6
18 -10 4 51.79 17
18 4 10 42.3 26.7
-10 18 -4 24.6 17.6
-4 10 -18 -7.5 19.7
4 18 -10 70.29 17.8
-4 -10 18 -9.3 78.89
18 -10 4 47 42.8
-18 10 4 43.2 26.2
10 18 4 51.19 30
4 18 -10 36.7 25.4
-18 10 4 24 17.8
-10 18 -4 49.1 29
-18 4 -10 32.6 18.1
4 10 18 26.9 26.1
18 -4 -10 36.2 16
18 10 -4 25.7 18
-4 10 -18 56.99 18.5
-4 -18 -10 49.9 25.6
-4 18 10 14.4 29.6
4 -18 10 31.3 29
18 -10 4 39 19.7
4 -18 10 40.7 31.4
10 -4 18 26.8 30.7
-10 -4 -18 42.1 15.2
-4 18 10 61.09 35.9
4 18 -10 8.6 22.3
4 -10 -18 30.6 18.7
4 -10 -18 34.5 16.7
10 -4 18 16.6 41.2
10 -18 -4 29.7 16.2
18 -4 -10 24.4 19.8
-10 4 18 4 31.8
-4 -10 18 21.6 28.2
-10 18 -4 38.7 18.9
-10 4 18 4 37.6
-4 10 -18 42.6 17.1
10 18 4 18 20.7
4 10 18 93.19 33.1
4 10 18 43.9 40.5
-4 18 10 34.9 35.9
18 4 10 75.69 27.4
10 4 -18 48.5 15.5
18 -6 10 54.79 24.2
-10 -6 18 37 33.3
18 -6 10 -64.19 57.59
10 -6 -18 40.3 17.7
-10 18 6 27.1 24
-10 6 -18 32.7 16.9
-18 6 10 54.99 23.1
-6 -10 -18 69.89 22.3
10 -18 6 25.2 24.6
6 -18 -10 58.99 17.4
-18 10 -6 39.6 20
18 -10 -6 64.59 18.2
10 18 -6 50.09 26.6
6 10 -18 37.1 15
-6 10 18 23.5 34.9
-6 18 -10 71.79 33.5
18 6 -10 45.8 18.2
18 -6 10 36.9 20.7
10 18 -6 46.1 17.6
-18 10 -6 88.29 40.3
6 10 -18 69.99 22
18 -10 -6 57.89 16.2
-6 18 -10 63.09 37.2
10 6 18 38.8 27.9
-6 10 18 49.8 31.9
18 6 -10 29 18.4
10 6 18 64.29 56.39
10 -18 6 39.3 18.3
-10 18 6 68.19 18.5
10 -6 -18 34.5 19.4
-6 10 18 71.29 37.7
-6 18 -10 25.7 19
-6 18 -10 38.1 16.3
-10 6 -18 19 20.6
6 18 10 79.69 30.4
6 18 10 22.1 24.9
6 -10 18 46.4 39.5
10 6 18 54.29 33
-18 6 -10 72.69 20.1
6 18 -10 34 23.7
10 6 -18 67.59 16.7
-6 18 10 66.09 33
18 6 10 46.6 29
6 -18 10 63.29 27.4
10 -18 -6 73.29 18.5
-18 10 6 24.1 18.4
-10 18 -6 22.5 19.9
10 -6 18 64.99 31.3
-6 10 -18 61.19 18.2
18 -10 6 27.5 43
18 -6 -10 59.69 16.1
-10 18 -6 43 28.3
18 -10 6 46.9 20.4
6 10 18 64.49 27
-6 -10 18 78.29 29.8
10 -6 18 69.09 37.1
18 6 10 49.99 29.8
10 18 6 53.49 24.2
-6 18 10 58.59 28.8
6 -18 10 50.89 27.1
-6 10 -18 35.3 20.2
18 -6 -10 82.19 18.9
6 10 18 59.19 30
18 10 -6 52.59 18.9
6 -10 -18 63.29 18.7
6 18 -10 80.49 19.6
6 -10 -18 59.09 19.5
-6 18 10 126.29 39.8
-10 6 18 61.29 38.8
10 18 6 85.39 29.8
-18 -6 10 160.18 55.79
-10 6 18 131.99 43.4
-10 18 -6 26.3 16.8
18 -10 6 50.09 18.4
6 10 18 17.3 42.2
-10 6 18 9.9 28.8
-18 10 6 80.99 25.8
8 18 10 75.89 26.4
-10 -8 18 49.1 32.8
-8 10 18 65.99 28.7
-8 -18 10 121.89 27.5
18 -10 -8 86.19 16.5
8 -10 18 53.19 35.9
-18 10 -8 95.49 22.1
8 -18 -10 110.69 20
10 -8 -18 118.59 23.2
18 -8 10 83.09 22.6
-8 18 -10 81.69 21.8
10 18 -8 116.89 20.4
18 8 -10 79.59 17.6
8 10 -18 124.69 19.1
18 8 -10 103.19 21.9
10 -8 -18 86.09 19.4
18 -8 10 171.58 47
18 -8 10 82.69 24.8
10 8 18 109.89 32.5
18 10 8 113.49 45.2
-18 -10 8 96.79 56.59
-8 18 -10 168.88 36.3
10 18 -8 139.49 28.1
-8 18 -10 119.59 19.1
10 -18 8 119.39 25.3
10 8 18 153.08 33.8
-18 8 10 146.69 26.4
-8 10 18 98.69 36.6
18 -10 -8 81.69 19.6
-10 8 -18 73.99 19.6
-8 10 18 89.49 40.8
8 -18 -10 110.39 24.1
10 -18 8 103.59 23.2
8 10 -18 136.89 23.3
-10 8 -18 127.49 21.2
-10 18 8 88.59 24.8
10 8 18 204.28 59.99
10 8 -18 139.19 26.3
-10 18 -8 123.09 22
-10 8 18 71.89 39.4
8 18 -10 106.29 18.9
-10 8 18 118.39 29.2
8 18 -10 146.59 27.4
18 -8 -10 118.49 19.2
8 -18 10 117.79 28.2
8 -10 -18 78.39 19.2
8 10 18 80.39 28.9
-8 18 10 65.59 27.6
10 -8 18 109.99 35.2
18 -10 8 115.99 42.6
-18 10 8 157.38 27.3
-18 -8 10 38.9 51.29
-8 -10 18 116.69 33.9
-8 18 10 149.88 44.2
-8 10 -18 88.99 19.9
-8 18 10 120.39 27.6
10 -8 18 117.89 38.5
10 -18 -8 100.49 20.1
-18 8 -10 84.89 21.3
18 8 10 166.88 34.1
-10 18 -8 74.29 17.1
-18 10 8 95.79 22.2
-8 10 -18 130.19 21.7
8 10 18 113.39 31.8
18 -10 8 117.19 24
8 -18 10 159.38 29.8
18 10 -8 132.79 20.2
18 -8 -10 88.19 19.2
-10 8 18 113.69 38.6
10 8 -18 133.39 20.1
-10 18 -8 110.89 32.9
10 -18 -8 137.49 25.7
8 -10 -18 87.79 21.6
18 -10 8 122.19 23.7
10 18 8 98.89 28.5
10 -10 -18 328.77 35.9
10 -18 -10 355.56 40.6
18 10 10 327.27 42.5
10 -10 18 373.06 45.9
-10 10 18 344.37 48.5
18 -10 -10 338.37 34.2
-10 10 18 359.06 50.69
10 10 -18 225.78 30.2
18 -10 10 282.57 40.6
-10 18 -10 315.77 29.8
-10 10 -18 287.27 32.3
10 -18 10 346.27 46.2
10 -10 18 339.17 48.2
10 10 18 359.36 41.6
10 18 10 362.26 46.9
10 18 -10 409.36 45.5
18 -10 10 335.47 38.9
-10 10 18 356.06 46.4
10 10 -18 322.27 38.1
-18 10 10 352.26 43.8
-10 18 10 361.86 50.99
18 10 -10 347.77 32.1
10 -18 10 342.77 44.3
-10 10 -18 296.87 34.5
-10 18 10 370.16 43.9
10 -10 -18 298.87 35.2
-18 -10 10 321.17 53.59
18 -10 10 369.96 47.8
-10 -10 18 276.27 39.1
18 -10 -10 325.67 29.9
-10 18 -10 371.06 37.8
10 18 -10 314.07 31.2
-10 -18 10 275.27 42.8
10 -18 -10 331.57 33.8
-18 10 -10 309.07 37.4
10 10 18 336.57 40.8
-12 0 -18 142.49 20.1
0 -12 -18 212.18 24.5
12 0 18 144.39 31.2
18 0 12 203.78 27.3
0 12 -18 133.99 22.1
0 -18 12 150.18 44.6
18 -12 0 186.98 42.3
0 12 -18 133.69 22.8
12 0 -18 144.49 25.4
12 18 0 150.88 30.8
12 0 18 128.79 57.19
0 -12 18 175.58 50.39
18 -12 0 145.29 21
-18 12 0 180.18 30.7
18 0 -12 126.29 21.6
0 12 18 122.49 32
0 -18 12 204.58 31.1
18 12 0 168.88 22.9
0 -18 -12 129.29 22.4
0 12 18 133.59 37.7
-12 18 0 148.59 27.1
18 0 12 147.89 26.1
12 18 0 158.58 23.6
-18 0 -12 144.29 22.6
18 -12 0 125.59 19.1
-18 12 0 137.09 22.4
0 18 -12 69.69 24.6
0 18 12 154.08 32.3
-12 0 18 121.09 35.7
18 0 -12 147.99 20.8
0 18 -12 155.28 34.2
-18 0 12 124.69 57.69
0 -12 18 180.78 36.6
12 0 -18 196.08 22.6
0 12 -18 134.49 19.9
0 18 12 150.08 41.7
0 18 -12 113.39 17.9
0 12 18 111.89 31.1
-12 18 0 145.99 21.3
0 18 12 183.08 40.7
12 -18 0 102.39 19.4
2 -12 18 79.89 45
2 12 -18 0.1 18
18 12 2 20.5 17.3
18 -2 12 29.3 20.4
-2 18 -12 -1.3 26.2
12 18 -2 46.9 31.7
-12 18 2 10.7 18.1
12 -2 -18 31.5 18.1
18 2 -12 29.1 18.9
-18 -2 -12 15.5 20.9
-2 -18 12 103.29 56.89
-2 -12 -18 45.5 21.2
18 2 -12 46.3 22.7
18 2 -12 36.6 20.7
12 -2 -18 68.99 23.1
-12 18 2 12.1 22.6
-2 12 18 59.39 34.7
2 18 12 33.4 43.7
-18 2 12 85.99 56.49
-2 18 -12 8.8 33
-12 -2 18 -35.5 34.8
-2 12 18 57.89 30.8
-2 18 -12 13.7 14.9
12 -18 2 16.4 25.6
2 -18 -12 46.4 18.9
12 18 -2 5.3 19.2
18 -12 -2 79.99 40.8
-18 12 -2 48.3 19.6
18 -12 -2 -6.8 15.4
12 2 18 14.8 27.2
12 -18 2 15.8 17.2
-2 -18 12 21.4 25.7
18 -12 -2 8.9 16
2 12 -18 4.3 15.1
2 18 12 1 27
-18 12 -2 14.6 28.3
12 2 18 -30.9 61.09
2 -12 18 67.89 33.3
-2 12 18 11.6 29.9
18 -2 12 5.7 20.1
-12 2 -18 15.3 17.5
-2 -12 18 -46.4 62.59
-2 18 12 -0.4 30.4
-12 2 18 -9.1 35.4
12 2 -18 11.7 15.2
12 -2 18 15.5 25.8
18 -12 2 64.09 34.7
2 18 -12 29.4 29.2
18 2 12 39.7 22.8
2 -12 -18 19.2 18.4
18 2 12 16.8 22.8
18 -2 -12 25.7 15.1
-12 18 -2 26.6 20.5
-2 12 -18 26.2 19.2
-12 18 -2 29.3 18.5
12 18 2 66.99 23.6
12 -2 18 17.9 46.8
2 -12 -18 44.8 20.2
-2 -12 18 23.4 28.2
18 -12 2 43.2 17.2
-18 -2 12 4.6 52.39
-18 12 2 51.69 19.3
2 12 18 26.5 26
2 12 18 -7.3 34.9
12 18 2 -1.5 28.5
-2 18 12 44.2 37.8
18 12 -2 0.8 15.6
-12 18 -2 21 25.7
-18 2 -12 53.99 20.3
18 -2 -12 -11.1 19.7
2 18 -12 15.3 23.6
2 12 18 30.2 33
-2 -18 -12 21.2 24.8
2 18 -12 28.7 16.5
-18 12 2 12.9 26.5
2 -18 12 -17.2 26.4
12 -18 -2 22.8 16.1
-2 12 -18 43.7 19.3
2 -18 12 -18.1 35.6
18 -12 2 39.4 18.4
-2 18 12 27.3 35.6
-12 -2 -18 52.09 16.6
-2 12 -18 26.4 19.2
-12 2 18 11.2 36.6
-18 4 12 70.19 59.29
-18 12 -4 28.7 19.5
-18 -4 -12 19.9 22.9
4 18 12 24.4 45.1
4 -12 18 5.9 37.9
12 -4 -18 5.5 18.2
18 4 -12 -3 20.5
18 -12 -4 36.5 18.5
4 -12 18 25.9 38
-4 18 -12 33.2 16.1
12 -4 -18 12.4 19.6
18 4 -12 32.7 21.7
-12 18 4 46.1 20.1
-12 18 4 46.5 21.2
-12 -4 18 10.8 34.3
-12 4 -18 51.89 18.7
4 18 12 -7.7 26.6
4 12 -18 56.79 20
12 -18 4 23.9 23.2
-4 -18 12 29.2 23.3
4 12 -18 21.2 16
4 -18 -12 11.5 19.3
-4 18 -12 10.2 22.7
12 18 -4 42.7 17.9
18 -12 -4 40.9 15.6
12 4 18 61.99 62.49
12 4 18 0.6 25.6
18 -4 12 39.6 21.9
12 -18 4 43.9 19.1
-4 12 18 21.9 30.4
-4 -12 -18 64.69 22.7
-18 12 -4 -9.1 29.8
-4 12 18 43 37
12 18 -4 51.69 31.9
18 -4 12 32.1 19.4
18 4 -12 5.2 20.2
4 -18 -12 24.7 20
-4 12 18 39.5 30
18 -12 4 3.4 18
-12 18 -4 47.7 21.5
-4 12 -18 41.6 18.6
12 18 4 -11.2 29.1
18 -4 -12 48 21.9
18 -12 4 19.1 18.7
18 -4 -12 56.59 21.9
18 4 12 30.7 25.1
-18 12 4 16.1 24.7
4 12 18 14 25.1
-18 4 -12 22.3 20.9
-4 -12 18 -162.58 80.49
-4 18 12 32 29.4
4 -18 12 35.3 28.3
18 4 12 5 23.2
4 -12 -18 38.7 21.2
12 -18 -4 50.99 25.4
4 18 -12 32.1 15
-12 4 18 77.49 40.8
12 -18 -4 54.19 17.1
4 18 -12 73.89 26.2
-4 -12 18 66.59 32.6
-4 18 12 -23.5 32.8
4 -18 12 27 33.5
18 12 -4 27.5 17.6
-18 12 4 21 19.4
-12 18 -4 24.7 19.1
12 -4 18 -6.4 43.1
18 -12 4 35.6 35.7
-12 18 -4 6.2 26.7
-4 12 -18 25.6 19.2
-4 -18 -12 66.89 27
-18 -4 12 55.49 51.59
4 -12 -18 47.7 20
-4 12 -18 44.5 21.5
12 4 -18 38.1 16.5
-12 -4 -18 44.3 17.1
4 12 18 65.49 32.7
18 -4 -12 20.6 15.5
-4 18 12 -30 34.9
-12 4 18 13.1 31.4
12 -4 18 41 27.2
-6 12 18 61.59 33.1
12 -6 -18 0.5 18.9
-6 12 18 -7.6 32.1
6 18 12 81.49 43.5
-12 18 6 36.4 23.7
-18 6 12 6.8 23.2
12 -18 6 41.6 20
-18 12 -6 18.7 34.8
-12 18 6 38.5 20.1
-12 6 -18 20.6 17.9
18 6 -12 28.2 18.2
18 -6 12 37.5 19.6
-6 12 18 25.1 35
6 -18 -12 60.29 21.1
-12 -6 18 34.5 36.9
12 18 -6 36.7 27.5
-6 18 -12 34.4 22.4
6 -12 18 65.59 39.7
18 -12 -6 26.5 16
-18 12 -6 40.3 20.2
12 6 18 12.4 25.5
6 -18 -12 56.69 22.4
12 6 18 42.7 39.8
6 18 12 9.3 27.2
-18 6 12 92.19 62.49
12 18 -6 25.1 16.1
18 -12 -6 20.2 18.1
18 -6 12 10.2 57.19
18 -6 12 3.7 18.6
-6 -18 12 17 23.5
-6 -12 -18 24.2 24.1
6 12 -18 23.4 17.3
12 -18 6 30.2 22.5
12 6 18 -18.9 58.49
6 12 -18 14 17.1
18 6 -12 19.9 22.8
12 -6 -18 6.8 20.2
-6 18 -12 35.7 16.6
6 -12 -18 4.6 18.3
-18 6 -12 19.9 20.7
12 18 6 30.3 29.5
18 -6 -12 57.99 21
-12 -6 -18 19.6 17
12 -6 18 28.7 27.3
6 -18 12 -23.5 28.6
-6 -12 18 38.2 33.2
12 -6 18 -26.9 37
12 -18 -6 6 17
6 12 18 42.4 29.8
6 12 18 -1 23
6 -12 -18 5.6 18.6
12 -18 -6 22.1 24.3
-18 12 6 31.1 22.9
6 18 -12 -8.4 15.6
6 -18 12 22.9 32.4
-12 6 18 -0.5 28.7
-12 18 -6 16.5 20.8
12 6 -18 17.1 17.5
6 18 -12 8.2 21.8
-18 12 6 1.7 18.8
-18 -6 12 72.69 50.59
18 -6 -12 9.5 15.7
-12 18 -6 24.3 28.6
-6 18 12 -38.5 28
-6 12 -18 12.5 16.5
12 6 -18 26.3 29.5
18 6 12 14.5 25.5
-6 18 12 11.4 30.4
18 -12 6 33.9 19.7
-6 18 12 -18.7 34.4
18 6 12 11.5 27
-6 12 -18 -13.9 19.1
18 12 -6 20.7 17
-12 6 18 25.5 39.4
18 -12 6 28.8 19.2
-12 18 -6 6.7 14.9
-12 6 18 -61.99 44.2
18 -12 6 -12 34.7
18 -12 -8 43 20.4
-8 12 18 62.49 37.6
-8 12 18 25 36.6
12 18 -8 116.99 29.3
12 18 -8 37.6 16.6
8 -18 -12 66.79 22.8
18 -8 12 54.29 20.9
18 -8 12 48.2 21.9
8 -12 18 100.19 40.2
18 8 -12 37 22.6
8 18 12 57.19 27.7
18 -8 12 139.79 49.2
-12 18 8 57.99 23.5
-8 18 -12 63.49 16.4
-12 8 -18 45.5 18.4
-8 -18 12 86.59 29.6
-18 -12 8 61.49 49.3
18 -12 -8 47 15.3
8 -18 -12 69.79 20.9
-12 -8 18 77.69 36.1
12 8 18 20.5 29.7
-18 12 -8 62.39 24.4
-12 8 -18 61.89 21.8
12 8 18 91.69 39.2
8 12 -18 91.49 19.4
-8 18 -12 29.2 23
-8 12 18 24.5 31.8
12 -18 8 55.69 25.2
18 8 -12 48 18.6
8 18 12 45.5 43.4
12 -8 -18 72.29 24.2
8 12 -18 22.1 17.2
12 -8 -18 47.8 20.4
12 -18 8 111.69 26.8
-18 8 12 35.9 25.5
12 -8 -18 59.39 18.8
-18 8 12 104.89 60.29
18 12 -8 60.39 16.6
-18 -8 12 101.29 48.2
-12 8 18 56.09 28.8
12 8 -18 71.59 18.6
-18 12 8 28.8 23.6
8 -18 12 22.5 29.6
-12 -8 -18 48.1 20.8
18 8 12 98.29 33.1
12 -8 18 9.1 35.9
-12 -18 8 73.29 29.5
-18 8 -12 53.09 22.4
8 -12 -18 87.99 23.6
12 8 -18 -18.9 21.5
-8 18 12 97.69 39.8
8 12 18 18.7 28.9
-12 18 -8 81.69 24.6
-8 18 12 59.39 26.9
-18 12 8 45.8 22.7
18 -12 8 33.7 23.5
18 -8 -12 92.49 21.4
18 -8 -12 60.59 16.9
18 -12 8 52.89 38.9
12 -18 -8 73.79 23.9
-12 18 -8 120.39 31.9
12 -18 -8 87.59 21.7
-12 8 18 49.2 37
8 18 -12 57.29 23.2
-8 -12 18 -7.9 32.1
-8 18 12 53.69 26.5
12 -8 18 44.7 31.5
18 -12 8 88.69 24
8 -12 -18 80.89 22.7
8 18 -12 53.09 17
-12 18 -8 74.19 17.6
-12 8 18 135.19 46.3
8 12 18 79.79 31.4
12 -18 -8 32.1 26.8
-8 12 -18 40.1 18.6
-8 12 -18 41.8 22.3
12 18 8 53.69 27.7
8 -18 12 49.9 29.5
18 10 -12 128.69 19.6
-12 18 10 160.78 29.6
-12 10 -18 161.98 21.5
-10 18 -12 151.28 19.6
12 -18 10 89.59 28.7
-18 -12 10 141.39 47.6
-18 10 12 217.48 56.69
10 -12 18 87.29 38.4
18 -10 12 140.79 25.9
-10 18 -12 123.89 26.4
-10 12 18 124.89 39.8
-18 12 -10 140.99 27.1
12 -18 10 150.88 30.5
12 -10 -18 107.49 24.8
18 12 10 147.59 43.3
12 18 -10 153.38 22
18 -12 -10 172.58 25.5
12 10 18 72.39 33.5
12 -10 -18 165.88 26.6
10 12 -18 153.68 23.4
18 -12 -10 152.98 25.7
-10 12 18 148.49 33.1
-12 10 -18 152.68 26.3
10 -18 -12 136.09 30.7
18 -10 12 180.78 42.1
10 12 -18 151.28 22.4
-12 -10 18 100.69 38.4
-18 10 12 102.69 26.5
18 -10 12 162.78 25.9
12 18 -10 111.59 30.6
18 10 -12 110.39 27
12 10 18 114.79 32.5
12 -10 -18 113.39 19.6
10 -18 -12 132.49 24.2
10 -18 -12 119.69 24.9
-10 12 18 173.18 43.8
10 18 12 171.58 31
-10 -18 12 170.38 30
18 -12 10 140.79 24.6
-12 -10 -18 141.99 27
12 -18 -10 111.59 22.2
12 10 -18 110.49 20.8
12 -18 -10 132.99 24.2
18 -10 -12 145.39 19.3
-10 12 -18 137.49 21.2
10 18 -12 103.79 24.9
10 -18 12 111.69 31.6
10 -12 -18 126.39 25.1
10 18 -12 128.19 20.8
12 10 -18 108.29 22.5
-12 10 18 78.09 47.3
10 -12 -18 169.48 22.5
12 -10 18 137.19 42.6
18 -12 10 99.59 38.6
-12 18 -10 148.79 27.4
18 -10 -12 132.69 23.9
-18 -10 12 133.29 50.59
-12 10 18 150.18 28.4
-12 -18 10 102.09 30.7
18 -12 10 150.78 30.7
-10 -12 18 166.38 35.5
12 -18 -10 118.19 28.6
10 12 18 168.78 31.1
18 12 -10 155.98 21.5
12 18 10 125.29 29.6
12 -10 18 159.28 35.7
-18 10 -12 158.98 28
-10 18 12 108.69 29.7
18 10 12 121.79 37.3
-12 18 -10 168.18 21.8
10 12 18 115.59 32
10 -12 -18 145.09 26.5
-18 12 10 84.49 25.1
-10 18 12 145.99 27.7
-12 10 18 85.09 41.5
-10 12 -18 178.98 27.3
10 -18 12 136.79 33.1
18 -12 12 65.29 36
12 -18 -12 128.49 22.2
12 -12 -18 95.49 17.2
18 12 -12 87.39 16.9
18 12 12 103.79 35.7
-18 12 12 104.69 25.7
-12 12 -18 98.69 18.5
18 -12 12 127.49 25.2
12 -18 -12 114.39 24.3
-12 -12 18 117.99 36.4
12 -12 18 130.79 37.8
12 -12 -18 71.39 26.4
12 -18 12 106.39 33.9
12 12 18 99.99 33.5
-12 -18 12 100.49 29.3
12 12 -18 107.59 22.1
12 12 18 71.99 31.5
12 18 -12 111.79 27.4
-12 18 12 137.29 27.4
12 -18 12 83.29 29.8
18 -12 12 133.59 33.5
12 18 12 94.29 26.6
12 -12 -18 103.39 24.9
-12 12 -18 115.59 26.7
-18 -12 12 114.89 46.2
-12 18 -12 93.09 16.9
-12 18 -12 157.48 29.7
18 -12 -12 91.49 25.1
12 -12 18 148.19 42.5
-18 12 -12 77.69 27.1
12 12 -18 92.89 19.6
12 18 -12 122.59 20.6
-12 12 18 238.68 66.39
18 -12 -12 76.79 16.6
12 -18 -12 59.19 31.7
-12 12 18 84.29 27.4
18 -12 12 79.29 21.7
-12 12 18 133.69 38.3
14 0 -18 24.4 20.3
0 18 14 -0.5 34.5
14 18 0 -19.4 30.9
-18 0 14 56.29 52.19
0 -14 -18 -2.3 22.5
18 -14 0 16.4 17.4
-14 0 18 -28.9 33
0 -18 14 18.4 27.1
18 0 -14 -13.8 16.1
14 0 18 3.6 26.3
18 -14 0 -15.3 33.6
14 18 0 0 18.5
-14 0 -18 -18.1 19.4
14 0 -18 -7.3 15.8
0 18 -14 -18.6 14
0 -18 -14 -2 21.3
0 -14 18 -37.5 48.3
-14 18 0 -18.7 24.7
-14 18 0 27.3 23.8
18 14 0 12.7 18
0 -18 -14 26.9 21.4
-14 18 0 75.09 21.3
0 14 18 -2.7 28.8
0 -14 -18 -9.3 21.1
14 -18 0 -10 17.4
0 14 18 -9.6 31.6
0 14 18 21.3 25
-18 14 0 -4.7 20.6
18 -14 0 2.6 19
0 -14 18 55.19 31.6
14 0 18 -21.5 57.49
14 -18 0 -23.4 24.2
0 14 -18 3 19.6
18 0 14 32.1 22.4
-18 0 -14 -7.3 21
0 14 -18 13.9 16.5
-18 14 0 17.1 23.6
18 0 14 -6.6 19.9
0 18 14 24.3 27.8
18 0 -14 16.7 21.2
0 -18 14 6.6 42.9
-2 14 18 120.39 33.7
-18 14 -2 110.19 28.2
2 18 14 80.09 39.3
-14 18 2 78.29 25.8
14 -18 2 84.99 20.8
18 -14 -2 90.49 21.6
14 2 18 18 61.79
2 -18 -14 69.99 23.2
-2 18 -14 50.39 16.3
18 2 -14 80.89 24.6
18 -14 -2 59.29 34.5
-14 -2 18 47.3 34.4
14 -2 -18 65.59 18.8
-2 14 18 68.29 32.9
-2 14 18 76.39 31.1
14 2 18 76.69 30.4
-2 -14 -18 58.29 21.6
2 -14 18 64.19 45.8
-18 2 14 102.19 52.29
2 -18 -14 79.79 22.3
2 -14 18 58.79 34.9
2 14 -18 71.59 19.7
-2 -18 14 72.49 26.5
-18 14 -2 63.79 23.3
14 18 -2 21.7 33.2
2 14 -18 60.19 17.7
-14 2 -18 97.89 22.7
18 2 -14 80.89 19
14 -18 2 89.59 25.2
18 14 2 53.79 20.1
-2 -14 -18 111.79 26.5
14 -2 -18 62.29 24.3
2 18 14 58.99 28.1
18 -14 -2 75.39 20
-14 18 2 68.19 21.6
18 -2 14 63.19 21.2
18 -2 14 76.59 22.6
-2 -18 14 0.6 58.29
14 -2 -18 100.59 22.8
14 18 -2 63.89 20.1
-18 -2 -14 73.29 24.5
2 14 18 16.9 24.8
18 -14 2 110.99 31.4
-18 2 -14 47.3 22.6
-14 18 -2 82.19 23.3
18 14 -2 59.79 18.9
-14 2 18 82.89 35.2
14 -2 18 15.7 23.9
-2 -18 -14 55.69 22.8
-2 14 -18 34.7 16.9
2 -14 -18 68.69 23.7
2 14 18 45.2 30.6
2 -14 -18 54.79 23.8
-2 14 -18 83.29 25.1
-18 14 2 40.3 22.9
-18 -2 14 -7.7 49.7
-14 -2 -18 63.59 20.2
14 18 2 48.7 21.6
18 -2 -14 60.99 17
-14 18 -2 67.69 25.4
-2 -14 18 198.78 64.49
-14 2 18 83.19 40.8
14 18 2 38.9 31.6
18 -2 -14 28 23.9
-14 18 -2 70.29 20.2
14 -2 18 71.29 52.19
14 -18 -2 78.69 26.6
-2 18 14 64.89 35.6
14 -18 -2 87.69 20.4
-2 -18 -14 102.99 25.9
18 2 14 115.59 26.2
18 -14 2 66.19 19.6
-18 14 2 63.09 24.9
-2 -14 18 55.39 29.9
14 2 -18 72.29 19.4
-2 18 14 109.79 30.1
2 18 -14 71.19 16.3
2 -18 14 106.59 40.8
14 2 -18 66.29 21.1
18 -14 2 62.19 19.9
18 2 14 72.29 26.8
2 -18 14 85.69 30.7
18 -14 -4 485.55 35.1
18 -4 14 421.16 70.29
4 14 -18 429.16 36
-18 4 14 552.34 88.79
-14 -4 18 471.75 66.49
18 4 -14 457.25 37.5
18 4 -14 534.45 41
14 -4 -18 465.35 34.1
14 4 18 402.56 74.69
14 -4 -18 456.45 39.3
14 18 -4 519.65 53.89
18 -14 -4 458.35 36.3
-4 -14 -18 522.35 44
-14 18 4 418.56 39.3
4 14 -18 418.76 36.3
4 -14 18 445.96 67.19
-18 4 14 457.15 47.1
-4 -18 14 534.15 48.8
18 -4 14 470.55 42.4
18 -4 14 473.05 41.4
-4 14 18 556.44 56.19
14 18 -4 455.05 35.6
4 -18 -14 530.45 39.6
-14 18 4 531.65 46.2
4 18 14 517.95 50.79
14 -4 -18 446.26 42
14 -18 4 471.25 48
14 -18 4 473.65 37.4
18 4 -14 454.25 40.7
-4 14 18 473.85 60.29
-4 -14 -18 465.35 44.3
-18 14 -4 425.56 40.8
-4 18 -14 467.25 33.6
-18 14 -4 403.26 54.29
4 -14 18 482.45 75.89
14 4 18 374.06 51.39
-14 4 -18 391.16 36.1
4 18 14 506.05 68.29
-4 14 18 504.25 55.89
4 -18 -14 519.15 41.7
18 -4 -14 455.85 44.3
14 4 -18 443.06 36.5
-18 14 4 458.05 46
18 -14 4 471.35 58.79
-14 18 -4 453.25 40.3
4 -18 14 589.74 57.59
4 14 18 446.86 49.99
-4 14 -18 404.96 41.3
4 14 18 552.24 59.99
-4 18 14 432.36 60.19
14 4 -18 480.45 37.3
-4 18 14 402.86 56.39
18 -4 -14 398.16 48.7
-14 4 18 446.06 58.39
14 -4 18 376.36 55.39
-18 4 -14 493.15 41.9
-18 14 4 476.55 40.2
4 -18 14 474.35 64.39
-14 18 -4 432.46 52.39
18 14 -4 461.55 35.3
14 18 4 477.05 55.59
18 -4 -14 517.65 33.9
14 -18 -4 451.25 35.5
4 -14 -18 431.36 40.1
14 -4 18 446.06 47.7
-14 -18 4 398.66 54.19
-4 -14 18 479.05 53.99
-4 -18 -14 391.76 43.6
14 18 4 439.16 46.1
-14 4 18 485.25 68.39
18 4 14 551.84 50.79
-4 18 14 499.95 62.09
4 18 -14 463.45 34
-14 18 -4 476.65 36.2
18 -14 4 442.36 41.8
18 4 14 491.95 45.6
-18 -4 14 428.76 55.59
14 -18 -4 524.95 45.2
-14 4 18 422.66 62.89
4 -14 -18 470.15 39
18 -14 4 486.55 38
-4 14 -18 425.96 35.4
-14 -4 -18 493.45 38.6
18 -6 14 387.46 56.39
-6 18 -14 485.55 34.7
14 6 18 517.65 54.89
14 -6 -18 457.95 41.4
14 18 -6 496.25 54.19
-14 18 6 411.66 38.8
18 -6 14 556.34 43.5
-18 14 -6 516.25 41.5
18 -14 -6 508.25 36.1
14 -6 -18 472.25 43
14 -18 6 484.55 41.3
18 -6 14 475.85 42.5
-14 6 -18 550.04 40.8
-6 14 18 605.64 59.99
14 -18 6 493.85 50.89
6 18 14 525.85 50.99
-6 14 18 470.25 57.39
14 18 -6 464.65 37.1
6 -14 18 645.54 69.79
6 14 -18 502.85 36.7
6 18 14 468.05 65.79
-14 -6 18 525.65 69.49
18 6 -14 471.25 44.7
6 14 -18 416.46 36.5
14 -6 -18 477.75 34
14 6 18 564.64 76.09
-18 6 14 451.35 64.49
18 -14 -6 571.94 38.6
-6 -14 -18 475.05 50.19
6 -18 -14 500.85 40.1
-6 18 -14 541.65 48.9
-18 6 14 430.26 47.8
18 6 -14 458.45 39.6
6 -18 -14 435.66 42.9
-6 14 18 491.85 58.79
-6 -18 14 586.54 50.39
-18 14 -6 538.15 59.99
-14 18 6 492.75 45.6
6 18 -14 494.55 36.7
6 -18 14 607.54 66.69
-18 -6 14 566.14 80.49
14 -6 18 479.75 49.2
-14 18 -6 575.64 44.7
18 14 -6 485.55 35.9
6 -14 -18 539.95 39.3
-14 6 18 476.15 54.29
-18 6 -14 570.24 42.7
18 -14 6 541.45 45.4
14 -18 -6 431.56 42.4
18 -6 -14 542.35 34.3
18 -14 6 478.25 38.8
6 -14 -18 460.85 41.3
-14 18 -6 480.95 34.7
18 -6 -14 480.55 46.1
18 -14 6 457.95 60.89
18 6 14 481.65 55.19
14 -6 18 398.26 52.39
-14 6 18 583.84 68.09
-18 14 6 477.45 42.3
-6 -18 -14 485.95 48.8
14 6 -18 444.26 38.9
-14 18 -6 432.06 55.59
18 -6 -14 599.74 40.9
-14 -18 6 507.75 53.29
-6 18 14 509.45 57.89
14 -18 -6 495.85 37.8
6 14 18 527.55 60.19
14 6 -18 448.86 45.8
-6 14 -18 513.65 45
14 18 6 499.85 58.59
14 6 -18 517.05 38
-18 14 6 417.36 45.8
6 14 18 487.15 51.19
-14 -6 -18 420.56 40.7
-6 14 -18 497.65 35.3
-6 -14 18 598.94 58.09
-14 6 18 487.85 66.89
-6 18 14 419.76 58.59
-6 18 14 394.96 58.49
6 -18 14 563.94 61.49
-14 18 8 97.99 24.7
8 -18 -14 123.99 25.5
-8 14 18 101.19 36.8
14 18 -8 102.69 30.2
18 -8 14 108.99 47.1
8 18 14 92.59 25.9
18 -8 14 92.59 21.5
18 -14 -8 157.88 25.7
8 18 14 144.79 40.3
18 8 -14 138.19 22.2
-18 8 14 143.69 27.6
8 -14 18 130.39 40.4
14 -8 -18 121.29 28.3
-18 8 14 157.18 55.49
8 -18 -14 109.09 28
-18 -14 8 86.69 49.3
-8 18 -14 128.99 19.6
14 -18 8 149.29 28
-18 14 -8 109.49 27.2
14 -8 -18 140.09 28
-8 18 -14 65.09 28.2
14 8 18 153.28 32.7
-14 -8 18 61.39 35.9
14 18 -8 117.79 19.6
8 14 -18 126.49 18.9
14 -8 -18 141.99 20.4
18 -14 -8 90.29 16.8
18 -8 14 111.09 25.8
-8 -18 14 105.79 30.6
-14 8 -18 144.39 27.3
18 8 -14 110.69 28.6
14 -18 8 147.09 31
-8 14 18 123.19 33.2
-8 14 18 192.48 37.4
8 14 -18 128.79 22.8
8 14 18 106.39 32.6
8 -14 -18 61.69 23.6
18 8 14 113.69 30.8
-8 18 14 103.19 32.8
-18 14 8 116.09 27.1
-14 18 -8 126.79 28.5
-14 8 18 115.69 34
8 14 18 134.49 30.7
8 -14 -18 127.09 20.3
-18 14 8 125.89 27
14 -8 18 90.19 27.9
-18 8 -14 127.09 28.8
14 -18 -8 112.99 23.9
14 8 -18 162.48 23.3
-18 -8 14 21.1 48.1
8 -18 14 133.29 36.3
-8 18 14 105.69 38.5
14 8 -18 124.59 22.3
-8 14 -18 142.79 28.7
-14 -8 -18 106.39 29.1
18 14 -8 124.39 20.3
-14 8 18 148.19 44.4
-14 18 -8 121.39 33.2
14 -18 -8 115.99 34.5
18 -8 -14 125.79 25.5
18 -8 -14 129.89 19.7
-8 -14 18 121.69 35.9
18 -14 8 122.49 26.9
14 18 8 151.98 34.1
-8 14 -18 101.29 18.7
8 -14 -18 131.29 25.1
18 -14 8 121.69 29
-8 18 14 107.69 27.9
-14 -18 8 111.39 31.9
-8 -18 -14 95.99 33.2
8 18 -14 137.19 20.7
-14 18 -8 110.69 17.6
-14 8 18 97.59 27.6
18 -14 8 117.59 36.4
14 -8 18 117.29 39.5
14 -18 -8 144.29 24
-10 18 -14 3 28.5
10 18 14 39.5 38.7
-10 14 18 22.6 33.5
10 -14 18 13.9 34.6
18 -14 -10 21.3 14.1
10 -18 -14 37.3 22.1
10 14 -18 19.2 18.1
14 18 -10 17.6 24.1
18 10 -14 0.2 16.9
-18 10 14 -12 50.29
10 14 -18 -16.8 20.1
10 18 14 -10.7 23.9
18 -10 14 5.4 40.5
18 10 -14 59.89 28
-14 18 10 31 22.1
14 10 18 16 28.6
14 10 18 92.89 39.5
-14 -10 18 62.99 37.9
-18 -14 10 42.8 45.1
-10 14 18 64.99 39.1
10 -18 -14 47.4 21
18 -10 14 33.9 22.3
-10 14 18 10.7 26.2
18 -10 14 26.8 18.9
-10 18 -14 17.8 14.1
-14 10 -18 10.8 16
14 -18 10 16.5 50.89
14 -18 10 40.9 30.1
10 -18 -14 -16.5 27.2
14 18 -10 25.2 16
14 -18 10 55.69 29.6
-10 -18 14 42.9 27.8
14 -10 -18 17.8 16.2
14 -10 -18 21.1 25.3
-18 10 14 -8.7 21.8
14 -10 -18 -9.6 24.5
-14 10 -18 4 24.7
18 -14 -10 8.1 21.3
-18 14 -10 52.99 26.2
18 -14 10 -11.8 31.7
10 -14 -18 55.59 23
18 -14 10 -20.4 20.2
-10 14 -18 43 25.1
10 -14 -18 18.1 16.4
18 -14 10 28.3 31.7
10 -14 -18 39.3 27.6
-10 -14 18 -11.1 31.5
-14 10 18 34.9 25.9
10 14 18 20.5 27.7
10 18 -14 62.09 17.5
14 10 -18 12.1 19.4
-10 14 -18 6.7 15.1
14 -10 18 -19.5 28.7
14 -18 -10 -3 18.7
18 -10 -14 40.7 25.1
-14 18 -10 20.9 14.3
14 -18 -10 59.99 22.7
14 18 10 41 28.9
14 10 -18 27.9 21.7
18 -10 -14 20.1 14.7
-18 14 10 42.5 22.7
-14 -18 10 45.9 30.9
14 -10 18 37.2 38.7
-18 -10 14 76.89 45.4
18 10 14 48.8 30.4
-10 18 14 24.1 45.6
-18 10 -14 -17.1 26.1
-14 10 18 -29.2 38.3
-14 18 -10 6.4 25.4
-10 18 14 -7.5 25.5
-10 18 14 64.09 27.1
18 14 -10 22.9 15.5
14 -18 -10 -54.39 34.3
10 14 18 4.6 28.3
-14 10 18 23.5 30.6
10 -18 14 39.9 29.8
12 14 -18 -21.7 24.1
18 -14 -12 16.5 24.8
-12 -18 14 15.7 34.1
14 -18 12 16.4 29.3
18 12 -14 34.3 14.9
14 -12 -18 -10.7 14.3
14 18 -12 3.9 13.7
-14 12 -18 -12.9 14.8
-12 14 18 25.3 34.4
12 18 14 11.9 46
12 -18 -14 36.2 33.3
12 -18 -14 25.9 26.1
18 -12 14 13 20.9
14 -12 -18 -17.9 25.4
-14 18 12 37.8 22.8
14 -18 12 30 36.9
12 -18 -14 -0.2 18.7
18 -12 14 10.7 37.3
-18 14 -12 56.89 32
-14 12 -18 59.19 28.8
-14 -12 18 19.7 39.7
14 12 18 11.1 29
-12 18 -14 -32.8 33.4
-12 14 18 -15.9 22.9
14 12 18 25.1 32.1
12 -14 18 -9.5 32.7
-18 -14 12 9.3 44.6
14 -12 -18 54.79 30.5
12 14 -18 3.5 14.4
-18 12 14 -13.9 21.7
-12 18 -14 -3 14.3
18 -12 14 -11.4 18.2
12 18 14 56.29 26.6
18 -14 -12 -2.4 13.3
12 18 -14 32.9 16.4
14 -18 -12 19.4 17
-14 -18 12 -53.89 32.3
12 14 18 3.3 29.8
-12 14 -18 42.5 29.7
-12 -14 18 2 35.3
14 -18 -12 12 39.4
14 18 12 -27.6 26.8
14 12 -18 19.7 15.8
14 -12 18 25.1 36.8
-18 14 12 10.6 20.5
-14 12 18 58.39 29.2
-12 18 14 8.7 22.9
12 14 18 17.4 27.4
-18 -12 14 -21.2 45.2
12 -14 -18 -11.7 30.3
12 -14 -18 23.7 24.9
18 12 14 -24.3 29.8
12 -14 -18 30.4 15
18 -12 -14 0.7 15.3
14 12 -18 -32.8 21.9
18 -14 12 24.3 31.8
18 -14 12 7.5 21.4
14 -18 -12 64.39 25.7
-18 12 -14 3.8 31.3
12 -18 14 25.4 30.7
-14 18 -12 4.3 30.8
-12 14 -18 9.4 14.5
18 -14 12 24.1 35.4
14 -12 18 -25.7 33.8
-14 18 -12 -11.7 14.9
18 -14 12 6.1 21.8
-14 12 18 -13.1 22.4
-14 12 18 5.4 42
18 -12 -14 -3.4 25.6
18 14 -12 -9.1 15.8
14 -18 14 146.09 32.3
14 14 -18 144.89 19.2
14 -14 -18 187.58 25.5
-14 14 -18 156.48 20.2
14 14 18 157.78 31.9
14 -18 -14 74.19 26.4
-14 18 14 153.98 26.7
14 -18 -14 118.39 19.3
-18 14 14 142.89 24.2
-14 14 18 157.88 31.2
18 14 14 160.68 35.6
14 -14 18 157.08 38.1
14 -14 -18 192.28 31.8
18 -14 -14 121.59 29.4
-14 18 -14 123.89 17.3
-14 -18 14 171.18 36.1
-14 -14 18 175.48 41.5
18 -14 -14 154.68 19.7
18 -14 14 125.59 37.1
14 18 14 82.49 27.4
18 -14 14 186.88 27.8
-18 14 -14 160.78 19.2
14 14 18 170.78 31.2
18 -14 14 135.69 24
14 18 -14 97.29 16.3
18 14 -14 153.48 19.5
0 16 -18 15.9 15.4
0 18 16 45 28.5
0 18 16 69.69 31.7
-18 0 16 -11.9 47.4
18 0 -16 15.8 16.3
18 -16 0 -41 30.9
-18 16 0 55.39 26.8
16 0 -18 8.8 22.3
0 -18 -16 27.3 25.4
0 -18 -16 6.2 26.4
0 18 -16 35.2 16
16 18 0 16.9 18
18 -16 0 23.2 19.7
16 18 0 107.69 37.3
0 -18 16 27.9 28.4
0 -18 16 -78.49 49.3
18 0 16 31.2 21
-16 18 0 6.4 22
-18 16 0 78.89 26.3
0 -16 18 -1.4 31.2
16 -18 0 32.7 27.5
18 0 16 1.9 24
16 -18 0 49.2 22.2
-16 0 18 23.6 41
16 0 18 0.9 23.8
16 0 -18 49.1 16
-18 0 -16 37.1 25.7
16 -18 0 40.8 25.6
0 -16 -18 21.3 23.5
0 16 18 18.4 32.7
0 16 18 -0.9 28.3
-16 0 -18 38.4 23.8
-16 18 0 5.6 22.5
18 16 0 18.7 18.8
18 0 -16 20.8 24.8
0 -16 -18 24 26.8
18 -16 0 37.4 20.7
16 0 18 59.59 65.79
-16 18 0 20.8 24.6
0 -16 18 111.39 51.89
-2 -18 16 304.07 70.09
-18 -2 -16 191.98 32
2 -16 18 223.38 49.6
18 -16 -2 192.28 24.3
2 18 16 224.48 39.6
-18 2 16 219.18 52.39
-2 -16 -18 219.88 30.3
-2 -18 16 223.18 33
18 -2 16 219.68 28.1
-16 -2 18 141.19 42.8
18 -16 -2 223.88 28.2
18 16 2 159.58 20.8
16 -2 -18 205.38 30
18 -2 16 162.08 26.4
-2 16 18 154.08 31.7
16 -18 2 157.98 30.4
16 18 -2 249.97 37.4
2 -16 18 167.18 38
18 2 -16 202.58 30.6
16 -18 2 158.48 30.1
16 2 18 340.27 71.29
2 18 16 217.58 31.7
18 -2 16 153.68 69.79
16 2 18 159.98 30.3
16 18 -2 163.78 20.7
-18 16 -2 226.58 33.3
-16 18 2 229.18 31.1
-18 2 16 214.58 31.6
-2 16 18 187.78 35.6
-18 16 -2 169.58 29.3
18 -16 -2 190.68 33.6
-2 -16 -18 271.27 33.9
-16 18 2 185.78 27.5
-2 18 -16 246.58 28.5
18 2 -16 193.28 28.1
-16 2 -18 218.18 29.5
16 -2 -18 194.28 26.4
2 -18 -16 208.58 29.2
2 16 -18 165.98 20.1
2 -18 -16 179.68 29.2
16 -18 2 241.18 34.9
18 -16 2 245.88 33.4
-18 16 2 237.18 30.2
16 -18 -2 227.18 29.1
16 18 2 177.68 24.4
-2 -18 -16 216.68 31.1
18 -2 -16 187.38 26.3
18 -2 -16 175.88 29.9
-16 18 -2 188.78 22.9
2 -18 16 238.28 48.1
2 -16 -18 211.68 28.1
18 2 16 199.08 29
18 -16 2 240.48 29.5
2 -16 -18 172.38 31.4
2 18 -16 220.38 28.9
16 18 2 233.48 38.3
18 -16 2 222.88 28.8
-16 18 -2 227.08 31.8
-2 16 -18 166.58 19.9
-16 -2 -18 314.07 41.3
18 16 -2 227.48 31.1
-2 18 16 175.78 34.8
-16 18 -2 179.08 29.4
-2 -18 -16 209.98 31
16 2 -18 166.58 20.7
-16 2 18 226.38 47.6
2 16 18 250.87 34.7
-16 -18 2 203.78 40.9
-2 -16 18 220.28 36.8
16 -2 18 176.18 28.6
2 -18 16 215.78 34.5
-2 18 16 150.58 31.1
16 2 -18 178.08 26.4
-18 -2 16 191.28 49.7
-2 -16 18 354.06 70.19
16 -2 18 209.28 57.69
16 -18 -2 186.38 25.8
-16 2 18 192.88 34.4
-18 2 -16 166.48 28.9
2 16 18 228.78 38.6
-18 16 2 246.88 30.6
16 -18 -2 208.48 31.2
16 18 -4 867.01 45.2
-4 -18 16 886.31 57.99
18 -4 16 840.72 53.19
18 -16 -4 957.1 63.79
-18 16 -4 791.22 52.69
-4 -16 -18 870.71 56.59
16 -4 -18 811.32 53.09
-16 4 -18 837.32 51.89
4 -16 18 855.91 72.49
-4 16 18 853.71 63.19
4 18 16 756.02 57.39
18 -16 -4 802.82 46
-18 4 16 849.32 57.19
4 16 -18 826.02 43.8
4 -16 18 803.72 80.19
-18 16 -4 807.42 59.99
16 -18 4 855.81 50.39
16 -4 -18 799.92 56.29
4 -18 -16 855.91 54.19
-18 -4 -16 954.2 91.29
4 18 16 859.31 70.99
-4 18 -16 868.61 42.5
-16 -4 18 755.42 77.69
18 4 -16 819.42 50.69
-16 18 4 857.61 53.39
16 -18 4 925.81 60.99
18 -16 -4 969.4 50.29
16 -18 4 908.51 57.79
16 18 -4 793.52 64.99
-16 18 4 876.91 52.49
-18 4 16 787.82 91.29
18 -4 16 752.32 107.59
18 4 -16 807.12 43.6
-4 -16 -18 756.32 58.89
4 -18 -16 914.91 51.79
18 -4 16 868.51 50.29
-4 16 18 880.51 61.99
18 4 -16 764.82 52.49
16 -4 -18 796.12 41.9
16 4 18 920.71 60.49
-4 18 16 851.51 65.89
-4 16 -18 841.32 42.8
4 -16 -18 825.72 51.29
-16 4 18 812.82 59.89
16 4 -18 835.72 43.8
18 16 -4 947.81 94.79
-16 -18 4 772.62 68.99
-16 4 18 761.52 79.79
-4 -18 -16 896.91 57.79
-4 -18 -16 764.22 59.59
-16 18 -4 821.42 53.99
-16 -4 -18 758.92 53.29
18 -16 4 874.01 50.29
18 -4 -16 782.52 56.79
4 -18 16 853.81 73.09
16 18 4 830.82 49.2
16 -4 18 849.91 96.09
-18 16 4 875.01 53.69
16 18 4 942.11 67.69
18 -4 -16 921.31 42.6
4 -16 -18 889.61 47.8
-16 18 -4 757.92 43
4 16 18 853.11 62.39
18 16 -4 853.41 44.2
-18 16 4 844.72 52.79
-18 -4 16 850.21 85.09
-16 18 -4 862.71 58.09
-4 -16 18 859.71 63.09
-4 18 16 847.62 61.79
4 16 18 785.42 56.69
18 4 16 846.22 58.89
18 -16 4 920.61 53.09
4 -16 -18 704.83 52.39
16 4 -18 811.12 50.79
4 -18 16 979.7 66.69
-18 4 -16 773.42 52.59
4 18 -16 826.62 43.3
16 -18 -4 743.83 48.3
18 -16 4 865.81 61.29
16 -18 -4 864.21 48.9
16 -4 18 787.72 55.09
6 -18 -16 896.31 55.79
6 -16 18 1034.7 76.99
16 18 -6 1000.6 62.19
18 -6 16 1004.1 53.29
18 -16 -6 984.3 51.89
6 -18 -16 1010.7 54.59
-18 16 -6 1044.4 57.69
16 6 18 984.1 62.79
-18 16 -6 878.41 64.79
16 -18 6 1039.9 55.59
6 18 16 876.31 68.39
-16 18 6 853.31 53.09
18 -16 -6 972 47.3
18 6 -16 793.82 57.09
-6 16 18 1054.59 65.09
-16 18 6 979 54.59
18 -6 16 1022.6 56.39
-16 6 -18 891.81 56.49
-6 -16 -18 944.41 66.19
-18 6 16 1010.7 92.99
6 18 16 909.31 58.89
-6 16 18 946.21 67.89
16 -6 -18 960.6 44.8
-16 -6 18 903.21 75.49
6 16 -18 950.9 45.6
16 -6 -18 860.01 56.69
-6 -16 -18 870.71 62.79
18 -6 16 813.52 96.99
16 -6 -18 890.91 55.39
16 18 -6 971.2 47
16 -18 6 930.31 61.99
16 -18 6 980.5 60.19
-18 6 16 826.62 56.99
-18 -16 6 873.41 86.09
-6 -18 16 957.4 58.99
-6 18 -16 938.71 45.2
18 6 -16 965.6 49.99
18 16 -6 965.3 46.5
16 18 6 857.51 68.39
18 -16 6 928.71 54.59
6 -18 16 892.41 83.49
-6 -16 18 983.7 65.49
16 -6 18 956.6 58.49
16 -18 -6 1008.1 51.29
6 -16 -18 907.31 55.19
6 16 18 925.21 59.59
-16 -18 6 901.61 69.29
16 6 -18 841.42 47.4
6 18 -16 1002 46.3
-16 18 -6 925.91 65.49
-6 18 16 996.4 65.19
-18 16 6 882.01 53.79
16 6 -18 868.01 53.39
18 -6 -16 804.22 60.59
18 -16 6 984.6 56.39
-6 16 -18 789.62 61.19
6 -16 -18 870.91 47.9
16 -18 -6 951.2 50.39
-6 18 16 901.21 64.59
18 -6 -16 965.8 45.1
-16 18 -6 972 55.39
18 6 16 999 61.89
-16 6 18 910.91 83.09
-16 18 -6 903.91 44.5
18 -6 -16 867.51 56.19
18 -16 6 1050.99 64.59
-18 6 -16 917.31 55.09
18 16 -6 1014.9 71.69
6 -16 -18 913.21 52.49
6 -18 16 1083.99 70.19
16 -6 18 973.9 89.89
6 16 18 944.81 65.69
-16 -6 -18 844.62 74.09
-16 6 18 867.81 64.39
-18 -6 16 1031.6 87.29
-6 16 -18 902.61 45.5
-18 16 6 906.21 54.49
-6 -18 -16 765.32 65.19
16 -8 -18 270.07 36.8
16 -8 -18 294.37 45.2
16 18 -8 387.16 33.3
18 8 -16 330.27 35.1
-8 16 18 349.27 49.7
-16 8 -18 264.07 34.8
18 -8 16 366.46 51.29
-18 8 16 322.87 43.9
-8 18 -16 334.07 42.9
16 8 18 381.16 50.09
18 -16 -8 370.26 40.3
18 -8 16 310.37 42.4
18 -8 16 330.07 38.7
-8 -18 16 324.87 40.6
-18 -16 8 403.96 56.09
16 -18 8 441.16 49.9
-8 16 18 293.57 40.7
16 -18 8 367.66 47
16 18 -8 369.56 50.99
8 -16 18 425.46 63.29
8 16 -18 332.17 31.8
8 18 16 413.26 44.7
8 -18 -16 365.56 37.7
-16 -8 18 393.46 50.79
16 -18 8 342.87 49.4
-8 18 -16 374.76 31.1
8 -18 -16 349.27 36.8
18 -16 -8 295.37 31.4
18 8 -16 282.87 34.4
8 -18 -16 343.87 41.2
-18 8 16 326.57 59.29
-18 16 -8 372.86 39.6
-16 18 8 384.26 41.6
16 -8 -18 348.87 30.6
8 18 16 357.96 54.69
-16 -18 8 313.87 43.5
16 8 -18 271.77 36.6
-8 -16 18 314.57 41.1
18 8 16 377.76 50.49
18 -8 -16 304.27 44.2
18 16 -8 380.66 32.2
16 -8 18 265.07 49.6
-16 18 -8 362.76 39.9
-8 18 16 372.36 48.8
18 -16 8 317.87 47
8 16 18 273.97 37.2
16 18 8 323.47 38.4
-16 18 -8 369.46 48.3
8 -16 -18 298.17 31.6
16 -18 -8 418.66 39.3
8 16 18 304.37 45.8
-18 8 -16 360.06 38.5
8 18 -16 385.66 30.9
-8 16 -18 345.87 31.3
-18 16 8 297.37 40.1
16 -8 18 332.47 48.1
18 -8 -16 380.86 29.5
-16 8 18 332.37 52.39
-16 18 -8 329.77 31.2
-8 16 -18 199.38 36.3
8 -16 -18 317.87 41
18 -16 8 332.87 42.1
8 -16 -18 333.17 45.4
16 -18 -8 334.67 34.9
18 -16 8 338.37 53.69
-8 18 16 439.66 61.79
8 -18 16 262.17 38
-16 8 18 372.46 50.49
-18 -8 16 314.67 54.39
16 8 -18 329.57 45.1
-8 18 16 332.87 38.6
-18 10 16 97.79 68.39
-10 16 18 80.19 37.3
-10 18 -16 92.39 17
16 10 18 79.89 28.7
10 -18 -16 72.69 38.1
16 -18 10 93.09 30
10 18 16 88.79 32.3
16 -18 10 153.38 33.1
10 16 -18 110.99 18.7
-16 10 -18 73.39 16.6
-18 -16 10 78.59 67.49
-16 -10 18 133.89 46.1
10 -18 -16 89.99 20.2
10 -16 18 97.39 35.5
-10 16 18 84.39 26.7
16 -18 10 41 34.6
16 18 -10 67.89 16.3
-16 10 -18 105.79 34.6
16 -10 -18 89.59 17.2
16 -10 -18 87.49 29
16 -18 10 95.69 28.4
-18 10 16 46.8 22.9
18 -10 16 98.99 20.6
-10 -18 16 46.6 32.5
-18 16 -10 68.09 30.5
10 18 16 70.79 24.5
18 10 -16 100.99 19.8
-16 18 10 123.19 23.9
18 -16 -10 58.49 26.1
18 -16 -10 65.19 15.9
18 -10 16 43.9 37.7
18 -10 16 94.89 26.5
10 -18 -16 120.59 28.4
-16 10 18 80.19 27
18 10 16 68.69 27.3
18 -16 10 76.09 37.2
18 16 -10 99.59 17.4
-10 -16 18 78.79 36.1
16 -10 18 91.09 28.3
16 18 10 39.8 31.7
18 -16 10 68.89 30.8
16 -10 18 100.89 37
10 -16 -18 92.89 17.1
10 -18 16 93.79 30.8
10 -16 -18 -8.4 41.6
18 -10 -16 126.79 28.6
-18 16 10 72.69 20.6
10 18 -16 85.39 17.2
-16 10 18 85.89 44.8
18 -10 -16 92.59 16.8
-18 -10 16 46.7 47.6
18 -16 10 89.69 23.1
-10 18 16 96.29 30.5
16 -18 -10 95.99 20.1
-10 18 16 131.79 40.4
-16 18 -10 101.39 16
16 -18 -10 38.3 24.5
10 16 18 149.59 34.1
18 -16 10 133.49 24.8
-10 16 -18 94.49 17.7
10 16 18 82.19 27.5
10 -16 -18 135.29 29.5
-16 18 -10 100.49 42.9
-10 18 16 54.39 24
16 10 -18 118.39 20.3
-16 -18 10 -22.6 36.2
-18 10 -16 114.09 35.9
16 -12 -18 83.39 15.5
-12 -18 16 27.5 33.4
-16 18 12 135.19 25.3
-16 -12 18 96.39 41.2
18 -12 16 108.89 21
18 -12 16 123.89 37.5
12 16 -18 155.18 18.8
-12 16 18 79.79 25
-12 18 -16 107.29 16.9
16 -18 12 202.58 40.3
18 -12 16 141.99 27.7
18 12 -16 113.19 17.3
16 18 -12 127.09 19.8
12 18 16 119.99 32.7
16 -18 12 142.09 32.4
12 -18 -16 107.49 19.1
-18 -16 12 161.18 69.79
18 -16 -12 113.49 28.4
-16 12 -18 95.39 16.3
12 18 16 106.69 25.6
12 -16 18 117.99 35.5
18 -16 -12 105.69 16.2
-18 12 16 125.39 25.1
12 -18 -16 126.89 27.5
16 -12 -18 97.59 31.2
-18 16 -12 94.59 15.9
16 12 18 169.18 31.1
16 -18 12 117.29 29.8
18 12 16 135.79 31.1
18 -12 -16 87.29 29.4
12 16 18 159.28 31.8
18 -16 12 151.78 31.7
12 -16 -18 124.29 17.9
-18 16 12 128.79 23.8
18 16 -12 97.49 16.2
-12 16 -18 117.69 18.4
-18 12 -16 98.79 16.8
-12 18 16 105.39 27.6
16 12 -18 80.39 17
18 -16 12 161.68 29
16 18 12 191.68 33.1
-16 12 18 104.69 26.8
16 -12 18 131.89 38.2
-16 12 18 141.69 40.6
16 -18 -12 109.09 18.9
16 -12 18 104.39 31.3
12 -16 -18 118.69 28
16 -18 -12 98.19 29.6
-18 -12 16 162.78 46.3
-16 -18 12 122.89 39.6
-12 -16 18 143.49 35.9
18 -16 12 125.39 25.7
-16 18 -12 102.39 16.8
12 16 18 107.09 28.2
18 -12 -16 125.59 17
12 -18 16 94.69 30.6
12 18 -16 142.89 19.6
-18 14 16 435.66 41.1
-14 -18 16 380.46 55.19
16 18 -14 429.26 30
14 18 16 416.06 44.4
-16 -14 18 420.16 50.99
16 14 18 369.76 50.89
16 -14 -18 437.66 51.19
-16 18 14 448.46 41.1
14 18 16 434.06 61.09
16 -18 14 346.37 49.5
14 16 -18 433.46 31.1
14 -16 18 468.55 56.99
18 14 -16 425.06 31
18 -16 -14 312.37 37.4
14 -18 -16 382.46 48.9
-18 16 -14 463.75 30.2
18 -16 -14 452.45 30.1
-16 14 -18 435.46 30.2
14 -18 -16 402.06 32.5
-14 18 -16 455.35 29.2
16 -14 -18 439.86 29.5
-14 16 18 462.15 50.39
18 -14 16 439.06 55.19
18 -14 16 492.65 62.99
-18 -16 14 559.54 72.89
18 -14 -16 378.76 52.29
14 -16 -18 450.35 30.1
14 16 18 440.66 46.8
-18 14 -16 465.25 30.1
-16 18 -14 465.25 29.6
-14 16 -18 412.76 28.9
18 14 16 379.46 54.79
18 -16 14 405.86 56.69
-14 18 16 524.45 45.1
16 -18 -14 444.56 33.8
16 18 14 452.25 52.79
14 -18 16 417.76 55.89
16 -14 18 462.85 56.49
18 -16 14 414.46 58.09
-18 16 14 445.96 38.7
18 16 -14 449.56 30.9
18 -14 -16 420.36 29.6
18 -16 14 444.76 41.2
-18 -14 16 463.35 71.79
14 16 18 386.56 51.89
16 -18 -14 454.95 49.5
14 -16 -18 320.47 48.7
-16 14 18 430.96 48.9
16 14 -18 422.46 31.8
-16 -18 14 445.26 58.99
-14 -16 18 383.96 61.09
14 18 -16 431.26 30.3
16 -18 -16 587.94 59.19
16 16 18 564.24 58.59
-16 16 -18 671.73 33.9
16 -16 18 617.64 57.39
16 16 -18 679.43 35
16 18 -16 641.84 33.7
-16 18 -16 603.14 32.4
-18 16 16 608.94 42.4
16 18 16 603.04 51.09
16 16 18 585.54 54.19
16 -16 -18 553.74 55.29
-16 18 16 603.64 41.6
-16 -18 16 633.04 62.89
18 -16 16 671.83 61.09
16 -16 -18 674.93 33.4
18 -16 -16 605.14 32.7
18 -16 -16 597.74 68.99
-18 -16 16 668.73 75.59
-16 16 18 525.35 49
-16 -16 18 464.75 68.09
18 16 -16 665.83 34.8
16 -18 16 618.54 56.49
0 -18 -18 6.4 29.1
-18 18 0 -11.1 20.7
0 -18 -18 51.59 33.5
0 -18 18 64.49 50.99
-18 0 18 -4 25.9
18 -18 0 44.2 23.7
18 0 18 -6.7 85.29
-18 18 0 56.09 28.7
18 0 18 16.1 25.4
-18 0 -18 38.6 30.7
-18 18 0 17.6 23
0 18 18 -5.4 23.9
18 18 0 3.9 36.1
18 -18 0 38.5 23.6
18 0 -18 -21 14.4
0 18 18 -39.2 26.9
18 -18 0 -24.3 27.3
-18 0 18 -18.1 48.3
18 18 0 13.6 16.5
0 18 -18 -1.1 13.1
18 0 -18 79.89 33.2
18 2 -18 32.8 16.4
2 -18 18 118.29 45.7
18 -2 -18 -10.5 31.8
18 2 -18 56.59 34.6
18 -18 -2 34.8 21.1
2 -18 18 40.3 37.1
-18 18 2 13.2 28.8
18 -18 -2 47.3 27.7
2 18 -18 57.39 16.3
18 -18 2 53.99 23.4
18 -2 -18 19.5 14.1
-18 -2 18 58.69 49.9
-18 2 18 74.49 51.79
-2 -18 18 31 30.5
-2 -18 -18 17.9 30.7
2 -18 -18 35 27.9
18 -18 -2 35.8 22.9
2 18 18 28.6 24.5
-18 -2 -18 90.49 34.6
-2 -18 18 242.78 69.99
-18 18 2 46.1 24.1
-2 18 18 12.8 27.3
2 18 18 57.49 32.5
18 -2 18 8.1 23.9
-18 18 -2 33 28
-2 -18 -18 29.9 33.5
2 -18 -18 47.8 32
18 2 18 47 27.5
18 18 -2 38.4 17.1
18 18 -2 37.5 34.6
18 18 2 48.5 38.6
-18 18 -2 13 18.2
-2 18 -18 43.2 16.6
-18 18 -2 48.1 23.7
18 18 2 53.19 18.8
18 -18 2 65.39 27.2
18 -2 18 82.79 63.79
18 -18 2 -15.1 23.8
-18 2 -18 27.5 30.3
-18 2 18 40.3 26.7
-2 18 18 11.9 24.5
18 4 18 373.06 48.7
-18 4 18 411.26 47.3
18 -4 18 310.17 57.19
4 18 18 413.76 54.89
18 -18 -4 393.56 36.7
18 -18 -4 317.87 46.6
18 -18 4 376.76 50.39
18 4 -18 307.47 30.9
18 4 -18 432.36 52.59
-18 18 -4 305.87 46.9
-18 18 4 406.56 42.2
-4 18 18 358.56 53.39
-4 18 -18 335.27 30.6
18 -18 4 314.37 36.1
4 -18 18 304.37 49.3
18 18 -4 368.16 32
18 -18 -4 339.17 40.9
4 -18 -18 419.76 46
18 -4 -18 240.98 41.8
18 -4 -18 370.16 29.6
18 -4 18 435.46 44.7
-4 18 18 327.67 46.9
4 18 18 343.77 37.4
18 18 -4 382.96 39.9
18 18 4 416.86 50.69
18 -18 4 407.96 43.2
4 -18 18 294.27 45.9
4 18 -18 355.36 31.6
-18 4 -18 377.46 50.89
-18 18 -4 282.77 38.1
-18 4 18 246.38 55.59
-4 -18 18 331.67 52.49
-4 -18 -18 284.17 42.3
-18 18 4 410.76 50.29
-18 18 -4 333.37 32.5
6 18 -18 406.76 30.6
18 18 -6 400.56 53.79
-18 18 -6 374.96 54.59
-6 18 18 360.46 53.09
-18 6 18 266.27 53.99
6 -18 -18 295.27 44
18 -18 -6 399.66 44.7
18 -6 18 393.16 44.2
18 -18 6 381.16 50.49
-6 18 18 347.17 48.9
6 18 18 390.76 54.69
-18 18 -6 345.67 31.4
18 -18 6 509.75 50.89
-18 6 18 331.77 33.6
18 6 -18 357.26 40.1
18 18 -6 409.46 31.3
18 -6 -18 395.86 29.4
-18 18 6 430.46 42.2
18 6 18 480.15 47.1
18 -18 -6 410.56 36.5
18 -6 18 381.46 55.69
-6 -18 18 404.36 53.79
6 18 18 314.67 45.5
-18 -6 18 248.38 51.79
-18 6 -18 376.26 58.49
18 -18 -6 376.36 48.9
-6 18 -18 353.06 29.7
6 -18 18 460.25 66.59
6 -18 -18 384.76 46.5
18 -18 6 332.87 44.8
-18 18 -6 575.94 76.19
-18 18 6 399.96 52.69
-18 8 18 72.09 25
18 -8 18 80.19 25.6
-18 18 8 96.79 23.8
-18 18 -8 32.1 14.7
18 -18 -8 88.59 28.9
8 18 18 71.59 24.6
18 -8 -18 44.9 34.1
18 -8 -18 80.89 15.9
18 -18 8 72.79 29.7
18 8 -18 103.49 21
-8 18 -18 92.59 16.3
-8 18 18 63.99 30.6
8 18 -18 62.09 15
18 -18 -8 116.29 20.3
18 18 -8 54.69 15.6
18 8 18 60.19 26.2
18 -8 18 108.79 44.4
18 -18 8 99.59 25.8
8 -18 -18 100.09 29.5
-18 -8 18 123.39 45.3
-8 -18 18 87.69 33.1
8 -18 -18 73.19 20.1
8 18 18 77.29 29.4
8 -18 18 25.7 33.8
18 -18 8 69.09 36
-8 18 18 76.79 26.7
18 -10 -18 24.2 13.5
18 -10 18 30.3 23.5
10 18 18 11.1 22.9
18 -18 10 18.8 25.3
18 -18 -10 8.1 28.1
18 -10 -18 0.7 33.2
18 -18 10 16.7 27.4
18 18 -10 18.2 13.9
-18 10 -18 8.9 13.5
-18 18 -10 15.5 13.2
10 18 18 41.1 26.4
10 -18 18 35.5 31.5
18 -18 10 32.7 27.7
18 -10 18 10.7 39.4
10 -18 -18 36.4 28.9
-18 18 10 2.7 18.9
18 -18 10 -2.7 38.6
10 18 -18 4.2 13.2
-18 10 18 24.6 22.4
-10 18 -18 -0.9 12.6
-10 18 18 38.4 38.5
-10 18 18 15 25
-18 10 18 12.3 44.3
-10 -18 18 77.59 33.4
18 10 -18 -2.9 16.5
10 -18 -18 -12.8 16.8
18 -18 -10 15.5 16
-18 -18 10 -15.7 44.3
-18 -10 18 75.29 45.7
18 10 18 18.7 26.7
12 18 -18 34.5 12.8
18 -12 18 9.3 26.7
18 -18 -12 50.09 15.9
12 -18 -18 59.79 28.5
-12 -18 18 41.9 32.4
18 -12 -18 104.09 35.8
-18 18 12 24.4 19.8
-12 18 -18 16 12.6
18 12 -18 14 15.6
12 -18 18 3.5 30.8
18 -12 18 -44.7 34.4
12 18 18 20.3 28
18 -12 -18 30 12.6
-18 -18 12 -20.5 41.8
12 18 18 8 22.6
18 18 -12 23.4 12.8
-18 12 18 57.69 24
-18 12 -18 23.7 12.7
18 -18 -12 38.5 31.6
-18 -12 18 -32 44.4
-18 18 -12 16.3 13.3
18 12 18 17.1 26
18 -18 12 9.3 27.7
18 -18 -14 260.57 26.1
18 -14 -18 209.38 23.2
-18 18 14 260.27 34.9
-14 -18 18 168.68 40.5
-18 18 -14 302.07 24.2
14 18 18 225.98 31.3
14 -18 -18 206.48 26
-18 -18 14 222.68 48.4
-18 -14 18 227.88 51.89
18 -18 -14 269.97 44.6
14 -18 18 232.08 35.9
-14 18 18 249.18 29.8
-18 14 18 242.88 27.4
18 14 18 142.89 28.2
-14 18 -18 243.58 23.4
14 18 -18 204.68 24.6
18 14 -18 237.88 25.2
18 18 -14 265.27 24.2
14 -18 -18 153.18 37.9
18 -14 18 263.27 35.2
14 18 18 224.28 27.3
18 -14 18 242.68 37.9
-18 14 -18 248.88 24.1
18 -18 14 263.27 36
18 -16 18 319.67 37.6
-18 -18 16 421.36 55.99
-18 16 18 282.27 39.3
18 16 18 353.06 34.7
-16 -18 18 398.86 61.19
18 -18 16 409.56 47.4
-18 -16 18 333.17 53.39
-18 18 -16 372.36 24.1
-18 18 16 423.26 36.7
16 18 -18 364.26 24.8
18 16 -18 386.56 25.7
18 18 -16 372.06 24.8
16 -18 18 325.57 44.4
16 -18 -18 377.76 26.6
16 18 18 351.86 39.3
-16 18 18 355.56 41.3
-16 18 -18 336.97 23.6
18 -16 -18 404.76 24.5
18 -18 -16 348.17 26.5
-18 16 -18 404.36 24
-18 18 -18 115.49 13.4
18 -18 18 115.99 29.7
-18 18 18 126.69 25.2
18 18 -18 100.79 13.3
-18 -18 18 124.29 51.69
18 -18 -18 97.29 13.9
-1 1 19 716.73 93.59
19 -1 1 753.62 42.7
1 -19 1 766.12 41.8
1 1 19 807.42 69.59
-1 19 -1 852.01 59.19
-1 19 1 720.13 60.89
-1 19 1 781.62 36.4
-1 19 -1 750.12 36.1
1 19 1 659.13 49
1 -1 19 771.32 86.69
-1 -1 19 750.62 87.69
-1 1 19 684.13 81.19
1 -1 19 728.13 93.09
-1 -1 19 726.93 64.99
19 -1 -1 753.52 41.9
-1 19 -1 591.74 48.7
-1 19 1 812.02 50.59
1 19 -1 622.64 48.1
19 1 1 744.83 44.2
-1 1 19 774.82 67.59
1 -19 -1 792.82 40.8
-1 -1 19 740.63 97.09
-19 1 -1 747.03 38.4
-19 1 1 769.62 38.9
19 1 -1 739.63 44
1 1 19 757.62 89.39
1 19 1 706.63 57.49
1 -1 19 779.82 70.49
-1 1 -19 779.92 36.1
19 -1 -1 733.63 40.6
19 -1 1 802.92 42.1
1 1 19 860.41 78.49
1 -1 -19 782.32 36.2
1 1 -19 808.92 36.6
-1 -1 -19 726.33 36.3
1 19 -1 683.33 56.29
-1 19 -3 18 21.3
19 1 -3 51.79 20.9
-3 -1 19 -7.6 59.29
1 3 -19 25.6 13.8
1 19 3 37.6 22.4
-1 3 19 48.5 36.1
1 19 3 31.5 29.6
3 19 -1 61.09 26
19 -1 3 36 20.4
3 1 19 20.8 39.2
19 -3 -1 76.19 17.4
-19 -1 -3 23.3 27.2
-3 19 1 33.8 15.1
-1 -3 -19 57.29 15.1
-1 19 -3 36.7 29.5
1 -3 19 130.39 56.09
-1 3 19 -29.3 52.99
1 -3 19 39.9 44.3
3 19 -1 38.9 23.6
-1 19 -3 25.6 21.7
1 -3 19 30.4 32.7
3 1 19 25.8 45.7
-3 1 -19 38.1 14.6
3 -1 -19 37.7 14.3
19 3 1 34.2 22.7
-3 19 1 11.6 21.9
19 -3 -1 63.49 17.9
19 -1 3 14.5 17.9
3 -19 1 28.6 17.4
3 1 19 76.69 51.49
-3 19 1 41.2 32.3
3 19 -1 61.19 28.8
-1 19 -3 54.69 22.9
1 -19 -3 27.7 18.7
-1 -19 3 -29.6 37.5
-19 1 3 64.69 19.1
-19 3 -1 22.6 16.5
-1 3 19 44.8 39.6
-3 -1 19 21.7 31
-1 -3 19 40.8 52.99
3 -1 19 62.89 41.9
19 3 -1 63.79 24.2
1 3 19 34.9 38.2
3 19 1 50.09 30.1
-19 1 -3 54.99 17.3
19 -1 -3 54.89 18.4
19 -3 1 42.9 17.5
19 -3 1 58.49 18.2
-3 19 -1 17.6 22.2
-3 -1 -19 49.3 15.1
1 3 19 67.09 51.59
3 -1 19 -23.9 40.8
1 19 -3 29.9 21.1
1 19 -3 53.49 27.1
-3 19 -1 111.39 33.2
1 -19 3 85.59 35.6
3 -1 19 29.2 43.6
3 -19 -1 20.6 16.4
1 -3 -19 28.9 14.5
-3 1 19 127.29 60.29
-3 19 -1 26.7 15.8
19 1 3 55.69 21.7
-3 1 19 -21.8 41
1 19 -3 34.7 24.2
1 3 19 73.69 41.3
-1 3 -19 56.59 14.6
-19 3 1 8.7 16.7
-1 19 3 49.6 23
3 19 1 30.8 23.7
1 -19 3 67.39 22
3 1 -19 59.09 14.9
-1 -3 19 58.19 33.6
-3 1 19 -1.5 29.4
-1 19 3 82.49 32.4
-1 -19 -3 91.39 26.7
-3 -3 -19 29.5 14.3
3 19 3 10.1 25.7
-19 3 -3 57.29 17.1
19 -3 3 26.9 17.9
-3 -3 19 10.6 57.79
-3 19 3 -11.1 15.1
-3 19 3 -23.6 22.9
3 -3 19 -3.5 44.5
3 -19 3 15.1 19.7
19 -3 3 14.5 17.7
3 -19 -3 21.9 17.7
3 -19 3 18.3 28.9
3 19 3 28.2 24.6
3 19 -3 9 24.4
19 -3 -3 25.2 16.8
3 -3 -19 20 14
3 3 -19 14.1 13.2
19 3 3 5.2 25.4
19 -3 -3 -20.5 14.4
-3 -3 19 31 32.2
-3 3 19 12.2 34
3 -3 19 7.6 38.1
3 3 19 5.9 42.9
-3 19 -3 -30.2 33.1
-3 19 3 10.1 32.4
3 19 -3 -29.7 25.4
-3 19 -3 29.2 23.5
19 3 -3 64.49 24.1
-3 3 19 40.9 36.2
3 19 -3 2 21.1
-3 3 19 60.69 61.29
-19 3 3 21.9 17.6
-3 3 -19 25.2 15.1
3 3 19 -6.6 45.2
3 -3 19 43.5 46.1
-3 19 -3 3.7 20.4
3 3 19 -1 33.6
-3 19 -3 -6.7 15.9
5 19 -1 64.29 23.7
1 5 -19 56.69 14.4
5 19 -1 31.6 26.7
-1 5 19 59.89 38.7
-5 19 1 51.39 25.4
-5 -1 19 16.4 32.4
19 1 -5 22.7 18.3
19 -1 5 52.69 22.3
1 -5 19 101.99 49.8
5 -1 -19 61.29 15.5
-19 -1 -5 69.39 19.6
5 1 19 39.2 45.9
1 -5 19 45.8 33
19 -5 -1 54.19 17.3
19 -1 5 44.6 22.3
5 1 19 144.29 37.7
1 -19 -5 48.9 18.3
-19 5 -1 23.8 16.4
5 19 -1 16.4 20.6
5 1 19 -34.7 53.39
-1 5 19 34.6 33.4
-5 19 1 10.4 37.6
19 -5 -1 35.8 16.1
-1 -19 5 36.9 40.5
-5 19 1 69.59 17.3
-1 19 -5 55.09 25.9
-5 -1 19 -59.19 65.99
1 19 5 34.8 29.4
-1 -5 -19 19.6 15.5
-1 19 -5 15.5 29.3
-5 1 -19 35 16.2
-1 19 -5 44 18.7
-1 5 19 114.69 51.49
19 5 1 86.49 35.4
1 19 5 55.49 26.6
5 -19 1 47.3 18.8
1 19 -5 60.29 29.2
-19 5 1 33.9 18
5 -1 19 103.39 48.1
1 5 19 77.69 38.4
19 -5 1 73.59 17.8
-5 19 -1 35 39.2
1 19 -5 38.7 25.1
-1 5 -19 53.99 15
-1 19 5 -12.5 30.7
5 -1 19 30.5 38.2
-5 1 19 100.99 67.49
19 -1 -5 57.49 18.5
-5 -1 -19 73.39 16.6
5 1 -19 38.7 14.4
-1 -5 19 81.39 56.29
-5 19 -1 68.79 18.2
-1 19 5 96.69 27.8
1 5 19 129.99 55.39
19 -5 1 47.1 17.1
-19 1 -5 52.69 16.9
1 -19 5 20 31.2
1 19 -5 57.59 18.9
-1 5 -19 55.29 14.6
5 -19 -1 24.8 16.4
1 -5 -19 51.39 16.2
5 19 1 45.5 23
5 -1 19 78.69 54.69
-1 -19 -5 69.39 20.7
-5 1 19 39.5 41.9
-1 -5 19 21.5 30.8
-5 19 -1 11 24.4
1 5 19 30.7 33.6
-5 1 19 38.3 34.4
5 19 1 8.7 28.1
19 1 5 55.89 22.1
5 -19 3 128.59 21.3
-3 19 -5 166.68 28.1
-19 3 5 162.38 21.8
-3 5 19 178.08 39.3
5 19 -3 127.59 28.3
5 3 19 212.08 53.29
-5 19 3 157.18 26.4
-5 -3 19 173.98 37.8
-3 -5 -19 185.88 25.9
19 3 -5 174.48 25.2
-19 5 -3 204.78 37.6
3 -19 -5 178.18 22.7
19 -3 5 163.38 22.5
5 19 -3 154.78 30.5
19 -5 -3 135.79 18.7
19 -3 5 174.58 24.5
19 5 3 97.59 35.5
5 -19 3 148.19 28.9
-3 19 -5 162.38 36.1
-5 3 -19 195.88 26.3
-19 5 -3 194.58 22.3
-3 19 -5 200.98 23.2
-5 3 -19 176.38 20.7
5 3 19 115.49 35.8
-5 -3 19 127.79 68.89
5 19 -3 204.28 23.7
3 19 5 144.99 30.1
19 5 3 185.68 35.3
-5 19 3 193.88 21.2
-3 5 19 134.59 49.5
3 -5 19 82.49 39.5
5 -3 -19 156.58 19.3
3 5 -19 195.68 23.1
-3 19 -5 172.48 20.1
3 19 5 181.48 29.6
5 3 19 193.88 52.19
-5 19 3 95.89 36.3
3 -5 19 161.58 48.7
19 -5 -3 223.08 26.7
-3 5 19 158.18 40.5
19 -3 -5 165.48 19.3
-3 19 5 150.88 37.2
3 19 -5 202.48 28.7
-3 -5 19 113.89 61.39
-3 -5 19 159.08 35.3
-5 3 19 115.09 61.99
3 -19 5 177.78 31.3
3 5 19 130.69 41.8
3 5 19 180.58 34.4
5 -3 19 200.88 47.6
-5 19 -3 190.68 30.1
19 -5 3 176.38 22.8
5 -3 19 186.58 39.2
-3 5 -19 202.58 21.5
-5 3 19 145.99 38.4
-19 3 -5 131.69 48
19 3 5 270.17 31.4
3 5 19 187.98 55.49
5 19 3 179.98 32.8
3 -5 -19 170.48 20.1
-19 3 -5 157.78 21.8
-5 3 19 172.38 40.1
3 19 -5 205.88 32.9
19 -3 -5 175.18 21.9
19 5 -3 124.59 20.5
5 -19 -3 207.08 23.8
19 -5 3 165.28 22.7
-5 19 -3 222.88 25.2
5 3 -19 186.68 24.5
-3 19 5 170.68 26.6
5 -3 19 128.19 51.29
-5 -3 -19 181.78 25.7
3 5 19 152.68 36.6
-5 19 -3 179.78 20.5
5 19 3 146.59 25.8
3 -19 5 187.48 26.2
-19 5 3 227.98 29.3
-3 5 -19 155.08 19
-5 19 -3 179.68 41.4
19 3 5 187.68 30.7
3 19 -5 234.08 32.3
5 5 19 398.06 57.59
5 19 5 443.96 44.4
-5 5 -19 380.96 32.9
19 -5 5 433.46 34.5
-5 19 -5 512.75 64.49
19 -5 5 425.56 36.2
5 5 19 407.86 59.09
5 19 -5 476.75 47.4
-5 19 5 377.36 44.7
19 5 5 508.35 55.69
-5 19 5 432.56 49.4
-5 19 -5 417.46 33.6
5 -19 5 428.46 38.3
-19 5 -5 412.66 33
5 -19 5 453.05 47.9
-5 19 5 472.15 47
5 -19 -5 458.15 33.7
-19 5 -5 489.85 72.09
-5 -5 -19 429.06 32.1
-19 5 5 441.96 34
-5 5 -19 410.76 29.5
5 -5 19 442.96 54.59
-5 19 5 464.65 32.1
-5 19 -5 471.35 35.6
19 -5 -5 421.16 33.3
-5 -5 19 484.95 56.79
5 19 5 462.55 51.39
5 -5 -19 448.96 29.7
5 5 -19 468.15 29.2
-5 5 19 378.76 45.3
5 -5 19 442.66 58.89
5 -5 19 438.56 51.59
-5 -5 19 475.35 81.59
19 5 5 443.26 53.59
19 -5 -5 458.65 31.9
5 5 19 516.05 47.9
5 19 -5 446.76 37.4
-5 5 19 456.65 64.39
-5 19 -5 420.46 48.4
5 19 -5 466.75 44
19 5 -5 445.36 36
5 5 19 488.25 59.49
-1 -19 7 120.49 40.9
7 -19 1 73.09 19.2
1 7 -19 56.99 15.4
-7 19 1 60.09 25.7
-1 -7 -19 30 16.9
19 1 -7 51.99 19.9
-1 19 -7 29.2 26.8
-7 19 1 53.59 17.2
-19 7 -1 50.19 18
-1 7 19 63.79 34.1
1 19 7 69.79 29.1
-19 7 -1 14.2 29.5
1 -7 19 -15.1 51.29
1 -19 -7 44.6 19.4
19 -7 -1 10.7 17.3
-7 -1 19 51.79 33.2
-1 7 19 40.9 33.6
1 7 -19 10 28.2
7 19 -1 -2.5 27.6
-19 -1 -7 17.4 18.8
-7 1 -19 34.4 13.7
1 19 7 84.39 28.2
-1 19 -7 15.1 26.2
7 1 19 48 45
1 -7 19 49.2 33.9
-1 7 19 16.2 35.5
19 -1 7 48.2 22.1
-7 -1 19 -40.3 75.09
7 1 19 72.39 32.6
7 19 -1 60.09 22.9
19 -7 -1 23.7 15.9
1 7 -19 45.4 15.3
7 19 -1 2.8 20.7
7 -1 -19 57.99 16.9
-1 19 -7 44.6 18.1
7 1 -19 52.19 16.2
-1 19 7 47.9 26.7
1 19 -7 19 16.8
-1 19 7 49.2 30.4
-7 1 19 -47.7 40.4
-1 -7 19 4.7 56.29
1 -7 -19 53.39 17.4
-1 -7 19 31.9 32.8
19 -7 1 34.1 17
-7 19 -1 46.6 18
-1 7 -19 28.2 15.2
-1 7 -19 82.69 27.3
7 -1 19 32.4 46
-19 7 1 5.6 26
1 7 19 24 47
19 -1 -7 60.39 17.4
7 -1 19 20.5 31.4
7 19 1 45.7 27.6
7 -19 -1 56.39 17.7
19 1 7 26.1 23.8
-7 19 -1 25.6 24.8
19 7 -1 16.2 16
-1 -19 -7 60.99 21.1
-1 7 -19 39 16.3
1 7 19 49.3 37.4
1 -19 7 64.19 34.9
-7 1 19 55.19 69.59
1 19 -7 55.59 26.1
7 19 1 60.59 23
-7 19 -1 12.2 27.7
1 7 19 22 31.1
19 1 7 31.2 24.7
-19 7 1 63.59 19.2
1 7 19 42.9 30.2
1 19 -7 21.4 26.7
7 19 1 45.8 25.9
-19 1 -7 52.59 18.5
19 -7 1 63.29 17.4
-7 1 19 61.49 31.3
19 -3 7 22.8 23.9
-7 19 3 14.5 21.1
7 3 19 30.4 33.2
-3 -7 -19 23.6 16.4
-3 19 -7 37.4 26.8
19 3 -7 20.8 18.8
3 7 -19 17.2 14.3
-19 7 -3 24 18
-7 3 -19 14.3 14.6
7 19 -3 36.6 21.8
3 7 -19 39 15.5
-19 7 -3 -15.9 33.7
3 19 7 41.2 28
-3 19 -7 45.2 17.5
7 3 19 4.2 29.9
3 -7 19 77.89 38.3
19 -7 -3 18.1 14.5
7 19 -3 13.3 17.6
19 -3 7 19 18.7
-3 19 -7 38.7 19.6
7 -19 3 42.2 19.1
-7 19 3 16.6 16.2
-7 -3 19 21 31.2
7 -3 -19 20.7 16.6
7 3 19 89.89 48.6
3 -7 19 -1 46.6
7 -19 3 15.4 24.8
-3 7 19 52.99 34.2
-3 7 19 56.19 37.4
3 19 7 50.59 26.6
19 3 -7 27.6 20.3
7 19 -3 27.4 26.6
19 -7 -3 33.5 17.4
-7 -3 19 -117.49 81.59
-3 19 -7 11.6 31.3
-3 7 19 10.8 30.8
3 -19 -7 24.8 18.2
19 -7 3 47.9 17
3 -7 -19 35.9 17.1
-3 -7 19 131.19 69.89
3 7 19 37.3 31.6
19 3 7 13.3 25.2
-3 -7 19 36.6 29.5
-19 3 -7 32.1 17.8
7 -3 19 16.5 41.9
-3 7 -19 32.8 17
19 -3 -7 22.6 19.8
3 19 -7 36.8 17.8
19 -7 3 7.8 17.3
-19 7 3 27.6 26
19 -3 -7 5.2 15.4
3 7 19 34.3 40.3
7 3 -19 30.7 15.6
19 7 -3 25.7 16
7 19 3 21.1 21.4
-3 19 7 33.9 26.6
7 19 3 19.8 28.4
3 19 -7 8.4 24.9
-7 3 19 43.2 33.7
-7 3 19 -0.7 35.3
3 -19 7 3.1 27.1
3 19 -7 -13.2 24.8
3 7 19 -10.8 46.7
-3 19 7 13.6 39.8
7 -19 -3 9.1 15.5
-19 7 3 19.9 18.9
-7 19 -3 36.9 25
-3 7 -19 42.9 15.1
-3 19 7 -23.5 32.7
19 3 7 -13.9 24.9
-7 19 -3 23.3 18.2
-7 19 -3 8.4 18
7 -3 19 -2.6 33.1
3 -19 7 51.99 26.4
3 7 19 -4.9 31.7
-3 7 -19 9.2 25.1
-5 19 -7 187.28 37.6
-7 -5 19 260.67 42
7 5 19 188.28 37.3
-5 19 -7 278.97 30.4
-5 -7 -19 219.18 23.8
-7 5 -19 282.17 27.1
-7 5 -19 223.68 29.4
-5 7 19 198.08 36.8
5 -19 -7 191.88 21.8
5 7 -19 240.88 26.6
5 19 7 264.77 33.7
7 5 19 251.07 37.9
-7 19 5 211.68 30.4
-19 7 -5 214.08 38.4
7 19 -5 236.48 28.7
-7 19 5 195.98 22.9
-5 7 19 149.49 35.9
19 -7 -5 240.68 27.8
5 19 7 141.49 25.8
19 -5 7 251.07 32.9
5 -7 19 201.98 53.79
5 -7 19 196.88 42.7
-5 19 -7 244.18 31.7
19 7 5 247.38 41
5 7 -19 313.27 52.69
7 19 -5 210.58 22.9
7 19 -5 204.68 34.6
19 -7 -5 213.88 26.5
-5 19 -7 179.68 31.3
19 -5 7 270.27 32.3
-7 -5 19 232.48 90.09
7 -5 -19 218.18 27
7 -19 5 246.88 32.5
19 5 -7 240.28 25.4
7 -19 5 242.08 31.9
-19 7 -5 246.98 31
-5 7 19 259.07 45.9
-7 19 5 201.68 45
7 5 19 326.77 59.49
5 7 -19 210.58 27.5
-19 5 7 205.18 24.7
19 -5 -7 283.07 26.7
5 19 -7 224.38 31.3
7 19 5 182.38 31.1
-7 19 -5 209.88 24.8
-5 7 -19 262.87 32.3
-5 7 -19 252.67 28.4
5 7 19 293.97 37.4
-7 5 19 198.98 39.4
-5 19 7 219.78 39.5
7 -5 19 187.78 38.8
19 -7 5 187.48 28.5
5 7 19 236.78 54.09
-5 -7 19 238.78 38.2
-5 19 7 271.47 32.8
5 -19 7 243.68 32.9
-19 7 5 273.77 32.8
7 -19 -5 269.57 28.8
-7 5 19 170.98 39
5 -7 -19 174.68 21.4
-7 19 -5 223.78 30.1
5 19 -7 231.08 30.8
19 7 -5 160.78 21.2
19 5 7 224.68 31
7 5 -19 234.38 25.9
-7 19 -5 259.17 32.3
-5 19 7 268.17 39.7
19 5 7 213.98 32.8
19 -7 5 221.88 31.4
7 19 5 189.48 26.9
-5 -7 19 214.38 80.29
-19 5 -7 170.88 23.5
5 7 19 238.58 50.39
5 19 -7 233.48 28.2
-19 7 5 232.68 30.5
7 -5 19 247.38 50.19
-5 7 -19 230.68 27.7
5 7 19 187.68 34.8
19 -5 -7 225.48 30.5
5 -19 7 198.58 27.5
-7 -7 -19 69.39 32.6
7 -7 -19 43.1 19.1
7 -7 -19 61.99 18.1
19 7 7 77.79 33.9
7 19 7 40.9 25.5
7 7 19 75.59 49.1
7 19 -7 31.8 20.8
7 -19 7 55.99 22.5
7 7 19 85.69 32.5
7 -19 -7 88.79 19.5
19 7 -7 75.19 19.5
-7 -7 19 59.49 35.8
-7 7 19 136.69 41.2
7 7 -19 90.89 32.3
7 7 -19 66.39 16.7
-7 19 7 49.8 35
-7 7 -19 72.59 17.8
-19 7 -7 74.99 22.5
19 -7 -7 68.99 19.1
19 -7 7 56.79 20.9
-19 7 7 53.99 23.5
-7 7 -19 86.59 22.5
7 -7 19 49.4 38.5
7 -7 19 88.59 39.1
-19 7 7 82.99 22.1
19 -7 -7 73.99 17.1
-7 19 -7 107.49 30.2
-7 19 7 79.59 25.8
7 19 -7 65.09 18.6
-7 7 19 54.99 35.2
-7 19 7 49.5 40.2
-7 7 19 82.99 33.4
7 7 19 90.89 33.4
-7 19 -7 78.89 18
7 19 -7 59.99 23.6
19 -7 7 74.79 21.3
7 19 7 39 25.3
-7 19 -7 98.39 22.6
7 -19 7 80.09 25.4
-1 19 -9 68.09 26.2
-1 19 -9 172.78 31.2
-1 9 19 121.69 34.3
9 -1 -19 145.99 21.9
-9 19 1 123.79 27.9
1 -9 19 184.78 56.89
19 -9 -1 172.58 26
9 1 19 122.39 30.6
1 9 -19 135.59 25
1 9 -19 104.79 19.2
-1 -9 -19 155.88 21
9 19 -1 178.08 30.3
9 -1 -19 138.39 19.2
9 19 -1 118.49 22.4
-1 9 19 110.09 38.2
19 -9 -1 161.28 20.9
-1 19 -9 109.99 18.5
-19 -1 -9 178.98 24.9
1 -19 -9 159.08 22.3
1 19 9 183.88 36
19 -1 9 129.79 22.6
19 1 -9 162.88 22.6
19 9 1 175.78 21.7
-9 1 -19 99.09 17.6
1 9 -19 135.99 19.5
1 19 9 153.98 32.8
-19 9 -1 99.89 28
-9 19 1 128.59 21.8
-19 9 -1 129.89 22.9
1 19 9 268.47 54.39
1 -9 19 85.69 33.5
19 -1 9 126.29 23.4
-9 -1 19 147.99 39.4
-1 -19 9 172.78 44.7
-1 9 19 156.58 33
9 -19 1 172.98 22.4
9 19 -1 125.29 22.8
9 1 19 62.69 48.7
9 1 19 97.89 40.2
9 -19 -1 177.18 22.3
9 -1 19 123.79 30.3
-1 9 -19 154.28 21.3
1 9 19 170.28 33.2
-9 1 19 129.09 34.9
-1 19 9 157.68 33.2
19 -9 1 110.29 19.3
1 9 19 208.88 42.6
1 19 -9 212.18 31.3
1 19 -9 134.79 29.6
-1 -19 -9 161.38 24.4
19 9 -1 149.29 20.4
9 19 1 162.68 26.4
-9 1 19 116.99 41.1
-19 1 -9 168.28 23.6
1 -9 -19 152.58 20.8
19 -1 -9 150.48 21
1 19 -9 110.99 18.1
-9 19 -1 137.29 22.1
9 -1 19 78.49 49.4
19 -9 1 120.69 19
9 19 1 122.39 22.3
-9 19 -1 132.69 25.1
-1 9 -19 176.68 25.3
19 1 9 138.99 27.4
-1 -9 19 148.59 33.1
-1 19 9 90.09 30.4
19 1 9 141.49 25.6
9 1 -19 166.08 21.3
1 9 19 173.08 36.3
-1 19 9 140.89 48.7
9 19 1 164.28 31.9
1 -19 9 75.29 36.2
-19 9 1 164.68 23
-9 19 -1 148.89 29.3
-9 -1 -19 151.18 20.1
-1 9 -19 158.08 20.5
-1 -9 19 156.68 59.89
-19 9 1 158.48 30.6
3 9 -19 -17.6 21.6
3 9 -19 -34.6 17.2
-3 -9 -19 0.3 18.7
19 -9 -3 1.2 15.7
19 3 -9 -7.6 18
-9 19 3 4.4 20.5
19 -9 -3 -20.1 16.1
9 -19 3 12.4 17.4
9 19 -3 -21.3 18.3
-3 19 -9 -7.6 15
9 3 19 48.7 36.7
-3 9 19 22.7 30.7
-3 19 -9 7.1 28.2
9 19 -3 -1 26.2
3 -19 -9 -30.6 16.5
-9 3 -19 -4.4 15
19 3 -9 -5.3 19.7
3 -9 19 8.7 36.5
-9 19 3 4.9 19.1
9 -19 3 8.4 25.3
9 3 19 10.8 49.9
-3 9 19 -26.1 31.9
19 -3 9 -0.6 21
3 -9 19 -1.4 40
9 3 19 -8.7 26.5
-3 9 19 0.6 30.5
9 -3 -19 20.5 19.2
3 19 9 -4.8 27
-9 -3 19 30.4 35.2
9 -3 -19 -9.1 15.2
3 9 -19 6.3 15.6
-19 9 -3 -14.9 18.3
9 19 -3 -1.9 18.7
-3 19 -9 37.6 28.4
-19 9 -3 -8.8 30.9
3 19 9 33.1 30.5
19 9 -3 -5.6 16
19 -3 -9 -7.1 14.4
-3 19 9 -6.2 30.1
9 -3 19 19.9 42.7
3 19 -9 9.1 25.3
-3 9 -19 5.3 17
-3 9 -19 15.2 17.9
3 19 -9 19.8 21.9
3 -19 9 13.9 30.5
-9 19 -3 22.3 25.4
19 -9 3 0.8 17.6
3 -9 -19 9.8 17.1
3 19 -9 -24.1 14.3
-9 19 -3 12.1 18.9
-9 3 19 -23.5 34.3
-19 9 3 -11.5 25.9
-3 19 9 -16 26.9
9 19 3 -20.8 28.2
-9 -3 -19 5.7 15.1
19 3 9 -2.4 23.3
19 -3 -9 -9.3 22.3
9 -19 -3 -15.6 15.7
9 19 3 -9.3 17.8
-9 3 19 13.1 32.5
-3 19 9 80.89 41.5
-3 9 -19 -25.4 21.5
-19 9 3 12.7 18.9
19 3 9 -10.4 23.4
19 -9 3 15.4 16.5
3 9 19 -13.8 37.6
3 -19 9 33.5 33.6
-3 -9 19 12.1 30
3 9 19 42.4 28.3
3 9 19 17.2 29.8
9 3 -19 13.3 14.7
-9 19 -3 15.5 17.6
9 -3 19 -9.4 26.4
-3 -9 19 -102.49 66.69
-19 3 -9 6.9 19.2
-3 -19 -9 -17 37.3
19 -9 -5 45.1 15.2
9 5 19 26 56.59
9 -19 5 74.09 25.9
-19 9 -5 -10.3 34.5
19 5 -9 75.39 25.6
9 19 -5 37.9 18.2
-5 9 19 66.69 34.2
-5 -9 -19 40.4 21.3
9 -19 5 37.3 19.5
-19 9 -5 41.3 22
9 19 -5 76.09 28.9
5 9 -19 62.99 22.5
5 -19 -9 27.4 17.7
-5 19 -9 55.39 28.8
5 -9 19 61.59 48.4
19 -5 9 47.9 20.9
-9 5 -19 22.9 22.5
-5 19 -9 63.09 17.3
19 5 -9 58.99 17.6
-5 19 -9 26.5 21.5
5 9 -19 77.99 17.3
19 -5 9 75.09 25.5
9 -5 -19 53.09 20.8
-5 9 19 69.79 33.1
9 5 19 67.69 34.5
5 -9 19 60.29 39.6
9 -5 -19 91.59 20.4
-5 9 19 87.09 31.3
-9 -5 19 68.39 32.1
9 5 19 74.19 30.6
-9 19 5 38.2 23.2
-9 5 -19 86.39 18.6
19 -9 -5 78.19 19.6
-9 19 5 34.9 18.6
5 19 9 59.39 26.9
5 19 9 32.5 24.6
-5 19 -9 18.6 31.1
-9 19 -5 24.8 27.3
-5 -9 19 50.19 79.19
-5 9 -19 54.79 21.8
19 9 -5 67.19 18.6
9 19 5 73.19 23.5
19 -9 5 47.1 18.8
5 9 19 16.5 28.5
-9 19 -5 48.8 17.6
-5 9 -19 41.5 21.5
5 -9 -19 48.4 20
9 19 5 51.19 26.7
-5 9 -19 38.7 17.3
9 5 -19 64.19 16.5
5 9 19 58.39 45.3
5 19 -9 20.8 22.8
19 5 9 65.19 29.2
-9 5 19 39.6 34.1
19 -5 -9 62.29 16.4
-9 19 -5 50.39 21.5
5 19 -9 57.69 24.7
5 19 -9 41 15.9
9 -19 -5 74.49 19.4
9 -5 19 37.7 29.2
-19 9 5 51.99 24.6
5 -19 9 28.6 29.4
19 -9 5 40.5 19.2
5 -9 -19 37.8 18.5
-5 19 9 61.99 33
-5 19 9 45.9 37
9 -5 19 35 45.9
19 5 9 92.59 29.8
-9 5 19 58.89 31.3
-5 19 9 69.79 27.8
19 -5 -9 81.49 19.6
5 9 19 40.4 29.3
-5 -9 19 32.8 28.4
-19 9 5 34.9 19
-19 5 -9 65.19 20.9
-7 9 19 -32.5 30.5
7 19 9 1.4 25.4
9 7 19 -11.7 29
9 -7 -19 14.8 18.7
9 7 19 -7 28.6
7 -9 19 27.6 37.5
-19 9 -7 0.3 20.4
19 7 -9 -14.6 16.5
19 -7 9 29 18.7
-7 9 19 49.6 29.3
-7 9 19 -14.4 34
19 -7 9 44.7 24.1
-9 -7 19 -11.2 32.9
-7 19 -9 4.7 15.1
-9 19 7 3.2 22.5
-9 7 -19 -8.7 20.3
-9 7 -19 -2.1 16.5
19 -9 -7 21.5 18.2
-7 19 -9 42 21.8
19 -9 -7 -1.3 13
9 7 19 -52.09 50.59
9 19 -7 13.3 24.1
19 9 7 -71.59 39.9
9 -19 7 -5.8 20.6
7 9 -19 5.6 22.2
7 19 9 -19.8 23.8
7 -19 -9 9.5 18.6
-19 7 9 -5.8 20.4
9 -19 7 -12.5 21.6
9 19 -7 9 14.5
7 9 -19 4.6 16
9 -7 -19 17.7 20
-7 19 -9 -9.3 29.3
-19 9 7 4.6 19.6
-7 19 9 -9 24.9
7 -9 -19 1.4 19.4
-9 19 -7 -12.9 27.9
19 7 9 21.2 31
-9 7 19 -17.4 28.3
7 19 -9 8.7 14.6
-9 7 19 27.7 37.1
7 -19 9 57.69 26
9 -7 19 -24.6 32.1
9 7 -19 6.1 16.5
7 9 19 -20.6 26.7
19 -9 7 7.2 19.9
-9 19 -7 2.7 13.9
7 9 19 -7.7 28.2
9 19 7 -17.4 20.2
9 -7 19 14.6 35.9
-9 19 -7 20 22
-9 7 19 51.29 36.6
9 7 -19 17.3 27.1
-7 19 9 5.5 36
19 9 -7 1.1 14.6
9 19 7 7.3 24.3
19 -9 7 35.4 48.5
7 19 -9 5.3 22.2
19 -7 -9 -9.4 18.2
-7 -9 19 0.3 29.9
7 -19 9 26.2 27.4
-7 9 -19 -4.5 19
19 -7 -9 12.1 14.5
19 -9 7 -4.5 19.4
-19 9 7 -13 22.2
-19 7 -9 -4.6 19.4
7 -9 -19 9 18.5
9 -19 -7 3.5 18.7
-7 19 9 2.9 29.8
-9 9 -19 247.48 32.9
9 -9 -19 250.47 29.5
9 -19 9 238.38 32
9 9 19 202.28 35.3
19 9 -9 209.08 29.7
9 -19 9 186.28 30.6
-9 19 9 278.37 41.4
9 -19 -9 228.88 32.1
19 -9 9 138.19 27.4
9 -9 19 280.57 45.5
-9 9 19 232.18 39.9
9 -19 -9 256.07 30.6
-9 9 19 163.28 32.6
9 9 -19 216.28 30.3
-9 19 -9 196.68 27.8
19 9 9 206.88 40.3
-19 9 -9 191.58 26.8
9 19 -9 206.08 28.6
-9 19 9 198.98 32.2
9 -9 19 175.18 40.4
19 -9 9 212.78 47.9
19 -9 -9 207.78 26.7
-9 19 -9 263.37 34.7
-9 -9 19 176.88 35
9 9 -19 253.07 27.4
-9 19 -9 300.67 38.3
9 -9 -19 215.68 26.8
19 -9 -9 213.78 25.6
-9 9 19 241.18 45
-19 9 9 241.58 31.2
19 -9 9 196.28 26.8
9 19 9 208.38 31.5
-9 9 -19 238.48 27.4
9 19 -9 181.48 27
-9 -19 9 157.38 27.5
9 9 19 155.88 33.1
11 1 19 228.08 77.29
-1 19 -11 266.27 28.9
-19 11 -1 370.76 48.5
11 1 19 256.77 59.79
1 19 11 345.67 52.19
-1 -19 11 252.17 48.9
-11 19 1 281.87 35
-1 -11 -19 288.37 34.7
1 19 11 378.86 40.7
19 -11 -1 297.57 30
-11 -1 19 352.46 47.3
11 -1 -19 284.17 38.9
-1 19 -11 331.67 50.69
1 11 -19 291.47 31.1
19 1 -11 311.57 31.7
-1 11 19 215.98 32.4
19 -11 -1 270.57 29.4
-1 11 19 278.77 39.5
-1 19 -11 202.68 28.4
19 11 1 322.57 31.3
1 -19 -11 262.67 35.3
-1 11 19 363.86 45.6
-19 11 -1 288.17 33
19 -1 11 290.47 35.9
-19 -1 -11 285.57 36.5
11 -19 1 295.97 32.7
19 -11 -1 433.56 82.19
11 -1 -19 282.77 30.9
11 19 -1 392.06 51.39
-11 19 1 288.37 39.8
1 -11 19 363.26 56.39
1 19 11 285.97 36.9
19 -1 11 318.27 38.3
11 19 -1 308.57 36.1
11 -19 1 315.57 43.2
1 11 -19 323.37 36.5
11 1 19 237.78 32.3
-11 1 -19 344.67 30.8
1 11 -19 316.97 36.5
1 -11 19 382.86 55.99
-1 11 -19 269.47 34.8
11 19 1 296.67 38.8
19 -11 1 258.17 45.4
-1 19 11 328.37 38.7
11 -1 19 261.47 55.79
-1 -11 19 294.17 38.5
19 -11 1 326.27 31.5
11 -19 -1 269.97 32.1
19 -1 -11 318.47 30.5
-1 -11 19 275.67 62.69
11 1 -19 357.26 30.9
1 19 -11 308.27 28.8
19 1 11 275.77 37.5
19 1 11 306.97 40.1
11 19 1 361.26 50.79
1 19 -11 287.07 32.7
1 -11 -19 276.57 33.6
-1 19 11 330.57 40.3
-1 19 11 304.37 46.9
11 -1 19 305.47 36
19 11 -1 292.97 29.8
-11 19 -1 318.27 34.4
-11 1 19 232.58 39.8
-11 19 -1 270.27 41.4
-19 11 1 337.67 35.2
1 19 -11 386.76 48.8
-1 11 -19 324.97 34.4
-19 11 1 322.97 34.3
11 1 -19 308.77 32.6
1 11 19 308.47 41.6
-11 19 -1 339.47 37.1
-1 11 -19 293.27 32.1
1 11 19 324.97 46.7
-1 -19 -11 304.27 45.5
1 11 19 280.17 42.3
-19 1 -11 335.77 35.6
19 -11 1 289.37 30
1 -19 11 447.66 64.79
-3 19 -11 124.99 31.3
3 -11 19 71.59 39.7
-11 3 -19 109.09 20.2
11 -19 3 100.19 24.4
-3 19 -11 53.39 15.9
19 -3 11 92.59 23
-3 -11 -19 108.49 23.8
11 19 -3 142.39 31.6
3 19 11 66.79 28.5
-11 19 3 84.39 25.1
-19 11 -3 101.79 30.7
11 3 19 95.09 27.6
19 -3 11 71.79 20
11 3 19 49.6 39.6
3 19 11 38.1 47.3
19 -11 -3 56.59 18.1
11 -19 3 96.89 21.6
3 19 11 97.89 33.1
-11 -3 19 113.19 35.8
-3 19 -11 119.89 31.7
3 11 -19 50.69 19.5
-3 11 19 120.89 40
11 19 -3 93.29 19.3
-11 19 3 55.29 20.1
3 -19 -11 78.89 22.5
11 -3 -19 123.19 24.6
-3 11 19 99.69 33.9
19 -11 -3 37.8 15.1
-3 11 19 42.1 31.5
19 3 -11 122.09 22.8
11 -3 -19 57.49 18.7
19 3 -11 103.89 21.1
3 -11 19 60.19 36.4
11 3 19 64.39 54.49
-19 11 -3 27.9 19.7
3 11 -19 95.19 20.6
-11 19 -3 118.99 27.3
-19 11 3 45.2 23.5
3 -11 -19 36.6 18.8
-3 -11 19 63.19 32
19 -3 -11 92.19 18.2
11 -19 -3 61.29 18.6
3 11 19 35.8 25
-3 11 -19 91.29 22.2
11 -3 19 106.29 29.6
19 3 11 90.79 25.6
19 -11 3 78.99 19.7
-11 3 19 76.69 40.7
3 19 -11 44.1 26
19 -11 3 47.7 42.2
-11 -3 -19 100.39 19.4
3 11 19 111.79 38.9
3 11 19 114.39 33.8
11 19 3 68.29 28.4
3 -11 -19 120.69 23.2
11 -3 19 174.58 49.7
-11 19 -3 84.19 20
-3 -11 19 -34.7 69.09
-11 3 19 51.49 34.3
3 19 -11 133.59 19.4
-3 11 -19 64.59 20.3
-3 11 -19 110.29 21.3
-19 11 3 106.79 24
-3 19 11 113.59 31.6
-3 19 11 52.19 31
3 -19 11 153.88 34.5
-19 3 -11 40.4 21.6
-11 19 -3 84.19 21.2
19 -11 3 69.79 17.8
19 11 -3 93.69 18
3 19 -11 68.29 24.5
11 3 -19 59.99 18.2
19 3 11 41.3 25.3
-3 19 11 75.89 36.6
11 -19 5 18.3 24.7
11 5 19 46.7 35.6
5 11 -19 1.9 16.2
19 5 -11 -9.9 22.8
11 19 -5 -22.2 28.1
-19 5 11 -2.9 21.6
11 -5 -19 43.7 19.4
-5 11 19 41.7 30.2
-5 11 19 35.3 37.9
19 -5 11 21.8 21.1
5 -19 -11 9 19.4
19 -11 -5 19.9 17.5
-11 5 -19 19.8 20.4
5 -11 19 40.4 46
-5 11 19 -28.4 28.6
-5 19 -11 -47.9 32
-19 11 -5 -17.1 21.5
11 -5 -19 63.29 22.9
11 -19 5 21.6 21.6
-11 19 5 -5.7 19.1
5 19 11 50.29 31.8
5 -19 -11 -17.8 19.3
19 -5 11 -6 18.8
-19 11 -5 9.7 32.2
-11 -5 19 1.5 36.6
-11 19 5 2.5 21.1
5 19 11 26.8 27.4
5 -11 19 26.9 38.9
-11 5 -19 43.2 19.1
11 19 -5 19.8 15.9
11 5 19 -18.9 28.5
19 -11 -5 21.3 16.2
5 11 -19 16.3 19.3
5 19 11 115.69 79.99
11 5 19 -1.1 57.39
19 5 -11 -4.1 16.2
-5 -11 -19 14.8 24.5
-5 19 -11 20.9 15.9
-5 19 -11 -0.2 24.7
-5 -19 11 -11.6 22.5
-11 5 19 25.7 39.7
-5 19 11 30 31.1
11 -19 -5 13.2 18.8
-11 5 19 40.8 39.4
11 19 5 8.8 29
-5 19 11 -4.5 33.1
-11 5 19 42 29.3
5 11 19 35.7 27.1
5 -19 11 21.5 29.3
5 19 -11 -7.3 15.5
-11 19 -5 -22.3 20.7
19 -5 -11 11.1 14.7
19 5 11 -18.1 24.6
11 -5 19 -0.3 41.2
-5 19 11 13.3 27.3
-11 -5 -19 -46.4 17.5
5 -11 -19 47.7 20.4
11 -5 19 34.6 28.4
11 5 -19 -2.3 17.5
5 -11 -19 6.1 21.2
-5 11 -19 4.2 19.5
-19 5 -11 32.8 22.1
-5 11 -19 1.2 18
5 19 -11 -8.7 22.4
-19 11 5 -36.1 19.2
-5 -11 19 36 29.9
-11 19 -5 -0.2 27.1
19 5 11 3.7 26.2
19 -11 5 21.2 20.6
-11 19 -5 -2.9 17
19 -5 -11 15.4 22.2
-19 11 5 2.4 25.1
5 11 19 28.8 31.3
19 -11 5 2.1 18.3
19 11 -5 4.4 15.2
-7 19 -11 135.99 18.7
-7 11 19 183.48 35.9
-11 19 7 131.69 24.4
11 19 -7 207.28 29.9
-7 11 19 145.59 33.7
7 11 -19 156.28 23.5
19 -7 11 177.28 59.09
-11 7 -19 179.38 22.4
-11 7 -19 160.58 24.6
-7 19 -11 161.78 52.39
7 11 -19 221.38 30.5
11 -19 7 128.89 25.4
11 -19 7 238.78 31.6
19 -11 -7 178.58 24.2
11 7 19 143.29 35.2
7 19 11 143.39 28.2
7 -19 -11 131.99 22.2
11 19 -7 185.38 30.5
7 -11 19 138.69 44.8
-11 -7 19 206.68 40.8
19 -7 11 140.79 22.9
19 -7 11 155.68 25.3
19 -11 -7 140.89 19.3
-19 7 11 121.99 25.8
-19 11 -7 153.98 27
-7 -19 11 188.98 32.7
11 7 19 147.79 34.1
-7 19 -11 136.69 28.8
19 7 -11 150.68 21.9
-7 11 19 255.77 44.3
11 7 19 212.08 57.79
7 -19 -11 189.48 28.7
11 -7 -19 117.29 23
11 -7 -19 182.68 26.8
19 -7 -11 165.38 25.8
-11 19 -7 208.78 32.5
-19 -7 11 143.09 61.59
19 -7 -11 171.88 20.5
11 7 -19 203.58 28
-11 7 19 215.08 41.7
11 -19 -7 197.28 25.3
19 7 11 203.38 33.2
19 -11 7 145.89 23.4
11 7 -19 195.28 23.8
11 -7 19 118.29 43.1
7 -19 11 116.29 38.3
-11 19 -7 196.78 28
-19 11 7 168.58 29
7 11 19 201.18 37.1
11 -19 -7 116.89 28.9
-7 19 11 230.98 33.8
7 -11 -19 154.48 24.5
-7 11 -19 155.48 22
-19 11 7 182.48 26.3
-11 -7 -19 170.78 22.4
-7 -11 19 218.58 38.8
-7 19 11 202.68 39.3
7 -19 11 160.98 36.6
-11 7 19 183.38 35
11 -7 19 164.88 33.6
19 -11 7 192.08 46.2
7 11 19 89.09 27.4
-11 7 19 212.18 44
7 19 -11 155.58 29.1
-7 19 11 126.69 29.8
-11 19 -7 188.78 26.6
7 -11 -19 126.69 24.4
19 -11 7 176.18 25.9
11 19 7 181.98 32.7
7 19 -11 133.69 18.9
-19 7 -11 171.48 25.2
19 11 -7 154.78 21.8
-7 11 -19 128.89 25.2
7 -19 11 155.78 31.1
19 7 11 228.28 34.2
11 9 19 460.75 55.69
19 -9 11 490.65 56.39
19 -11 -9 427.86 31.4
-19 11 -9 369.46 45
19 -11 -9 384.46 36.2
9 11 -19 380.36 35.2
-11 19 9 371.56 45.1
-9 11 19 405.56 46.7
19 9 -11 413.96 34.7
11 -9 -19 370.26 38.7
11 19 -9 424.06 46.7
-11 9 -19 379.76 41.2
9 -19 -11 434.66 44
11 9 19 377.06 43.3
19 -9 11 434.56 45.7
9 -11 19 403.26 52.49
9 11 -19 309.87 38.5
9 19 11 346.77 46.1
11 -9 -19 436.36 33.8
-9 19 -11 451.35 32.1
-11 -9 19 482.25 62.09
-9 -19 11 410.16 47.7
-9 11 19 389.56 52.99
11 -19 9 330.27 49.7
19 -9 11 361.06 38.6
-9 11 19 352.66 46.7
19 11 9 383.16 51.69
-9 19 -11 302.27 33
11 -9 -19 347.77 40.3
19 -9 11 448.16 40.9
11 19 -9 472.65 35.1
9 -19 -11 374.56 38.5
11 -19 9 465.85 48.3
-11 9 -19 403.96 35.3
-19 9 11 414.56 43.9
-19 9 -11 368.36 44.7
9 -11 -19 448.46 39.4
19 9 11 470.75 63.39
-9 19 11 444.26 47.6
19 -9 -11 424.56 32.6
11 -9 19 372.86 43.1
-11 9 19 496.75 52.99
9 -19 11 359.36 55.09
-11 -9 -19 383.86 39.5
-11 19 -9 489.95 58.69
9 11 19 462.15 54.29
-9 19 11 424.66 49.3
11 9 -19 393.96 35.1
19 11 -9 393.56 34.5
-11 9 19 471.75 68.79
11 9 -19 429.06 38.6
-11 19 -9 415.96 44.2
19 -11 9 442.96 44.4
-11 -19 9 466.15 48.5
-11 19 -9 424.26 32.4
-9 11 -19 382.76 35
9 11 19 459.55 56.19
19 -11 9 459.95 40.8
9 -19 11 370.76 51.49
-19 11 9 471.65 44.9
11 19 9 388.36 50.19
19 -11 9 410.96 48.7
9 19 -11 376.26 32.3
-9 11 -19 440.16 42.2
11 -19 -9 389.36 37.2
-9 -11 19 412.36 56.89
-11 9 19 391.16 50.39
19 -9 -11 313.17 38.7
9 -11 -19 423.46 39.7
-9 19 11 478.95 54.09
-19 -9 11 397.36 62.39
11 -9 19 315.97 44.2
9 19 -11 400.76 44.9
11 -19 -9 363.06 47.4
11 11 -19 592.24 42
-11 11 19 518.25 66.89
-11 -19 11 589.74 52.79
-11 11 -19 565.54 37.5
-11 19 -11 597.14 36.8
11 11 19 583.54 56.09
11 -11 19 612.44 78.59
11 -19 -11 644.34 42.9
11 11 19 590.54 54.99
-11 11 -19 583.54 46.6
19 -11 -11 619.64 36.2
-11 11 19 580.74 56.09
-19 -11 11 457.55 64.39
19 -11 11 601.04 51.59
11 -19 11 645.54 55.79
-11 -11 -19 672.63 50.79
-19 11 11 605.34 47.5
-11 19 11 625.94 47.9
-11 11 19 511.65 74.39
11 11 -19 591.44 41.3
11 19 11 633.14 52.39
11 -19 -11 599.04 54.29
19 11 -11 672.53 39.1
-11 19 -11 506.15 48.8
19 -11 11 548.35 70.39
11 -11 -19 626.84 37.5
19 11 11 490.85 65.19
11 19 -11 619.84 38.1
19 -11 11 607.14 44.5
11 -11 -19 661.03 48.1
11 -11 -19 601.24 44.7
19 -11 11 557.64 43.5
-19 11 -11 467.25 49.4
-11 -11 19 512.55 64.69
11 19 -11 664.33 49.4
11 -19 11 703.83 58.29
11 -11 19 663.23 72.29
19 -11 -11 633.94 45.4
-1 13 19 147.69 33.5
13 1 19 121.69 30.5
-1 13 19 149.29 36.3
13 -19 1 135.49 28.6
13 -19 1 125.09 22.5
13 19 -1 93.09 31.4
19 -13 -1 98.19 20.2
-1 -19 13 145.29 27.5
1 -13 19 186.48 35.5
-13 19 1 145.19 24.6
-1 19 -13 112.79 19.8
1 19 13 86.29 40.6
-1 -13 -19 139.19 25.7
13 -1 -19 149.09 23.7
19 13 1 100.89 19.2
13 -1 -19 179.48 28.5
-1 19 -13 146.49 41.7
1 19 13 193.98 34.1
-13 1 -19 113.79 22.9
19 -1 13 106.39 22.5
-13 -1 19 184.28 44.3
1 -19 -13 103.39 26.2
-19 1 13 141.39 61.09
-19 13 -1 90.59 31
19 -1 13 123.99 24
-1 13 19 128.89 35.2
13 1 19 124.39 61.79
19 -13 -1 145.59 42.5
1 13 -19 95.59 19.4
19 1 -13 138.09 20.6
-1 -19 13 81.89 50.19
-13 19 1 137.29 26.4
-1 -13 -19 131.99 24.8
13 19 -1 167.08 24
1 -13 19 95.69 47
-19 13 -1 137.69 26.7
-19 -1 -13 99.19 26.4
1 -19 -13 189.98 27
1 13 -19 112.19 21.5
19 -13 -1 160.78 23.8
19 1 13 106.19 27.9
-13 19 -1 143.09 29.2
-1 19 13 94.09 36.9
1 19 -13 140.29 20.1
-1 -19 -13 118.49 25.6
13 -1 19 100.99 52.69
19 -13 1 138.99 37.1
19 -1 -13 121.89 20
1 13 19 73.29 30.3
-1 -13 19 122.49 32.1
-13 19 -1 128.39 24.8
-13 1 19 165.08 41.9
1 13 19 174.28 37.6
1 -19 13 137.89 43.7
13 -19 -1 133.39 24.1
1 -13 -19 104.49 23.2
1 -13 -19 95.99 24.8
13 19 1 105.89 29.5
19 -13 1 75.59 18.7
-1 13 -19 112.19 23.7
1 19 -13 102.39 26.3
-19 1 -13 117.29 27.4
1 13 19 118.29 33
19 13 -1 118.39 20.8
-19 13 1 110.49 27
13 -1 19 108.59 27.3
1 -19 13 148.69 27.8
-13 19 -1 117.99 22.9
-1 -13 19 112.69 60.89
-1 19 13 106.39 30.8
-1 13 -19 133.79 20.8
-19 13 1 129.89 24.8
13 19 1 168.48 24.4
13 1 -19 116.59 22.8
19 1 13 126.59 26.3
-1 19 13 124.19 38.1
19 -13 1 101.49 21
-19 -1 13 119.29 62.39
-13 -1 -19 148.89 24.1
-1 -19 -13 84.39 25.8
-19 13 -3 -25.4 28.3
19 3 -13 -10.7 18.2
19 -3 13 -21.7 20.4
13 3 19 -10.3 28
-13 19 3 9.3 22.3
19 -13 -3 18.3 18.3
19 -13 -3 73.09 38.7
13 -3 -19 12.9 20.7
-13 3 -19 -11 20.1
13 19 -3 -15.6 15.6
13 -19 3 -4.2 24.1
-19 13 -3 -7.1 23.3
-13 -3 19 22.5 36.3
13 -3 -19 -13.9 23.9
-3 -13 -19 20 25
19 -13 -3 -3.4 15.1
3 -13 19 -47.7 34.1
3 -13 19 2.6 42.5
13 -19 3 -1 20.7
13 19 -3 -14.5 31.7
3 -19 -13 0.6 22.8
13 3 19 -32.9 56.49
-3 13 19 -34 29.3
-3 -19 13 -3.3 25.1
3 13 -19 -2.4 16.4
3 19 13 18.4 39.4
-3 19 -13 10.6 14.5
3 13 -19 -11.1 19.9
3 19 13 -1.4 27.2
-13 19 3 -4.9 20.8
19 -3 13 35.5 22.7
-3 13 19 11.8 31.3
3 -19 -13 -8.5 22.8
-19 3 13 43.6 62.69
-3 13 19 -15.1 32.8
-3 13 -19 -16.4 23.3
13 3 -19 -19.5 18.7
-19 3 -13 31.6 24
-13 19 -3 -26.9 24.8
-13 -3 -19 -14.9 18.9
-3 -13 19 -4.8 31.3
19 -13 3 -3 34.8
-3 13 -19 -1.5 16.8
-13 3 19 4.4 32.8
13 -19 -3 -9.1 18.4
-3 19 13 -43 34.3
13 -3 19 8.1 24.3
-3 19 13 39.8 31.7
13 -3 19 11.7 46.6
-13 3 19 -63.29 36.8
3 13 19 41 30
3 -19 13 19 27.8
-3 -19 -13 -29.6 22.3
13 19 3 20.8 30
-3 -13 19 -116.59 69.09
19 3 13 10.6 24.4
19 -3 -13 -8.4 14.9
3 13 19 -5.5 25.4
13 19 3 13.5 24.5
3 19 -13 9.6 15.8
19 -13 3 2.6 19.4
-13 19 -3 4.4 16.8
-3 19 13 43.1 33.9
3 -19 13 -34.6 34.2
-19 -3 13 -90.29 53.99
3 19 -13 0.8 25.2
-13 19 -3 -18 21.1
3 -13 -19 -3.7 20.7
19 3 13 -14.2 23.2
-19 13 3 -11.3 24.1
-19 13 3 -25.1 23
3 -13 -19 6.9 21
19 13 -3 -3.6 16.3
19 -13 3 -7.4 19.5
13 -5 -19 68.69 24.8
13 5 19 25.3 59.19
19 5 -13 36.9 22.7
13 -5 -19 48.9 17.3
-13 -5 19 21.4 38.4
-19 5 13 18.2 80.19
13 -19 5 14.4 21.5
-19 5 13 17.9 22.9
5 13 -19 6.8 17.1
-5 19 -13 7 14.5
13 19 -5 50.69 18.6
19 -5 13 39.6 20.5
19 -13 -5 4.9 19.5
-19 13 -5 54.79 33.4
13 19 -5 36 27.7
-13 19 5 13.3 23
19 -5 13 46.7 62.29
5 -13 19 -56.79 42.9
-13 5 -19 -13 21.9
-5 13 19 2.3 30.3
13 5 19 29.8 27
19 -13 -5 -8 38
-5 13 19 77.09 35.9
13 -5 -19 7 23.7
-19 13 -5 66.39 25.1
5 13 -19 -4.8 19.7
5 -19 -13 45.5 21.9
-5 -13 -19 -14.6 26.4
19 -5 13 31.8 22.2
5 -13 19 70.09 40.7
-5 13 19 43.8 31.5
5 -19 -13 10.9 21.6
5 19 13 31.2 43.3
-5 -19 13 23.3 27
19 5 -13 42.8 19.4
13 -19 5 36.4 25.7
5 19 13 27.4 27.9
19 -13 -5 -4.9 16
-13 19 5 4 21.6
-5 19 13 21.5 30.2
5 19 -13 18.3 16.7
13 -19 -5 25.6 18.8
5 13 19 35 32.2
-5 13 -19 47.8 24.4
-5 19 13 36.9 31.2
-5 -19 -13 -51.19 25.8
-13 5 19 -7.3 37.5
13 19 5 -13.5 28.1
5 -13 -19 61.09 22.9
-13 19 -5 29.9 28.1
-19 -5 13 -55.79 55.29
19 -5 -13 17.8 25.8
19 5 13 43.8 26.9
-13 -5 -19 -9.7 21.2
-5 13 -19 31.7 17.7
19 -13 5 30.4 23.5
5 13 19 59.19 28.7
5 19 -13 18.6 23.3
13 -5 19 46.7 44.3
19 13 -5 30.2 16
13 5 -19 28.6 19.7
-5 -13 19 0.2 30.2
5 -13 -19 36.9 23.1
5 -19 13 8.9 33.3
-13 -19 5 39.8 30.1
-13 5 19 -49.5 45.6
-19 13 5 5 22.8
19 -5 -13 28.4 15.1
-13 5 19 25.8 27.9
-13 19 -5 33 23.2
5 -19 13 7.1 30.2
13 5 -19 19.6 19.9
-19 13 5 42.8 23.7
19 -13 5 1.6 35.9
-19 5 -13 15.4 24.7
19 5 13 29.1 23.3
13 -5 19 -1.6 26.4
-5 19 13 30.9 29.4
19 -13 5 70.49 22.4
13 -19 -5 -5.1 30.4
-13 19 -5 24 16.5
7 -13 19 8.7 37.4
13 -19 7 24.5 24.9
-7 -19 13 24.5 28.5
7 13 -19 1.8 18
19 -13 -7 -10.8 13.6
19 -7 13 -14.7 18.8
13 7 19 -29.3 39.3
-13 7 -19 8.4 22.5
13 -7 -19 -25.4 22.2
7 13 -19 -1.5 20.5
-19 13 -7 11.7 26.4
-7 13 19 7.6 33.6
13 -7 -19 -16.8 21.9
-13 7 -19 -26.5 17.3
13 -19 7 9.5 25.1
13 19 -7 10.4 16.7
7 -19 -13 -9 20.9
-19 7 13 17 23.8
13 19 -7 31.2 25.8
-13 19 7 0.9 22.1
19 -13 -7 6.4 20.3
13 7 19 -17.6 25.7
7 19 13 -32.9 42.1
-7 19 -13 34.6 30.7
7 19 13 14.2 23.9
-13 -7 19 27.5 36.8
-7 13 19 57.89 36
13 7 19 2.1 59.09
7 -19 -13 -13.4 24.2
19 7 -13 -0.1 17.8
13 -7 -19 10.1 16.9
-7 13 19 -44.6 27.1
19 -7 13 -29 49.99
-7 19 -13 10.7 15.9
19 -7 13 -25.6 20.2
-19 13 -7 36.5 36.6
7 -19 13 -14.4 29.1
13 19 7 13.2 29.8
-13 -7 -19 -28.4 23.4
19 -7 -13 5.6 15.7
7 -13 -19 -0.3 21.8
19 -13 7 -34.3 22
19 -13 7 12.8 20.8
19 -7 -13 -31.7 24
13 -19 -7 -33 20.2
-7 19 13 -4.8 27.7
7 19 -13 5.3 14.7
-13 -19 7 4.6 27
13 7 -19 -24.3 24.1
7 -19 13 75.39 42.7
7 13 19 -32.4 27.9
-19 7 -13 20.9 25.1
-13 19 -7 -42.7 24.9
-7 13 -19 5.5 24.7
-7 19 13 95.79 35.5
-7 13 -19 -20.4 16.4
13 -7 19 21.7 28.9
13 -7 19 -39.9 41.3
13 7 -19 20.4 19
-13 7 19 42 27
-19 -7 13 -7.1 52.69
-7 -19 -13 -5.7 30.7
19 7 13 11.2 29.9
19 -13 7 4.1 37.1
-7 19 13 14.1 28.8
-13 7 19 31.7 49.2
13 7 -19 12.8 21.9
-19 13 7 -19.6 24.8
13 -19 -7 29.8 31.9
-19 13 7 -17.2 21.6
7 -13 -19 16.8 20.7
-13 7 19 -9.5 37.3
-13 19 -7 29.3 27.9
7 13 19 8.9 24.9
7 19 -13 0.2 21
19 13 -7 -4.7 16.7
-13 19 -7 0.8 15.3
-7 -13 19 -6.6 31.7
13 -9 -19 33.6 26
9 13 -19 29.6 17.8
-9 19 -13 55.69 30
19 -9 13 77.99 46.2
-13 9 -19 52.79 26.8
-19 9 13 50.29 23.6
19 -13 -9 76.79 22.8
19 -13 -9 35 14.9
19 -9 13 60.59 21.4
13 9 19 66.79 29.6
9 -19 -13 53.59 27.2
-19 -13 9 69.79 57.29
-9 13 19 67.49 39.3
19 -9 13 76.39 23.9
-13 9 -19 34.7 16.8
-13 -9 19 29.3 35.2
19 9 -13 44.5 16.6
-13 19 9 41.2 22.5
13 -19 9 58.39 25.3
9 13 -19 46.5 21.9
-19 13 -9 131.79 30.4
9 19 13 59.39 26.1
13 19 -9 36 26.2
-9 -19 13 60.89 29.9
-9 13 19 39.1 29.2
-9 19 -13 80.49 18.1
13 -9 -19 36.7 24.5
9 -19 -13 30.7 25.1
13 -19 9 47.6 31.8
-9 13 19 82.19 35.9
13 9 19 53.19 35.7
13 19 -9 71.99 17.6
9 -13 19 56.29 36.9
13 -9 -19 52.29 16.9
9 19 -13 26.2 15.1
-19 13 9 43 21.6
-13 9 19 46.3 39.5
9 -19 13 49.99 27.8
9 -13 -19 58.39 25.4
-13 19 -9 100.69 28.4
9 13 19 114.69 33.1
13 19 9 74.99 28.6
-19 -9 13 68.79 56.69
-13 9 19 60.79 26.6
-9 13 -19 53.69 27.7
13 -9 19 -11.8 37.9
19 -13 9 22.9 20.5
13 9 -19 36.1 20.5
-13 19 -9 44.9 34.4
-9 13 -19 46.1 16.9
-19 9 -13 27.1 28.4
19 -9 -13 39.8 17.2
13 -19 -9 75.89 25
19 9 13 111.29 33.7
19 -13 9 47.8 36.2
-9 19 13 78.19 41
19 -9 -13 38.5 25.4
9 -13 -19 40.8 17.7
19 13 -9 45.5 16.7
13 -19 -9 45.8 24.6
-9 19 13 71.39 29.5
13 -19 -9 68.09 33.8
-9 19 13 40.5 26.5
13 9 -19 67.99 21.4
19 -13 9 38.2 26.7
-13 19 -9 51.79 16
9 19 -13 30.9 24.5
-13 -9 -19 2.1 28.3
-13 -19 9 39.7 29.4
-9 -13 19 72.89 33.9
9 13 19 57.09 25.5
9 -13 -19 31.4 24
13 -9 19 94.09 32.9
-9 -19 -13 -19 59.19
-13 11 -19 161.28 31.9
19 -13 -11 193.18 25.9
11 -13 19 149.29 40.1
19 -11 13 175.08 46.2
-19 11 13 108.39 23.8
19 -11 13 154.78 24
-11 13 19 178.68 40.9
13 19 -11 189.98 22
13 -11 -19 192.88 31.7
-19 -13 11 164.28 57.29
13 -19 11 156.58 31.3
13 11 19 131.19 30.9
-11 19 -13 137.69 18.5
-11 19 -13 73.59 35.3
-13 19 11 132.79 25.5
13 -11 -19 146.69 19.1
11 13 -19 203.68 23.9
13 -11 -19 151.38 31.5
-13 -11 19 239.98 44.9
11 -19 -13 193.18 30.3
-19 13 -11 156.58 33.1
11 -19 -13 206.68 30.6
11 13 -19 104.89 23.5
-11 13 19 185.68 31.2
11 19 13 191.18 30.1
13 19 -11 141.19 28.2
11 -19 -13 86.79 33.9
19 11 -13 166.48 21.2
19 -13 -11 99.99 26.8
-13 11 -19 241.48 29.8
-11 -19 13 81.59 28.8
19 -11 13 152.98 24.2
-11 13 19 204.88 41.5
13 -19 11 163.88 37.2
13 11 19 195.98 37
-19 -11 13 213.98 57.49
11 -19 13 141.79 31.8
13 19 11 128.19 28.2
-11 13 -19 209.38 29.1
11 -13 -19 176.38 32.2
-11 13 -19 133.09 30.7
13 -11 19 226.58 39
19 13 -11 163.38 20.4
19 -13 11 154.68 23.9
19 -11 -13 138.19 30.5
13 -19 -11 160.18 27.9
11 13 19 161.88 32.6
11 -13 -19 143.19 31.9
11 -13 -19 194.68 27.6
19 11 13 126.99 34
19 -13 11 163.98 38
11 19 -13 220.18 29.8
13 11 -19 111.49 20.3
19 -13 11 167.78 36.6
-13 -19 11 92.59 31.7
13 -19 -11 271.07 36.9
13 -11 19 204.68 41.8
13 11 -19 150.78 24.8
13 -19 -11 138.79 38.4
-13 11 19 217.68 32.7
19 -13 11 185.28 25.8
-11 -13 19 175.78 39.5
-19 13 11 110.29 23.9
-11 19 13 217.48 30.6
-13 11 19 210.38 44.9
-13 19 -11 168.08 32.6
19 -11 -13 180.48 25.5
-19 11 -13 188.38 35.2
-13 19 -11 126.49 17.7
11 13 19 123.09 31.4
13 19 -13 65.09 14.8
19 -13 13 117.49 38.7
13 -19 -13 77.59 27.4
-13 13 19 52.79 26.8
19 -13 13 80.09 23.4
19 -13 -13 49.4 29.5
-13 19 -13 83.09 17.3
13 -13 19 68.59 36.3
13 -19 13 101.49 28.9
-13 -19 13 83.19 34.2
13 13 19 106.39 30.9
-13 -13 19 52.29 39
-13 13 -19 72.89 15.6
13 19 13 72.49 26.5
-19 13 13 92.49 22.8
19 -13 -13 48.6 14.4
19 -13 13 80.59 21.8
13 -13 -19 50.69 27.8
19 13 13 67.69 34.7
13 13 19 90.59 28.6
13 -19 -13 61.79 20.1
-13 13 19 145.39 36.3
-13 19 13 89.59 24.7
19 13 -13 87.49 18
13 13 -19 27.4 16.9
13 -13 -19 37.7 14.7
-1 19 -15 11.4 15.6
19 -15 -1 -25.3 34.5
-1 -15 -19 -8.1 23.8
-15 -1 19 -8.5 37
15 1 19 -11.8 26
19 -15 -1 10.3 20.7
15 -1 -19 16.2 15.2
-1 15 19 17.3 26.2
-15 1 -19 1.4 24.8
19 1 -15 1.2 15.1
1 -15 19 61.49 47.4
1 15 -19 11.4 14.7
-19 -1 -15 5.1 29.4
19 15 1 -5.2 16
1 -19 -15 -37.2 23.5
-15 19 1 41.2 24.1
15 -19 1 1.2 21.7
1 19 15 -12.1 32.4
-19 15 -1 -2.1 23.7
19 -15 -1 14.8 19.1
1 -19 -15 22.5 25.4
-15 19 1 4.6 24.7
1 -15 19 -15.1 32.8
15 19 -1 1.9 31.8
-1 15 19 -22.3 29.3
15 -19 1 -4 24.4
1 19 15 -17 26
19 -1 15 7.2 21
-19 15 -1 12.1 23.7
-1 -19 15 -26.2 55.79
15 19 -1 3.3 17.2
-19 1 15 32.5 53.69
15 -1 -19 10 23.2
19 -1 15 -12.1 20.1
-1 -15 -19 -23.6 26.8
-1 -19 15 19.5 27.7
15 1 19 67.29 60.29
1 -15 -19 -19.2 25
-19 1 -15 13.9 28.1
19 1 15 -8.5 19.9
-1 -15 19 17.1 32.1
15 -19 -1 2.3 26.1
1 -19 15 -35.5 28.8
-15 -1 -19 -29.4 22.7
19 1 15 -11.5 21.7
15 -19 -1 17.6 21.1
-15 19 -1 33.7 19.6
1 19 -15 14.4 15.6
-19 -1 15 -12.3 54.59
-19 15 1 -5 26.4
19 -15 1 -25.4 18.3
-1 19 15 22.3 31.4
1 -19 15 -63.99 43.1
-1 19 15 -44.7 25.2
-15 19 -1 6.4 24.3
19 15 -1 -7.1 16.4
15 -1 19 5.1 54.69
15 -19 -1 47.6 29.6
19 -1 -15 30.7 15.5
15 1 -19 11.5 22.3
-15 1 19 32.9 40.9
1 -15 -19 45.3 24.1
15 1 -19 12.9 15.6
15 19 1 8.3 19.4
-1 -19 -15 13.7 25.1
-15 19 -1 24.6 24.8
-1 15 -19 16.5 15.3
19 -15 1 32.7 22.5
1 15 19 -0.3 24.1
19 -15 1 2.2 29.8
1 15 19 8.4 29.4
15 19 1 17.8 31.5
-1 -19 -15 -28.5 25.5
-1 -15 19 -3.8 58.09
-19 15 1 -10.3 23.1
15 -3 -19 116.99 26.1
3 19 15 142.59 37.2
3 15 -19 169.98 22.4
-3 -19 15 119.89 32.1
-15 19 3 128.49 25.3
-19 15 -3 174.48 31.3
-3 19 -15 167.88 21.4
-15 -3 19 179.38 44.5
-19 15 -3 114.79 29.9
15 -19 3 188.18 27.2
3 19 15 196.48 33.1
15 19 -3 151.18 32
-19 3 15 167.18 60.09
15 -3 -19 157.88 21.2
19 -15 -3 155.68 25.8
19 -15 -3 165.68 35.5
-15 19 3 126.39 26.6
15 3 19 147.39 31.7
-3 -15 -19 158.38 30.7
19 -3 15 120.29 22.5
15 -3 -19 200.58 43.8
3 -15 19 114.59 38.2
19 -15 -3 122.29 20.4
15 -19 3 129.29 30
-3 15 19 163.78 34.9
-3 15 19 137.59 30
15 19 -3 155.98 21.2
3 -19 -15 148.39 28.2
3 -19 -15 155.58 29.7
3 15 -19 127.19 24.9
19 -3 15 185.38 29.6
19 3 -15 160.08 20.8
-3 -15 -19 112.29 29.9
15 3 19 145.89 66.39
-19 3 15 85.59 25.1
-3 15 19 216.18 39.7
-15 3 -19 183.58 29.3
3 -15 19 108.09 44.7
-19 3 -15 166.78 30.3
-3 19 15 116.69 33.5
15 19 3 203.18 35.5
19 -15 3 114.49 25.3
-3 -19 -15 145.49 34.2
15 3 -19 195.08 28.4
3 -19 15 122.59 33.8
19 -15 3 138.09 24.7
15 -3 19 158.18 30.2
-19 15 3 139.39 28.8
3 -15 -19 175.28 29
19 -15 3 194.58 35.2
15 19 3 127.19 24.7
3 15 19 157.08 32.2
15 -19 -3 144.59 29.6
3 15 19 115.09 30.4
19 3 15 141.29 30.8
-3 -19 -15 114.49 27.9
-15 19 -3 119.79 19
15 -19 -3 203.28 29.4
-3 -15 19 168.38 35.4
-19 -3 15 120.29 53.89
3 -19 15 148.79 41.2
-15 19 -3 150.88 30.4
19 15 -3 159.78 21.8
-15 3 19 87.49 43.1
3 -15 -19 149.59 28.7
-15 -19 3 165.98 35.9
3 19 -15 173.18 21.5
15 3 -19 142.69 20.4
-19 15 3 145.09 28
-15 -3 -19 168.48 27.5
15 -3 19 138.89 54.49
-3 -15 19 61.59 74.59
-15 19 -3 125.09 28.7
-3 19 15 197.38 33
-3 15 -19 198.88 22.4
19 -3 -15 124.79 17.9
15 -5 -19 500.45 49.9
-5 -15 -19 418.86 42.3
5 19 15 476.75 66.99
19 5 -15 420.86 38.7
-5 15 19 408.56 54.59
-5 15 19 407.86 53.79
-19 5 15 443.26 45
19 -5 15 427.56 68.59
-19 15 -5 407.56 48
19 -5 15 411.56 42.4
19 -15 -5 447.46 34.9
-19 15 -5 475.85 55.39
19 -15 -5 436.86 41.3
-5 -19 15 486.35 48.5
5 -15 19 518.25 55.79
15 19 -5 421.46 51.89
19 5 -15 447.66 38
15 5 19 486.85 71.89
-15 5 -19 394.56 41.9
5 19 15 490.45 48
15 -5 -19 470.85 33.4
-19 5 15 406.06 67.79
5 -19 -15 402.06 47.4
5 15 -19 434.76 34.2
5 -15 19 447.36 72.19
19 -15 -5 573.14 59.99
-15 -5 19 587.44 69.99
15 -19 5 422.36 43
-5 15 19 474.05 55.69
-5 19 -15 455.95 33.5
15 -19 5 443.46 48.2
5 -19 -15 494.75 45.3
15 5 19 434.16 51.29
5 15 -19 377.46 39.2
15 -5 -19 458.25 45.6
15 19 -5 492.15 36.3
-5 -15 -19 414.86 52.19
-15 19 5 449.86 44.4
19 -5 15 422.26 40.5
-15 19 5 437.46 44.3
-5 15 -19 452.35 50.99
15 19 5 487.85 53.49
15 5 -19 438.56 35.3
5 -19 15 482.25 63.79
19 5 15 472.05 52.19
5 15 19 457.35 55.29
-15 19 -5 379.56 43.7
-15 -5 -19 450.85 45.4
19 -15 5 474.95 41.8
15 5 -19 490.55 41.4
15 -19 -5 453.15 46
5 -15 -19 516.05 44.4
5 15 19 433.46 48.2
-5 19 15 466.55 53.29
5 19 -15 386.26 34
-19 -5 15 460.95 61.09
5 -19 15 472.75 47.1
-15 5 19 505.25 72.09
-15 19 -5 433.06 33.3
5 -15 -19 472.15 35.5
-19 5 -15 390.26 45.4
-5 -19 -15 379.76 52.29
19 -5 -15 409.76 31.7
5 -15 -19 335.97 45.1
-5 19 15 479.65 62.59
-15 19 -5 473.25 53.49
19 15 -5 453.15 34.8
-5 15 -19 440.76 34
-5 19 15 427.86 54.29
-5 -15 19 488.05 58.49
15 -19 -5 477.25 40.9
-19 15 5 439.36 46.7
-19 15 5 447.96 44.6
19 -15 5 474.15 42.8
15 -5 19 405.26 54.39
15 -5 19 419.36 48
-15 -19 5 496.05 57.79
19 -15 5 420.96 58.49
-7 15 19 317.57 38.5
-15 -7 19 207.98 44.2
-19 15 -7 229.28 35.7
7 15 -19 258.07 30.2
-7 -15 -19 275.17 38.9
15 19 -7 210.58 31.9
15 -7 -19 246.98 27.9
15 -19 7 238.18 31.9
7 19 15 208.08 29.9
-15 19 7 277.47 31.9
15 -7 -19 217.58 32.4
-19 7 15 149.99 65.49
19 -15 -7 203.68 29
-19 7 15 247.28 30.7
15 7 19 273.17 36.3
-15 7 -19 235.28 30.6
19 7 -15 257.57 25.6
19 -7 15 245.18 35.5
-15 7 -19 237.88 23.2
7 -19 -15 198.48 28
7 19 15 167.68 39.9
19 -7 15 230.78 53.79
7 -15 19 274.67 45.4
-7 19 -15 226.98 27.9
19 -15 -7 202.98 27.4
7 15 -19 175.78 25.5
-19 15 -7 265.37 38.7
-7 -19 15 270.07 36.4
7 -19 -15 148.69 31
-7 15 19 246.88 38
15 -7 -19 250.27 34.3
15 -19 7 238.18 32.1
19 -7 15 252.77 37.5
-7 15 19 301.67 39.3
15 19 -7 235.18 30.2
7 15 19 294.67 44.6
-7 19 15 199.58 30.4
15 7 -19 278.47 40.6
19 -7 -15 239.88 26.9
15 19 7 190.18 32.5
-7 19 15 214.68 36
-7 15 -19 209.98 36.3
7 -15 -19 268.07 31.5
-15 -7 -19 279.17 44.8
7 -19 15 267.07 38.9
7 -15 -19 234.78 30.3
7 -15 -19 213.08 28.1
-7 19 15 232.58 35.2
-19 15 7 256.67 38.8
-15 -19 7 210.58 38.9
-7 -15 19 241.68 41
-19 -7 15 213.18 56.79
19 7 15 192.88 31.8
-15 19 -7 206.68 33.9
15 -19 -7 261.47 28.2
7 19 -15 286.57 29.7
-15 7 19 165.68 45.7
-19 7 -15 195.38 32.2
19 -15 7 282.57 38.5
19 -15 7 206.58 32
19 15 -7 246.48 30
15 7 -19 242.88 30.2
15 -19 -7 247.78 37.4
19 -15 7 196.08 26.4
-15 19 -7 203.48 33.1
15 -7 19 252.17 33.5
19 -7 -15 217.78 32.8
-19 15 7 245.08 33.2
-7 15 -19 279.57 29.8
-15 19 -7 194.08 27.7
7 15 19 267.87 39.8
15 -7 19 202.48 49.3
-7 -19 -15 317.97 42
-15 19 9 44.5 22.9
15 -9 -19 72.69 32.6
-9 15 19 9.9 30
15 -19 9 83.69 32.6
-19 15 -9 -22.5 29.9
15 -9 -19 34.7 14.6
-9 15 19 96.39 33.6
9 15 -19 72.59 17.7
19 -15 -9 34.4 25.7
-15 9 -19 34.2 16.3
-19 9 15 85.19 24.3
15 19 -9 37.6 14.2
9 -15 19 36.6 37.2
-9 19 -15 43.6 47.2
19 -9 15 -45 38.8
-9 -19 15 40.3 31
15 -19 9 29.3 27.1
19 -15 -9 45 15.1
15 9 19 22.3 28.2
9 15 -19 44.4 24.1
-19 -15 9 49.9 79.39
9 -19 -15 88.99 34.1
15 19 -9 53.09 24.8
-19 9 15 36.7 85.09
9 -19 -15 58.29 26.7
19 9 -15 42.2 16.1
9 19 15 68.09 36
19 -9 15 20.7 18.8
-9 19 -15 31.9 16.7
-15 -9 19 57.29 40.5
-9 15 19 41.7 28.1
9 19 15 49.6 24.5
-15 9 -19 51.09 30.1
15 -9 -19 40.7 30.3
19 -9 15 16.2 21.6
-19 15 9 24.3 23.2
9 -19 15 67.89 32.3
15 -9 19 35.3 25.9
19 15 -9 3.2 14.8
15 9 -19 6.2 26.1
-15 9 19 43.7 43.4
15 -19 -9 54.29 20.9
15 -9 19 24.9 40.1
-15 19 -9 17.6 15.2
9 19 -15 56.59 17.2
9 -15 -19 31.3 24.9
-9 -15 19 26.4 35
19 -9 -15 5 28.7
19 -9 -15 51.79 16.6
-15 19 -9 115.69 34.6
9 15 19 54.99 31.1
-19 -9 15 21.6 50.79
19 -15 9 104.49 33.4
9 15 19 55.49 28.5
-19 9 -15 32.2 32.7
19 -15 9 26.6 33.5
9 -15 -19 41.6 15.4
15 19 9 0.7 28.2
-9 19 15 72.39 37
-9 19 15 -8.2 25.5
-9 19 15 24.2 26.5
19 -15 9 36.9 21.4
-9 15 -19 12.3 14.6
-9 15 -19 -17.5 34.9
-15 -19 9 42.4 33.4
19 9 15 34.5 29.8
15 9 -19 29.8 19.5
15 -19 -9 39.2 25.7
9 -15 -19 27.5 28.4
19 -11 15 27.2 21.5
11 19 15 14 23.5
-19 11 15 21.8 20.9
15 11 19 14.2 27
19 -11 15 -1.4 18.9
19 -15 -11 -8.3 13
11 -19 -15 -5.4 20.3
-11 -19 15 -16 30.7
15 -11 -19 4 27.4
19 -15 -11 40.9 27.8
-11 19 -15 13.4 14.7
15 -19 11 24.1 38.6
15 19 -11 -11.3 12.8
19 11 -15 7 14.7
-11 15 19 30.3 23.9
11 15 -19 3 15.7
15 -11 -19 -15.4 13.9
11 -19 -15 11.9 27.4
11 -15 19 31.3 35.3
15 -19 11 -21.6 26
-15 -11 19 -4.8 38.7
-15 19 11 -3 19.9
19 -11 15 43 38.9
11 19 15 -12.7 38.1
-15 11 -19 20.1 14.6
-11 15 19 21.4 37.5
-15 19 -11 -8 13.7
11 -15 -19 -13.8 13.8
15 19 11 22.8 27.7
19 -15 11 -3.6 31.4
19 -11 -15 1.2 13.6
15 -11 19 49.99 36
-15 -19 11 16.3 34.5
-11 15 -19 -8.8 14.4
19 15 -11 17.4 14.6
15 -11 19 -0.6 29.7
11 19 -15 5.9 15
11 -15 -19 -12.5 26.1
15 -19 -11 -29.6 26.1
19 -11 -15 -46.2 29.4
-15 11 19 -37.3 39.1
15 11 -19 18 17
19 -15 11 -28.7 20
-15 11 19 7.1 40.8
19 11 15 -10.2 27.8
15 -19 -11 9.6 19
11 -19 15 57.89 31
-11 -15 19 45.5 34.5
-19 15 11 12.2 19.2
19 -15 11 11.7 21.5
-11 19 15 11.3 22.8
11 15 19 -29.4 24.8
-11 19 15 -1.8 25.1
19 -15 11 -28.3 35
11 15 19 -0.7 26.7
15 -13 -19 13.4 14
19 -15 -13 52.59 30
15 -13 -19 46.1 29.5
15 -19 13 98.89 30
-15 19 13 50.29 21.3
13 -19 -15 34.5 19.8
-15 -13 19 12.6 38.2
13 -15 19 48.6 33.3
-19 15 -13 33.6 14.1
19 -13 15 48.7 19.5
-13 19 -15 46.6 13.8
-13 -19 15 12.1 33.6
19 -15 -13 22.9 13.1
19 -13 15 4.3 23.6
15 13 19 48.8 26.4
19 13 -15 44.1 14.6
15 19 -13 56.49 16.6
13 -19 -15 51.09 28.2
-15 13 -19 28.8 13.6
-19 -15 13 -25.3 49.3
15 13 19 -14 32.4
-19 13 15 44.8 19.7
13 19 15 40.7 24.4
13 15 -19 29.2 15.5
-13 15 19 39.6 22.2
19 -13 15 65.19 37.1
-15 13 19 44.6 34.9
19 -13 -15 22 12.8
15 -13 19 44.6 34.2
19 -13 -15 -32.3 30.5
-19 15 13 28.6 18.9
13 -15 -19 31 14.1
-13 -15 19 24.9 36.4
13 19 -15 45.3 14.9
-19 13 -15 25.2 13.7
13 15 19 25 26.2
15 -19 -13 21 30.4
-19 -13 15 42.8 49.5
15 13 -19 23.5 15.1
-15 19 -13 32.4 14.4
19 -15 13 33 32.6
-15 -19 13 -1 34.9
-13 19 15 57.79 23.6
13 -19 15 17.5 26.5
-13 15 -19 33.8 13.5
13 15 19 25.4 25.9
15 -19 -13 33.8 19
19 13 15 85.29 30.6
19 -15 13 30.5 20.6
19 -15 13 53.19 25.3
13 -15 -19 62.79 27.8
15 -13 19 54.19 41.7
19 15 -13 43.9 16
15 19 13 42.9 25.2
15 -15 19 265.77 37.3
19 15 -15 241.28 26.7
15 15 19 230.08 32.6
19 -15 -15 265.37 39
-19 -15 15 283.47 54.69
15 -15 -19 208.38 36.6
19 -15 -15 272.27 24.8
15 -15 -19 229.88 25
15 -19 -15 246.48 37.6
19 -15 15 244.38 38.2
15 19 -15 281.67 27
-15 19 15 297.67 30.4
-15 15 -19 238.68 25
15 19 15 358.76 42.6
15 15 19 302.07 33.3
-19 15 -15 265.07 25.2
15 15 -19 222.48 27.8
-19 15 15 234.38 34.9
-15 -19 15 272.77 41.3
-15 -15 19 300.37 45.2
-15 19 -15 267.87 25.2
15 -19 15 233.78 33.7
-19 1 17 18.7 24.6
17 -19 1 42.9 23.8
19 -17 -1 -19.8 29.7
-17 19 1 9.6 28.6
-1 17 19 35 27.4
-17 1 -19 18.5 28.3
19 -1 17 14.1 21.7
-1 -19 17 93.49 57.69
19 -17 -1 -3 19.5
17 -1 -19 -11.5 14.2
1 17 -19 4.9 14.6
19 -17 -1 22.8 23.3
1 -19 -17 49.8 30.6
1 -17 19 19 34.7
17 1 19 64.99 62.39
-17 -1 19 4.3 46.4
-19 17 -1 17.3 24.8
-1 17 19 35.8 25
-1 -17 -19 60.89 28.2
-1 19 -17 16 13.9
-1 -17 -19 7.5 30.8
-19 17 -1 64.09 31.3
-17 19 1 18 22.4
-19 -1 -17 74.99 35.3
-17 -1 19 -33.8 29.1
17 -19 1 3 25.4
-1 -19 17 6.2 30.7
1 -17 19 48 47.5
17 -1 -19 10.5 28.7
1 19 17 57.39 25.5
19 17 1 17.3 16.3
17 -19 1 42 25.8
17 19 -1 8.9 16.3
19 1 -17 15.2 15.2
1 -19 -17 49.3 27.7
-19 1 17 18.8 56.99
17 1 19 6.9 25.4
1 19 17 -4.6 30.1
17 19 -1 6.5 32.3
-17 1 19 -14 29.1
-1 19 17 16.1 26.1
19 -17 1 40.2 22.2
19 -17 1 -11.5 27.4
-17 19 -1 3.2 23.8
-1 -19 -17 -25.5 29.5
-19 -1 17 76.09 56.49
17 -1 19 -6.6 23.3
-1 -17 19 73.19 61.49
-19 1 -17 -30.6 32.1
-1 17 -19 21.9 13.8
1 17 19 2.2 27
-1 -19 -17 -9.7 30.3
17 -19 -1 31.7 25.4
17 1 -19 -3.3 15.5
17 -19 -1 70.29 25.5
-1 19 17 26 29.8
17 1 -19 57.39 29.6
-17 19 -1 19.2 19
1 -19 17 57.39 34.2
17 19 1 -22.1 34.2
1 19 -17 12.9 14.3
-17 -1 -19 8.3 29.1
1 -17 -19 37.9 30.3
-17 1 19 29.7 45.3
19 -1 -17 25.9 15.3
1 -19 17 -15.6 48.7
-17 19 -1 14.8 28.9
19 17 -1 -1.9 15.6
-19 17 1 0.2 27.5
19 1 17 57.29 25.8
17 -19 -1 19.2 25.4
17 -1 19 60.39 61.09
-1 -17 19 90.69 35.4
-19 17 1 -9 22.6
17 19 1 -3.6 17.2
1 -17 -19 -8 25.9
19 -17 1 30.9 25.1
1 17 19 28.4 29.8
17 -3 -19 270.27 27.8
-3 -17 -19 240.18 34.4
3 -19 -17 210.78 32.1
19 -3 17 223.58 63.79
17 19 -3 245.08 30.5
19 -3 17 240.08 28.5
17 -19 3 213.08 31.1
17 -19 3 271.87 31.6
19 3 -17 248.88 28.4
-17 -3 19 154.48 46.4
3 -17 19 211.08 48.5
-19 3 17 211.28 29.9
17 19 -3 229.88 35.1
19 -3 17 288.47 42.3
-19 17 -3 233.98 36.6
-3 -19 17 200.08 36.2
-17 19 3 265.97 40.2
3 -17 19 289.57 45.4
3 17 -19 247.98 28.7
-3 17 19 213.18 30.6
-3 -17 -19 262.67 39.8
17 3 19 266.57 34.3
3 19 17 237.38 37.2
3 -19 -17 269.57 34.1
-17 19 3 341.67 43.9
17 -3 -19 262.37 37.5
19 -17 -3 186.58 28.1
-17 3 -19 247.08 36.8
19 -17 -3 247.28 33.3
-19 3 17 164.98 58.59
-3 19 -17 237.78 28.2
3 19 17 206.68 29.4
17 -19 3 276.67 33.3
-19 17 -3 171.28 28.5
19 -17 -3 275.67 35
-3 -19 -17 260.17 38.1
-19 -3 17 192.98 55.69
17 -19 -3 263.37 32.4
-3 17 -19 276.87 28.7
-17 -3 -19 208.28 37.7
3 -17 -19 280.77 34.2
17 -3 19 288.07 33.3
19 -3 -17 276.77 27.3
-3 -19 -17 217.78 37
3 17 19 210.98 33.8
-3 19 17 250.57 34.2
-17 19 -3 194.58 32.2
17 -3 19 194.78 55.99
-19 17 3 291.37 40.4
19 17 -3 243.58 30.3
19 -17 3 215.08 26.5
-17 -19 3 286.97 64.69
-3 19 17 260.67 36.7
19 -17 3 309.57 35.7
17 3 -19 209.08 33.5
17 19 3 224.68 38.3
3 -17 -19 270.07 35.2
19 3 17 196.98 29.3
3 17 19 226.28 31
-17 19 -3 238.78 23
-19 3 -17 269.57 35.7
-3 -17 19 92.39 131.09
-17 3 19 250.77 34.8
17 3 -19 245.88 28.5
-17 19 -3 239.28 31.4
-17 3 19 237.98 51.49
19 -17 3 166.08 29.2
3 -19 17 256.17 42.5
3 19 -17 201.38 27.4
-19 17 3 273.97 34.4
3 -19 17 302.07 49.3
-3 -17 19 216.18 39.7
17 -19 -3 186.38 26.4
17 -19 -3 285.57 33.5
-5 -17 -19 491.45 63.99
5 19 17 549.74 46.6
5 -19 -17 561.54 48.9
-19 5 17 600.04 77.99
-17 19 5 477.15 48.9
19 -17 -5 480.05 46.1
17 -5 -19 561.84 33.3
17 -19 5 569.44 52.09
-5 -19 17 540.35 56.69
5 -17 19 537.45 68.29
5 19 17 517.25 60.29
-5 17 19 575.14 56.29
5 -19 -17 530.75 54.59
17 -19 5 580.54 52.99
19 -5 17 546.85 44.7
19 -5 17 538.95 40.8
-17 5 -19 512.25 55.69
-5 17 19 557.24 53.49
5 17 -19 499.15 33.8
-19 17 -5 607.04 51.89
17 -19 5 646.34 49.99
-5 19 -17 588.34 34
17 19 -5 550.84 55.19
5 -17 19 502.55 70.49
-19 17 -5 570.44 52.99
17 19 -5 523.25 35
-19 5 17 434.26 44.4
19 -17 -5 489.25 37.1
17 5 19 599.04 50.39
19 -17 -5 500.85 54.89
19 5 -17 570.84 37.7
-17 19 5 518.15 44.1
19 -5 17 557.84 66.79
5 19 -17 565.44 34.7
17 -19 -5 582.74 43.2
19 -17 5 511.15 51.09
-5 19 17 537.15 53.19
19 17 -5 559.24 34.9
-17 5 19 564.34 52.19
-19 5 -17 509.25 57.69
-5 19 17 529.95 53.29
17 19 5 519.45 57.49
5 17 19 542.85 48.6
-19 17 5 598.14 44.3
5 -17 -19 543.55 39.3
19 -17 5 476.95 44.1
17 -5 19 540.05 60.69
-19 -5 17 546.95 63.69
17 5 -19 518.65 59.39
-17 19 -5 492.25 56.09
-19 17 5 492.65 49.6
19 5 17 583.74 51.89
17 5 -19 528.25 36.3
5 -19 17 504.65 69.39
-17 19 -5 494.55 53.69
-17 19 -5 524.75 35
-5 -17 19 524.85 59.29
17 -5 19 444.86 47.4
19 -17 5 602.04 49.6
-17 5 19 610.14 80.29
17 -19 -5 553.54 49.2
5 17 19 507.05 55.19
5 -19 17 488.25 73.39
5 -17 -19 582.04 46.9
19 -5 -17 538.85 32.9
5 -17 -19 475.75 53.29
-5 17 -19 544.35 33.8
17 -19 -5 525.55 47.4
19 7 -17 249.58 33.9
17 -7 -19 277.07 26.9
7 19 17 375.56 42.9
17 19 -7 309.07 29.5
-19 7 17 305.57 40.7
19 -7 17 302.97 39.9
19 -7 17 296.27 34.5
7 -19 -17 302.27 45.1
7 19 17 284.67 36.8
-17 -7 19 272.47 52.39
19 -17 -7 304.77 43.2
-17 19 7 243.98 29.5
7 -17 19 419.46 66.49
-7 17 19 318.67 36.6
-7 -19 17 235.38 35.5
-19 17 -7 328.57 38.5
17 -19 7 278.57 33.4
17 -19 7 355.26 48.2
-7 17 19 268.07 34
17 -7 -19 298.07 39.9
19 -7 17 259.77 53.19
7 17 -19 331.47 29.1
19 -17 -7 265.27 34.9
17 -19 7 339.67 51.29
-7 19 -17 306.27 28.3
17 19 -7 360.86 47.5
19 -17 -7 292.57 32.5
17 7 19 322.27 36.8
-7 19 17 330.77 46.9
17 -7 19 263.07 49.5
17 7 -19 335.17 39.1
7 17 19 270.87 33.8
19 17 -7 271.07 29.1
17 19 7 300.27 36.9
-19 17 7 291.17 38.7
-17 19 -7 404.46 52.39
19 7 17 344.17 36.3
-17 7 19 344.47 51.49
19 -7 -17 296.77 26.9
7 -17 -19 287.07 42.8
7 17 19 348.07 43.6
-17 7 19 369.06 48.3
17 -19 -7 247.58 31.3
19 -17 7 260.97 38.3
-7 19 17 303.47 37.1
7 -17 -19 271.67 31.5
17 -7 19 310.47 44
19 -17 7 291.87 39.2
-19 -7 17 369.16 68.19
-7 -17 19 250.57 40.1
7 19 -17 332.27 29.3
-17 19 -7 316.37 28.7
7 -19 17 246.78 39.3
19 -17 7 281.57 37.8
17 -19 -7 273.97 36.2
-7 17 -19 274.77 28.6
-9 19 -17 34.7 14.7
9 -17 19 58.99 35.3
-9 -19 17 49.2 29.2
9 -19 -17 17.1 25.7
17 -9 -19 60.69 14.8
17 -9 -19 13.2 33.2
17 -19 9 61.89 30
17 -19 9 109.49 29.9
-9 17 19 2.5 32.1
9 19 17 85.19 23.8
-17 9 -19 35.4 14.6
-19 17 -9 25.7 13.1
9 17 -19 33 15.2
17 19 -9 52.69 16.4
17 -19 9 104.29 31.8
-19 9 17 23.6 21.4
19 9 -17 44.8 17
17 -19 9 23.1 37.4
-17 -9 19 80.39 42.6
19 -9 17 55.69 19
19 -9 17 52.79 23.3
17 9 19 87.29 28.2
19 -17 -9 -19.9 27.1
-17 19 9 17.8 20.1
19 -17 -9 21.4 15.9
-9 17 19 69.69 26.5
19 -9 17 -28.5 41.4
9 19 17 19.4 29.3
19 9 17 23 25.7
-17 -19 9 44.4 38.5
9 17 19 24.5 25.6
17 9 -19 49.9 19.7
19 17 -9 45.1 16
19 -9 -17 27.6 13.1
19 -17 9 53.89 29.9
-19 -9 17 70.39 63.79
-9 19 17 43.4 33.9
-17 9 19 22.3 42.7
-17 9 19 55.99 25.9
9 -17 -19 53.99 26.1
17 -19 -9 81.59 29.7
19 -17 9 36.9 38.2
17 19 9 29.6 30.9
-19 17 9 48.5 20
9 19 -17 41.8 15.7
17 -19 -9 71.49 20.8
9 -17 -19 32.8 16.7
-9 -17 19 62.59 31.7
17 -9 19 50.19 39.5
9 -19 17 70.39 32.4
19 -9 -17 5.1 34.6
-9 19 17 59.59 24.4
-9 17 -19 47.7 14.3
-17 19 -9 49.4 15.5
17 -9 19 45.5 24.4
9 17 19 61.49 24.8
19 -17 9 8.5 21.5
19 -17 -11 3.7 14.6
11 17 -19 3.5 12.9
-19 11 17 -24.2 20
11 -17 19 -21.9 32.9
11 -19 -17 4.9 23.6
17 19 -11 8.1 13.6
-19 17 -11 0.2 13
-11 17 19 21.5 22.9
19 -11 17 -12.5 36.7
11 19 17 10.4 21.1
17 11 19 15 24.7
-11 -19 17 14.3 31
17 -19 11 10.5 26.4
19 11 -17 17.5 15.1
19 -11 17 -13.2 22.7
17 -19 11 83.29 43.5
-17 11 -19 -2.1 12.8
17 -11 -19 10.1 12.4
11 -19 -17 -1.2 27.2
11 19 17 51.59 30.9
-19 -17 11 -18.8 60.89
-11 19 -17 10.7 13.4
-17 -11 19 -25.5 39.8
17 -11 -19 -58.79 31.9
19 -17 -11 21.5 31.2
-17 19 11 13.6 19.2
19 -11 -17 -34.3 36.3
-11 -17 19 52.19 33.1
11 17 19 11.3 22.7
-17 11 19 36.1 38.1
-19 11 -17 -9.1 11.4
17 19 11 47.1 31.4
-17 -19 11 49.4 41.2
17 -19 -11 11.8 30.1
19 -17 11 3.4 23.1
11 -17 -19 -10.3 29.3
19 11 17 42.2 26
11 -19 17 -1.5 29.4
-17 11 19 -31.8 26
19 -17 11 -7.9 26.4
11 19 -17 -0.9 13.5
17 11 -19 0.1 17.8
-11 17 -19 5 12.8
19 17 -11 -5 13.6
19 -17 11 -12.6 42.8
-19 -11 17 74.29 49.2
17 -19 -11 9.7 18.1
19 -11 -17 5.3 11.8
11 -17 -19 -4.2 15.6
11 17 19 12.4 25.2
19 -17 11 42.3 28.6
-19 17 11 19.2 18.4
17 -11 19 13 28.4
-11 19 17 7.3 27.9
17 -11 19 13.6 36.1
-17 19 -11 12.2 13.4
-13 -19 17 65.29 34.1
-19 13 17 76.69 21.6
-17 19 13 113.49 22.1
19 13 -17 93.39 16.3
19 -13 17 113.39 36.6
19 -17 -13 145.39 35.2
13 19 17 96.69 25
-17 -13 19 126.99 45
17 -13 -19 114.89 36.6
-19 17 -13 49.99 13.8
17 -19 13 61.19 27.2
19 -17 -13 77.59 15.9
13 17 -19 63.59 14.5
17 19 -13 60.19 14
13 -19 -17 108.89 33.4
19 -13 17 130.69 27
13 -17 19 111.29 32.8
13 19 17 75.89 39.5
17 13 19 111.69 28
-17 13 -19 79.19 15.3
-13 19 -17 68.19 14
17 -13 -19 77.19 14.8
-19 -17 13 13.8 51.59
17 -19 -13 58.99 35
13 17 19 120.19 25.4
17 19 13 125.09 30
-13 -17 19 38.1 36.4
19 13 17 163.98 28.4
13 -17 -19 153.38 33.8
17 -13 19 78.69 36.9
-19 17 13 133.99 24.1
19 17 -13 92.29 15.7
-13 19 17 103.39 25.6
19 -13 -17 52.79 39.9
-19 13 -17 101.89 15.9
-17 19 -13 115.69 16.8
-13 17 -19 91.39 15.6
19 -17 13 89.69 26.4
17 -13 19 68.09 36.2
13 17 19 97.69 26.8
19 -13 -17 88.79 15.4
-19 -13 17 55.29 49.2
-17 -19 13 161.68 41.4
13 -17 -19 79.19 16.3
17 13 -19 97.19 16.8
-17 13 19 116.39 26.9
19 -17 13 70.19 31.1
13 -19 17 73.09 32.7
13 19 -17 84.19 15.6
19 -15 17 312.37 35.5
17 15 19 261.47 29.9
19 -15 17 349.67 51.59
15 -19 -17 279.17 28.2
19 15 -17 314.77 25.4
15 19 17 258.77 38.5
-17 -15 19 355.96 50.99
-19 -17 15 349.96 58.99
-17 19 15 301.47 34.5
17 -19 15 358.96 47
-15 -19 17 322.87 44
-19 17 -15 287.77 22.9
-17 15 -19 342.87 23.4
-19 15 17 335.57 38.2
17 -15 -19 288.57 22.8
19 -17 -15 306.97 26
17 19 -15 347.37 24.4
15 -17 19 348.57 38.2
15 17 -19 320.57 25.6
-15 19 -17 338.67 23.5
19 15 17 284.37 33.9
-17 -19 15 311.97 47.6
-19 -15 17 319.27 55.59
-19 17 15 288.97 31.7
-17 15 19 255.47 33.6
19 -17 15 309.07 49.2
15 17 19 274.67 32.1
-19 15 -17 313.97 23.2
15 19 -17 347.87 24.5
17 15 -19 346.07 25.7
19 17 -15 334.17 24.6
15 17 19 361.96 42.8
15 -19 17 219.28 32.2
17 -15 19 341.17 40.4
15 -17 -19 305.17 25.3
-15 -17 19 404.26 60.09
-15 17 -19 280.17 23.1
-17 19 -15 292.97 23.9
19 -15 -17 331.87 23.8
-15 19 17 407.86 39.6
17 -19 -15 360.46 28.1
19 17 -17 273.67 22.7
-19 -17 17 283.07 58.79
-17 -19 17 154.38 47.7
17 -17 -19 223.38 22.4
-19 17 17 221.18 24.6
19 -17 -17 220.48 21.8
17 -19 -17 240.08 25
17 17 19 305.37 38.5
-17 -17 19 239.88 47.7
-19 17 -17 274.47 20.7
-17 17 -19 256.07 20.3
-17 19 -17 269.87 20.6
17 17 -19 249.78 22.6
17 -19 17 284.37 43.7
17 -17 19 213.98 32.5
19 -17 17 153.88 30.8
17 19 -17 264.27 21.5
-17 19 17 222.08 34.5
-1 -19 19 196.38 37.8
1 -19 19 208.08 51.99
-19 -1 19 201.38 28.6
-1 -19 -19 194.38 36.3
-1 -19 19 127.79 66.89
1 -19 -19 217.58 36.1
19 -19 1 194.68 27.9
19 1 -19 252.97 25.5
19 -19 -1 235.08 29.7
-19 19 -1 233.08 28.6
-19 1 19 187.48 75.99
19 -19 -1 239.18 33.6
19 -19 1 202.88 31.7
-1 19 -19 273.97 26.7
-19 1 19 167.28 27
-1 19 19 231.58 33.2
1 19 19 225.08 32.9
19 1 19 266.57 33.5
19 -19 1 238.58 31.9
1 19 -19 217.58 26.1
-19 19 -1 311.37 34.7
1 19 19 167.18 26.9
-1 19 19 243.68 32.7
19 -1 19 156.08 25.9
19 19 -1 227.38 29.4
1 -19 19 226.58 39.8
19 -19 -1 229.68 28
-19 19 1 269.97 39.4
19 -1 -19 251.37 25.8
19 3 19 13.3 24.3
-19 -3 19 -11 88.39
19 -3 19 -20.6 19.5
-3 -19 -19 80.99 63.89
3 19 19 18.4 24.9
19 -19 3 53.29 24.9
19 -3 -19 24.9 12.8
-19 3 19 14.9 24.6
3 19 -19 31.8 15.5
-3 19 19 34.8 23.9
3 -19 -19 -35.5 30.6
19 -19 -3 44.1 26.2
19 19 -3 -52.29 40.1
-19 19 3 9.7 21.2
3 -19 19 35.4 39.4
19 -19 -3 56.69 27.4
19 -19 3 31.9 27.3
19 19 -3 12.2 15.1
-19 19 -3 26.4 15.5
-3 -19 19 40.6 32.3
19 -19 3 61.79 31.9
19 -3 19 103.69 57.49
3 19 19 18 23.3
19 -19 -3 26.6 20.6
-3 19 -19 31.2 13.9
-19 3 19 109.69 51.69
19 3 -19 32.5 15
-19 19 -3 40.6 24.6
3 -19 19 19.5 39.7
-3 19 19 -40.4 24.9
-5 19 -19 13.2 12.8
5 19 -19 21 14
5 19 19 -0.5 21.5
-19 -5 19 -35.2 45.5
19 5 -19 -9.8 16.8
-5 -19 19 -24.2 31.2
5 -19 19 -36.7 37.7
19 -19 -5 -5 23.5
19 -19 5 38.8 25.9
5 -19 -19 15.4 29.6
-19 19 -5 10.5 13.6
5 19 19 41.8 26.5
19 -5 19 6.7 20.9
-19 19 -5 0.4 25.7
19 19 -5 3.8 14.3
-19 5 19 -5.2 48.8
19 19 -5 21.5 29.2
19 5 19 14 23.5
19 -5 -19 -2.6 12.8
-5 19 19 61.89 26.5
-19 5 19 -2.2 21.7
19 -19 -5 53.69 30.1
19 -19 5 41.2 24.9
19 -5 19 45.7 49.7
-5 19 19 18.9 25
19 -19 5 31.3 34.2
19 -19 -5 -10.6 19.2
-19 19 5 -20.2 19.5
-7 19 19 15.1 26.9
19 -7 19 -4.2 21.9
19 -19 7 16.1 25.1
19 19 -7 3 12.7
-19 7 19 -29.4 23.2
19 -7 19 6.1 42.7
-19 7 -19 6.3 13.9
-19 19 -7 10.4 12.8
19 -19 -7 3.3 18.5
19 -7 -19 11.6 11.7
7 19 19 19.5 26.4
19 -19 7 -2.2 39.8
-19 7 19 -44.9 49
-7 -19 19 -26 30.3
-7 19 19 23.3 21.3
7 -19 19 50.89 35.4
19 -19 -7 24.4 25.9
19 -19 7 -10.9 25.8
7 19 -19 0.7 12.5
-19 19 7 -13.5 17.8
7 -19 -19 -33.4 28.8
19 -19 -7 54.89 30.5
-19 -7 19 43.4 48.4
7 19 19 -5.2 20.4
19 7 19 -10.4 23.3
-7 19 -19 5.5 12.2
19 -9 -19 60.39 14.8
-9 -19 19 93.99 33.6
-19 9 -19 31.4 14.2
-19 -9 19 13.4 49
19 -9 19 31.7 40.2
19 9 19 66.79 26
19 19 -9 40 13.2
9 19 19 38.3 27.3
9 19 -19 37.4 14.2
-19 19 -9 42.5 14
-9 19 -19 36 13.8
9 -19 -19 42.9 31
19 -19 -9 69.49 34.4
19 -19 9 117.69 46.1
19 -19 9 34.9 28.6
19 -9 19 16.8 23.4
19 -19 -9 46.2 25.6
-9 19 19 37.6 23.1
9 -19 19 75.89 34.4
-19 19 9 56.69 20.2
-19 9 19 31.6 23.9
9 19 19 55.89 22.1
19 -19 -9 41.8 17.7
-19 9 19 -35.6 49.4
19 -19 -11 118.99 18.3
19 19 -11 98.89 14.6
19 -11 19 147.99 38
11 19 -19 150.08 17.2
19 -19 -11 180.18 27.7
-19 19 -11 157.28 23
19 -11 -19 141.09 17
-19 11 19 113.09 24.3
-19 19 11 143.69 23.5
-19 -11 19 147.89 53.99
-11 -19 19 170.48 36.3
19 11 -19 84.39 17.5
19 -11 19 179.58 27.8
11 19 19 137.89 24.1
-19 11 -19 134.99 16.2
11 -19 -19 239.68 36.4
19 -19 -11 148.69 40.8
11 -19 19 146.79 34.7
19 11 19 179.58 27.5
-11 19 -19 159.68 22.2
19 -19 11 197.58 30.1
11 19 19 128.89 28.9
-13 19 -19 8.6 11.4
-19 13 19 33.4 23.9
-19 -13 19 88.59 54.99
-19 13 -19 21.6 11.1
19 -13 19 44.4 28.6
19 19 -13 20.2 10.5
13 19 19 62.89 27.9
-19 19 -13 15.7 11.3
13 -19 19 16.8 25.8
-19 -19 13 -132.29 96.79
19 13 -19 18.8 14.2
19 -13 -19 24 11
13 19 -19 33.1 12.2
-19 19 13 29.7 17.7
-13 -19 19 -9.5 36.2
19 13 19 36.1 22.5
13 19 19 -4.3 19.9
13 -19 -19 39.8 15.7
19 -19 -13 31.2 14.6
19 -19 -13 -17.8 23.5
19 -19 13 21.6 26.9
19 -13 19 -10.6 32.6
-19 19 15 40.1 18.5
15 19 19 59.59 23.9
19 19 -15 34.4 11.2
19 -19 -15 2.5 24.6
19 15 -19 30.1 13.1
15 -19 19 -5.1 25.6
-19 15 19 70.79 27.1
-19 19 -15 31.2 10.5
19 15 19 -11.8 25.7
-15 -19 19 28.5 38.8
-15 19 -19 56.79 11.7
15 19 -19 25.4 11.2
15 -19 -19 20.5 14.5
19 -19 -15 28 13.9
19 -15 -19 56.79 11.7
19 -15 19 30.1 31.3
-19 -19 15 20.7 77.39
-19 -15 19 -9.9 55.99
19 -19 15 15.6 26.8
-19 15 -19 35.4 10
17 -19 19 54.39 27.6
19 -19 -17 66.89 40.9
-19 19 17 50.19 19.9
-19 17 -19 29.7 10.2
-19 19 -17 30.3 10.1
-17 19 -19 31 9.8
17 19 -19 25.7 11
-19 -17 19 -16.2 100.89
19 -17 19 38.6 28.9
17 -19 -19 -8.4 14.6
19 -19 -17 24.6 13.9
19 -17 -19 17.2 10.7
19 17 -19 14.5 11.8
19 -19 17 19.1 27.6
-17 -19 19 69.09 55.59
19 19 -17 20.7 10.3
19 -19 19 32.8 26.2
-19 19 -19 73.29 10.3
19 19 -19 42.7 10.5
0 0 20 1633.94 100.59
0 20 0 1755.22 80.29
0 20 0 1661.63 73.49
20 0 0 1778.62 68.69
0 0 -20 1858.01 65.89
0 0 20 1837.12 93.39
0 0 20 1632.74 112.59
0 20 -2 746.73 49.6
-2 20 0 713.23 50.69
20 0 -2 731.13 42.9
0 20 2 723.03 58.89
2 0 20 742.03 77.09
0 -2 20 808.02 97.29
-20 2 0 778.92 43
20 -2 0 811.72 44.6
-2 20 0 802.32 40.1
0 -2 20 910.01 69.39
0 2 20 717.33 75.59
0 20 2 768.12 51.19
0 -2 -20 829.62 39.1
-2 0 -20 817.62 38.8
0 2 20 693.13 95.69
2 20 0 740.93 56.39
0 -2 20 668.73 95.69
2 -20 0 815.12 44.8
0 2 20 741.63 76.89
0 20 -2 767.42 58.79
-2 20 0 740.73 59.79
2 20 0 844.32 51.49
0 2 -20 763.72 38.8
-2 0 20 720.43 67.09
20 0 2 805.52 45
2 0 20 694.13 88.59
20 -2 0 778.82 41.1
0 20 -2 791.22 47.9
-2 0 20 698.83 100.69
-2 0 20 733.23 82.09
2 0 20 714.63 82.59
2 0 -20 832.02 39.2
20 2 0 840.32 46.2
0 -20 2 667.33 64.79
-2 2 20 441.56 68.09
-2 -2 -20 464.95 31.6
-2 20 2 399.46 42.9
2 -2 -20 415.66 29.6
2 2 -20 422.36 29.8
2 20 -2 503.45 52.19
20 -2 -2 362.86 36.2
2 -20 2 417.76 40
-2 20 -2 460.15 31.7
20 2 -2 456.65 38.3
2 -2 20 486.35 57.49
-2 -20 2 415.06 47
2 20 2 375.86 43.2
20 2 2 444.36 38.7
2 -2 20 325.47 55.59
-2 20 2 398.16 54.79
-2 -2 20 532.05 63.99
-2 2 20 426.86 49.5
-20 2 2 385.26 35.7
2 2 20 343.87 45.1
2 20 2 452.65 51.29
20 -2 2 330.57 37.1
2 20 -2 479.75 46
-2 20 -2 421.96 55.59
-2 20 -2 332.77 42.7
2 20 -2 385.96 39.4
-2 -2 20 392.06 60.69
2 2 20 422.16 55.39
2 -20 2 421.56 54.59
2 -2 20 331.67 47.1
2 2 20 495.85 73.09
-2 2 20 437.26 63.29
20 -2 -2 444.96 33.9
-2 2 -20 441.16 30.9
-2 20 -2 401.06 43
-20 2 -2 371.76 35.4
20 -2 2 407.76 34.2
2 -20 -2 491.15 36.9
4 0 -20 70.99 16.3
0 20 -4 46.1 28
0 4 20 12.4 52.39
-4 0 20 -16.5 42.9
4 20 0 20.8 25.8
4 0 20 -9.9 43.2
0 20 -4 40.9 23.9
20 -4 0 56.79 17.7
0 20 4 93.79 31.4
4 -20 0 67.59 22
4 20 0 33.1 31.2
0 -4 -20 64.39 17
20 4 0 53.09 24.9
-4 0 20 -13.1 60.99
-4 0 -20 57.79 18.7
0 4 -20 47.1 16.2
0 -20 -4 52.39 24
-4 20 0 68.19 22.3
4 0 20 80.39 53.09
0 20 -4 81.69 21.4
0 -20 4 44.9 34.2
-4 20 0 21 32.8
4 20 0 72.59 25.4
0 -4 20 -33.6 45.9
-20 4 0 69.49 21.5
0 20 4 80.59 26.4
20 0 -4 62.69 20.3
20 -4 0 55.49 20.4
-20 0 -4 65.69 24.6
-4 20 0 44 18.7
-4 0 20 103.09 37.2
4 0 20 68.49 38.5
0 4 20 73.89 35.5
0 -4 20 52.19 34.6
20 0 4 54.29 28.2
20 0 4 87.79 21.8
0 4 20 70.09 39.5
2 -4 20 93.89 54.09
-4 20 2 6.4 16.5
4 2 20 -8.6 34.5
-2 -4 -20 2.5 15.4
-4 -2 20 0.8 61.09
4 20 -2 11.7 23.4
-4 20 2 9.4 23.1
20 -4 -2 22 14.2
2 -4 20 -42.2 42.9
20 -2 4 -8.5 17.4
4 2 20 -33.4 48
-2 4 20 98.09 36.9
-4 20 2 -0.2 32.6
4 20 -2 24 21.3
4 -2 -20 22.7 15.3
-4 -2 20 8.5 32.6
4 2 20 -49.6 46.3
-2 20 -4 31.2 32.1
2 -20 -4 17 21.2
4 -20 2 16.4 27.8
2 20 4 12.6 24.8
-2 4 20 24.4 37.6
-2 20 -4 15.8 24.3
20 -4 -2 41.3 19
4 20 -2 40.3 27.6
20 -2 4 29.9 23.5
20 4 2 -27.9 25.7
20 2 -4 -12.9 19.9
-2 -20 4 67.09 43.5
4 -20 2 29.4 21.5
-4 2 -20 24 17.6
-20 4 -2 -17.3 19.4
-2 4 20 -6 52.29
2 -4 20 26 38.5
-2 20 -4 -9.1 19.2
2 4 -20 14.8 15.7
2 20 4 48.4 28.9
2 20 -4 12.3 24.9
20 -4 2 4.6 16.6
2 4 20 -20.9 40.1
-4 2 20 25.7 36.3
-4 -2 -20 -8.1 16.5
2 20 -4 12.2 20.3
-2 -4 20 -23.4 54.49
4 -2 20 42.1 44.7
20 4 -2 29.8 23.5
-4 20 -2 44.4 22.8
2 4 20 60.89 49.8
4 -20 -2 -14.9 18.1
2 -4 -20 -20.3 15.8
4 2 -20 -8.9 15.4
-20 2 -4 42.1 20.2
2 4 20 39.5 33.5
20 2 4 9.2 24.3
-2 4 -20 24.8 15.5
4 20 2 22.6 24
-2 4 -20 16.9 16.7
4 20 2 23.5 28.8
-4 20 -2 13.6 18.8
2 -20 4 16.9 29.5
20 -4 2 18.7 19.1
-4 2 20 39.3 58.99
-2 20 4 5.7 29.5
2 20 -4 13.6 26.9
-2 20 4 23 24
4 -2 20 21 40.8
4 -2 20 81.29 47.9
-20 4 2 -10.8 19.2
20 -2 -4 -5.7 17.1
-4 2 20 0.6 39.4
-2 -4 20 10.2 34.1
-4 20 -2 -13 33.9
-4 20 -2 4 24.1
2 -20 4 -8.6 40.4
-4 20 -4 15.8 19.4
-4 -4 20 -13.9 60.49
4 -4 -20 40.1 16.7
-4 4 -20 11.5 17.7
-4 20 -4 15 36.1
-4 20 4 7.5 33.3
4 4 20 7.2 46.8
20 -4 4 25.1 16.7
4 20 -4 -2.9 23.5
4 4 20 -65.19 45.8
20 4 -4 36.2 24.5
4 -4 20 12.9 44.9
-4 4 20 -19.5 35.1
20 4 4 7.9 28.1
-4 20 -4 1.6 19.7
4 20 -4 19.7 20.3
-20 4 -4 20.1 37.6
4 -4 20 26.3 41.7
4 4 20 26.2 34.2
-20 4 4 40.1 20.6
-4 4 -20 28.2 14.7
20 -4 4 -1.8 20.7
20 4 4 44.6 28.5
-4 -4 -20 32.5 18.2
-4 20 4 19.7 24.4
-20 4 -4 65.09 20.4
4 20 4 57.69 24.5
20 -4 -4 -2.1 14.7
4 20 4 6 27.8
4 -20 4 41.4 22.8
4 20 -4 38 22.6
-4 4 20 19.4 52.09
4 -4 20 -1.4 46.4
-4 -4 20 82.49 36
4 -20 -4 43.5 19.6
-4 4 20 49.7 39.9
-4 20 -4 0.8 23.7
4 -20 4 10.1 28
20 -4 -4 60.89 20.6
4 4 -20 27.1 14.9
-6 20 0 91.89 22.8
20 0 -6 73.99 18.3
6 0 20 128.49 34.2
6 20 0 118.19 24.8
0 -6 20 109.79 37
6 20 0 115.89 23.5
-20 6 0 105.99 31.2
0 20 -6 84.69 25.1
0 20 6 121.09 30.7
-6 0 20 79.89 35.9
0 6 20 71.99 43.3
0 6 -20 99.19 17.4
0 -20 -6 99.59 25.8
20 -6 0 97.39 20.1
0 6 20 131.19 38.2
0 20 6 101.29 27.3
6 0 -20 125.59 19.7
0 -6 -20 97.29 19
0 6 20 67.99 32.6
0 6 20 141.89 34.8
0 -20 6 66.69 35.5
20 0 6 83.39 23.8
6 0 20 94.09 45.2
0 6 -20 93.19 19.1
-6 0 20 169.68 69.99
0 20 -6 65.59 18.2
-20 6 0 136.89 23.5
0 20 -6 97.69 28.5
-6 0 -20 88.29 24.3
6 20 0 133.79 29
-6 20 0 85.39 20.1
6 -20 0 113.99 21.4
0 -6 20 178.68 56.69
20 -6 0 73.29 18.3
-6 20 0 86.49 39.9
-20 0 -6 120.99 23.4
-6 0 20 13.9 45.5
6 -20 2 45.6 25.6
6 -2 -20 28.7 17.5
6 20 -2 69.49 19.6
2 -6 20 48.4 47.5
6 2 20 19.8 34.3
-6 2 -20 39.8 14.8
-2 -20 6 59.99 46.3
-6 20 2 71.69 19.4
-2 6 20 42.2 36.8
2 20 6 41.4 25.8
2 -20 -6 54.59 21
-2 20 -6 88.29 32.5
2 -6 20 75.79 39.6
-2 6 20 80.19 35
-6 -2 20 55.99 37.9
2 6 -20 20.2 16.3
20 -6 -2 24.8 15.8
2 6 -20 26.9 15.4
-6 -2 20 131.29 74.19
-20 6 -2 60.59 20.6
-2 20 -6 37.8 25.1
6 20 -2 -8.5 24.3
6 -20 2 42.7 19.9
-2 -6 -20 7.7 17
20 -2 6 65.19 27.5
20 2 -6 39.2 19.4
-6 20 2 68.99 24.5
2 20 6 3.6 26.6
-6 20 2 5.6 36.1
6 20 -2 62.19 24
20 -2 6 26.3 20.6
20 -6 -2 69.09 18.4
-20 6 -2 46.3 31.9
-2 20 -6 39.8 18.2
6 2 20 18 46.1
-2 6 -20 65.79 18.9
20 -6 2 19.1 16.7
6 20 2 55.99 22.5
-20 2 -6 13.3 20.2
-20 6 2 44.5 25.4
2 6 20 44.2 31.5
6 -20 -2 44.1 17.6
6 20 2 57.09 26.7
2 -20 6 84.09 31.7
-6 20 -2 52.99 24.5
-6 20 -2 -8.8 40
6 -2 20 26.6 36.8
6 -2 20 -6.8 40.6
-20 6 2 49.8 21.7
-6 20 -2 22.1 22.3
2 6 20 59.69 42.7
-2 -6 20 18.2 57.89
2 20 -6 26.4 25.4
2 6 20 59.29 29.6
2 -6 -20 39.2 17.4
-2 20 6 38.8 32.2
-6 -2 -20 35.5 21.2
-6 2 20 64.49 37.8
-6 2 20 41.2 40.7
6 2 -20 48.8 17.5
20 -2 -6 35.9 16.4
20 2 6 41.5 24.8
20 -6 2 22 18.4
-6 20 -2 45.5 19.9
-2 20 6 43.4 26.3
-2 -6 20 44.3 33.3
-2 6 -20 12.3 15.8
2 20 -6 23.7 17.1
2 6 20 -4.9 45.4
20 2 6 50.39 23.8
2 20 -6 21.7 23.1
20 -6 -4 53.89 18.5
4 20 6 22.5 28.4
-4 6 20 78.49 37.9
4 -20 -6 40.6 19.5
4 6 -20 23.3 17.1
20 6 4 46 31.9
-4 20 -6 39.4 18.2
-4 -6 -20 58.39 19.3
6 4 20 23.1 30.5
-6 -4 20 -61.39 73.49
6 -20 4 21 23.7
-20 4 6 25.5 23
6 -20 4 63.99 21.6
-6 20 4 10 23.4
20 -6 -4 -11 15.7
20 -4 6 56.09 23.8
-4 6 20 39.3 30.7
20 -4 6 27.7 20.1
-6 4 -20 0.8 15
6 4 20 8.7 32.3
-4 20 -6 19 23.4
6 20 -4 9.6 21.1
6 4 20 -40 47.4
-20 6 -4 35.8 20.8
-6 20 4 20.1 18.8
6 20 -4 42 24.5
-20 6 -4 78.59 35.4
-6 -4 20 30.9 34.6
4 -6 20 28.6 45.1
6 -4 -20 30.8 18.3
20 4 -6 -4.7 23.2
6 4 20 -20.1 99.09
4 6 -20 31.5 17.1
-4 20 -6 61.09 22.4
-4 20 -6 63.39 32.4
4 20 6 5.3 25.2
-6 20 4 18.8 38
6 20 -4 27.7 17.3
4 -6 20 -4.7 45.5
4 20 -6 20.4 25
-4 -6 20 15.8 31
4 -20 6 20.7 27.5
-4 -6 20 66.19 69.79
4 20 -6 33 24.3
20 6 -4 29.8 17
20 -4 -6 32.4 22.1
-6 4 20 55.49 38.7
4 6 20 15.6 45.3
-6 20 -4 58.79 39.5
-4 20 6 32.8 35.5
-20 6 4 7.5 20.8
-20 4 -6 20.7 20.5
20 -4 -6 43.9 16.1
-6 20 -4 51.49 20.8
6 4 -20 11.4 16.2
6 20 4 36 27.3
4 -6 -20 13.2 16.8
-4 20 6 7.5 24.6
6 -20 -4 26.7 18.9
-6 4 20 60.49 36.9
-6 -4 -20 4.7 20.7
4 20 -6 34.9 17.4
-6 20 -4 21.5 23.2
-6 20 -4 41.4 18.6
6 -4 20 1.9 37.9
-4 6 -20 27.7 19.9
-4 6 -20 24.2 16.6
20 -6 4 35.3 20.7
-4 20 6 20.5 43.5
6 20 4 48.9 23.8
-20 6 4 44.3 27
20 4 6 13.6 26.6
4 6 20 42.2 46
20 -6 4 10 16.6
4 6 20 1 32.1
20 4 6 53.99 28.4
6 -4 20 -23.9 41.6
4 6 20 -0.1 28.6
4 -20 6 26.4 29.2
20 -6 6 49.9 22.2
6 -6 -20 26 18.7
20 6 6 23 30.5
-6 20 -6 15.9 18
20 -6 6 32.1 18.8
6 20 6 36.5 24.1
6 20 6 55.09 25.8
-20 6 -6 63.79 23.5
20 6 6 39.7 31.5
6 6 20 40.9 31.4
6 20 -6 53.19 21.4
-6 -6 20 48.4 35.7
-6 6 20 -7.4 38.1
6 6 20 34.2 54.69
-6 20 -6 15 25.1
-6 6 20 68.39 36.4
-20 6 6 5.7 24.9
-6 6 -20 52.99 17.6
6 -20 6 38.6 23.2
20 -6 -6 24.4 20
6 6 20 48.5 49
6 6 20 69.09 31.6
-6 -6 20 79.69 73.59
20 -6 -6 56.69 16.2
-6 20 -6 52.99 22.2
6 -20 -6 50.09 20
6 -6 20 99.39 43.7
-6 20 -6 35.5 36.5
-6 20 6 60.89 24.5
6 20 -6 20.8 16.8
-6 20 6 75.49 36.8
6 -6 20 26.1 40.6
6 20 -6 55.59 25.1
6 6 -20 62.79 17.9
-20 6 6 50.79 22.7
20 6 -6 47 18.9
-6 -6 -20 76.39 23.3
-6 6 -20 53.79 25.5
6 -20 6 89.49 27.3
8 0 20 191.28 35.4
8 0 -20 160.28 21
0 8 -20 137.99 26.1
20 0 -8 108.29 19.1
-8 20 0 167.98 24.8
0 20 8 148.69 29.9
0 8 -20 131.69 21.5
0 20 -8 142.69 29.7
0 -8 -20 122.89 21.2
0 -20 -8 122.69 23.1
20 -8 0 151.18 22.6
8 20 0 176.58 32.6
0 8 -20 151.68 21.4
0 -8 20 168.68 56.49
-20 0 -8 136.09 25.2
8 20 0 129.59 22.7
0 20 8 132.79 29.4
-8 0 20 125.49 39.3
0 20 -8 168.48 21.1
8 -20 0 129.49 21.4
-8 20 0 131.09 26.7
8 0 20 217.78 53.19
20 0 8 110.59 23.4
-20 8 0 129.89 24.2
20 0 8 144.49 25.9
0 8 20 128.79 40.3
0 -20 8 126.29 40.8
-8 0 -20 116.39 19.1
0 8 20 163.38 34.3
0 20 -8 168.08 29.1
0 8 20 168.38 33.9
20 -8 0 138.49 20.9
-20 8 0 164.98 32
8 20 0 99.99 23.8
0 -8 20 194.88 39.4
-20 8 -2 11.5 28.7
2 -8 20 22.2 38.6
2 8 -20 59.69 17.4
-2 20 -8 56.59 18.1
8 -20 2 42.8 26.2
8 2 20 103.69 48.8
-20 8 -2 46.3 21.8
8 2 20 41.7 29.4
-2 -8 -20 20.1 20.1
8 -2 -20 39 18.2
2 -8 20 85.19 50.89
20 -8 -2 74.79 19.9
-8 -2 20 105.29 79.39
2 20 8 31.6 27.2
-2 -20 8 134.99 49.8
20 -2 8 45.7 20.4
2 8 -20 48.2 18.7
8 20 -2 29.9 20.1
-8 20 2 33 22.3
2 20 8 61.59 28.9
8 20 -2 57.29 20.6
2 -20 -8 24.8 20.4
-2 20 -8 27.3 25.4
8 2 20 0.4 32.3
-8 2 -20 52.29 17.1
2 8 -20 14 24.9
-8 -2 20 11.9 36.3
8 20 -2 5.2 24.4
20 2 -8 54.79 19.4
-2 20 -8 18 27.8
20 -8 -2 29.1 17.1
-2 8 20 37.3 32.2
-2 8 20 42.8 40.6
-8 20 2 70.29 21.3
8 -20 2 21.9 19.6
-2 8 20 -5.6 32.1
2 -8 -20 39.9 18.3
8 -2 20 29.5 45.5
-2 8 -20 13.8 19.1
-8 20 -2 58.89 24.2
20 2 8 22.8 24.8
8 2 -20 21.1 16.3
-2 8 -20 34.3 19
-8 2 20 61.29 34.7
-2 20 8 -9.1 26.1
20 -2 -8 24.3 15.4
-2 -8 20 42.9 34.6
-2 -8 20 112.19 62.49
2 20 -8 41 24.8
-2 20 8 63.39 29.7
2 8 20 30.3 28.9
-8 20 -2 27 22.5
8 -20 -2 56.39 19.7
2 8 20 65.79 39.7
20 8 -2 27.4 15.9
-8 20 -2 45.8 21.7
20 -8 2 50.49 19.7
8 -2 20 81.39 31.9
-2 8 -20 67.99 24.3
-8 2 20 31.6 37
2 20 -8 42.3 25.3
20 -8 2 -1.8 16.2
-20 8 2 47.3 22.8
-20 8 2 40.4 26.7
2 -20 8 -15.3 32.4
20 2 8 56.39 24.9
-2 20 8 100.69 44.7
8 20 2 57.29 28.4
8 20 2 37.8 21.1
2 8 20 86.49 30.2
-8 -2 -20 42 16.6
-20 2 -8 51.99 21.6
2 20 -8 37.7 15.6
-20 8 -4 52.69 20.9
8 -4 -20 36.2 19.1
-8 4 -20 24.5 16.2
20 4 -8 38.4 21.9
-4 20 -8 19.2 31.3
8 -4 -20 28.5 20
4 20 8 35.9 24.4
-20 8 -4 13.9 30.8
8 20 -4 26.6 18.2
4 -8 20 76.39 47.3
20 4 -8 31 16.9
20 -4 8 40.2 19.6
-4 8 20 -20.2 29.5
8 -20 4 -15.3 19.8
8 4 20 3.5 49.4
8 4 20 8 27.9
4 8 -20 25.7 20.9
20 -4 8 28.8 25.8
-8 -4 20 42.6 34.4
8 20 -4 24.2 26.3
8 -20 4 37.6 23.4
-8 20 4 34.6 21.4
-4 20 -8 35.1 27.7
-4 20 -8 47.9 25.3
-8 20 4 41.1 19.8
-4 8 20 8 36.6
4 8 -20 92.29 25
8 20 -4 18.6 17.1
20 -8 -4 30.6 15.5
-4 20 -8 10.9 15.7
4 20 8 52.19 26.8
4 -8 20 -73.29 41.8
4 8 -20 54.89 17.4
-4 -8 -20 53.49 21.9
4 -20 -8 31.1 20.1
-4 8 20 6.7 30.6
20 -8 -4 21.4 18.3
8 4 20 18 31.1
-8 -4 20 12.8 90.19
8 20 4 35.1 21.4
4 -20 8 42.4 28.6
20 -4 -8 38.5 14.7
8 -4 20 -13.3 40.7
-4 -8 20 27.2 32.4
4 20 -8 23.5 15.8
-8 20 -4 33.1 17.9
-4 8 -20 27.4 22.8
-4 8 -20 24.6 18
20 -4 -8 25.5 22.9
20 -8 4 9.4 16.6
4 8 20 31.1 28.3
8 -4 20 22.5 32.4
-4 20 8 30.5 24.6
-8 20 -4 27.2 24.9
-8 4 20 -13.8 35.7
4 20 -8 34 23.3
-4 20 8 21.3 31.8
8 4 -20 41 17.6
8 20 4 36.2 27.7
-8 4 20 13.5 31.4
-8 20 -4 23.8 21
-20 8 4 47 23.9
-20 8 4 59.29 21.8
-4 -8 20 179.68 70.69
20 8 -4 38.7 16.9
4 8 20 20.2 27
-4 20 8 -15.1 35.7
4 -8 -20 5.5 18.2
-4 8 -20 31.3 20.9
-20 4 -8 53.19 23
20 -8 4 18.6 20.1
8 -20 -4 19.6 17.9
4 -20 8 -1.8 31.6
20 4 8 21.8 26.5
4 8 20 43.2 44.3
4 20 -8 24.3 24.5
20 4 8 70.79 26.5
-6 -8 -20 25.6 24.2
8 20 -6 70.89 21.8
-8 6 -20 47.5 18
-8 -6 20 26.2 34.1
-20 6 8 32.9 24.1
8 20 -6 64.79 27.9
-8 6 -20 39.6 22.1
-6 20 -8 41 16.4
-6 20 -8 90.69 34.8
-6 8 20 35.4 29.9
20 -8 -6 41.1 16.4
20 -6 8 31.2 20.6
-6 8 20 33.4 31.6
8 -20 6 84.79 24.2
-20 8 -6 42.3 22.3
-20 8 -6 87.69 41
-6 20 -8 44.1 26.5
8 6 20 19.8 29.9
8 20 -6 27.8 15.4
20 -6 8 35.9 24.8
6 -20 -8 46.1 20.5
6 8 -20 9.1 16.6
6 8 -20 69.19 25.6
-6 20 -8 34 24
6 20 8 100.59 28.8
8 -20 6 63.99 25.3
6 20 8 18.2 23.3
8 -6 -20 19.6 20.4
8 6 20 34.4 29.8
20 -8 -6 30.1 20.2
8 6 20 -19.7 46.5
-6 8 20 41.5 38.5
20 6 -8 48.9 18.3
-8 20 6 42.7 22.8
20 8 6 41.6 39
8 -6 -20 66.29 21.1
6 -8 20 126.69 41.4
8 -6 20 31.3 43.6
-8 20 -6 47.6 23.2
6 8 20 30.6 50.69
-6 20 8 74.89 34.1
-6 8 -20 2.7 21.1
8 20 6 45.8 22.3
-8 6 20 79.89 39
-20 8 6 7 22.3
20 -8 6 50.39 22
6 -20 8 17.1 24.2
-8 6 20 31.7 30.2
6 -8 -20 25.5 19.4
-8 6 20 16.3 34.8
8 6 -20 52.99 18.5
20 6 8 11.5 28.8
6 -20 8 57.09 29.4
6 8 20 47.5 30.4
-6 20 8 9.9 23.1
6 20 -8 57.29 21.2
8 20 6 40.4 26.6
-20 8 6 64.89 23.8
-8 20 -6 23.5 23.7
-8 20 -6 59.29 17.5
20 -8 6 38.9 19
-6 8 -20 50.49 19.1
6 -8 -20 71.39 20.2
8 -20 -6 86.59 21.7
20 8 -6 34.3 16
-6 -8 20 66.49 34.4
20 -6 -8 43.8 15.3
6 20 -8 18.8 16.4
8 -6 20 -8.7 33.4
-6 -8 20 65.49 99.59
6 8 20 106.79 45.4
20 -6 -8 43.8 21.4
-20 6 -8 65.79 23.4
-6 20 8 -26.8 33.9
6 20 -8 39 24.4
6 8 20 39.2 25.9
20 6 8 24 30.1
8 8 20 -45.3 27.3
-8 8 20 -32.2 28.7
20 -8 8 -35.1 25.4
8 -8 -20 6.6 22.4
-8 8 -20 9.9 20.5
-8 20 -8 -2.9 25
8 -20 8 -21.3 27.2
8 -20 8 -18.9 26.9
8 -8 -20 -18.4 18.6
20 8 -8 19.9 16.1
8 20 -8 3.6 22.7
-8 8 20 44.6 34
8 20 8 -12.3 22.5
8 8 -20 -35.6 23.8
20 -8 -8 12 21
-20 8 -8 -10.8 22.2
8 8 -20 0.9 17.3
8 8 20 -0.9 30
20 -8 8 14.7 18.4
20 -8 -8 -5.5 13.1
8 20 -8 -7.6 14.7
8 -8 20 30.8 41.9
8 20 8 -2.3 24.7
-8 20 8 36.2 40.2
-8 20 8 -3.1 24.5
20 8 8 -16.3 34.8
8 -8 20 -0.1 37.4
-8 20 -8 -38.3 26.7
-8 -8 20 23.8 34.3
-8 8 20 22.3 35.4
-8 8 -20 5.8 19.6
-20 8 8 -36.9 23.4
-8 20 -8 -15.3 14.4
8 -20 -8 0.8 19.4
20 0 -10 651.73 37.2
0 -10 20 652.63 63.79
0 10 -20 609.54 42.3
0 10 -20 485.75 38.6
10 0 -20 541.15 38.3
-10 20 0 578.14 48.3
-20 10 0 470.75 49.4
0 20 -10 496.15 50.29
0 20 10 674.03 58.79
10 20 0 530.45 40.1
10 0 20 552.44 54.39
10 -20 0 548.75 39.3
0 10 20 599.24 69.29
0 -10 -20 588.94 40.5
10 20 0 557.04 44.2
20 -10 0 588.64 37.6
-10 20 0 562.34 42
0 20 -10 470.05 47.5
0 10 20 583.64 60.09
20 0 10 483.65 43.4
10 0 20 567.24 90.49
-20 10 0 597.44 42.1
-10 0 20 687.03 69.69
0 10 -20 576.84 41.1
0 20 10 672.83 52.29
10 0 -20 571.74 45.4
20 0 10 553.24 42.8
20 -10 0 569.34 36.8
10 20 0 470.85 49.99
0 -20 -10 591.14 42.7
0 20 -10 526.15 35.2
20 10 0 608.04 36.9
-20 0 -10 730.93 47.3
10 0 20 507.15 75.29
0 -10 20 532.45 65.89
-10 0 -20 659.33 35.7
0 20 10 615.54 58.79
0 -20 10 580.24 75.59
0 10 20 656.73 54.29
2 20 10 359.66 52.59
-10 20 2 409.26 43.3
-10 -2 20 500.45 67.69
20 -10 -2 430.46 33
2 10 -20 436.86 40.7
-20 10 -2 372.66 40.3
10 2 20 510.85 70.39
10 20 -2 423.96 37.4
2 -10 20 415.26 56.19
10 -2 -20 464.85 35.3
10 20 -2 433.46 47.8
2 10 -20 442.96 35.3
-10 2 -20 438.96 33.8
2 -10 20 425.96 66.49
10 -20 2 470.95 46.7
-2 20 -10 349.17 47.4
10 2 20 387.46 60.89
20 -2 10 348.27 37.7
-2 20 -10 434.26 31.9
-2 10 20 334.97 44.8
2 20 10 472.55 49.4
-2 20 -10 354.76 49.1
2 -20 -10 424.26 38.7
20 -2 10 445.26 38.2
20 2 -10 443.16 34
-20 10 -2 377.56 50.29
-2 10 20 381.36 53.09
20 -10 -2 431.66 35.2
10 2 20 378.06 50.39
10 -20 2 491.35 37.3
10 -2 -20 537.35 41.9
-2 10 20 443.66 56.99
-10 20 2 475.55 38.7
-2 -10 -20 331.47 38.3
2 20 -10 382.96 43.2
-2 10 -20 397.76 36.2
-20 10 2 378.56 44.6
-20 2 -10 443.56 41.7
10 2 -20 312.07 45.5
-2 10 -20 501.25 39.2
2 -20 10 421.26 44.3
-2 -10 20 440.06 58.19
-10 20 -2 389.46 37
-10 20 -2 335.17 44.8
10 20 2 454.65 47.7
2 20 -10 417.46 31.3
2 10 20 534.35 65.99
-10 2 20 498.15 65.69
20 -10 2 386.06 34.5
-10 -2 -20 446.36 31.7
-2 10 -20 458.15 36.9
2 10 20 476.65 52.09
20 2 10 376.76 40.5
-2 20 10 494.05 54.19
-2 20 10 412.06 47.8
-2 -10 20 543.85 71.09
10 2 -20 462.15 33.2
2 20 -10 330.87 45
20 -2 -10 371.76 32.1
2 -10 -20 496.55 37.5
10 -2 20 458.05 50.69
-2 20 10 441.46 53.69
10 20 2 533.15 39
2 10 20 415.86 56.29
10 -2 20 392.06 54.69
10 20 2 396.16 43.5
20 2 10 426.96 43.3
-10 2 20 470.85 62.39
20 -10 2 424.16 35.5
-20 10 2 465.45 41.2
20 10 -2 449.06 34.3
-10 20 -2 538.05 37.9
10 -20 -2 482.75 36.8
4 -20 -10 139.99 24.4
4 -10 20 72.19 41.7
10 20 -4 139.09 29.1
-10 20 4 126.59 26.8
-20 10 -4 122.39 26.8
-10 20 4 143.09 23.6
4 -10 20 120.39 46.2
20 -4 10 88.39 21.7
-4 10 20 138.19 31.8
20 -4 10 114.79 23.4
-20 10 -4 142.39 33.2
4 20 10 162.28 31.1
10 4 20 64.99 33.1
4 20 10 115.19 27.7
-4 20 -10 189.78 33.2
10 4 20 103.99 58.09
-4 10 20 117.49 41.1
-4 20 -10 65.29 29.3
20 -10 -4 146.59 22.8
10 -4 -20 158.38 27.6
10 -4 -20 107.39 22.9
-10 -4 20 153.38 39
10 -20 4 92.19 25.4
-4 20 -10 124.79 19.2
10 20 -4 136.79 22.2
20 -10 -4 115.49 18.8
20 4 -10 84.79 18.8
-4 -10 -20 94.29 26
10 -20 4 128.09 24.5
-10 4 -20 138.09 22.6
-4 10 20 149.09 34.8
4 10 -20 156.08 23.7
20 4 -10 137.79 23.7
10 4 20 141.69 32.1
4 10 -20 100.59 21.3
-4 20 10 155.08 30
4 20 -10 138.59 28.1
-10 20 -4 144.69 26.5
-20 4 -10 95.79 24.4
-10 -4 -20 119.59 21.2
10 20 4 143.29 25
-10 4 20 110.89 35
-4 -10 20 174.88 35.8
4 10 20 136.69 29.2
4 10 20 72.69 28.9
-10 4 20 103.09 36
4 20 -10 119.89 18.8
-4 20 10 113.39 33.1
20 10 -4 120.49 20.2
20 4 10 126.29 29.9
10 20 4 136.59 29.9
4 -20 10 116.89 31.7
-10 20 -4 85.79 24.2
20 -10 4 106.59 22.5
-4 20 10 78.49 34.5
10 -20 -4 147.09 23.6
-4 10 -20 148.29 23.2
20 4 10 106.89 25.6
4 10 20 56.89 42.3
4 20 -10 86.79 23.6
-20 10 4 131.39 27.3
-4 10 -20 121.39 22.7
-4 -10 20 62.99 69.69
-20 10 4 154.68 25
-4 10 -20 144.09 26
10 4 -20 156.78 22.5
10 -4 20 171.08 33.9
20 -10 4 128.99 21.6
10 -4 20 122.39 49.3
4 -10 -20 131.09 24.3
-10 20 -4 124.59 20.1
20 -4 -10 100.69 17.4
4 -10 -20 99.29 22.6
-20 10 -6 143.09 27.5
6 10 -20 161.48 23.9
-6 20 -10 178.08 31.9
-6 10 20 139.99 37.9
10 20 -6 122.49 20.2
6 20 10 166.48 31.1
20 -10 -6 142.19 19.4
10 6 20 154.88 34.1
-6 -10 -20 153.88 29.2
10 20 -6 116.59 26.5
-10 6 -20 139.59 23.9
6 -20 -10 149.09 23.3
10 -6 -20 164.68 25.3
10 -20 6 111.19 26.6
20 -10 -6 150.08 23.7
20 -6 10 112.59 22.5
10 -20 6 140.19 27.1
20 -6 10 139.49 23
6 -10 20 226.58 44.5
10 -6 -20 184.18 27.4
10 6 20 180.08 32.7
-10 -6 20 137.29 39.7
-10 6 -20 160.68 24.2
-6 20 -10 142.09 19.3
-10 20 6 178.78 27.1
6 10 -20 170.88 25.3
10 6 20 115.49 53.49
-6 20 -10 159.68 37.3
-10 20 6 125.49 25
-6 10 20 190.58 36.7
-20 10 -6 40.4 36.8
6 20 10 113.89 29.3
-6 10 20 151.98 35
-20 6 10 103.79 24.6
-6 20 -10 168.68 30.5
20 6 -10 170.88 22.4
6 -20 -10 114.49 26.5
-20 10 6 98.89 26.4
-10 20 -6 116.89 26.5
6 -10 -20 157.68 25.8
6 20 -10 141.59 21.5
6 -20 10 119.69 37.3
-6 -10 20 70.89 34.9
10 20 6 111.39 29.3
20 -6 -10 141.89 25.8
6 10 20 162.18 36.2
-10 20 -6 151.48 30.4
-20 6 -10 173.58 27.3
-10 20 -6 154.38 20.7
-10 6 20 118.29 39.3
10 -20 -6 166.38 24.9
20 -10 6 158.78 26.9
20 10 -6 115.79 18.5
10 -6 20 67.89 30.3
-10 6 20 156.78 34.7
20 6 10 190.08 32.6
10 6 -20 138.89 22.8
-6 10 -20 186.68 25.9
10 -6 20 151.28 44.5
20 6 10 138.39 30.2
6 20 -10 192.08 29.4
-6 20 10 110.29 35.6
-6 10 -20 135.89 21.6
20 -6 -10 115.99 18
-20 10 6 146.69 26.2
20 -10 6 117.09 22
-10 -6 -20 146.29 23.2
6 -20 10 163.98 32.4
-10 6 20 119.09 38.9
-6 20 10 165.28 31.3
6 10 20 100.39 28.3
20 -10 6 111.49 50.49
-6 20 10 232.58 36.5
6 -10 -20 152.28 24.5
20 -8 10 406.16 66.19
10 -8 -20 283.97 39.7
20 -10 -8 282.67 35.2
10 -20 8 383.36 48
8 20 10 334.07 45.1
8 -20 -10 365.56 36.3
-8 -20 10 318.67 43.9
8 20 10 305.97 47.1
20 8 -10 338.97 32.9
-10 -8 20 418.86 50.09
-20 10 -8 322.57 42.4
10 20 -8 264.97 32.5
-10 20 8 365.46 44.3
-8 10 20 341.77 39.8
8 10 -20 266.97 36.9
20 -8 10 322.07 37.8
10 -8 -20 307.87 38.2
10 -20 8 312.67 46.9
20 -8 10 309.77 37
-10 8 -20 280.27 34.3
10 8 20 269.97 36.7
-8 20 -10 281.37 35
20 10 8 285.57 52.09
8 -10 20 459.85 69.59
-10 8 -20 309.67 38.7
-8 10 20 362.26 43.5
-8 10 20 335.17 47.3
-8 20 -10 291.97 35.5
20 -10 -8 297.87 28.8
-8 20 -10 334.47 31.2
8 10 -20 250.47 34
10 8 20 301.47 38
8 -20 -10 300.87 36.9
10 20 -8 315.87 32.4
8 10 20 308.37 36
8 -20 10 336.87 49.9
8 -10 -20 338.07 38.8
-8 10 -20 395.76 40.5
-10 20 -8 251.57 33.8
-10 8 20 428.26 52.49
-8 20 10 293.67 42.9
8 -20 10 347.17 43
20 -8 -10 304.37 36.8
20 -10 8 324.47 36.7
10 -20 -8 297.77 35.3
8 10 20 317.87 40.3
-10 20 -8 311.37 34.2
-10 -8 -20 330.07 37.9
-10 8 20 472.75 63.79
-8 10 -20 258.57 32.2
8 20 -10 330.87 31.4
10 -8 20 346.97 41.4
8 20 -10 327.27 43.1
8 -10 -20 331.27 38.3
10 8 -20 313.47 33.3
10 20 8 311.27 46.8
-10 8 20 217.28 43.8
10 -20 -8 348.97 36.6
20 8 10 337.67 40.4
-10 -20 8 324.07 46.3
20 -8 -10 312.47 29.3
10 -8 20 250.07 46.2
20 10 -8 294.87 31.3
-8 20 10 350.66 47.4
10 8 -20 314.67 41.2
-10 20 -8 299.07 28.1
-20 10 8 344.37 42.8
20 -10 8 397.96 54.79
-8 -10 20 359.96 57.79
20 -10 8 374.36 42.2
-20 8 -10 273.67 33
-8 20 10 369.36 55.89
10 10 20 1025.5 66.79
20 -10 10 1017.3 53.89
-10 20 -10 989.7 45.4
-10 10 20 1113.09 78.09
10 -10 -20 1057.09 57.19
20 -10 -10 967.5 52.69
10 -20 10 928.71 68.49
10 10 -20 1037.4 52.89
10 -20 -10 1033.3 54.19
-10 -10 20 988.1 73.09
-10 -20 10 893.01 59.39
-10 20 10 1052.69 59.79
10 -20 -10 990 59.99
10 -10 20 966.2 78.89
10 20 -10 1033.5 58.19
20 10 10 892.51 76.19
10 -20 10 963.6 61.89
10 20 10 985.9 59.99
-20 10 -10 984.8 58.79
10 -10 -20 920.81 54.59
20 -10 10 919.91 61.59
10 -10 20 890.01 84.19
10 10 -20 956.8 50.89
20 10 -10 1067.49 48.6
10 20 -10 1062.59 48.6
-20 10 10 976.6 56.69
-10 10 -20 1002 48.8
-10 10 -20 986 55.39
-10 20 -10 992.8 62.89
-10 10 20 903.11 71.29
-10 10 20 1039 64.59
20 -10 10 992.9 88.69
-10 20 -10 921.41 66.89
20 -10 -10 959.3 45.5
10 10 20 1033.2 67.49
12 20 0 601.44 54.59
20 -12 0 557.34 38.1
0 -12 -20 564.44 44.3
12 -20 0 562.74 50.09
-12 20 0 508.85 43.6
0 20 -12 619.94 56.29
20 -12 0 508.85 37.7
0 12 20 585.14 53.29
20 -12 0 527.45 51.09
12 0 20 590.64 53.79
20 0 12 585.74 44.4
0 20 12 522.35 52.99
12 20 0 569.84 42.5
-12 0 -20 521.45 39
0 -12 20 666.03 61.19
0 -12 -20 532.35 43
0 12 -20 540.95 41.6
0 12 20 500.95 63.09
0 -12 20 547.25 69.09
0 12 20 551.84 56.19
20 0 12 450.85 42.6
12 0 -20 537.85 39.6
0 12 -20 520.85 38.8
0 20 12 575.34 69.79
-12 20 0 556.04 48
-12 0 20 593.04 66.59
20 12 0 558.74 37.1
0 20 -12 515.35 33.8
0 -20 -12 478.35 46.3
-20 0 -12 491.45 49
-20 12 0 633.14 44.2
0 20 -12 472.65 48.8
0 20 12 481.65 59.19
0 -20 12 559.74 57.89
0 -20 12 578.34 50.09
12 -20 0 496.75 40.3
20 0 -12 565.24 34.8
-20 12 0 554.44 51.29
12 0 -20 548.15 48.7
12 0 20 493.45 64.09
12 20 -2 333.67 35.7
-2 12 20 254.97 36.9
-2 -12 -20 312.17 41.9
-12 2 -20 285.57 34.6
20 -12 -2 374.76 35.2
-2 20 -12 465.45 55.89
2 20 12 345.97 38
20 -2 12 313.57 39.8
2 -20 -12 385.26 40.2
2 -12 20 369.06 46
2 20 12 378.66 49.2
-12 20 2 310.77 41.3
2 12 -20 345.07 36.4
2 12 -20 370.26 35.3
2 -20 -12 374.46 40.9
-2 20 -12 357.06 31.1
12 -2 -20 241.18 33.9
-12 -2 20 369.16 50.89
-20 12 -2 319.47 40.7
-2 20 -12 343.07 50.09
12 -20 2 402.76 45.9
12 -2 -20 338.77 34.6
20 -2 12 388.96 38.2
-2 -20 12 436.06 62.59
12 2 20 332.87 49.5
12 20 -2 269.17 35.1
-2 12 20 402.06 49
12 -20 2 376.36 36.6
-20 12 -2 406.56 40
-2 -20 12 332.97 43.2
20 2 -12 334.87 33.6
-2 12 20 357.86 51.19
20 -12 -2 377.26 32.1
12 2 20 365.06 62.49
-12 20 2 349.47 40.3
2 -12 20 362.46 58.49
2 20 12 324.87 48.3
-12 20 -2 341.27 36.5
12 -2 20 274.77 34.3
12 20 2 277.97 35.1
2 20 -12 324.27 44.2
12 20 2 347.47 41.4
-12 20 -2 393.56 41.1
-2 20 12 372.66 56.69
12 2 -20 307.67 35.1
-12 20 -2 373.26 46
-2 20 12 303.97 41.9
12 -20 -2 357.46 36.4
2 20 -12 323.17 30.3
-2 12 -20 275.17 31.1
20 -12 2 378.16 33.6
20 12 -2 366.56 32.3
-20 2 -12 366.46 44.4
20 -12 2 370.96 47.8
12 -2 20 273.67 54.29
-12 2 20 431.46 63.09
-2 12 -20 291.57 31
20 2 12 374.86 44.3
2 12 20 224.58 35.6
-2 20 12 363.76 39.7
2 -20 12 381.26 47.9
2 20 -12 324.57 48.6
-2 -12 20 211.48 66.09
2 -12 -20 382.56 40.3
20 2 12 304.97 41
2 12 20 354.86 48.4
-20 12 2 254.37 30.7
-12 -2 -20 350.86 34.2
-2 12 -20 359.36 34.5
-2 -12 20 298.77 39.2
-12 2 20 415.96 54.09
20 -12 2 330.37 35.5
-20 12 2 402.26 45.9
20 -2 -12 352.26 30.3
2 -20 12 285.17 42.9
2 12 20 361.16 45
2 -12 -20 353.16 37.9
12 -20 4 108.09 29.5
20 -4 12 125.89 24.9
-12 20 4 119.79 26
12 4 20 119.49 57.69
-12 4 -20 132.19 24.7
4 -12 20 112.49 46.9
-4 -20 12 100.59 28.7
12 -4 -20 101.29 24.6
20 -4 12 111.29 25.2
12 4 20 141.19 33.6
4 12 -20 113.29 22.8
-4 20 -12 81.19 17.9
4 20 12 143.09 30.8
4 -20 -12 105.79 24.7
12 -20 4 96.39 24.1
-12 -4 20 117.49 37.9
4 -20 -12 99.79 25.2
4 -12 20 131.99 44.6
12 -4 -20 74.29 25.9
20 4 -12 104.29 22.7
-20 12 -4 82.49 33.7
-12 4 -20 90.29 23.7
4 20 12 98.79 45.3
4 12 -20 110.89 21.2
-12 20 4 109.59 25.5
-4 12 20 97.79 31.5
20 -12 -4 124.69 19.9
12 20 -4 128.99 21.4
12 4 20 99.79 42.2
-4 20 -12 99.59 33.1
-4 -12 -20 35.3 28.6
-20 4 12 152.58 28.3
20 -12 -4 131.29 24
-4 12 20 89.49 37.2
12 20 -4 129.79 32.3
-20 12 -4 142.99 29.1
-4 12 20 124.19 32.8
20 -12 4 100.09 43.8
-4 12 -20 85.69 20
20 -12 4 129.89 24.2
4 20 -12 104.99 19.5
-20 4 -12 113.99 27.1
-4 20 12 120.49 33.3
-12 -4 -20 124.29 23.3
20 -12 4 100.59 24.2
-4 20 12 164.08 33
20 -4 -12 91.09 17.7
4 12 20 187.58 36.5
12 -4 20 149.39 49.99
-12 4 20 96.29 32.6
-4 -12 20 194.78 76.39
12 20 4 106.79 31
4 -12 -20 107.89 25
-4 12 -20 71.89 25.6
-4 -12 20 110.09 32.7
12 4 -20 95.89 21.1
4 -20 12 119.49 31.7
4 -20 12 112.59 33.7
20 4 12 106.49 27
12 -20 -4 135.39 25.3
12 -20 -4 105.79 32.7
-4 20 12 90.19 35.8
-20 12 4 84.89 26.8
-12 4 20 79.39 40.1
4 12 20 95.29 27.9
20 4 12 84.19 26.4
4 20 -12 161.88 28.8
20 12 -4 111.89 20.7
-12 20 -4 77.49 26.4
4 -12 -20 146.49 26.5
-20 12 4 94.09 25.5
12 -4 20 145.09 31.7
-12 20 -4 83.39 17.9
-12 20 -4 126.09 29
12 20 -6 145.19 21.1
-6 -20 12 192.98 30.4
20 -12 -6 150.48 26.3
-12 20 6 134.19 24.5
12 -6 -20 153.68 27
12 -20 6 118.69 26.3
-6 -12 -20 138.39 53.69
20 -6 12 123.79 23.8
12 -20 6 81.59 25.5
12 6 20 178.68 56.39
6 -12 20 110.79 40.2
12 6 20 152.88 41.5
20 6 -12 103.49 19.3
-12 6 -20 128.99 22.1
-12 20 6 118.79 25.8
6 12 -20 85.79 21.2
12 6 20 96.89 29.6
-12 6 -20 113.79 25.2
6 -20 -12 190.88 27.5
-20 12 -6 165.48 37.4
-20 6 12 187.58 28.8
-6 12 20 229.08 36.9
12 -6 -20 166.48 26.3
6 -20 -12 140.09 26.6
6 12 -20 144.99 22.2
20 -12 -6 162.68 21.2
-6 12 20 192.48 36.1
20 -6 12 114.69 22.4
6 20 12 159.88 31.4
-12 -6 20 210.08 43.4
12 20 -6 113.19 26.5
-20 12 -6 160.68 31
-6 12 20 183.18 41.9
-6 20 -12 152.28 20.5
6 -12 -20 127.69 25.1
20 12 -6 128.29 19.5
-6 12 -20 175.28 28.5
12 -6 20 101.69 41.5
12 20 6 165.98 29.7
20 -6 -12 171.58 28.8
-12 6 20 90.09 28.6
-20 6 -12 137.09 30
-12 20 -6 130.19 29.3
20 -12 6 157.58 25.4
6 -20 12 168.78 34.9
6 -20 12 169.38 35.7
-6 20 12 118.39 28.6
-12 -6 -20 154.38 25.4
-6 12 -20 144.99 21.9
6 20 -12 121.39 25.3
-12 6 20 87.99 38.8
6 -12 -20 165.88 28.6
20 -12 6 140.49 26.8
-6 20 12 156.38 34.5
-12 6 20 194.28 43.7
20 -6 -12 153.48 20
-6 20 12 173.18 36.6
6 12 20 146.49 30.9
12 -20 -6 127.29 33.7
12 6 -20 165.28 24.9
6 12 20 123.99 32.1
-6 -12 20 141.19 35.6
12 -20 -6 200.98 28.7
20 6 12 165.68 31.1
6 20 -12 82.99 17.6
20 -12 6 208.78 45.7
-12 -20 6 148.39 32
-12 20 -6 124.09 29.5
-12 20 -6 109.89 18.1
-20 12 6 142.69 30.4
20 6 12 150.48 30.6
-20 12 6 114.69 27.4
12 -6 20 128.59 30.1
20 -8 12 279.97 60.79
8 12 -20 265.07 36.3
-8 20 -12 251.07 28.5
-8 12 20 190.98 32.1
20 -8 12 263.47 36.2
12 -8 -20 267.07 34.1
-12 8 -20 266.47 34.2
8 -20 -12 227.18 31.4
-8 12 20 280.07 40
-12 20 8 252.77 30.9
12 -20 8 231.98 33.7
20 8 -12 293.77 32
12 -20 8 273.87 35.9
8 -12 20 191.88 40.7
-12 -8 20 246.28 42.4
-8 20 -12 236.38 38.2
-20 8 12 251.97 29.1
12 8 20 278.37 37.5
-12 8 -20 310.57 32.8
20 -8 12 279.67 29.7
12 20 -8 276.57 32.4
20 -12 -8 232.18 29.1
12 8 20 323.87 42.6
-8 -20 12 271.77 36.7
12 -8 -20 277.57 32.4
8 20 12 228.18 30.3
20 -12 -8 282.37 28.1
8 -20 -12 277.77 31.9
8 12 -20 214.98 25
12 -8 -20 235.18 29.4
-8 12 20 298.57 47.5
12 20 -8 227.18 30.7
-20 12 -8 202.78 33.2
-8 -12 20 284.17 42.6
8 20 -12 222.58 28.5
20 8 12 248.78 36.2
20 -12 8 224.08 33.4
8 -12 -20 191.68 28.2
20 -8 -12 272.17 28.3
-12 8 20 219.78 32.5
20 -8 -12 261.57 39.9
-12 -20 8 235.18 35.6
8 -20 12 207.98 36.5
-8 12 -20 262.37 31.8
-12 -8 -20 237.68 30.3
-12 20 -8 177.58 32.5
-20 8 -12 262.17 35.5
20 -12 8 255.07 28.9
-8 12 -20 199.98 22.1
-8 -20 -12 245.98 40.4
-12 20 -8 244.68 35.4
12 -8 20 244.28 35.8
8 12 20 334.07 49.2
20 -12 8 306.17 46.8
-20 12 8 166.98 26.7
-8 20 12 204.58 32.8
12 -20 -8 246.08 37.5
12 8 -20 277.67 35.1
-8 20 12 216.98 39.8
-12 8 20 199.58 41.6
8 -12 -20 285.97 32.7
12 20 8 233.98 34.5
12 -8 20 181.48 44.3
8 20 -12 173.98 26.8
-8 20 12 227.28 31.6
12 8 -20 249.88 29
20 12 -8 288.77 30.9
12 -20 -8 211.88 37.1
8 12 20 275.37 39
-12 8 20 272.97 46.7
-12 20 -8 254.17 28.1
12 10 20 640.14 59.79
-10 12 20 790.22 68.59
-12 20 10 726.23 51.19
12 20 -10 747.73 51.69
10 12 -20 722.73 47.1
10 12 -20 704.03 44.2
20 -10 12 779.22 45.5
-10 -12 -20 573.24 57.99
10 -20 -12 750.12 50.49
-10 -20 12 662.13 54.89
-12 10 -20 702.83 41
-10 12 20 727.33 68.49
10 -12 20 703.83 73.89
-10 20 -12 699.33 39.1
12 20 -10 766.72 41.6
12 -10 -20 677.63 52.69
12 -20 10 740.33 56.59
-12 10 -20 681.63 54.69
-20 10 12 665.93 47.2
20 -12 -10 727.63 38.6
12 10 20 705.83 58.69
-10 12 20 709.13 57.99
12 -20 10 732.33 66.89
-12 -10 20 729.23 68.49
12 -10 -20 704.33 39.7
10 20 12 736.93 51.59
20 -10 12 781.92 46.5
-20 12 -10 744.53 57.79
12 -10 -20 803.82 51.89
20 -10 12 630.24 83.49
10 -20 -12 681.63 57.59
20 -12 -10 658.93 46.6
-10 20 -12 652.93 61.29
20 10 -12 741.03 40.7
10 -12 -20 648.54 53.09
20 10 12 646.74 62.89
12 10 -20 713.93 43.6
-12 10 20 687.93 77.59
-10 12 -20 693.03 40.2
20 -12 10 693.83 57.49
10 -12 -20 753.02 50.59
-10 20 12 716.83 50.89
12 -10 20 732.83 71.79
12 20 10 660.43 53.19
12 -20 -10 747.33 63.59
-20 12 10 741.83 48.8
20 -10 -12 761.82 38.6
-12 20 -10 733.23 60.29
-10 12 -20 731.33 55.49
12 -20 -10 729.03 48.4
10 20 -12 739.33 40.7
-12 10 20 803.22 55.29
-10 -12 20 688.23 65.59
-12 10 20 697.93 71.99
10 20 -12 688.03 49.6
10 -12 -20 707.53 39.4
-12 -20 10 712.13 55.99
10 12 20 714.53 58.59
20 -10 -12 624.44 50.39
20 12 -10 729.53 39.8
10 -20 12 789.02 59.59
20 -12 10 658.53 72.39
-12 -10 -20 718.43 56.59
-12 20 -10 665.03 38.5
10 12 20 761.72 56.59
12 -10 20 724.03 73.69
20 -12 10 716.83 46.5
12 10 -20 684.33 47.5
20 -12 12 666.53 76.59
12 -20 -12 759.52 49.5
12 12 -20 684.43 41.5
12 20 -12 727.53 39.5
20 12 12 746.63 67.19
12 12 20 698.53 57.49
12 12 20 762.82 56.29
20 -12 12 664.63 45.1
-20 12 12 709.83 46.7
-12 12 20 712.73 54.19
12 -12 20 680.63 68.29
20 -12 -12 699.63 37.3
20 12 -12 726.23 38.8
20 -12 12 692.03 46
-12 12 -20 705.53 39.4
12 20 12 642.44 51.79
-12 12 20 732.13 72.19
12 -12 -20 710.83 50.99
20 -12 -12 716.03 50.79
-12 -20 12 647.04 57.79
-12 -12 20 705.73 68.99
-12 12 20 735.13 73.89
12 -12 -20 695.63 38.6
-12 20 -12 725.43 38.2
-12 20 12 641.94 49.2
12 -20 12 686.63 54.99
0 20 14 208.78 31.9
14 0 20 143.49 57.19
0 20 -14 248.28 27.3
0 14 -20 226.98 23.9
0 14 -20 246.68 32.5
0 -14 20 222.38 38.1
20 -14 0 187.38 22.8
0 -20 14 233.18 51.19
14 -20 0 231.38 31.1
-20 14 0 221.08 30.3
-14 20 0 214.98 30.3
-14 0 -20 187.68 28.3
14 0 -20 208.68 28
0 20 14 238.88 39.3
20 0 -14 181.78 27.5
14 0 -20 165.58 20.8
20 0 14 231.08 30.6
-20 0 -14 165.58 32.1
20 14 0 147.89 19.9
20 -14 0 240.18 40.3
14 20 0 220.88 35.3
-14 0 20 181.28 44.9
0 14 20 203.68 33.3
0 14 20 232.98 38.5
0 -20 14 235.38 34.7
-14 20 0 137.69 25.5
14 20 0 270.47 34.5
0 -14 20 170.18 58.39
20 -14 0 221.08 28.8
0 -14 -20 260.47 33.4
0 -20 -14 260.47 32
0 -20 -14 197.58 31.1
20 0 14 184.88 24.9
14 0 20 208.98 32.9
0 -14 -20 176.98 29.2
-20 14 0 244.18 34.5
14 -20 0 235.48 30.1
20 -2 14 67.19 20.5
14 -20 2 68.69 26.1
14 20 -2 55.79 30.8
2 20 14 97.69 38
14 2 20 38.3 27.9
-2 -20 14 67.39 67.29
-2 14 20 36.2 31.8
2 -14 20 82.39 46.8
14 2 20 22.8 55.39
20 -14 -2 78.19 24.7
-14 20 2 54.49 25.9
14 -2 -20 34.7 24.1
-2 -14 -20 80.79 27.9
2 14 -20 47.9 17.1
14 20 -2 27.9 17.4
-14 -2 20 91.59 40.4
20 2 -14 58.59 17.5
20 -14 -2 25.6 38.9
-20 14 -2 30.8 27.2
-2 -14 -20 85.09 30
20 -2 14 92.19 25.6
-20 14 -2 49.1 26.1
-14 20 2 67.59 22.9
2 -20 -14 26.2 23.7
-2 20 -14 76.49 17.9
-14 2 -20 81.79 26.9
-2 -20 14 74.39 28.3
14 -20 2 83.79 28.1
14 -2 -20 51.39 16.5
2 -20 -14 82.59 27.9
20 -14 -2 54.79 17.2
2 14 -20 44.5 24.3
-2 14 20 38 27
-2 14 20 58.39 30
2 -14 20 15.8 35.7
2 20 14 49.5 28.4
-2 20 14 64.19 35.9
14 -20 -2 77.99 23.8
-2 -14 20 21 63.39
-20 14 2 88.89 29.2
20 -14 2 74.09 25.5
14 -2 20 44 27.7
-14 20 -2 38.3 27.6
14 -20 -2 54.09 26.2
-2 -14 20 91.89 33.6
14 2 -20 19.2 20.8
20 2 14 45.1 24.2
-2 14 -20 75.89 18.2
2 14 20 71.09 30
20 -2 -14 49 15.8
20 -14 2 114.19 36.7
-14 20 -2 73.79 27.5
-2 20 14 51.69 32.7
2 -14 -20 56.59 25.5
-14 20 -2 46.1 20.1
20 -14 2 55.09 18.9
-20 -2 14 -47.3 66.79
2 -20 14 62.59 30.4
14 20 2 88.29 30.6
2 -20 14 66.69 40.2
20 2 14 57.49 22.6
20 14 -2 36.2 16.9
-14 2 20 19.6 40.9
-2 -20 -14 123.19 27.6
14 2 -20 91.89 19.3
-2 20 14 35.1 27.1
2 -14 -20 66.49 26.3
2 20 -14 67.69 16.9
14 -2 20 39.6 49.6
-20 2 -14 54.49 30.3
-14 -2 -20 68.69 24.6
14 20 2 104.39 23.7
2 14 20 44 25.9
-20 14 2 96.99 25.4
-14 20 4 -36.2 24.1
-20 14 -4 -6 27.6
4 20 14 10.2 24.1
-4 -20 14 28 27
14 -4 -20 14.4 28.2
14 20 -4 17.5 16.5
-4 14 20 65.79 31.9
-4 -14 -20 40.6 32.4
14 -4 -20 7.1 14.6
-14 4 -20 15.8 20.5
-4 14 20 14.6 29.5
-4 14 20 -41.2 32.5
-4 20 -14 24.1 16.1
-20 14 -4 1 27.5
-20 4 14 5.8 21.2
-14 20 4 8 20.3
14 -20 4 4.4 24
4 14 -20 37.7 17.6
4 -14 20 13.2 41.8
4 -14 20 -1.6 38.8
20 -14 -4 21.9 23.8
14 4 20 1.1 56.19
4 -20 -14 -8.5 24.8
20 -4 14 21 18.5
20 -4 14 -10.8 21.5
-4 -14 -20 -20 26.4
4 14 -20 18 20.6
4 -20 -14 44.3 26.4
-14 -4 20 58.99 41.4
14 4 20 18.4 28
20 4 -14 -15.8 18.9
14 -20 4 22.5 23.8
20 -14 -4 31.2 16.6
14 20 -4 73.89 29.7
4 20 14 -47 35.2
-14 4 -20 13.4 24.6
14 -4 -20 -12.5 24
20 -14 -4 -11 36.6
14 -20 -4 4.2 24
4 -14 -20 17.9 22.5
14 20 4 22.2 29.3
-20 14 4 8.7 26.1
-20 14 4 1 22.7
-4 -14 20 72.09 81.29
-14 -20 4 38.1 31
14 -4 20 -3.5 46.2
-4 20 14 29.3 30.5
20 4 14 -24.9 23.7
4 14 20 15.9 24.5
-4 -20 -14 -2.3 28.6
-14 20 -4 10 16.1
20 4 14 28.3 23.6
-20 -4 14 13.3 60.19
-14 4 20 -11.9 38.1
-4 -14 20 -24 31.4
14 4 -20 35.2 23.8
-14 -4 -20 86.49 27
-14 4 20 -38.2 46.9
-4 20 14 5.8 27.6
-14 20 -4 -29 28.3
-14 4 20 -3.9 28.1
4 -20 14 63.39 34.1
14 -4 20 63.59 27
20 -14 4 -2.6 19.5
20 -4 -14 11.7 15.2
-20 4 -14 18.1 30.7
-4 14 -20 15.4 16.6
4 -14 -20 33.5 26
-4 20 14 20.1 33.6
4 20 -14 2.5 14.5
20 -14 4 34 36.1
4 14 20 -8.8 28.6
20 -14 4 12.1 23.8
-14 20 -4 49.6 24
4 -20 14 -2.4 34.7
20 14 -4 6.6 15.5
-4 14 -20 28.2 32.3
14 4 -20 28 16.9
14 20 -6 14.2 16
14 -20 6 71.99 25.9
-14 6 -20 29.9 18
14 -6 -20 22.8 24.9
20 -6 14 18.4 19
14 -6 -20 63.49 29.6
6 -20 -14 2.4 23.4
20 -14 -6 -2.7 37.8
20 -6 14 18.7 61.29
-20 14 -6 87.09 34
6 14 -20 28.3 17.2
-6 -14 -20 -2.5 29.5
-6 20 -14 7.6 14.1
6 14 -20 58.19 24.5
-14 -6 20 -12.8 37
-6 -20 14 -2.5 25.4
6 20 14 20.6 23.6
6 -14 20 37.9 38.6
-14 20 6 20.7 21.5
14 6 20 -8.4 55.69
6 -20 -14 -33.1 25.9
-6 14 20 49.2 29.3
-20 6 14 40.3 24.1
14 6 20 -39.2 24.1
6 20 14 -52.69 37.7
14 20 -6 29.9 25.4
20 6 -14 17.5 18.2
-14 20 6 69.79 28.1
14 -6 -20 7.7 14.5
-6 14 20 56.79 30.8
-6 14 20 13.5 31.6
-14 6 -20 48.7 26.4
14 -20 6 -3 27.4
20 -6 14 32.5 20.6
20 -14 -6 42.6 24.1
20 -14 -6 4.9 14.3
-20 14 -6 55.79 28.5
-6 -14 20 25.4 32.1
20 6 14 35.6 27.8
-6 20 14 35.3 29.3
-20 14 6 24.4 20.7
-20 -6 14 -10.3 61.49
6 -20 14 17.1 30.8
-14 6 20 81.69 43.9
-14 -20 6 53.79 32.8
6 -20 14 35.2 39.2
14 6 -20 8.2 22.7
-6 -20 -14 41.1 32.3
-6 14 -20 8.4 16.8
20 -14 6 37.6 20.5
20 -14 6 63.79 29.8
-14 20 -6 -22.9 28.5
-20 14 6 41.3 29.3
6 20 -14 30 15.9
20 14 -6 46.8 17.1
-20 6 -14 -63.49 28.2
14 -20 -6 22.6 22.6
14 6 -20 4.7 18.5
14 -6 20 1.8 26.9
-14 -6 -20 59.99 30.9
6 -14 -20 35 24.8
6 -14 -20 16.3 25.8
-14 20 -6 36 15.1
14 20 6 -24 25.2
20 -6 -14 33.5 14.6
6 14 20 17.4 29.6
-6 20 14 12.8 29.1
14 -6 20 43.3 42.3
6 14 20 8.3 27
-6 20 14 7.8 28.4
20 -14 6 4.9 36.6
-6 14 -20 7.9 33.2
-14 6 20 32.8 27.5
-14 20 -6 19.2 25.9
-20 14 -8 17.4 31.1
8 14 -20 -34.3 15
8 -14 20 5.2 34.8
-14 20 8 7 23
-8 -20 14 55.99 29.9
-8 -14 -20 9.1 36.2
14 8 20 -30.1 27.8
8 20 14 64.29 42.1
14 -8 -20 2.3 14.5
14 20 -8 -5.3 25.6
20 -8 14 8 19.7
14 20 -8 1.1 15.7
20 8 -14 -1.9 16.5
8 -20 -14 -7.7 24.6
-14 -8 20 -17.9 38.4
-14 8 -20 28 28.2
20 -8 14 19 17.9
-8 14 20 28 31.9
-8 20 -14 5.1 13.4
20 -14 -8 -16.9 14.1
20 -14 -8 35.8 26.2
8 -20 -14 41.3 32.4
-20 8 14 13 22.8
14 -20 8 -61.19 33.3
20 -14 -8 -47.4 35.7
8 14 -20 0.3 23
-8 14 20 -7.2 30
-8 14 20 -3.8 25.2
14 -8 -20 28.8 29.8
20 -8 14 -39.3 47.1
14 -8 -20 32.6 29.8
8 20 14 3.7 23.1
14 -20 8 3.1 24.9
-14 8 -20 -6.3 15.5
-20 8 -14 -30.7 29.5
20 8 14 -6.7 27.5
20 -14 8 20.5 21.4
-14 20 -8 -66.39 32.7
8 -14 -20 45.8 24
20 -14 8 -8.2 35.6
14 -8 20 15.3 40.3
20 -8 -14 54.39 31.7
8 14 20 -27.8 26.7
-14 8 20 -16 41.4
-8 14 -20 6.8 15
-14 20 -8 10.7 14.4
-14 8 20 -15.4 24.1
8 -14 -20 21.9 29.2
-20 14 8 -14.1 21.8
-8 20 14 -6.7 24.9
14 8 -20 -18.9 25.7
20 14 -8 17.5 15
8 14 20 26.7 23.3
8 -20 14 37.8 30.6
20 -14 8 -17.2 29
14 8 -20 15.5 21
-14 -20 8 15.3 31.5
14 -8 20 -29.1 25.7
-8 14 -20 -44.1 32.9
-14 20 -8 -0.2 29.4
20 -8 -14 7.8 13.6
-8 20 14 23.2 26.8
8 -14 -20 -25.8 15.2
14 20 8 -54.99 25.8
-8 20 14 -39.4 32.3
-20 -8 14 64.49 63.69
8 20 -14 12.6 14.2
-8 -14 20 -10.6 32.9
14 -20 -8 20.3 23.9
-10 14 20 126.89 34.2
20 -10 14 124.89 21.8
14 -20 10 130.69 41
14 10 20 169.68 37.2
14 20 -10 141.59 19.8
10 -20 -14 151.08 30.3
20 -10 14 160.48 24.6
-10 14 20 110.99 36.3
20 -14 -10 152.18 19
-14 20 10 119.69 24.3
10 -14 20 139.79 38
20 -10 14 98.29 44
10 14 -20 131.49 20.2
10 20 14 177.08 28.5
-10 14 20 168.18 30.7
-14 10 -20 126.99 18.6
14 -10 -20 92.99 31.6
-14 -10 20 113.19 42.5
20 -14 -10 140.89 29
-20 10 14 122.39 25.2
14 -20 10 125.49 29.7
14 10 20 150.78 31.9
-10 20 -14 152.88 19.4
20 10 -14 149.09 19.7
-10 -20 14 120.79 32.9
14 20 -10 157.88 26.2
14 -10 -20 135.69 18.3
-10 -14 20 123.49 38.8
14 -10 20 161.58 34.1
10 -20 14 165.68 33.9
14 20 10 112.59 29.4
10 -14 -20 204.18 32.6
20 -14 10 164.88 24.4
-10 20 14 106.19 26.4
10 -14 -20 146.49 19
20 -10 -14 178.38 24.1
10 20 -14 153.98 19.2
20 -14 10 105.39 21.8
-14 10 20 142.69 26
20 -10 -14 154.68 32.8
20 -14 10 209.38 39.8
20 -14 10 125.19 37
20 10 14 150.28 32.2
-14 -20 10 155.58 34.8
14 -20 -10 163.58 30.4
14 10 -20 147.39 22.1
-14 20 -10 150.48 19.6
10 14 20 102.79 30.5
20 14 -10 96.09 16.6
-14 10 20 157.18 43.9
10 14 20 172.68 31.7
14 -10 20 107.69 42.3
-10 14 -20 142.09 19.3
-10 20 14 126.89 27.7
-20 14 10 147.39 25.1
-14 20 12 134.49 24.7
-14 12 -20 185.18 25.1
20 -12 14 109.79 39.8
20 -12 14 245.28 32.6
14 12 20 195.78 34
14 20 -12 119.99 17
20 -14 -12 229.78 33.7
12 -20 -14 143.09 32.7
12 -14 20 213.38 39.8
-12 20 -14 179.78 25.3
14 -12 -20 163.78 24.1
-14 -12 20 128.29 39.8
14 -12 -20 204.78 34.4
-12 -20 14 133.69 33
12 20 14 170.68 26.5
-12 14 20 101.49 33.7
14 -20 12 108.29 28.1
-20 12 14 150.68 24.8
20 12 -14 113.99 17.1
12 14 -20 161.58 19.7
-12 14 20 196.58 31.1
20 -14 -12 156.88 23.7
14 12 20 138.89 28.2
20 -12 14 129.39 23.2
-14 12 20 162.28 37.3
-12 -14 20 128.89 39.5
14 -12 20 102.59 36.4
20 -14 12 137.89 22.2
12 -14 -20 164.28 23.7
20 -12 -14 166.88 22.6
-14 -20 12 128.39 35.6
-14 20 -12 183.18 24.9
20 -14 12 176.48 24.5
20 12 14 133.79 31.6
12 14 20 156.08 30.3
12 -14 -20 143.99 32.2
14 -20 -12 147.89 30.8
20 -14 12 186.78 37.9
12 14 20 169.58 29.4
-20 14 12 157.08 23.1
-12 20 14 194.58 27.4
14 -12 20 206.68 43.7
14 -20 -12 156.48 28.6
14 20 12 207.88 28.8
20 -12 -14 184.88 34.2
-12 14 -20 190.68 20.3
14 12 -20 133.49 19.9
-14 12 20 153.98 26.7
20 14 -12 176.38 19.7
12 -20 14 187.48 31.2
12 20 -14 137.59 18.7
-20 14 14 -3.8 17.7
20 -14 -14 6.8 32.8
14 -14 -20 -54.99 31.3
14 14 -20 1.8 15
14 20 -14 -11.8 11.9
20 -14 14 16.6 22.6
20 -14 14 1 18.6
14 -14 -20 6.3 12.9
-14 14 -20 12.5 13.4
14 20 14 12.3 23.3
-14 -14 20 -2.7 36.4
20 -14 -14 -0.1 11.7
14 14 20 1.1 26.8
20 -14 14 -19 34.5
14 -20 -14 52.69 30.2
-14 20 -14 -4 12.6
-14 20 14 31.2 22.1
20 14 -14 12.4 13.5
-20 14 -14 12.1 11.9
14 14 20 28.6 24.9
-14 -20 14 10.9 34.6
14 -14 20 3.2 31.2
0 20 16 29.2 31.3
0 16 -20 15.9 14.4
-16 20 0 4.5 29
16 20 0 -9.6 16.8
20 -16 0 -7.3 31.2
0 -16 -20 26.3 27.6
16 -20 0 13.2 26
0 -20 -16 26.2 32.1
-20 0 16 -11.1 61.09
-16 20 0 13.5 23.6
0 -16 20 38.6 55.79
20 16 0 26.1 17
0 -20 16 18.1 51.39
16 20 0 39 31
0 20 -16 30.2 15.3
0 16 20 5.4 31.5
-16 0 -20 37.4 28.2
-16 0 20 57.89 46.1
0 16 20 32.9 24.3
20 0 16 26.6 21.8
16 0 -20 20.8 14.8
-20 0 -16 34.2 35.9
16 0 20 -9.3 52.39
0 -16 -20 -4.3 31.6
20 -16 0 40.4 25.9
16 -20 0 19.7 25.6
0 -20 16 71.09 31.4
-20 16 0 6.9 23.9
0 -20 -16 13.2 30.9
0 20 16 26 25.2
-16 -20 0 -6.7 58.19
0 -16 20 -10.9 33.9
20 0 -16 10.4 15.1
20 0 16 13.3 20
20 -16 0 11.6 17.5
16 0 -20 -12.6 28.1
16 0 20 -11.9 24.1
-20 16 0 -24.2 30.7
16 -20 2 -31.5 24.3
16 2 20 -2.4 24.3
-20 16 -2 49.99 31.3
16 -20 2 1.6 26.5
-16 20 2 43.3 23.1
16 2 20 -24.3 57.09
2 20 16 -5.8 31.3
-2 16 20 -29.5 25.1
-2 -20 16 0 27.7
16 -2 -20 15.1 14.2
-20 16 -2 11.1 25.2
-16 2 -20 24.6 29.8
20 -2 16 22.8 20.5
2 20 16 -10.8 25.4
-20 2 16 -13.9 21.5
2 -16 20 68.99 46
20 -16 -2 40.3 18.2
-16 20 2 63.99 29.4
2 -16 20 -36.3 35.9
-2 16 20 25.4 30.3
2 16 -20 -18.7 14.2
16 20 -2 1.5 16
-2 -16 -20 -13.3 28.5
-2 -16 -20 -22.1 33.1
-2 -20 16 77.29 84.09
-2 20 -16 1.6 12.2
20 2 -16 -4.5 15.8
-16 -2 20 -15.1 41.3
2 -20 -16 13.6 31
-20 2 16 -75.19 63.49
20 -2 16 43.3 23.5
16 20 -2 49.9 30.2
2 -20 -16 39.5 32.6
20 -16 -2 5.4 31.4
20 -16 -2 -9.8 23.8
16 -2 -20 -38.4 29.9
-2 -16 20 -9.7 33.6
2 16 20 52.49 28.6
-20 2 -16 32 34.9
-16 20 -2 6.6 23.2
20 -16 2 27.1 26.6
-2 -20 -16 65.79 43.1
2 -20 16 6.4 31.7
-2 -16 20 -112.79 63.49
-16 2 20 -87.59 41.9
2 16 20 10.5 23.9
20 2 16 21.1 22.8
16 -2 20 5.6 24.6
16 2 -20 -3 15.1
20 -16 2 -8.7 18.5
-16 -20 2 38.9 40.5
16 -2 20 23.4 53.39
-16 20 -2 -53.59 29.6
-20 16 2 -5.7 21.6
-2 20 16 -31.8 27.1
16 -20 -2 1.7 24.1
-16 20 -2 5.3 17.8
-2 20 16 1.5 25.6
2 20 -16 -1 13.3
-20 16 2 -9.3 31.1
2 -20 16 2.7 43
-20 -2 16 29 61.49
-2 16 -20 8.4 15.4
16 -20 -2 -9.1 25
16 20 2 -0.8 30.8
20 -16 2 19.5 30.6
16 2 -20 -0.8 29.4
2 -16 -20 13 26.8
-2 -20 -16 -1.8 31.6
20 -2 -16 10.7 14.2
-16 -2 -20 56.79 30.7
20 16 -2 -16.6 14.4
2 -16 -20 57.59 29.2
16 20 2 8.4 19.2
16 -20 4 219.88 30.5
-20 4 16 149.79 25
16 20 -4 262.87 32.9
20 -4 16 236.48 29.5
4 -16 20 224.28 48.7
-16 20 4 239.08 29.4
-4 16 20 179.28 31.9
4 20 16 235.48 30.1
16 4 20 274.77 63.39
16 4 20 332.77 44.6
-16 4 -20 274.17 32.4
16 -20 4 240.28 34.6
-16 -4 20 241.78 50.89
4 20 16 290.07 37
-4 16 20 275.57 32.2
16 -4 -20 304.17 41.6
4 16 -20 198.28 27.6
20 -16 -4 216.98 30.8
20 -16 -4 169.28 35
4 -20 -16 264.67 33.9
20 -4 16 218.68 32.9
-4 20 -16 275.77 27.2
-16 4 -20 252.37 36.6
16 20 -4 226.38 28.7
20 -16 -4 299.17 40.1
-16 20 4 199.78 34.7
-4 -16 -20 222.58 35.2
-20 16 -4 236.28 38
20 4 -16 207.28 22.8
-4 -20 16 253.67 35.5
16 -4 -20 238.08 27.3
4 -16 20 226.18 43
-20 16 -4 243.28 32.4
4 -20 -16 264.47 37.5
4 -20 16 226.48 40.1
4 -16 -20 269.57 34.1
-20 -4 16 358.36 91.99
20 16 -4 227.48 29
-20 16 4 286.57 38.4
-4 20 16 204.88 30.5
16 -20 -4 305.17 45
-4 -20 -16 282.27 44.8
20 -16 4 306.17 42.7
-4 20 16 150.98 29.7
20 4 16 181.38 28.6
4 16 20 156.48 26.6
-16 -20 4 243.68 46.4
4 20 -16 222.98 28.3
16 -20 -4 314.17 34.8
-16 4 20 282.07 51.49
4 -16 -20 277.57 34.4
16 -4 20 304.57 50.09
20 -16 4 261.87 35.6
-16 20 -4 234.88 22.5
4 -20 16 204.98 43.4
16 4 -20 193.68 33.8
4 16 20 301.07 36.9
-4 16 -20 251.37 27.2
4 -16 -20 268.17 36.1
-16 20 -4 192.38 29.1
20 -4 -16 220.68 26.3
16 -4 20 176.78 27.6
20 -16 4 255.57 28.3
16 -20 -4 204.98 31.8
-20 16 4 247.98 37.6
16 20 4 260.47 34.6
-16 -4 -20 189.08 49.7
16 4 -20 236.18 29.3
-20 4 -16 302.97 42.6
-4 -16 20 247.68 40.6
-16 20 -4 252.67 36.2
-20 16 -6 281.07 36.2
6 -16 20 344.77 46.6
16 20 -6 341.17 30.8
6 16 -20 331.67 30.6
16 -20 6 364.76 46.3
-6 20 -16 299.37 28.4
20 -16 -6 408.26 31.5
-6 16 20 301.47 38.2
-16 -6 20 246.98 47.5
20 -6 16 261.57 38.8
-6 16 20 303.17 35.4
-6 -20 16 269.77 36.5
-20 6 16 283.77 39.9
6 20 16 338.07 39.9
20 -16 -6 364.76 37.9
-16 6 -20 345.07 32.1
16 -6 -20 480.35 56.39
20 -6 16 262.67 61.69
16 -20 6 326.27 49.2
16 -6 -20 334.97 28.6
6 -20 -16 303.37 34.4
20 -16 -6 292.27 42.9
20 -6 16 250.77 35.2
-16 20 6 284.07 38.8
-6 -16 -20 275.57 42.2
16 20 -6 373.66 48.6
6 20 16 298.97 42
-6 20 16 270.67 33.4
6 -16 -20 293.67 32.1
20 -16 6 292.37 39.5
6 20 -16 317.77 29.1
20 16 -6 324.87 30.2
20 -16 6 320.57 40.5
20 6 16 317.27 36.4
16 -20 -6 338.37 42.8
16 -6 20 309.67 46.1
-6 20 16 310.77 45.6
6 16 20 324.07 48.6
6 16 20 319.37 42.9
20 -16 6 252.87 38.2
-20 16 6 292.97 38.8
-6 -16 20 387.96 55.09
6 -20 16 308.27 40.5
6 -16 -20 312.87 43.5
16 -20 -6 320.07 45.1
-16 20 -6 352.76 47.5
-16 6 20 290.17 50.39
16 6 -20 292.37 31.4
16 20 6 383.06 50.29
-16 -20 6 261.07 44.8
-6 16 -20 331.17 29.4
-16 20 -6 310.17 30.6
20 -6 -16 290.17 27
16 -6 20 359.96 53.29
8 20 16 89.29 24.3
8 -16 20 155.38 37.8
8 16 -20 110.09 16.9
-16 20 8 78.49 21.8
-16 -8 20 148.29 40.5
20 8 -16 38.1 16.7
20 -8 16 145.29 50.39
8 -20 -16 132.09 31.2
16 8 20 135.49 29.8
16 -20 8 158.38 39.9
-8 16 20 70.29 30.6
-8 16 20 84.19 28.1
20 -16 -8 100.59 18.3
20 -16 -8 176.68 33
-8 -20 16 122.29 32
8 20 16 40.2 33.4
20 -8 16 79.89 23.6
16 20 -8 122.79 25.9
-8 20 -16 69.29 15.2
-16 8 -20 98.99 16.8
20 -8 16 117.29 23
-20 8 16 95.69 23.5
16 -20 8 87.29 29.1
16 -8 -20 82.19 16.5
16 -8 -20 104.29 34.8
20 -16 -8 118.99 29.6
16 20 -8 101.49 18.2
-8 -16 20 142.59 34.8
-8 20 16 75.39 26.2
8 -16 -20 118.29 28.4
20 8 16 100.69 29.9
16 -20 -8 98.19 30.7
-8 16 -20 71.59 16.6
16 20 8 86.39 28.5
16 8 -20 91.29 23.3
-16 8 20 72.99 41.2
20 -16 8 157.18 34
8 -16 -20 89.69 17.1
-20 16 8 75.19 20.4
20 -16 8 123.89 23.3
-16 20 -8 97.89 32.5
8 16 20 61.39 26.4
20 -8 -16 85.29 15.1
16 -8 20 104.89 27.7
20 16 -8 133.69 18.7
-8 20 16 156.58 30.9
16 -20 -8 101.29 24.7
20 -16 8 96.69 35.9
8 -20 16 83.69 34.1
16 -8 20 134.39 42
8 20 -16 95.19 16.4
-16 20 -8 71.89 15.6
-8 20 16 72.79 32.6
8 16 20 85.39 26.1
10 -16 20 -29.1 31.1
10 16 -20 12.9 14.4
20 -10 16 5.2 16.9
16 -10 -20 0.6 12.1
-16 20 10 5.7 19.4
10 20 16 -35.7 34.2
20 -10 16 -8.2 19.9
-10 16 20 -8.3 20.6
16 -20 10 63.19 44.5
10 20 16 18.3 21.2
-10 16 20 12.4 34.9
-20 10 16 13.4 20.4
20 10 -16 8.1 14.8
16 10 20 1.2 25.9
-10 20 -16 2.8 12.5
10 -20 -16 12 27.5
20 -16 -10 -18.1 31.5
-10 -20 16 -4.1 28.6
20 -16 -10 -7.1 29.4
20 -16 -10 17.5 13.3
-16 10 -20 1.2 14.1
16 -20 10 9.9 24.8
-16 -10 20 -15.7 39.7
16 -10 -20 -77.69 32.5
16 20 -10 7.4 12.6
20 -10 16 1.5 42.4
20 16 -10 -9.8 12.9
20 -16 10 29.7 42.1
-20 -10 16 27.1 56.39
-10 -16 20 20.4 32.9
20 -16 10 38.6 21.8
-10 20 16 -6.6 22.9
20 -10 -16 17.2 13.7
20 -16 10 -21.4 29.6
-10 16 -20 3.6 13.8
16 -10 20 30 29.7
20 -16 10 -7.4 19.8
10 -16 -20 -11.8 13.7
16 -20 -10 -1 22.7
10 16 20 -6.3 22.6
10 -20 16 -17.1 26.4
-20 16 10 40.9 19.4
10 16 20 66.79 26.2
16 -20 -10 -8 27.9
20 -10 -16 56.39 37.8
-10 20 16 -16.7 24.2
-16 -20 10 -39.6 34.6
16 10 -20 35.2 20.3
20 10 16 9.7 25.6
-16 20 -10 29.3 13.5
-16 10 20 -56.39 40.8
10 20 -16 2.5 13.9
16 -10 20 57.29 39.3
16 20 10 42.7 26.8
10 -16 -20 0.4 28.7
16 20 -12 11.5 13.4
12 16 -20 -2.1 14.4
-20 12 16 0.1 19.2
16 -12 -20 0.9 12.3
20 12 -16 -8.9 13.3
16 12 20 22.4 24.1
-16 12 -20 -9.2 12.7
20 -12 16 -37.4 36.1
-12 20 -16 -7.1 12.4
-16 20 12 28.3 21.8
12 20 16 6.7 21.5
-16 -12 20 33.2 40.4
16 -12 -20 -42.5 35.8
20 -16 -12 -10 13
-20 16 -12 -13.3 12
16 -20 12 1.1 24.9
20 -12 16 22.2 21.4
12 -16 20 17 31.9
-12 -20 16 -49.99 31.7
-12 16 20 -19.7 20.3
12 -20 -16 -38.3 29.9
20 -16 -12 58.39 33.5
16 12 -20 -1.6 17.6
-20 16 12 1.8 18.2
20 12 16 -21.8 26.7
20 -16 12 -20.9 23
20 -16 12 32 32.2
12 20 -16 -11.1 12.4
-12 -16 20 -33.2 35.5
12 16 20 -7.7 23.9
-12 20 16 -13.3 23.6
-16 20 -12 -8.7 12.1
-12 16 -20 26 12.9
20 -12 -16 7.3 12.4
-16 12 20 -21.6 36.3
-20 -12 16 41.2 55.99
12 -20 16 -33 27
20 -12 -16 50.39 38.3
16 -20 -12 -3.7 30.9
12 -16 -20 -20 13.1
20 16 -12 26.5 12.7
20 -16 12 -24.7 19.4
16 -12 20 -34.7 33.8
12 16 20 -10 23.4
-20 12 -16 6 11.6
-16 -20 12 -33.6 38.2
12 -16 -20 -3.9 27.7
16 20 12 -13.7 26.3
-20 16 -14 92.39 15.1
-14 20 -16 77.99 14.6
16 -14 -20 71.49 13.2
20 -16 -14 76.39 13.9
-16 -14 20 14.6 41
20 -14 16 108.59 33.2
-16 14 -20 62.29 13.4
20 14 -16 47.3 13.2
14 -16 20 94.69 32.5
20 -14 16 91.99 25
16 14 20 71.69 24.3
16 20 -14 98.09 15.6
14 16 -20 29.6 13.2
16 -20 14 53.89 26.1
-16 20 14 49 20.2
-14 -20 16 55.59 34.5
14 -20 -16 235.18 63.89
14 20 16 74.39 22.4
-20 14 16 67.89 19.6
20 14 16 99.79 30.1
16 -20 -14 112.99 51.79
-14 16 -20 71.59 14.4
-14 -16 20 67.29 39.1
-14 20 16 96.69 23.1
-20 14 -16 48.5 13.1
20 -14 -16 66.89 12.8
14 16 20 83.29 25.6
16 -14 20 48.7 32.9
14 20 -16 54.39 13.6
14 16 20 75.79 24.6
20 -16 14 55.59 26.5
-16 20 -14 57.89 14.4
16 20 14 20 24.9
20 -16 14 47 31.2
14 -16 -20 80.89 14.2
20 16 -14 66.29 13.5
-16 -20 14 42.7 38.4
14 -20 16 73.99 30
16 14 -20 60.19 14.8
-20 -14 16 66.99 59.69
-20 16 14 77.59 19.2
-20 16 16 229.18 32.4
16 -16 20 162.48 33.4
-16 20 -16 185.18 20.2
20 -16 -16 222.08 22.4
-20 -16 16 137.69 111.19
-16 20 16 263.47 33.8
16 20 16 136.69 27.2
-16 -20 16 225.88 44.3
16 16 20 214.08 27.9
20 -16 16 205.58 32.9
20 16 -16 187.78 20.3
-16 -16 20 149.09 44.4
16 16 -20 229.48 23
16 20 -16 213.78 20
-16 16 -20 206.18 20.9
20 -16 16 184.18 32.9
16 -16 -20 223.68 21.4
-20 16 -16 209.88 19.8
16 -20 16 165.48 30.3
0 -20 -18 120.59 37
20 0 18 123.29 26.8
0 -18 -20 141.39 34.4
18 20 0 121.49 18.8
18 -20 0 180.28 27.4
-18 20 0 102.19 23.5
18 -20 0 128.09 29.4
0 18 20 131.69 27
-18 0 20 142.39 29.5
20 -18 0 168.98 23.8
18 0 20 162.48 28.2
0 18 -20 103.59 15.7
18 20 0 132.39 30.7
20 -18 0 146.59 29.6
20 -18 0 196.28 33.8
18 -20 0 141.19 31.8
0 20 18 123.29 26
18 0 20 190.28 60.69
-20 18 0 164.68 23.6
-18 0 20 167.88 48.4
0 20 18 153.68 30.9
18 0 -20 117.59 17.3
-20 0 18 181.58 26.4
0 18 20 135.89 30.2
0 -20 18 56.49 54.69
0 20 -18 194.58 24.4
0 -18 20 192.08 58.59
-20 18 0 172.18 26.3
0 -20 18 197.38 36.1
0 -18 20 103.29 36
20 0 -18 167.28 24.1
18 2 20 59.49 26.8
-20 18 -2 30.8 22.2
18 -20 2 26.5 28.7
2 -20 -18 81.89 35
20 -18 -2 51.79 25.9
2 -18 20 29.1 38.1
20 -18 -2 23.6 19.2
-18 -2 20 28.6 27.9
18 -20 2 -12.9 30.3
-18 20 2 41.3 20.9
20 -2 18 32 23.2
-20 2 18 65.59 23.1
-18 -2 20 61.09 47.7
-2 -20 18 44.9 30.5
2 -18 20 87.19 46.2
-2 18 20 22.7 26.7
-2 18 20 30.7 24.3
18 20 -2 11.7 29.4
-2 -18 -20 17.1 34.4
2 18 -20 60.39 16.3
20 -18 -2 39.8 29
18 20 -2 18.3 16.1
-20 18 -2 64.39 17.6
20 2 -18 26 14.8
18 -2 -20 49.9 14.3
2 20 18 33.6 24.1
2 20 18 18.6 26.6
-2 20 -18 55.49 15.1
18 -20 2 52.09 25.6
20 18 -2 72.89 17.2
20 2 18 61.69 24.9
2 20 -18 32.3 13.8
20 -2 -18 40.6 13.9
-2 20 18 48.2 25.1
2 18 20 64.99 25.4
18 -20 -2 43.1 26.5
20 -18 2 95.19 29.7
18 -2 20 60.29 23.9
-20 18 2 76.59 24.1
18 -20 -2 111.09 29.3
-18 20 -2 48 23.6
20 -18 2 41.3 21.9
-2 20 18 9.9 23.1
-20 -2 18 87.39 53.99
18 2 -20 66.99 15.3
18 -20 -2 15.8 25.7
-2 -18 20 -40 71.19
2 -20 18 16 35.6
-2 -18 20 4.8 32.9
-18 20 -2 62.99 18
2 -18 -20 56.39 29.3
-18 2 20 55.29 45.2
-18 2 20 65.59 29.4
-2 18 -20 55.49 14.5
2 -20 18 88.09 45.2
2 18 20 68.59 27.4
18 20 2 34.5 30.1
20 -18 2 34.7 29.6
18 -2 20 70.49 50.89
18 20 -4 35.8 15.2
18 -20 4 -17.7 34.9
-20 18 -4 22.6 15.1
-4 18 20 -6.8 24
20 -4 18 -3.7 19.1
4 18 -20 19.4 14.4
-4 -20 18 49.7 32.1
20 -18 -4 -10.2 28.2
-18 4 -20 -9.9 16.1
4 -18 20 9.7 46.1
4 -20 -18 -4.4 31.8
4 -18 20 10.3 37.8
-4 20 -18 24.4 12.5
4 20 18 -14.6 26.1
20 -4 18 16.7 62.29
18 -20 4 11.5 24.5
18 -20 4 80.19 34.3
-20 4 18 -10.3 21.5
18 -4 -20 6.9 13.2
4 20 18 10.5 21.7
20 4 -18 16.1 16.5
-18 -4 20 58.19 45.9
20 -18 -4 18.6 27.1
20 -18 -4 -17.8 17.3
18 20 -4 20.2 28.1
-4 18 20 43.3 25.5
-18 20 4 8.4 19
18 4 20 12.3 24.8
-20 18 -4 9.1 25.2
-20 -4 18 -86.09 54.59
18 -4 20 22.1 22.3
4 -18 -20 59.29 30
4 20 -18 12.6 13
18 -20 -4 26.1 23.9
4 -20 18 41 42.7
-4 20 18 -0.1 24.2
20 4 18 20.1 22.9
-20 18 4 32.3 20.4
-18 20 -4 -8.6 15.4
18 20 4 83.69 32.4
18 -20 -4 -18.9 28.5
-18 4 20 -94.49 43
-18 4 20 15.9 28.9
-4 -18 20 11.2 30.8
18 4 -20 -1.8 14.3
20 -18 4 17.3 34.2
4 18 20 28.6 23.3
20 -18 4 18.7 27.1
18 -20 -4 1.8 23.4
4 -20 18 41.2 40.1
-4 18 -20 14 12.5
4 18 20 2.6 24.6
-4 20 18 -12.2 24.3
20 18 -4 -6.3 13.3
-18 20 -4 -2 23.5
18 -4 20 4.1 47.9
20 -4 -18 17.6 13.6
20 -18 4 6.1 20.7
-20 6 18 43.9 20.6
-20 18 -6 34.5 14.3
20 -6 18 90.89 52.79
-6 -20 18 10.9 29.2
18 -20 6 38.1 25.1
18 20 -6 24.4 14.4
20 -18 -6 66.99 30.1
-20 18 -6 28.8 29.1
6 -20 -18 42.2 32.4
18 -6 -20 50.19 15.4
18 20 -6 -5.7 24.9
-6 18 20 29.3 25.4
6 18 -20 15.7 13.3
-6 18 20 29.6 23.2
6 -18 20 50.09 34.9
6 20 18 10.6 21.6
-18 6 -20 30.6 16.3
6 20 18 84.39 26.7
18 -20 6 44.5 38.2
20 -18 -6 42.3 27
-18 -6 20 -69.59 44.2
20 -18 -6 43.9 17.7
18 6 20 25.6 25.7
-18 20 6 28.9 21
20 -6 18 10.6 19.5
-6 20 -18 47.8 14.9
20 -6 -18 26.9 13.8
20 -18 6 16.8 38
20 -18 6 91.49 29.3
18 -20 -6 -3.5 30.2
18 -6 20 5.1 23.1
18 -20 -6 65.09 24.2
-20 -6 18 106.29 52.09
-6 20 18 26.8 25.3
-18 20 -6 47.6 26.6
20 -18 6 55.59 23.3
-18 6 20 -31.9 33
-18 20 -6 36.2 14.2
18 -20 -6 23.6 24.3
6 18 20 37.1 23.2
-20 18 6 31.6 19.4
-18 6 20 23.1 45.2
-6 -18 20 83.69 32.7
20 18 -6 23.4 13.3
6 18 20 11.2 25.9
-6 18 -20 43.4 14.6
20 6 18 -8.9 23.9
-6 20 18 21.6 22.5
6 20 -18 31.3 13.1
6 -18 -20 38.8 29.8
18 -6 20 59.19 44.2
6 -20 18 65.09 36.1
18 20 6 53.29 33.8
18 20 -8 -4.7 12.2
20 -18 -8 -3 27.5
-18 -8 20 25.6 46
18 -8 -20 5.8 13.2
-8 18 20 1.8 21.6
8 -20 -18 18.4 32.8
8 20 18 33.4 21.2
-8 -20 18 -7.1 31
-8 18 20 22.9 27.5
-20 8 18 8.3 21.5
8 18 -20 2.5 14
-8 20 -18 0.5 12.1
20 -18 -8 -13.3 16
-18 8 -20 -6.9 13.7
8 -18 20 3.8 32
8 20 18 30.9 27.1
18 -20 8 -1.8 25.4
20 -8 18 -13.5 47.5
-18 20 8 7.1 19
20 -18 -8 -30.7 31.5
-20 18 -8 -4.4 13.4
20 -8 18 -1.9 19.5
18 -20 8 11.4 43.3
18 8 20 11.5 23.2
20 8 18 -7.5 23.7
8 -18 -20 -35.5 32.6
8 18 20 -0.3 20.7
18 20 8 -13.1 30.8
-8 20 18 -2.5 23
-18 20 -8 4.3 13.4
20 -8 -18 -1.6 11.2
-8 18 -20 -13.8 12.1
20 18 -8 7.7 12.7
8 18 20 12.4 24.7
-18 8 20 -48.7 44.1
18 -8 20 20.4 40.1
8 20 -18 -20.7 13.1
-18 -20 8 52.89 61.49
18 -20 -8 39 33
20 -18 8 35.5 21.8
8 -20 18 15.8 31.9
-20 18 8 27.7 19.8
20 -18 8 6.1 43.8
20 -18 8 -5.8 28.1
18 -8 20 19.5 23.4
-8 20 18 7.5 29.2
-8 -18 20 55.29 31.6
-20 -8 18 32.3 52.39
18 -20 -8 1.7 24.4
-18 10 -20 50.59 14.7
10 20 18 45.2 28.3
20 -18 -10 56.59 15.4
-18 20 10 91.49 21.6
-18 -10 20 94.59 48.4
18 20 -10 65.59 15
20 -10 18 63.59 23.8
-10 -20 18 50.29 31.8
-10 18 20 58.59 22.3
10 18 -20 52.79 15
10 -20 -18 97.89 32.3
18 10 20 69.19 24.7
10 20 18 77.29 21.8
18 -20 10 42.7 26.8
-20 18 -10 68.19 13.7
20 -10 18 42 40.2
18 -20 10 89.29 47.5
20 -18 -10 6.3 33.7
20 -18 -10 62.69 28
10 -18 20 35.2 31.8
18 -10 -20 65.59 13.7
-20 10 18 63.59 20.9
-10 20 -18 49.1 13.3
18 -10 20 43.9 25.5
18 -10 20 60.29 39.2
10 20 -18 55.69 14.9
-18 -20 10 30 46.2
-18 10 20 157.78 44.9
-10 -18 20 133.19 35
20 -18 10 67.49 33.2
-20 10 -18 51.49 14
-20 18 10 63.49 20.8
-20 -10 18 76.89 56.39
-10 18 -20 53.39 13.8
20 -10 -18 61.49 14.5
-18 20 -10 34.3 13.2
20 -18 10 175.28 50.29
18 -20 -10 72.99 35.3
20 18 -10 77.59 15.4
10 18 20 83.99 23
10 18 20 37.3 25
20 10 18 38 25.3
18 -20 -10 124.69 24.6
20 -18 10 87.29 29.7
10 -18 -20 93.29 33.1
10 -20 18 132.39 34.7
-18 20 12 61.49 19
-12 20 -18 70.39 13.3
-18 -12 20 68.29 47.4
12 -18 20 12.6 27.4
-20 18 -12 41.8 12.1
-18 12 -20 67.79 13.1
20 -18 -12 108.49 28
18 -12 -20 51.79 12.5
12 20 18 57.79 20.9
12 18 -20 42.6 13.2
-20 12 18 35.7 21.3
18 12 20 72.89 23.1
20 -12 18 40.6 37.4
20 12 -18 84.99 15.2
18 20 -12 36.9 11.7
18 -20 12 66.39 25.1
20 -12 18 99.09 24
-12 -20 18 65.49 34.5
20 -18 -12 48.3 14.9
20 -18 12 104.29 30
-18 -20 12 111.69 48.1
12 -18 -20 80.19 16
-18 20 -12 74.89 13.1
12 -20 18 47.7 28.5
18 -20 -12 79.19 18.1
20 -12 -18 51.29 11.6
12 18 20 57.49 21.5
20 18 -12 34.7 11.6
20 12 18 104.19 24.4
12 18 20 61.19 24.1
18 -12 20 71.79 34.9
-20 12 -18 84.89 13.4
-12 18 -20 79.69 13.9
-20 18 12 69.19 18.1
18 -12 20 120.89 27.7
20 -18 12 115.89 27.3
12 20 -18 63.39 13.2
18 12 -20 67.19 16.3
-12 -18 20 56.89 36.3
-20 -12 18 32.1 57.29
20 -18 -14 15.1 28.5
14 18 -20 -13.5 11.1
18 -20 14 46 25.3
20 -18 -14 -6.6 12.8
20 -14 18 55.19 34.6
14 -18 20 25.4 27.5
18 -14 -20 -13.2 9.7
18 20 -14 1.5 10.5
-18 -14 20 21.7 49.5
-14 -20 18 3.9 36.8
20 -14 18 14.2 26.9
-20 14 18 50.49 21
20 14 -18 7 12.6
-18 14 -20 1.5 10.8
-14 20 -18 24 10.9
-18 20 14 5.7 17.9
14 20 18 -34.2 20.4
-20 18 -14 10.8 10.8
18 14 20 6.5 22.2
-20 18 14 9.7 15.9
20 -18 14 3.9 28.6
-18 -20 14 95.19 51.09
-14 -18 20 22.4 37.6
18 -14 20 32 30.5
14 20 -18 16.6 10.8
18 14 -20 25.8 13.8
20 18 -14 7.4 10.7
14 18 20 40.3 22.3
-18 20 -14 22.6 10.2
14 18 20 -0.4 25.1
20 -14 -18 2.3 10.5
-14 18 -20 -12.4 10.3
20 14 18 2.3 25.8
-20 -14 18 22.2 62.69
14 -18 -20 1.9 12.7
18 -20 -14 -6.8 16.4
14 -20 18 -7.2 24.8
-20 14 -18 13.1 9.9
-16 -20 18 62.89 43.3
16 -18 20 48.4 28.3
-20 16 18 91.09 22.8
18 -16 -20 76.19 12
20 -16 18 45.8 31.8
18 -20 16 49.99 26.1
20 -18 -16 54.99 13.3
16 18 -20 64.49 12.7
18 20 -16 65.79 11.5
-18 -16 20 59.19 51.99
18 16 20 37.9 25.4
-20 18 -16 38.7 10.1
-18 16 -20 77.49 12
-18 20 16 78.59 19.3
20 16 -18 52.89 12.4
-16 20 -18 30.9 10.1
20 18 -16 41.4 11.3
16 -20 18 57.49 25
18 -20 -16 66.59 22.1
18 -16 20 69.09 28.7
18 16 -20 71.49 13.4
16 20 -18 59.59 11.4
-16 18 -20 55.89 11
16 -18 -20 55.09 13.4
-18 20 -16 58.19 10.4
-20 16 -18 66.39 11.6
-18 -20 16 38.4 55.39
-16 -18 20 125.59 44.2
20 -18 16 41 28.2
20 -16 -18 73.49 12
-20 18 16 60.69 19.5
18 -18 20 6.5 26.7
-18 18 -20 22.5 8.7
20 -18 -18 7 12.2
-18 20 -18 6.9 8.9
20 18 -18 8 10
18 -20 -18 37.2 24.4
18 -20 18 -6.3 27.5
18 20 -18 9.4 9.8
20 -18 18 -40.6 29
18 18 -20 16.4 11.3
18 -18 -20 -5.8 12.8
0 -20 20 488.05 61.59
-20 0 20 554.34 48.4
0 20 20 455.75 43.4
-20 20 0 458.55 45.6
20 -20 0 464.65 48.2
20 0 -20 554.24 30.9
-20 0 20 566.14 86.39
0 -20 -20 538.65 73.89
20 -20 0 466.55 56.59
0 20 20 548.35 49.3
0 20 -20 538.35 31.3
20 0 20 518.65 46
20 -2 -20 394.46 27.9
-20 2 20 354.46 45.3
2 20 20 388.06 40.3
-20 20 -2 401.36 34.5
20 -2 20 358.06 41.2
20 -20 -2 370.06 45.2
20 -20 2 424.56 48.6
-20 -2 20 345.27 43.3
-20 20 -2 350.76 44.9
-20 20 2 451.25 40.7
2 -20 20 395.66 56.89
20 20 -2 377.46 29.3
20 -20 -2 358.46 51.89
2 20 -20 394.46 29.4
20 2 -20 421.36 28.3
20 2 20 417.86 43.6
-20 2 20 462.15 63.09
-2 20 -20 396.66 27.1
20 -20 2 458.05 54.99
-2 20 20 360.36 42.9
2 20 20 436.56 45.7
2 -20 20 353.96 48.7
-20 -2 20 336.87 60.09
-2 20 20 357.46 41.2
-2 -20 20 358.66 42.9
2 -20 -20 471.45 52.09
20 -20 4 166.88 42.9
-20 20 4 107.09 21.9
-4 -20 20 189.68 36.8
20 20 -4 101.29 15.6
-20 20 -4 70.09 23.7
-20 4 20 178.28 55.59
4 -20 20 98.09 43.2
4 -20 -20 92.59 38.7
20 -20 -4 148.59 37
-4 20 20 80.89 23.8
-4 20 20 141.39 25.6
4 20 20 142.09 24.6
-20 20 -4 141.59 18.1
-4 20 -20 101.99 14.6
20 4 -20 145.79 18.4
20 -20 -4 109.19 27.1
20 -20 4 144.99 29.2
20 -4 20 229.38 58.49
20 -4 -20 150.38 21.1
20 4 20 83.39 24.9
-20 -4 20 77.49 55.29
-20 4 20 151.48 27.6
-20 4 -20 152.48 16.9
20 -4 20 150.98 25.7
4 20 20 147.79 27.4
4 20 -20 155.68 17.9
-20 -4 20 82.79 25.5
-20 6 -20 76.49 14.6
6 20 -20 24.6 13
-6 20 20 57.29 23
20 -20 -6 18 24.6
-20 20 6 89.99 20.6
6 -20 20 103.39 38.6
-20 -6 20 78.49 56.39
20 -20 6 51.89 26.4
20 -6 -20 56.39 13.2
20 -20 -6 106.69 26.8
-6 20 -20 35.2 11.6
20 -6 20 54.29 21.9
-6 -20 20 60.29 32.2
-20 6 20 153.78 64.59
-20 6 20 71.09 25.2
-6 20 20 2.1 20.8
6 20 20 80.99 24.3
20 -20 -6 27.3 34.7
20 -20 6 -13.5 45.4
6 20 20 12.6 20.3
20 20 -6 41.4 13.1
20 6 20 34.4 22.9
6 -20 -20 53.89 40.3
20 -6 20 67.69 48.5
-20 20 -6 65.19 14.6
-8 -20 20 144.29 34.8
-20 20 -8 101.29 14.7
-8 20 -20 96.39 14.4
8 20 -20 81.39 14.1
20 -20 8 51.59 27
20 -8 20 57.39 21.6
8 20 20 76.79 20.2
-20 20 8 91.29 20
20 -8 -20 50.69 12.1
8 20 20 72.59 23.9
20 -20 8 55.59 25.3
20 -8 20 101.89 44.3
20 8 20 102.79 24.4
8 -20 20 94.69 32.7
20 -20 -8 114.29 25.8
-8 20 20 109.49 27.8
20 -20 -8 95.89 18.7
-20 8 20 92.39 24.5
20 20 -8 72.39 13.8
-20 -8 20 110.39 56.89
-8 20 20 78.19 21.3
-20 8 -20 99.19 14.3
-10 20 -20 349.07 24.8
-20 10 -20 389.26 25.8
10 20 20 287.37 30.4
20 -20 10 453.15 39.8
-10 -20 20 385.26 51.39
20 -20 -10 307.87 31.8
20 -10 -20 336.47 23.6
-20 -10 20 280.87 59.59
-20 20 10 441.16 33
10 20 -20 323.57 24.8
20 20 -10 350.86 24.4
10 20 20 372.16 33.1
-20 10 20 429.66 65.29
20 -10 20 405.56 41.8
20 10 20 371.36 39.3
-20 20 -10 371.76 25.2
20 -10 20 412.16 64.09
20 -20 10 339.37 42.9
20 -20 -10 359.56 40.3
10 -20 20 438.36 51.29
20 -12 20 468.75 58.79
20 -20 12 380.36 45.8
-12 20 -20 440.56 25
20 -20 -12 479.85 41.4
20 12 20 501.55 41.6
20 20 -12 405.26 24.1
-20 20 -12 402.56 24.9
20 -12 -20 392.56 23.2
-20 20 12 365.46 31.9
20 -12 20 453.95 44.1
-20 12 -20 467.15 25.5
12 20 20 429.16 34.5
-20 -12 20 407.96 64.39
-12 -20 20 439.26 53.99
12 20 -20 421.46 25.5
12 -20 20 456.65 47.7
12 20 20 410.56 50.59
20 -20 -12 343.87 30.8
-20 20 -14 84.89 11.9
-20 20 14 75.69 17.3
20 -20 14 84.19 27.9
14 -20 20 78.39 27.9
20 14 20 84.49 25.5
20 -14 -20 70.79 11.1
20 -14 20 78.29 33.5
-20 14 -20 69.89 11.1
14 20 20 60.79 22.4
20 20 -14 91.09 12
-14 -20 20 52.29 39.7
14 20 -20 76.69 12.1
-14 20 -20 83.59 11.6
20 -20 -14 150.18 29
16 20 -20 0.1 10.3
-16 20 -20 0.3 8.9
-20 20 16 -6.6 17.3
-20 20 -16 12 9.1
20 -16 -20 3.1 10
20 -16 20 64.69 32.2
20 -20 16 -25.6 28.7
-20 16 -20 11.3 9.2
-16 -20 20 -51.09 49.5
20 20 -16 -12 9
-20 18 -20 97.29 11.1
-20 20 -18 86.89 10.9
18 -20 20 66.39 28
20 -18 20 22.9 35.8
20 -20 18 132.69 30.6
-18 20 -20 92.99 11.5
1 -1 -21 1445.46 58.49
1 -1 21 1543.75 97.29
1 -1 21 1235.38 104.29
-1 -1 21 1560.74 86.79
-1 1 21 1459.65 84.89
1 -1 21 1435.06 89.49
1 1 21 1503.25 96.39
1 21 -1 1446.56 64.59
-1 -1 21 1426.16 108.79
-1 21 1 1449.26 66.99
21 1 -1 1405.66 60.19
21 1 1 1518.85 62.39
1 21 1 1470.55 72.59
21 -1 -1 1442.66 59.79
-1 1 -21 1474.25 58.59
1 21 1 1466.45 66.79
1 21 -1 1460.55 72.89
-1 21 -1 1511.45 68.09
-1 1 21 1467.15 89.29
-1 21 -1 1314.77 73.99
21 -1 1 1485.75 60.79
1 1 21 1395.06 90.19
-1 -1 21 1457.95 95.99
1 21 -1 1466.85 66.99
1 1 -21 1511.25 59.49
1 1 21 1310.17 102.19
-1 21 1 1431.36 73.29
-1 -1 -21 1480.95 59.39
-1 1 21 1506.25 115.09
-1 -21 1 1470.95 83.59
-1 21 -3 385.66 43.9
21 -3 -1 469.35 33.4
-3 1 -21 505.85 34.5
-3 21 1 455.65 44.2
1 -3 21 498.95 70.79
3 1 21 392.16 45.7
3 -21 1 487.55 43.5
1 21 3 379.86 50.99
-1 3 21 519.25 69.29
-1 -3 -21 454.45 33.7
-1 3 21 334.87 58.79
21 -1 3 430.06 36.8
-1 21 -3 481.25 38.2
1 -3 21 357.26 54.69
3 21 -1 475.35 50.99
3 -1 -21 503.85 33.9
21 3 1 479.75 42.4
1 21 3 410.86 45.4
3 21 -1 409.46 42.3
3 1 21 486.05 60.29
-1 21 -3 491.35 52.59
3 21 -1 442.56 44
1 3 -21 435.56 34
-3 21 1 522.55 37.6
-1 3 21 479.15 66.19
1 -3 21 465.15 59.29
3 1 21 482.15 60.79
21 1 -3 451.35 37.1
-3 -1 21 545.95 72.29
-21 3 -1 468.75 41.4
-1 -21 3 395.86 62.59
-3 -1 21 335.27 52.09
1 -21 -3 467.75 47.9
21 -3 -1 521.75 42.7
-3 21 1 462.85 53.59
-3 -1 21 467.75 64.09
1 -3 -21 436.76 33.3
-1 21 3 492.25 46.4
21 1 3 482.55 40
3 -1 21 488.75 54.99
21 -1 -3 483.95 35.1
1 3 21 328.97 57.49
3 -1 21 509.65 57.19
-1 -3 21 469.75 63.89
-1 -3 21 491.55 62.99
1 21 -3 519.15 39.7
21 -3 1 371.86 42.7
-1 21 3 433.66 52.19
1 21 -3 492.35 50.29
1 3 21 320.37 42.3
3 -1 21 430.76 55.89
-3 1 21 446.96 66.09
3 1 -21 451.75 34.6
-1 3 -21 472.05 35.2
-3 1 21 457.05 64.19
-21 3 1 435.16 43.1
1 -21 3 443.86 42.3
-3 -1 -21 498.95 36.3
-3 21 -1 460.95 44
3 21 1 487.45 50.29
1 3 21 627.44 74.09
3 21 1 442.66 44.7
-3 1 21 492.15 73.69
-3 21 -1 470.65 56.19
21 -3 1 390.06 34.6
3 -21 -1 394.76 40.1
-3 21 -1 447.46 38.2
1 21 -3 445.66 44.9
21 3 -1 456.05 41.2
3 -3 21 166.78 50.09
3 -21 3 144.09 31.7
3 21 3 165.98 28
-21 3 -3 107.09 26.2
-3 3 -21 185.88 23.2
-3 3 21 139.79 38.2
21 3 3 128.29 26.8
21 3 3 182.18 30.7
3 -3 -21 142.19 20.3
3 3 21 213.18 52.19
-3 21 -3 164.48 34
-3 -3 -21 158.58 22
-3 21 3 131.89 27.2
3 21 -3 155.38 26.7
3 3 -21 174.28 21.6
-3 21 3 99.79 31.1
-3 -3 21 145.89 62.29
-3 3 21 128.39 55.09
3 21 3 154.28 30.9
-3 3 -21 181.28 24
3 -21 -3 151.28 23.8
-3 21 -3 172.38 25.4
21 -3 3 138.29 26.6
21 -3 3 143.19 20.7
21 3 -3 143.89 23.1
3 21 -3 161.98 29.4
-3 3 21 134.39 42.4
3 21 -3 141.49 22.8
-3 21 -3 160.08 28.1
3 -3 21 191.88 47.6
3 3 21 159.98 49.4
3 3 21 110.99 36.5
3 -21 3 119.59 29.4
-3 -3 21 200.08 42.7
21 -3 -3 215.18 28.1
3 -3 21 121.29 47.3
21 -3 -3 193.98 32.6
-1 -5 -21 183.08 24.3
-1 5 21 168.68 38.9
21 -1 5 206.78 26.9
-1 -21 5 105.79 40.3
1 5 -21 251.37 31.2
1 -5 21 192.78 50.99
5 1 21 157.98 49.2
-1 21 -5 202.78 29.1
1 -5 21 176.98 42.8
21 -5 -1 196.48 25.2
-5 1 -21 220.58 24.4
-5 -1 21 227.58 68.99
-21 5 -1 171.38 32.3
5 -21 1 164.58 35.7
5 1 21 143.19 35.8
-5 21 1 153.18 26.4
5 21 -1 129.79 25
5 21 -1 106.69 23.6
-1 21 -5 254.47 35.3
-1 5 21 208.68 46.9
-5 -1 21 185.98 39.7
-5 21 1 182.18 24.9
21 1 -5 151.98 20.7
5 21 -1 162.78 30.6
1 5 -21 193.98 21.8
5 1 21 233.08 62.79
-1 21 -5 222.28 30.3
-5 1 -21 209.68 25.4
-1 5 21 180.18 46.2
-21 5 -1 174.98 26.6
-5 21 1 204.28 35.9
1 21 5 208.58 31.2
21 5 1 194.78 32.7
1 21 5 185.08 32.3
21 -5 -1 125.79 18.4
1 -21 -5 224.68 29.2
5 -1 -21 219.88 29.4
5 1 -21 141.69 21.3
-21 5 1 200.18 27.5
5 -21 -1 202.78 26.3
-5 -1 -21 180.38 24.7
-5 21 -1 163.88 27.6
21 -5 1 182.08 26.6
-1 -5 21 176.38 39.6
5 21 1 187.08 28.9
-1 21 5 209.58 30.4
-5 21 -1 155.48 24.7
1 -5 -21 129.39 21.1
5 21 1 144.89 29
-21 5 1 157.78 29.2
1 5 21 195.08 35
21 -5 1 209.78 29.2
5 -1 21 154.38 48
1 5 21 116.99 40.1
21 1 5 176.08 26
-5 21 -1 211.48 38
-1 21 5 102.99 29.3
-1 -5 21 171.48 56.59
-5 1 21 200.28 64.19
1 21 -5 234.98 31.3
-5 1 21 254.17 46.1
1 21 -5 232.38 34.7
-1 5 -21 143.89 21.5
-21 1 -5 206.78 32.9
1 5 21 210.58 37
-1 5 -21 202.98 22.4
-5 1 21 237.48 46
21 -1 -5 206.08 23.1
1 -21 5 164.68 35.5
21 5 -1 200.28 29.7
1 21 -5 152.18 27.9
5 -1 21 229.38 42.6
5 -1 21 207.48 63.99
1 5 21 196.38 51.29
-3 5 21 73.19 39.6
21 5 3 69.49 30.2
-5 21 3 77.19 25.1
21 -5 -3 44.7 15.3
-5 -3 21 33.8 69.69
21 -3 5 8.1 28.9
3 5 -21 33.2 16.8
5 3 21 77.89 33.4
-3 21 -5 88.89 31.4
-3 21 -5 62.39 23.2
-21 5 -3 105.09 34
-3 5 21 39.9 35.2
-5 3 -21 81.49 18.1
5 21 -3 29.4 18.6
-5 3 -21 71.39 23.2
5 21 -3 52.09 20.8
3 21 5 67.59 26.3
-5 -3 21 41.5 35.4
-5 21 3 13.1 33.9
3 -5 21 22.8 43.7
-21 5 -3 16.4 23.7
5 3 21 52.09 33.5
21 -5 -3 63.29 21.9
5 3 21 41 48.3
-3 -5 -21 62.89 21.2
-3 21 -5 58.89 20
5 21 -3 59.49 24.8
21 -3 5 36.7 19
21 3 -5 31 21.2
3 -5 21 40.8 44.1
21 5 3 101.79 32.6
-5 21 3 15 21.4
5 -3 -21 49 19.6
5 3 21 23.8 54.89
3 21 5 32 27
21 -5 3 31 17.7
-5 21 -3 26.4 21.1
5 -21 -3 2.3 20.6
3 5 21 30 30.3
-3 21 5 67.59 25.2
3 5 21 24.7 44.7
-3 5 -21 62.99 18.7
3 5 21 80.09 48.1
-21 5 3 26 23.5
3 21 -5 45.2 18.6
21 3 5 37.6 27.6
21 5 -3 38.4 26.4
-21 3 -5 51.59 24.8
3 21 -5 55.39 23.5
21 3 5 38.2 25.9
-3 5 -21 24.1 21.2
-3 21 5 49 30
3 21 -5 39.4 26.3
-3 -5 21 79.39 56.69
-5 21 -3 -4.1 36.8
-5 3 21 73.49 37.6
3 5 21 36.7 31.4
21 -3 -5 52.19 17.5
3 -5 -21 61.39 19.4
5 3 -21 60.59 17.9
-3 -5 21 42.5 33.9
-5 3 21 12.8 37.6
5 -3 21 68.79 41
21 -5 3 19.3 22.2
-21 3 -5 148.19 39.4
5 -3 21 -39.2 57.29
5 21 3 58.29 22.1
3 -21 5 22.1 28.2
5 -3 21 36.5 40.9
-5 -3 -21 53.89 22.6
5 21 3 57.69 26.1
-5 21 -3 100.09 26.6
-5 21 -3 28.3 24.1
21 -5 -5 -3.2 14.8
5 -5 21 -35.4 64.99
5 -5 21 -9.4 40.6
-5 -5 21 76.69 65.89
-5 21 -5 -66.49 31.2
-5 -5 -21 22.6 22.1
-5 5 21 32.2 32.3
21 -5 5 -14.7 18
5 21 -5 0.5 21.8
-21 5 5 19 25.7
21 -5 5 35.4 24.1
5 -5 -21 27.9 18.2
5 -21 5 32.2 28.3
-5 5 -21 1.8 16
5 -21 -5 23.9 20.8
21 5 5 27.5 29.5
5 5 21 -31.5 52.59
5 21 -5 -1.2 16.9
21 5 5 -7.7 28.2
5 5 -21 7.5 17
-5 21 -5 20.5 22.6
5 5 21 75.59 45.6
5 -21 5 54.79 26.4
21 -5 -5 -20.6 22
5 5 21 2.3 27.7
5 21 -5 28.8 25.5
-21 5 -5 30.2 23
-5 21 5 -11.5 32.2
-5 21 -5 2.6 17
-5 21 -5 -16.8 23.6
5 21 5 -18.5 19.2
-5 -5 21 -3.5 33
-5 5 21 4.8 36.9
21 5 -5 -27.8 25.8
5 5 21 -30 27.8
5 -5 21 35.1 43.1
-5 21 5 31.6 21.3
5 21 5 3.6 25.6
-21 7 -1 49.99 29.5
21 -7 -1 42.6 20.4
1 -7 21 27.1 39
-7 21 1 74.39 23
1 7 -21 54.09 20.3
1 7 -21 44.6 19
-1 -21 7 56.99 42
7 21 -1 59.39 21.7
-7 -1 21 48.8 36.7
-1 7 21 74.09 40.6
21 -7 -1 36.7 16.8
-7 21 1 14.1 20.9
-7 21 1 59.59 39.4
-1 7 21 57.29 28.1
7 -21 1 43.7 21.9
-1 7 21 43.9 31.1
1 -7 21 57.69 47.1
-1 21 -7 39.2 17.5
21 -1 7 49.4 21.4
1 21 7 23.1 27
7 1 21 50.59 32.1
7 -21 1 56.79 26.3
7 -1 -21 16.6 17.8
21 1 -7 29.4 18.1
7 1 21 3.7 46.7
-7 1 -21 38.7 17.4
21 -1 7 41.5 20.7
-1 -7 -21 68.09 21.8
-21 7 -1 60.89 24.6
-1 21 -7 60.49 27.4
7 21 -1 83.49 21.4
7 21 -1 34.7 25.2
1 -21 -7 55.09 27.2
-1 21 -7 72.19 25.8
1 21 7 73.59 27.3
-7 -1 21 95.99 67.89
-1 -7 21 80.09 35.1
-7 1 21 -13.8 37.9
7 21 1 41.8 26.1
-1 21 7 35.8 26.6
-7 21 -1 50.19 23.9
21 -7 1 29.7 17.5
1 21 -7 10.5 23.5
-21 1 -7 103.89 27.4
1 7 21 20.3 28.5
21 -7 1 34.9 21.1
-7 21 -1 37.3 22.5
-1 7 -21 39.6 18.4
7 -21 -1 5.1 20.6
21 1 7 78.69 22.9
1 21 -7 50.69 16.3
1 -21 7 65.89 34.2
7 -1 21 53.99 33
-1 7 -21 43.9 20
-7 -1 -21 33 16.4
1 -7 -21 51.29 19.5
7 -1 21 90.49 47.1
-1 -7 21 44.5 54.49
-21 7 1 73.59 24.5
1 21 -7 72.19 24.4
7 1 -21 21.1 17.4
21 -1 -7 46.5 18
-7 1 21 51.99 36.6
-1 21 7 21.5 27.5
1 7 21 60.99 41.2
-21 7 1 43.7 27.6
21 1 7 47.8 21.6
1 7 21 24.3 30.5
7 21 1 29.1 21.7
-3 7 21 32.3 35.3
3 7 -21 3.6 18.6
-3 7 21 22.3 30
21 -7 -3 24.3 19.9
21 3 -7 24.8 21.3
3 -21 -7 -28.4 22
-7 -3 21 216.38 75.29
7 -3 -21 21.4 18.5
-7 -3 21 -6.3 32.4
-21 7 -3 10.7 24.2
-7 21 3 -28.3 37.1
3 21 7 10.8 26.1
-3 21 -7 37.6 27.9
21 -7 -3 10.5 15
3 -7 21 52.49 45.5
7 3 21 74.39 47.8
7 -21 3 26.8 24.3
21 -3 7 -10.9 18.5
-7 3 -21 -18.8 16.3
7 -21 3 -3.3 22.2
7 21 -3 12.3 25.3
3 21 7 32 28.9
-3 21 -7 -39.4 22.8
3 7 -21 -2.7 20.1
3 -7 21 -7.6 44.1
-3 21 -7 1.6 15.4
7 21 -3 9.3 17.6
-7 21 3 0.8 20
-3 7 21 11.2 31.2
7 3 21 20.7 30.4
-7 21 3 3 20.6
-21 7 -3 -11.5 30.5
-3 -7 -21 40.6 21.6
7 3 21 24.4 33
7 21 -3 4.4 19.3
7 -3 21 -56.49 39.2
3 7 21 -19.9 40
-7 3 21 -19.3 39.3
-3 -7 21 42.9 32.7
-3 7 -21 -10.6 17.7
21 3 7 26.2 22.4
7 -3 21 -9.9 32.3
3 7 21 -9.1 42.5
-21 7 3 6.9 23.6
3 21 -7 13.8 25.5
-21 3 -7 -30 23.9
7 -21 -3 11.8 21.3
-3 21 7 32.6 25
-7 21 -3 23.2 23
3 21 -7 -5.6 16.5
-21 7 3 -2.9 22.7
7 21 3 17.2 23.9
3 -21 7 -9.4 28.5
3 -7 -21 -20.7 18
-7 3 21 -10.6 32.1
7 21 3 -18.1 19.4
21 -7 3 31 20.4
21 3 7 -15.3 24.2
21 -7 3 17.4 16
3 7 21 48.6 30.3
-3 7 -21 -8.4 21.4
7 3 -21 25.2 17.8
3 7 21 -0.9 27.6
21 -3 -7 5.3 14.8
-3 -7 21 -77.29 56.29
3 21 -7 41.1 21.8
-7 21 -3 -7.3 19.3
-3 21 7 -9.1 29.7
-7 21 -3 11.1 20.9
-3 7 -21 28.1 38.5
-7 21 5 136.49 37.6
21 -5 7 39.3 28.3
7 -21 5 99.89 27.4
-5 21 -7 13.5 30.6
5 -7 21 116.09 43.7
7 5 21 97.09 34.2
21 -5 7 64.19 21.9
7 -5 -21 121.29 25.5
-21 5 7 110.69 26.5
21 -7 -5 113.79 19.4
-5 21 -7 118.79 19.9
7 -5 -21 64.69 20.8
5 21 7 42.4 22.1
-5 21 -7 105.29 27.2
-21 7 -5 97.39 35.3
21 5 -7 87.09 28.1
5 21 7 94.69 26.9
-7 -5 21 94.29 38
21 7 5 72.19 37.4
7 21 -5 109.59 23.1
-7 -5 21 92.59 76.49
5 -21 -7 86.49 24
7 -21 5 71.69 25.4
-5 7 21 67.19 34.1
7 5 21 45.6 51.59
-21 7 -5 93.89 25.6
-7 5 -21 126.39 21.9
7 5 21 82.49 31.6
-5 7 21 58.39 35.2
5 7 -21 40.2 19.2
7 21 -5 78.79 19.1
21 -7 -5 125.19 23.5
-7 21 5 86.09 26.4
-5 -7 -21 88.39 25.3
-5 7 21 60.19 35.6
7 21 -5 94.99 26.1
-7 5 21 86.09 32.2
5 7 21 86.49 32.7
-21 7 5 91.89 25.4
-5 -7 21 123.99 34.9
7 21 5 83.49 25.2
5 -21 7 45.2 25.7
-7 21 -5 77.19 25.8
7 -5 21 118.09 45.7
-5 7 -21 88.39 25.4
-7 21 -5 88.39 17.9
21 5 7 61.39 28.1
21 5 7 44.2 27.9
-5 21 7 85.19 32.9
5 21 -7 43.6 17.3
-5 -7 21 166.88 70.09
-5 7 -21 70.19 22.6
-21 7 5 106.49 25.1
7 21 5 105.89 28.7
-7 5 21 91.09 38
21 -7 5 106.89 25.9
-5 21 7 109.19 26.8
-7 21 -5 133.19 26.3
5 7 21 59.79 50.69
5 7 21 76.59 32.9
5 7 21 86.59 42.8
7 -5 21 105.49 37.3
7 -21 -5 82.89 22.4
5 21 -7 85.09 24.9
21 -7 5 55.79 19.3
21 7 -5 58.39 16.9
5 21 -7 71.89 23.4
21 -5 -7 70.29 16
-21 5 -7 100.99 26.9
5 -7 -21 36.7 21.4
7 5 -21 81.09 20.9
21 -5 -7 66.79 24.7
7 -7 -21 181.08 25.3
-7 21 -7 212.98 29.5
7 21 -7 280.07 41.9
-7 7 21 192.78 34.9
-21 7 -7 211.18 31.6
21 -7 7 247.58 35.1
7 7 21 296.87 51.69
-21 7 7 239.28 30
7 21 7 205.58 25.9
-7 21 -7 232.68 31.1
7 -21 7 380.16 49.3
21 -7 -7 209.98 27.8
7 -7 21 219.88 46.9
7 -21 7 239.78 32.4
-7 7 21 197.28 39.8
21 7 -7 281.17 31
7 7 21 195.88 34.6
21 7 7 241.38 37.7
7 -7 21 271.87 46
-7 7 -21 262.57 26.8
7 21 7 183.78 29.5
7 7 -21 226.78 26.7
-7 -7 21 149.69 35.9
-7 21 7 249.78 40.4
7 7 21 163.38 31.8
7 -7 -21 244.98 30.4
21 -7 -7 237.88 28.5
21 -7 7 217.08 32.2
-7 7 -21 226.48 26.2
-7 21 7 274.37 32.5
-7 21 -7 229.98 30.4
7 -21 -7 323.87 36.3
7 21 -7 281.17 38.2
-7 7 21 193.28 39.3
1 -9 21 452.95 68.99
-1 21 -9 458.35 34.3
21 -9 -1 460.15 37.8
-1 9 21 503.95 58.89
-1 21 -9 461.55 49.2
1 9 -21 462.45 41.9
21 -9 -1 451.65 34.5
-21 9 -1 464.15 50.39
9 1 21 435.66 64.29
9 21 -1 484.15 38.8
-9 21 1 498.35 45.2
9 1 21 477.95 55.99
-1 -21 9 494.55 78.79
21 1 -9 533.45 36
1 21 9 462.65 49.4
-9 21 1 528.45 42.1
9 -1 -21 433.06 36.9
-21 9 -1 484.25 44.8
9 1 21 647.24 88.89
9 -21 1 433.46 39.7
-1 9 21 593.84 66.69
9 -1 -21 378.86 44.1
-9 1 -21 450.35 35.6
1 9 -21 463.85 38.6
9 -21 1 427.66 46.8
1 21 9 514.35 51.19
-1 21 -9 433.86 46.2
9 21 -1 408.26 39.2
-1 -9 -21 474.75 42.1
1 -9 21 473.75 61.19
1 9 -21 439.86 43
-9 -1 21 537.65 63.79
9 21 -1 415.46 50.59
-1 9 21 450.25 53.79
1 -21 -9 518.25 43.6
21 -1 9 503.85 41.7
21 -1 9 491.15 40.7
1 -21 9 458.85 67.49
9 -1 21 536.95 84.09
-21 9 1 439.86 47.7
-9 21 -1 490.55 45.8
21 1 9 482.35 43.6
9 -21 -1 500.75 39.2
-9 1 21 552.74 64.39
21 -1 -9 505.85 33.8
-1 21 9 546.65 78.09
21 -9 1 521.55 36.3
1 -9 -21 507.25 41.7
9 21 1 500.15 45.1
-21 1 -9 444.96 49
-9 1 21 450.25 66.89
1 21 -9 444.56 46.5
-1 21 9 532.05 51.29
1 9 21 488.75 61.29
-1 9 -21 498.25 41.9
-1 -9 21 497.35 66.09
1 9 21 520.75 53.79
-9 21 -1 473.75 44.4
-1 -9 21 520.25 60.69
1 21 -9 482.15 47.3
1 21 -9 513.05 33.5
-1 9 -21 527.45 40
21 -9 1 499.55 39.9
-9 -1 -21 490.55 34.3
9 1 -21 541.25 47.1
-1 9 -21 505.05 39.9
21 1 9 487.85 41.4
9 -1 21 532.55 57.89
-21 9 1 408.76 43.6
-1 21 9 503.25 49.9
9 21 1 437.16 38.9
9 21 1 481.95 51.89
1 9 21 523.25 67.79
9 1 -21 449.26 36.9
21 -3 9 256.17 36.1
-3 -9 -21 198.08 26.9
-3 9 21 244.58 43
9 3 21 221.48 54.69
21 3 -9 212.78 24.5
21 -3 9 243.78 27.9
-3 9 21 173.68 34.5
3 -9 21 230.88 50.99
9 3 21 228.28 36.9
21 -9 -3 237.38 28.6
9 21 -3 235.58 36.1
3 9 -21 278.97 39
-3 21 -9 265.27 34.3
-9 21 3 192.58 26.8
9 21 -3 296.97 35.4
9 21 -3 265.47 33
3 21 9 241.88 32.8
-9 -3 21 251.37 43.2
3 21 9 289.07 44.2
9 -21 3 261.87 39.3
-3 21 -9 262.17 29.3
3 -21 -9 256.27 39
21 -9 -3 184.58 24.9
9 -3 -21 183.88 27.9
9 3 21 248.98 40.2
9 -3 -21 309.07 34.5
-21 9 -3 254.97 35.5
3 9 -21 229.58 32.6
3 -9 21 261.97 49.5
-3 21 -9 202.48 31.5
-21 9 -3 179.98 29.7
-9 3 -21 254.17 32.6
9 -21 3 230.28 29.9
-3 9 21 259.87 37.5
-9 21 3 192.78 27.2
21 -9 3 243.68 36.2
3 -21 9 281.47 39.7
-9 -3 -21 210.38 28.8
-9 21 -3 201.38 28.9
-3 9 -21 261.97 37.2
9 3 -21 200.28 24.2
-21 9 3 217.18 29.8
3 9 21 265.37 36.1
-9 21 -3 247.48 25.5
9 21 3 260.27 35.2
3 21 -9 175.68 28.8
-9 3 21 237.68 45.3
-21 3 -9 247.18 30.7
-3 21 9 209.28 40.1
9 21 3 234.18 34.4
21 3 9 275.97 31.8
-9 21 -3 218.58 29.2
9 -3 21 220.88 35
21 -9 3 168.28 21.9
3 21 -9 262.57 30.6
3 9 21 251.47 38.8
-3 21 9 174.98 33.4
-9 3 21 273.97 39.6
3 9 21 240.58 48
-3 9 -21 244.08 27.2
-3 21 9 187.58 30.4
21 3 9 219.18 28.6
9 -3 21 197.18 47.3
9 -21 -3 252.77 35.5
-3 -9 21 257.17 65.49
-3 -9 21 270.67 40.6
21 -3 -9 207.28 27.4
-21 9 3 303.57 44.7
3 -9 -21 220.28 26.4
21 9 -3 237.88 30
-3 9 -21 224.88 27.6
3 21 -9 248.08 29.6
9 3 -21 199.38 51.49
-5 21 -9 113.19 28.7
-9 -5 21 64.79 35.4
9 5 21 96.89 33.3
-21 9 -5 71.89 25.9
9 -5 -21 67.19 21.3
9 -21 5 67.59 27.3
5 21 9 23.4 23.9
21 -9 -5 41.1 15.3
-5 21 -9 102.39 33.3
9 -21 5 81.09 27.2
-5 9 21 73.59 31.3
5 21 9 52.39 27.5
5 -21 -9 81.59 23.8
9 5 21 20.9 29.3
-5 -9 -21 34.3 27.1
5 9 -21 63.09 21.2
9 21 -5 51.69 18.9
-9 21 5 72.49 26.5
-5 9 21 25.1 32.5
-9 5 -21 60.89 22
9 -5 -21 74.79 28.5
9 5 21 80.79 50.09
-21 9 -5 74.89 35
5 9 -21 115.79 25.5
9 21 -5 40.4 25.7
-5 9 21 86.59 38.7
21 -9 -5 49.3 21.9
-21 5 9 60.19 26.5
-5 21 -9 60.19 16.2
-9 21 5 56.09 25
21 -5 9 45.1 20.2
21 5 -9 62.69 24.5
5 -9 21 59.39 48.3
5 21 -9 82.19 19.5
5 21 -9 80.29 23.9
-5 21 9 70.29 28.1
21 -9 5 34.2 24.8
9 -21 -5 66.69 23.7
5 -9 -21 31.3 21.6
-5 9 -21 66.99 23.4
-21 9 5 64.59 26
5 9 21 74.79 27.3
-9 5 21 55.69 30.4
-5 9 -21 103.89 22.8
-5 21 9 54.29 35.3
9 -5 21 37 43.5
-9 21 -5 46.4 26.4
-5 -9 21 58.19 33.6
5 21 -9 93.09 26.1
21 5 9 50.79 28.1
9 5 -21 65.49 20.4
5 9 21 81.09 46.6
-9 21 -5 61.09 24.1
5 -9 -21 71.69 24.3
9 21 5 35.6 28.5
21 9 -5 68.59 18.8
9 21 5 84.59 22.8
5 9 21 52.99 29.3
-5 -9 21 90.89 75.09
21 -5 -9 59.89 16.3
-9 -5 -21 53.99 19.7
-21 5 -9 33.4 27.6
-21 9 5 58.59 24.4
-9 5 21 99.49 38
-9 21 -5 40.7 18.4
21 5 9 77.19 27.6
9 -5 21 72.09 33
-9 5 21 79.79 40.2
21 -9 5 56.49 20.1
5 -21 9 64.09 32.8
-5 21 9 33.6 31.8
9 21 -7 17.8 24.3
-7 21 -9 31.1 26.9
7 -21 -9 25.9 27.8
9 7 21 19.9 46.2
-7 9 21 -0.5 31.4
-9 21 7 6.6 23.1
-7 21 -9 16.3 15.9
-7 9 21 9.9 34.4
7 21 9 17.1 24.2
21 -7 9 20 19.4
21 -9 -7 3.6 15.2
-7 9 21 6.2 30.6
9 7 21 4.2 29.8
9 7 21 -15.4 28.9
21 9 7 68.59 53.49
-9 7 -21 -11 22.5
-9 -7 21 39.7 39.5
21 7 -9 14.8 15.1
7 -9 21 3.8 43.1
9 -7 -21 24.4 23.6
7 21 9 22.4 23.1
7 9 -21 15.8 20.9
9 -21 7 50.29 31
9 -7 -21 29.3 26.9
9 -21 7 -11.5 24.8
21 -7 9 77.99 32.8
-21 7 9 13.7 24.2
-7 21 -9 44.4 31.9
7 -21 -9 -1.3 22.5
9 21 -7 18.7 15.2
-9 7 -21 -11.1 21.1
7 9 -21 -33.1 23.4
21 -9 -7 -5 22.9
-21 9 -7 -17.2 26.3
-21 9 7 32.3 30.1
21 -9 7 30.9 19.9
-21 7 -9 -11 26.1
-7 21 9 51.89 35.6
21 9 -7 2.1 15.7
-9 7 21 33.8 39.4
21 -7 -9 4.7 25.3
21 -7 -9 20.7 15
7 -21 9 62.19 29.8
7 -21 9 53.69 38.6
-9 7 21 15.6 30.5
-9 21 -7 2.8 16.4
7 9 21 23.4 29
-9 21 -7 28.4 30.1
9 7 -21 -0.9 20.6
-21 9 7 22.6 23
9 21 7 11.4 20.6
9 -7 21 -13.9 40
7 -9 -21 -31.1 20.6
9 -21 -7 -4.5 22.5
7 21 -9 13.1 15.5
21 -9 7 13.9 24.8
21 7 9 18.1 31.3
-7 21 9 46.3 25.4
-7 9 -21 43.9 24.5
7 -9 -21 23.4 25.4
-7 9 -21 38.3 19.7
-9 7 21 12.1 33.8
7 9 21 -0.9 25.9
9 21 7 7 23.7
-7 -9 21 41.5 34
7 21 -9 32.5 22
-9 21 -7 -22.9 25.1
9 -7 21 6.5 34.5
-9 9 21 565.84 66.59
-9 9 21 521.15 54.69
21 -9 9 620.64 52.99
9 -9 21 517.85 60.29
9 -21 -9 526.65 44
9 9 -21 552.34 48.4
9 21 9 508.25 49.7
9 9 21 506.65 56.49
-9 9 -21 521.85 39.2
9 9 21 483.95 56.99
-21 9 -9 560.04 52.89
-9 9 -21 586.84 45
-9 9 21 516.95 62.39
-9 21 9 514.95 47.9
21 -9 -9 546.05 34.2
9 -21 -9 471.75 53.09
-9 -21 9 589.34 49
-21 9 9 658.33 47.2
-9 -9 21 497.75 63.09
-9 21 -9 524.55 34.3
9 9 -21 508.05 39.8
9 -21 9 489.75 50.39
9 -9 21 503.45 53.39
-9 21 -9 467.45 58.09
9 21 -9 522.45 36.2
21 9 9 576.94 67.29
9 21 -9 563.84 47.5
21 9 -9 581.94 36.7
-9 21 -9 561.34 52.29
21 -9 9 511.05 41
9 -21 9 538.75 59.89
21 -9 -9 470.05 44.4
9 -9 -21 573.94 47.4
9 -9 -21 502.05 45.4
11 -1 -21 850.91 48.7
11 21 -1 825.22 59.59
-11 21 1 835.42 53.29
11 1 21 886.51 61.69
-1 21 -11 930.41 58.69
-1 11 21 911.81 74.99
-1 11 21 844.62 59.09
1 21 11 833.02 58.89
-1 -11 -21 840.42 53.89
-21 11 -1 774.22 56.19
11 -21 1 864.71 49.4
11 1 21 788.52 93.99
-11 21 1 841.02 54.29
1 21 11 844.42 77.09
11 -21 1 901.71 56.39
1 -21 -11 796.62 53.59
1 -11 21 967.4 100.19
21 -11 -1 941.91 45.9
1 -11 21 902.71 74.89
1 21 11 907.01 59.39
-11 -1 21 925.01 74.59
21 -1 11 918.11 50.09
-21 11 -1 972.4 61.29
1 11 -21 836.32 48.2
11 21 -1 930.51 47.3
-1 11 21 817.32 66.29
-11 1 -21 903.31 48.6
11 -1 -21 764.62 56.19
-1 21 -11 900.01 43.1
21 -11 -1 835.62 49.1
11 1 21 665.63 80.19
-1 -21 11 949.21 95.69
-1 21 -11 825.02 58.99
21 -1 11 905.01 52.89
21 1 -11 925.31 44.3
1 11 -21 800.32 49
21 -1 -11 904.51 43.1
11 -1 21 950.8 97.99
21 -11 1 940.31 49.7
21 -11 1 918.51 46.5
-11 21 -1 911.31 54.49
11 21 1 889.21 51.39
21 1 11 855.11 52.79
-11 21 -1 867.41 53.49
1 11 21 941.11 60.69
-1 11 -21 934.31 53.99
-21 1 -11 886.31 57.89
-1 11 -21 934.51 46.7
-1 21 11 895.71 59.19
-1 21 11 1019.6 61.99
-21 11 1 888.21 57.69
-1 11 -21 877.81 51.59
21 1 11 841.22 51.09
11 21 1 909.41 58.09
1 -11 -21 881.11 53.49
1 11 21 849.32 76.59
1 11 21 912.01 68.49
1 21 -11 876.41 42.7
11 1 -21 891.11 48.3
-11 1 21 884.31 75.79
-1 -11 21 657.83 101.59
1 -21 11 957.7 77.49
-1 21 11 965.6 76.99
-21 11 1 840.32 56.69
-1 -11 21 940.21 71.59
-11 -1 -21 886.51 48.5
11 -21 -1 856.91 49.3
1 21 -11 889.01 58.19
1 -11 -21 855.91 52.29
11 -1 21 870.61 61.49
-3 21 -11 622.74 53.99
-3 21 -11 628.94 54.89
21 -11 -3 610.44 42.4
11 -21 3 624.44 50.29
11 -3 -21 579.04 43.7
3 11 -21 555.74 42.2
3 21 11 545.65 51.69
21 3 -11 634.74 40.2
21 -3 11 606.24 44.1
11 3 21 588.44 71.09
-3 11 21 747.83 67.59
-21 11 -3 556.74 59.49
-11 21 3 602.54 47.7
-3 -11 -21 551.14 51.99
-3 11 21 467.65 54.69
-11 3 -21 589.44 41.6
3 21 11 619.64 51.59
21 -11 -3 607.34 37.5
-3 11 21 550.14 61.89
-11 21 3 600.14 48.9
-3 -21 11 599.54 51.09
11 21 -3 609.64 40.2
-11 -3 21 574.14 70.69
11 3 21 708.83 57.39
-21 11 -3 603.74 51.19
11 3 21 529.25 63.29
11 -21 3 567.34 46.1
11 21 -3 616.24 53.89
-3 21 -11 592.64 37
21 -3 11 638.84 42.8
3 -11 21 661.83 86.49
11 -3 -21 579.54 48.4
3 -11 21 667.23 76.69
3 11 -21 584.24 43.3
3 -21 -11 600.84 47.9
-3 21 11 657.73 57.19
11 3 -21 562.44 41.6
-21 3 -11 543.65 51.89
3 11 21 577.54 53.59
11 21 3 616.24 51.89
3 11 21 653.53 61.79
-11 21 -3 560.14 41.1
-3 11 -21 509.15 48
-11 3 21 602.74 70.39
21 -3 -11 607.34 35.6
-11 3 21 533.05 65.29
-3 -11 21 610.34 64.69
21 -11 3 625.24 40.8
-11 21 -3 637.44 48.3
-11 21 -3 559.34 48.1
21 -11 3 632.04 45.3
3 -11 -21 633.44 46.7
-21 11 3 561.14 48.9
3 21 -11 587.54 49.4
3 11 21 644.74 69.09
21 3 11 585.64 50.09
-3 21 11 555.24 54.39
-3 11 -21 554.64 41.5
-11 -3 -21 552.34 40.7
21 3 11 559.24 46.4
3 -21 11 596.14 63.59
11 -3 21 556.64 62.19
-3 -11 21 616.64 79.49
11 -21 -3 625.54 44.8
-3 11 -21 488.45 50.49
3 21 -11 671.33 48.3
11 -3 21 589.34 55.79
3 21 -11 561.64 36.3
-21 11 3 471.05 48.4
-3 21 11 610.94 60.39
21 11 -3 596.84 37.3
3 -11 -21 627.24 44.1
5 -21 -11 320.97 44
21 5 -11 350.26 40.9
-11 5 -21 404.26 42.7
-11 5 -21 371.26 39.2
-5 -21 11 339.27 44
-11 21 5 323.77 44.1
-11 -5 21 340.57 46.8
21 -11 -5 360.76 38.8
5 11 -21 358.16 37
5 11 -21 350.06 39
-5 21 -11 341.07 36
-11 21 5 381.76 43.3
-5 -11 -21 544.15 55.79
-21 11 -5 302.77 36.1
21 -5 11 304.47 37.2
5 -21 -11 401.06 43.6
11 5 21 386.46 54.09
11 21 -5 317.67 44.8
11 5 21 301.17 41.9
5 21 11 327.77 44.3
5 -11 21 374.46 54.99
11 -21 5 404.36 44.7
11 21 -5 331.07 32
11 -21 5 334.77 45.3
11 5 21 308.87 55.49
-21 11 -5 398.16 58.99
21 -11 -5 318.07 30.9
11 -5 -21 393.86 46.7
-5 21 -11 327.47 29.5
21 -5 11 378.16 37.9
-5 11 21 398.46 53.89
5 21 11 345.57 35.6
-21 5 11 314.47 42.7
11 -5 -21 335.97 40.4
-5 11 21 428.06 61.29
-5 11 21 438.66 51.89
-5 -11 21 405.26 84.39
-5 11 -21 340.97 34.9
-21 11 5 336.37 42.9
-21 5 -11 320.17 36.5
-11 21 -5 392.66 46.5
21 5 11 357.36 35.9
5 21 -11 348.07 32.8
21 11 -5 325.27 31.1
5 -11 -21 305.77 40.1
-11 21 -5 329.17 32.3
-11 5 21 395.76 55.09
11 -5 21 376.46 52.89
-21 11 5 352.96 47.2
-11 5 21 380.26 50.89
11 -21 -5 406.46 39
11 -5 21 256.77 49.1
5 11 21 408.26 54.99
5 11 21 327.27 49.99
5 -11 -21 368.36 42.4
-5 21 11 444.46 56.19
11 5 -21 310.37 37.1
-11 5 21 430.66 48.4
-11 -5 -21 300.57 37.9
-5 21 11 338.27 37.3
5 21 -11 360.86 42.7
5 -21 11 357.46 56.79
21 5 11 382.96 48.1
11 -21 -5 289.27 39.6
21 -11 5 273.67 41.6
5 -21 11 304.57 38
-5 11 -21 348.37 44.2
21 -5 -11 382.86 29.6
-11 21 -5 316.37 45.7
11 21 5 330.17 35.4
-5 21 11 413.56 47
21 -11 5 338.77 36.6
-5 -11 21 422.26 58.49
-11 21 7 331.17 42.1
7 -21 -11 317.47 32.2
-7 11 21 227.38 34
7 21 11 261.77 34.8
-7 11 21 260.57 37.3
21 -7 11 272.47 35.7
21 -7 11 348.87 36.8
-11 7 -21 349.96 35.4
11 -7 -21 315.67 41.3
-11 -7 21 231.28 42.5
11 7 21 305.77 40.3
-7 21 -11 374.86 53.89
-7 -21 11 311.87 43.7
7 -11 21 317.37 48.8
11 -21 7 330.57 47
11 21 -7 329.97 44.2
-7 11 21 258.07 44.9
-21 11 -7 297.77 35.3
21 -11 -7 266.47 29.2
21 7 -11 285.37 30.9
7 -21 -11 233.18 31.9
-7 21 -11 294.07 28.8
-21 7 11 225.38 29
-11 7 -21 278.87 33.1
11 -21 7 312.37 38.1
11 7 21 298.77 39.6
11 21 -7 309.17 32.3
21 -11 -7 335.67 41
7 21 11 366.86 44.4
11 -7 -21 286.17 43.6
7 11 -21 281.27 37
7 11 -21 281.27 37.4
7 11 21 265.17 37.1
11 -21 -7 314.37 40.2
11 -7 21 253.07 36.3
11 21 7 338.97 46
7 11 21 295.57 35.7
7 -21 11 203.38 33.5
11 -7 21 292.97 48.7
-11 21 -7 280.77 35.7
-7 21 11 327.87 39.2
-11 21 -7 294.07 30.4
7 -21 11 321.27 41.4
-7 11 -21 347.67 32.6
-21 7 -11 257.27 36.3
-11 7 21 370.66 51.49
-11 7 21 322.77 42.2
21 -7 -11 268.27 33.9
11 -21 -7 308.77 32.5
7 -11 -21 299.47 32.6
21 -11 7 290.87 35.6
21 11 -7 321.07 30
21 7 11 361.46 53.89
7 21 -11 220.28 29.8
-7 -11 21 257.67 45
7 21 -11 297.37 30.1
-11 21 -7 202.58 30.8
21 -7 -11 289.67 28.1
-7 11 -21 202.68 31
21 -11 7 309.17 53.09
-11 7 21 237.98 44
-11 -7 -21 365.96 41.5
-11 -21 7 297.27 44.1
-21 11 7 277.27 41.6
7 -11 -21 363.46 42.1
21 -11 7 371.86 46.7
-21 11 7 330.37 37.5
-7 21 11 281.17 38.3
-7 21 11 262.47 32.7
11 7 -21 353.16 37.5
11 -9 -21 1019.2 47.1
11 -21 9 955.9 70.89
-9 21 -11 941.81 72.19
9 -21 -11 978.7 56.49
-21 9 11 985.4 55.49
-9 -21 11 1020.4 62.19
9 11 -21 927.81 51.79
21 -11 -9 950.7 54.59
11 9 21 1030.6 66.59
-11 -9 21 1066.19 77.09
9 -11 21 1071.39 82.99
11 -21 9 998.3 59.59
9 21 11 1001.2 57.29
21 -11 -9 959.9 44.8
-11 9 -21 1002.9 48.4
-11 9 -21 959.9 58.69
21 -9 11 1056.09 102.59
21 -9 11 940.21 50.69
-9 11 21 978.5 72.29
9 -21 -11 946.91 63.09
-21 11 -9 854.41 63.09
-11 21 9 1031.1 57.09
-9 11 21 1014.2 64.59
-9 21 -11 924.41 45
21 -9 11 941.61 50.69
21 9 -11 979.2 46.6
11 -9 -21 1056.09 59.39
11 9 21 909.31 65.39
-9 21 -11 1010.7 92.79
-9 11 21 1032.6 68.89
11 -9 -21 894.01 56.49
9 11 -21 921.91 53.19
11 21 -9 948.01 47
11 21 -9 947.41 56.89
-11 9 21 838.72 74.99
11 9 -21 866.51 52.39
11 -9 21 957.4 81.49
21 11 -9 929.21 45.5
11 -9 21 983.6 75.69
21 -9 -11 882.31 54.79
21 9 11 1032.1 69.09
11 -21 -9 841.92 65.29
-11 21 -9 971.2 66.69
11 21 9 947.51 57.29
-9 21 11 1133.39 94.79
-9 11 -21 1049.7 60.79
-11 -21 9 894.81 59.59
9 -21 11 1021 63.69
-21 9 -11 870.31 63.49
-11 9 21 960.6 60.89
9 21 -11 1004.5 46.7
-9 21 11 925.51 56.99
21 -11 9 941.91 51.29
9 -11 -21 927.41 57.79
-11 21 -9 942.41 45.3
-11 21 -9 801.32 61.19
9 21 -11 1041 57.19
-11 9 21 1073.19 73.49
11 -21 -9 918.11 54.49
21 -11 9 1081.29 87.29
9 -21 11 918.01 77.99
9 11 21 987.4 62.59
-9 11 -21 925.31 46.2
21 -9 -11 947.01 43.8
-21 11 9 957.1 55.69
9 11 21 953 65.09
9 -11 -21 921.71 57.89
-11 -9 -21 937.91 59.09
11 9 -21 967.5 52.29
21 -11 9 1032.8 63.99
-9 -11 21 937.91 72.09
11 -21 11 1491.45 72.99
-11 -11 21 1528.35 84.69
11 -21 -11 1318.77 67.69
11 -11 -21 1587.54 100.59
-11 -21 11 1455.65 72.99
-11 11 -21 1466.55 59.09
11 21 -11 1498.95 59.69
21 -11 -11 1370.06 67.99
21 -11 11 1523.95 63.79
-11 21 11 1552.94 68.69
11 21 -11 1425.76 66.79
21 -11 11 1383.86 96.69
11 11 -21 1350.76 61.09
11 -11 -21 1289.37 68.19
11 11 21 1517.85 73.39
-11 11 -21 1547.35 99.39
11 21 11 1477.95 67.79
11 -11 -21 1501.25 58.59
11 11 21 1491.45 73.29
-11 11 21 1474.65 81.69
-11 11 21 1528.35 72.59
-11 11 21 1509.65 86.79
11 -11 21 1528.85 90.89
21 -11 -11 1494.35 57.59
-21 11 11 1406.86 65.79
-11 21 -11 1488.75 58.19
11 -21 11 1203.38 88.79
21 11 -11 1425.56 58.49
21 11 11 1469.05 79.89
21 -11 11 1451.05 63.29
-13 -1 21 546.65 68.09
13 -21 1 548.05 43.8
1 21 13 459.25 52.39
-1 -13 -21 509.35 46.3
13 1 21 448.56 60.89
-21 13 -1 542.05 51.09
-21 13 -1 437.96 49.7
-1 -21 13 594.84 63.69
13 -21 1 510.55 47.8
13 21 -1 592.34 40
-1 13 21 557.34 58.29
1 -21 -13 450.55 48
21 -1 13 462.25 45.6
1 -21 -13 593.44 48.8
-1 -21 13 510.85 50.99
-13 21 1 523.55 47.8
21 -1 13 526.45 43
13 -1 -21 533.85 44.8
1 13 -21 537.85 47.9
21 -13 -1 584.14 37.8
1 21 13 471.85 67.59
1 21 13 518.15 51.59
13 21 -1 571.64 56.09
1 13 -21 536.45 37.9
-13 21 1 460.55 46.8
-1 13 21 502.65 51.19
-1 13 21 533.75 57.69
-1 -13 -21 521.65 50.59
-1 21 -13 518.45 57.29
13 -1 -21 559.44 35
21 1 -13 509.45 35.1
21 -13 -1 578.74 43.5
-1 21 -13 507.85 33.6
1 -13 21 474.15 61.29
13 1 21 578.34 53.69
-13 1 -21 436.56 41.2
13 -21 -1 487.65 48.7
-21 13 1 553.54 49.1
-13 1 21 500.05 72.49
1 -13 -21 502.45 46.5
21 -1 -13 555.14 34.6
21 -13 1 568.44 74.39
-1 13 -21 565.44 53.39
1 21 -13 532.55 35.1
-1 -21 -13 512.55 49.99
13 21 1 570.94 52.89
13 1 -21 580.84 43.7
21 -13 1 462.35 44
-1 13 -21 493.35 37.5
21 -13 1 592.74 38.4
1 21 -13 582.54 49
21 13 -1 575.94 36
-21 13 1 629.04 52.99
13 -1 21 520.25 63.39
-1 -13 21 635.74 70.99
-13 21 -1 551.54 48.2
1 -13 -21 534.45 49.9
21 1 13 503.05 43
-1 21 13 483.15 56.39
-1 21 13 501.35 51.49
1 13 21 619.24 51.99
21 1 13 562.14 45.3
-21 1 -13 657.13 57.99
-1 -13 21 542.35 61.89
-13 21 -1 512.55 50.49
1 -21 13 491.05 53.29
13 -21 -1 432.26 42.9
-13 -1 -21 519.85 44.2
13 21 1 532.65 42.5
1 13 21 552.14 56.69
1 13 21 563.84 62.29
-1 21 13 579.64 63.09
13 -1 21 594.14 52.89
1 -21 13 602.04 53.09
13 1 -21 541.55 34.6
-21 13 -3 229.38 32.7
3 -13 21 231.78 50.99
13 3 21 148.99 30.4
13 -3 -21 216.68 29.9
-21 3 13 152.98 26.4
-3 21 -13 185.88 21.2
-13 21 3 187.78 29.3
-3 -21 13 183.48 30.6
13 21 -3 154.98 30
-13 21 3 208.68 30.4
-3 13 21 205.38 35.2
13 3 21 176.98 57.29
3 -13 21 204.68 45
-3 -13 -21 179.08 29.5
13 -3 -21 153.98 34.2
3 13 -21 178.18 26.4
-13 3 -21 173.18 27.9
3 21 13 136.29 27.6
-3 13 21 234.18 41
21 -3 13 231.18 29.2
21 3 -13 157.08 21.2
21 -13 -3 189.58 22.2
-21 13 -3 185.08 33.2
3 -21 -13 133.39 28.7
13 -21 3 228.18 31.6
-3 13 21 206.38 35.7
13 -3 -21 140.29 19.3
-13 -3 21 109.39 37.1
13 21 -3 196.78 23.4
13 -21 3 128.59 27.6
3 21 13 211.48 41.7
21 -3 13 133.29 22.9
-3 -13 -21 223.78 35.1
21 -13 -3 212.28 29.5
3 -21 -13 198.18 32
3 13 -21 189.48 23.3
-13 21 -3 215.68 33.2
13 3 -21 142.59 25.9
3 -21 13 209.58 42.6
-13 3 21 207.88 36.5
-13 3 21 206.48 44.5
-3 21 13 196.38 36.2
3 13 21 151.38 30.3
3 -13 -21 181.78 29.6
-3 13 -21 157.68 20.7
21 -13 3 180.38 30
21 -13 3 213.88 45.3
-3 -13 21 214.48 39.2
-3 21 13 226.38 34.7
-3 -21 -13 207.78 33
-13 21 -3 285.47 42.5
3 13 21 210.78 34.1
3 -13 -21 159.28 30.5
13 21 3 203.78 29.8
-13 21 -3 207.18 22.9
21 -13 3 206.88 25.9
3 -21 13 255.77 36.4
21 13 -3 199.78 29.2
13 3 -21 161.98 21
-21 3 -13 182.18 34.6
-13 3 21 205.58 44.2
-3 -13 21 188.38 70.19
21 3 13 187.08 29
21 -3 -13 216.58 27.1
3 21 -13 186.48 27.1
13 -3 21 140.99 29.4
13 -3 21 139.29 49.3
3 21 -13 183.18 29.6
13 -21 -3 221.68 29.9
-3 21 13 233.78 34.3
21 3 13 167.88 26.2
-13 -3 -21 171.48 27.5
-21 13 3 191.18 29.5
-21 13 3 101.29 30
5 -21 -13 65.59 28.3
-21 5 13 41.8 22.8
-21 13 -5 52.79 30.1
-5 13 21 49.1 28.3
13 -5 -21 65.39 27.6
-5 13 21 74.39 35.1
13 21 -5 49.2 16
21 -13 -5 57.49 17.6
13 5 21 64.49 52.29
5 -21 -13 84.19 27.6
5 21 13 -3.3 57.49
-13 5 -21 78.39 25.9
-13 21 5 64.69 29.2
5 13 -21 38 24.3
21 5 -13 83.29 22.1
-5 -21 13 97.89 31.6
-5 13 21 66.29 32.7
13 -21 5 55.79 30.3
21 -13 -5 80.39 24.4
-5 21 -13 64.09 14.8
-21 13 -5 46.4 33.4
21 -5 13 77.69 21.2
13 21 -5 46.6 24.7
5 21 13 90.19 26.5
21 -5 13 49 22.2
5 13 -21 64.99 19.7
-13 -5 21 98.69 39.2
-13 5 -21 50.39 22
13 -21 5 32.3 24.2
13 -5 -21 72.39 30.8
13 5 21 39.8 28.9
-13 21 5 34.7 23.4
13 -5 -21 71.79 17.8
5 -13 21 94.89 44
-13 5 21 65.49 29.9
5 -13 -21 58.09 27.1
-13 21 -5 38.5 16.2
13 -21 -5 69.19 27.3
13 21 5 36.4 26.5
-13 5 21 55.09 41.1
5 21 -13 92.19 26.5
21 -13 5 22.1 43.3
21 5 13 20.7 25.2
21 -5 -13 79.79 17.4
5 -13 -21 17.2 23.6
21 5 13 64.79 25
-5 13 -21 57.39 17.7
13 -5 21 46.3 25.8
-13 5 21 71.89 41.2
-5 13 -21 54.69 33
-13 21 -5 22.3 29.4
13 5 -21 42.5 18.8
5 -21 13 95.89 35.5
13 -5 21 85.49 47.6
-5 21 13 20.8 29.3
5 13 21 56.39 26.4
5 13 21 62.99 29.2
-13 21 -5 47.6 24.6
-13 -21 5 6.1 29.8
21 13 -5 96.19 19
-21 5 -13 31.7 31.8
5 -21 13 51.79 31.8
13 5 -21 82.09 25.8
21 -13 5 33.8 19.3
-5 21 13 59.69 29.2
-5 21 13 52.89 28
5 21 -13 66.19 18
-13 -5 -21 27.9 28.9
-21 13 5 37.7 30.9
-21 13 5 57.09 24.6
-5 -13 21 45.8 33.7
-5 -21 -13 17.7 33.2
21 -13 5 69.89 28.7
21 -13 -7 25.8 25.8
21 -7 13 61.99 20.6
-13 7 -21 10.4 17.7
-21 7 13 71.99 22.4
13 21 -7 75.69 26.4
7 -13 21 57.99 39.8
7 -21 -13 75.59 28.5
21 -13 -7 24.1 14.3
13 -7 -21 89.29 31.9
7 -21 -13 53.19 31.9
7 13 -21 42.5 23.2
-21 13 -7 -34.8 31.7
13 -7 -21 89.69 32.1
21 -7 13 55.49 23.4
-7 21 -13 52.79 15.8
7 21 13 64.49 24.1
-7 -21 13 98.49 31.1
13 7 21 38.4 36.6
13 -7 -21 56.49 17.9
13 7 21 59.79 27.8
13 -21 7 24.8 26.2
-7 13 21 29.4 29.2
13 21 -7 30.2 15.9
-13 21 7 48.5 22.7
-13 7 -21 47 28.2
13 -21 7 74.39 34.7
-7 13 21 54.79 29.6
7 13 -21 33 17.3
-7 13 21 41.9 38.8
-13 -7 21 42.7 36.8
21 7 -13 34.4 17.6
-7 13 -21 96.29 35.5
21 7 13 75.99 29.2
21 -13 7 4.3 29.5
21 -13 7 24.4 19.7
7 -21 13 87.19 49.6
-21 7 -13 0.7 34.3
-13 7 21 40.4 26.1
7 -13 -21 39.4 25.7
13 21 7 47.6 26.4
7 -13 -21 53.39 27.5
-13 7 21 98.29 41.8
-13 -21 7 41.4 31.5
-13 21 -7 55.59 16.7
-13 -7 -21 66.79 31.4
-21 13 7 21.5 22.2
-13 21 -7 50.69 26.5
-7 21 13 69.39 30.6
-13 21 -7 56.49 32.9
13 -7 21 80.29 26.4
13 -7 21 30.5 41.4
-7 13 -21 65.69 17.4
7 13 21 53.19 28.7
-7 21 13 60.99 28.8
7 21 -13 42.2 15
7 21 -13 30.1 24
13 7 -21 46.6 23.5
-13 7 21 55.99 42.2
21 -13 7 44.6 41.9
-7 21 13 54.89 26.6
21 13 -7 24.1 14.4
13 7 -21 26.2 19.1
13 -21 -7 27.2 24.5
-7 -21 -13 -9.5 37.6
21 -7 -13 52.59 16.1
-7 -13 21 60.29 35.8
7 13 21 76.29 26.2
7 -21 13 89.49 33.9
9 -21 -13 443.86 46.2
13 -9 -21 349.17 50.39
-13 21 9 394.96 41.4
-9 13 21 400.16 60.09
21 9 -13 403.96 32.4
13 21 -9 339.47 41.1
-13 -9 21 288.57 44.5
21 -9 13 373.16 39.5
21 -13 -9 403.76 46.5
21 -9 13 279.17 53.99
13 21 -9 428.96 32.1
21 -9 13 382.36 37.2
13 -21 9 378.76 47.9
13 -9 -21 401.36 30
13 -21 9 374.56 47.1
9 -13 21 505.15 67.89
-13 9 -21 386.96 32.3
13 9 21 335.87 40.7
-9 -21 13 327.87 46.6
-21 9 13 366.26 40.9
21 -13 -9 383.36 30.5
9 13 -21 392.86 36.8
-9 21 -13 408.36 29.8
13 9 21 369.76 51.49
-9 13 21 355.46 48.5
9 21 13 410.66 44.7
-9 13 21 408.86 57.59
-13 9 21 398.86 48
13 -9 21 295.17 38
9 13 21 356.66 50.89
-21 13 9 406.06 40.7
9 13 21 443.56 48.5
-13 21 -9 384.46 29.9
13 21 9 347.47 46.8
-13 21 -9 377.66 37.8
21 -9 -13 373.76 29
-9 -13 21 438.56 61.69
21 -13 9 380.96 47
9 -21 13 368.96 52.89
21 -9 -13 351.66 39.4
21 -13 9 373.76 37.3
-13 9 21 408.66 50.59
13 -21 -9 495.25 44.8
21 9 13 411.56 51.89
-13 -21 9 461.95 52.09
9 21 -13 425.56 31.5
-9 21 13 417.96 43.2
13 -9 21 388.96 51.49
9 -13 -21 425.16 31.6
21 13 -9 406.46 31.2
9 -13 -21 337.07 46.1
-13 9 21 400.66 50.39
-9 21 13 377.46 45.2
13 9 -21 317.67 39.7
21 -13 9 451.25 46.7
-9 13 -21 394.36 31.9
13 11 21 705.03 54.39
13 21 -11 796.02 39.4
13 -11 -21 569.24 55.29
21 -13 -11 764.02 37.9
13 -21 11 690.23 54.19
-11 13 21 695.43 59.99
21 -13 -11 748.13 53.59
21 11 -13 729.03 37.9
-11 -21 13 640.44 53.69
11 13 -21 676.63 40.8
21 -11 13 726.43 43.2
-11 13 21 657.13 51.99
-11 21 -13 700.93 37.1
13 -21 11 722.03 79.79
-21 11 13 694.43 45.8
11 21 13 749.82 49.1
13 -11 -21 735.43 37.8
-13 -11 21 814.42 71.69
-11 13 21 615.24 68.29
21 -11 13 587.04 78.69
21 -11 13 762.02 45.7
11 -13 21 743.23 71.79
11 -21 -13 773.52 52.99
-13 21 11 795.52 49.4
13 11 21 730.23 58.59
-13 11 -21 707.43 38.6
21 -13 11 777.32 73.79
21 -13 11 676.13 44.5
-13 21 -11 750.12 37.8
11 -21 13 658.53 57.99
11 21 -13 754.82 39.4
11 -13 -21 716.93 54.19
-11 21 13 666.93 48.5
21 -13 11 692.83 44.1
-21 13 11 700.43 44.7
13 -21 -11 657.83 51.79
11 13 21 731.13 54.39
-11 -13 21 696.93 63.19
13 -11 21 694.93 75.59
13 -11 21 647.84 74.39
11 13 21 766.22 54.39
11 -13 -21 692.83 37.2
-13 11 21 866.51 69.39
21 -11 -13 622.14 58.19
13 21 11 817.52 52.39
-13 -21 11 690.43 55.69
-13 11 21 805.02 52.29
13 11 -21 679.73 42.4
21 -11 -13 769.12 36.7
21 13 -11 755.82 38.6
21 11 13 680.23 57.59
-11 13 -21 691.03 37.5
13 -21 13 420.26 50.09
-13 -13 21 466.55 58.89
21 -13 13 456.35 35.9
13 -13 -21 404.06 28
21 -13 13 441.76 68.69
13 13 -21 448.96 34.8
-13 21 13 390.16 38.8
13 13 21 388.86 50.09
13 13 21 508.25 48.2
-13 13 -21 406.06 29.6
13 -13 -21 342.27 52.49
21 -13 -13 349.77 40.3
-21 13 13 469.55 38.7
-13 13 21 448.76 41.4
-13 -21 13 434.26 51.99
21 -13 -13 434.06 28.6
21 -13 13 424.26 40.5
13 21 -13 479.55 31
13 -13 21 357.76 45
-13 21 -13 430.56 29.3
-13 13 21 371.76 53.89
13 21 13 405.86 41.8
13 -21 -13 376.56 50.59
21 13 -13 460.15 29.6
-1 -21 15 258.57 63.79
-21 15 -1 144.99 36.7
15 -1 -21 48.4 28.7
-15 -1 21 159.18 45.9
-1 15 21 80.09 27.7
15 1 21 82.59 27.9
-1 -21 15 103.39 31.4
21 -15 -1 64.99 18.2
1 21 15 68.79 25.1
-1 15 21 65.19 30.2
1 -15 21 87.39 48.6
21 -15 -1 123.59 27.3
-1 -15 -21 51.39 30
1 -21 -15 130.29 32.7
-1 21 -15 78.59 14.9
15 -21 1 123.19 29.2
-21 15 -1 91.99 26.6
-15 21 1 158.58 31.8
15 -21 1 137.69 29.3
1 -21 -15 86.79 32.1
1 15 -21 125.29 18.5
1 -15 21 49.1 39.4
21 -1 15 83.89 21.3
21 1 -15 92.79 18.2
1 21 15 126.29 33.8
15 -1 -21 90.39 16.1
-15 21 1 84.79 23.9
-1 -15 -21 133.69 37.7
15 21 -1 79.89 29
15 1 21 107.99 52.69
21 -15 -1 142.39 36.1
21 -1 15 119.99 25
-15 1 -21 99.89 30
15 21 -1 121.09 19.4
-15 21 -1 92.09 24
21 -15 1 150.88 28.1
-1 -21 -15 98.79 33.2
-1 -15 21 63.49 57.79
1 -15 -21 76.29 25.9
-1 21 15 68.79 31
-21 15 1 110.59 34
-15 21 -1 50.59 31.4
15 -1 21 106.39 50.49
-1 21 15 169.58 29.8
21 -15 1 166.98 36.5
-15 -21 1 111.09 39.4
15 -21 -1 128.09 28.3
-1 -15 21 100.19 37.3
-15 1 21 97.79 44
15 1 -21 87.89 28.7
15 21 1 97.19 29.1
1 15 21 92.89 25.8
15 -1 21 105.79 29.5
1 -15 -21 126.89 35
15 1 -21 99.39 17.4
15 21 1 95.79 20.5
15 -21 -1 64.49 24.7
1 -21 15 86.49 33.3
-1 15 -21 61.69 15.9
21 15 -1 105.79 19.3
1 -21 15 157.38 48.3
-15 -1 -21 109.09 32.2
21 -1 -15 81.19 17.4
1 15 21 106.79 32.6
21 -15 1 56.29 18.4
21 1 15 164.88 28
21 1 15 131.49 22.2
1 21 -15 111.99 18.4
-21 15 1 110.09 24.4
21 -3 15 10.5 20.4
15 3 21 7.4 25.7
15 21 -3 12.8 15.4
15 -3 -21 -7 13.7
3 -21 -15 31.9 31.5
-21 15 -3 -0.5 23.7
3 21 15 -13.7 30.7
3 -15 21 2.3 43.8
-15 21 3 -20.6 30.8
3 -21 -15 -3.4 30.1
15 3 21 -7.1 52.89
-3 -15 -21 10.7 28.5
-15 3 -21 13.1 27.5
3 21 15 -29.2 21.2
21 -15 -3 -38.1 23.3
3 15 -21 -2.4 15.1
3 -15 21 -45.1 44.6
21 -15 -3 -6.7 14.8
21 -3 15 -31 18.4
15 -21 3 -25.1 27.3
21 -15 -3 -45.1 34.2
-15 21 3 8.3 23.1
-3 15 21 12 29
-3 21 -15 -2 11.8
-21 3 15 23.8 20.9
15 -3 -21 -8.1 30.3
-15 -3 21 -26.7 41
-3 -21 15 -49.7 27
15 21 -3 18 26.2
15 -21 3 4.1 22.2
-3 15 21 39.4 25.2
-21 15 -3 -12 33
21 3 -15 -2.2 15.8
-15 3 -21 2.1 28.8
3 15 21 -24.9 25.7
-15 21 -3 -13.5 21.5
-3 -15 21 102.49 72.39
-15 3 21 -34.3 40.5
-15 21 -3 24.9 18.4
-3 15 -21 12.6 15.2
-15 -21 3 15.2 32.8
15 21 3 14.9 22.1
21 -15 3 -1.1 16.9
15 21 3 -4.5 25.5
15 -3 21 -54.69 44.3
3 -15 -21 27.7 24.9
21 -15 3 31.8 27.9
15 -21 -3 40.3 27.4
-15 21 -3 -31.7 30.3
15 3 -21 -13.8 27.4
-21 15 3 17.7 21.3
3 21 -15 23.3 13.8
3 -21 15 -66.79 32.3
21 3 15 9.3 21.8
15 -3 21 -17.9 21.9
15 -21 -3 -10.7 22.8
15 3 -21 -16.3 14.6
-21 15 3 -73.79 31.1
3 -21 15 -24.7 36.3
21 -3 -15 10.2 12.8
-3 21 15 38.8 29.1
-3 21 15 12.9 25.9
21 -15 3 4.1 35.5
-15 -3 -21 20.5 32.3
21 15 -3 10.6 15.5
3 -15 -21 -26.4 31.3
-3 -15 21 -1.9 33.4
-3 -21 -15 -12.2 35.2
3 15 21 25.1 24.8
21 -15 -5 87.89 17.9
21 -5 15 123.59 24.7
5 -21 -15 84.39 30.9
-21 5 15 61.59 22.2
21 -15 -5 117.99 28.9
-15 -5 21 33 39.7
-15 5 -21 104.19 20.1
15 -21 5 55.49 25.5
-5 15 21 89.89 28.4
15 -5 -21 108.59 18.4
15 -21 5 151.78 33.8
-5 21 -15 115.09 18.2
5 15 -21 119.89 18.9
-5 15 21 63.19 27.3
15 5 21 149.69 56.29
5 21 15 138.19 35.9
15 21 -5 86.09 17.1
21 -5 15 123.59 22.6
-5 -21 15 127.49 30.7
15 -5 -21 113.39 40.7
-5 -15 -21 9 33.3
21 -15 -5 115.19 39.1
15 21 -5 131.49 27.6
5 21 15 117.09 27.5
21 5 -15 83.29 21.3
-21 15 -5 96.99 29.7
-15 21 5 88.89 22.5
5 -15 21 69.49 41.1
15 5 21 78.19 27.7
21 5 15 85.39 28.9
-15 21 -5 88.99 25.5
5 -15 -21 84.89 17.7
5 -21 15 41.9 32.5
5 21 -15 103.59 16.6
15 21 5 93.49 28.8
5 -15 -21 105.49 28.7
-15 5 21 44.5 42.9
15 -5 21 32.2 44.5
15 -21 -5 82.69 27.3
5 15 21 117.19 26.2
-5 21 15 142.19 31
21 -15 5 91.69 38
21 -15 5 145.89 34.2
-5 15 -21 124.19 18.6
-5 -15 21 115.39 36.1
15 -5 21 46.3 24
-15 -21 5 104.49 37.9
15 5 -21 121.69 18.8
21 -15 5 104.39 22.6
21 -5 -15 79.89 17.3
5 -21 15 84.09 39
-15 21 -5 85.69 17.4
-5 21 15 79.39 26.6
-21 15 5 62.09 21.2
5 15 21 25.3 25.1
21 15 -5 99.99 18.6
-5 21 15 77.59 28.7
7 15 -21 111.89 18.9
21 -15 -7 125.69 38.3
21 -7 15 176.08 62.19
15 21 -7 43.3 25
21 -7 15 91.89 21.4
7 -15 21 70.29 38.9
-15 -7 21 161.18 44.9
21 -7 15 89.39 23
15 -7 -21 100.69 18.2
15 -21 7 56.49 35.4
7 -21 -15 136.99 30.7
-7 -21 15 70.49 27.8
7 21 15 88.89 23.6
-7 15 21 58.09 25.9
15 -21 7 84.79 26.3
-7 -15 -21 15.6 41.3
21 -15 -7 56.99 28.9
-15 21 7 27.1 21
21 -15 -7 66.99 16.1
-15 7 -21 97.19 18.8
7 21 15 47 37.3
15 7 21 121.69 30
15 -7 -21 133.79 37.2
-7 21 -15 66.39 16.2
-21 7 15 132.59 25.8
15 21 -7 87.69 17.4
-7 15 21 126.19 29.9
21 -15 7 49.99 20.9
-7 21 15 81.39 29.1
-15 7 21 73.29 40.2
21 -7 -15 96.09 16.9
15 -21 -7 98.29 29
-21 15 7 50.09 20.3
21 15 -7 57.09 14.4
-15 21 -7 110.39 28.5
7 15 21 104.69 25.7
21 7 15 88.29 28.8
15 -7 21 113.59 44.8
15 21 7 78.49 27.8
-7 15 -21 79.19 16.6
7 15 21 110.29 30.3
21 -15 7 126.39 36.3
-7 21 15 82.29 30.4
7 21 -15 85.29 17.2
21 -15 7 113.69 37.2
-7 21 15 106.19 29.8
-15 21 -7 96.19 17.6
7 -21 15 85.89 32.5
7 -15 -21 60.59 25
-7 -15 21 85.09 34.3
7 -15 -21 86.79 17.1
-15 -21 7 121.19 33.1
15 -7 21 23.3 24.9
9 15 -21 17.9 15.7
21 -9 15 11.5 20.6
15 21 -9 21.6 14.9
21 9 -15 19.9 14.8
9 21 15 12.1 20.8
21 -15 -9 16.4 31.7
21 -9 15 -0.7 50.39
15 21 -9 21.9 22.4
-9 21 -15 7.4 12.4
-9 15 21 35.7 24.3
-15 -9 21 -3.7 36.8
-21 9 15 -15.5 19.6
21 -15 -9 34.6 14.5
-15 21 9 12.7 20.7
9 -15 21 34.5 33.6
21 -9 15 4 18.2
9 -21 -15 74.49 31.4
-9 -21 15 44.5 30.3
15 -9 -21 16.5 12.6
15 9 21 14.8 24.7
15 -9 -21 -19.7 35.9
15 -21 9 47.7 26
-15 9 -21 17.9 15
-9 15 21 33.3 28.8
15 -21 9 67.39 43.6
21 -15 9 152.98 40.6
-15 21 -9 14.2 13.3
-9 15 -21 25.7 14.8
9 15 21 -3.2 24
15 -21 -9 76.29 30.9
15 9 -21 39.1 33.7
21 -15 9 -23.2 32.3
-21 15 9 11.7 17.7
15 -9 21 -3.2 27.1
9 21 -15 24.4 13.1
-9 21 15 16.1 38.7
-15 9 21 71.49 39.6
15 -9 21 53.79 38.4
15 21 9 1.2 23.8
9 -21 15 55.49 29.6
-15 -21 9 26.5 31.6
21 -9 -15 5.5 12.7
-9 21 15 57.89 24.7
9 -15 -21 24.3 13.9
9 -15 -21 18.2 28.4
21 9 15 18.6 25.8
-9 -15 21 44.1 34.4
9 15 21 21.5 25.2
21 15 -9 20.3 14.4
21 -15 9 23.9 18
-15 11 -21 143.49 18.3
-15 21 11 122.99 23.8
21 -11 15 105.09 23.1
15 -21 11 170.28 30.4
-11 21 -15 153.48 22.3
21 -15 -11 116.89 16.5
21 11 -15 121.09 17.8
15 -11 -21 176.18 19.2
21 -11 15 119.69 45.1
11 21 15 95.39 23.2
-21 11 15 132.09 22.8
-11 15 21 97.79 23.5
15 21 -11 182.08 24.6
11 -15 21 140.39 35.6
11 15 -21 103.19 17.5
15 11 21 169.18 28.6
21 -11 15 147.89 21.4
15 -11 -21 204.18 37.6
11 -21 -15 85.79 32.3
-11 -21 15 172.08 34.1
-15 -11 21 166.28 42.3
21 -15 -11 90.99 33.1
-15 21 -11 168.28 18.7
21 -15 11 143.19 24.3
11 21 -15 111.19 16.1
11 -15 -21 133.89 31.8
11 -15 -21 167.98 23.3
15 -11 21 101.09 37.2
11 -21 15 102.29 29.1
21 -11 -15 61.49 40
21 11 15 134.59 30.2
-21 15 11 124.89 22
-11 21 15 118.79 25.7
-11 15 -21 170.48 18.5
11 15 21 154.58 29.4
21 -15 11 143.09 38.4
11 15 21 183.08 28.8
15 21 11 166.08 27.3
-11 -15 21 187.38 38.5
21 -15 11 170.78 24.1
15 -21 -11 177.48 35.2
-15 11 21 113.79 38.4
21 15 -11 158.78 18.4
-15 -21 11 109.59 35.4
15 -11 21 221.48 57.99
21 -11 -15 146.19 20.8
-13 21 -15 21.5 12.3
-15 -13 21 44.4 39.4
-15 13 -21 44.7 13.8
-13 -21 15 26.1 33.3
13 15 -21 12.1 14
15 -13 -21 87.29 53.89
15 -13 -21 58.29 14
13 -21 -15 -74.79 34.8
-15 21 13 37.6 19.8
21 13 -15 42 14.6
13 -15 21 71.69 35.8
15 -21 13 6.3 24.5
21 -13 15 29.6 17
-21 15 -13 23.8 13.3
21 -13 15 27 20.9
15 21 -13 18 12.2
21 -15 -13 18.8 12.4
15 13 21 8.9 22.2
13 21 15 67.49 21.1
-21 13 15 11.9 18.7
21 -13 15 60.89 35.1
13 -15 -21 29.2 12.8
-13 15 -21 22.2 13.3
-21 15 13 26.9 18.6
-15 21 -13 29.6 12
13 -15 -21 -4.1 32.9
13 -21 15 27.9 25.3
21 13 15 -21.1 28.3
15 21 13 62.09 24
15 -13 21 18.6 32.8
21 -13 -15 24.2 11.9
-15 -21 13 118.39 38.3
15 13 -21 63.09 23.2
-13 -15 21 -30.8 34.1
13 21 -15 8.8 12.2
21 -15 13 16.6 17.8
21 15 -13 23.7 13.4
-21 13 -15 34.6 12.9
15 -21 -13 77.29 34.9
-13 21 15 58.49 21.4
13 15 21 -7.2 22.7
21 -15 13 1.5 33.2
21 -15 13 36.9 20.2
13 15 21 53.99 25.6
15 21 -15 17.3 11.6
15 21 15 39.1 22.5
-15 -15 21 62.69 41.3
21 -15 15 30.2 32.4
-15 15 -21 32.3 11.7
21 -15 -15 52.69 12.5
-15 21 15 -27.2 18.7
15 -21 15 47.8 26
15 15 21 -2.4 28.8
-15 -21 15 120.79 37.4
-21 15 -15 11.7 10.5
21 15 -15 35.8 12.2
15 -15 21 -7.8 28.8
-15 21 -15 33.8 11.3
15 15 -21 13.5 13.5
15 15 21 21.4 22.8
-21 15 15 34.4 17.4
15 -15 -21 13.8 11.2
21 -15 15 -11.9 22.4
17 -1 -21 66.19 15
1 -21 -17 110.49 37.5
-17 21 1 80.39 22.8
1 17 -21 59.19 15
-21 1 17 118.29 24.4
-21 17 -1 83.99 24.1
1 21 17 93.59 28
21 1 -17 76.99 15.9
-1 -21 17 74.39 33.6
1 -17 21 85.69 38.1
-1 -17 -21 112.19 34.5
-1 17 21 67.19 26.4
-1 17 21 100.69 24.3
21 -1 17 89.49 24.6
21 -17 -1 69.79 18.8
-1 21 -17 85.39 15.3
17 21 -1 89.99 18.4
21 -17 -1 29.8 29.5
21 -17 -1 107.09 31
-17 -1 21 55.19 43.1
17 1 21 89.79 25.3
17 -21 1 15.5 32.3
17 21 -1 108.49 26.2
-1 -21 17 -10.8 63.09
1 -17 21 122.59 52.29
17 1 21 141.49 56.09
17 -21 1 81.09 25.1
1 21 17 106.69 26.9
1 -17 -21 109.49 33.9
-17 1 21 104.39 44.5
-1 -17 21 30.1 61.29
1 17 21 113.49 27.2
17 -21 -1 91.39 27
-1 21 17 66.29 26.6
17 -1 21 114.39 27.3
17 -21 -1 140.29 31.3
17 -1 21 87.89 49.7
-1 17 -21 92.69 17
1 17 21 88.09 27.5
21 -17 1 98.69 31.2
17 1 -21 104.89 17
-1 -17 21 85.89 35.3
17 21 1 79.89 17.8
21 -17 1 86.79 21.7
-21 17 1 93.39 24.2
1 -21 17 96.39 35.2
-1 21 17 140.29 26
1 -21 17 118.19 50.79
21 -1 -17 59.49 14.6
1 21 -17 73.99 14.4
17 21 1 56.39 27
21 1 17 76.99 23.3
-17 21 -1 95.49 23.7
21 -17 1 118.59 32
17 3 21 110.29 57.39
17 -3 -21 -0.8 12.5
17 3 21 36 25.6
-3 -17 -21 10.9 36.1
21 3 -17 2.7 14.5
3 -17 21 22.8 44.9
-3 17 21 -4.9 22.8
21 -17 -3 11.2 28
-3 21 -17 -12.3 10.6
-17 21 3 -17.8 22
17 21 -3 17.2 24.9
3 21 17 -23.6 22.8
-3 -21 17 -15 29.1
21 -3 17 -3.6 20.3
17 -21 3 -9.8 23.1
-21 3 17 7.1 20.9
-17 3 -21 5.6 21.5
17 -21 3 -24.2 29.6
3 -17 21 -34.9 43
3 21 17 16.4 26.7
-21 17 -3 -25.1 22.7
3 -21 -17 18.3 34.1
3 17 -21 -11.7 13.5
21 -17 -3 -23.5 27.9
-3 17 21 27.6 24.3
21 -17 -3 -14 16.3
17 21 -3 -5.5 13.5
-17 -3 21 -15.2 43.1
-3 17 -21 -1.4 13.7
17 -3 21 43.1 46.4
17 3 -21 9.1 13.8
17 -3 21 -12.1 21.1
-21 17 3 7.9 20.2
3 17 21 0.3 21.7
-17 21 -3 3.4 21.7
3 21 -17 -18.3 13.5
21 -3 -17 11.5 12.8
3 17 21 13.8 26.7
21 -17 3 -4.6 29.6
3 -21 17 54.69 38.3
-3 -17 21 -18.2 32.4
3 -17 -21 -2.9 27.4
3 -21 17 20.1 41
21 3 17 15 23.9
17 -21 -3 -45.2 27.8
21 -17 3 -27.7 29.5
-3 21 17 43.5 27.1
17 21 3 50.39 29
21 17 -3 10.8 14.5
3 -17 -21 -17.4 31.4
-17 3 21 24.1 42.6
21 -17 3 5.9 19.3
-17 21 -3 26.4 17.9
17 -21 -3 24.4 23.2
-3 21 17 -12.7 22.3
-17 -5 21 80.99 42.6
5 21 17 75.39 23.2
17 5 21 40.3 23.5
-21 5 17 47 21.6
17 21 -5 64.39 16.5
21 -17 -5 47.6 16.3
5 21 17 50.69 28.5
-5 -21 17 81.09 30.1
21 -5 17 53.49 20.6
5 -21 -17 48.9 32.1
21 -17 -5 39.9 30.2
-5 -17 -21 90.39 45.2
-5 17 21 37.2 24.8
17 21 -5 26.8 25.3
-21 17 -5 89.89 30.4
-5 17 21 46.9 26.5
17 -21 5 40.9 36
5 17 -21 62.09 15.6
-17 5 -21 50.49 18.3
17 -21 5 66.59 24.7
21 5 -17 81.19 27
21 -17 -5 36.1 28.7
17 -5 -21 51.89 13.7
-5 21 -17 76.89 15.1
-17 21 5 82.89 20.8
5 -17 21 53.49 40.4
21 -5 -17 49.2 13.4
-17 5 21 79.09 42.8
5 -21 17 107.99 36.5
5 -17 -21 116.09 29
21 17 -5 66.19 15.6
17 21 5 81.29 28.7
-5 -17 21 85.39 34.5
-5 21 17 120.69 27.5
21 -17 5 29 20
-21 17 5 80.59 23.6
17 -5 21 34.2 22.8
17 5 -21 56.39 17.2
17 -21 -5 80.39 25.1
17 -21 -5 49.2 29.1
21 -17 5 51.69 30.6
-17 21 -5 66.29 16.2
-5 21 17 79.89 25.3
21 5 17 47.7 25.2
5 17 21 48.8 25.4
-17 21 -5 37.7 23.5
-17 -21 5 19.1 46.7
5 21 -17 94.09 16.6
21 -17 5 50.99 35.1
5 -21 17 -30.3 46.4
-5 17 -21 42.8 13.9
17 -5 21 78.59 44.8
5 17 21 43.6 22.5
5 -17 -21 86.09 20.8
-17 7 -21 71.99 17.9
17 -7 -21 64.89 14.1
-7 17 21 57.29 23.1
-17 21 7 59.69 20.2
-7 21 -17 71.29 14.6
-7 -21 17 40 28
21 -17 -7 41.6 31.2
7 -17 21 45.4 36.4
17 21 -7 89.29 16.4
21 -7 17 163.18 56.19
21 -17 -7 119.39 33.1
7 21 17 75.59 22.8
21 -7 17 54.39 21
7 21 17 67.69 31.4
21 -17 -7 37.1 16
17 21 -7 72.99 23.9
17 -21 7 159.58 43.9
-7 17 21 22 26.8
-21 7 17 45.4 20.7
7 -21 -17 52.59 31.6
17 -21 7 50.79 24.9
-17 -7 21 22.3 43
7 17 -21 56.39 15.2
17 7 21 92.39 25.3
21 -17 7 36.1 39.7
-17 -21 7 46.6 41.7
21 -17 7 54.09 20.9
21 -7 -17 91.59 15.5
-21 17 7 41 19.4
21 17 -7 41.2 13.2
-7 21 17 75.29 26.3
17 -21 -7 43.1 24.3
-7 -17 21 67.39 33.3
-17 7 21 118.19 44.8
21 7 17 65.79 25.7
7 17 21 66.09 24.6
21 -17 7 54.69 31.8
17 -7 21 78.49 24.6
17 21 7 70.49 29
-17 21 -7 55.59 15.4
7 21 -17 62.19 13.6
7 -17 -21 79.99 19.5
7 17 21 54.39 23.9
17 -21 -7 56.79 31.9
17 -7 21 33.3 40.9
7 -17 -21 78.99 32.5
-7 17 -21 51.09 14.4
-17 21 -7 57.19 35.8
-7 21 17 84.59 29.9
7 -21 17 19.2 33.6
9 -17 21 33 33.7
21 -17 -9 -3.9 33.2
-17 21 9 10.5 19.1
-17 -9 21 3.1 41.7
21 -17 -9 10.9 30.4
21 -9 17 -1 45.2
-21 9 17 24.5 20.3
-9 17 21 28.6 26.3
21 -17 -9 -12.9 14.4
21 -9 17 38.5 20.9
17 21 -9 6.3 12.6
-9 21 -17 16.8 13.1
-9 -21 17 36.6 31.3
-17 9 -21 5.5 13.9
17 -21 9 -43.8 23.2
17 -21 9 20.1 46.9
9 -21 -17 17.1 32.2
9 21 17 19.9 20.6
17 9 21 2.2 24.8
9 17 -21 33.2 14.5
9 21 17 25.2 31.7
-9 17 21 2.3 20.9
-21 17 -9 35.6 13.7
17 -9 -21 25.6 12.8
17 21 9 8.5 25.8
21 -17 9 65.29 31.6
9 -21 17 1.8 31.3
9 -17 -21 84.29 32.2
-9 -17 21 28.8 33.1
17 -9 21 11.4 38.4
-21 17 9 15.1 19.1
9 21 -17 14.9 13.7
21 -17 9 -25.4 46.2
17 -9 21 50.89 26.1
17 -21 -9 1.8 31.3
21 17 -9 24.1 12.7
9 17 21 8.3 22.7
21 -9 -17 -3.8 11.7
9 17 21 18.6 24
-17 21 -9 46.8 14.1
-9 17 -21 33 13.9
-17 9 21 68.19 44.1
21 -17 9 31.9 21.4
-17 -21 9 43.1 40.8
21 9 17 33 25.3
21 -17 9 24.5 20
11 -17 21 149.59 36.6
-11 17 21 118.09 24.2
-17 11 -21 91.19 14.8
21 11 -17 108.29 16.3
11 17 -21 79.29 14.6
-11 21 -17 94.89 14.2
17 -21 11 76.49 26.8
-17 21 11 87.79 21.2
-11 -21 17 118.59 35
17 11 21 83.09 23.7
21 -11 17 36.6 42.4
11 21 17 95.29 20.4
17 21 -11 106.19 15.5
17 -11 -21 99.59 15.3
21 -17 -11 126.09 37.9
21 -11 17 85.09 22
21 -17 -11 92.09 15.9
-17 -11 21 80.89 45.1
-21 11 17 57.49 19.5
-21 17 -11 84.19 13.7
-21 11 -17 87.49 14.4
11 -21 17 66.89 31.8
-11 -17 21 110.29 35.9
21 -17 11 118.99 21.7
-11 17 -21 96.39 14.6
-17 21 -11 86.99 15.1
11 21 -17 79.29 13.9
-17 11 21 57.19 40
11 -17 -21 209.38 44.1
-21 17 11 127.29 20.9
21 -11 -17 69.29 12.6
17 -21 -11 111.49 56.69
11 -17 -21 56.09 14.1
21 -17 11 123.29 32.7
11 17 21 80.59 22
21 11 17 72.09 25.3
17 21 11 82.89 26.9
-11 21 17 84.69 29
21 -17 11 75.99 23.2
17 11 -21 95.49 21.9
11 17 21 50.69 22.9
-17 -21 11 76.29 43.8
17 -11 21 29.3 33.5
21 17 -11 101.59 15
17 21 -13 9.4 11.3
17 -13 -21 4.8 10.5
17 -21 13 2.1 22.5
-21 13 17 19.2 18
13 21 17 51.99 19.6
-13 -21 17 67.79 35.3
21 13 -17 -5.2 12.8
21 -17 -13 -0.9 12.8
-13 21 -17 21.6 10.7
-17 21 13 36.7 17.6
-21 17 -13 18.8 11.6
-17 13 -21 16.8 11.5
13 17 -21 8.1 12
21 -13 17 -22.8 21.2
17 13 21 9.6 21.2
13 -17 21 36.3 28.6
21 -13 17 -9.2 37.6
-17 -13 21 4.8 44.6
-17 21 -13 20.2 10.9
17 13 -21 17.7 15.4
13 17 21 18.3 22.4
-17 -21 13 6.8 42.3
21 -17 13 29.7 24.3
-13 -17 21 -66.49 33.6
-13 17 -21 15.9 10.7
13 21 -17 11.4 11.1
13 -21 17 -28.9 25.3
-21 17 13 2.9 16.4
21 -13 -17 11.4 10.2
13 17 21 13.4 21.8
17 -13 21 11.7 33.3
-21 13 -17 14.5 10.9
21 17 -13 11.4 10.7
13 -17 -21 21.5 12.4
-13 21 17 6.6 24.6
21 -17 13 24.3 30.4
21 13 17 -39.2 26.3
17 21 13 6.8 27.3
15 21 17 49.8 22.9
-21 17 -15 39.5 11.3
-15 -21 17 9.6 38.4
15 -17 21 -5.3 27.8
17 15 21 35.5 22.9
-17 -15 21 58.79 45.8
21 15 -17 33.5 12.4
-17 15 -21 28.1 11.1
17 -15 -21 38.3 10.6
21 -15 17 0.5 35.4
17 21 -15 33.3 10.7
-15 21 -17 56.29 11.5
15 17 -21 34.6 12.9
17 -21 15 45.3 24.4
21 -17 -15 21.6 12
21 -15 17 40.7 27.6
-17 21 15 60.59 19
-21 15 17 43.5 19.1
-17 -21 15 10.5 46.8
17 15 -21 46.1 14.1
-21 15 -17 34.5 9.9
21 -17 15 76.09 30.9
21 -15 -17 39.1 11.2
21 17 -15 41.8 11.4
17 -15 21 56.19 30.2
21 -17 15 55.39 31.1
15 -17 -21 25.4 11.7
-17 21 -15 35.1 10.7
15 17 21 53.19 23.2
-21 17 15 54.99 17
-15 -17 21 57.49 42.7
-15 17 -21 41.5 11.2
15 -21 17 33.7 24.9
15 21 -17 38.2 10.5
-15 21 17 23.6 23.3
21 -17 -17 33.1 11.6
17 -17 -21 32.4 11.8
21 17 -17 27 10.7
17 21 -17 30.5 10.2
-17 17 -21 46.8 10.2
17 -21 17 -10 23.8
-17 -21 17 73.79 54.59
17 -17 21 45.3 27.4
21 -17 17 -10.6 33.2
17 17 -21 61.69 14.5
-17 21 17 12.1 23.3
-21 17 -17 42.1 10.6
-21 17 17 65.39 19.7
-17 21 -17 58.59 10.6
-17 -17 21 72.19 48.7
-21 19 -1 310.57 41.6
-1 19 21 330.07 44.1
21 -1 19 289.87 39.9
-1 -19 -21 233.58 50.89
21 -19 -1 265.67 36.6
19 -21 1 274.97 40.3
19 1 21 309.87 41.4
-1 -21 19 312.87 43.1
19 21 -1 335.77 51.09
-19 21 1 258.07 38
21 -19 -1 359.36 46.8
1 21 19 238.98 30.5
19 21 -1 304.57 28.9
1 -19 21 351.86 55.99
19 -1 -21 349.57 26.3
21 1 -19 308.97 26.8
1 -21 -19 327.57 68.19
21 -19 -1 361.36 52.59
-21 1 19 327.37 40.4
-19 -1 21 421.76 59.29
1 -19 21 258.97 45.1
-21 19 -1 285.37 35.3
-1 21 -19 322.97 26
1 19 -21 304.27 27.7
1 21 19 314.27 39.5
19 -21 1 373.56 44.3
-1 19 21 331.87 39.6
1 21 -19 313.37 26.6
21 -1 -19 278.57 25.4
21 1 19 281.97 40.9
-1 21 19 345.07 45.2
1 19 21 312.07 40.3
19 -21 -1 405.26 42.9
1 -21 19 398.76 58.79
-21 -1 19 267.17 39.1
-19 21 -1 347.97 41.4
19 1 -21 332.57 26.4
1 -21 19 339.67 45.1
-19 1 21 217.18 54.99
-1 -19 21 377.26 58.79
19 -21 -1 254.77 39.7
21 -19 1 339.17 42.5
19 -1 21 377.66 42.2
21 -19 1 336.97 49.8
21 -19 1 302.17 36.2
19 21 1 341.27 52.89
-1 19 -21 335.87 27.3
-21 19 1 353.86 38.5
19 -1 21 329.57 96.19
1 19 21 303.27 41.7
-1 21 19 356.46 39.5
-3 21 -19 161.58 22.1
-19 -3 21 99.99 49.4
21 -19 -3 86.19 34
-21 19 -3 166.68 18.7
19 -3 -21 92.99 14.6
-3 19 21 126.49 25.3
19 21 -3 124.79 28.5
-21 3 19 98.99 24.7
19 21 -3 128.69 17.6
19 3 21 177.78 28.5
19 -21 3 174.48 28.3
3 19 -21 112.19 16.2
3 -19 21 226.48 53.19
3 21 19 133.39 24
3 -19 21 140.29 48.2
21 3 -19 130.49 17.2
-21 19 -3 126.79 27.2
-19 21 3 134.39 24.4
-3 19 21 161.48 27.3
3 -21 -19 173.58 42.6
21 -19 -3 108.39 22.7
3 21 19 112.39 27.2
-3 -21 19 134.89 35.4
21 -3 19 115.79 23.7
19 -21 3 110.29 42
21 -19 -3 157.78 29.1
-3 19 -21 100.59 15.1
3 -21 19 166.58 45.8
21 3 19 119.49 24.8
19 -21 -3 153.58 26.2
19 -3 21 170.18 49.9
-3 21 19 144.59 27.7
3 21 -19 176.78 24
-19 21 -3 137.49 19.7
21 -19 3 170.48 31.4
19 -21 -3 154.98 36.4
-19 3 21 68.19 50.69
-21 19 3 103.79 22
-3 -19 21 168.78 37.6
19 3 -21 152.68 17.8
-21 -3 19 127.09 23.8
-19 21 -3 128.89 25.8
3 19 21 142.09 25.2
3 -19 -21 89.79 38.9
3 -21 19 175.98 46.2
21 -3 -19 101.09 14.9
21 -19 3 133.49 34.2
21 19 -3 137.49 17.4
3 19 21 143.79 28.4
19 -3 21 111.89 23.7
-3 21 19 139.19 25.5
21 -19 3 170.48 41.7
-21 19 -5 11.2 13.5
21 -19 -5 -21.8 25.4
21 -19 -5 53.99 33.8
21 -5 19 14.8 20.5
5 -21 -19 45.7 40.7
-19 -5 21 21.1 51.39
5 19 -21 22.4 12.9
19 21 -5 17.1 13.2
19 -5 -21 1.2 11.2
19 -21 5 38.3 45.2
19 -21 5 25.8 25
-19 21 5 18.1 20.5
-5 19 21 -23.4 20.9
5 21 19 -3.2 22.4
5 21 19 -4.2 20.5
-5 19 21 25.5 22.9
5 -19 21 -14.2 39.7
19 5 21 5.3 22.8
-19 5 -21 13.8 14.8
-5 -21 19 40.5 32.2
-21 5 19 14.4 21.9
-5 21 -19 12.1 12.2
5 19 21 32.1 23.1
5 21 -19 10.9 11.9
19 5 -21 24 17
21 19 -5 18.4 12.4
-5 21 19 27.5 22.5
5 -19 -21 86.69 35
21 -19 5 -34.3 43.1
-5 21 19 -8.4 22.7
19 -5 21 -12.6 20
21 -19 5 13.7 28.1
19 -5 21 82.79 46.4
21 5 19 9 22.5
19 -21 -5 -33.3 24.5
5 -21 19 25 36.5
-19 5 21 4.3 49.4
-21 19 5 24.3 19.1
-19 21 -5 21.9 14.7
21 -5 -19 8.9 13.1
-5 -19 21 23.5 33
5 19 21 8.9 19.8
19 -21 -5 88.69 36.3
-5 19 -21 28.5 12.3
7 21 19 13.1 23.3
19 -21 7 19.4 23.9
19 21 -7 -15 11.3
7 19 -21 -4.9 11.6
-19 7 -21 9.7 14.2
21 -19 -7 -9.2 27.2
-21 19 -7 4.8 12.4
19 -21 7 16.7 28.7
-7 -21 19 22.7 30.4
-21 7 19 15.4 20.3
19 7 21 56.19 23.9
-7 19 21 13.7 23.8
-7 19 21 0.4 18.9
21 -7 19 -50.59 51.19
-19 -7 21 -43.9 50.99
-7 21 -19 10.9 11.5
21 -19 -7 17.2 16
-19 21 7 22.9 19.7
21 -7 19 2.2 18.8
7 21 19 13.7 18.8
7 -19 21 -3.9 33.9
19 -7 -21 27.4 12.4
-19 7 21 -6.7 50.49
21 -19 7 5.9 27.4
21 -19 7 14.2 18.9
21 -19 7 22.2 21.8
-21 19 7 -24.9 17.6
-19 21 -7 40.5 13.5
19 -21 -7 8.6 21
7 19 21 -13 21
-7 21 19 6.9 20.1
-7 -19 21 -30.8 32.7
19 -7 21 -1.2 20.8
-7 21 19 -27 23.1
7 21 -19 17.2 12
-7 19 -21 3.7 10.7
-21 7 -19 22 12.2
7 -21 19 28.8 32.3
21 19 -7 12.1 13
19 -7 21 -73.59 41.6
21 7 19 12.2 22.5
21 -7 -19 9.9 10.7
19 -21 -7 38.7 60.79
7 19 21 4.1 20
21 -19 7 24.7 82.39
-9 19 21 90.49 21
-19 21 9 112.99 19.9
21 -19 -9 193.18 30.6
-9 21 -19 142.29 19.3
9 21 19 70.09 27
-9 19 21 161.08 30.3
-19 9 -21 139.59 15.3
9 -19 21 50.19 32.3
19 9 21 101.79 23.6
-21 9 19 151.48 22.6
19 -21 9 85.99 24.8
19 -9 -21 136.39 15
9 21 19 146.99 22.3
21 -19 -9 115.39 17.4
19 21 -9 144.39 20.5
-21 19 -9 168.38 21.2
-19 -9 21 165.48 50.89
21 -9 19 176.98 47.2
9 19 -21 86.29 14.1
-9 -21 19 162.68 34.4
21 -9 19 120.99 22.4
-19 9 21 145.59 50.09
9 19 21 119.99 24.7
-21 9 -19 100.09 14
-19 21 -9 160.88 21
21 -19 9 77.89 28.3
9 19 21 126.79 21.8
-21 19 9 96.59 19.4
19 -9 21 55.59 37.7
21 -19 9 141.29 24.9
19 -21 -9 150.68 24.4
-9 -19 21 64.09 35.2
21 9 19 149.88 24.9
19 -9 21 114.79 24.9
9 -21 19 109.89 32
21 19 -9 163.08 19.8
-9 19 -21 118.29 14.8
21 -9 -19 91.19 12.6
9 21 -19 163.68 21.5
21 -19 9 153.28 24.1
19 -11 -21 328.47 22.9
21 -11 19 379.86 43.9
19 -21 11 297.97 39.7
11 -19 21 357.26 52.59
-11 -21 19 406.06 47.7
-21 11 19 336.17 38.3
21 -19 -11 326.27 27.6
-19 -11 21 380.16 55.99
19 21 -11 370.46 24.1
21 -19 -11 486.85 48.1
21 -11 19 451.75 66.89
-21 19 -11 371.66 24.7
-11 21 -19 370.66 23.5
11 21 19 401.36 32.6
11 19 -21 353.56 24.4
-19 11 -21 366.96 24.4
19 11 21 310.37 38.3
-19 21 11 365.26 32.6
-19 21 -11 340.87 24.5
21 19 -11 383.16 23.9
21 -11 -19 349.37 22.2
-11 -19 21 344.67 49.99
11 19 21 310.27 33.4
11 19 21 307.57 41.7
19 -11 21 379.26 57.39
19 -11 21 366.66 42.8
19 -21 -11 439.46 37.5
21 -19 11 388.76 46.7
-21 19 11 339.67 30.2
11 21 -19 355.16 24.2
-21 11 -19 356.86 24.9
-11 19 -21 347.17 23.4
21 11 19 341.47 39.1
11 -21 19 426.16 47.4
21 -19 11 366.16 48.2
-13 -21 19 96.99 37.5
-19 21 13 197.08 26.7
21 -13 19 201.48 39.4
13 21 19 146.59 21.8
21 -13 19 156.08 26.5
-21 19 -13 192.98 18.6
21 -19 -13 167.08 24
19 13 21 133.29 24.5
13 19 -21 160.18 19.8
-19 13 -21 169.08 19
19 21 -13 170.28 17.9
19 -13 -21 183.68 16.7
-19 -13 21 194.58 55.19
13 -19 21 175.18 32.1
-21 13 19 129.89 24.6
-13 21 -19 178.18 18.6
-13 -19 21 162.78 39.1
19 -21 -13 165.08 24.7
13 19 21 145.09 22.3
-21 13 -19 137.99 18.4
19 -13 21 166.58 35.3
-19 21 -13 149.19 18.3
13 -21 19 138.29 28.4
13 19 21 154.88 26.4
21 13 19 156.88 27.2
-21 19 13 196.88 26.8
-13 19 -21 170.18 19.1
21 19 -13 215.18 19.1
21 -13 -19 145.79 17.2
13 21 -19 167.98 18.3
21 -19 13 131.29 30.3
-19 -15 21 43.9 99.59
-15 21 -19 -2 8.9
-19 15 -21 2.8 9.4
-15 -21 19 3.4 42.6
19 -15 -21 3.9 9.7
15 -19 21 17.3 25.5
15 21 19 -21 26.7
-21 19 -15 -2.4 8.7
21 -15 19 -32.5 36.6
19 -21 15 18 24.5
-19 21 15 2.1 16.1
15 19 -21 19.3 11.6
21 -19 -15 13.7 14
19 15 21 -35.8 23.9
19 21 -15 14.4 9.3
-19 21 -15 -16.1 9.1
19 -21 -15 19.5 23.7
15 21 -19 13 9.9
-21 15 -19 8.9 9.3
21 19 -15 -11.5 9.3
21 -15 -19 -20.5 9.4
21 -19 15 43.9 31.3
-15 -19 21 -68.49 41.8
-15 19 -21 -2.1 9.1
-21 19 15 -19 16.6
15 -21 19 -34.1 25.2
19 -15 21 -13.5 28.9
17 19 -21 11.4 11.3
21 -17 19 84.39 35.5
19 -17 -21 -17.6 12.4
17 -21 -19 14 29.8
-21 19 -17 2.7 8.7
19 21 -17 13.7 9.1
19 -21 17 39.8 27.8
-19 17 -21 2.1 9.4
-17 21 -19 -5.2 7.5
17 -19 21 26.7 26.2
21 -19 17 -53.09 31.5
19 -17 21 13 29.9
21 -17 -19 14.8 11.3
-19 21 -17 6.5 9.1
-21 17 -19 -2.9 9.1
17 21 -19 5.5 9.2
17 -21 19 17 24.5
-17 19 -21 9.4 8.8
-1 21 21 602.04 42.8
-1 21 -21 656.53 32.1
1 21 -21 638.34 31.8
21 -1 21 653.93 42.4
21 1 21 646.64 43.5
-21 21 -1 635.34 42.1
1 -21 21 550.44 87.69
21 -21 -1 639.14 48.3
21 -21 1 621.64 46.8
-1 21 21 628.04 42.4
21 1 -21 632.24 30.5
1 21 21 576.14 41.5
21 -1 -21 665.03 31.4
1 -21 21 610.84 73.19
-1 -21 21 672.03 64.19
-21 21 1 639.14 41.6
1 21 21 614.94 40.5
-3 -21 21 365.36 44.9
-3 21 -21 429.76 25.8
21 -3 21 449.16 37.9
-3 21 21 471.85 39.4
3 21 -21 425.76 25.9
-21 21 -3 338.07 38.2
21 3 21 441.66 38.6
-3 21 21 416.96 37
3 -21 21 403.56 51.39
21 3 -21 422.06 28.7
21 -21 -3 437.06 42
-21 21 -3 456.65 35.9
3 21 21 468.45 40.8
21 -21 3 316.87 45
-21 21 3 399.06 37.1
21 -3 -21 426.46 25.4
3 21 21 375.76 34.3
-5 -21 21 145.09 36.9
-21 21 -5 138.59 26.2
21 -21 -5 130.29 25.2
-21 5 -21 120.99 16.7
-5 21 -21 116.49 13.6
5 21 21 120.09 23.4
-5 21 21 124.09 24.1
21 5 21 129.69 22.7
5 -21 21 195.38 42.2
21 -5 21 142.39 21.1
-21 21 5 142.29 20.9
5 21 21 130.49 19.9
21 -5 -21 128.49 18.8
5 21 -21 138.49 20.1
21 21 -5 136.09 14.9
21 -21 5 106.99 26.9
-21 -5 21 155.98 103.79
-21 21 -5 127.69 16.3
-5 21 21 124.69 21.3
-21 21 7 52.19 17.9
21 7 21 22.4 19.6
7 21 -21 69.89 13.1
-21 -7 21 33.4 103.89
21 -7 21 82.89 20.6
-21 21 -7 50.79 13
7 21 21 35 22.1
-21 7 -21 62.89 13.1
21 -7 -21 75.49 11.8
21 21 -7 70.29 12.5
-7 21 21 42.9 23.1
7 -21 21 115.09 37.1
21 -21 -7 37.8 23.9
21 -21 7 36.9 25
21 -7 21 -56.79 57.09
-7 -21 21 69.89 35.1
21 -21 7 60.19 24.7
-7 21 -21 51.29 11.2
-7 21 21 63.09 18.8
7 21 21 31.2 18.1
-9 21 -21 303.47 21.1
9 21 -21 273.37 21.8
-21 21 -9 305.47 24.4
21 21 -9 335.77 21.5
21 -21 -9 282.37 29.5
-21 21 9 320.77 29.8
21 -9 21 178.88 48.9
9 21 21 314.97 41.4
21 -9 -21 304.47 20.2
9 -21 21 378.36 52.79
9 21 21 324.57 29.6
-9 -21 21 249.08 38.8
21 -9 21 286.97 36
-21 9 -21 286.37 22.9
21 -21 9 272.47 41.3
21 9 21 370.86 36.7
11 21 21 693.03 36.6
-21 21 11 642.34 34
21 -11 21 556.04 72.79
-21 21 -11 638.24 28.6
21 -11 -21 665.63 28.4
-11 21 -21 644.34 28.4
-11 -21 21 611.64 53.69
21 11 21 644.94 40.3
11 -21 21 725.43 54.39
21 -11 21 498.45 41.8
21 -21 11 516.95 48.1
21 -21 -11 646.14 47.1
11 21 -21 613.74 28.6
21 21 -11 681.83 28.8
-21 11 -21 641.24 28.6
13 21 -21 370.36 22.3
21 -13 -21 380.46 20.9
-13 21 -21 370.16 21.2
-21 21 -13 405.56 21.9
-13 -21 21 333.97 45.9
13 -21 21 452.95 46.4
21 -21 13 445.16 44.3
-21 13 -21 398.46 22.5
21 13 21 336.37 42.4
-21 21 13 348.07 28.6
21 -13 21 355.86 47.9
13 21 21 463.65 33.6
21 21 -13 345.97 20.2
15 21 -21 39.9 10.9
15 -21 21 123.99 27.2
21 -15 -21 40.3 10.9
21 -21 15 116.79 32.5
-21 21 15 90.89 19
-21 15 -21 45.9 9.8
-21 21 -15 65.09 10.4
-15 21 -21 59.69 10.3
0 0 22 2102.29 103.29
0 22 0 1968.5 80.09
0 0 -22 1814.82 74.29
0 0 22 2111.59 118.99
0 0 22 1900.51 101.19
0 22 0 1896.91 84.49
22 0 0 1950.9 74.49
0 -22 2 989.8 67.29
0 22 2 1011.8 56.99
0 2 22 1075.89 75.99
0 2 22 1048.7 99.39
2 0 22 1057.39 92.09
22 0 2 1105.69 50.99
-2 0 22 1131.19 80.99
0 22 2 970.4 61.59
-2 -22 0 891.81 76.29
0 -2 22 1057.49 98.59
0 2 -22 1115.69 50.99
-2 22 0 985.3 65.79
2 22 0 944.51 61.09
-2 0 22 1079.49 87.89
0 -2 -22 1006.5 49.9
0 -2 22 1139.39 82.59
0 2 22 1047.7 82.29
2 0 -22 1033.2 50.39
22 0 -2 1051.99 49.4
-2 0 22 1032.6 102.59
0 22 -2 994.4 53.09
2 0 22 1109.19 91.29
2 0 22 1037.3 82.09
-2 22 0 1078.89 55.59
-2 0 -22 999.7 51.19
0 22 -2 1053.59 55.69
0 -2 22 1119.19 89.79
22 -2 0 1040.5 49.3
0 22 -2 1045.2 61.79
22 2 0 1093.19 52.29
2 22 0 1130.89 56.89
-2 2 22 622.34 72.99
2 22 -2 544.35 52.29
2 22 -2 680.53 44.2
2 22 2 586.24 47
-2 22 -2 530.35 41.1
-2 22 2 565.24 46
-2 -2 -22 625.24 41.4
-2 2 -22 580.44 40.5
2 -2 22 670.13 76.19
-2 -22 2 631.14 67.89
-2 -2 22 643.44 70.29
2 2 22 566.64 68.49
2 -22 2 536.95 53.89
22 2 -2 588.64 40.2
22 2 2 641.94 44.5
-2 22 -2 552.84 46.3
2 -2 22 534.45 86.09
22 -2 2 628.04 38.5
2 2 22 562.94 79.19
2 -2 -22 615.34 38.4
2 2 -22 558.14 37.5
-2 2 22 619.74 95.79
-2 -2 22 628.94 70.59
-2 22 2 542.15 53.59
2 22 -2 498.45 44.2
-2 22 -2 687.23 55.59
-2 -2 22 361.16 75.89
-2 2 22 637.74 70.59
2 -2 22 748.93 86.39
2 22 2 599.24 51.89
22 -2 -2 633.64 37
2 2 22 584.04 63.49
0 4 22 438.36 69.59
0 22 -4 443.96 36.9
0 -4 22 494.35 71.79
4 0 -22 398.36 35.6
4 0 22 396.26 62.79
22 4 0 460.75 42.9
4 22 0 526.65 42.7
0 4 22 395.16 60.49
-4 0 22 609.84 78.79
0 22 -4 518.65 45.1
0 -4 -22 369.46 36.1
22 0 -4 464.05 35.3
-4 22 0 414.06 42.6
0 22 -4 409.66 51.59
0 22 4 330.27 49.1
0 -4 22 438.66 59.79
0 4 -22 384.16 32.4
0 4 22 463.55 60.19
-22 4 0 499.55 52.79
-4 0 -22 454.85 39.7
22 -4 0 435.66 44.5
-4 0 22 521.35 68.39
-22 4 0 441.76 49.99
4 22 0 501.35 50.29
0 -22 4 536.85 61.09
-4 22 0 489.05 57.89
-4 22 0 409.46 42.7
4 0 22 516.95 67.49
22 -4 0 416.86 34.5
22 0 4 493.65 39.9
4 0 22 478.85 60.79
0 4 -22 448.76 37
0 22 4 509.45 45.3
-4 0 22 363.06 63.09
2 22 4 271.47 35
-2 22 -4 196.48 32.7
4 22 -2 256.17 39.8
-4 -2 22 339.87 46.4
4 22 -2 290.17 35.9
22 4 2 294.07 36.5
22 4 2 230.18 31.4
-2 22 -4 228.38 33.8
-4 22 2 281.97 36.7
-4 2 -22 278.07 27.6
22 -4 -2 290.37 29.7
22 -4 -2 266.67 36.6
-4 22 2 345.77 41.1
4 22 -2 264.97 34.6
2 -4 22 239.98 53.19
2 -4 22 321.87 50.49
-4 -2 22 167.88 61.89
-4 2 -22 270.67 28.4
-2 -22 4 235.98 67.79
2 22 4 390.86 43.3
2 -4 22 301.47 54.89
22 -2 4 312.67 56.49
-22 4 -2 248.08 32
-22 4 -2 253.17 34.6
-2 4 22 302.27 53.49
2 4 -22 258.57 33.6
-2 22 -4 282.17 31.7
22 2 -4 340.17 34.1
-2 4 22 239.08 41.8
4 -2 -22 251.87 32.3
4 2 22 271.77 56.39
22 -2 4 260.97 33.7
4 -22 2 218.98 31.9
4 2 22 283.67 56.19
-2 4 22 278.67 47.1
4 2 22 234.98 37.5
-2 -4 -22 303.17 36.3
4 -2 22 275.97 47
-2 22 4 313.27 37.7
-2 -4 22 256.97 45.9
22 -4 2 283.17 31.1
-22 2 -4 363.56 42.8
-2 22 4 255.97 30.4
2 4 22 402.36 58.59
22 2 4 306.57 39.6
22 -4 2 351.96 42.5
-4 -2 -22 281.07 30
2 22 -4 238.88 32.2
2 4 22 203.78 34
-4 22 -2 274.97 38.6
-4 2 22 225.38 54.19
2 22 -4 318.37 39.6
2 22 -4 348.47 34.1
2 4 22 299.77 50.49
4 -2 22 425.66 65.29
4 22 2 344.77 47.6
-4 2 22 313.07 52.79
4 22 2 308.07 38.3
2 -22 4 228.78 33.4
22 2 4 328.27 33.6
-2 4 -22 300.57 32.2
-2 4 -22 215.08 26.4
4 -2 22 303.47 53.19
22 4 -2 254.27 28.9
4 -22 -2 286.87 30.4
2 4 22 303.77 55.59
-4 22 -2 292.17 28.8
4 2 -22 276.17 32.1
-4 2 22 496.85 69.09
22 -2 -4 232.88 29.3
2 -4 -22 272.77 33.2
-2 -4 22 216.58 54.19
-4 22 -2 253.27 39.3
4 4 22 218.28 53.79
4 -4 22 200.28 51.19
-4 -4 -22 224.38 26.7
-4 4 -22 151.38 27
4 -4 22 219.78 55.09
-4 22 -4 130.79 21.3
4 22 4 146.89 32
22 -4 4 185.08 32.6
4 4 -22 174.48 24.3
-4 22 -4 182.98 35.1
22 -4 -4 143.19 20.9
4 -4 -22 167.98 25.1
22 4 -4 166.38 24.1
22 4 4 188.68 27.8
4 4 22 88.79 32.5
-4 -4 22 175.98 64.69
-4 -4 22 151.28 39.6
22 4 4 154.48 29.9
-4 22 4 179.58 34.4
22 -4 4 183.78 24.8
-4 4 -22 120.69 21.1
4 4 22 155.68 54.49
-4 22 -4 158.18 28.3
-4 4 22 128.59 41.7
4 22 -4 155.38 24.5
4 -4 22 239.78 48
-22 4 -4 197.78 35.2
4 22 -4 109.39 19
4 22 -4 133.09 27.9
4 22 4 146.19 26.3
4 -22 -4 157.98 27.2
-22 4 -4 88.29 27.8
-4 4 22 130.19 36
4 -22 4 151.48 30.7
4 4 22 167.38 33.2
-4 22 4 140.79 26.3
-6 22 0 48.9 34.2
22 0 6 21.2 22
22 0 6 18.8 21.2
6 22 0 -3.2 24
0 -6 22 -34.7 38
0 22 6 53.99 26.7
-22 6 0 54.29 28.8
0 6 -22 21.7 20.8
0 22 -6 29.4 23.2
-6 22 0 49.7 26.4
22 -6 0 23.5 24.8
-6 0 -22 25 17.5
22 -6 0 50.89 17.6
0 -6 22 38 47.9
6 0 22 30 33.2
-6 22 0 74.99 25.1
0 22 -6 42.7 25.7
-6 0 22 -62.09 57.99
0 -22 6 38.8 34.7
0 6 -22 44.3 20.1
6 0 -22 21.6 19.5
-22 6 0 24.6 25
-6 0 22 -28.4 38.5
6 -22 0 58.09 24.6
0 6 22 -6.6 29.8
0 22 6 74.59 29.5
6 22 0 9.7 21.7
6 22 0 58.89 28.2
0 6 22 -8.2 40.3
-6 0 22 79.89 35.9
0 6 22 12.5 27.9
0 -6 -22 2.3 20.4
6 0 22 13.5 47.4
0 22 -6 3.6 16.7
22 0 -6 2.6 15.7
-2 22 -6 10.8 17.1
-6 -2 22 17.1 65.39
-2 6 22 7.1 31.7
6 2 22 -40 29.2
-22 6 -2 6.3 29.6
-2 22 -6 20.2 22.9
-22 6 -2 23 26.1
-2 -6 -22 14.9 22.2
2 -6 22 0.7 42.2
2 22 6 -6.5 23.8
6 -22 2 -8.6 25.2
-6 2 -22 29 17.5
6 22 -2 5.2 20.1
-2 22 -6 2.2 27.4
22 -2 6 4.9 20.5
6 2 22 22.6 49.1
6 -2 -22 -25.6 18.1
-6 22 2 -9 20.2
-6 -2 22 47.1 35.8
6 22 -2 -8.7 25.4
6 2 22 -49.1 31.4
-2 6 22 7.2 35.6
-6 22 2 36.5 34.9
-2 6 22 -12.9 28.2
22 -6 -2 5 14.4
22 2 -6 11 19.1
2 22 6 48.4 27.2
22 -6 -2 -2.7 23.8
6 -22 2 -11.3 26.5
6 22 -2 -13.4 18.1
2 6 -22 -11.7 20.7
2 6 -22 26.1 20.1
2 -6 22 8 43.4
-6 22 2 -10 24.1
-22 6 2 0.8 23
-2 22 6 -23.5 24
22 -6 2 -3.3 15.8
2 -6 -22 6.8 19.6
6 22 2 -19.7 27.3
6 -2 22 22.8 42.7
-6 22 -2 2.7 21.8
2 6 22 2.9 43.4
6 -22 -2 -6.4 23.5
6 -2 22 -43.9 33.2
2 -22 6 2.6 30.6
-2 6 -22 -15.7 19.4
6 2 -22 4.1 18.2
22 2 6 10.8 22.2
2 22 -6 -25.2 16.9
2 6 22 6.6 28.9
-6 22 -2 29.2 26.7
-2 22 6 27 28.5
-22 6 2 -15.4 26.1
6 22 2 1.3 20.7
2 6 22 -26.8 42.1
-6 2 22 -47.4 34.4
22 -6 2 21.1 25.6
-2 -6 22 -30.5 32.8
-2 6 -22 49.5 23
22 -2 -6 -1.1 16
2 6 22 23.2 29.2
22 2 6 5.9 22.6
-6 22 -2 -15.9 20.9
2 22 -6 -1 23
2 22 -6 -10.3 21.1
-6 2 22 -33.6 38.1
-6 22 -2 -19.2 37.3
-2 -6 22 -45.1 54.09
-22 6 -4 23 32.5
-6 22 4 18.3 22.1
6 22 -4 65.09 26.5
22 6 4 15.9 31.5
-4 22 -6 50.19 24.5
6 22 -4 49.6 21.5
6 -22 4 66.79 28.3
4 22 6 38.3 27.6
4 6 -22 59.29 22.2
-6 4 -22 38.4 20.4
22 -6 -4 43.7 17.4
-4 6 22 60.79 32.8
6 4 22 95.59 51.79
-4 -6 -22 51.49 25.2
22 4 -6 17.3 22.7
-22 6 -4 55.09 29.2
-4 6 22 33.8 33.4
-6 22 4 12.3 33.6
4 -22 -6 64.19 25.4
-4 22 -6 14.3 29.1
22 -4 6 72.39 33
22 -4 6 12.8 20
4 22 6 17.3 20.5
6 22 -4 31.4 17
6 -22 4 59.29 29.9
22 -6 -4 60.59 25
4 -6 22 45.8 42.9
6 4 22 21.2 31.2
-4 22 -6 18.8 16.8
-4 6 22 -2.5 35.1
6 4 22 71.19 33.6
-6 -4 22 13.2 34.7
4 6 -22 10.6 24.6
-6 -4 22 145.49 73.19
4 -6 22 -6 52.79
6 -4 -22 43.4 23.3
-4 6 -22 60.39 21
-4 22 6 29.7 29.9
4 -6 -22 69.49 23.9
4 22 -6 23.6 16.5
-6 22 -4 43.5 30.3
4 22 -6 28.6 24.4
-6 4 22 37.7 33.2
22 -6 4 28.7 27.5
-4 -6 22 57.79 64.19
-4 22 6 57.49 24
4 22 -6 60.19 22.4
4 6 22 63.09 31.1
22 -4 -6 39.8 17.1
-22 6 4 38.9 28.1
-6 22 -4 29.6 22.2
22 4 6 34 26.2
-6 22 -4 38.5 18.8
22 -6 4 60.99 20.3
-6 22 -4 94.59 36.3
4 -22 6 41 30.1
4 6 22 18.1 41.8
-22 4 -6 53.89 29
6 -22 -4 7.5 24
6 -4 22 38 43.8
-6 4 22 76.99 38.8
-4 -6 22 55.89 36.2
4 6 22 -19.7 46.3
6 22 4 48.4 26.1
6 -4 22 46.6 38.6
-22 6 4 57.39 26.1
22 4 6 52.39 25.7
6 4 -22 39.9 20.7
6 22 4 65.69 23.7
4 6 22 12.1 27.8
6 6 22 410.76 55.89
6 -22 6 514.85 49.99
-22 6 -6 408.16 48.5
6 6 22 526.15 60.59
-6 -6 22 509.05 66.39
6 -22 -6 537.05 41.8
6 -6 -22 446.36 42.6
-6 22 -6 447.26 45
22 6 6 392.06 57.89
-6 6 22 518.35 65.09
22 -6 -6 416.46 44.4
-6 6 -22 459.25 40.6
22 -6 6 371.66 52.79
-6 22 -6 422.66 35.3
6 22 -6 515.55 42.1
6 22 6 474.35 43.5
6 22 6 472.55 47.9
22 6 6 479.35 53.39
22 -6 -6 474.95 33.8
-6 22 6 441.56 60.89
6 22 -6 469.35 34.6
6 -6 -22 499.35 41.7
-22 6 6 483.25 46.7
-6 22 -6 435.96 47.2
-6 22 6 426.26 46.1
-6 6 22 412.26 57.79
-6 -6 22 272.17 80.89
6 -6 22 473.25 54.89
6 -6 22 348.27 52.89
6 6 22 404.06 55.09
6 6 -22 472.85 40.1
-6 6 22 411.26 59.89
6 22 -6 521.25 48.8
22 -6 6 504.85 39
0 -8 22 185.78 44
22 -8 0 331.97 32.9
0 22 -8 371.96 30.3
-8 22 0 328.67 43.2
8 22 0 297.87 37.1
8 -22 0 286.07 43.7
-22 8 0 296.27 34.5
22 0 8 279.87 39.2
0 -8 22 346.47 61.09
22 0 -8 334.47 31.9
8 0 22 349.07 43.3
0 8 22 416.16 59.69
8 22 0 333.77 40.7
0 -22 8 228.58 42.1
8 22 0 248.38 32.9
0 8 -22 315.17 39.6
22 0 8 263.27 38.3
8 0 -22 273.37 36.3
-22 8 0 284.37 33.2
8 -22 0 297.37 40.2
0 22 8 233.98 32.5
0 22 8 344.97 35.6
0 8 22 289.07 36.1
0 8 22 458.35 66.49
0 -8 -22 309.07 30.8
0 8 -22 300.67 37.9
8 0 22 297.17 44.5
22 -8 0 248.58 38.3
0 22 -8 192.08 29.3
-8 22 0 274.97 41.1
0 22 -8 263.77 30.3
-8 0 -22 295.67 27.7
8 0 22 337.27 55.19
-8 0 22 418.26 62.59
-2 22 -8 159.58 27.5
-22 8 -2 169.38 31.7
8 -22 2 177.38 28
2 22 8 147.99 27.7
2 8 -22 124.29 27.4
-8 2 -22 152.78 22.5
8 2 22 182.08 50.39
-2 22 -8 159.68 19.7
8 -2 -22 149.39 26.6
-2 22 -8 106.49 27.9
2 -8 22 107.39 46.2
8 2 22 145.29 33.7
2 -22 -8 153.18 32.2
-8 -2 22 73.99 36
22 -8 -2 144.19 25.7
-2 8 22 188.28 37.6
2 22 8 173.38 31.8
-2 8 22 159.48 41.3
22 -8 -2 205.38 27
-2 -8 -22 185.98 27.9
8 -22 2 160.58 28.7
2 8 -22 191.98 27.3
-22 8 -2 180.48 31.2
22 2 -8 220.78 24.9
-8 22 2 114.29 23.8
2 -8 22 220.18 55.89
22 -2 8 147.19 24.9
8 22 -2 127.79 29.2
22 -2 8 191.48 26.6
8 2 22 212.48 36.7
8 22 -2 127.09 21.4
-2 8 22 159.78 31.8
8 22 -2 106.69 21.1
8 -2 -22 157.38 29
2 8 22 142.39 32.3
2 22 -8 197.98 28.5
2 -8 -22 147.39 25.7
-2 8 -22 176.18 29.5
-8 2 22 121.79 42
-2 8 -22 214.08 28.9
8 2 -22 125.99 24.7
-2 -8 22 199.78 41
2 22 -8 113.79 25.2
-22 8 2 191.88 32
-2 -8 22 102.39 60.59
22 2 8 153.08 27.4
-2 8 -22 131.59 25
8 -22 -2 163.88 28
22 2 8 132.59 24.9
22 -8 2 155.38 22.4
-8 22 -2 139.39 29.1
-8 2 22 101.39 38.2
-8 22 -2 132.59 25.2
22 -2 -8 165.08 20.9
8 -2 22 156.88 50.39
22 -8 2 159.08 28.2
-22 2 -8 198.68 40.5
-8 -2 -22 171.38 23.4
2 8 22 142.29 44.5
8 22 2 148.19 31.9
2 22 -8 178.18 28.7
-2 22 8 142.39 27.9
2 -22 8 145.69 38.2
-22 8 2 138.29 29.1
8 -2 22 205.68 37.6
8 22 2 157.88 23.2
-8 22 -2 157.58 25.4
2 8 22 182.08 35.5
-2 22 8 132.29 33
8 4 22 72.89 52.69
22 -8 -4 51.89 24.8
8 22 -4 76.59 29.6
22 4 -8 31.5 21.5
-4 8 22 64.49 31.3
8 -4 -22 27.8 22.8
22 -8 -4 39.1 16.9
4 -8 22 58.99 47.2
-4 8 22 11.3 37.1
-4 22 -8 38.3 29
-8 22 4 22.4 21
8 22 -4 11.8 19.1
8 4 22 16.6 30.3
8 22 -4 24.7 17.9
-4 8 22 36.7 30.7
-8 4 -22 30.4 21.4
4 22 8 63.49 24.2
-8 -4 22 36.1 78.59
-4 -8 -22 49.9 28.7
-4 22 -8 40.9 24.5
22 -4 8 77.89 21.9
-22 8 -4 71.09 29.6
-8 -4 22 31.7 35.8
8 4 22 38.4 29.7
4 8 -22 29.4 22
8 -22 4 41.8 27.5
-22 8 -4 55.79 32.4
-4 22 -8 33.2 17.5
8 -4 -22 32.2 24.8
4 22 8 35.9 26.3
8 -22 4 51.89 29.3
4 -22 -8 64.39 27.3
4 -8 22 -26 51.99
-8 4 22 33.7 39.5
22 -4 -8 45.2 15.4
8 -4 22 40.9 35.1
4 8 22 36.9 25.9
-8 22 -4 60.59 30.2
22 -8 4 21.1 18
4 22 -8 30.6 16.5
-22 8 4 -9.9 28.3
8 -4 22 -18.9 42.6
-4 -8 22 33.2 35.8
4 22 -8 16.4 21.3
4 8 22 69.99 27.7
22 4 8 50.39 25.9
8 22 4 61.69 28.1
4 -8 -22 23.8 22.6
-4 8 -22 62.79 23.9
-8 22 -4 43.3 19
4 8 22 9.3 45.7
-4 22 8 43.5 27
-4 8 -22 45.7 24
-8 4 22 51.69 31.2
4 22 -8 32.6 21.7
-22 4 -8 50.09 31
4 -8 -22 81.69 26.3
8 -22 -4 34.2 25
-8 22 -4 70.29 23.6
8 4 -22 54.99 21.6
22 -8 4 25.9 26.1
22 4 8 10.3 24.2
4 -22 8 52.29 30.7
-4 -8 22 40.4 65.19
-4 22 8 40.5 29.5
8 22 4 22.6 18.9
-8 -4 -22 44.3 20.7
-22 8 4 38.4 26.2
-8 22 6 103.79 23.6
-22 8 -6 99.79 31.7
8 6 22 84.99 49.99
22 8 6 104.89 55.69
6 -22 -8 93.99 27.9
-8 -6 22 66.89 36.4
8 6 22 75.69 28.6
-6 8 22 93.79 31.3
8 22 -6 94.39 19.3
-6 22 -8 51.19 24.6
8 6 22 88.89 32.1
-6 8 22 215.68 44
8 -6 -22 117.89 26.1
22 -6 8 120.39 33.4
6 -8 22 122.59 43.8
6 22 8 36.9 24.2
22 -8 -6 72.69 15.7
-8 6 -22 98.29 24.3
8 -22 6 33.1 25
22 -8 -6 82.19 26.9
-6 8 22 74.49 28.9
6 8 -22 95.99 24.1
-22 6 8 60.69 23.3
8 -6 -22 72.19 26.3
6 22 8 55.49 22.5
-6 22 -8 67.29 16.5
8 -22 6 148.19 35.4
-22 8 -6 115.39 41
-6 22 -8 144.29 37.5
8 22 -6 79.99 24.7
-8 22 6 77.49 48.9
22 -6 8 60.79 20
8 22 6 53.29 19.3
-6 -8 22 62.79 35.9
-6 -8 22 168.88 80.39
22 6 8 157.38 31.8
-6 22 8 146.09 34.7
22 -6 -8 93.69 18.1
6 -8 -22 43.3 25.7
22 6 8 53.69 29.5
8 22 6 86.79 29.5
-22 8 6 81.09 35
22 -8 6 66.89 30.8
-8 6 22 87.69 35.1
-6 8 -22 51.49 23.9
6 22 -8 85.59 27.8
-6 8 -22 96.59 23.6
-22 8 6 64.19 25.4
6 8 22 64.59 26.5
6 -22 8 109.99 31.6
-8 22 -6 79.69 31.9
-22 6 -8 52.49 30.6
6 22 -8 82.79 18.8
-8 6 22 83.89 28.9
-8 22 -6 100.39 26
8 -22 -6 70.39 25.9
8 6 -22 101.69 25
6 8 22 77.19 32
6 8 22 6.7 60.79
8 -6 22 119.09 38.4
6 -8 -22 75.19 24.1
-6 22 8 116.49 27.4
8 -6 22 72.69 46.8
-8 22 -6 97.39 19.1
-8 6 22 105.29 39.8
22 -8 6 105.19 22.6
-8 8 -22 -6.1 24.6
-8 8 22 44.4 31.8
8 8 -22 19.4 22.1
22 -8 -8 6.5 14.4
-8 8 22 54.69 40.7
-8 22 8 -14.7 23.2
-22 8 -8 -20.2 29.6
8 -8 -22 19 26
8 -22 -8 19.9 26.1
8 22 8 17.8 25.1
8 -8 22 -23.4 45.7
8 22 -8 23.2 15.6
22 8 -8 18.9 15
22 -8 8 -16.8 19.5
8 -8 -22 2.5 24.9
-8 22 -8 47.9 26.5
8 22 8 9.5 20.5
-22 8 8 -0.2 21.6
-8 22 8 61.79 40.6
-8 22 -8 47.4 35.3
8 -8 22 25 42.6
-8 22 -8 14.7 15.1
22 -8 8 115.69 33.4
-8 -8 22 -13.4 34.3
22 -8 -8 28.8 28.2
8 -22 8 37.5 26.5
8 22 -8 4.6 22.3
8 8 22 20.3 26.7
8 -22 -8 44.7 28
8 -22 8 -8.8 38.3
-8 8 22 84.49 28.6
-8 8 -22 44 20.6
8 8 22 33.5 26.1
22 8 8 -4.3 33.5
0 -10 22 718.33 96.59
0 10 22 854.41 59.99
-10 22 0 802.02 55.79
22 -10 0 816.12 44
0 -10 22 881.81 74.69
0 10 -22 807.52 56.39
10 0 -22 792.22 61.19
0 10 22 826.32 65.69
0 -22 10 856.81 81.79
10 0 22 970 93.59
22 0 -10 892.41 42.5
0 22 10 857.51 57.39
22 0 10 803.92 51.39
-10 22 0 826.82 52.99
10 -22 0 877.31 55.49
0 22 -10 910.31 54.69
22 -10 0 868.41 51.19
0 10 -22 799.42 51.89
10 0 22 783.22 70.39
10 22 0 857.11 57.49
0 22 -10 771.92 55.29
0 22 10 875.31 55.49
10 0 -22 732.33 48.9
10 0 22 834.92 61.99
-22 10 0 885.91 55.69
22 0 10 853.21 49.2
10 22 0 874.71 49.4
-10 0 22 883.71 74.99
0 -10 -22 896.41 53.99
0 22 -10 886.11 41.9
0 10 -22 849.41 49.7
-22 10 0 770.02 59.49
-10 0 -22 768.12 48
10 -22 0 756.92 49.5
0 10 22 918.41 72.79
-2 22 -10 664.03 37.5
10 2 22 668.23 71.39
-10 22 2 722.33 50.29
22 -2 10 678.83 44.4
22 -10 -2 722.63 48.3
-22 10 -2 652.63 56.99
-2 10 22 666.13 68.69
22 2 -10 672.23 40.1
2 22 10 697.43 49.5
2 -10 22 665.33 76.59
2 10 -22 696.93 47.9
-10 2 -22 632.54 43.6
-2 -10 -22 669.33 52.79
-10 22 2 630.24 49.3
10 -22 2 658.73 49.5
-2 22 -10 680.33 51.19
22 -10 -2 661.23 39.9
10 -2 -22 616.94 45.7
22 -2 10 641.64 45.4
2 10 -22 684.83 46.7
10 22 -2 653.63 42.4
2 22 10 652.13 52.39
10 2 22 741.33 62.89
10 2 22 623.84 92.89
2 -10 22 786.72 88.29
10 22 -2 733.93 54.89
-10 -2 22 760.32 70.09
-2 22 -10 800.82 55.49
-2 10 22 695.03 63.09
-2 10 22 609.94 56.89
10 -22 2 615.34 50.89
-22 10 -2 721.23 55.19
2 -22 -10 667.03 52.59
10 -2 -22 661.93 57.89
-2 -10 22 740.43 69.19
-10 22 -2 634.74 49.3
-10 2 22 696.43 75.59
2 10 22 683.53 53.49
10 -2 22 640.44 59.19
-22 10 2 701.53 49.9
-2 -10 22 711.23 77.89
-22 2 -10 688.63 86.19
10 -2 22 768.92 90.39
2 -10 -22 693.53 49.4
-2 22 10 666.43 54.09
22 -10 2 675.83 50.09
10 22 2 795.22 54.79
22 2 10 632.24 46.4
-10 22 -2 735.53 54.69
-22 10 2 695.63 54.49
-2 10 -22 644.24 42.4
-2 10 -22 602.34 50.49
2 22 -10 660.53 49.9
2 22 -10 685.13 49.7
10 -2 22 544.85 76.79
10 -22 -2 620.84 47.6
-10 -2 -22 680.13 45.2
-2 22 10 661.33 54.19
-2 22 10 806.52 71.39
2 10 22 694.23 62.69
22 -10 2 658.63 40.3
10 2 -22 613.74 44
2 -10 -22 661.23 47.1
-10 2 22 640.74 70.59
22 -2 -10 683.43 37.8
22 2 10 713.43 50.29
2 -22 10 626.24 70.19
2 10 22 723.53 75.09
2 22 -10 658.53 38
-2 10 -22 510.15 52.19
-10 22 -2 538.65 45.4
-4 22 -10 436.46 51.69
-4 10 22 352.86 52.99
10 4 22 437.86 53.89
-4 10 22 525.45 66.59
-22 4 10 447.06 44.2
22 -4 10 384.56 38
4 10 -22 337.27 41.1
22 -10 -4 427.16 33
10 -22 4 484.15 48.9
10 4 22 531.75 58.09
10 4 22 381.46 58.39
4 22 10 400.46 47
10 -4 -22 394.36 49.4
-10 4 -22 478.15 41.2
4 10 -22 436.76 42.7
-4 22 -10 339.47 48.1
4 22 10 468.65 48.1
4 -22 -10 343.87 46.9
-4 10 22 456.75 58.49
10 22 -4 480.85 34.4
-22 10 -4 376.76 40.9
-10 22 4 387.46 45.6
10 -22 4 339.27 49.3
-10 22 4 455.25 45
10 -4 -22 396.46 41.4
22 4 -10 383.56 40.1
-10 -4 22 463.45 66.59
10 22 -4 366.36 48.5
22 -4 10 377.16 39.4
-22 10 -4 380.36 51.29
-4 -10 -22 427.46 53.89
22 -10 -4 422.16 42.8
4 -10 22 490.65 60.09
4 -10 22 403.46 58.69
-4 22 -10 374.96 31.3
-22 10 4 319.17 36.7
10 -4 22 418.56 57.59
-22 10 4 387.36 44.8
-10 22 -4 384.16 36.1
22 10 -4 420.66 33.7
-10 4 22 439.66 65.29
-4 22 10 558.34 68.59
22 -10 4 397.16 45.8
22 4 10 406.76 45.3
4 -10 -22 501.45 43.1
4 -22 10 445.16 57.39
-4 -10 22 484.65 60.39
10 -4 22 399.26 52.29
-10 22 -4 434.16 51.59
4 10 22 402.86 49.9
4 10 22 426.46 56.79
-10 22 -4 348.97 45.3
-4 22 10 353.56 38.5
10 -22 -4 446.86 43.5
-4 -10 22 335.77 73.29
4 10 22 547.55 69.39
10 4 -22 418.36 40.5
22 -10 4 453.75 37.7
4 22 -10 446.86 46.1
-4 22 10 481.25 49
-10 4 22 440.56 60.69
10 22 4 416.76 45.8
-22 4 -10 371.16 39.8
22 -4 -10 419.76 31.5
-4 10 -22 391.06 46.4
-4 10 -22 501.85 39.1
4 -10 -22 388.56 43.4
4 22 -10 396.96 33.4
-10 -4 -22 418.86 40.1
22 4 10 500.25 45.6
22 -6 10 53.99 19.1
-22 6 10 82.19 25.2
6 22 10 95.49 28.2
-22 10 -6 75.89 31.9
-6 10 22 35.5 27.5
10 -22 6 111.29 34.2
10 6 22 62.49 29.2
-6 22 -10 67.99 27.2
6 -10 22 10.5 40.4
10 22 -6 87.19 19.1
10 6 22 53.19 31.2
10 22 -6 45.8 25.7
22 -10 -6 94.99 27.1
-10 6 -22 83.49 23.6
-10 -6 22 4.5 33.7
10 -6 -22 103.49 29.4
-6 -22 10 64.89 29.6
22 -10 -6 48.5 15
6 -22 -10 95.39 28.3
-6 22 -10 74.49 17.8
10 -6 -22 20.1 24.2
-10 6 -22 38.6 24.6
-10 22 6 77.89 25
-6 10 22 61.19 30.4
6 10 -22 70.79 25.2
-6 10 22 142.29 39.3
6 22 10 120.09 25.9
6 -22 -10 36.8 28.3
10 6 22 119.49 47.2
-22 10 -6 100.09 36.7
22 -6 10 70.89 22.2
10 -22 6 64.99 27.7
6 10 -22 2.2 23.2
-10 6 22 76.39 28.5
10 -22 -6 80.09 26
-22 10 6 78.09 34.7
-10 22 -6 66.69 25
6 10 22 83.59 29.7
-6 22 10 109.39 33.6
-10 22 -6 75.59 32.8
-10 22 -6 85.99 17.8
22 6 10 102.09 29.6
-22 10 6 100.99 26.3
10 -6 22 125.79 35.1
6 10 22 107.09 32
10 22 6 77.29 27.8
22 10 -6 63.99 16.8
-6 -10 22 111.69 36.5
6 -22 10 68.19 29.9
-6 10 -22 15 26.4
6 -10 -22 58.79 27
22 -10 6 42.4 18.7
10 6 -22 23.1 20.8
-10 6 22 80.49 37.7
10 -22 -6 122.39 34.9
22 -10 6 95.69 29.7
-22 6 -10 24.4 33.9
6 22 -10 75.19 27.2
6 -10 -22 103.69 26.1
10 -6 22 51.59 44.5
22 -6 -10 46.7 14.7
-10 -6 -22 79.59 25.3
-10 6 22 114.09 36.2
-6 22 10 85.49 26
6 22 -10 80.99 16.6
-6 10 -22 47.8 19.6
22 6 10 60.19 29.6
10 22 -8 444.76 34.5
8 -22 -10 478.45 52.39
10 8 22 418.46 56.09
-8 22 -10 452.35 51.09
8 10 -22 470.15 44.1
-22 8 10 478.95 43.6
-8 10 22 511.45 63.39
22 -10 -8 452.15 32.8
22 8 -10 468.55 34.3
8 -22 -10 432.76 49.2
-8 -22 10 490.95 45.5
-10 -8 22 496.15 66.69
-10 22 8 446.96 44.9
10 8 22 354.86 53.09
10 22 -8 460.85 45.2
-10 8 -22 414.66 37.3
22 -8 10 462.55 39.5
10 -22 8 405.16 49.4
-10 8 -22 418.76 44.6
22 -8 10 449.66 39.1
10 -8 -22 453.15 47.6
22 -10 -8 454.35 48.4
8 -10 22 422.46 55.59
8 10 -22 480.95 43
10 -22 8 505.25 65.59
8 22 10 485.95 46.8
-8 22 -10 476.55 32.6
10 -8 -22 566.64 51.99
-22 10 -8 525.45 57.49
-8 10 22 568.94 53.99
10 -8 22 506.75 77.69
-10 8 22 461.45 52.89
10 22 8 435.66 46.7
-10 8 22 486.65 61.29
8 10 22 466.05 51.39
22 -10 8 488.35 39.3
-10 -8 -22 438.76 49.1
8 -10 -22 383.56 46.8
-8 22 10 429.76 44.9
22 10 -8 429.76 32.7
10 -8 22 418.16 46.2
8 22 -10 446.56 44.3
-8 10 -22 323.67 36.3
8 -22 10 457.65 53.99
8 22 -10 446.86 32.6
-10 22 -8 442.06 33.2
8 -22 10 464.35 48.9
-22 8 -10 665.93 58.49
8 10 22 491.45 54.09
8 -10 -22 424.36 49.6
10 -22 -8 434.36 45.1
-8 10 -22 399.16 36.1
22 -8 -10 420.16 52.09
-8 -10 22 391.76 59.29
-10 22 -8 354.76 45.6
22 -10 8 396.26 55.49
-10 -22 8 434.06 47.9
8 -22 10 395.56 69.19
22 8 10 552.64 61.19
-8 22 10 383.36 45.5
10 8 -22 449.36 42
-10 8 22 406.96 64.99
22 -8 -10 454.55 31
-22 10 8 448.66 45.7
10 -22 -8 411.16 59.19
-10 22 -8 382.36 44.2
10 -22 10 1282.57 67.89
10 -22 -10 1268.47 64.49
22 10 -10 1277.77 53.89
-10 10 22 1309.67 80.09
22 -10 -10 1204.98 65.09
-10 10 22 1262.67 69.69
22 -10 -10 1309.77 52.69
-10 10 22 1308.57 75.29
-10 22 -10 1237.98 67.39
-10 10 -22 1202.18 53.39
-10 22 -10 1280.77 52.59
-22 10 10 1299.47 60.69
-10 -22 10 1247.78 69.49
-10 -10 22 1272.97 80.99
10 -10 -22 1336.17 97.49
10 22 10 1333.97 62.89
22 10 10 1207.38 73.99
22 -10 10 1323.97 59.49
22 -10 10 1221.48 57.09
10 10 -22 1154.88 73.09
10 22 -10 1393.06 54.99
10 22 -10 1297.47 63.39
10 -10 -22 1368.66 54.79
-10 22 10 1386.96 62.09
10 -10 -22 1129.19 65.79
10 -22 10 1143.39 89.69
10 10 -22 1193.18 58.29
10 10 22 1283.87 69.39
10 10 22 1333.37 69.79
10 -10 22 1305.27 88.79
12 22 0 987.1 60.69
-12 0 -22 825.02 52.19
0 -12 -22 880.81 59.59
22 0 -12 938.41 43.6
22 0 12 1025.8 54.49
0 22 12 980.6 78.59
0 12 -22 867.11 59.59
12 0 22 965.2 63.69
-12 0 22 838.82 79.99
0 12 -22 920.01 47
-12 22 0 947.11 54.89
0 12 22 977.9 65.79
22 0 12 1039.4 52.99
22 -12 0 924.31 55.39
12 0 22 917.51 95.99
12 22 0 966.1 49.4
0 -22 -12 795.02 56.19
-22 12 0 866.51 62.29
-12 22 0 891.61 59.29
0 -12 22 984.9 74.49
0 22 -12 849.61 57.69
0 -22 12 907.31 57.09
0 -12 22 833.82 100.39
12 -22 0 1006.5 55.09
0 22 12 1009 58.79
-22 12 0 961.3 58.69
0 22 -12 967.4 44.4
0 12 22 926.11 71.69
0 -22 12 770.12 89.99
22 -12 0 1011.7 47.4
0 22 12 872.01 57.79
12 -22 0 993 55.09
0 12 22 862.41 59.99
0 -12 -22 899.11 53.89
0 22 -12 953.6 56.09
12 0 -22 825.12 51.69
2 -22 -12 689.43 56.49
22 -12 -2 647.94 39.5
2 12 -22 599.44 41.9
12 22 -2 698.43 55.39
12 -2 -22 750.92 61.49
-12 -2 22 522.85 69.69
12 -22 2 628.14 50.19
2 22 12 675.03 85.19
2 22 12 705.33 50.19
12 22 -2 645.54 41.4
22 2 -12 711.93 39.6
2 -12 22 640.44 75.19
22 -2 12 637.14 45
12 -22 2 684.43 51.09
-12 2 -22 499.45 45.6
-22 12 -2 518.85 56.79
-2 22 -12 661.43 35.9
2 22 12 749.73 54.09
-2 22 -12 692.83 57.39
2 -22 -12 563.04 53.09
12 -2 -22 646.24 47.4
-2 12 22 647.64 61.09
-12 22 2 606.34 47.8
12 2 22 524.55 62.89
22 -12 -2 559.74 47.7
-2 -22 12 611.14 50.99
-2 -12 -22 534.65 57.19
2 -12 22 629.64 87.19
-2 12 22 669.73 61.99
2 12 -22 688.63 50.39
-2 12 22 685.03 53.69
22 -2 12 631.94 44.3
-12 22 2 544.75 53.09
-22 12 -2 606.04 51.69
12 2 22 665.33 56.29
-2 -12 -22 690.63 51.69
-2 -12 22 677.03 67.99
-2 22 12 633.14 50.79
-2 12 -22 641.14 39.7
12 22 2 702.13 54.29
-2 22 12 617.14 54.39
2 12 22 631.54 58.59
22 2 12 691.13 48
-2 22 12 725.13 64.59
2 -12 -22 612.24 52.59
-12 22 -2 557.04 52.89
22 -2 -12 630.64 35.7
-12 22 -2 678.13 49.2
-2 12 -22 551.04 63.09
-12 -2 -22 611.64 47
12 -2 22 595.54 89.59
2 22 -12 654.03 48.7
12 -22 -2 600.44 47.9
22 2 12 661.03 45.5
2 -22 12 701.33 75.49
22 -12 2 662.93 49.6
-22 12 2 707.93 57.79
12 -2 22 699.93 56.09
12 -22 -2 663.13 49.6
2 12 22 622.04 64.99
-12 22 -2 677.33 46.1
2 -12 -22 636.74 48.5
2 22 -12 599.14 36.8
2 12 22 651.83 52.59
-12 2 22 609.64 72.09
-2 -12 22 653.43 75.59
22 -12 2 673.33 40.9
-22 12 2 624.74 49.2
2 -22 12 716.23 54.09
4 12 -22 404.66 37.7
-4 22 -12 376.76 30.5
4 22 12 246.78 33.1
12 4 22 383.46 46.4
-22 12 -4 311.27 40.1
12 22 -4 398.96 32.7
-22 4 12 356.46 41.7
-12 -4 22 266.07 43.2
-4 22 -12 376.16 55.09
-4 -22 12 334.47 44
12 -4 -22 252.87 31
12 -22 4 350.76 43.7
-22 12 -4 374.06 38.4
4 22 12 327.87 44.5
-12 22 4 334.77 38.2
22 4 -12 346.57 37.2
22 -4 12 376.96 37.5
4 -22 -12 304.07 46.4
12 -4 -22 325.57 39.3
12 4 22 380.16 53.59
12 -22 4 415.96 51.29
22 -4 12 317.17 39.2
22 -12 -4 406.16 42
-4 -12 -22 466.35 59.99
-12 4 -22 365.76 46.3
-4 12 22 283.67 44.9
-12 22 4 410.16 43.1
-4 12 22 350.76 52.49
4 -12 22 288.57 50.09
12 22 -4 361.46 45.3
-4 12 22 361.46 48.9
12 4 22 372.96 57.29
22 -12 -4 312.57 30.6
4 12 -22 393.96 45.2
4 -12 22 469.25 63.59
4 -22 -12 379.96 49.5
12 -4 22 340.37 49.9
-12 22 -4 349.57 42.3
22 -12 4 356.56 35
22 12 -4 354.56 31.7
-4 -12 22 428.86 48.9
-12 4 22 365.46 52.09
-12 4 22 387.56 55.29
4 22 -12 349.96 41.6
12 22 4 363.66 48.1
-22 4 -12 307.47 42.3
4 -12 -22 392.76 45.6
22 4 12 390.86 43.5
-4 -12 22 467.35 80.09
-4 12 -22 317.27 39.3
22 4 12 378.46 45.1
-4 12 -22 313.57 34.6
4 12 22 348.27 51.89
4 22 -12 324.17 31.6
-12 -4 -22 325.87 43.1
-4 22 12 384.66 49.8
12 -22 -4 342.17 44.9
4 -12 -22 272.07 33.1
4 12 22 300.77 46.3
-4 22 12 361.36 48.2
12 -4 22 327.47 51.29
-4 22 12 308.57 38
-12 22 -4 393.56 36.9
4 -22 12 389.06 59.19
-22 12 4 255.57 38
22 -12 4 343.27 47.7
-22 12 4 390.96 42.7
-12 22 -4 320.07 40.1
4 -22 12 343.17 52.19
22 -4 -12 338.77 28
-12 4 22 360.46 45.2
-6 22 -12 197.08 35.6
-22 12 -6 149.19 34.6
6 -12 22 116.89 43.2
12 6 22 94.39 46.4
22 -6 12 140.69 24.5
12 6 22 134.79 33.8
6 -22 -12 144.89 32.7
6 -22 -12 150.08 31.6
12 -6 -22 116.29 19
-22 12 -6 119.69 39.1
12 22 -6 167.48 21
-6 12 22 102.19 30.7
12 6 22 191.08 37.5
6 12 -22 79.29 25.5
12 -22 6 90.89 33.4
-12 6 -22 187.58 32.2
12 22 -6 173.98 29
12 -6 -22 120.29 30.8
-6 12 22 102.29 41.5
-12 6 -22 99.79 23.4
22 -12 -6 128.09 20.3
-12 -6 22 162.98 42.9
12 -22 6 124.29 29.5
-12 22 6 102.49 26.6
6 12 -22 111.19 21.5
6 22 12 173.68 29.5
22 -6 12 81.99 19.8
-22 6 12 74.59 22.3
-6 22 -12 80.09 15.9
-6 -22 12 102.79 30.9
22 -12 -6 164.18 29.7
12 -6 -22 106.79 34.1
-6 12 22 114.29 31.2
-12 22 -6 99.09 34.2
22 -12 6 75.49 19.5
-12 -6 -22 184.28 30.4
-22 12 6 76.89 35.8
6 12 22 105.29 28.4
-6 22 12 158.48 32.8
22 -6 -12 81.79 15
22 6 12 113.29 30.6
-6 -22 -12 163.78 39.4
-12 6 22 128.49 44.5
-6 22 12 41.2 30.2
12 6 -22 66.79 25.7
12 6 -22 120.69 19.6
-6 12 -22 116.99 18.4
-22 12 6 139.59 27.1
-12 6 22 132.99 37.4
22 -12 6 182.28 37.4
-12 -22 6 188.88 33.8
-22 6 -12 59.19 38.1
12 -22 -6 113.09 30.3
12 22 6 145.59 29.8
-12 6 22 129.19 29
-6 12 -22 61.69 33.7
12 -6 22 129.39 29.3
6 22 -12 130.09 19.6
-6 -12 22 99.19 37.3
-12 22 -6 123.99 19.1
-6 22 12 112.69 26.9
6 -12 -22 117.59 32.2
6 12 22 127.89 30.2
-12 22 -6 123.79 26.2
22 12 -6 106.89 17.6
6 -12 -22 160.68 31.8
6 22 -12 135.19 26.5
6 -22 12 129.99 34.5
6 -22 12 91.99 39.5
12 -6 22 93.39 44.4
-12 8 -22 405.46 36.6
-22 8 12 463.85 42
12 22 -8 454.35 33
-8 -22 12 444.56 51.39
-8 22 -12 447.76 31.4
12 -22 8 461.25 48.3
8 -22 -12 505.75 49.3
22 -12 -8 428.76 47.5
22 -12 -8 476.35 32.1
8 12 -22 422.56 39.2
8 -12 22 452.15 55.09
8 22 12 464.15 45.1
-8 12 22 363.56 49.7
22 -8 12 472.65 38.4
-12 22 8 450.95 41.9
22 -8 12 484.05 40.3
-8 12 22 461.55 62.19
-8 12 22 503.15 56.09
12 8 22 472.25 58.89
12 -8 -22 381.66 51.89
12 -8 -22 467.25 33.6
12 -22 8 358.26 46
12 22 -8 460.25 44.7
-12 -8 22 501.45 56.09
12 8 22 499.95 52.89
22 -12 8 594.54 79.69
-12 22 -8 414.66 32.6
22 12 -8 461.55 32.8
-12 8 22 510.25 63.99
8 12 22 508.05 53.29
22 8 12 585.74 53.99
22 -12 8 473.35 58.89
-12 -22 8 519.35 52.49
-8 -12 22 424.06 60.59
12 22 8 462.85 45.8
8 22 -12 494.25 32.9
8 -22 12 541.25 51.99
-12 8 22 510.15 48.4
-12 8 22 385.76 44.3
12 -8 22 342.67 48.8
-8 22 12 542.45 63.89
22 -12 8 411.66 37.7
12 -8 22 455.05 60.49
8 12 22 562.24 51.19
8 -12 -22 404.36 32.1
12 -22 -8 559.84 47.3
-8 22 12 475.05 43.5
-12 22 -8 330.67 47.9
-8 12 -22 440.26 33
8 -12 -22 409.86 50.69
-22 12 8 436.86 42.3
8 22 -12 489.75 42
22 -8 -12 450.85 30.4
-12 22 10 1195.68 57.19
22 10 -12 1109.79 47.8
10 22 12 1118.59 57.09
-12 10 -22 1072.29 47.8
22 -12 -10 1088.19 47.3
22 -10 12 1138.09 104.59
12 10 22 1029.9 62.79
10 -22 -12 1035.2 61.59
22 -10 12 1080.39 53.49
22 -12 -10 999 63.79
-10 12 22 1061.19 62.59
12 10 22 1083.39 63.39
12 -22 10 929.31 84.59
10 -12 22 984.7 79.99
-10 22 -12 1041.2 46.5
-10 -22 12 1016.7 60.59
-12 -10 22 1032.7 75.49
12 -10 -22 1098.89 47.3
12 22 -10 1126.69 56.69
-10 12 22 1207.48 69.29
12 22 -10 1135.49 47.9
22 -10 12 1099.79 53.19
-10 12 22 1123.99 73.29
12 -10 -22 982.7 65.19
12 -22 10 1081.09 63.69
10 12 -22 972.4 49.99
-22 10 12 1101.29 56.59
22 12 -10 1077.89 48.1
12 -10 22 917.71 84.39
-10 12 -22 1065.19 47.2
10 22 -12 1104.69 56.39
22 -12 10 1030.3 91.69
22 -10 -12 963 69.09
-12 22 -10 849.22 67.99
22 -10 -12 1071.99 46.6
22 -12 10 1072.69 52.59
10 -12 -22 1104.29 47.2
12 -10 22 1115.69 82.79
10 22 -12 1081.49 48.2
-12 10 22 1103.69 60.69
10 12 22 1115.69 60.59
-12 22 -10 1032.7 46.2
10 12 22 1055.59 62.79
-12 -22 10 1054.69 63.39
-10 -12 22 1080.29 69.69
10 -22 12 1051.39 62.99
-22 12 10 1014.2 54.79
12 22 10 1150.48 59.19
12 10 -22 1008.2 54.59
22 -12 10 1175.98 52.39
12 -22 -10 998.4 62.49
-12 10 22 1045.8 74.59
22 10 12 1057.79 67.09
-10 22 12 1096.59 56.79
-12 10 22 1032.4 74.29
12 -22 -12 959.9 61.29
12 -22 12 977.7 60.79
-22 12 12 1103.79 52.29
-12 -22 12 948.71 58.89
22 12 -12 1082.99 45.9
12 12 -22 939.01 49
-12 22 12 1029.6 53.39
22 -12 -12 992.6 43.9
12 12 22 1018.6 59.79
12 22 12 1043.7 54.39
22 -12 12 979 51.29
12 22 -12 1024.8 44.8
-12 -12 22 994.7 71.89
-12 12 22 1076.39 57.69
-12 12 22 908.41 119.79
22 -12 12 889.41 86.39
12 12 22 1080.09 60.79
12 -12 -22 976.8 43.6
-12 22 -12 990.2 43.5
12 -12 22 973.1 74.39
22 -12 -12 922.51 68.59
22 -12 12 1023.8 49.8
-12 12 22 1039.5 65.59
12 -12 -22 878.31 62.59
-12 12 -22 996.8 45
0 -14 22 255.17 46.5
22 0 -14 339.97 29
0 14 -22 413.86 32.3
14 -22 0 283.27 36.2
0 -14 -22 365.36 57.29
-14 22 0 337.17 47.7
0 -14 22 276.37 57.69
-14 22 0 377.66 40.9
0 -22 14 388.36 57.89
0 14 22 342.47 44.5
0 22 -14 291.27 27.5
14 0 22 263.17 52.59
0 14 22 316.17 38.5
14 22 0 371.86 46.1
14 -22 0 302.47 42.8
-14 0 22 240.18 48.9
14 0 22 354.26 48.5
14 0 -22 343.47 28.7
0 -22 -14 408.56 54.89
22 0 14 371.26 40.5
22 -14 0 268.77 33.3
0 22 14 396.56 58.09
0 -22 14 319.37 49.2
14 0 -22 399.56 50.49
14 22 0 317.87 34.4
-14 0 -22 373.66 39.8
0 -14 -22 364.46 47.6
-22 14 0 412.56 58.09
22 0 14 350.36 36.2
0 22 14 358.16 44.1
22 -14 0 305.57 31.6
14 -22 2 142.79 27.8
2 -14 22 228.18 49.9
-2 14 22 133.69 31.1
-2 14 22 200.58 38.7
2 -14 22 155.18 47
14 2 22 219.58 31.8
-2 14 22 165.98 30.4
22 2 -14 159.08 19.8
22 -2 14 80.29 20.4
14 22 -2 132.69 27.1
2 -22 -14 81.89 35.6
-22 2 14 99.19 24.4
2 -22 -14 180.58 44.3
22 -2 14 188.98 27.4
2 14 -22 134.59 19.5
-14 -2 22 87.69 40.9
14 2 22 174.18 55.09
-14 2 -22 140.99 43.2
-2 22 -14 183.48 23.4
2 22 14 83.79 25.1
-2 -14 -22 232.38 34.5
22 -14 -2 165.68 29.1
-14 22 2 117.29 26.7
14 -22 2 151.88 34
2 22 14 180.68 37.6
14 22 -2 92.69 18.3
-22 14 -2 122.39 26.6
14 -2 -22 137.69 19.5
-2 -22 14 147.99 33.8
22 -14 -2 138.49 20
-2 -22 -14 177.18 51.29
-22 14 2 118.99 25.5
22 2 14 121.79 24.4
14 -22 -2 82.29 27
22 -2 -14 104.99 16.2
-14 22 -2 156.88 25.5
-14 2 22 179.58 44.3
14 -2 22 137.69 29.2
22 -14 2 140.89 30.9
2 -14 -22 119.49 29.6
22 -14 2 169.18 23.2
-2 -14 22 144.89 40.7
2 -22 14 133.09 41.7
14 22 2 133.39 24.9
-14 22 -2 123.19 23.6
-2 22 14 157.38 31
2 22 -14 128.49 16.9
22 -14 2 207.78 45.3
-2 -14 22 167.18 64.29
2 14 22 192.38 32.1
14 -22 -2 146.49 26.5
2 14 22 173.08 31.6
2 -22 14 121.79 35.3
22 2 14 152.68 24.4
-2 22 14 155.18 32.4
-14 2 22 154.98 43.4
14 2 -22 113.29 18
14 -2 22 109.19 49.6
14 22 2 112.79 29.1
-2 14 -22 111.59 18.9
-2 22 14 168.58 28.4
4 22 14 11.7 21.3
22 -14 -4 -0.4 15
14 -22 4 0.6 23.5
14 -4 -22 -13.9 14.4
-4 -22 14 3.9 28.8
-4 14 22 13.3 31.6
-22 14 -4 -19.4 25.5
14 -22 4 3 31.8
-22 4 14 -3.6 20.3
-4 14 22 44.8 26
-4 22 -14 -4.5 13.7
4 22 14 -6.7 37.1
14 22 -4 -28.5 21.8
4 -22 -14 11 31.8
4 14 -22 24.5 16.7
14 4 22 -1 47.3
4 -14 22 84.69 96.09
-14 22 4 -8.7 21.7
22 -14 -4 -12.1 28.5
14 22 -4 17.6 15.7
22 -4 14 20 18.1
22 4 -14 28.6 18.9
-4 14 22 12.8 24.7
-4 -14 -22 7.1 30.7
4 -14 22 24.4 44.4
22 -4 14 24 21.4
14 4 22 22.5 26
-14 -4 22 -36.2 37.3
22 -14 4 -0.4 19.4
14 -22 -4 2.6 26.8
-4 -14 22 104.69 87.09
22 -4 -14 -2.3 12.3
4 14 22 33.4 25.6
22 4 14 -11.4 22.2
14 -4 22 69.39 44.6
-14 22 -4 7.1 17.4
-22 14 4 -5.8 19.4
14 22 4 15 26.1
-4 22 14 38.4 27.3
4 -22 14 38.2 34.3
14 -4 22 49.7 25.5
4 22 -14 -13.9 14.2
-4 -14 22 -8 35.3
4 14 22 -6.2 26.2
22 -14 4 -1.4 29.7
-4 14 -22 7.9 15.1
-4 22 14 54.19 28.9
-14 22 -4 17.1 22.9
-4 22 14 27.4 25.5
-14 4 22 -32.2 39
22 -14 4 -23.9 41.5
4 -22 14 14.7 34.4
-14 -22 4 -29.3 27.6
22 14 -4 17.9 15.7
14 -22 -4 0.4 23
-14 4 22 20.2 39.5
14 4 -22 6.1 14.9
4 -14 -22 89.59 28.6
14 22 -6 -15 21.8
6 -14 22 -11.7 38
14 -6 -22 13.8 37.9
-6 14 22 30.9 27
-6 14 22 20.6 24.7
6 -22 -14 37.4 30.9
14 -22 6 37.3 36.2
22 -6 14 46.1 20.6
-14 22 6 29.3 23.3
6 22 14 25 21.5
22 -14 -6 25.7 14.3
-22 6 14 28 19.9
-14 -6 22 59.29 38.9
-22 14 -6 2 31.4
14 -22 6 26.8 25.4
6 14 -22 37.6 16.1
-14 6 -22 16.5 18.5
14 22 -6 29.2 16.9
-6 -14 -22 101.79 36.5
14 6 22 96.49 29.4
14 -6 -22 32.5 14.1
22 -6 14 27.6 18.7
-6 -22 14 39.6 27.7
-6 14 22 9.5 29.1
-6 22 -14 15.3 13.3
22 -14 -6 38.6 29.8
22 -14 6 72.19 35
14 -6 22 6 41.1
-14 22 -6 17.1 15.6
22 -14 6 24.4 17.6
14 -6 22 35.2 26.1
-6 22 14 -10.4 27.5
14 6 -22 16.2 16.7
-14 6 22 41.3 36.9
6 22 -14 17.2 13.5
-22 14 6 22.2 20
14 -22 -6 16.8 27.5
-14 -22 6 -35.6 29.7
22 -6 -14 37.1 14.2
6 14 22 17 25
22 -14 6 60.49 41.3
-6 22 14 0.2 27.6
-6 22 14 12.5 25.7
6 14 22 -21.1 21.4
-6 14 -22 -5 14.9
-14 22 -6 33.2 23.7
6 -14 -22 68.19 30.5
6 -14 -22 30.4 14.8
22 6 14 36.7 26.1
6 -22 14 44.8 32.1
-6 -14 22 40.7 35.9
6 -22 14 60.39 42
22 14 -6 -3.9 13.2
-14 6 22 32.4 42.6
14 22 6 33.5 25.2
-14 22 8 38.4 20.5
14 -8 -22 39.6 15.2
-8 -22 14 52.69 26.8
-22 8 14 47 21.4
22 -14 -8 42 14.1
22 -8 14 46.2 16.7
8 -14 22 24.7 38.3
-8 -14 -22 131.99 46.4
-8 22 -14 38.5 14.2
22 -8 14 56.39 19.7
-8 14 22 32.7 28.1
-8 14 22 64.29 23.9
-14 -8 22 57.79 37.9
14 -22 8 88.69 42.6
14 8 22 33.8 27.2
22 -14 -8 55.19 29.6
14 -22 8 -7.3 23.8
8 -22 -14 50.19 32.6
14 -8 -22 30.4 36.6
8 22 14 86.59 23.1
8 14 -22 47.1 17.2
14 22 -8 10.1 22.7
14 22 -8 22.2 13.9
-14 8 -22 53.89 18.3
-8 14 22 106.09 31.3
22 8 14 56.09 26.8
22 14 -8 30.9 13
14 -22 -8 36.9 29.3
-14 22 -8 8.8 14.4
14 -8 22 45.1 38.9
-22 14 8 62.79 20.9
-8 -14 22 13.6 33.8
8 -14 -22 44.4 14.9
22 -8 -14 24.4 11.6
22 -14 8 68.19 39
-14 -22 8 78.99 31.4
8 -22 14 28.5 29.3
22 -14 8 38.4 19.2
8 14 22 23.3 26.4
8 22 -14 30.2 13.5
-8 22 14 44.5 25.1
14 -8 22 12.8 28.5
8 14 22 29.1 24.1
-14 22 -8 31.1 26.9
-8 14 -22 41.5 15.2
8 -14 -22 68.19 29.5
22 -14 8 -12 39.1
14 22 8 -16.6 23.7
-14 8 22 3.7 37.1
-8 22 14 72.79 33.9
22 -10 14 350.66 59.29
10 -22 -14 318.07 39
14 -10 -22 374.96 44.7
14 22 -10 365.76 28.3
-10 -22 14 315.17 46.8
-10 14 22 299.67 46.8
-10 14 22 366.36 52.59
14 -10 -22 337.77 26.2
10 -14 22 203.98 40.4
22 -14 -10 258.67 26.5
-14 10 -22 328.07 30.1
22 10 -14 314.97 27.7
-10 14 22 272.27 41.3
-10 22 -14 314.47 26.6
22 -14 -10 286.77 37.8
22 -10 14 331.37 35.4
-22 10 14 312.07 35.7
10 22 14 316.67 36.9
14 10 22 303.67 44.1
-14 22 10 280.87 37.3
14 -22 10 297.47 43.2
10 14 -22 287.67 32.1
-14 -10 22 384.26 59.69
14 10 22 340.27 39.7
22 -10 14 272.77 33
14 -22 10 244.48 58.59
22 -10 -14 310.27 25
-10 14 -22 309.77 29
-10 -14 22 311.87 42.9
14 22 10 289.57 40.7
-10 22 14 353.66 38.7
22 -14 10 298.17 35.3
22 -14 10 298.87 33.3
10 14 22 351.56 45.6
10 -14 -22 309.47 26.7
-22 14 10 307.67 35.6
10 14 22 236.98 29.6
-14 10 22 198.68 40.9
14 -22 -10 344.97 48.4
10 22 -14 305.47 27.3
22 -14 10 255.97 47.2
-14 22 -10 293.17 26.6
22 10 14 341.47 48.3
14 -10 22 215.88 42
22 14 -10 354.56 27.4
14 -10 22 301.97 43.7
10 -14 -22 246.08 35.8
10 -22 14 313.07 47.3
-14 -22 10 382.76 47.9
22 -14 -12 317.67 26.6
14 12 22 276.77 41.4
22 -12 14 315.17 32.6
12 -14 22 297.07 42.3
12 22 14 310.77 36.9
-14 12 -22 328.87 26.8
14 -12 -22 287.57 25.5
22 12 -14 313.47 28
22 -12 14 395.66 38.1
-12 14 22 322.47 40.8
22 -12 14 360.06 48.4
-14 22 12 345.17 37.9
12 -22 -14 337.57 40.7
14 -12 -22 404.86 56.79
-22 12 14 257.57 33.3
14 22 -12 300.37 26.7
-12 22 -14 327.37 27.1
-12 -22 14 443.66 49.99
14 -22 12 415.76 49.2
-14 -12 22 255.87 42.7
14 12 22 337.07 48.1
14 -12 22 307.57 43.1
-22 14 12 321.57 32.9
14 -22 -12 354.36 39.6
22 -14 12 318.07 34
22 -12 -14 328.97 25.3
-12 22 14 404.96 36.1
22 14 -12 306.47 25.4
12 -14 -22 318.37 40.8
-12 14 -22 323.47 27.9
-12 -14 22 377.26 57.79
22 -14 12 409.86 38.5
12 -22 14 403.66 49.4
-14 12 22 198.88 37.5
14 22 12 274.87 39.8
12 -14 -22 305.77 26.1
22 12 14 289.57 35.6
12 22 -14 355.36 27.1
12 14 22 326.27 41.9
22 -14 12 324.47 45
-14 -22 12 328.97 49.7
12 14 22 351.36 45.1
-14 22 -12 322.37 26.4
14 22 -14 35.9 11.6
14 22 14 48.6 20.6
14 -14 -22 78.19 13.8
22 -14 14 43.9 20.7
-14 -22 14 153.08 38.2
-14 -14 22 57.19 37
-14 22 14 74.09 19.6
-14 22 -14 59.29 12.4
-14 14 -22 62.89 12.7
22 -14 14 136.39 38.2
14 14 -22 72.39 15.7
-22 14 -14 62.29 12.2
14 -22 14 44.5 23.4
22 14 -14 48.6 12.7
-22 14 14 49.5 17.8
14 -14 22 57.69 31.7
22 -14 -14 83.89 13.2
14 14 22 41.6 26.2
22 -14 14 38.3 16.6
14 14 22 52.09 23.7
16 0 22 126.49 27.7
0 22 16 68.59 27.8
0 -16 22 97.19 40.5
0 16 22 89.19 24.7
-22 0 16 106.89 23.9
0 -22 16 180.48 59.39
0 16 -22 63.39 16
-22 16 0 127.69 26.2
16 -22 0 95.99 25.1
22 -16 0 90.69 20.5
22 0 -16 109.69 16.3
22 0 16 77.69 21.3
16 22 0 140.39 19.7
0 -22 16 146.09 33.2
-16 0 22 50.59 40.5
0 22 -16 122.99 16.8
0 -16 -22 91.79 30.8
16 0 -22 163.38 23.3
22 -16 0 119.09 34.4
0 16 22 102.99 25.9
22 -16 0 185.88 38.1
0 22 16 126.39 24.8
16 -22 0 92.49 34.2
16 22 0 84.49 25.4
-16 22 0 77.59 21.6
16 0 22 111.89 48.7
0 -16 22 5 52.89
2 22 16 34.1 28.8
16 22 -2 -5.1 15.2
-16 22 2 3.2 20.9
16 -2 -22 33.2 14.2
2 -16 22 10.4 45.1
22 -16 -2 29.8 16.2
2 -16 22 -1.8 44.5
2 16 -22 -5.8 14.5
16 22 -2 10.1 23.2
22 -2 16 71.49 22.6
-2 -22 16 -16.4 27.6
-16 -2 22 21.2 42.6
16 2 22 32.6 23.4
16 -22 2 11.3 31.9
2 22 16 58.89 23.5
22 -2 16 29.4 17
-2 16 22 26.9 24
-2 16 22 29.7 23.4
-22 16 -2 41.7 24.3
2 -22 -16 86.29 40.7
22 -16 -2 87.19 32.7
-2 -16 -22 -36.6 32.7
-2 22 -16 32.6 13.6
16 -22 2 10.5 21.9
22 -16 -2 55.39 35
22 2 -16 24.3 14.7
-22 2 16 20.1 20.1
16 2 22 9 48.7
-2 -16 22 -18.9 68.49
2 -16 -22 26 19.9
2 16 22 26.4 25.6
16 -2 22 27.9 22.8
22 2 16 13.7 20.6
16 22 2 21.3 19.3
16 -22 -2 76.79 31.7
16 -22 -2 49.4 23
16 2 -22 51.59 15
2 -22 16 33.5 44.6
16 -2 22 89.09 44.6
-2 16 -22 33.2 14.8
2 -22 16 55.99 34.9
-16 2 22 57.89 41.5
-16 22 -2 46 21.2
22 -16 2 14.7 17.9
22 -16 2 84.09 36.8
-2 22 16 1.9 23
22 -2 -16 34.5 14
2 -16 -22 83.79 32.2
22 -16 2 -6.3 32.4
2 22 -16 24.4 13.3
-2 22 16 31.6 25
16 22 2 18.9 26.5
-22 16 2 42.3 22.3
2 16 22 14.2 22.3
-2 -16 22 0.8 35.8
-22 4 16 11.7 19.5
-16 22 4 24.4 22
16 4 22 -3.2 23.6
16 -4 -22 13.1 12.4
16 -22 4 -1.2 22.6
22 -16 -4 16.6 30.1
-4 16 22 46.3 23.1
-4 16 22 20.7 24.8
22 -16 -4 92.29 37.6
16 22 -4 41.2 14.4
4 22 16 -12.9 30
-22 16 -4 23.3 26
4 16 -22 46.8 15.1
4 22 16 27.7 21.7
22 -16 -4 42.4 16.7
16 -22 4 34.5 34.7
-4 -22 16 46.8 28.5
22 4 -16 41.2 18.6
22 -4 16 18.3 19.9
-4 22 -16 12.1 10.7
-16 -4 22 -24.1 38.4
4 -16 22 12.8 40.9
16 22 -4 55.49 23.6
22 -4 16 12.5 16.1
16 4 -22 29.8 14.7
16 -22 -4 22.7 22
-16 -22 4 36.3 36.1
-16 4 22 -58.59 39.9
16 22 4 34.5 26.1
4 22 -16 19.5 13.4
4 16 22 -9.5 22.6
16 -22 -4 -0.3 29.7
-4 22 16 38.4 25.3
22 4 16 47.4 23
-4 16 -22 39.6 13.8
16 -4 22 30.1 23.7
4 16 22 33 24.7
22 -16 4 25.6 35.2
-16 22 -4 79.99 23.8
4 -22 16 -23.2 37.8
-4 -16 22 36.7 34.3
4 -16 -22 35.6 18.8
-16 22 -4 47.8 17.3
22 16 -4 26 13.1
22 -16 4 15.6 34.3
16 -4 22 50.59 43.8
4 -16 -22 57.49 30.4
22 -16 4 19.6 18.5
-4 22 16 52.69 24.2
4 -22 16 110.99 41.4
-22 16 4 53.99 22.6
22 -4 -16 18.5 13.2
-6 16 22 93.79 24.7
22 -6 16 169.38 24.5
16 -22 6 151.38 25.9
16 22 -6 159.48 18.3
16 -22 6 127.59 43.6
6 16 -22 96.39 17.8
-22 6 16 162.98 24.3
6 22 16 179.78 26.7
-6 -22 16 104.69 32.4
6 22 16 172.18 34.9
-16 -6 22 180.38 45
22 -6 16 121.09 20.5
16 -6 -22 156.48 23.2
-6 22 -16 100.19 14.7
6 -16 22 160.38 43.5
16 22 -6 134.39 25.9
6 -22 -16 135.89 36.6
22 -16 -6 173.98 35.1
-6 -16 -22 78.89 50.39
-6 16 22 141.79 27.8
-16 6 -22 162.98 21.8
22 -16 -6 139.99 19
16 6 22 191.48 30.9
-16 22 6 177.28 24.7
-6 22 16 161.98 27.3
-16 6 22 143.19 42.1
-16 -22 6 78.39 36.3
16 -22 -6 174.68 26.5
6 16 22 135.59 24.3
22 -16 6 158.78 40.5
16 6 -22 158.78 20.7
16 -22 -6 158.88 34.2
-6 -16 22 92.39 37.1
6 -16 -22 167.58 33.6
6 -16 -22 126.49 18.7
6 16 22 153.58 28.4
22 -16 6 170.98 40.4
-16 22 -6 218.48 29.3
22 -6 -16 153.48 21.9
-22 16 6 150.38 23.7
6 22 -16 166.48 23.2
22 -16 6 122.39 20.8
22 6 16 144.09 29.1
16 -6 22 120.39 27.3
22 16 -6 154.48 18.2
16 -6 22 192.18 43.6
-6 16 -22 159.18 18.7
16 22 6 148.99 27.5
-6 22 16 127.69 29.4
6 -22 16 166.88 37.6
-16 22 -6 133.39 28.8
16 -22 8 27.9 24.6
-8 16 22 15.3 25.7
8 -22 -16 -25.5 33.6
-16 -8 22 -76.99 37.4
8 -16 22 27.8 35.9
-8 22 -16 -9.9 12
16 -22 8 18.3 49
-16 22 8 5.7 19.3
22 -16 -8 -24.9 33.5
16 22 -8 83.69 22.8
-22 8 16 -13.5 18.7
-16 8 -22 8.9 15.2
-8 -22 16 -44.5 27.1
16 -8 -22 15.9 12.9
22 -8 16 -25.5 15.4
16 22 -8 -21.4 13.2
8 16 -22 -14.1 14.4
22 -8 16 4 18
8 22 16 45.7 21.5
22 -16 -8 -31.6 14.3
-8 16 22 30 21.6
16 8 22 21 25.5
8 -22 16 22.4 30.8
16 -8 22 -35 38.8
16 22 8 33.7 24.6
16 -8 22 24 26.2
-22 16 8 -8.3 18.1
-8 16 -22 1.9 13.6
22 -16 8 18 17.7
22 8 16 7.1 23.5
-8 22 16 0.4 25.1
16 -22 -8 20.6 21.5
8 22 -16 16.8 12.6
22 16 -8 -18.4 12.6
22 -16 8 17.3 44
-8 -16 22 31.4 35.7
16 -22 -8 -6.7 34
-16 22 -8 16.6 14.1
8 -16 -22 -17.1 32.7
-16 -22 8 -15.3 35.4
8 16 22 10.7 23.9
8 -16 -22 7.9 15.6
22 -8 -16 10.7 12.2
22 -16 8 7.3 35
-16 8 22 -2.2 39
8 16 22 -10.3 22.2
-22 16 -10 83.49 14.2
16 -10 -22 106.19 16.5
10 16 -22 112.79 16
-22 10 16 80.99 19.9
-16 10 -22 92.19 15.2
-10 16 22 103.39 22.8
10 -22 -16 169.98 61.69
10 -16 22 63.79 34.4
-10 22 -16 114.09 15.5
22 -10 16 71.99 49.99
16 -22 10 116.49 27.7
22 -10 16 153.18 23.2
16 10 22 96.89 25.5
-16 -10 22 129.59 43.1
-10 -22 16 85.39 31.7
16 22 -10 82.29 14.5
10 22 16 74.39 21.1
22 -10 16 96.39 19.8
-10 16 22 84.89 29.1
22 -16 -10 112.39 15.9
-16 22 10 96.39 21.1
16 -22 -10 122.99 37.1
10 16 22 82.79 25.1
22 16 -10 69.79 14
-10 16 -22 126.79 16.1
22 -16 10 36.7 36.9
-16 22 -10 96.39 14.9
22 -16 10 90.99 18.9
-22 16 10 56.49 19
-10 22 16 40.4 24.6
-16 -22 10 136.79 37.9
10 16 22 138.59 24.2
16 -10 22 58.99 36.9
-10 -16 22 80.09 33.2
10 -16 -22 94.09 33.4
10 -22 16 98.39 30.7
10 22 -16 87.99 15.7
-16 10 22 64.59 37.9
22 -16 10 141.79 22.3
10 -16 -22 94.69 14.7
22 -10 -16 81.39 12.8
22 10 16 81.59 25.2
16 22 10 100.39 25.4
12 16 -22 86.59 15.2
-12 -22 16 79.29 34.7
-16 22 12 70.39 19.4
22 -12 16 74.09 20.1
16 22 -12 89.39 13.7
12 22 16 78.79 20.3
-12 22 -16 86.89 12.9
-22 12 16 62.99 18.1
-16 -12 22 198.38 46.7
16 -22 12 98.89 24.1
16 12 22 53.49 20.9
12 -16 22 109.09 32
22 -12 16 -44.4 44.3
16 -12 -22 72.29 12.6
22 -16 -12 60.09 13.4
-22 16 -12 94.79 13.7
-16 12 -22 77.09 13.4
-12 -16 22 113.89 37.3
22 -12 -16 57.29 11.4
22 12 16 71.99 28
-22 16 12 66.89 18
-16 22 -12 82.89 13.3
16 22 12 83.69 24.2
-12 16 -22 78.09 13.2
16 -12 22 83.39 33.9
12 22 -16 82.29 14.3
22 -16 12 92.39 35.3
-22 12 -16 81.69 13.5
12 -16 -22 80.89 13.6
-16 -22 12 57.79 40
22 -16 12 93.89 20.5
16 12 -22 78.89 22.2
22 16 -12 71.99 13.1
-12 22 16 65.09 24.1
12 -22 16 129.29 28.9
12 16 22 74.89 22.3
12 16 22 81.29 22
22 -16 12 75.39 19
-16 14 -22 -4.4 10.2
-22 14 16 21.5 17.3
-16 -14 22 104.09 43.3
16 14 22 -4.9 20.5
22 -16 -14 6.4 11.3
16 -14 -22 11.6 10
-14 22 -16 -11.5 9.4
-22 16 -14 2 10.2
14 22 16 -36.3 18.8
16 -22 14 4.7 23.2
16 22 -14 13.3 10.2
14 -16 22 9.7 27.5
22 -14 16 2.3 40.3
-16 22 14 18.1 16.7
-14 -22 16 80.39 36
14 16 -22 7.7 13.3
22 -14 16 12.4 21.6
-14 -16 22 32.1 37.6
-16 -22 14 -33.4 37.8
-22 14 -16 -4.8 10.1
-22 16 14 -4.9 16.4
22 -16 14 54.99 34.2
22 -16 14 -45.2 19.4
-14 16 -22 -3.5 10.5
22 -14 -16 -1.3 9.7
14 -16 -22 22.3 11.3
14 -22 16 6.9 24.6
16 -14 22 6.8 30.1
14 16 22 -19.3 19.7
22 16 -14 -2.1 10.6
16 22 14 66.99 24
14 22 -16 -3.8 9.9
16 14 -22 0.8 15.7
-16 22 -14 0 10.1
14 16 22 -44.5 23.3
-14 22 16 -38.5 21.6
16 -16 22 61.59 28.8
22 -16 16 117.29 43.3
16 16 22 33.5 22.1
22 -16 16 48 38.3
-16 22 -16 42 9.8
-16 -22 16 59.39 45.7
-16 16 -22 35.8 11.1
-16 22 16 15.3 20.4
-22 16 16 46.6 17.7
16 16 -22 39.1 14.4
-16 -16 22 128.09 46
22 -16 -16 34.3 11.4
16 -22 16 3.3 24.4
-22 16 -16 27.1 9.8
16 -16 -22 53.19 11
16 22 -16 23.4 9.9
16 22 16 35.3 25.6
18 0 22 86.19 50.49
0 18 -22 202.98 25.5
18 -22 0 153.48 26.1
0 22 18 179.38 29.7
0 -18 22 188.88 56.19
0 18 22 202.58 28.7
0 22 -18 172.98 18.7
-22 18 0 164.98 25.7
18 22 0 207.38 28.2
0 -18 -22 241.18 53.99
-18 22 0 230.98 35.4
-18 0 22 226.38 48.3
-22 0 18 145.69 24.2
22 -18 0 223.98 42.1
0 -22 18 164.68 38.2
22 0 -18 198.78 22.2
0 18 22 158.58 26.2
18 0 22 165.58 27.2
22 -18 0 178.38 32.8
0 22 18 180.88 26.1
0 -18 22 226.08 44.2
22 -18 0 134.59 21.8
18 -22 0 145.19 37.9
22 0 18 171.98 25.4
18 0 -22 157.28 22.5
-18 -2 22 115.29 46
-22 18 -2 106.59 17.8
2 -18 22 -3.2 48.5
-2 18 22 56.49 23
-22 2 18 73.89 23.3
22 -18 -2 90.09 19.9
2 -18 22 59.59 47.6
18 22 -2 127.79 26.6
18 22 -2 83.19 17.4
18 -22 2 63.59 24.9
22 -18 -2 71.09 31.4
-2 -18 -22 152.48 63.19
-18 22 2 78.19 21.1
22 -2 18 94.89 24.1
2 18 -22 88.99 16.3
-2 -22 18 48 32.8
-2 18 22 56.59 23.6
-2 22 -18 66.39 13.2
22 -18 -2 46.3 33.7
18 -22 2 118.79 39.3
-22 18 -2 92.99 24.3
2 22 18 93.29 26.8
18 2 22 92.29 25.3
18 -2 -22 91.69 15.8
2 22 18 105.99 24
22 2 -18 73.79 15.9
2 18 22 84.09 25.8
-2 22 18 91.89 24.3
-2 18 -22 70.49 14.5
-18 2 22 4.1 44.8
22 -2 -18 79.89 15.2
2 -22 18 43.6 40.9
18 -22 -2 63.89 23.2
22 2 18 73.79 23
2 -18 -22 96.59 33.7
18 -2 22 58.19 47.3
-22 18 2 77.59 21.7
-2 22 18 78.09 24.6
-2 -18 22 110.29 39
2 -22 18 105.39 44.2
18 -22 -2 94.39 37.1
2 18 22 115.49 22.6
22 -18 2 69.49 20.3
18 22 2 75.69 26.1
-18 22 -2 69.79 22.2
22 -18 2 147.29 41.7
-22 -2 18 64.09 21.9
2 22 -18 54.89 13.9
18 2 -22 65.09 14.9
18 -2 22 83.39 24.6
22 -18 2 122.29 32.7
-4 -22 18 9.6 31.5
-4 18 22 -7.7 22.1
18 22 -4 -16.6 13.4
18 22 -4 12 22.9
18 -4 -22 -9.6 12
-18 -4 22 50.39 47.3
18 -22 4 -28.3 20.9
-4 18 22 -36.5 19
4 18 -22 0.6 13.3
22 4 -18 -6.8 16
22 -18 -4 21.7 29.8
18 4 22 18.1 25.4
4 22 18 -4.2 19.6
-18 22 4 9 19.6
4 -18 22 -63.29 40.1
22 -4 18 -14.7 18.7
22 -18 -4 23.3 35.4
4 22 18 2.5 24.8
-22 18 -4 17 14.5
18 -22 4 -48.9 41.7
-4 22 -18 19 12.9
22 -18 -4 -7.3 15.7
-22 4 18 48.1 21.2
-22 18 4 -10.4 18.4
-4 18 -22 -14.6 11.7
22 -18 4 -1.8 29.9
22 -18 4 -66.59 40.7
18 -4 22 12.8 22.2
18 -22 -4 -17.5 22.7
-4 22 18 -9 21.7
-4 22 18 28.3 23
22 -18 4 -4.2 17.6
-18 22 -4 -1 16.4
4 18 22 -1.5 21.2
18 4 -22 -18.7 13.7
-4 -18 22 -7.3 35.1
22 4 18 14.1 21.8
18 22 4 24.1 25.3
22 -4 -18 -6.2 11.7
-18 22 -4 -7.2 20.4
4 18 22 13.4 21.7
18 -4 22 -38.2 40.6
4 -22 18 -3.7 37
4 -22 18 -104.99 48.9
-18 4 22 -56.29 44.8
4 22 -18 -11 11.9
18 -22 -4 -20.5 31.9
4 -18 -22 -36.7 34.1
-18 -6 22 23.5 46.3
-18 22 6 18.6 19.4
22 -18 -6 77.49 62.99
-6 -22 18 8.8 31
-18 6 -22 29.8 17.9
18 6 22 40.7 22.8
-22 6 18 40.1 20
22 -18 -6 8.6 29.9
6 22 18 44 19.8
18 -6 -22 20.3 11.8
6 -18 22 3.6 36.3
6 18 -22 31.1 13.4
22 -18 -6 57.09 15.6
6 22 18 23.9 26.1
18 22 -6 23.3 12.8
-6 18 22 19.3 20.9
-6 22 -18 39.3 12.4
18 -22 6 36.8 24.1
22 -6 18 33 18.7
-6 18 22 12.2 21.6
-22 18 -6 5.7 12.7
22 -18 6 35 49.9
-6 18 -22 17.9 11.8
22 6 18 -20.8 20.9
22 18 -6 51.99 14.1
-6 22 18 48.5 22.2
18 -6 22 6 21.3
6 -22 18 21.6 35.7
6 18 22 20 23.7
22 -18 6 -28.7 30.7
-6 22 18 12 23.3
18 -6 22 65.39 41.8
6 18 22 4.6 19.7
-18 22 -6 52.49 14.7
6 -18 -22 42.4 48.3
18 -22 -6 65.99 37.8
18 -22 -6 -19.3 20.2
18 22 6 -1.3 26.7
22 -18 6 36.3 19.2
-6 -18 22 25.7 36.4
-22 18 6 8.3 18.5
6 22 -18 -4 12.3
22 -6 -18 30.4 12
-18 22 -6 29 23.1
-18 6 22 28.8 44.2
18 -8 -22 2.7 10.5
22 -18 -8 31.4 14.8
18 -22 8 43.8 23.1
-22 18 -8 -6.1 11.4
8 18 -22 20.2 13.3
18 22 -8 -13 10.5
-8 -22 18 -41.3 30.4
8 22 18 -11.8 18.1
-8 18 22 -7.9 17.8
-22 8 18 23.6 18.6
-8 18 22 -9.6 24
-18 -8 22 -23 43.3
-18 8 -22 6.2 13.7
-18 22 8 -1 16.3
22 -8 18 -27.9 16.6
8 -18 22 29.9 33.5
-8 22 -18 1.3 9.7
18 8 22 17.1 21.7
-22 18 8 -2.3 16.3
18 -22 -8 -9.7 19.7
8 18 22 44.8 22.5
8 22 -18 14.4 11.1
18 22 8 -49.4 27
-22 8 -18 10.3 11.1
22 -18 8 -1.4 29.1
8 18 22 26.4 18.6
8 -22 18 1 30.9
18 -8 22 -8.5 21.6
22 -18 8 7.6 18.7
-18 22 -8 2.2 12.1
-8 22 18 44.5 27.9
-8 18 -22 3.8 10.9
-8 -18 22 -40.1 31.9
18 -8 22 -39.6 37.3
22 8 18 21.5 21.4
-18 8 22 34.5 45.6
22 18 -8 17.5 11.1
22 -8 -18 1.6 9.6
22 -18 8 -29.6 17.4
-18 22 10 136.99 20.1
-10 -22 18 100.79 31.8
-22 10 18 152.08 22.1
10 -18 22 104.29 32.6
-22 18 -10 101.19 13.9
22 -18 -10 162.98 23.6
18 10 22 125.89 23.1
-18 10 -22 164.48 22.1
10 18 -22 168.08 21.7
18 22 -10 156.28 20.5
10 22 18 167.28 21.3
-10 18 22 132.39 21.1
-10 22 -18 164.48 19.2
18 -22 10 181.98 26.6
22 -10 18 123.79 21.8
22 -10 18 170.98 50.19
18 -10 -22 155.68 18.8
-18 -10 22 188.78 49.9
22 -18 10 117.89 34.1
18 -10 22 120.39 36.7
22 -10 -18 140.29 17.7
18 -22 -10 170.28 23.7
22 18 -10 157.28 19.4
10 18 22 155.28 24.9
18 -10 22 135.19 27.2
-18 -22 10 208.68 61.09
-10 -18 22 150.38 37.5
10 18 22 147.79 21.9
-10 18 -22 154.48 20
22 -18 10 138.29 21.5
-22 10 -18 137.79 19.1
22 -18 10 170.78 24.5
22 10 18 119.29 24.6
-22 18 10 135.49 20.6
-18 22 -10 144.89 21
10 22 -18 134.29 19.6
10 -22 18 130.69 31.1
10 -18 -22 222.98 25
-12 -22 18 107.59 37.3
-22 18 -12 184.38 19.1
22 -12 18 178.68 24.7
-12 22 -18 166.98 18.1
18 12 22 149.09 24
22 -12 18 233.28 46.5
-18 22 12 166.58 19.9
12 -18 22 159.78 31.8
18 -12 -22 160.58 17.9
22 -18 -12 182.88 22.5
12 18 -22 122.79 14.8
18 -22 12 147.79 26.4
12 22 18 164.58 21.6
-22 12 18 173.08 22.5
18 22 -12 152.08 18.1
-18 12 -22 200.28 20
-18 -12 22 159.38 49.6
18 -22 -12 157.78 21.6
-12 18 -22 140.69 19.3
12 -18 -22 174.68 23
22 -18 12 143.49 34.2
12 18 22 154.08 24.7
18 -12 22 59.19 33
22 -18 12 185.98 28.5
-22 12 -18 189.08 19.5
-18 -22 12 30.1 66.89
-18 22 -12 162.98 19.1
12 -22 18 166.88 29.6
22 -12 -18 139.29 17.5
-12 -18 22 109.19 40.6
22 18 -12 147.79 18.8
12 22 -18 141.99 18.8
12 18 22 192.18 23.3
-22 18 12 181.68 27.1
22 12 18 165.88 26.7
-14 -22 18 -20 39.5
-18 22 14 14.4 15.6
14 18 -22 -10.3 11.9
-22 18 -14 2.4 8.9
18 -22 14 -9.1 23.1
18 14 22 -4.7 21.3
14 -18 22 10.6 26.1
-18 -14 22 78.69 51.09
-22 14 18 -7.8 19.9
18 22 -14 -4.1 9.1
14 22 18 13.4 20
22 -18 -14 -0.4 12.2
-14 22 -18 -7.3 8.9
18 -14 -22 7.8 9.3
22 -14 18 22.3 24.3
-18 14 -22 -5.5 10
22 -14 18 32.4 41
14 18 22 34.8 24.1
22 -18 14 16.8 33.9
-22 14 -18 5.9 9.8
-14 18 -22 11.4 10.2
22 18 -14 21 9.7
22 -14 -18 8.9 9.2
-14 -18 22 39.4 39.2
14 -18 -22 4.3 13.2
14 18 22 -14 22.3
-18 22 -14 -2.6 9.9
18 -14 22 9 29.2
14 22 -18 16 9.4
18 -22 -14 -12.5 19.8
-22 18 14 4 15.6
-16 22 -18 1.8 8.6
18 -16 -22 10.8 10.4
22 -16 18 142.99 42.4
16 -22 -18 13.3 17.6
-18 16 -22 13.1 9.6
18 -22 16 -21.9 23.9
16 -18 22 4.7 27
22 -18 -16 10.2 12.5
-22 16 18 44.2 26.6
-22 18 -16 6 8.4
16 18 -22 10.3 13
-18 22 16 28 20.5
18 22 -16 27.1 9.4
16 22 -18 9.8 9.3
16 -22 18 30 26.1
-22 18 16 50.59 19
18 -22 -16 21.2 22.5
22 -18 16 -34.1 36.3
-18 22 -16 7.7 9.4
-16 18 -22 9.4 9.5
-22 16 -18 8.1 8.8
18 -16 22 11.4 28.6
-16 -18 22 60.69 51.49
22 -16 -18 15.2 10.3
-22 20 0 482.05 37.5
0 22 20 462.65 39.1
22 0 20 463.15 39
-20 0 22 425.16 63.29
20 -22 0 505.65 43.3
0 22 -20 479.75 28
0 20 22 485.75 40.4
-20 22 0 459.05 36.2
0 22 20 501.55 36.8
0 -22 20 449.95 63.79
-22 0 20 415.66 41.1
22 -20 0 468.75 37.8
22 -20 0 526.65 46.1
0 20 22 447.36 37.2
20 0 22 486.05 40.7
0 20 -22 494.95 27.6
20 0 -22 496.75 26.9
0 -20 22 498.05 66.09
22 0 -20 531.35 27.5
-20 -2 22 411.66 60.99
-22 20 -2 319.97 35.9
2 20 -22 364.86 25.1
-20 22 2 413.56 34.5
2 22 20 320.87 33.1
22 -20 -2 366.06 46.9
22 2 -20 357.26 26.6
20 -2 -22 390.46 24
2 22 20 388.46 39.7
-2 20 22 333.67 36.6
22 -2 20 357.66 35.9
2 -20 22 422.26 54.19
2 -20 22 394.16 65.49
22 -20 -2 301.57 34.7
-2 20 22 333.37 35.2
20 2 22 399.66 38.6
-2 -22 20 334.77 53.79
-22 2 20 402.06 37.4
-2 22 -20 337.87 25.3
20 -22 2 377.06 38.1
22 -20 2 358.16 36.2
22 -2 -20 399.26 23.9
-20 22 -2 381.56 35.2
20 -2 22 478.55 38.7
-20 2 22 284.57 60.19
-2 -20 22 301.57 45.8
2 20 22 358.56 34.8
2 22 -20 342.67 24.6
22 -20 2 334.27 47.3
2 -22 20 395.76 54.69
2 -22 20 359.06 55.59
20 -22 -2 347.47 38.5
-2 22 20 458.15 36.6
20 2 -22 399.26 26.1
22 2 20 353.56 36.9
-2 22 20 380.26 34.5
-22 -2 20 300.67 38.9
2 20 22 368.06 39
-2 20 -22 373.36 25.8
-22 2 -20 414.56 30.5
-22 20 2 403.06 35
-4 20 22 144.09 22.8
-22 20 -4 125.19 17.3
20 -22 4 153.98 26.4
-22 20 -4 90.29 24
20 -4 -22 158.38 19.1
22 -4 20 208.48 31.4
-4 20 22 138.99 21.8
-4 -22 20 66.59 34.6
-20 -4 22 98.09 55.19
20 22 -4 117.39 14.4
4 22 20 123.59 20.4
20 4 22 131.99 21.9
22 -20 -4 64.49 28.7
-22 4 20 114.39 25
4 -20 22 163.38 41.8
22 -20 -4 126.79 20.6
-4 22 -20 133.59 14.9
4 20 -22 145.79 15.7
4 22 20 137.19 24.7
-20 22 4 101.49 19.5
-4 20 -22 116.19 14.1
4 20 22 151.78 22.5
-22 -4 20 133.99 24.9
-4 22 20 180.08 23
22 4 20 94.89 20.9
22 -4 -20 119.69 17.6
-4 22 20 120.99 22.6
20 -4 22 85.29 57.89
20 -22 -4 122.79 23.6
4 22 -20 120.09 14.2
4 -22 20 141.99 45
4 20 22 121.79 22.7
-20 22 -4 126.79 17.8
-4 -20 22 98.59 38.9
-22 4 -20 145.69 16.4
22 -20 4 161.68 24.8
-20 22 -4 140.89 23.1
20 4 -22 137.19 17.2
22 -20 4 104.09 28.7
20 -4 22 120.09 21.2
-6 20 22 63.89 22
-6 20 22 0.2 16.9
-22 6 20 -9.2 22.5
22 -6 20 40.6 18.1
6 20 -22 16.7 12
20 -22 6 21.6 22.9
20 6 22 5.1 18.8
6 22 20 4.2 23.2
20 22 -6 33.7 11.5
-22 20 -6 30.3 13.4
-20 22 6 31.7 16.1
-20 6 -22 27.7 15.9
6 22 20 17.6 17
6 -20 22 5.6 35.9
-20 -6 22 -34.9 54.99
-6 22 -20 18.8 10
20 -6 -22 1.2 9.6
22 -20 -6 25.3 18
-6 -22 20 4.9 34
22 -20 -6 25.1 27.4
6 22 -20 13.7 10.9
6 20 22 12.3 19
20 -22 -6 19.8 22.5
-22 -6 20 -4 22.5
20 -6 22 -74.29 43.7
-6 22 20 4.6 16.8
20 -6 22 10 18.8
-22 20 6 21.6 16.3
-6 22 20 15.1 21.7
22 -20 6 23.8 19.5
-6 -20 22 46.3 36
22 -20 6 -4.9 27.4
22 6 20 -1.8 19.2
-20 22 -6 -6.8 12.8
-20 6 22 76.09 57.29
-22 6 -20 21.5 12.3
-6 20 -22 22.2 11.3
6 20 22 46.4 18.2
22 -6 -20 21.3 10.4
6 -22 20 54.79 37.7
-22 8 20 55.79 24.6
22 -20 -8 89.49 30.8
-22 20 -8 92.29 13.7
-8 20 22 44.7 17.3
-8 20 22 148.59 25.6
8 -20 22 36.7 32
-20 22 8 96.49 17.8
8 22 20 38.3 17.1
-20 8 -22 96.49 14.2
22 -20 -8 78.39 18
20 22 -8 78.39 12
8 22 20 50.49 28.6
-8 -22 20 86.49 36.1
8 20 -22 59.79 12.1
22 -8 20 81.29 19.8
20 -8 -22 58.99 11.2
-8 22 -20 76.59 11.2
-20 -8 22 116.69 63.49
20 8 22 74.99 20.5
20 -22 8 67.99 24.6
22 -20 8 90.09 23.7
20 -8 22 106.99 21.8
8 20 22 52.59 20.9
-8 -20 22 66.69 37.5
-8 22 20 88.59 29.6
20 -8 22 22.5 42.6
8 20 22 80.39 18.1
20 -22 -8 95.19 23.6
-22 -8 20 81.79 24.6
8 -22 20 52.69 33
-20 22 -8 79.19 13.1
22 8 20 83.69 21.2
22 -8 -20 45.3 10.4
8 22 -20 91.39 13.3
22 20 -8 84.19 12
-8 20 -22 79.39 12.1
-22 20 8 71.39 17.8
-22 8 -20 70.69 13.5
22 -20 8 109.09 28.4
10 20 -22 401.06 24.5
20 -10 -22 407.46 22.4
20 22 -10 439.36 23.8
-20 22 10 394.66 29.3
-10 -22 20 319.57 48.3
20 10 22 370.26 35.2
-10 22 -20 376.76 22.8
-20 -10 22 542.55 101.49
10 22 20 409.46 29.8
10 -20 22 415.56 51.39
-22 20 -10 440.06 24.5
22 -10 20 407.76 37.2
-20 10 -22 417.76 24.3
20 -22 10 396.06 40.9
22 -20 -10 381.36 31.6
10 20 22 438.36 32.2
-22 10 -20 380.06 22.9
-10 20 -22 389.36 23.6
22 10 20 327.87 37.6
10 -22 20 433.46 52.29
22 -10 -20 409.36 23
-20 22 -10 386.46 24.2
20 -22 -10 409.76 37.4
22 -20 10 462.95 50.39
22 20 -10 378.46 22.5
-22 20 10 406.66 30.7
10 22 -20 435.86 24.7
-10 -20 22 404.76 48.9
10 20 22 416.56 37.7
20 -10 22 375.26 38.3
20 -10 22 423.56 65.39
20 -12 -22 446.26 22.9
20 22 -12 486.85 23.3
20 -22 12 337.37 41.4
22 -12 20 404.96 40.5
-12 -22 20 424.46 55.99
-22 20 -12 454.75 23.4
20 12 22 506.95 37.3
12 -20 22 410.76 45.7
-20 22 12 464.75 29
12 20 -22 459.95 24.1
12 22 20 441.96 31.9
-20 12 -22 430.36 24.3
22 -20 -12 373.26 32.9
-12 22 -20 459.45 22.7
-12 20 -22 400.06 23.1
12 -22 20 422.46 45.7
22 -12 -20 425.46 22.3
22 -20 12 390.26 50.49
-12 -20 22 345.77 45.6
-22 12 -20 435.26 22.9
-20 22 -12 436.76 23.5
12 20 22 436.66 32.8
-22 20 12 460.05 29.1
22 12 20 321.97 41.9
20 -22 -12 399.16 38.4
12 22 -20 422.56 23.1
-20 22 14 99.59 17.7
14 -20 22 126.39 27.8
20 22 -14 108.29 11.6
-20 14 -22 97.69 11.3
-22 20 -14 111.19 15.4
20 -22 14 48 25.8
14 20 -22 92.89 12.8
-14 22 -20 70.89 10.5
-14 -22 20 178.28 60.29
20 -14 -22 124.29 15.5
14 22 -20 101.69 11.5
-20 22 -14 114.49 15.7
-14 -20 22 7.6 50.39
14 -22 20 82.09 26.7
22 -14 -20 107.09 15.9
-22 20 14 107.09 18.2
-22 14 -20 135.89 16.8
22 -20 14 55.49 35.4
-14 20 -22 98.19 11.4
20 -14 22 131.79 38.9
0 -22 22 701.43 75.59
22 0 -22 581.74 29.6
0 22 22 628.84 37.7
22 0 22 648.34 38.6
22 -22 0 560.34 46.5
0 22 -22 657.93 29.6
-22 22 0 604.94 37.3
0 22 22 657.03 36.1
-2 22 22 474.55 33.6
22 -22 2 460.25 42.2
2 22 22 493.05 32.3
-2 22 -22 530.85 26
2 22 -22 427.26 25.2
-2 -22 22 429.76 65.49
-22 22 -2 416.56 34.3
22 -2 -22 504.55 25
22 -22 -2 511.45 44.8
-22 22 2 472.65 32.9
-2 22 22 475.75 34.2
22 2 22 516.65 36.1
22 -2 22 460.45 36
22 2 -22 438.46 27.6
2 22 22 473.45 35.5
22 -4 22 246.78 30.7
-22 22 4 172.88 26.7
-4 22 22 232.68 29.1
22 -22 4 215.78 24
22 4 22 242.48 31.6
22 -4 -22 184.08 17.8
4 22 22 220.68 26.7
22 -22 -4 184.58 28.8
-4 -22 22 239.68 44.6
-22 22 -4 205.38 26.1
22 -22 4 220.98 29
4 22 22 220.78 33.9
-4 22 -22 198.68 19.4
4 22 -22 134.99 18.8
-4 22 22 198.58 28.6
4 -22 22 139.39 46.7
6 22 22 35.2 15.5
6 -22 22 46.3 37.3
22 -6 -22 43.2 9.8
6 22 -22 31.4 11.5
6 22 22 22.7 21
22 -6 22 48.2 17.7
22 -22 6 44.3 24.5
-6 -22 22 1.5 38.7
-6 22 22 20.4 21.6
-22 22 -6 10.2 13.3
-6 22 -22 32.9 10.6
22 -22 -6 21.4 27.7
22 6 22 19.1 17.2
-22 22 6 32.5 15.2
22 -8 -22 126.79 16.3
22 -22 8 119.89 29.4
8 22 22 118.69 17.9
8 -22 22 186.28 36
-22 8 -22 148.69 14.8
-22 22 -8 119.09 14.1
8 22 -22 98.99 12.3
22 8 22 135.69 19.8
-22 22 8 124.39 17.5
22 -8 22 224.28 31.5
-8 -22 22 195.08 39.6
-10 22 -22 537.45 23.6
10 22 -22 469.15 24.3
22 -10 22 415.96 40.3
-22 22 -10 468.85 25.6
22 10 22 573.84 40.6
-22 10 -22 490.75 25.5
22 -10 -22 521.25 23.7
-22 22 10 516.45 29.1
22 -22 10 344.27 49.1
10 -22 22 516.05 49.1
-10 -22 22 396.46 58.89
10 22 22 497.95 30.3
12 22 -22 502.85 24.2
22 -12 -22 519.25 22.4
-12 22 -22 529.05 23.2
12 -22 22 438.06 45
-22 22 12 474.65 27.9
-22 22 -12 490.95 24.8
-1 -23 1 1120.39 71.59
-1 23 1 1147.19 58.99
-1 1 23 1204.58 105.59
-1 -1 23 1166.48 81.19
-1 23 1 1127.49 66.39
1 1 23 1085.79 106.59
-1 -1 23 1187.58 86.39
-1 1 23 1143.09 80.29
1 -1 23 1123.69 84.79
-1 -1 23 1133.09 108.39
1 23 -1 1142.09 64.79
1 23 1 1163.48 60.09
1 -1 23 1222.48 101.49
-1 -1 -23 1028.5 54.99
-1 1 -23 1115.89 55.39
1 -1 -23 1057.69 54.99
1 1 -23 1158.68 53.99
1 -23 1 911.01 64.59
23 1 1 1101.29 53.69
1 -1 23 965.9 90.29
1 1 23 1056.99 79.09
1 23 -1 1207.38 59.89
-1 23 -1 1068.79 64.79
-1 1 23 1091.79 86.19
23 -1 1 1078.79 51.49
-1 23 -1 1103.79 57.49
1 1 23 1151.88 82.79
23 -1 -1 1103.59 51.89
1 23 1 1027.5 63.39
23 1 -1 1149.58 53.19
1 -3 23 416.76 57.99
1 3 -23 471.35 41.4
3 1 23 483.45 50.09
23 3 1 373.96 37.6
3 1 23 447.96 59.29
-3 1 -23 436.96 45.1
-1 23 -3 453.65 38.7
3 1 23 356.96 55.39
23 3 1 439.76 42
3 -23 1 473.45 50.09
-1 3 23 553.14 64.79
-1 3 23 439.86 66.09
1 -3 23 452.65 53.39
-1 23 -3 464.35 54.29
-3 23 1 509.55 43.2
-23 3 -1 429.56 56.29
1 -3 23 472.45 54.59
-1 -3 -23 414.66 42.3
23 -3 -1 456.85 35.4
-3 23 1 502.65 54.59
3 23 -1 543.05 44.2
3 23 -1 504.35 41.8
-1 23 -3 508.15 45.1
23 -1 3 541.05 39.3
23 1 -3 448.46 35.2
1 23 3 521.45 46.8
1 23 3 516.45 51.19
-3 -1 23 484.25 65.99
-3 -1 23 695.23 97.09
3 -1 -23 388.96 40.1
-3 -1 23 434.46 51.89
3 23 -1 480.45 51.49
-1 3 23 550.94 69.89
-1 -23 3 400.96 44.1
3 -1 23 458.15 52.49
23 3 -1 490.95 40.2
1 23 -3 473.85 40.6
-3 23 -1 519.85 55.69
1 23 -3 548.55 52.69
-1 23 3 514.05 45.5
-1 -3 23 496.45 70.99
1 3 23 555.24 76.69
-3 1 23 473.65 58.29
-3 1 23 566.64 68.79
1 -3 -23 405.66 39.9
1 -23 3 446.66 58.39
1 23 -3 531.95 44.9
3 23 1 479.85 42
-1 -3 23 495.15 61.49
3 23 1 498.35 50.79
-1 3 -23 474.85 42.9
3 -1 23 526.15 64.09
23 -3 1 465.95 36.1
-3 23 -1 513.55 45.1
3 -1 23 465.25 61.59
23 -1 -3 472.75 35.1
-1 23 3 466.65 52.69
3 1 -23 468.95 40
23 1 3 484.15 40.9
-3 1 23 544.35 74.19
-1 3 -23 454.15 37.8
1 3 23 497.25 65.69
-3 -1 -23 455.15 44.5
1 3 23 457.65 62.49
3 3 -23 277.17 36.6
23 -3 3 265.37 33.6
-23 3 -3 257.17 37
23 3 -3 237.78 34.7
23 3 3 232.68 28.5
-3 -3 -23 245.98 29.9
-3 23 3 190.38 28.2
-3 -3 23 287.17 63.69
-3 3 23 258.17 42.1
3 -3 -23 183.48 25.5
-3 23 -3 195.58 27.6
-3 -3 23 217.58 42.9
-3 3 23 298.77 47
3 -3 23 249.78 52.59
3 3 23 175.88 51.59
3 23 3 274.87 31.2
3 3 23 282.27 39.5
23 3 3 288.77 32.7
-3 23 -3 240.58 35.9
-3 23 3 269.67 36.7
3 3 23 312.97 40.6
3 23 -3 204.38 32.1
3 23 3 310.77 46.8
3 -3 23 296.17 49.99
23 -3 -3 305.77 29.6
3 23 -3 270.87 39.8
3 3 23 245.18 55.19
-3 3 -23 250.67 33.7
3 23 -3 249.97 34.2
3 -23 3 246.78 35
3 -3 23 243.88 54.19
-3 3 -23 238.98 31.1
-3 23 -3 266.67 35.1
-1 -5 -23 11.9 23.8
1 -5 23 15.9 44
5 23 -1 39.9 20.1
5 1 23 -7.9 92.79
-1 5 23 47.9 28.4
1 5 -23 23.2 24.5
1 23 5 10.6 22.5
23 1 -5 3.5 16.9
-5 1 -23 13.5 19.8
-5 -1 23 14.4 35.8
-5 23 1 -5 33
-1 23 -5 -37.3 24
5 23 -1 -21.1 21.1
-1 5 23 2.8 38.2
-1 -23 5 1 38.4
1 23 5 -1.6 26.9
-23 5 -1 -8.6 28.6
5 23 -1 12.5 25.2
-1 23 -5 3.6 22.8
5 -23 1 35.3 26
5 -1 -23 -14.4 21.9
23 -1 5 16.8 19.3
5 1 23 -39.4 31.3
-1 5 23 36.9 34.3
23 -5 -1 14.6 18.3
1 -5 23 -3.5 47.4
-1 23 -5 32.7 18.6
23 5 1 12.1 27.5
5 1 23 32.7 49.2
23 -5 -1 -10.3 31.3
-5 -1 23 -7.9 57.89
1 5 -23 47.2 22.2
-5 23 1 12.3 21.9
-1 -5 23 -24.8 49.1
23 -1 -5 20.1 16.4
1 5 23 22.3 31.3
-5 1 23 -23.5 38.7
23 5 -1 -11.8 26.8
-1 23 5 31.3 28.8
1 -5 -23 18.1 22.5
1 5 23 39.4 44.1
1 -23 5 -2.1 31.7
-23 1 -5 33.7 37
5 23 1 17.4 26.6
-1 5 -23 15 24.8
-1 5 -23 -3.2 20.4
1 5 23 24.2 33.8
23 1 5 26.1 22.2
5 -23 -1 6 38.3
-5 23 -1 -6.2 33.1
23 -5 1 10.9 17.4
1 23 -5 -28.4 20.1
-23 5 1 10.7 26.9
23 1 5 -5 22
5 -1 23 9.5 36.4
-1 23 5 -17.5 21.9
1 23 -5 12.2 17.4
5 23 1 1.9 21.3
-5 1 23 -76.19 39.9
-5 23 -1 7.5 20.7
1 23 -5 1.5 25.4
-1 -5 23 53.59 40.4
23 -5 1 -22.3 29.6
5 -1 23 -66.19 45.6
1 5 23 -5.5 41.7
5 1 -23 16 20.3
3 23 5 1.1 22.1
-5 23 3 9.1 21
-5 3 -23 2.6 20.2
5 23 -3 -12.7 17.4
5 -23 3 -4.9 24.7
5 23 -3 14.9 26.3
23 -5 -3 1.5 14.4
-5 -3 23 4.6 62.29
5 3 23 6.9 59.49
23 3 -5 21.8 19.7
-3 23 -5 35.1 28.2
5 3 23 -9.5 31.7
23 5 3 38.2 30.6
-3 -5 -23 4.6 25.6
5 -3 -23 9.8 22.8
3 23 5 10.2 26.2
5 3 23 -31.1 29.4
-3 5 23 72.09 40.2
3 -5 23 5 49.6
-3 23 -5 -7 23.4
23 5 3 -20.7 28.1
3 5 -23 9.9 25.4
5 3 23 -1.6 51.19
-23 5 -3 40.4 31.4
-5 -3 23 65.99 40.6
-3 5 23 34.1 34.2
-5 23 3 15.6 30.2
3 5 -23 1.2 23
-3 5 23 -5.3 30.4
23 -3 5 0.1 19.3
-3 23 -5 56.89 18.5
5 23 -3 9.9 21.3
3 -5 23 -11.3 46.1
-23 5 -3 51.59 33.4
23 5 -3 30 25.8
23 -5 3 38.8 31.9
3 23 -5 -4.5 17.5
-5 3 23 -66.99 36.5
5 23 3 7 19.7
-23 3 -5 55.29 36.6
-23 5 3 -2.7 25.9
3 5 23 5.1 27.3
-3 -5 23 24.8 55.59
5 -3 23 46 46.4
5 23 3 10.4 25
3 23 -5 -2.2 22.1
23 -5 3 6.7 18.5
3 -5 -23 3.4 22
-5 23 -3 8.9 21.6
5 -23 -3 1.7 27.7
-3 23 5 27.7 24
3 5 23 22 46.5
-5 23 -3 50.29 33.5
-3 23 5 -36.7 26.7
3 5 23 1.7 29.2
-3 5 -23 -34.6 27.6
23 3 5 14.9 23.6
-5 23 -3 -21.6 20.5
-3 -5 23 54.99 37.9
23 -3 -5 12.8 15.9
-3 5 -23 2 21.8
23 3 5 -12.8 24
3 -23 5 -19.2 28.1
3 5 23 -26.2 40.3
-5 3 23 -14.4 34.4
5 -3 23 43.7 41
5 3 -23 39.5 23.3
3 23 -5 16.7 27.6
5 5 23 333.57 53.59
23 -5 -5 293.37 30.1
-23 5 -5 380.16 42.1
5 5 23 254.87 35.4
-5 -5 23 399.16 63.69
-5 5 23 320.77 42.7
5 5 23 326.67 49.3
-5 23 -5 371.76 55.29
5 23 -5 318.77 39.1
5 -23 -5 314.17 46.7
5 5 -23 309.57 38.7
-5 23 5 283.57 39.5
23 -5 5 266.87 34.7
-5 5 23 345.37 51.29
-23 5 5 314.67 43.9
5 -5 23 291.37 51.49
-5 -5 23 204.08 69.59
5 -23 5 351.06 49.2
5 -5 23 276.97 50.39
5 23 -5 261.27 31.6
23 5 -5 331.27 46.7
23 -5 5 301.97 41.4
-23 5 -5 247.48 37.9
23 5 5 273.17 34.1
-5 5 23 343.57 42.3
-5 23 -5 317.87 41.8
-5 23 5 337.07 42.7
-5 5 -23 339.07 38.2
5 5 23 225.88 58.59
23 5 5 351.66 34.7
5 -5 -23 350.36 34.3
5 23 -5 238.78 32.5
5 23 5 321.27 46.2
5 23 5 331.97 39
-5 23 -5 298.67 33.7
-23 7 -1 64.39 32.5
-7 -1 23 121.39 39.3
1 7 -23 33.7 25.1
7 1 23 72.39 45.1
1 -7 23 30.5 42.4
1 7 -23 44.5 26.5
-7 23 1 78.09 42.4
-1 7 23 93.19 30.5
-1 7 23 56.49 32.4
7 23 -1 58.69 22.8
-1 -7 -23 57.49 26.5
-1 23 -7 90.39 24.7
7 23 -1 81.19 28.5
7 -23 1 50.79 29.8
23 -7 -1 60.89 17
-7 23 1 53.29 22.3
7 23 -1 73.39 22.6
7 1 23 65.79 31.1
-23 7 -1 71.99 29.3
-1 23 -7 44.4 25.8
-7 23 1 54.09 29.9
1 23 7 56.99 28.2
-7 1 -23 54.99 22
1 -7 23 21.6 46
23 -1 7 61.99 23.2
-1 23 -7 70.89 17.2
23 1 -7 63.89 19.1
-1 7 23 30.8 40
23 -7 -1 66.39 30.3
7 -1 -23 23.5 23.9
-1 -23 7 87.19 44.3
1 23 7 46.2 25.1
23 -1 7 66.39 21.9
7 1 23 38.5 30.9
7 -23 1 134.09 29
23 -7 1 63.79 29.1
7 23 1 81.39 27.5
7 -1 23 33.3 48.3
1 23 -7 96.69 25.6
-1 -7 23 46.4 39.1
1 7 23 18.5 41.1
7 1 -23 50.79 22.2
-7 1 23 -10.1 38.6
23 1 7 75.89 23
-23 7 1 25.3 32.8
-1 23 7 105.59 27.8
1 23 -7 94.99 24.5
-7 23 -1 76.29 32.6
-1 23 7 54.99 26.2
1 7 23 24.3 25.4
-1 7 -23 75.79 28
7 -1 23 46.9 35.2
-1 7 -23 55.19 25.2
1 7 23 85.89 31.4
-7 23 -1 52.89 23.4
7 23 1 71.99 22.6
23 1 7 82.49 24.9
7 -23 -1 94.29 27.9
-23 7 1 94.29 29
1 -7 -23 73.79 24.4
-7 1 23 37.2 40.8
-7 23 -1 39.9 41.9
1 23 -7 52.29 16.7
23 -7 1 88.99 20
23 -1 -7 73.09 18.8
1 -23 7 29.6 35.8
-1 -7 23 102.19 55.09
-7 -1 -23 71.59 20.7
-3 23 -7 18.4 15.7
7 3 23 31.6 47.6
-7 23 3 6.7 38.4
-3 7 23 -28.8 28.5
3 7 -23 14.6 25.3
7 -23 3 -33 31.7
-23 7 -3 17.1 33.6
7 23 -3 17.2 27
-3 7 23 -5.6 27.5
-7 -3 23 -31.9 67.09
-7 23 3 8.1 22.2
-23 7 -3 3.7 27.4
7 23 -3 -3.1 19.3
-7 -3 23 12.1 34.2
-3 23 -7 17.2 24.5
23 -3 7 -21.3 18.4
7 23 -3 12.9 18.3
7 -3 -23 48 23.1
-3 23 -7 -6.6 28
-3 -7 -23 -14.3 27.9
7 -3 -23 -32.6 25.1
3 23 7 12 23.3
-3 7 23 -7.2 36.9
3 -7 23 67.79 48.4
23 -7 -3 -7.9 14.6
3 23 7 43.1 23.2
23 -7 -3 53.99 29.3
23 3 -7 -15.7 19.1
7 3 23 -14.2 28.3
7 3 23 4.8 29.3
23 -3 7 16.2 20.4
7 -23 3 31.9 24.1
-7 3 -23 -20 21.5
3 -7 23 -111.99 49.1
3 23 -7 -15.3 14.8
7 -3 23 110.29 49.2
3 23 -7 0 20.2
-7 3 23 78.99 38.6
-3 23 7 4.5 26.9
-3 23 7 5.8 22.5
-7 23 -3 -4 33.4
23 3 7 -18 23
3 7 23 -10.3 25.9
23 -7 3 -46.2 29.1
23 -3 -7 10.8 15.1
7 -3 23 -16.4 34.9
3 -23 7 -24.8 30
-7 23 -3 -15.7 20.1
-3 -7 23 -16.4 58.29
7 -23 -3 -20.1 27.5
3 7 23 -14.2 30.9
7 3 -23 30.2 21.6
7 23 3 1.4 18.1
7 23 3 -13.8 26.6
-7 3 23 3.9 31.7
-23 7 3 9.8 23.8
3 7 23 -44.8 43.1
23 3 7 19.2 22.9
-7 23 -3 -9.9 22.8
3 -7 -23 -14.9 23.2
23 -7 3 7 17.3
3 23 -7 -21.1 23.3
-3 -7 23 14.8 35.7
-23 7 3 -13 53.39
-7 -3 -23 9.8 19.5
-3 7 -23 12.4 25.8
-7 -5 23 163.68 75.49
-7 23 5 139.09 38.1
7 -5 -23 198.98 30.5
-5 7 23 259.67 36.3
23 7 5 248.48 49.4
-23 7 -5 248.98 39.2
7 23 -5 166.18 28.5
5 7 -23 173.88 26.2
7 5 23 230.48 36.7
-7 -5 23 153.88 39.3
5 -7 23 175.48 46.1
7 -23 5 263.47 33
7 23 -5 234.48 29.7
-23 7 -5 181.08 36.4
23 -7 -5 213.88 28
7 5 23 186.28 48.4
-5 23 -7 184.48 35.9
7 -5 -23 172.38 27.7
-7 23 5 238.88 28.9
7 5 23 198.08 35.2
-7 5 -23 211.08 27.3
-5 7 23 218.48 34.9
-23 5 7 271.27 33
23 -7 -5 223.08 34.4
-5 23 -7 178.38 20.5
7 23 -5 193.68 26.1
5 -23 -7 272.57 33.7
5 23 7 260.77 29.5
5 23 7 237.28 32
-5 23 -7 211.38 29.6
-5 7 23 143.29 42.1
23 -5 7 217.48 26
7 23 5 249.18 28.1
-5 23 7 164.88 26.8
5 -23 7 245.28 34.5
-5 23 7 232.58 37.1
-5 7 -23 188.98 28.1
23 5 7 219.08 32
7 -5 23 159.58 45.2
-7 5 23 169.98 32.8
23 -7 5 257.07 39.3
23 5 7 161.28 32.4
23 -7 5 233.38 31.6
-23 5 -7 232.78 39.3
5 -7 -23 173.48 28.3
5 7 23 137.39 31.7
5 23 -7 215.48 31.5
-5 -7 23 196.78 40.6
-5 -7 23 198.28 73.99
7 -23 -5 190.98 31
5 7 23 158.18 29.5
5 23 -7 246.18 37.6
7 -5 23 145.89 43.6
7 5 -23 211.78 28.5
5 23 -7 202.38 28
-7 23 -5 144.29 25.2
-23 7 5 206.18 30
-7 5 23 237.78 38.1
7 23 5 230.58 32.5
-7 23 -5 180.28 21.3
23 -5 -7 204.98 26.9
-7 5 23 199.68 45.6
5 -7 -23 183.08 28
7 23 -7 127.99 27.1
-7 23 -7 133.29 26.9
-7 -7 23 368.06 84.89
-23 7 7 101.09 24.8
23 -7 -7 182.38 26.4
-7 7 23 54.39 28.3
-7 23 7 138.29 27.1
-23 7 -7 96.09 34.7
-7 -7 23 135.59 39.4
-7 23 7 119.59 37.7
7 -7 23 69.29 43.7
7 -7 -23 131.99 29.6
23 -7 7 136.39 38.5
7 7 23 154.28 30.8
7 7 -23 144.29 26.8
23 7 7 153.08 37.2
-7 23 -7 183.08 20.6
7 7 23 119.99 30.3
23 -7 7 111.69 21.9
7 -7 23 160.68 49
7 -7 -23 105.99 27.4
7 -23 -7 131.39 30.5
7 23 7 91.49 27.8
-7 7 -23 72.79 26.6
-7 7 23 162.68 40.3
7 -23 7 146.09 31.2
7 23 7 102.59 21.5
7 23 -7 97.19 16.9
-7 7 23 212.48 34.7
9 1 23 485.65 59.49
-9 23 1 421.26 41.5
-23 9 -1 373.16 41
-9 1 -23 410.26 37.3
-1 -9 -23 395.56 38.3
9 -23 1 361.86 50.09
1 23 9 463.75 48.3
1 -9 23 468.05 57.39
-1 23 -9 459.05 48.4
-1 9 23 568.84 68.59
9 -23 1 443.46 46.2
-9 -1 23 478.25 63.99
-9 23 1 503.75 51.29
-1 9 23 449.86 51.89
23 -1 9 466.55 40.8
-1 23 -9 435.76 31.5
1 9 -23 442.96 49.1
23 1 -9 434.66 34.5
9 23 -1 458.95 40.3
1 -9 23 403.76 51.69
-1 9 23 503.75 57.59
-1 -23 9 469.75 58.39
9 23 -1 495.05 49.2
9 1 23 361.16 54.79
9 1 23 382.16 55.49
9 -1 -23 433.46 56.19
-1 23 -9 471.85 46.1
9 -1 -23 424.56 42.7
23 -9 -1 397.26 47.5
1 23 9 438.16 43.8
23 -1 9 502.75 39.2
-23 9 -1 392.86 49.1
23 -9 -1 460.75 34
9 -1 23 427.36 58.69
1 9 23 602.84 67.09
1 23 -9 439.06 32.7
9 1 -23 419.76 42.8
-1 9 -23 424.46 48.7
23 -9 1 422.56 34.2
-1 23 9 438.06 49
9 23 1 504.25 40.1
9 -1 23 601.34 84.99
-9 23 -1 473.35 43.5
23 -1 -9 468.15 33.3
1 9 23 463.75 59.49
9 -23 -1 397.36 44.1
23 1 9 435.16 40.7
1 23 -9 376.56 47
1 9 23 455.55 50.29
-1 -9 23 456.15 66.09
9 23 1 433.96 50.59
1 23 -9 480.65 45.2
-1 9 -23 389.36 49.99
-9 23 -1 424.86 52.79
23 1 9 462.35 44.4
-23 9 1 345.77 41.6
-9 -1 -23 492.95 40.1
9 -23 -1 400.36 46.1
1 -23 9 467.65 68.59
-23 9 1 483.95 47.3
1 -9 -23 467.75 47.2
-1 -9 23 482.05 70.39
9 -1 23 356.76 43.3
-1 23 9 396.86 46.5
23 -9 1 439.56 49.8
9 1 -23 411.06 58.69
-9 1 23 319.57 49.5
-1 9 -23 513.65 50.29
3 23 9 273.87 41.1
-9 23 3 197.18 34.4
3 -9 23 314.77 53.39
-3 23 -9 202.98 27.2
23 -3 9 236.18 35.9
-9 3 -23 297.37 39.7
23 -9 -3 345.37 46.5
9 3 23 358.26 53.29
23 3 -9 288.57 33.6
9 23 -3 272.27 35.1
23 -9 -3 258.07 29.7
9 -3 -23 346.17 40.8
-3 23 -9 261.17 30
3 23 9 209.08 30.5
-3 9 23 177.08 41.7
-3 23 -9 208.58 32
3 -9 23 251.57 54.59
9 -23 3 209.88 31.5
9 3 23 268.37 53.49
9 23 -3 225.78 31.9
9 -3 -23 338.27 50.09
-23 9 -3 206.48 37
23 -3 9 254.47 33.6
-3 9 23 271.17 38
3 9 -23 225.38 31.8
-3 -9 -23 154.08 32.6
-9 -3 23 267.87 42.7
9 -23 3 186.58 34.2
9 3 23 224.58 37.3
-9 23 3 163.18 25.7
-3 9 23 182.38 32.3
-23 9 -3 248.48 35.5
23 -9 3 282.17 34.8
3 -23 9 223.78 38.7
-3 -9 23 286.07 45
3 -9 -23 216.58 30.4
3 -9 -23 213.38 29.3
3 23 -9 244.78 29.7
-3 9 -23 206.98 31.8
23 -3 -9 228.18 27.8
-23 9 3 218.98 28.6
-9 -3 -23 224.38 27.3
3 23 -9 270.77 38.8
3 9 23 250.67 37.9
-9 23 -3 318.97 38.7
3 9 23 231.18 34.4
9 -23 -3 345.47 45
3 9 23 248.58 48.9
23 3 9 260.67 30.3
9 -3 23 207.08 36.7
9 23 3 204.48 30.4
9 -3 23 296.17 55.59
23 3 9 242.58 31.5
-9 3 23 288.57 38.7
-3 23 9 242.18 33.1
-9 23 -3 189.68 27
3 23 -9 276.87 41.8
-3 9 -23 254.47 27.7
-9 3 23 134.69 40
-23 9 3 204.98 36.2
-9 23 -3 260.37 35.5
-3 -9 23 235.88 62.89
9 3 -23 256.27 29.3
9 23 3 306.07 35.6
23 -9 3 206.08 25
-3 23 9 282.97 41.6
-5 9 23 -3.7 28.2
-9 -5 23 34.2 39
5 9 -23 12.7 24.5
-23 9 -5 67.89 34.8
-9 5 -23 -58.29 23.3
-23 5 9 31.1 22.8
-5 23 -9 -37.2 29.1
-9 23 5 -6.7 22.2
5 -23 -9 -7 30
-23 9 -5 -29 34.9
5 23 9 -3.1 24.6
9 -23 5 32.8 26.2
23 -9 -5 15.6 29.3
9 23 -5 -16.6 16
9 23 -5 25.8 22.6
9 5 23 17.7 28
9 5 23 29 43.4
9 5 23 -21.8 27.5
23 -9 -5 0.9 14.6
-5 9 23 -9.2 36.5
9 -5 -23 -26.1 23.7
5 23 9 -24.1 21.5
23 -5 9 1.9 19.3
-5 9 23 -3.2 28.7
9 -23 5 54.69 37.1
23 -5 9 -2.6 19.9
-5 23 -9 -12.4 22.4
5 -9 23 -16.8 42.7
9 -5 -23 -15.4 30.1
-5 23 -9 -3.2 13.8
23 5 9 -0.1 25.1
5 9 23 -40.7 45.4
5 -9 -23 43.7 25.3
23 -5 -9 -16.3 12.7
9 -5 23 -7.9 40.4
-5 -9 23 -13.5 36.6
-5 9 -23 17.6 27.4
-9 -5 -23 -38.1 22.8
5 9 23 7.6 27.9
-9 5 23 -2.3 28.4
-9 23 -5 -8.8 38
-23 9 5 -5.9 39.1
5 23 -9 4.1 15.3
-5 23 9 21 29.7
-5 9 -23 -17.7 21.2
9 -5 23 9.1 33.8
-9 5 23 50.29 39.1
-5 23 9 -25.9 22.5
5 23 -9 15.4 23.6
9 23 5 0.7 23.2
-9 23 -5 -0.1 21.9
9 -23 -5 37 29
-9 23 -5 -9.8 16.6
5 -23 9 -8.7 29.4
-23 5 -9 -21.4 36.7
-23 9 5 9.6 22.6
23 -9 5 22.7 17.5
23 5 9 -41.5 24.6
9 5 -23 -19.2 22.3
5 9 23 17.9 26.4
-5 -9 23 149.19 70.49
-9 5 23 18 30.6
5 -9 -23 29.2 26.2
23 -9 5 29.1 32.6
9 7 23 41 29.1
-7 9 23 15.6 29.6
7 23 9 17.2 24.4
9 -7 -23 -13 28.1
-7 9 23 24.4 28.5
23 -7 9 9.1 19.9
-7 23 -9 26.4 14.6
7 -23 -9 21.8 32.6
7 -23 -9 34 30.3
7 -9 23 22.1 41.1
-23 7 9 26.7 21.7
7 9 -23 26 25.8
9 7 23 24.8 28.1
9 23 -7 52.69 25.7
-23 9 -7 8.2 36.1
9 -23 7 26.3 27.6
-7 -23 9 10.3 26.3
9 23 -7 12.3 16.5
-9 23 7 6.8 21.1
7 23 9 18 22.1
9 -23 7 34.9 42.6
-9 7 -23 56.99 31
-7 9 23 -29.8 35
-9 7 -23 -14.8 27.3
23 -9 -7 0.6 13.3
23 -7 9 12.6 17.7
-7 23 -9 -4.2 23.6
23 -9 -7 31.6 32.2
9 -7 -23 35.3 32.8
-9 -7 23 13.6 36.1
9 -7 23 38.9 37.6
9 -23 -7 10 36
-7 23 9 59.29 35.8
-23 9 7 22.9 21.4
-23 7 -9 29.5 38.6
9 23 7 27.2 23
-9 23 -7 24.2 16.2
-9 7 23 -11.9 38.1
7 9 23 50.69 26.1
9 7 -23 41.2 25.8
-9 -7 -23 72.49 27
7 9 23 11.2 28.5
7 -23 9 18.3 27.6
9 -7 23 -27.7 40.3
7 23 -9 33.5 24.1
-7 23 9 19.4 22.7
23 -9 7 0.7 36.2
-9 7 23 4.1 27.4
9 -23 -7 80.69 28.7
-9 7 23 48 30.8
7 -9 -23 55.79 28.3
23 7 9 50.19 29.2
23 -9 7 19.5 19.5
23 -7 -9 -11.2 13.5
-7 -9 23 -25.3 36.5
7 -9 -23 22.4 29.4
-9 23 -7 28.5 22.3
-7 9 -23 40 30.2
7 23 -9 7 13.6
-7 9 -23 -5.3 19.5
9 -9 -23 435.16 49.5
9 23 -9 445.96 44.8
-9 9 23 385.26 50.49
9 9 23 437.36 49.4
23 -9 -9 369.76 66.49
23 -9 9 465.35 37.4
9 -9 23 287.37 48.8
-9 9 23 391.46 52.89
-9 -9 23 425.06 52.69
23 9 9 486.55 61.89
-9 9 23 405.66 51.09
9 -23 9 357.76 68.49
-9 9 -23 454.85 37.5
-9 23 -9 394.16 31.6
-9 23 -9 424.06 47.5
-9 23 9 467.15 42.9
9 23 9 457.65 44.3
9 -23 -9 424.46 48.8
23 -9 -9 465.45 30.9
9 9 23 412.66 48.9
23 -9 9 448.86 36.8
-9 -23 9 387.76 44.6
-23 9 9 440.26 43
9 -23 9 406.26 50.39
9 23 -9 460.05 33
11 -1 -23 655.03 49.9
1 -11 23 731.73 90.99
1 23 11 663.53 49
23 -1 11 666.93 46.6
11 -1 -23 713.93 72.09
-11 1 -23 659.23 48.6
-23 11 -1 651.33 54.79
11 -23 1 612.24 54.19
-11 -1 23 559.54 73.19
-1 11 23 684.43 54.69
23 -1 11 706.03 45.2
11 1 23 697.03 61.19
-1 23 -11 761.82 53.29
-1 23 -11 707.33 37.2
-23 11 -1 738.03 66.09
11 23 -1 657.43 43.2
-1 11 23 673.83 61.29
23 -11 -1 694.13 40
-1 -23 11 753.52 101.09
11 1 23 848.52 92.79
1 11 -23 662.93 55.29
1 11 -23 733.23 45.3
11 -23 1 682.73 49.4
1 23 11 640.04 52.29
23 1 -11 706.53 39.6
11 1 23 696.13 71.89
-1 23 -11 663.43 51.89
23 -11 -1 704.43 54.49
-1 -23 11 628.54 51.49
-1 11 23 631.24 71.69
-11 23 1 751.22 48.4
1 -11 23 685.63 77.39
-1 -11 -23 701.23 58.99
11 23 -1 754.22 53.79
11 -1 23 652.13 79.69
-1 -11 23 692.63 72.49
1 -11 -23 681.33 56.09
-1 11 -23 653.43 61.09
-11 23 -1 715.33 60.69
-11 23 -1 683.83 47.3
23 -11 1 829.22 54.79
11 -23 -1 660.63 51.69
-1 23 11 677.23 53.19
1 23 -11 673.73 50.19
11 -23 -1 737.53 52.49
-1 23 11 700.63 52.49
-23 11 1 723.63 51.09
-23 11 1 618.94 62.89
23 -11 1 693.63 40.2
23 1 11 743.33 46.8
23 1 11 695.63 49.9
11 -1 23 733.93 58.69
-11 1 23 624.54 72.69
-1 23 11 763.32 80.39
1 23 -11 752.22 50.09
-1 11 -23 671.13 43.2
23 -1 -11 722.13 38.7
1 11 23 664.33 68.39
1 -23 11 655.13 52.59
11 -1 23 921.21 88.99
11 23 1 675.23 52.79
-11 -1 -23 728.53 48.7
1 -23 11 818.32 78.49
1 23 -11 655.13 37.6
1 11 23 712.53 54.59
1 11 23 679.73 59.69
-1 -11 23 552.34 67.39
23 -3 11 384.06 39.9
11 23 -3 354.76 33.4
-23 11 -3 412.36 45.1
23 -11 -3 408.66 32.8
11 -3 -23 420.56 49.3
-23 3 11 401.56 41.9
-3 11 23 444.06 55.79
11 3 23 400.46 56.19
3 -11 23 427.06 55.79
-3 23 -11 392.56 47.6
3 23 11 423.26 44.8
11 -3 -23 401.16 42.8
-3 11 23 275.27 45.3
-23 11 -3 424.46 47.6
11 -23 3 415.26 45.5
3 11 -23 404.46 39.6
-11 -3 23 305.17 45.3
23 -3 11 398.36 36.6
-3 23 -11 376.66 29.7
11 23 -3 367.46 45.9
3 11 -23 356.16 48.5
3 -11 23 422.96 59.89
23 3 -11 346.17 32.1
11 3 23 354.86 41.2
23 -11 -3 467.25 49.7
3 -23 -11 364.16 50.99
-11 23 3 375.46 41.5
3 23 11 390.66 46.5
-3 -11 -23 531.25 59.19
11 -23 3 296.97 38.8
-11 3 -23 394.36 47
-3 -23 11 310.77 45.4
3 -23 -11 399.06 41.6
-3 11 23 420.96 48.1
-11 23 3 347.07 40.6
11 3 23 373.26 52.59
3 11 23 401.46 54.19
11 -3 23 378.76 52.79
23 -11 3 419.06 36.5
-11 23 -3 429.96 43.3
-3 11 -23 344.37 36.3
23 3 11 372.86 41.2
3 -23 11 424.16 44.6
-3 23 11 392.96 47.3
-3 -11 23 416.76 64.99
-11 3 23 473.25 58.79
-3 23 11 449.36 66.99
11 23 3 394.46 47.5
23 -3 -11 404.66 31.4
23 -11 3 329.67 38.4
3 -23 11 477.45 52.39
-11 23 -3 426.76 39.4
3 -11 -23 427.86 46.7
11 -23 -3 400.26 46.7
11 -3 23 358.66 55.39
3 23 -11 376.26 44.6
3 23 -11 403.06 32
3 -11 -23 392.66 38.8
-3 -11 23 374.06 65.09
-11 23 -3 368.46 43
-3 23 11 368.66 45.9
-11 3 23 351.76 41.8
-11 3 23 435.96 54.39
3 11 23 410.36 47.9
-23 11 3 433.26 44.5
23 3 11 385.16 45.6
-23 11 3 330.07 41.8
11 3 -23 433.06 45.5
-3 11 -23 306.67 41.6
-11 -3 -23 437.76 46.4
5 -23 -11 106.69 34
23 -5 11 93.69 22.1
11 23 -5 86.69 26.6
-23 11 -5 124.19 41.7
-5 11 23 107.19 28.2
5 23 11 85.59 25.6
5 -23 -11 103.39 35.4
5 23 11 86.39 25.3
5 -11 23 60.79 40.3
-23 5 11 81.69 24.9
5 11 -23 17.5 27.7
11 23 -5 94.49 17.7
-11 5 -23 77.09 30.2
11 -23 5 69.79 25.3
-5 11 23 48.2 27
11 -5 -23 44.8 35.1
-11 23 5 91.69 24.5
23 -11 -5 107.79 17.6
11 5 23 19.4 33.3
11 5 23 68.99 42.3
-11 -5 23 48.9 40.1
-5 11 23 65.69 38.1
5 11 -23 67.59 21.9
11 5 23 121.39 29.4
-5 23 -11 28.9 27.6
-5 -23 11 50.19 26.8
11 -23 5 40.4 35.8
-5 23 -11 56.59 14.7
23 -5 11 77.69 21.1
23 -11 -5 122.89 30.4
11 -5 -23 67.49 30.1
-23 11 -5 110.09 32.2
11 23 5 80.69 26
5 11 23 32.9 23.1
-11 5 23 11.8 31.6
-11 5 23 55.89 28.2
-11 23 -5 41.4 23.2
-23 11 5 59.59 23.5
11 -5 23 84.49 43.3
23 -11 5 71.29 18.9
-5 11 -23 109.79 20.1
5 11 23 68.49 26.8
23 5 11 74.49 25.8
11 5 -23 58.99 25.3
23 -11 5 80.19 34.7
23 -5 -11 80.09 17.1
5 23 -11 78.19 17.3
-5 -11 23 60.89 73.69
5 23 -11 133.39 26.5
-11 23 -5 64.29 18
-11 -5 -23 59.99 28
5 -11 -23 45.8 30.9
5 -11 -23 56.69 28.2
5 -23 11 90.79 32.1
23 5 11 52.49 25.3
-5 23 11 73.09 24.7
11 -23 -5 84.19 29.9
-11 5 23 32.6 38.3
-5 23 11 118.09 29.9
11 -5 23 95.99 30.6
-5 -11 23 44.9 35.2
5 -23 11 145.29 34.5
7 -11 23 232.18 47.3
23 -7 11 207.88 26.5
11 -7 -23 204.98 22.8
11 23 -7 150.08 25.5
-7 -23 11 199.98 33.5
23 -11 -7 188.18 25.4
7 23 11 203.28 29.3
23 -11 -7 149.29 33.8
11 7 23 169.28 33.7
11 -23 7 174.28 30.1
11 -23 7 77.69 43.3
11 -7 -23 213.78 37.3
-23 7 11 122.49 22.9
-7 23 -11 156.48 30.7
-11 23 7 181.18 26
11 23 -7 195.78 26.8
7 -23 -11 208.68 35.2
-11 -7 23 183.88 42.9
-7 23 -11 174.88 25.6
-7 11 23 213.68 34.6
7 11 -23 198.48 26.2
-11 7 -23 204.48 23.9
-7 11 23 184.58 30.9
23 -7 11 201.48 25.8
11 7 23 228.88 34.5
-7 11 23 192.08 41.3
-7 23 11 217.68 35.3
7 11 23 208.28 30.8
7 23 -11 199.98 26.7
11 23 7 195.78 29.5
23 -7 -11 170.28 24.5
7 -23 11 208.48 34.2
-11 23 -7 219.88 27.2
-11 23 -7 132.29 26.6
-23 11 7 118.29 24.5
11 -7 23 166.98 45.5
11 7 -23 135.89 20.7
-11 7 23 222.78 30.8
-11 7 23 204.18 37.7
23 -11 7 179.38 24.5
-11 -23 7 234.88 33.8
23 -11 7 225.28 43.1
-11 7 23 145.19 41.3
7 11 23 218.88 35.2
-7 11 -23 184.48 21.4
7 23 -11 204.78 27.7
11 -23 -7 184.98 33.1
23 7 11 205.38 33
7 -23 11 211.38 42
11 -7 23 170.68 35.4
-7 -11 23 154.58 40.3
7 -11 -23 202.48 34
-7 23 11 156.38 27.3
23 -9 11 765.42 42.6
11 -23 9 818.22 84.39
11 -9 -23 750.12 39.3
-9 11 23 714.43 63.89
9 11 -23 645.64 45.3
11 -23 9 734.53 53.39
23 -11 -9 592.54 61.59
9 -23 -11 714.93 57.09
-9 23 -11 707.13 36.4
-11 23 9 824.92 47.9
9 -11 23 764.52 73.89
-23 9 11 702.93 47
11 23 -9 716.03 48.6
11 -9 -23 698.33 57.89
9 23 11 736.93 47
23 -9 11 764.12 45.1
-11 9 -23 754.32 41.8
-9 11 23 772.52 54.69
11 9 23 745.43 54.59
-9 11 23 776.32 58.79
-11 -9 23 728.43 65.59
-9 23 -11 615.64 57.39
23 -11 -9 711.63 37.2
11 9 23 684.73 56.19
-9 -23 11 699.83 53.49
11 23 -9 771.62 37.9
-9 23 11 764.62 48.5
23 9 11 759.02 61.19
9 11 23 800.22 54.29
9 23 -11 795.02 39.7
-11 9 23 546.15 62.59
-11 9 23 692.93 51.99
-11 23 -9 721.63 38
9 -11 -23 764.42 38.7
-9 -11 23 670.53 66.09
-11 -23 9 783.72 53.49
9 -11 -23 651.43 58.09
23 11 -9 776.72 38.2
9 -23 11 651.43 56.99
11 -23 -9 723.53 54.59
11 23 9 727.93 49.3
23 -11 9 742.93 43.7
9 11 23 706.63 55.99
11 -9 23 730.23 77.19
9 23 -11 735.63 47.6
23 -9 -11 691.13 36.7
-11 23 -9 669.93 52.89
-9 11 -23 773.82 39.8
23 -11 9 720.13 42.7
-11 9 23 627.94 63.89
-23 11 9 708.43 46.9
11 -9 23 714.03 79.49
-11 11 23 1055.79 57.59
11 -11 -23 1021 44.8
11 23 -11 964.9 53.39
-23 11 11 1081.59 53.79
11 23 11 1095.79 55.99
11 11 23 1059.49 61.59
23 -11 -11 1104.99 45.7
11 -11 23 1054.49 80.39
-11 23 -11 1068.89 44.8
-11 23 11 1066.89 53.79
23 -11 11 1044.1 51.29
11 -11 -23 989.8 66.39
11 23 -11 1029.9 45
-11 11 -23 1078.59 47.9
11 -23 -11 1016 63.39
-11 -23 11 1119.79 61.29
11 11 23 950 58.99
23 -11 11 1062.59 50.99
-11 11 23 918.61 68.29
11 -23 11 1099.99 60.09
-11 -11 23 980.7 70.69
-11 11 23 1028.8 70.09
-1 13 23 438.76 58.39
23 -1 13 424.86 43.3
1 23 13 414.66 50.09
-1 13 23 416.46 46.6
23 -1 13 381.26 36.3
1 -13 23 506.45 72.09
23 1 -13 415.16 32.6
1 13 -23 422.86 35.6
-1 -13 -23 398.36 50.59
1 -13 23 397.26 56.29
-23 13 -1 425.56 44.8
1 23 13 582.64 60.99
13 23 -1 422.56 46.3
-1 -23 13 549.54 67.69
-1 23 -13 434.86 30.2
-1 13 23 450.75 54.09
13 1 23 321.47 56.39
13 23 -1 400.86 35
23 -13 -1 424.66 32.3
13 -1 -23 404.36 30.7
1 23 13 414.96 43.6
13 -23 1 464.05 45.6
-1 -23 13 463.35 52.29
23 -13 -1 420.26 49.7
-13 -1 23 441.36 68.19
13 1 23 400.36 51.69
13 -23 1 320.67 37.6
-13 23 1 408.46 41.5
13 23 1 448.46 39.3
13 -23 -1 440.46 45
1 23 -13 404.66 30.6
1 -13 -23 405.26 48.3
23 1 13 409.96 38.4
-23 13 1 420.56 43.8
13 -1 23 581.24 84.49
-13 1 23 474.55 68.39
-1 13 -23 464.55 34.4
-1 -13 23 434.06 64.39
1 -23 13 444.16 53.39
-1 23 13 418.06 59.79
1 13 23 354.56 45.9
13 -23 -1 349.47 48.4
-1 23 13 410.16 44.3
23 -1 -13 482.95 30.8
-1 -13 23 352.56 47.1
23 -13 1 400.36 34.5
13 23 1 442.46 48.6
-13 23 -1 402.56 41.4
23 1 13 453.65 43
1 -23 13 410.96 50.39
-1 23 13 328.87 44.4
13 -1 23 365.76 49.4
23 -13 1 360.96 50.79
1 13 23 457.65 52.69
13 1 -23 408.06 30.7
-13 -3 23 238.98 46.1
-23 3 13 117.29 23.5
-3 23 -13 87.39 30.6
-3 23 -13 97.09 14.7
3 -13 23 158.48 47.2
13 3 23 99.09 47.1
-3 13 23 72.69 33
13 -23 3 112.89 25.1
3 -23 -13 123.29 42.5
-23 13 -3 114.59 27
-13 23 3 114.69 24.3
-3 -23 13 114.59 31.2
13 -3 -23 101.99 17.4
13 -23 3 143.09 36.2
-3 -13 -23 132.99 33.1
3 13 -23 104.39 20
23 3 -13 115.19 19.6
13 23 -3 70.89 24.4
13 23 -3 99.19 18.4
23 -13 -3 87.39 17.9
13 3 23 113.39 28
3 -13 23 209.28 54.49
23 -3 13 128.49 22.7
3 23 13 118.09 27.3
23 -13 -3 110.09 32.5
-3 13 23 125.09 29.8
23 -3 13 131.29 22.3
-3 13 23 132.99 31.5
-3 23 13 104.89 27
3 23 -13 111.19 18.7
-23 13 3 154.78 26.7
13 3 -23 115.29 18.6
-3 -13 23 95.29 66.59
3 -23 13 166.08 33.6
-13 3 23 120.79 36
-13 3 23 69.29 41
23 3 13 127.29 23.3
13 -3 23 120.49 28.9
23 -13 3 80.29 33.9
-3 23 13 141.19 33.2
-13 23 -3 108.29 20.8
13 23 3 110.69 26
3 -23 13 153.58 39.1
-3 -13 23 170.08 39
-3 13 -23 132.99 19.5
23 -3 -13 87.59 15.4
23 3 13 105.39 26
23 -13 3 83.69 18.2
-13 23 -3 54.19 21.9
-3 23 13 123.29 29.4
-13 -23 3 153.58 32.7
13 -3 23 46.9 46.3
3 13 23 96.49 28
3 -13 -23 149.49 31.6
3 13 23 105.69 30.2
13 -23 -3 63.29 24.5
13 -23 -3 76.69 28.8
13 23 -5 -10 21.5
23 -5 13 6.3 19.5
13 -23 5 10.6 23.4
13 -5 -23 24.7 40.1
13 23 -5 -1.6 14.8
13 5 23 60.59 44.3
13 5 23 -15.6 24.3
-5 13 23 -11.1 23.9
13 -23 5 -1.7 36.2
-13 23 5 -4.9 19.6
-5 -13 -23 40.4 34
-5 13 23 -49.2 23.3
-23 13 -5 40.4 28.9
5 -23 -13 16.4 35.5
-5 23 -13 -1.9 13.2
13 -5 -23 8 14
-5 -23 13 -3 25.5
23 -13 -5 7.6 30.8
5 13 -23 -14.4 17.3
23 -13 -5 1.9 13.8
-5 13 23 4.3 31.3
5 23 13 -5 22.7
-13 -5 23 22.7 36
23 -5 13 4.7 18.1
5 -13 23 -11.7 40
-23 5 13 -28.4 19.7
-13 23 -5 3.6 15.5
13 23 5 11.5 24.4
-13 5 23 -18.9 36.4
-5 23 13 4 25.7
23 5 13 82.69 26.6
5 -13 -23 13.8 25.8
-23 13 5 -13 19.2
-13 -23 5 8.1 26.7
23 -13 5 60.59 38.2
5 13 23 -8.8 25.3
5 -23 13 14.2 31.8
13 -5 23 -42.5 26.5
-5 13 -23 13.6 15.4
-13 5 23 2.8 36
23 -5 -13 9.2 12.4
13 5 -23 0.7 15.5
13 -23 -5 45.8 31.5
-5 -13 23 -18.3 34.9
-5 23 13 24 24
5 23 -13 6.8 14.2
5 13 23 -11.2 23.8
-13 23 -5 17.4 22.5
5 -23 13 10.5 37.7
-5 23 13 -24.6 26.3
23 -13 5 -5.4 16.2
13 -5 23 17.9 40.6
-13 5 23 -3.6 26.9
-7 13 23 19.5 31.2
13 -7 -23 40.8 14.8
7 -13 23 2.9 39.2
13 7 23 9.6 32.2
23 -7 13 41.7 18.3
23 -13 -7 67.39 32.2
-23 7 13 82.19 21.8
-13 7 -23 44.6 20.9
-7 13 23 -7 25
-7 13 23 39.6 25.2
7 -23 -13 22.8 34.8
-7 23 -13 40.1 13.6
-13 23 7 33.5 21.5
13 23 -7 27.9 15.7
13 7 23 23.2 27.1
13 -23 7 20.9 43.8
-13 -7 23 -23.5 36
7 23 13 7.8 20.5
7 13 -23 4.4 18.8
-7 -23 13 51.99 28.4
13 23 -7 6.1 21.1
23 -13 -7 38.5 14.5
13 -23 7 32.5 23.1
13 -7 -23 8.1 38.8
23 -7 13 41.6 18.5
-13 7 23 44.8 37.5
7 -13 -23 35.7 30.3
23 -7 -13 28.7 12.2
23 -13 7 -33 42.2
7 -13 -23 31.5 14.6
13 -7 23 50.69 38.4
-7 -13 23 10.7 33.4
7 13 23 14.7 22.1
13 7 -23 56.99 18.4
-23 13 7 37.3 19
-7 23 13 60.69 23.5
23 -13 7 46.8 18.1
7 -23 13 23.1 30.1
13 23 7 50.29 24.1
-13 23 -7 14.2 13.8
-13 -23 7 -44 27.5
13 -7 23 10.4 29.7
-13 23 -7 -11.1 23
7 23 -13 36.4 14
23 13 -7 32.6 13.9
-13 7 23 8.6 36.1
7 13 23 20 23.7
13 -23 -7 35.2 31.6
-7 13 -23 27.2 15.5
23 7 13 39.8 24.9
-13 7 23 47.4 24.3
-7 23 13 24.8 30
13 -9 -23 307.67 43.4
9 -13 23 361.86 46.1
23 -9 13 339.37 32.4
-13 -9 23 424.26 60.59
13 -9 -23 346.87 26.3
13 9 23 387.96 53.69
13 9 23 322.77 44
-9 13 23 326.07 48.1
9 13 -23 276.67 33.9
9 23 13 274.17 38.1
13 23 -9 323.37 37.7
23 -13 -9 323.17 27.5
-23 9 13 330.27 36.1
-9 13 23 298.07 39.7
23 -9 13 319.17 34.9
13 -23 9 162.28 56.39
-13 23 9 287.87 35.8
13 23 -9 311.27 27.7
13 -23 9 300.37 44.1
-9 -23 13 265.07 41.9
-9 -13 -23 240.28 56.69
-9 23 -13 260.27 24.5
9 -23 -13 278.47 38.9
-13 9 -23 320.67 30.7
-9 13 23 349.87 42.6
-13 9 23 284.97 43.4
23 -13 9 299.97 33.2
-13 -23 9 270.17 35.7
23 -13 9 348.07 50.29
23 9 13 302.47 35
9 -13 -23 272.77 38.7
13 -23 -9 273.17 38.2
23 -13 9 298.27 32.7
13 -9 23 275.97 44.2
-9 13 -23 307.77 29.3
9 13 23 353.86 43.3
9 23 -13 289.07 27
-9 23 13 336.47 41.9
23 -9 -13 305.67 24.7
-9 -13 23 374.86 59.19
13 -9 23 208.58 42.3
9 -13 -23 286.37 26.7
13 23 9 280.57 29.9
9 -23 13 356.96 48.6
23 13 -9 274.77 25.9
-13 9 23 417.66 60.49
-23 13 9 316.87 35
-13 23 -9 284.97 27
9 13 23 329.37 43.7
-13 23 11 445.06 38.8
-11 -23 13 443.46 50.99
13 23 -11 508.95 30.9
-13 -11 23 567.64 62.09
-23 11 13 469.45 38
13 -11 -23 400.66 45.6
13 11 23 527.05 45.3
11 23 13 452.55 39.6
-11 13 23 532.55 45.5
-11 13 23 496.65 50.49
13 -23 11 494.45 47.9
13 -11 -23 514.35 30.1
23 -11 13 480.15 36.1
-11 23 -13 538.65 30.2
23 -11 13 478.85 37.9
11 -13 23 545.45 64.59
13 11 23 476.65 48.7
23 -13 -11 499.55 30.2
-11 23 13 482.35 41.2
-13 -23 11 558.64 50.29
-11 -13 23 448.56 57.99
23 13 -11 535.85 31.9
11 -23 13 515.75 49.8
-23 13 11 523.55 38.1
-11 13 -23 528.35 32
23 -13 11 489.35 36.7
-13 11 23 553.44 44.6
11 23 -13 493.55 30.8
-13 11 23 458.65 55.99
23 11 13 460.35 56.69
11 -13 -23 504.05 30.2
23 -13 11 504.75 38.1
11 13 23 478.85 46.8
13 -23 -11 489.15 54.49
11 13 23 531.75 47.3
11 -13 -23 499.95 57.09
23 -11 -13 529.05 30.8
23 -13 11 670.13 95.29
-13 23 -11 481.05 30
13 -11 23 581.14 67.19
13 23 11 504.65 42.8
13 -13 -23 251.17 21.5
23 -13 13 304.17 51.69
-13 -13 23 313.47 44.4
23 -13 13 288.67 29.3
13 13 23 308.27 42.7
13 13 23 296.67 39.3
-13 23 13 261.47 31.5
13 -23 13 288.77 40.9
23 -13 -13 307.37 23.4
-13 -23 13 252.57 39.3
13 23 13 266.77 34.9
-23 13 13 321.27 30
-13 13 -23 282.37 25.7
13 -13 23 299.37 40.7
13 23 -13 279.57 23.5
-13 23 -13 283.97 23.3
13 13 -23 276.47 31.4
23 -13 13 331.57 33.4
23 -1 15 79.19 18.5
1 -15 23 48.2 48.2
1 23 15 69.99 23.9
-1 15 23 88.99 24.8
15 1 23 79.19 25.8
-15 -1 23 108.99 40.1
-1 -15 -23 81.49 30.8
15 -23 1 87.49 36.5
23 1 -15 67.79 15.4
-1 -23 15 47.9 29
-23 15 -1 61.39 21.9
23 -15 -1 82.69 35.9
1 23 15 118.79 31.6
-1 15 23 72.79 25.5
-23 1 15 78.89 21.5
-1 23 -15 65.79 14.2
15 -1 -23 62.19 14.3
15 23 -1 81.99 18.1
15 -23 1 105.49 24.2
15 23 -1 96.49 24.6
15 1 23 -27.8 45
23 -15 -1 95.59 19.2
23 -1 15 65.39 20.1
-15 23 1 69.39 23.2
1 -15 23 120.69 45.3
1 15 -23 76.09 17.3
-1 -15 23 81.39 40
-15 23 -1 92.69 22.9
15 -1 23 99.89 45.5
-1 23 15 127.49 26.3
15 23 1 67.89 25.3
-15 1 23 72.69 44.4
15 1 -23 90.39 15.3
-1 -15 23 28 58.19
1 23 -15 61.69 14
-15 -23 1 77.79 34.8
-1 15 -23 73.59 16.9
1 -15 -23 77.59 31.7
15 -23 -1 116.89 25.4
23 -15 1 98.99 35.7
1 15 23 84.89 29.6
23 -15 1 49.4 16.9
15 -23 -1 37.9 32.2
1 15 23 76.99 24.3
-1 23 15 80.09 28.8
-15 1 23 106.09 41.6
23 -1 -15 97.89 16.3
23 1 15 43.4 20.6
1 -23 15 79.19 31.7
-23 15 1 80.39 24.8
15 -1 23 81.79 25.5
15 23 1 113.79 21.2
1 -23 15 82.59 51.49
-3 23 -15 -8.7 11
-15 23 3 -22.1 18.4
15 -23 3 -34.8 35.6
-23 3 15 -6 18.6
3 23 15 25.3 33.9
-23 15 -3 26 25.2
23 -3 15 -8 18
15 3 23 -8 24.8
15 23 -3 16.5 15
-15 -3 23 24 40.5
15 -23 3 28.5 22.8
3 -15 23 44.9 43.7
15 -3 -23 14.2 13.6
3 15 -23 5 15.3
-3 15 23 0.9 23.4
23 -3 15 10.6 17.8
-3 15 23 2.8 22.7
3 -15 23 -23.8 54.69
23 3 -15 -13.7 15.5
3 23 15 22 22
-3 -15 -23 -30.9 34.5
3 -23 -15 16.9 44
23 -15 -3 24.9 31.5
-3 -23 15 -9.4 27.3
15 3 23 66.59 43.9
23 -15 -3 11.3 14.7
15 23 -3 -3.2 22.9
15 -3 23 52.79 46.5
15 -23 -3 -3.6 21.1
3 23 -15 -4.9 13
3 -23 15 9.5 41
15 3 -23 8 13.5
15 23 3 -18.1 23.7
23 -15 3 -10.6 16.6
-3 -15 23 -7.8 86.79
-3 15 -23 0.2 14.7
23 -15 3 -30.4 36.2
-3 23 15 28.1 26.2
-3 -15 23 -33.8 34
-15 -23 3 -35.7 33.4
-15 3 23 -1.4 37.9
-15 3 23 -72.49 72.39
15 -23 -3 -55.79 29.6
-15 23 -3 -9.7 19.3
3 15 23 -6.6 22.3
3 -15 -23 22.6 16.4
23 -3 -15 1.5 11.6
3 -23 15 60.39 33.8
3 -15 -23 22.1 28.1
23 3 15 -2.4 21.5
-3 23 15 -8.6 22.7
-23 15 3 -8.4 17.5
15 -3 23 20 24.5
3 15 23 -29.3 23.3
-15 23 -3 -4.2 19.3
15 23 -5 143.59 18.6
15 -23 5 165.08 44.8
23 -5 15 145.39 22.4
15 23 -5 150.58 25
-23 5 15 85.49 21.2
15 5 23 167.78 29.9
15 -5 -23 157.08 22.7
23 -15 -5 91.89 34.4
-5 15 23 143.29 26.3
-15 -5 23 151.68 42.9
5 23 15 91.39 22.3
-5 -15 -23 173.38 42.3
-15 23 5 145.59 24.1
-5 23 -15 171.28 20.8
5 15 -23 154.28 19.9
5 -23 -15 119.09 41
23 -15 -5 100.59 16.8
15 -23 5 121.79 25.8
5 -15 23 155.58 42.4
23 -5 15 109.69 19.5
-5 15 23 101.49 25.5
-5 -23 15 101.19 29.4
-5 23 15 150.38 28.2
-5 23 15 124.59 28.7
23 -15 5 132.49 20.9
15 -23 -5 119.19 34.3
23 -5 -15 134.59 16.6
5 -15 -23 153.38 19.8
5 15 23 126.59 26.4
23 5 15 127.59 25.4
5 15 23 189.48 29
15 -5 23 194.38 29.9
-15 23 -5 78.09 24.7
15 -5 23 129.19 44.4
15 5 -23 139.09 19.1
5 -23 15 154.98 38
23 -15 5 132.29 46.4
-15 5 23 126.89 41.7
-5 15 -23 119.49 17.5
-15 23 -5 156.18 19.8
5 -15 -23 140.09 31.6
5 23 -15 113.29 15.6
-15 -23 5 110.69 35.3
-5 23 15 156.08 29.1
5 -23 15 175.78 48.1
-5 -15 23 167.28 39.7
23 -15 5 203.38 41.6
15 23 5 140.99 26.4
-23 15 5 158.18 23
15 -23 -5 114.79 24.6
-7 15 23 53.99 24.7
-7 23 -15 41.8 12.7
7 23 15 40.8 20.3
-15 -7 23 38.9 39
15 -7 -23 61.29 14.9
15 -23 7 -51.49 48.7
-23 7 15 64.89 20
23 -15 -7 16.6 14.3
-7 -23 15 45.4 29.5
-15 23 7 49.6 19.1
7 15 -23 60.69 21.6
-7 15 23 50.79 23.5
15 23 -7 62.29 22.5
23 -15 -7 12.9 37
15 -23 7 15.1 23.8
23 -7 15 66.59 20.2
15 23 -7 75.79 16.5
15 7 23 94.79 26.2
7 -15 23 53.89 37.8
23 -7 15 20.9 15.7
23 -15 7 107.59 40.3
23 7 15 60.19 24.4
7 -23 15 -36.3 29.5
15 -7 23 71.99 40.4
-23 15 7 46.7 19.6
23 -15 7 126.99 46.2
-15 23 -7 76.39 16.1
15 -23 -7 41.3 33.1
23 -15 7 74.79 19.2
-7 23 15 37.1 27.1
7 15 23 46.8 23.1
7 15 23 29.8 23.9
-7 23 15 12.8 24.5
-15 -23 7 33.1 34
-7 -15 23 28.4 34.6
15 -7 23 59.09 27.7
-15 7 23 77.59 39.3
-7 15 -23 49.2 14.8
7 -15 -23 90.39 31.1
23 15 -7 47.8 13.5
7 -15 -23 63.49 15.6
23 -7 -15 60.49 13.3
7 23 -15 63.39 14.6
15 -23 -7 44.4 22.6
15 23 7 48.1 23.9
15 -9 -23 15.5 11.8
23 -9 15 17.3 15.4
-15 -9 23 7.3 38.5
9 -15 23 29.2 35
23 -9 15 -6.4 16.8
-15 9 -23 45.2 14.7
-9 23 -15 32.2 12.4
23 -15 -9 38 14.3
15 -23 9 33.2 23.7
15 23 -9 24.4 13.8
-23 9 15 29.7 18.6
-9 -23 15 62.69 28.8
15 9 23 43.8 23.9
-9 15 23 39.5 26.7
-15 23 9 5 17.8
-9 15 23 14 20.2
9 23 15 14.5 19.5
-9 -15 23 45.1 34
-23 15 9 21.3 17.1
-9 15 -23 43.1 13.2
-9 23 15 -1.3 21.6
15 23 9 -2.3 21.6
9 -23 15 45.3 28.4
9 15 23 18.6 22.8
23 9 15 26.7 23.4
23 -15 9 27.9 18.3
23 -15 9 35.2 42.4
9 -15 -23 -0.5 33.5
23 -9 -15 19.1 11
9 -15 -23 35.4 12.6
-15 9 23 -32.7 37.4
9 23 -15 29.3 13.2
23 -15 9 6.2 16.9
9 15 23 -14.4 20.7
15 -23 -9 -18.3 38.4
-15 -23 9 59.59 35
15 -9 23 63.89 37.3
23 15 -9 30.8 13.2
-15 23 -9 46.4 13.2
15 -11 -23 130.09 19.5
15 11 23 152.78 24
-15 23 11 121.49 19.7
23 -15 -11 97.19 14.3
-11 23 -15 139.99 19.5
15 -23 11 118.09 24.9
11 23 15 136.09 21.2
23 -11 15 120.89 19.8
11 15 -23 125.79 17.3
11 -15 23 155.18 33.3
-23 11 15 114.19 19.6
15 23 -11 144.99 16.8
-15 11 -23 111.09 15.5
23 -11 15 196.68 21.4
-15 -11 23 64.59 42.1
-11 15 23 156.78 23.8
-23 15 -11 140.69 19.8
-11 -23 15 126.69 33.7
23 -15 11 122.49 19
11 -23 15 121.49 27.1
-15 23 -11 118.59 14.8
-23 15 11 97.29 18.4
-11 15 -23 129.69 15.3
-15 11 23 95.49 35.9
23 15 -11 146.19 21
11 15 23 143.59 23.9
23 -15 11 148.49 21.6
11 23 -15 163.08 20.1
15 23 11 138.09 24.3
23 -15 11 136.39 42.4
-15 -23 11 82.89 36.8
11 15 23 115.09 23.4
23 11 15 79.79 28
15 -11 23 101.79 34.2
-11 23 15 127.09 23.4
23 -11 -15 129.09 19.2
-11 -15 23 141.49 39.9
11 -15 -23 110.09 14.4
-13 -23 15 -19.9 31.2
15 23 -13 38.9 11.3
13 -15 23 60.09 30.7
-15 13 -23 25.3 12.4
13 23 15 26.5 19.1
13 15 -23 30.3 14.7
-15 -13 23 99.99 42.6
15 -23 13 29.9 21.2
23 -13 15 33.9 18.6
-13 23 -15 49.1 11.1
23 -13 15 -1.1 51.89
-23 15 -13 34 11.3
-23 13 15 3.8 15.6
15 -13 -23 0.4 10.1
23 -15 -13 14.4 11.5
15 13 23 17.6 19.8
-15 23 13 21 16.7
15 -13 23 -2.3 30.3
-15 -23 13 39.7 36.7
-13 15 -23 26.8 11.5
15 23 13 27.4 22
-15 23 -13 38.9 11.3
13 -23 15 42 24.7
-23 15 13 24.2 16.2
23 -13 -15 31.5 10.8
13 15 23 26.7 19.7
23 -15 13 -7.9 18.9
-23 13 -15 38.1 11.4
13 23 -15 22.8 11.2
-13 -15 23 38.6 37.6
23 -15 13 77.89 42
-13 23 15 39.1 20.9
13 15 23 24.3 22.5
13 -15 -23 -1.5 10.6
23 -15 13 29.8 15.8
23 -15 -15 0.9 10.3
-15 23 15 -24 18.3
15 -15 -23 24.2 10.2
-15 23 -15 8.6 9.4
23 -15 15 -37.8 19.9
-15 15 -23 0.5 10.6
-23 15 -15 -3 9
-15 -23 15 40.7 37.1
15 -23 15 36.4 24.2
-23 15 15 8.9 15.6
15 23 15 39.7 21.5
15 15 23 21.5 18.9
-15 -15 23 -24.4 41.9
15 15 -23 18.9 17
15 23 -15 7 9.3
15 -15 23 -28.2 27.3
23 -15 15 -55.69 44.2
-23 17 -1 24.2 16.2
1 -17 23 12.7 47.7
17 1 23 12.5 22.8
-17 23 1 32.7 19.9
-1 17 23 39.1 21.7
17 -23 1 27.2 39.5
-1 -23 17 16.2 32
1 23 17 85.09 23.4
17 -23 1 23.2 22.9
17 23 -1 44 15.6
17 -1 -23 19.1 12.5
-23 17 -1 10.4 21.5
-1 23 -17 34.9 13.7
1 -17 23 108.69 47.8
23 -17 -1 28.5 38.1
23 -17 -1 58.69 17.5
-17 -1 23 111.69 44.8
23 1 -17 30.4 14
-1 17 23 23.1 21.2
-1 -17 -23 38 41.3
1 17 -23 54.59 14.9
17 23 -1 51.89 23.1
-23 1 17 27.4 20.2
17 1 23 71.09 44.9
23 -1 17 26.2 19.9
1 23 17 42.5 25.5
17 -1 23 50.99 45.2
23 1 17 18.8 21.4
23 -17 1 52.89 18.2
23 -17 1 -16.3 37.2
1 -23 17 49.6 37.4
1 17 23 31.7 21.8
1 17 23 17.3 24.2
23 -17 1 70.59 37.5
-23 17 1 22.8 20.4
-1 -17 23 -8.6 41
17 -23 -1 57.29 39.6
-1 23 17 38.2 22.2
-17 23 -1 30.7 19.5
-17 1 23 98.89 43.6
-1 17 -23 34.6 14.7
23 -1 -17 70.69 14.4
-23 -1 17 21.8 20.4
1 23 -17 40.4 14.2
-1 23 17 48.1 23.2
17 -23 -1 51.99 22.4
17 1 -23 23.6 13.3
1 -17 -23 66.59 37.7
17 -1 23 42.3 24
17 23 1 31.7 22.8
-23 17 -3 28.3 13.9
17 23 -3 -1.1 21.6
3 23 17 20.2 19.9
-17 23 3 9.6 19.4
17 -23 3 55.69 42.3
23 -3 17 -7.1 17.4
23 3 -17 -3.5 15.1
17 -23 3 30.2 22.2
-3 17 23 11.9 21.6
3 23 17 19.2 27.6
3 17 -23 9.7 13.7
23 -17 -3 0.3 15.8
17 3 23 25.6 23.1
3 -17 23 55.19 43.5
-3 17 23 5 20.9
-23 3 17 -33.4 18.7
17 23 -3 26.3 14.4
-3 -23 17 23.1 30.8
23 -17 -3 -17.3 36.7
-17 -3 23 10.6 41.8
-3 23 -17 21.9 11.3
-23 17 -3 -17.3 20.5
17 -3 -23 20.3 11.8
17 -23 -3 -38 20.9
17 -23 -3 54.79 35.3
3 -17 -23 -0.7 30.7
17 3 -23 17.7 12.6
-3 23 17 36.7 22.7
-23 17 3 -17.6 19.3
23 -17 3 -48 40.6
3 -23 17 -20.9 39.8
3 23 -17 8.9 11.9
17 -3 23 12.6 22.5
-3 -17 23 -35.6 37.2
-17 3 23 -40.4 41.6
3 17 23 0.6 21.4
17 -3 23 -45.6 41
-3 17 -23 3.1 12.7
17 23 3 27.9 23.3
-3 23 17 11.8 23.4
23 -3 -17 6.2 11.5
3 -23 17 -3.2 42.5
3 17 23 24.1 21
23 3 17 -1.1 20.1
23 -17 3 -32.4 34.7
23 -17 3 50.19 18
-17 23 -3 23.7 20.2
5 17 -23 109.99 16.6
17 -5 -23 101.89 14.9
-17 -5 23 84.29 46.7
-5 23 -17 155.58 20.4
23 -5 17 125.69 23.2
-17 23 5 102.69 20.9
-5 -23 17 102.79 31.8
5 23 17 138.19 23.3
-5 17 23 114.29 24.3
5 23 17 58.99 36
-23 17 -5 109.29 15.2
23 -17 -5 112.29 16.4
17 5 23 90.39 24.8
-5 17 23 115.19 23.4
17 23 -5 128.49 23.4
17 -23 5 126.19 24.9
17 23 -5 120.99 15.5
-23 5 17 150.88 21.1
5 -17 23 110.99 41.8
-17 23 -5 148.19 17.6
-5 17 -23 116.69 15.1
-5 -17 23 131.09 39.1
23 5 17 103.79 22.7
5 17 23 122.59 25.7
-17 23 -5 147.59 24
17 -23 -5 113.09 23.7
17 -5 23 144.39 25
5 -17 -23 225.88 48.7
-5 23 17 144.59 24.7
17 -23 -5 207.48 52.09
-17 5 23 129.89 42.3
23 -5 -17 150.78 20.1
17 5 -23 123.09 16.9
23 -17 5 134.89 36.1
-23 17 5 121.99 22.6
5 -23 17 190.78 38
23 -17 5 151.78 52.89
17 23 5 163.48 28
-5 23 17 163.18 26.5
5 17 23 173.68 25.5
5 23 -17 202.38 22.8
17 -5 23 113.79 41.9
23 -17 5 131.89 20.4
17 23 -7 60.19 13.2
-7 17 23 33.3 22.8
-23 7 17 26 18.8
-7 23 -17 55.99 11.7
23 -7 17 61.09 18.2
-17 23 7 58.89 17.8
-7 -23 17 23.1 29.4
17 7 23 115.19 24.9
-23 17 -7 83.69 14.2
17 -7 -23 88.59 14
17 -23 7 73.99 23.3
-7 17 23 56.59 19.8
-17 -7 23 78.69 44.2
7 23 17 62.59 18.5
-17 7 -23 93.09 17.3
23 -17 -7 71.09 15.3
7 17 -23 99.39 16
7 -17 23 68.59 35.3
7 23 -17 92.79 14.6
23 -17 7 81.49 18.4
17 -7 23 80.79 23.6
23 -7 -17 78.89 12.9
23 -17 7 83.59 35.1
-17 7 23 99.69 44.4
-17 -23 7 100.59 47.4
-17 23 -7 46.2 24.4
23 7 17 65.29 21.3
17 -7 23 164.88 40.4
-23 17 7 46.6 17.7
-17 23 -7 76.49 14.8
7 17 23 106.59 24.2
-7 23 17 71.69 26.2
7 -23 17 111.99 34.6
7 17 23 97.39 20.9
-7 17 -23 68.59 13.5
17 -23 -7 97.69 20.9
23 -17 7 30.8 17.2
-7 -17 23 116.29 36.5
7 -17 -23 57.99 14.9
17 23 7 95.99 25.5
17 23 -9 7.1 11.4
17 -9 -23 25.2 10.9
-23 17 -9 28.6 11.5
9 23 17 -16.7 16.7
23 -17 -9 19.3 13
23 -9 17 5.8 16.9
9 17 -23 6.2 12.6
-17 23 9 -10.2 15.5
-9 23 -17 15.7 10.2
-9 17 23 50.39 25.7
-17 -9 23 51.29 41.9
9 -17 23 -11.4 30.1
-23 9 17 9.6 17
17 9 23 17.2 18.4
-9 -23 17 -8.1 30.7
17 -23 9 4.1 21.8
-9 17 23 25 18.8
-17 9 -23 1.6 13.3
9 -23 17 -24.1 28.2
-9 -17 23 -15.7 33.9
17 -9 23 -13.2 34.7
23 -17 9 31 18.9
23 -9 -17 13 10
9 17 23 33.7 20.8
23 9 17 7.6 21.2
9 17 23 4.7 18.8
-23 17 9 15.1 16.5
17 23 9 36.5 25.3
17 -9 23 14.2 23.8
17 -23 -9 18.2 19.5
9 -17 -23 21.4 13.1
-17 9 23 31.7 41.4
23 -17 9 41.1 36.7
-9 17 -23 -3.6 11.1
-17 -23 9 18.6 45.6
-17 23 -9 7.2 11.6
9 23 -17 7 10.3
-23 9 -17 9 10.1
23 -17 9 4.5 16.9
11 -17 23 72.69 31.3
17 -23 11 85.99 23.5
23 -11 17 83.59 19.1
-23 17 -11 64.79 12.2
11 17 -23 50.49 13.8
17 11 23 72.19 20.1
-17 -11 23 27.8 44.2
11 23 17 69.89 18.7
17 -11 -23 83.39 12.9
-17 23 11 65.39 17
-11 23 -17 52.69 10.8
-11 -23 17 72.49 32.6
17 23 -11 50.29 11.5
-23 11 17 56.19 18
23 -17 -11 79.49 14.4
-17 11 -23 68.69 13.6
23 -17 11 152.78 41.2
23 -17 11 65.69 18.8
17 -23 -11 75.29 20.2
17 23 11 105.49 25.8
23 11 17 80.69 25.4
23 -17 11 29.6 19.6
11 -17 -23 80.69 13.2
11 23 -17 57.49 11.7
-17 -23 11 63.89 45.9
-17 23 -11 78.29 12.7
-23 11 -17 77.09 12.4
17 -11 23 27 33.1
23 -11 -17 58.99 11
-11 -17 23 126.19 37.1
-23 17 11 67.79 17.6
-11 17 -23 55.29 12.4
11 17 23 51.19 20.5
11 17 23 56.09 20.1
11 -23 17 48.2 27.9
-17 -13 23 -1.1 44.1
23 -17 -13 18.9 11.9
17 -23 13 27.4 23.3
-23 17 -13 2.6 9.3
17 -13 -23 10.5 9.3
-17 23 13 -2.5 15.6
-13 -23 17 -42.2 34.5
13 23 17 -23 18.4
-23 13 17 36.6 18.3
13 -17 23 61.99 28.1
-17 13 -23 20 11
17 23 -13 -1.4 9.2
-13 23 -17 13.1 9.1
17 13 23 -0.7 20.3
23 -13 17 16 20.5
13 17 -23 -8.6 13.2
13 17 23 14.4 20.8
-23 17 13 29.8 15.5
23 -17 13 -20.8 22.4
-17 -23 13 -52.49 49.7
13 17 23 4 22
-13 -17 23 0.1 37.1
23 -17 13 -22.2 40.6
13 23 -17 -3.8 8.9
17 -23 -13 -18.6 18
-23 13 -17 15.3 10.1
13 -17 -23 -7.9 11.5
13 -23 17 19.5 24.6
-13 17 -23 12.8 10.9
-17 23 -13 -1.9 9.7
17 -13 23 16.6 30.2
23 -13 -17 14.3 9.5
23 -17 -15 44.7 11.9
-15 23 -17 42.2 9.8
17 23 -15 23.7 9.4
23 -15 17 35.8 26.5
-15 -23 17 -26 43.6
15 17 -23 69.49 15.9
17 -15 -23 31.2 9.8
-17 15 -23 52.79 11
-17 -15 23 111.69 53.49
17 15 23 40.7 20.7
-23 15 17 15.5 19.4
15 -17 23 55.69 26.5
-23 17 -15 54.09 10.1
-17 23 15 40.6 18.5
15 23 17 80.29 23.9
17 -23 15 16 24.3
17 -15 23 11.7 28.6
-23 15 -17 14.7 8.9
15 -23 17 47.3 24.2
-15 17 -23 42.3 10.9
15 -17 -23 56.09 12.6
-15 -17 23 125.79 45.8
15 17 23 52.79 22.7
15 23 -17 35.4 9.6
-23 17 15 61.99 17
-17 23 -15 40.3 10.4
23 -17 15 -50.49 48.5
23 -15 -17 35 10.3
17 -23 -15 45.3 19
-17 17 -23 47.9 10.8
17 -23 17 19.9 26.2
-17 23 -17 70.99 10.5
23 -17 -17 77.09 13.2
17 -23 -17 75.99 21.4
17 23 -17 62.39 9.6
-23 17 -17 64.69 10.6
17 -17 23 90.49 28.1
1 -19 23 114.09 51.69
-1 19 23 207.48 24.7
-1 19 23 146.69 22.5
19 -23 1 192.78 26
23 -1 19 134.09 20.7
-1 -23 19 198.18 42
19 1 23 194.88 25.7
23 -19 -1 193.48 28.6
-19 -1 23 95.69 52.09
1 -19 23 32.7 55.59
-23 19 -1 129.19 22.9
1 19 -23 166.68 21
23 1 -19 154.58 21.2
1 23 19 211.18 29.4
1 23 19 196.08 25.3
-19 23 1 127.39 20.1
19 -1 -23 160.48 19.5
-1 23 -19 182.88 20.5
19 23 -1 147.39 27.5
-23 1 19 226.18 34.2
23 -19 -1 164.28 35.2
-1 23 19 153.98 24.4
23 -19 1 145.69 20.4
-1 -19 23 201.18 46.1
1 23 -19 144.99 19.5
23 1 19 245.48 33.9
-19 1 23 91.49 52.19
19 -1 23 189.58 25
-1 19 -23 157.28 21.4
19 23 1 163.58 29.3
-23 -1 19 180.08 23.4
-19 23 -1 159.38 21.7
19 -23 -1 173.68 24.2
-23 19 1 145.49 22.6
23 -19 1 189.28 34.6
19 1 -23 193.58 20.6
1 19 23 170.18 23.8
1 -23 19 170.28 44.3
23 -1 -19 211.08 19.9
1 19 23 139.59 22.1
-1 23 19 172.08 22.8
19 -3 -23 29.4 11.1
3 19 -23 18.8 11.5
3 -19 23 23.5 41.7
-3 -23 19 -36 33.5
23 -19 -3 75.79 36.2
19 23 -3 54.19 13.3
-23 3 19 29.8 19.2
-19 -3 23 -41.4 49.9
3 23 19 20.7 23
23 -19 -3 4.9 15.7
23 3 -19 -7.7 14.9
19 3 23 25.5 19.1
-3 19 23 21.4 18.2
3 23 19 65.99 18.3
-3 23 -19 42.6 11.6
-3 19 23 42.5 20
-23 19 -3 26.8 21.5
19 -23 3 64.39 21.8
-23 19 -3 30.6 15.2
23 -3 19 50.59 18
-19 23 3 33.7 16.4
-23 -3 19 19.9 20.7
19 -3 23 6.8 45.3
-19 3 23 181.98 50.79
-23 19 3 52.89 18
23 -19 3 51.39 18.3
23 -19 3 49.7 32.6
3 19 23 39.1 19
23 -3 -19 30.5 11.2
3 -23 19 -10.6 46.4
23 3 19 48.9 20.2
19 -3 23 36.8 19.5
3 19 23 22.6 18.6
19 3 -23 29 13.7
3 23 -19 34.5 10.9
19 -23 -3 49.1 21
-19 23 -3 74.99 20.5
-3 23 19 16.8 19.8
-3 19 -23 22.4 12.1
-3 -19 23 -10.7 37.7
-3 23 19 48 21.3
-19 -5 23 -13.6 50.19
19 -23 5 25.2 21.1
-5 19 23 1.8 19.5
19 5 23 1.3 18.5
5 19 -23 16.9 12
5 23 19 -1.9 16.6
5 -19 23 63.49 38.1
5 23 19 37.2 25.5
-19 23 5 13.4 15.6
23 -5 19 3 16.6
-5 23 -19 6 9.5
19 -5 -23 -1 9.8
-5 -23 19 54.99 33.4
-23 19 -5 15.5 12.8
-5 19 23 4.5 16.8
19 23 -5 9.2 11
-23 5 19 8.1 19.9
23 -19 -5 2.6 15.3
19 -23 -5 15.1 19.5
5 -23 19 33.7 38.9
-19 23 -5 -16.9 14.6
-5 19 -23 7.8 10.8
23 -19 5 22.3 18.9
-23 19 5 -7.7 16.4
23 -19 5 49.6 32
5 23 -19 -3.5 10.4
-5 -19 23 -53.39 36.4
-5 23 19 0.6 20.3
-5 23 19 11.6 17.9
23 -5 -19 7 9.6
5 19 23 11.4 18.7
-23 -5 19 4.3 20.6
23 5 19 -12.1 18.2
19 -5 23 34.5 43.8
-19 5 23 -18.7 50.39
-23 5 -19 16 11.3
-19 23 -5 -10.8 21
5 19 23 7.5 17.5
19 -5 23 5.9 19.1
-19 23 7 3.8 14.5
7 23 19 3.2 15.4
7 19 -23 8.9 11.7
-7 19 23 3.7 21.7
19 -7 -23 -2.9 9.8
19 23 -7 -15.4 9.8
-7 -23 19 -13.3 31.7
7 -19 23 20.6 32.8
-7 23 -19 -8.1 9.3
-19 -7 23 9 49.4
23 -19 -7 3.7 15.6
-23 7 19 -20.6 19.9
23 -7 19 7 16.3
-7 19 23 9.4 17.1
-19 7 -23 11.8 17.3
-23 19 -7 -2.5 11.6
19 -23 7 -37.2 21.3
19 7 23 15.9 18.4
-19 23 -7 -17.4 12.3
23 -7 -19 -5.6 9.3
-19 7 23 -20.1 48.5
23 7 19 18 19.8
-23 -7 19 20.1 20.5
23 -19 7 18.3 18.5
-7 19 -23 0.3 10.2
-23 7 -19 -4.3 10.7
23 -19 7 34.4 19.5
19 -23 -7 32.3 20.6
-23 19 7 21.3 16.2
-7 23 19 -10 25.6
19 -7 23 33.2 19.8
7 19 23 40 18.5
7 23 -19 -12.7 9.8
7 19 23 -3.9 19.1
-7 -19 23 47.9 36.5
19 -7 23 -12.8 38
23 -19 7 61.69 32.8
7 -23 19 33.3 33
-23 9 19 109.69 22.7
23 -19 -9 78.49 15.8
-19 9 -23 96.19 14.5
19 -23 9 111.99 21.6
9 -19 23 44.5 32.3
-19 23 9 78.19 16.7
19 -9 -23 64.79 11
9 19 -23 73.99 12.9
-19 -9 23 127.49 51.49
-23 19 -9 62.39 12
23 -9 19 22.9 17.9
19 23 -9 44.2 11
19 9 23 66.99 19.1
-9 23 -19 82.49 11.6
9 23 19 74.49 17.4
-9 -23 19 95.99 33.8
-9 19 23 122.69 31.2
-23 -9 19 115.19 22.5
-19 23 -9 71.89 13
19 -23 -9 120.59 22.9
-23 9 -19 73.49 12.7
-9 -19 23 79.69 38.6
-9 19 -23 67.59 12
23 -19 9 9.1 33.9
9 19 23 101.09 18.6
19 -9 23 77.49 23.3
9 19 23 74.89 19.9
19 -9 23 81.19 38.6
23 -19 9 10.5 20
23 9 19 93.69 21.8
9 23 -19 71.69 12
-23 19 9 83.29 16.1
23 -19 9 75.29 21.9
9 -23 19 129.39 31.2
23 -9 -19 80.29 11.3
11 19 -23 230.38 21.1
11 23 19 218.08 21.7
19 -11 -23 207.78 16.6
11 -19 23 201.58 33.9
-19 -11 23 159.28 61.19
-11 -23 19 227.18 40.4
19 -23 11 189.08 27
-19 11 -23 263.57 21.9
-19 23 11 232.18 25.1
23 -11 19 229.38 23.8
-23 11 19 309.27 36.2
19 11 23 249.78 30.9
-11 23 -19 234.18 18.6
23 -19 -11 179.98 22
-23 19 -11 249.08 19
19 23 -11 239.68 18.5
11 19 23 207.98 29.2
-23 11 -19 217.38 18.3
-23 19 11 276.37 25.5
11 -23 19 188.68 31.6
11 19 23 234.18 32.9
-11 -19 23 221.88 41.3
19 -11 23 271.77 40.1
19 -23 -11 220.38 26.8
11 23 -19 221.68 19.1
-19 23 -11 207.68 19.6
23 11 19 192.58 24.7
23 -11 -19 230.08 18.1
-11 19 -23 217.28 18.2
23 -13 19 46.7 23.6
19 13 23 32.6 20.4
19 -23 13 51.49 25.2
13 19 -23 65.29 13.2
13 23 19 63.69 19.7
13 -19 23 83.49 28.7
-23 19 -13 65.49 10.9
-19 23 13 101.19 16.7
-13 -23 19 11.2 38.8
-13 23 -19 83.89 11
-19 13 -23 86.69 12.2
23 -19 -13 66.99 15.2
19 23 -13 81.89 11.1
19 -13 -23 63.79 10.3
19 -23 -13 25.5 22.6
-19 23 -13 46.2 10.1
13 19 23 70.19 23.1
-23 13 -19 80.29 10.9
23 -19 13 81.99 43.5
-13 -19 23 144.19 43.4
23 -13 -19 78.99 11
13 -23 19 70.09 27.4
-13 19 -23 72.09 10
-23 19 13 68.49 16.7
19 -13 23 81.89 36
13 19 23 70.79 36.6
13 23 -19 63.79 10.4
-23 19 -15 -8.7 8.7
-19 15 -23 8.8 14.4
19 -23 15 10 26.9
15 -23 -19 -14.2 16.7
15 -19 23 0.3 27.2
19 -15 -23 1.6 9
19 23 -15 7.3 8.3
-15 23 -19 -13.3 8.4
15 23 -19 6.8 9.1
-15 19 -23 -17.7 9.2
15 -23 19 18.6 25.3
-23 19 15 36.6 16.8
23 -15 -19 23.4 10.3
-19 23 -15 10.1 9.4
-23 15 -19 2.1 9
19 -15 23 -44.8 32.4
1 23 21 496.15 32.7
-1 23 -21 479.15 25.2
23 -21 -1 391.56 49.4
-1 21 23 456.85 32.3
-23 21 -1 468.05 34.4
-21 23 1 453.65 32
21 -23 1 412.66 40.5
21 1 23 483.85 35.7
-1 -23 21 535.75 65.69
23 1 -21 394.46 26.3
23 -1 21 485.45 34.1
-1 21 23 432.26 33
21 -1 -23 453.75 24.4
1 21 -23 461.05 25.1
1 23 21 379.96 35.7
-1 -21 23 551.04 74.59
23 -1 -21 494.05 24.8
-23 21 1 461.35 33.7
1 -23 21 316.67 83.89
1 23 -21 457.15 24.6
21 -1 23 487.15 37.2
-1 23 21 429.36 33
-1 23 21 446.76 35.6
23 1 21 471.35 35.2
21 1 -23 444.76 25.8
23 -21 1 393.06 49.9
-21 23 -1 431.56 33.2
-1 21 -23 438.76 25
1 21 23 476.35 32.1
1 21 23 431.36 35.7
21 -23 -1 470.15 39.5
-3 -23 21 124.99 43.3
3 23 21 234.68 28
-3 23 -21 213.18 19.4
-21 23 3 259.47 27.1
3 23 21 254.37 34.6
3 -21 23 291.97 50.69
21 -23 3 230.98 36.1
21 -23 3 194.28 25.5
23 -3 21 243.98 30
21 -3 -23 246.38 18.8
-3 21 23 227.58 29.4
21 3 23 232.38 30.4
23 -21 -3 202.28 37.4
-3 21 23 243.98 30
-23 21 -3 210.58 31.9
3 21 -23 249.88 20.4
23 -21 3 212.58 32.8
3 21 23 228.78 30.6
23 -3 -21 212.78 19.2
3 21 23 222.28 27.2
23 3 21 255.87 32.1
-3 21 -23 246.98 20.5
3 23 -21 257.87 19.9
-3 -21 23 272.87 47.3
21 -3 23 246.08 31.9
21 -23 -3 234.68 34.1
-21 23 -3 260.77 32
-3 23 21 222.48 30.3
-3 23 21 224.98 29.4
-23 21 3 236.88 26.9
3 -23 21 283.67 54.89
5 21 -23 51.49 11.4
-23 21 -5 69.59 14.8
5 -21 23 -11 39.7
23 -5 21 23.7 15.9
-5 23 -21 49.99 11.1
-5 21 23 47.8 20.1
21 -5 -23 38.1 10.3
-5 -23 21 18.6 37.3
5 23 21 24.3 15.6
-5 21 23 66.49 16.5
21 -23 5 51.89 23.7
21 5 23 51.49 18.9
5 23 21 30.3 23.4
-21 23 5 27.5 14.5
21 -5 23 40.9 18.6
-5 -21 23 45.1 40.7
5 -23 21 -28.8 41.8
23 -5 -21 32.4 9.9
-23 5 -21 29.9 14.4
5 21 23 47 19.2
23 -21 5 70.19 20.2
-5 23 21 28.6 20.5
23 -21 5 -8.3 29.2
5 23 -21 31.1 10.5
21 -23 -5 45.8 24.8
5 21 23 77.79 16.9
23 5 21 22.1 17.6
-23 21 5 53.99 16.2
-5 21 -23 50.49 11.3
21 7 23 38.4 16.6
-7 -23 21 14.1 37.8
7 23 21 33.7 15.7
21 -7 -23 12.1 8.3
-7 23 -21 23.1 9.8
23 -7 21 48.3 17.1
21 -23 7 58.39 23.4
7 21 -23 21.1 11
7 -21 23 64.89 35.7
-7 21 23 20.5 23.6
-23 21 -7 19.6 12
-21 23 7 32.5 14.4
23 -21 7 52.49 33.4
-23 21 7 35.3 15.3
-7 21 -23 23 10.4
23 -21 7 23.8 24.1
7 -23 21 -17.3 35.4
23 7 21 -2.7 16
-7 -21 23 9.1 39.7
-21 23 -7 43.7 13.4
7 21 23 24.7 15.7
-23 7 -21 30.2 12.1
7 21 23 82.89 20.7
21 -7 23 25.4 19
7 23 -21 47 10.3
23 -7 -21 14.6 9.2
21 -23 -7 58.09 24.9
21 9 23 276.47 29.6
9 23 21 259.87 25
-21 23 9 310.87 23.5
-9 23 -21 228.98 18.2
21 -9 -23 228.38 17.4
9 21 -23 220.88 20.2
23 -9 21 291.67 30.6
9 -21 23 276.97 36.7
-23 21 -9 237.58 20.5
21 -23 9 263.77 40.7
-9 -23 21 270.17 40.3
9 -23 21 217.18 35.5
-23 9 -21 228.68 20.1
-21 23 -9 283.67 21.7
23 -21 9 244.18 37.7
9 21 23 230.08 26.1
23 9 21 255.67 31.7
21 -9 23 312.37 35.2
-9 -21 23 192.18 41.8
23 -9 -21 302.47 18.5
-9 21 -23 261.57 18.7
9 21 23 219.88 26.3
21 -23 -9 195.78 29
9 23 -21 237.68 19.4
-23 21 9 216.38 23.9
-21 23 11 520.85 27.9
11 23 21 478.15 29.9
-11 -23 21 542.55 73.49
11 -21 23 478.95 45.5
21 -23 11 467.15 45.2
23 -11 21 390.96 52.89
-11 23 -21 466.55 22.3
11 21 -23 435.46 24
21 11 23 470.05 35.5
21 -11 -23 477.95 22
-23 21 -11 441.76 23.6
-23 21 11 434.66 28.4
11 23 -21 437.26 22.4
-21 23 -11 466.95 23.5
-11 21 -23 476.25 23.2
-11 -21 23 416.86 60.09
23 -11 -21 464.45 21.7
11 -23 21 415.46 43.5
-23 11 -21 449.06 24
11 21 23 440.56 29.5
-1 23 -23 353.96 21.5
-1 23 23 378.46 27.8
23 1 23 381.76 29
-1 23 23 346.57 32.6
-23 23 1 357.76 29.1
1 23 23 331.27 25.8
23 -1 -23 331.47 21.1
23 -1 23 393.66 29.9
23 -23 1 377.76 50.19
1 23 -23 371.76 21
23 -23 1 431.16 34.6
-23 23 -1 349.07 32.8
1 23 23 376.56 32.2
3 23 23 147.79 22.1
23 -23 3 179.98 34.4
3 23 -23 160.48 18
-3 23 -23 114.89 16.4
23 3 23 166.38 20.3
23 -3 -23 148.99 17.1
-3 23 23 120.29 19.9
3 23 23 162.88 18.3
-23 23 3 191.18 24.7
23 -3 23 118.09 17.7
5 23 -23 -4.7 10.6
23 -5 23 24.8 16.1
-23 23 5 22.3 12.5
-5 23 23 37.8 22.2
5 23 23 19.5 14.4
23 5 23 -19.5 15.4
-5 23 -23 -2 9.1
23 -5 -23 30.5 9.3
23 -7 23 15.8 18.2
7 23 -23 12.4 9.9
23 -7 -23 12.1 8.4
7 23 23 -4.1 13.1
23 7 23 23.6 16.3
-7 23 -23 10.8 8.9
-23 23 7 -23.1 12.2
0 24 0 1025.2 57.09
0 24 0 1071.89 62.99
0 0 24 1112.79 89.09
0 0 24 969.5 81.99
0 0 24 1137.09 101.59
0 0 -24 1015.9 56.99
24 0 0 1052.09 50.19
0 -24 0 983.7 66.79
-2 0 24 513.15 64.09
0 2 24 500.35 61.89
0 24 -2 533.75 43.7
0 24 2 611.84 52.59
0 -2 24 703.73 82.09
0 2 24 552.04 68.99
2 0 -24 611.54 46.3
0 2 -24 558.74 48.6
0 -24 2 599.54 63.79
-2 0 24 572.74 78.09
-2 24 0 588.34 45.4
2 24 0 519.25 43
2 24 0 529.75 53.39
2 -24 0 604.84 53.89
0 24 2 590.64 46.7
2 0 24 606.44 95.99
24 0 2 592.84 42
0 -2 24 746.33 92.49
2 0 24 569.04 83.59
-2 0 -24 472.55 49.2
0 24 -2 606.04 52.99
0 -2 24 638.24 77.89
-2 24 0 570.84 54.69
0 -2 -24 534.05 49.7
-2 0 24 606.74 77.79
24 0 -2 616.74 39
-2 -24 0 449.16 67.39
0 24 -2 616.94 45.8
24 2 0 634.04 42.4
2 0 24 641.64 72.39
0 2 24 581.24 79.59
24 -2 0 531.95 38.1
-2 24 -2 432.76 50.29
-2 -2 24 414.06 62.19
2 -2 -24 340.57 45.2
-2 2 24 361.96 45.2
2 -2 24 330.77 57.69
2 2 24 379.86 55.69
2 24 -2 375.26 41.1
2 24 2 353.26 40.3
-2 -24 2 321.67 45.6
2 2 -24 380.26 43.3
-2 24 2 357.86 51.99
2 24 -2 393.16 50.19
2 24 2 359.86 38.6
2 2 24 487.05 62.39
24 -2 -2 378.86 34.2
2 -2 24 349.67 49.4
2 -24 2 398.96 50.99
-2 2 -24 428.26 38.1
-2 24 2 434.46 42.3
-2 2 24 336.47 50.69
-2 2 24 284.87 52.19
24 2 -2 415.06 37.5
-2 -2 -24 347.77 48.7
-2 2 -24 336.87 36.4
2 2 24 297.57 40.2
24 2 2 325.97 46.5
-2 24 -2 392.76 41.6
-24 2 -2 435.26 52.99
-2 24 -2 430.46 55.49
24 2 2 365.56 39.9
2 24 -2 377.86 38.1
2 -2 24 416.76 57.29
-2 -2 24 417.46 65.89
-2 -24 -2 427.16 45.1
24 -2 2 359.36 36
0 -4 24 -31.2 41.1
24 -4 0 4.9 17
24 4 0 -10.4 24.8
-4 0 24 -3.2 49.7
0 4 24 54.59 43
24 0 4 -2.9 19.8
0 4 24 50.79 44
-24 4 0 11.1 27.3
0 4 -24 12.2 22.3
24 0 -4 8.8 16
0 24 4 0.3 25.8
-4 24 0 -2 22.3
0 4 24 -3 28
-4 24 0 -19.6 31.3
-4 0 24 64.19 44.5
0 24 -4 -0.9 18.2
-4 0 24 -38.1 40.4
24 0 4 -6.7 20.6
0 24 -4 0.7 19.5
4 0 24 16.1 55.59
0 -24 4 -0.3 33.7
4 0 24 39.4 34.8
4 -24 0 -34.9 25.5
0 24 -4 20.1 26.1
0 -4 -24 -19.1 27.6
4 0 -24 -30.5 23.3
0 24 4 5.6 21.9
0 4 -24 -33.8 27.4
4 0 24 20.6 48.7
4 24 0 5.5 20.9
0 -4 24 40 51.29
4 24 0 -25.5 26.6
-4 0 -24 23.8 20.9
0 4 24 -9.8 33.7
2 4 -24 12.2 24.8
4 2 24 20.6 33.7
-2 24 -4 59.39 27.1
2 24 4 -21.5 19.2
4 24 -2 -8.2 26.8
4 2 24 51.29 48.5
4 -24 2 11.1 25.1
24 4 2 -3.3 29.2
-2 24 -4 14.4 18.7
-2 -4 -24 31.6 29.8
4 -2 -24 -23.3 24.3
24 2 -4 0.7 19
24 -4 -2 -17.4 14.8
-2 4 24 8.6 30.7
4 2 24 17.5 55.39
2 24 4 23.4 25.1
24 4 2 -20.8 24.5
2 -4 24 -18.2 46.5
-4 -2 24 -33 37.6
2 4 -24 13.6 24.8
-2 4 24 42.9 41.5
2 -4 24 25.7 46.5
4 24 -2 13.4 20
4 24 -2 44.4 20.1
24 -2 4 10.9 19.3
4 2 24 -20.8 30.3
-24 4 -2 39.5 29
-2 4 24 8.8 29.8
-2 24 -4 24.3 21.3
-4 24 2 23 29.8
-4 24 2 -31.5 19.2
-4 -2 24 27.9 57.29
-4 2 -24 19.8 21.9
24 -2 -4 12.2 17.1
-2 24 4 -18.1 22.6
2 -4 -24 -14 24.7
24 -4 2 18.4 17.5
2 -24 4 -27.9 29.1
4 24 2 27.2 24.8
-2 4 -24 22.7 23.2
2 24 -4 -4.1 22.2
2 4 24 -18.3 31
-2 4 -24 -9 31.6
2 4 24 41.8 39.7
2 24 -4 -11.1 26.9
24 2 4 30.1 21.1
-2 24 4 4.6 27.1
2 4 24 5.6 30.4
-2 -4 24 26.4 38
-4 2 24 -21 35.2
-24 2 -4 5.8 32.6
-4 24 -2 -21 22.1
-24 4 2 21.6 23.4
4 -2 24 21.6 36.7
2 24 -4 3.1 17.2
4 -2 24 47.7 48.4
4 24 2 -7 21
4 2 -24 5.6 22.9
-2 -4 24 -6.8 51.19
24 4 -2 6.7 23.6
-4 2 24 36.7 39.1
24 2 4 -5.9 23.6
4 -2 24 102.69 57.99
2 4 24 72.69 46.6
-4 24 -2 21.1 32.3
24 4 -4 301.67 39.3
4 -24 4 362.06 48.7
4 -4 24 333.07 50.19
4 4 -24 355.56 47.7
-4 -4 24 322.67 66.49
-4 24 -4 347.97 52.79
-4 24 4 350.36 51.89
-4 4 24 370.06 41.4
4 24 4 371.26 45.9
-4 4 24 237.08 46.6
4 -4 24 279.97 65.99
4 4 24 349.57 59.79
4 24 4 352.26 39.8
4 24 -4 319.77 33.2
-24 4 -4 322.87 40.2
24 -4 4 320.17 34.8
4 24 -4 356.16 39.6
4 4 24 354.46 55.69
4 -4 24 241.38 50.59
-4 24 -4 304.67 39.3
-4 24 4 321.87 41.2
-4 24 -4 300.87 34.9
24 -4 -4 320.37 29.8
4 24 -4 353.46 38.5
24 4 4 284.97 33.2
4 4 24 396.16 51.79
-4 4 24 269.57 38.6
4 4 24 352.06 41.2
24 4 4 338.57 46.9
4 -4 -24 249.58 30.7
4 4 -24 345.67 44.2
-4 -4 24 322.37 48.3
-24 4 4 362.26 43.9
-4 4 -24 330.07 38.9
24 -6 0 8.1 16.6
0 -24 6 -6.7 39
-6 0 24 -18 40.9
0 6 -24 14.5 28.5
24 0 6 -1.6 20
0 6 24 12.1 29.4
6 0 24 41.3 31.9
24 0 -6 10.2 16.4
0 -6 24 -13.8 41.9
24 0 6 17.3 19.7
6 -24 0 42.1 25.3
6 24 0 29.9 19.5
6 0 24 0.2 46.6
0 -6 24 22.7 47.7
-6 24 0 1 20.7
0 6 24 32.4 42.3
0 -6 -24 40.8 29.6
0 24 -6 10 15.6
-24 6 0 -31.3 26.1
0 24 6 -6.2 21.9
0 24 -6 21.4 23.1
-6 24 0 5.1 37.8
6 24 0 5.8 27.5
-6 0 -24 5.4 21.2
0 24 -6 27.3 24
6 0 -24 14.7 24.7
6 0 24 -26.7 31.9
0 24 6 -13.5 26.2
0 6 24 -21.2 25.9
0 6 -24 13.2 25.8
6 24 -2 7.7 20.3
2 6 -24 33.8 25.8
6 2 24 -31.2 26.5
-2 6 24 21.7 39.6
6 -2 -24 12.9 24.5
-6 -2 24 45.6 39.3
6 2 24 -0.4 30.3
6 24 -2 6 18.5
2 24 6 -1.1 26.3
-24 6 -2 1.3 27.3
6 -24 2 26.9 24.1
2 -6 24 -4.1 44.7
-2 6 24 34.6 31.3
6 2 24 5.9 47.1
-2 -6 -24 11 28.4
2 24 6 -8.8 19.4
24 -2 6 33.5 21
24 -2 6 15.1 17.9
24 -6 -2 -9.8 14.7
6 24 -2 26.6 26.3
-6 2 -24 -11.2 21.1
-2 24 -6 -10.6 21.5
-6 24 2 39.2 35.1
-6 24 2 -12.8 22.4
-2 24 -6 4 16.9
2 6 -24 -12.4 28.5
24 2 -6 2.3 17.6
-2 24 -6 6.7 24.9
-2 6 24 -1.6 27.5
2 -6 24 -12.4 47.2
-2 6 -24 46.6 34
6 -2 24 13.1 34.5
2 6 24 -33.8 43.5
6 2 -24 29.4 23.2
6 24 2 15.4 18.7
-2 6 -24 -26.6 24.1
2 6 24 5.2 25.1
6 24 2 42.2 25.5
-2 24 6 27 27.6
24 -6 2 3.5 36.4
-6 2 24 42.7 42
24 2 6 -16.8 21.6
-6 24 -2 -35.1 33.1
2 24 -6 -4.8 23.1
-24 6 2 51.49 25.6
2 24 -6 3.9 16.6
24 -2 -6 -8.1 15.4
-6 24 -2 -0.5 20.3
-2 24 6 30.6 24.4
2 -24 6 -18.9 32.2
2 24 -6 11.2 21.3
6 -2 24 -37.2 44.5
-6 -2 -24 8 20.5
2 6 24 -14.6 30.1
2 -6 -24 -5.1 26.3
24 2 6 -5.1 22.8
-2 -6 24 2.7 51.49
-6 2 24 -8.1 34.1
24 -6 2 6.3 16.5
-2 -6 24 -20.8 41.7
-4 6 24 298.87 50.89
6 24 -4 284.87 43.6
24 -4 6 270.87 33.9
4 -6 24 232.98 69.39
-4 6 24 261.27 36.8
-6 24 4 323.27 42
6 4 24 240.38 36.4
-4 24 -6 224.48 33.3
6 4 24 293.27 50.59
4 24 6 211.98 30.1
6 4 24 308.47 37.2
6 -4 -24 263.07 32.9
-6 24 4 326.97 40.5
-24 4 6 300.57 41.2
-6 -4 24 287.47 46
24 -6 -4 268.07 28.5
-4 24 -6 285.17 40.8
-6 -4 24 211.88 66.39
24 6 4 318.27 43.2
-6 4 -24 307.47 32.1
4 24 6 281.47 38.1
4 6 -24 175.68 28.4
-4 6 24 212.78 34.6
4 -6 24 255.17 49.9
-24 6 -4 266.77 36.4
6 -4 -24 315.77 46.6
6 24 -4 268.37 35.9
6 24 -4 270.37 31
24 4 -6 320.67 37.2
-4 24 -6 308.27 29.5
6 -24 4 280.37 33.6
24 4 6 318.97 46.2
24 -6 4 346.37 46.7
-6 24 -4 279.57 41.6
4 24 -6 271.17 30.2
-6 4 24 284.17 41.4
-24 6 4 338.17 42.6
4 6 24 307.57 39.2
24 -6 4 253.07 32.6
-6 4 24 295.37 37.7
6 4 -24 322.07 33.7
-4 24 6 228.48 33.9
-6 24 -4 249.38 37.4
4 -24 6 321.17 37.6
24 -4 -6 273.67 28.2
6 24 4 277.37 36.6
6 24 4 206.28 29
4 24 -6 300.37 43.9
4 6 24 342.87 38.3
6 -4 24 289.27 44.9
24 4 6 298.37 43.9
-4 24 6 300.37 32.2
-6 24 -4 265.37 25.3
-4 -6 24 346.77 68.09
6 -24 -4 279.27 38.1
-4 -6 24 282.27 45.7
4 24 -6 308.47 36.7
4 6 24 235.08 54.39
-6 4 24 258.07 48.4
-4 6 -24 314.27 34.5
6 -4 24 282.97 52.59
4 -6 -24 182.88 30
6 -6 24 254.27 50.39
6 -6 24 355.76 52.49
-6 6 24 180.28 43.8
-6 24 -6 312.77 32.3
6 -6 -24 285.97 36.4
-6 6 -24 318.77 34.4
6 6 24 298.67 37.2
-6 24 6 226.08 28.7
6 24 6 293.47 43.8
24 -6 6 324.37 48.9
6 24 6 309.17 36.4
6 6 -24 312.07 43.9
24 6 6 350.96 38.5
6 24 -6 268.97 29.1
24 -6 -6 284.17 29.3
6 24 -6 322.37 43.4
-6 -6 24 368.46 73.09
-6 24 6 262.57 38.5
-6 24 -6 314.57 40.5
-24 6 6 327.47 42.1
-6 24 -6 197.98 27.3
6 -6 -24 238.88 31.7
6 24 -6 260.17 36.5
6 -24 -6 334.57 38.8
-6 6 24 244.68 35.7
6 6 24 431.96 53.19
-6 6 24 336.97 40.3
24 -6 6 247.78 34.1
6 -24 6 256.47 33.2
-6 -6 24 197.48 42.5
-8 0 -24 201.48 28
-8 0 24 101.99 43.7
0 -8 24 205.08 57.79
0 8 24 233.48 45.4
8 24 0 192.98 24.3
24 0 -8 139.09 19
0 24 -8 134.89 26.3
24 0 8 213.88 26.4
8 0 24 138.59 33.2
24 0 8 192.48 26.8
0 8 24 175.08 34.5
0 -24 8 264.27 46.3
8 0 -24 199.38 38.6
8 -24 0 144.79 35.8
-8 24 0 163.78 27.5
0 -8 24 179.48 46.4
-8 24 0 131.19 38.9
8 0 -24 175.48 30.4
0 -8 -24 140.29 31
0 24 8 201.78 28.1
0 8 24 178.58 35.2
0 8 -24 156.98 35.5
8 -24 0 170.28 27.3
24 -8 0 99.59 35.9
-24 8 0 181.38 29.2
8 24 0 189.08 30.3
0 24 -8 155.18 27.2
0 24 -8 135.19 18.3
8 0 24 83.59 46.6
24 -8 0 207.78 29.3
8 0 24 193.28 35.6
0 24 8 152.68 29
0 8 -24 120.69 33.4
8 2 24 35.8 31.6
-2 8 24 83.49 32.4
-2 8 24 69.79 28
-2 24 -8 70.09 16.6
8 -2 -24 40.5 32.8
8 2 24 98.89 49.4
-2 24 -8 48 26.5
-8 24 2 53.59 22.5
24 -2 8 99.19 23.2
-24 8 -2 31.1 39.9
24 2 -8 77.79 19.8
8 24 -2 46.9 25.8
8 24 -2 100.79 22.2
-2 8 24 129.59 42.7
24 -2 8 61.59 21.3
2 -8 24 -44.2 46.8
2 24 8 62.09 22.7
8 -2 -24 97.59 27.5
2 8 -24 36.6 29.1
2 24 8 60.59 25.3
-8 2 -24 72.49 25.5
24 -8 -2 81.29 17.9
8 -24 2 69.59 25.1
-24 8 -2 32 26.1
-8 -2 24 86.79 38.5
-2 24 -8 68.29 22.8
8 -24 2 31.8 38
24 -8 -2 22.9 35.7
2 -8 24 87.99 47.8
8 24 -2 63.39 19.9
8 2 24 123.39 34.4
-2 -8 -24 66.89 34.2
24 -8 2 73.79 19.5
-2 8 -24 75.69 32.5
8 -2 24 23.9 44.1
-8 24 -2 85.29 24.8
-2 24 8 65.59 25.7
2 24 -8 81.99 17.8
24 -2 -8 68.99 16.7
24 -8 2 145.39 37.8
2 24 -8 59.59 23.1
-2 -8 24 42.6 56.49
8 2 -24 69.49 26.3
2 8 24 122.39 32.8
-8 -2 -24 41.3 24.3
8 -24 -2 63.99 30.9
-8 2 24 78.19 39.2
8 -2 24 21.6 32.2
24 2 8 86.59 24.7
8 24 2 44.7 24.3
-2 24 8 58.69 27
8 2 -24 12.3 62.49
2 8 24 93.19 44.3
2 -24 8 56.39 35.4
8 24 2 68.09 19.5
2 8 24 96.19 28.7
2 24 -8 48.7 22.4
-24 8 2 96.59 26.8
2 -8 -24 124.69 31.7
8 -2 24 135.79 36.8
-2 -8 24 31.7 40.2
24 2 8 102.49 24
8 -24 -2 46 24.9
-8 2 24 71.99 38.1
-4 8 24 81.69 30.4
-4 8 24 17.8 38.7
24 -8 -4 86.29 45
24 -4 8 63.99 21
8 -24 4 38.9 25.3
-4 24 -8 125.49 30.6
-8 4 -24 66.99 27.7
8 4 24 44 27.9
-8 -4 24 64.19 38.5
4 -8 24 71.89 47.1
24 -8 -4 67.79 15.8
8 24 -4 53.39 23.6
8 24 -4 40.2 17.6
-24 4 8 89.39 24.3
-24 8 -4 93.09 31.7
-8 24 4 72.09 21.5
-24 8 -4 51.49 40.2
24 4 -8 14.1 20.3
4 24 8 47.6 24
-4 24 -8 75.09 16.2
24 -4 8 93.59 23.3
4 24 8 75.59 22.9
8 4 24 24.3 28.9
8 -4 -24 72.89 34.4
4 8 -24 119.29 27.7
-4 24 -8 29.5 22.6
-4 8 24 26.7 29.2
8 -4 -24 69.79 27.6
8 4 24 60.19 44.9
4 -8 -24 45.7 28.1
4 24 -8 43.6 20.5
4 -8 -24 42.6 28.3
-8 24 -4 76.09 23.2
-8 -4 -24 38.5 25.6
-4 24 8 100.59 24.9
4 8 24 85.69 32.3
-8 4 24 35.5 30.4
8 -4 24 74.19 47.6
-8 24 -4 78.49 20.5
24 -8 4 76.89 19.6
4 24 -8 46.9 22.9
-4 -8 24 201.58 61.79
24 -4 -8 55.29 15.6
8 24 4 55.29 18.6
8 4 -24 52.69 27.4
-24 8 4 62.69 26.1
8 -4 24 107.89 35.1
-4 -8 24 72.79 39.9
-8 4 24 63.49 31.9
-4 8 -24 40.7 31.8
24 -8 4 52.29 38.1
8 24 4 46.8 24.3
4 -24 8 71.09 31.4
-8 4 24 19.9 40.2
24 4 8 70.79 25.1
8 -24 -4 92.89 31.2
4 8 24 121.09 51.59
4 8 24 70.49 29.4
4 24 -8 65.99 17.2
-4 24 8 75.09 29
24 4 8 55.99 26.5
6 24 8 71.49 25.1
-24 6 8 113.99 25.9
24 -6 8 79.49 19.4
6 -24 -8 83.69 33.6
6 -8 24 34.4 42.9
6 24 8 104.49 23.5
-6 8 24 103.69 30.2
-8 24 6 93.69 21.3
-6 24 -8 73.89 23.9
8 -6 -24 58.49 28.4
-8 6 -24 89.89 30
8 -6 -24 120.59 35.8
6 8 -24 138.29 29.8
8 24 -6 87.39 16.5
8 24 -6 37.3 20.7
-6 24 -8 123.09 34.4
-8 -6 24 138.29 41.9
8 6 24 117.19 29.3
-6 24 -8 92.49 17.6
8 -24 6 100.29 26.5
24 -6 8 72.09 18.5
-6 8 24 80.69 29.3
24 -8 -6 94.69 18.7
-6 8 24 137.89 42.5
8 6 24 49.3 26.1
8 -24 -6 121.19 33.1
-6 -8 24 -18.1 36.7
8 24 6 75.99 19.8
-8 24 -6 126.09 25.8
8 -6 24 137.49 44.2
8 24 6 71.19 25.1
8 -6 24 85.39 41.1
-8 -6 -24 110.79 28.8
-8 24 -6 83.59 17.7
-8 6 24 82.19 42.4
6 8 24 108.09 29.1
6 8 24 109.89 25.9
-6 24 8 122.19 24.5
6 -8 -24 65.49 28.6
24 -6 -8 107.99 17.9
8 6 -24 73.29 27.5
6 -8 -24 47.2 30.1
6 24 -8 87.39 24.4
-6 24 8 52.59 31.9
-8 6 24 61.99 28.9
-6 8 -24 62.99 31.6
-24 8 6 120.99 24.7
24 6 8 67.29 30.3
24 -8 6 98.59 40.5
6 -24 8 84.79 27.8
6 24 -8 87.49 15.8
24 6 8 103.29 29.9
24 -8 6 51.29 17.4
-6 -8 24 142.89 75.39
-8 6 24 95.69 30
-8 8 24 11.2 27.7
-8 8 24 -15.5 35.5
8 8 24 15.1 25.5
8 -24 -8 -63.79 32.2
8 -8 -24 21.5 31.5
8 24 -8 16 15.2
-8 -24 8 19.2 28.2
24 -8 -8 4.9 13.8
8 -8 24 -40.9 38.2
-8 8 24 -17.9 26.5
-8 24 -8 -8.7 14.7
-8 24 8 -6.4 20.3
-8 24 8 38.9 40.1
24 -8 8 -10.5 17.9
24 8 8 -28.2 31.9
-24 8 8 18.6 19.2
8 8 24 37.8 25.4
24 -8 8 19.9 17.4
8 24 -8 28.7 22.2
-8 -8 24 17.6 35.8
8 -24 8 -0.6 24.8
-8 24 -8 1.1 21.7
8 24 8 24.1 21.8
0 24 -10 342.17 42.5
10 0 24 442.16 47.1
24 0 -10 425.56 30.4
-24 10 0 352.46 43.5
-10 0 -24 421.86 45.8
0 10 24 366.66 49.5
24 0 10 373.26 38.5
0 24 -10 419.06 44.5
24 -10 0 341.27 52.49
0 24 -10 370.46 29.5
10 0 24 436.86 55.89
0 24 10 400.46 44.3
10 0 24 348.37 53.79
10 -24 0 430.16 43.9
0 -10 24 370.16 51.89
24 -10 0 379.06 31.5
0 -10 -24 421.96 48.1
10 24 0 461.25 44.4
24 0 10 376.76 36.5
0 10 24 378.26 44.7
0 -10 -24 245.58 47.7
10 -24 0 316.67 39.1
10 0 -24 369.96 37.4
0 -24 10 417.36 54.29
-10 0 24 319.07 52.89
0 -10 24 316.87 57.39
-10 24 0 401.26 39.3
0 24 10 336.27 40.1
0 10 24 412.26 52.89
10 24 0 405.56 40.2
2 24 10 285.87 41.6
24 -10 -2 214.08 38.3
2 -10 24 102.79 53.39
-2 24 -10 283.77 41.1
10 2 24 281.97 38.8
2 -10 24 196.88 49.6
-10 24 2 242.98 36
-24 10 -2 253.57 33.3
24 2 -10 224.08 30.7
10 2 24 248.98 52.49
-2 24 -10 293.17 42.4
24 -2 10 262.97 27.5
24 -2 10 243.18 34.3
2 24 10 262.57 30.2
-2 10 24 208.18 32
10 -2 -24 286.77 35.2
-10 -2 24 271.67 45.7
-10 2 -24 279.37 33.9
10 -24 2 270.07 42.6
10 -2 -24 286.57 43.8
10 2 24 256.17 34.8
10 24 -2 259.67 31.1
-2 10 24 259.97 31.8
24 -10 -2 220.38 27.7
-2 -24 10 242.28 35.1
-2 24 -10 273.57 26.1
10 -24 2 250.47 40.4
-2 10 24 261.27 45.9
10 24 -2 227.98 32.2
2 10 24 175.88 27.9
-10 24 -2 270.07 37.9
24 2 10 216.68 28.8
2 -10 -24 219.18 48.1
2 24 -10 227.28 29.3
-2 10 -24 252.97 26.9
2 10 24 245.88 46.8
10 -2 24 220.48 40.2
2 10 24 283.87 35.9
10 24 2 259.67 30.9
10 -2 24 290.47 51.59
10 -24 -2 237.18 28.5
-2 -10 24 250.07 45.2
-10 2 24 159.98 44
24 -10 2 196.88 37.7
-24 10 2 289.37 33.3
10 -2 24 300.17 39.1
10 2 -24 179.08 29.4
-2 24 10 260.57 30.8
2 24 -10 301.77 28.6
24 -10 2 250.47 29.4
-2 24 10 310.37 45.7
-10 2 24 276.17 67.09
24 -2 -10 232.08 27.1
2 -24 10 286.47 41.9
-2 -10 24 212.08 58.49
24 2 10 251.57 36
2 -10 -24 280.57 34.2
-10 -2 -24 262.57 32.6
2 24 -10 245.08 38
10 -24 -2 179.08 32.3
-4 24 -10 -9.4 23.9
24 -10 -4 36.9 35.6
-4 -24 10 -1.6 25.9
24 -4 10 -10.5 17
4 -24 -10 73.19 46.4
4 -10 24 32.8 41.6
24 -10 -4 14.5 16.1
-10 -4 24 59.29 39.6
10 -24 4 -26.4 39.5
-24 10 -4 -22.5 28.3
-4 10 24 -12.5 37.3
10 4 24 -29.2 29.6
24 4 -10 9.9 18.9
-4 10 24 -1.1 25.5
-4 24 -10 1.3 12.6
10 24 -4 10.9 21.8
24 -4 10 -3.7 18.2
4 24 10 27.9 23.6
4 24 10 -26.9 20.8
-24 4 10 23.3 20.2
-10 24 4 -13.6 19
10 24 -4 -13.6 15.6
10 4 24 18.4 29
10 4 24 -10.8 43.6
10 -24 4 -18.2 24
10 -4 -24 53.49 37.6
-4 10 24 44.7 25.5
4 -24 10 49.1 32.1
24 4 10 40.6 23.5
10 24 4 -8.9 22.7
-4 24 10 -20 25
-4 10 -24 -4.8 19.9
10 -24 -4 8 32.2
4 10 24 -27.4 21.7
-10 24 -4 -21.1 20.1
4 -24 10 -41.7 31
-4 24 10 -14.4 22.5
10 -4 24 -3.8 29.6
24 -10 4 82.59 39
4 10 24 3.5 25.7
-4 -10 24 87.69 62.19
-24 10 4 5.3 22.3
4 24 -10 -17.9 14.5
24 -10 4 -3.2 15.4
-10 24 -4 5.8 17.8
10 -4 24 37 38.9
4 -10 -24 42 30.1
-10 4 24 -5.2 38.9
-10 4 24 38.3 31.1
4 24 -10 2.7 21.6
10 -4 24 -58.89 41.9
24 -4 -10 11.6 13.3
24 4 10 21.6 23.7
-4 -10 24 63.99 38.8
-10 4 24 -68.59 29.2
10 -6 -24 -5 34.1
6 -10 24 11.7 39.3
6 24 10 12.4 21
24 -10 -6 -0.5 13
-10 24 6 -30.7 19.2
-6 -24 10 8.3 24.1
10 6 24 11.8 27.3
10 -24 6 42.4 53.79
10 6 24 57.49 28.6
10 -24 6 24.8 23.9
-6 24 -10 9.4 13.4
-24 6 10 -24.6 18.2
24 -6 10 16.3 17.5
10 24 -6 1.7 15.3
24 -6 10 5 16
6 -24 -10 -12.6 34
6 24 10 18.8 21.4
24 -10 -6 -4.3 36.6
-6 10 24 -10.4 37
-6 24 -10 -24.1 22.4
-6 10 24 -10.8 24.9
-6 10 24 37.3 26.8
-10 -6 24 23.4 36.5
10 24 -6 9.2 23
24 -10 6 -9 16.4
10 24 6 21.6 23.9
-6 10 -24 -22.7 19.1
10 -6 24 30.8 42.2
-10 -24 6 -7.5 27.8
10 -24 -6 -23.5 30.6
6 -24 10 42 30.1
-10 6 24 -15.9 36.3
-24 10 6 -2.1 20
10 -6 24 -18.9 33.3
-10 24 -6 14.5 21.4
24 6 10 34.2 25.6
-10 6 24 -9.8 26.5
6 24 -10 20.2 22.4
24 -6 -10 -3.2 12.7
-10 24 -6 8.9 15.3
-6 -10 24 10.8 37.1
-6 24 10 56.59 30
6 -24 10 47.6 33.1
6 10 24 22.3 24.8
6 10 24 13.8 23.3
-10 6 24 13.3 29.6
-6 24 10 -2.2 23.2
6 -10 -24 29.2 30.2
6 24 -10 13.7 14.6
24 6 10 -27.5 25.3
24 -10 6 4.1 42.3
8 24 10 170.28 27.5
10 -8 -24 167.18 39.6
-8 10 24 157.08 40.4
10 -8 -24 169.68 19.7
-24 8 10 201.78 27
10 24 -8 101.69 16.4
10 8 24 93.89 24.8
10 24 -8 174.28 26
8 -24 -10 195.18 39.7
-10 24 8 105.89 23.6
10 -24 8 172.88 29.3
-8 24 -10 163.28 28.8
-8 10 24 108.09 26
10 8 24 147.79 29.9
-8 10 24 123.69 30
-10 -8 24 154.88 39.9
-8 -24 10 163.28 30.1
24 -10 -8 205.68 25.2
-8 24 -10 145.09 17.5
24 -8 10 93.39 19.5
24 -8 10 153.98 21.5
8 -10 24 130.19 42.5
-8 24 10 129.79 42.2
10 -8 24 125.79 42.4
-10 8 24 163.08 32.2
-8 10 -24 146.89 22.1
-10 -24 8 120.89 26.9
10 8 -24 141.39 20.3
10 -24 -8 154.68 36.8
-8 -10 24 120.69 38.4
10 24 8 146.49 25.5
8 10 24 121.89 27.3
8 24 -10 162.08 27.5
-10 8 24 122.99 37
-10 24 -8 122.59 25.8
24 -8 -10 173.98 23.1
-24 10 8 135.19 23.5
10 -8 24 170.78 46.5
-10 8 24 136.09 27.3
8 10 24 197.48 31.9
8 -24 10 133.09 31.2
8 -10 -24 134.69 35.7
8 24 -10 115.19 16.9
24 8 10 161.48 31.4
-10 24 -8 153.38 18.2
24 -10 8 167.08 22.2
-8 24 10 170.38 26.6
24 -10 8 131.79 19.8
24 -10 10 550.64 38.3
-10 10 24 539.25 57.79
-10 24 10 504.25 41.5
10 24 10 571.84 41.8
-10 -24 10 450.15 46.7
-10 10 24 463.95 58.49
10 10 24 467.85 47.4
-10 24 -10 530.35 31.7
10 -24 -10 530.15 59.19
10 24 -10 488.45 40.6
24 -10 -10 550.94 31.3
10 -10 -24 571.04 57.59
-24 10 10 468.05 40.5
24 -10 10 499.75 36.6
10 -10 24 593.04 70.39
10 10 24 533.15 47.6
-10 10 -24 535.35 36.4
10 -10 -24 515.55 32.6
-10 -10 24 574.24 60.69
10 -24 10 436.56 48.5
-10 10 24 466.35 46.7
10 24 -10 542.45 32
12 0 24 289.97 52.49
12 -24 0 349.27 42.1
24 0 12 362.36 35.9
12 -24 0 385.86 43
24 -12 0 414.16 32.8
0 -12 24 356.66 57.69
0 12 24 334.47 50.49
24 -12 0 434.26 44.1
0 -12 -24 400.16 50.99
0 12 24 400.46 45
0 -12 24 364.66 50.99
0 24 12 433.46 43.7
-12 0 24 371.66 50.29
24 0 12 394.66 39.9
0 24 12 383.06 40.1
24 0 -12 398.26 30.7
-24 12 0 389.96 41.8
0 -24 12 420.16 48.2
12 0 24 407.86 52.19
-12 24 0 393.26 38.7
0 12 24 385.16 56.69
12 24 0 371.46 46.2
0 24 -12 413.26 29.4
12 24 0 438.06 36.7
0 -24 12 489.05 57.09
0 12 -24 386.66 36.8
-2 -12 -24 240.88 36.3
12 24 -2 267.67 30.3
24 -2 12 212.38 25.2
24 2 -12 178.58 26.8
2 24 12 159.08 26.3
2 12 -24 192.88 24
2 24 12 222.68 27.5
12 -24 2 196.68 40.5
24 -2 12 221.08 26.6
-2 24 -12 231.18 25
12 -2 -24 235.98 27.3
2 -12 24 164.58 47.3
-24 12 -2 237.38 30.2
-2 12 24 132.59 28.6
12 2 24 207.58 48.2
-12 24 2 234.98 36.4
12 2 24 256.47 35.8
-2 24 -12 178.68 29.7
12 24 -2 226.98 30.1
-24 2 12 203.58 26.5
2 -12 24 234.68 53.19
-2 -24 12 239.08 35.2
-2 12 24 185.88 37.4
24 -12 -2 189.28 27.7
24 -12 -2 247.18 39.8
-12 -2 24 161.58 43.6
12 -24 2 130.59 26.2
-2 12 24 174.58 30.1
2 24 -12 199.68 26.5
24 -12 2 204.58 40.6
-12 24 -2 215.68 26.9
-12 2 24 149.49 41.7
-2 24 12 198.68 26.7
12 24 2 179.08 28.1
24 2 12 261.77 34.9
2 12 24 211.28 31.7
-2 12 -24 236.58 23.8
24 -2 -12 224.98 25.8
12 -2 24 280.47 49.5
2 12 24 229.98 31.7
-2 -12 24 167.78 43.7
24 2 12 202.58 27.1
-12 2 24 184.38 35.3
12 2 -24 207.28 26.1
12 -24 -2 138.69 33.2
2 -24 12 162.58 43.1
12 -2 24 207.38 33.2
24 -12 2 213.48 24
-2 24 12 251.27 30.5
-2 -12 24 225.98 60.89
2 -24 12 300.97 45.7
2 -12 -24 273.57 36.5
12 -24 -2 249.88 30.2
2 24 -12 242.48 29.8
-2 24 12 289.77 41.7
-24 12 2 205.48 29.8
24 -4 12 -10.3 16
12 -24 4 53.09 40.2
-24 12 -4 25.9 28.2
12 4 24 -13.7 39.8
-4 12 24 3.2 31.7
-12 24 4 -34.7 18.7
4 -12 24 68.69 41
-4 12 24 14.4 23.1
12 -4 -24 12.1 14.7
-24 4 12 -20.3 18.5
-4 24 -12 23.9 28
12 -4 -24 -42 42
4 12 -24 -32.4 20
4 24 12 4.4 20.4
12 4 24 -3.8 23.9
24 4 -12 17.8 18.1
12 -24 4 -9.9 22.2
-12 -4 24 38.6 35.4
-4 -12 -24 26.3 32.1
4 24 12 31.5 24.2
12 24 -4 10.3 15.2
-4 12 24 -3.9 25.7
24 -12 -4 -7.9 13
-4 24 -12 -14.3 11.4
12 24 -4 17.4 20.6
-4 -24 12 -19 25.8
12 4 24 0.5 34
24 -12 -4 3.8 35.9
24 -4 12 32.8 17.6
24 -12 4 -24.2 14.9
-12 -24 4 -15.1 27.2
12 4 -24 16.1 14.5
4 12 24 -1.4 22.7
-12 4 24 -55.19 35.2
4 12 24 2.3 23.3
-12 24 -4 -15.1 21.7
4 24 -12 12.9 12.9
12 -24 -4 27.6 31.7
-4 24 12 49.6 25.4
-12 4 24 -37.7 29.3
12 -4 24 35 42.4
-4 12 -24 -4.2 17.3
24 -4 -12 -16.6 11.7
-4 -12 24 -64.29 66.49
12 -4 24 -1.2 27.4
4 24 -12 -26.4 19.6
24 4 12 11.8 20.6
24 4 12 23.8 22.2
-4 24 12 13.2 22.3
4 -24 12 -22.4 33.9
-24 12 4 -8.1 21.3
12 -24 -4 -2.5 21.3
12 24 4 -13.1 23.4
-12 24 -4 13.2 17.1
24 -12 4 -30.9 37.8
4 -24 12 -8.4 33.3
-4 -12 24 43.4 39.6
4 -12 -24 -10.4 27.1
-12 4 24 8.1 31.4
-24 6 12 0.8 18.2
12 24 -6 31.2 14.8
12 -24 6 9.9 24
-6 12 24 4.4 23.9
12 24 -6 13.8 20.7
-12 -6 24 -26.5 34.2
24 -6 12 -5.8 15.4
6 -24 -12 54.99 39.3
12 -6 -24 -9.4 39.5
24 -12 -6 -2.3 13.9
6 12 -24 57.59 23.3
12 -24 6 -137.29 93.79
12 6 24 26.8 32.9
12 6 24 -4.2 23
-6 12 24 -17.7 22.9
24 -12 -6 68.19 37.7
24 -6 12 39 19.2
-6 24 -12 6.1 11.7
-12 24 6 0.9 18.1
6 -12 24 -7.1 39.3
6 24 12 13.8 21.5
-6 -12 -24 -11.5 37
-6 12 24 31.6 32.3
12 -6 -24 11.4 15.2
-6 24 -12 36.6 42.6
-6 -24 12 -4.6 26.4
6 12 24 34.9 23.8
24 -12 6 -5.3 17.6
12 -6 24 7.3 30.7
-12 -24 6 8 25.2
6 24 -12 30.4 12.8
-6 24 12 19.4 21.4
-12 6 24 23 32.6
-24 12 6 15 19.2
-6 -12 24 -0.6 35.5
-12 24 -6 32.6 21.6
24 6 12 -1.7 24.2
-12 6 24 -30.7 26.3
-12 24 -6 32.3 14.9
6 -12 -24 50.49 28.5
24 -6 -12 2.2 12.9
12 -24 -6 72.89 32.8
12 -6 24 91.29 42.1
6 -24 12 -8.7 41
24 -12 6 -83.99 42.6
-6 24 12 2.9 28.4
6 24 -12 36.6 21
12 6 -24 26.4 15.6
-12 6 24 37.4 36.1
-6 12 -24 43.3 17.4
6 12 24 -8.4 23.6
12 24 6 16.8 22.4
6 -24 12 7 30.7
-8 12 24 136.29 26.8
-8 -24 12 149.29 29.4
-8 24 -12 141.59 17.1
8 -24 -12 148.69 38
12 -24 8 225.58 102.79
24 -12 -8 138.49 43.2
12 -24 8 156.88 27.7
8 -12 24 144.79 40.2
24 -8 12 120.59 20.8
-24 8 12 155.98 24.5
24 -8 12 149.09 20.9
-8 12 24 112.89 29.1
12 24 -8 157.08 26.2
-12 24 8 100.79 20.3
-8 12 24 152.38 36.2
8 24 12 124.99 22.4
12 8 24 137.89 31
12 24 -8 105.39 16.1
12 -8 -24 96.79 15
12 -8 -24 148.39 40.1
12 8 24 171.88 28.6
24 -12 -8 87.09 15
-12 -8 24 71.99 36.6
8 12 24 107.29 25.5
12 -8 24 143.39 42.4
12 -24 -8 125.79 36.6
-12 24 -8 140.69 27.2
-12 8 24 185.08 36.4
12 24 8 138.59 25.5
24 8 12 75.69 28.8
-12 24 -8 123.99 16.5
-8 24 12 84.79 23.4
8 24 -12 121.09 16
24 -12 8 86.29 17.6
8 12 24 90.49 26.3
8 -24 12 127.09 31.2
-12 8 24 103.49 26.6
-12 -24 8 160.38 31.6
-12 8 24 134.69 38.6
-8 -12 24 89.39 36.3
24 -12 8 131.59 49.3
24 -8 -12 109.49 15.4
8 -12 -24 185.58 24.3
-24 12 8 107.49 22
24 -12 8 106.99 18.7
-8 12 -24 135.59 19.1
12 10 24 413.76 46.2
-10 12 24 440.16 50.39
12 24 -10 385.06 36.3
12 -10 -24 374.76 48.2
-10 -24 12 357.56 44.5
-12 -10 24 289.87 43.1
24 -10 12 401.16 35.2
24 -12 -10 397.96 28.5
-12 24 10 369.56 35.3
10 24 12 375.96 37.5
-24 10 12 399.26 35.7
-10 24 -12 374.46 26.8
-10 12 24 340.47 42.3
24 -10 12 478.15 34
10 -12 24 420.96 65.59
12 -24 10 395.26 45.4
10 -24 -12 409.26 46.1
12 24 -10 375.86 28.1
12 -10 -24 412.76 27.5
12 10 24 343.17 42.6
-10 12 24 374.16 51.39
12 -10 24 346.37 47.5
10 -12 -24 413.26 27.1
24 -12 10 367.86 34.7
-12 10 24 413.76 56.59
-10 24 12 378.46 39.5
-12 10 24 280.37 43
24 -10 -12 393.16 27.2
-24 12 10 391.36 36.6
24 10 12 351.86 50.99
10 -12 -24 464.25 45.2
10 24 -12 397.86 28.5
10 12 24 398.86 43.2
-10 -12 24 262.47 41.7
24 -12 10 393.16 33.5
12 -24 -10 292.47 42.6
-12 24 -10 409.66 27.4
12 24 10 308.87 36.7
-12 -24 10 418.46 46.8
10 -24 12 369.36 48.5
10 12 24 412.16 45.7
12 -12 -24 370.16 23.7
-12 24 12 348.37 36
-12 12 -24 355.76 27.5
-12 12 24 327.27 36.7
24 -12 12 366.66 29.8
12 24 12 343.27 32.8
-24 12 12 318.17 31
12 24 -12 386.46 25.2
-12 -12 24 326.87 45.4
12 -24 12 358.46 43.5
24 -12 -12 375.36 25.7
12 12 24 337.57 41.9
12 12 24 342.97 40.6
24 -12 12 360.96 33.8
-12 12 24 361.46 48.4
-12 -24 12 318.57 48.6
12 -12 24 374.66 57.99
-12 24 -12 323.07 23.5
0 -14 24 34.4 53.59
0 -24 14 93.59 31.8
14 0 -24 91.79 14.7
14 -24 0 134.39 39.9
-24 14 0 81.49 22.1
-14 -24 0 49.9 34
0 14 24 82.69 27.1
0 14 -24 102.49 19.7
24 -14 0 167.08 36.7
24 0 14 127.59 23.6
-14 0 24 39.5 36.2
-14 0 24 50.09 39
14 24 0 82.69 21.2
0 24 14 107.39 24.7
14 -24 0 74.69 23.8
0 24 -14 83.89 15.3
24 0 14 95.59 20.5
14 0 24 75.59 42.4
-14 24 0 58.39 19.1
0 24 14 90.49 35.6
14 0 24 103.99 27.1
24 -14 0 75.59 16.9
14 24 0 94.39 23.5
0 -14 -24 133.59 34.9
0 14 24 53.79 22.7
0 -14 24 86.69 47.3
24 0 -14 101.09 16.7
-24 0 14 63.19 20.2
14 -24 2 0.1 21.2
-2 14 24 19.2 23.5
24 -14 -2 11.8 14
24 -2 14 24.6 19.6
14 -24 2 -59.29 38.9
-14 24 2 15.2 18.6
14 2 24 41.1 42.8
2 24 14 6.6 20.8
24 2 -14 -9.7 14.5
-2 -24 14 65.59 28.5
24 -2 14 3.3 17.6
-2 14 24 20.9 22
14 24 -2 -7 20.9
-2 24 -14 27.1 12.9
2 -14 24 -45.2 52.39
14 -2 -24 10.5 12.6
14 24 -2 12.5 16
24 -14 -2 11.9 38.2
2 14 -24 33.4 17.4
-24 14 -2 5.2 22.3
-2 -14 -24 -4.8 35.3
14 2 24 26.2 24.8
-14 -2 24 3.6 39.3
2 -14 24 26.5 46
-24 2 14 -0.3 19.1
24 2 14 26.8 20.2
-24 14 2 33.8 19.1
24 -2 -14 14.5 12.5
2 14 24 -11 22.1
-2 -14 24 31.4 41.7
-2 24 14 -11.9 30.2
2 14 24 6.9 24.7
2 -24 14 0.7 45.6
24 -14 2 12.1 16.2
14 2 -24 17.5 13.5
2 -14 -24 38.5 28.8
-14 2 24 -29.3 37.1
14 -24 -2 7.5 20.8
24 -14 2 14.5 38.3
2 24 -14 2.7 13.5
14 -24 -2 14.2 35.1
-14 24 -2 -2.1 20.3
14 -2 24 16.8 25.9
-2 24 14 -8.7 23.9
14 -2 24 20.3 40.7
-2 14 -24 5.1 16.8
14 24 2 30.3 24.2
-2 24 14 -8 21.6
-14 -24 2 52.19 30.9
2 -24 14 -21 31.7
-14 2 24 68.89 37.2
-2 -14 24 -31.2 60.49
-4 24 -14 83.79 13.8
-4 -14 -24 91.29 36.5
14 -4 -24 84.49 15.3
24 -14 -4 108.49 39
24 4 -14 110.59 23.5
-24 4 14 125.09 22.7
24 -4 14 136.89 22.1
-4 14 24 85.59 26.5
4 -14 24 135.59 43.3
14 24 -4 178.68 25.9
-4 14 24 116.39 27.2
14 4 24 99.49 27.4
4 14 -24 142.49 19.8
14 24 -4 127.29 23.4
-4 -24 14 120.19 29.1
-14 -4 24 130.39 41.1
24 -4 14 94.49 21.5
-24 14 -4 141.29 38.8
24 -14 -4 92.79 16.7
4 24 14 100.69 23
-14 24 4 137.79 23.3
14 -24 4 99.09 25.1
-14 24 -4 71.59 23.4
-4 14 -24 119.99 18
24 -14 4 94.99 44.1
-14 24 -4 82.99 18.9
14 -24 -4 207.38 37.2
-14 4 24 117.79 42.2
4 24 -14 82.49 14
24 -4 -14 65.49 13.5
14 -4 24 10.6 42.1
4 -24 14 59.89 36.9
14 -4 24 116.69 28.2
-4 24 14 159.28 27.8
14 4 -24 122.09 17
-24 14 4 72.89 21.5
14 24 4 86.09 24.2
-14 -24 4 128.59 33.4
4 -24 14 189.18 39.6
4 -14 -24 117.39 32.2
14 -24 -4 134.89 25.2
4 14 24 114.59 27.3
24 -14 4 85.09 18.2
24 4 14 84.09 24.6
-4 -14 24 180.28 41.4
4 -14 -24 117.29 17.5
4 14 24 115.89 26.5
-4 24 14 65.69 25.2
-6 -14 -24 105.09 51.49
-6 -24 14 88.69 30
24 -14 -6 80.09 15.6
6 14 -24 66.09 18.6
-6 14 24 93.99 24.1
6 -24 -14 170.48 59.59
14 24 -6 66.09 22.1
14 -24 6 101.89 24.8
24 -6 14 103.69 18
14 6 24 141.69 28.6
24 -6 14 140.79 23.2
-24 6 14 61.39 21.6
6 24 14 81.39 23.1
-6 24 -14 59.79 12.3
-14 24 6 97.79 21.8
-6 14 24 117.19 26.4
14 -6 -24 122.39 17.1
14 -24 6 140.19 52.99
-14 -6 24 69.19 37.7
6 -14 24 111.09 41.1
14 24 -6 108.09 17.1
24 -14 -6 111.49 41.5
-24 14 6 132.79 22.7
24 -14 6 109.89 20.5
-6 14 -24 97.29 19
6 -14 -24 112.29 16.6
-14 6 24 157.58 37.9
6 14 24 129.09 25.4
-6 24 14 100.99 23.3
6 -14 -24 68.19 30.9
24 -6 -14 104.19 15.9
6 14 24 54.89 22.7
14 -6 24 32.9 28.6
6 -24 14 64.69 32.8
14 -6 24 83.89 42.6
14 6 -24 104.99 17.4
14 -24 -6 92.99 36.4
-6 24 14 115.09 27.9
24 -14 6 161.08 46.7
-14 24 -6 86.69 16.7
14 24 6 99.29 23.2
14 -24 -6 128.29 25
-14 -24 6 96.89 32.5
-6 -14 24 73.49 38
-14 24 -6 126.19 24
6 24 -14 84.89 14
24 6 14 78.49 25.4
24 -14 -8 19.9 14.3
-8 24 -14 -8.4 11
14 8 24 -0.9 19.7
-14 24 8 6.3 17.1
-8 14 24 -21 19.4
14 24 -8 21.8 19.6
24 -8 14 -24.5 16.7
8 24 14 -6.3 17.8
-8 -24 14 40.9 26.1
8 -14 24 -17.5 36.4
14 24 -8 3.5 12.3
-8 14 24 28.8 24.4
14 -24 8 -6 21.7
24 -8 14 -1.5 16.8
-24 8 14 -22.5 17.5
-14 -8 24 -34.3 37
14 -8 -24 -4.8 10.9
24 -8 -14 -5.4 10.7
-14 -24 8 -22.1 29.4
14 -8 24 -35 36.2
8 -14 -24 -1.1 11.6
24 -14 8 -124.59 52.19
-8 -14 24 14.6 34.4
8 24 -14 -16.3 11.4
8 -14 -24 53.49 32.1
-8 14 -24 -19.2 12.2
8 14 24 22.9 21
8 -24 14 -7.5 28.1
24 8 14 -26.5 23
8 14 24 31.4 21.9
-14 24 -8 -1.2 12.8
14 -24 -8 27.6 19.7
-24 14 8 28.1 16.4
24 -14 8 -4 14.9
24 -14 8 34.2 16
14 -24 -8 40.4 48.9
14 24 8 -21.3 20.9
-8 24 14 41.9 21.8
-14 8 24 11.9 35.9
14 -24 10 69.89 23.6
10 -14 24 71.49 33.2
14 -10 -24 50.19 11.6
-14 -10 24 86.19 40.5
10 24 14 43.7 19
-14 10 -24 78.89 16.2
24 -14 -10 76.89 14.2
-10 14 24 32.7 19.3
-10 14 24 85.29 27.8
24 -10 14 37.9 17.8
-10 24 -14 57.19 12
-14 24 10 80.69 18.8
-24 10 14 95.19 19.3
-10 -24 14 60.69 29
10 14 -24 115.59 19.1
24 -10 14 62.09 15.7
14 24 -10 95.49 14.1
14 10 24 38.7 21.2
10 14 24 83.39 21.4
10 -14 -24 83.49 13
-10 14 -24 54.39 14.2
10 24 -14 55.29 12.2
24 -14 10 99.39 17
24 10 14 79.29 26.9
14 24 10 58.99 21.1
-24 14 10 68.29 17.2
-10 -14 24 36.6 34.9
24 -10 -14 54.89 11
-14 -24 10 55.69 34
10 14 24 40.5 21.6
-10 24 14 86.29 21
14 -10 24 63.29 34.3
10 -24 14 115.79 27.4
-14 10 24 41.2 35
24 -14 10 78.79 17.7
-14 24 -10 62.89 13.1
-14 12 -24 71.49 14.4
24 -12 14 73.09 17.3
-14 -12 24 27.1 37.5
14 24 -12 55.79 12.6
12 -14 24 58.49 31.5
14 12 24 78.29 21.8
24 -14 -12 80.99 13
14 -24 12 46.9 22.2
-24 12 14 54.79 16.4
12 24 14 53.89 19
-24 14 -12 48.1 10.6
-14 24 12 92.49 18.7
14 -12 -24 43.1 11
-12 24 -14 61.19 12.3
-12 -24 14 -7.1 31.1
24 -12 14 53.29 14.6
12 24 -14 79.19 12.9
12 -24 14 81.99 24.2
-14 -24 12 -10.7 33
12 14 24 91.19 20.6
-24 12 -14 37 10.1
14 -12 24 73.79 31.7
12 14 24 86.29 23.7
-12 -14 24 68.29 35.7
-14 24 -12 58.69 11.9
24 -14 12 38.2 15.6
14 24 12 62.99 20.7
-12 24 14 81.49 19.9
24 -14 12 99.79 18.6
-12 14 -24 61.39 13.7
12 -14 -24 63.29 12.3
-24 14 12 33.8 16.3
24 -12 -14 71.49 11.5
-14 24 -14 3.6 9.9
-24 14 -14 -2.7 9.2
14 24 -14 -7.6 9.4
24 -14 14 -5.6 17.8
14 -24 14 -14.4 22.8
-24 14 14 9.3 14.5
14 -14 24 4.7 28.3
14 -14 -24 13.3 10
14 14 24 5.9 18.2
-14 -24 14 86.39 34.9
-14 -14 24 -22.2 36.3
14 24 14 23.3 19.3
-14 24 14 -16.7 17.7
24 -14 -14 2.7 9.8
-14 14 -24 -1.2 11.5
16 -24 0 63.89 53.59
0 -16 24 -37.8 46.4
0 -16 24 30.4 51.39
16 24 0 -14.7 16.1
-24 0 16 8.4 19
0 -24 16 21.4 34.3
0 24 16 27.1 27.3
-16 24 0 -8.8 18
0 16 -24 2.2 13.5
0 -16 -24 -10.6 42.8
0 24 16 5.9 20.7
24 0 -16 7.9 12.5
-16 0 24 -9.2 40
16 -24 0 -12.8 21.2
0 16 24 3.6 23.6
24 0 16 -33.9 18
16 0 -24 27.4 12.7
16 0 24 -10.9 22.6
0 24 -16 -2.3 12.2
16 24 0 16.9 20.3
-24 16 0 3.3 21.1
24 -16 0 -25.5 14.8
0 16 24 -1.5 20.1
16 0 24 34.4 40.8
24 -16 0 30.2 44.1
24 2 -16 7.3 13.8
24 -16 -2 11.1 15.1
2 -16 24 -17.3 41.9
-2 16 24 -4.6 20.5
16 -2 -24 22.1 12.5
2 -16 24 102.39 59.19
24 -2 16 8.8 18.3
16 24 -2 12 14.5
-2 -24 16 26.7 31.5
-2 16 24 13 21.2
16 2 24 25.2 23.5
2 24 16 3.2 19.3
-16 -2 24 -26.5 40.9
-24 16 -2 26.8 21
16 -24 2 13.6 21.5
16 2 24 -18.5 41.2
-2 24 -16 15.3 11.4
16 24 -2 9.8 20.4
24 -16 -2 -31.5 60.09
16 -24 2 -5.4 56.69
2 24 16 65.69 34.5
-24 2 16 -24.3 18
-16 24 2 15.2 16.7
2 16 -24 5.7 13.9
24 -16 2 -3.8 49.6
24 2 16 28.3 20.1
-16 2 24 9.4 42.1
2 16 24 30.1 20.3
2 16 24 22.7 21.5
-2 -16 24 7.6 40.9
24 -2 -16 26.3 12.1
16 24 2 22.8 21
16 2 -24 13.7 12.2
2 -24 16 17.6 44.8
-2 24 16 48.6 26.6
2 -16 -24 80.19 46.9
16 -24 -2 39.5 51.19
2 24 -16 -1.8 11.7
-2 16 -24 -6.7 13.4
16 -24 -2 -2.3 20.1
-2 24 16 45.4 22.1
-16 24 -2 2.6 18.8
16 -2 24 -16.8 41.3
24 -16 2 36.2 16.8
-24 16 2 2.9 20.4
2 -24 16 51.09 38.6
16 -2 24 16.2 23.4
-24 -2 16 -0.6 18.6
-24 4 16 265.57 33
24 -4 16 250.47 33.7
16 -4 -24 265.37 22.6
4 -16 24 259.87 44.1
24 -16 -4 249.28 27.1
16 -24 4 290.27 38.3
-16 24 4 236.38 32.3
-24 16 -4 293.47 31.7
4 16 -24 208.08 25.1
-4 16 24 283.17 36.6
4 24 16 215.18 32.7
-4 24 -16 255.67 23.2
16 24 -4 265.87 33.5
-4 16 24 285.57 31.5
16 24 -4 250.57 26.2
-16 -4 24 301.67 48.1
-4 -24 16 236.68 37.6
16 4 24 335.37 41.7
16 -4 24 311.47 43.6
4 16 24 265.77 31.2
-16 24 -4 299.67 33.1
4 -24 16 141.99 41.7
16 -24 -4 306.57 38.8
-24 16 4 212.58 32.1
24 -16 4 272.17 30.6
16 4 -24 245.08 24
4 -16 -24 222.58 27
24 4 16 305.97 40.3
-16 4 24 296.17 44.2
4 24 -16 257.47 23.8
4 16 24 326.37 36.1
24 -4 -16 285.47 23.1
-16 24 -4 243.38 34.3
16 24 4 273.77 38.4
4 -16 -24 317.87 51.19
16 -4 24 255.97 29.2
-4 -16 24 402.76 57.99
-16 -24 4 305.97 44.8
-4 16 -24 283.37 24.8
4 -24 16 255.07 50.69
-4 24 16 326.17 39.3
16 -24 6 314.67 37.6
6 -16 24 384.06 59.69
-16 -6 24 218.78 47.5
24 -16 -6 278.77 25.5
-16 24 6 219.78 29.8
16 6 24 312.87 40.2
16 24 -6 315.07 24.7
-6 24 -16 262.87 21.6
-6 -24 16 172.88 32.4
6 24 16 269.07 31.8
24 -6 16 262.37 31.7
-24 6 16 323.47 31.7
16 -6 -24 283.37 22.6
-6 16 24 328.77 38.4
6 16 -24 303.17 28.2
-6 16 24 294.87 37.4
16 24 -6 221.88 24.4
6 24 -16 313.37 24.5
-16 -24 6 307.17 43.8
-6 16 -24 255.57 24
24 6 16 271.87 39.5
6 16 24 296.87 33.7
16 -6 24 288.77 42.9
16 -6 24 243.08 29.5
24 -6 -16 298.37 21.9
6 -16 -24 269.07 24.1
24 -16 6 266.27 29.5
-16 6 24 354.66 46.9
16 24 6 254.47 27.5
16 -24 -6 308.47 33.6
-16 24 -6 240.28 27.9
-24 16 6 294.47 31
-16 24 -6 212.78 25.4
6 -24 16 295.97 39.5
6 16 24 292.87 38.8
-6 24 16 295.17 30.6
-6 -16 24 304.37 45.6
-24 8 16 39.1 17.5
-8 16 24 5.3 17.3
-8 16 24 32.6 22.7
16 -24 8 59.89 21.7
24 -16 -8 49.6 13.6
-24 16 -8 39.1 11.5
16 8 24 20.7 20
16 -8 -24 26.4 11.3
8 -16 24 60.79 34.1
-16 -8 24 40.2 40.8
-16 24 8 37.6 16.6
8 24 16 24.6 16.1
-8 -24 16 41.8 28.8
16 24 -8 73.59 13.3
-8 24 -16 57.19 11.4
24 -8 16 54.09 17
8 16 -24 44 14.8
24 -8 -16 39.1 11.6
-16 8 24 -11.4 39.8
-8 -16 24 74.79 38.1
16 24 8 62.89 22.5
24 -16 8 50.19 16.9
8 -16 -24 29 12.6
-16 24 -8 35.4 14.1
16 -8 24 34.7 25.4
-8 16 -24 20.2 12.5
8 24 -16 51.59 11.8
8 16 24 24.4 19.6
-16 -24 8 94.89 40.6
24 -16 8 48.6 16.6
24 8 16 68.19 23.4
8 -24 16 44 30.1
16 -24 -8 79.89 20.4
16 -8 24 62.99 35
8 16 24 29.3 19.1
-24 16 8 39.4 17
-10 24 -16 16 9.2
10 16 -24 0.9 14.8
-24 16 -10 15.6 11.1
-10 -24 16 14.6 30.2
10 -16 24 -68.19 29.1
16 10 24 5.5 17.4
-16 10 -24 19.6 14.5
-10 16 24 9.2 17.2
16 -10 -24 20.6 9.8
-16 24 10 21.4 15.2
10 24 16 6.5 15.8
16 24 -10 6.6 10.5
24 -16 -10 24 12.2
16 -24 10 13.9 21.8
-10 16 24 36.9 27.8
-24 10 16 -0.6 16
24 -10 16 26.4 16.7
24 -16 10 20.8 17.8
10 16 24 42.8 19.2
-24 10 -16 5.4 9.8
-16 24 -10 1.4 11.2
10 24 -16 17.7 10.5
24 -16 10 10.3 15.9
-10 24 16 17.3 24.2
10 -16 -24 1.1 11.2
10 -24 16 23.6 28.6
16 24 10 -1.5 20.9
24 10 16 42.6 24.7
10 16 24 12.5 18.7
24 -10 -16 19.7 9.6
-16 -24 10 -33.1 40.7
-24 16 10 4.8 15
16 -24 -10 36.7 18.6
-16 10 24 7.7 35.1
16 -10 24 55.59 32.8
-10 -16 24 38.4 34.9
-10 16 -24 17.5 11.7
12 -16 24 -19.8 27.5
-12 -24 16 13.3 31.9
24 -16 -12 -5.9 11.2
-24 12 16 -3.2 15.7
16 -12 -24 -2.3 8.8
16 24 -12 -13.8 9.1
24 -12 16 1.8 17.8
-16 24 12 15.7 14.4
-16 12 -24 25.4 13
12 16 -24 -8.3 15.5
-24 16 -12 16.4 10.1
-16 -12 24 -33.8 37.5
12 24 16 -8.1 17
16 -24 12 -25.5 19.6
16 12 24 -6.4 18.2
-12 24 -16 1.1 8.9
16 -12 24 -40 29.9
-12 24 16 42.9 22.6
-24 12 -16 2 8.5
24 -16 12 -3.1 15.4
12 24 -16 -7.6 9.6
-12 16 -24 -0.1 10.4
16 -24 -12 -19 16.4
-12 -16 24 42.4 36.7
12 16 24 28.4 21
24 -16 12 -11.5 19.2
-16 -24 12 -8.9 38.2
16 24 12 -36.6 21.3
12 -16 -24 11 10.5
-16 24 -12 1.6 9.8
12 16 24 4.1 17.5
-24 16 12 11.5 14.9
24 -12 -16 1.4 9
12 -24 16 -5.8 24.8
24 -14 16 5.9 20.5
-14 -24 16 79.49 40.3
16 14 24 20.3 18.6
-24 14 16 44.7 17.4
-14 24 -16 37.5 10.4
16 -24 14 25.4 22.7
-16 14 -24 30.9 12
16 24 -14 50.19 10.6
14 -16 24 10.3 27.8
16 -14 -24 29.5 9.8
-16 -14 24 92.19 44.9
14 24 16 5.6 19
24 -16 -14 41 12
-24 16 -14 49.6 10.6
-16 24 14 64.09 17.7
-14 -16 24 16 39.6
-14 24 16 87.09 23.8
-16 24 -14 52.09 10.8
-24 14 -16 36.9 9.9
14 24 -16 49.99 9.9
16 -24 -14 30.3 17.1
-14 16 -24 44.4 11.1
24 -14 -16 54.99 10.7
-24 16 14 37.1 16.2
16 24 14 52.69 25.1
14 16 24 88.79 20.1
16 -14 24 42.6 29.5
24 -16 14 17.9 21.6
14 -24 16 46.9 24.6
-16 -24 14 106.99 60.59
14 -16 -24 35.3 10.7
-24 16 16 116.59 19
24 -16 -16 114.89 13.1
-16 16 -24 131.09 13.3
16 24 -16 122.79 15.1
16 -24 16 123.99 23.6
16 16 24 148.09 22.9
16 -24 -16 107.19 18.3
16 -16 24 133.59 30.6
-16 24 -16 132.39 16.8
16 -16 -24 123.69 17.7
-24 16 -16 124.99 15.3
18 24 0 61.09 24.2
-18 0 24 -3.5 45.2
18 0 24 43.1 47.9
-18 24 0 39.3 17.3
-24 0 18 29.6 19.2
-24 18 0 62.39 19.8
24 0 18 4.1 17.9
0 24 18 53.99 24.1
0 -18 24 67.49 51.59
18 0 -24 20.5 11.2
24 0 -18 31.4 12.4
24 -18 0 45.3 16.5
0 24 18 34.1 18.3
0 18 24 41.1 19.4
0 18 24 -2.6 18.1
0 -18 24 -94.39 53.89
18 -24 0 37.7 20.4
18 0 24 48.2 20.4
0 -24 18 131.59 42.7
0 24 -18 30.7 11
0 18 -24 33.1 12.3
-24 18 -2 23.7 21.2
2 24 18 -13.1 25.4
-24 2 18 -15.6 17.7
2 18 -24 7.7 12
24 2 -18 4.6 12.8
18 24 -2 -22.3 21.9
18 -2 -24 -9 10.1
18 -24 2 13.5 19
18 2 24 0.5 19.1
24 -18 -2 -6.8 14.7
-2 24 -18 5.4 9.8
2 -18 24 48.1 45.2
2 24 18 -2 17
-24 18 -2 6.5 15.6
24 -2 18 -12.3 16.7
-2 18 24 -1.3 17.8
-18 24 2 2.7 15.4
-18 -2 24 1.9 44.3
-2 18 24 -22.2 17.4
-2 -24 18 -15.5 35
18 24 2 25.6 22.4
2 -24 18 144.79 55.29
24 -2 -18 -4.8 10.5
24 -18 2 -12.5 16
-24 18 2 -3.2 17.3
-2 18 -24 5.7 11.9
18 -2 24 -7.2 19.7
-2 24 18 -6.3 18.5
2 18 24 11.7 18.2
18 -24 -2 -7.9 18.8
-2 24 18 10.1 21.7
24 2 18 17.9 18.8
2 18 24 -5 16.9
2 24 -18 2.8 10.3
-2 -18 24 -2.7 46.8
2 -24 18 -34.5 45.3
-24 -2 18 8.9 17.9
18 -2 24 55.79 43.3
18 2 -24 36.6 12.4
-18 2 24 -54.69 45.1
-18 24 -2 -1.9 17.9
-4 18 24 98.59 20.1
18 24 -4 63.39 22.4
18 -4 -24 91.59 12.9
24 -4 18 95.59 18.5
18 24 -4 92.99 14
-24 18 -4 142.59 25.9
-18 -4 24 208.58 49.99
4 24 18 137.79 19.8
24 -18 -4 112.19 17.4
18 4 24 105.59 21.7
-18 24 4 103.09 17.8
-24 4 18 107.59 21
-24 18 -4 82.19 14.9
4 -18 24 94.59 40.9
18 -24 4 57.69 21.2
-4 24 -18 67.79 11.8
-4 -24 18 105.99 35.3
-4 18 24 143.29 21.8
4 18 -24 102.99 14.9
4 -24 18 59.39 41.3
18 -4 24 57.89 41.7
24 4 18 118.69 21.9
4 18 24 113.39 20.1
-18 24 -4 76.99 21.1
-4 24 18 88.89 22
-4 18 -24 111.39 14.9
18 -24 -4 141.99 23
4 24 -18 128.99 18.3
24 -18 4 139.49 19.1
-24 18 4 95.29 18.7
-4 -18 24 188.08 44.5
-24 -4 18 67.19 20.1
18 24 4 101.19 25.1
-18 4 24 120.19 47.1
18 -4 24 147.39 24.4
4 18 24 103.39 21.3
18 4 -24 120.79 16.1
24 -4 -18 121.69 17.3
-6 24 -18 127.89 16.9
6 24 18 124.19 19.5
24 -6 18 133.39 19.7
6 18 -24 120.49 15.3
-18 24 6 101.19 17.3
24 -18 -6 118.09 17.1
18 6 24 178.18 23.6
18 -6 -24 120.59 17.8
-6 18 24 126.29 20
18 -24 6 102.29 23.1
6 -18 24 149.69 36
-6 -24 18 104.79 34.3
-24 6 18 104.59 21
-24 18 -6 104.39 14.5
18 24 -6 140.19 15
-18 -6 24 172.38 46.6
-6 18 24 116.19 22.1
-6 18 -24 147.89 20.7
24 -18 6 101.99 18.4
6 24 -18 148.79 18.9
-6 24 18 112.09 24.5
6 18 24 143.79 21.4
24 -6 -18 114.39 17.2
18 -6 24 88.99 38.8
18 -24 -6 141.69 23
24 -18 6 109.19 19.3
-24 -6 18 137.79 21.7
18 -6 24 106.39 22.6
6 18 24 95.89 21.1
-18 24 -6 114.39 23.3
-18 24 -6 188.78 24.4
24 6 18 94.39 21.1
6 -24 18 116.39 35.8
-24 18 6 182.78 27.5
-18 6 24 125.59 46.4
-24 6 -18 152.58 18.3
-6 -18 24 130.99 41.7
18 24 6 138.79 25.2
8 -18 24 -8.7 31.3
18 -24 8 -17.5 20.9
8 24 18 20.1 15.4
18 -8 -24 23.1 10.2
-24 8 18 -4.3 16.8
-18 -8 24 39.3 48.1
-8 18 24 26.3 21.6
18 8 24 -10.6 17
24 -18 -8 -1.9 13.2
18 24 -8 9.2 10.1
-24 18 -8 3.4 9.7
-18 24 8 42.2 15.6
-8 18 24 25.5 16.3
8 18 -24 3 12.8
24 -8 18 0.4 16.5
-8 -24 18 55.89 30.8
-8 24 -18 17.3 9.6
24 -8 -18 1 9.4
-24 8 -18 16.4 10.7
24 -18 8 3.3 17
8 24 -18 15.9 8.8
18 -24 -8 -15.9 19.8
-18 24 -8 14.2 11.8
-8 18 -24 14.9 10.7
18 -8 24 39.7 22.1
8 -24 18 -3.2 29.8
24 8 18 24.5 19.9
-8 -18 24 -21.3 36.3
8 18 24 31.8 18.5
-18 8 24 122.19 50.99
18 -8 24 -8.9 35.2
8 18 24 -3.7 16.5
-24 18 8 1.2 14.6
24 -18 8 5.7 17.3
-18 24 10 36.4 14.7
18 10 24 49.4 19.1
10 -18 24 47.8 30
18 24 -10 24.7 10.5
18 -10 -24 35.5 10.2
-24 18 -10 33.5 10.5
24 -10 18 10.1 17.8
-18 10 -24 66.99 15.8
-10 24 -18 26.6 8.5
24 -18 -10 31.4 13.2
18 -24 10 36.7 21.4
-18 -10 24 29.1 52.49
-10 -24 18 62.89 32
10 18 -24 15.2 13.3
-24 10 18 14.6 19.2
10 24 18 -1 15.7
18 -24 -10 -0.5 19.6
24 -10 -18 17.3 9.5
-24 18 10 20.8 14.8
24 10 18 34.9 22.5
10 -24 18 72.89 28.1
10 18 24 46.6 20.1
-18 24 -10 26.5 10.9
24 -18 10 35.3 18.8
18 -10 24 -26.4 33.8
-24 10 -18 20.9 10.3
10 18 24 -0.2 17.2
-10 -18 24 -29.4 35.6
18 -10 24 -2.2 42.3
10 24 -18 42 10.2
-10 18 -24 47 11.6
12 24 18 -5.6 16.4
-18 12 -24 10.1 12.9
24 -12 18 65.49 20.3
-24 12 18 35.9 20.1
-18 24 12 22.9 16.3
18 -12 -24 15.3 8.7
-18 -12 24 26.3 53.09
12 -18 24 -11.3 27.3
24 -18 -12 40.2 13.3
12 18 -24 -4.5 15.1
18 24 -12 27 9.4
-12 24 -18 14.5 9
18 12 24 9.6 17.3
18 -24 12 8.3 22.6
-12 -24 18 11.3 36.3
-24 18 -12 19.4 9.2
12 24 -18 13.2 9
18 -12 24 42.2 31.6
-24 18 12 37.5 15
-24 12 -18 5.3 9
18 -24 -12 -25.2 19.1
24 -12 -18 13 9.5
12 -24 18 -6.1 25.3
-18 24 -12 25.1 10.4
-12 -18 24 34.9 39.4
12 18 24 35.9 19.8
24 -18 12 -6.9 24.6
-12 18 -24 8.3 10
12 18 24 11.2 20.2
-24 18 -14 26.5 9.4
24 -18 -14 52.69 14
18 -24 14 27.6 23
18 14 24 26.6 20.8
-14 24 -18 10 8.4
18 24 -14 41.6 9.6
14 -24 -18 71.49 15.5
18 -14 -24 24.3 9.5
-18 24 14 61.79 16.4
14 -18 24 -4.4 26.1
18 -14 24 9.1 31.4
-18 24 -14 28.2 9.8
-24 14 -18 20.1 9.4
18 -24 -14 -6.8 20.5
14 24 -18 16.3 8.9
14 -24 18 -30.4 26.4
-14 18 -24 52.69 10.6
24 -14 -18 37.8 10.1
-24 18 14 48.1 15.5
0 24 20 185.08 27.5
-24 20 0 161.28 21.9
24 -20 0 163.18 21
0 20 -24 196.98 19.4
0 -20 24 189.28 83.59
0 20 24 177.68 20.7
-20 24 0 194.58 28.2
-24 0 20 209.38 25.6
24 0 -20 151.68 19
0 24 20 151.58 23.4
0 20 24 254.57 27.3
20 -24 0 222.48 24.7
-20 0 24 167.08 65.39
24 0 20 233.48 30.2
20 0 -24 188.58 19.8
0 -24 20 278.57 52.29
0 24 -20 218.08 18.9
20 0 24 146.59 21.1
20 -2 -24 92.29 12.2
2 24 20 101.49 17
24 -2 20 98.79 18.5
2 20 -24 92.69 13
20 -24 2 108.99 23.6
-20 -2 24 110.19 66.09
2 24 20 86.49 23.5
-2 -24 20 176.08 47
-2 24 -20 91.49 12
-24 20 -2 88.39 21.2
-24 2 20 101.19 24.3
24 2 -20 92.99 17
24 -20 -2 84.29 19.1
2 -20 24 49.1 52.59
20 2 24 87.89 18.7
-20 24 2 92.39 16.7
-2 20 24 111.39 18
-2 20 24 104.19 19.2
2 20 24 88.99 18.3
24 2 20 88.29 18.2
2 24 -20 101.69 12.4
24 -20 2 115.99 21.4
20 -24 -2 77.19 23.5
-24 -2 20 143.49 24.4
-2 -20 24 75.39 49.5
24 -2 -20 95.99 13
-20 24 -2 139.49 21.1
20 2 -24 106.69 14.4
2 20 24 97.89 18.5
-2 20 -24 83.39 12.6
-2 24 20 87.59 19.3
-24 20 2 88.19 19.3
20 -2 24 116.89 20
-4 20 24 -0.5 18.7
4 -20 24 -36 44.8
24 -20 -4 7.1 16.8
-4 20 24 14.6 15
20 4 24 -0.9 16.7
20 -4 -24 5.3 9.3
4 24 20 -10.4 14.5
-20 24 4 9.4 14
4 20 -24 26.3 11.5
-4 24 -20 7.2 9.6
-4 -24 20 10.9 39.4
-24 20 -4 11 19.6
20 -24 4 -39 20.3
-24 4 20 17.1 22.9
-20 -4 24 -132.29 68.69
24 -4 20 -21.1 15
-4 -20 24 -15.1 43.3
4 20 24 8.6 15.7
24 -4 -20 3.7 9.4
-24 -4 20 -45.8 21.8
-24 20 4 22.8 16.3
4 20 24 1.2 17
20 -24 -4 -12.9 20.7
-4 24 20 -31.6 19.1
-24 4 -20 3.3 14
4 -24 20 8.3 46.9
24 4 20 34.3 18.1
20 -4 24 7.2 16.9
-20 24 -4 23.6 19.3
4 24 -20 9.2 9.3
-4 20 -24 -5.5 10.4
24 -20 4 1.5 15.4
6 24 20 8.6 14.1
20 6 24 1.2 16.3
-6 20 24 -18.8 14.4
20 -6 -24 1.8 8.7
24 -6 20 14 15.7
-6 24 -20 8 9.1
20 -24 6 14.8 21.4
-24 20 -6 10.5 12.9
-20 -6 24 29.7 95.29
6 20 -24 22.1 11.4
-6 20 24 -16.3 19.8
24 -20 -6 7.7 16.9
-20 24 6 12.1 13.4
-6 -24 20 -2 36.1
6 -20 24 59.89 38.2
24 6 20 -2.9 17.1
24 -6 -20 15.9 9.4
-24 6 -20 -3.8 11.8
-6 -20 24 -60.59 38.7
6 20 24 11.3 17.9
-24 20 6 17.6 15.5
6 24 -20 -0.6 9.2
6 20 24 1.1 15
24 -20 6 -29.5 18.2
20 -6 24 9.6 18.2
-24 -6 20 -15.4 28.9
-6 20 -24 19.4 10.7
-6 24 20 16.1 23.8
6 -24 20 6.8 37.8
-8 -24 20 0.5 37.4
8 20 -24 22.1 12
-24 20 -8 30.9 10.8
-8 24 -20 17.4 9.1
24 -8 20 32.6 16.2
20 -24 8 28 22.5
20 -8 -24 7.8 8.5
20 8 24 29.1 16.3
24 -20 -8 8.1 17.3
-20 24 8 53.39 13.3
8 24 20 7.3 14.9
8 -20 24 -30.9 32.8
20 -24 -8 19.4 21.2
24 8 20 29 18.5
24 -8 -20 30.7 9.1
8 20 24 26.5 19
8 24 -20 8.6 9.6
-8 -20 24 61.89 39.7
24 -20 8 64.29 22.2
-8 20 -24 19.7 10.8
8 20 24 45.8 16.6
-24 20 8 2.2 14.2
-20 24 -8 10.1 13.7
-24 8 -20 9 10.7
8 -24 20 0.2 33.5
20 -8 24 40.9 21.8
20 -8 24 70.09 45.3
10 20 -24 225.88 21.5
20 -10 -24 163.48 15.5
-10 -24 20 180.88 40.7
-10 24 -20 205.68 17.8
20 10 24 144.09 19.6
20 -24 10 126.99 27.1
24 -10 20 150.88 20.1
-20 24 10 180.48 21.6
10 -20 24 170.68 32.5
10 24 20 149.99 22.7
-24 20 -10 177.68 17.9
10 24 -20 170.18 16.7
20 -24 -10 148.79 25
24 10 20 152.58 24.1
10 -24 20 213.38 34.7
-24 10 -20 160.68 17.3
-10 -20 24 138.99 43.6
10 20 24 183.08 23.8
-10 20 -24 171.58 18.2
24 -10 -20 219.68 16
-20 24 -10 150.88 14.3
10 20 24 159.88 26.3
20 -10 24 158.78 55.39
-24 20 10 155.78 21.5
20 12 24 169.38 29.3
12 -20 24 183.18 30.4
20 -24 12 94.09 26.9
20 -12 -24 140.69 14.4
-12 24 -20 142.89 14.6
12 24 20 149.69 26.3
-24 20 -12 182.08 18.4
-20 24 12 127.19 16.2
-12 20 -24 148.09 13
24 -12 -20 119.89 15.5
-20 24 -12 157.68 19.7
12 -24 20 96.19 29.9
12 24 -20 158.18 16.1
-24 20 12 177.58 18.7
-24 12 -20 147.59 17.7
-24 22 0 409.56 30.3
24 0 22 332.07 27.9
22 0 24 382.96 29.7
0 24 22 305.17 27.3
22 0 -24 300.57 22.7
0 22 24 294.07 29.7
24 0 -22 341.37 25.1
-22 24 0 344.47 29
0 22 -24 323.97 20.9
0 24 -22 336.67 20.9
22 -24 0 323.07 41.3
0 22 24 344.87 27.3
2 24 22 209.08 22.7
22 2 24 204.98 27.7
-2 22 24 207.48 28.9
22 -24 2 162.68 27.5
-2 22 24 206.78 25.5
-2 24 -22 236.38 17.9
24 -2 22 212.28 26
-22 24 2 219.98 25.7
22 -2 -24 225.18 18.4
2 22 -24 223.88 18.6
-2 22 -24 240.18 18.4
2 22 24 181.68 20.4
-2 24 22 229.98 25.4
24 -2 -22 230.28 18.5
-24 22 2 166.68 18.9
22 -2 24 244.08 28.2
2 22 24 183.88 23
24 -22 2 246.48 30
22 -24 -2 219.78 28.7
-22 24 -2 237.08 30.2
2 24 -22 182.38 18.4
24 2 22 212.38 27.1
22 4 24 35.8 15.9
22 -4 -24 27.2 9.3
22 -24 4 60.19 26.4
-4 24 -22 26.6 9.5
4 24 22 32.9 13.9
4 22 -24 29.1 10.2
24 -4 22 41.3 15.6
-4 22 24 64.79 18.9
-22 24 4 40.5 15
4 22 24 21.7 17.9
-4 24 22 32.8 19.6
24 4 22 12.4 16.4
4 24 -22 25.8 9.2
-4 22 -24 41.5 10
4 22 24 53.79 15.3
22 -4 24 -1.4 16.2
22 -24 -4 10.2 36
24 -22 4 48.2 34.6
-24 22 4 50.39 14.3
24 -4 -22 39.4 10.2
-22 24 6 3 13.4
6 24 22 -11.5 13.7
6 -22 24 -44.8 55.99
6 22 -24 6 10.6
22 -24 6 70.39 30.2
22 -6 -24 -11.3 8.4
-6 24 -22 -4.5 8.6
24 -6 22 6.5 15.6
6 22 24 22.1 14.1
-24 22 6 5.7 13.1
22 -6 24 31.5 18.1
24 -6 -22 -4.7 8.5
6 24 -22 3.1 9
24 6 22 11.4 16.5
-6 22 -24 8.6 9.6
8 -22 24 11.7 47.2
8 24 22 8.1 14.2
24 -8 22 81.39 19.9
22 8 24 55.09 17.8
-8 24 -22 62.29 10.1
22 -8 -24 39.1 8.7
-22 24 8 64.19 14
24 8 22 48.2 19.6
-24 22 8 58.39 14
-8 22 -24 35.8 10.2
24 -8 -22 39.8 9.6
8 24 -22 39.7 9.8
8 22 24 63.09 15.2
1 25 -1 466.25 40.6
-1 25 1 434.66 52.29
-1 25 -1 468.05 42.5
1 -1 25 505.35 77.49
1 -25 -1 405.36 52.69
25 1 -1 506.45 37.7
25 1 1 454.25 40.3
1 1 25 563.04 85.09
25 1 1 494.35 45.1
1 1 25 479.35 76.59
1 -1 25 646.24 77.09
1 1 25 532.15 67.99
-1 -1 -25 450.85 52.39
-1 -1 25 507.15 77.49
-1 1 -25 431.96 40.4
1 25 1 556.64 42.2
1 25 -1 437.66 51.59
-1 25 1 500.25 44.2
-1 25 -1 386.86 51.49
-1 -25 -1 552.24 60.19
-1 -1 25 549.65 64.99
-1 1 25 466.25 59.89
-1 -1 25 510.75 52.49
-1 1 25 345.47 42.5
-1 1 -25 369.76 52.79
1 -1 -25 494.15 48.4
1 1 -25 484.15 49.6
-1 -25 1 576.64 66.39
1 -25 1 478.25 56.19
25 -1 1 546.15 38.6
25 -1 -1 487.75 35.6
1 -1 25 499.55 61.99
-1 1 25 500.65 74.99
1 25 1 531.25 50.19
-1 -25 3 -4.7 37.8
3 25 -1 4.6 21.2
-3 1 -25 19.7 22.5
25 -3 -1 -7 14.7
25 1 -3 2.2 16.9
-1 25 -3 -1.8 20
3 1 25 -38.6 51.49
-1 -3 -25 -0.6 31.9
-3 -1 25 -2.3 42.9
1 -3 25 -24.3 47.2
1 -3 25 -22.9 64.29
25 3 1 59.99 27.8
3 25 -1 -30.5 23.1
3 1 25 14.6 47.4
3 -25 1 18.9 26.5
1 3 -25 -0.2 27.4
1 25 3 -10.8 24
1 3 -25 36.4 29.6
-1 3 25 29.8 31.7
-1 3 25 29 41.2
-3 25 1 18 26.7
-3 -1 25 -22.6 47.6
-25 3 -1 30 26.7
-3 25 1 -19.4 19.5
3 1 25 20.8 31.1
-1 25 -3 -7.3 19.9
3 -1 -25 34.8 25.8
25 3 1 -6.9 22.2
-1 25 -3 8.3 26.7
25 -1 3 -29.6 17.5
1 -3 25 -9.2 47.2
1 25 3 -7.5 20.7
-1 3 25 18.8 28.5
3 -1 25 24.7 34.8
-3 1 25 68.09 43.2
-1 3 -25 3.8 25.2
-1 -3 25 17 50.39
-1 -25 -3 -1.9 32.4
-3 25 -1 -23.9 29.3
-1 25 3 -14.3 20.2
1 3 25 19.9 26.8
-3 1 25 -43.9 38.4
1 3 25 10.1 30.2
25 -3 1 18.2 17.8
1 3 25 53.49 45.2
-1 -3 25 18.9 42.4
3 -1 25 -45.7 54.59
-1 3 -25 78.19 34.6
1 -3 -25 32.9 30.2
25 -1 -3 3.6 15.2
25 1 3 39.4 20.4
25 3 -1 -42.6 21.1
3 1 -25 27.9 26.6
1 25 -3 4.2 19
-3 25 -1 2.5 21
-25 3 1 -31.5 23.8
3 -25 -1 28.3 26.2
-1 25 3 5.5 26.4
1 -25 3 1.9 30.4
3 -1 25 -38.6 47
3 25 1 27.8 25.7
3 25 1 11.2 19.3
1 25 -3 -5.9 18.4
-25 1 -3 -37.6 29
1 3 25 -4.1 38.6
1 25 -3 2.5 24.8
25 1 3 23 23.2
-3 -1 -25 3.3 21.7
-25 3 3 159.78 26.6
-3 -3 25 144.59 45.9
-3 3 25 170.68 37.7
3 -3 25 232.88 60.79
3 25 -3 164.38 22.8
-25 3 -3 237.68 34.8
3 3 -25 141.29 30.8
-3 25 -3 213.98 32.8
-3 25 3 194.38 32.7
3 25 -3 166.88 29
3 -3 -25 225.78 34.7
25 -3 -3 126.99 20.2
25 3 3 203.48 29.3
25 -3 3 199.48 24.3
3 25 3 204.08 28.1
3 -25 3 155.08 31.8
3 25 -3 222.78 28.3
3 -3 25 244.98 48.8
3 3 25 167.88 44.7
3 3 25 139.29 32.4
3 3 -25 105.39 29.5
3 25 3 136.29 27
25 3 -3 183.68 25
-3 3 25 219.98 46.5
3 -3 25 243.08 47.1
-3 3 -25 185.08 29.2
3 3 25 191.88 36.1
-3 -3 25 165.08 57.19
-3 25 -3 148.89 23.3
-3 25 -3 159.28 24.4
-3 25 3 170.08 25.4
3 3 25 124.99 54.39
25 3 3 188.38 27.1
25 -1 5 21.8 21.4
5 1 25 20.6 26.7
-5 25 1 1.4 21.6
-5 25 1 3.8 31.9
-1 25 -5 42.2 18.3
5 25 -1 34.7 20.1
1 5 -25 11.3 31.1
25 -1 5 14.4 18
25 1 -5 49.99 18.4
-1 -5 -25 47.7 35.3
5 1 25 -18.3 46.7
25 5 1 51.49 27.1
-1 -25 5 105.49 42.8
1 5 -25 30.9 32.2
5 25 -1 46.1 27.7
5 -1 -25 37.8 26.8
5 1 25 82.29 30.3
-5 -1 25 35.6 42.9
1 25 5 36.2 21.6
1 -5 25 48.3 45.3
-25 -1 -5 -11.8 33.9
-5 1 -25 30.4 24.3
-1 25 -5 27.1 25.4
5 -25 1 76.49 26.7
-25 5 -1 39.7 27
1 25 5 23.5 24.2
25 -5 -1 42 18.1
-1 5 25 57.39 30.1
-1 5 25 30.4 43.1
-1 5 25 61.29 31
1 -5 25 52.19 48.6
-1 25 -5 3.8 19.8
25 1 5 60.19 23.9
5 -1 25 63.39 34.4
5 -1 25 81.69 47.8
-1 5 -25 1.5 27.9
-1 -5 25 58.39 42.7
-5 1 25 71.99 41.6
-1 25 5 2.2 25.9
1 -25 5 79.29 34.5
5 25 1 70.99 22.2
-25 1 -5 20.4 34.4
-1 -5 25 51.89 52.49
1 5 25 3 45.9
1 -5 -25 48.4 30.7
25 -1 -5 47.7 16.4
5 25 1 19.3 25.3
1 25 -5 27 20.4
25 1 5 20.7 21.3
5 -25 -1 36 24.7
5 1 -25 49.5 28
-5 25 -1 41.3 32.5
-25 5 1 57.89 27.1
-1 5 -25 -53.19 35.4
-1 25 5 58.39 22.3
25 -5 1 40.6 16.6
-5 25 -1 33.7 22.6
-5 -1 -25 28.3 24.4
-5 1 25 39.2 37.8
1 5 25 40.7 26.7
1 25 -5 29.6 17.6
1 25 -5 53.99 26.1
1 5 25 60.39 31.7
5 3 25 316.07 50.49
3 -5 25 373.46 55.49
-3 25 -5 316.67 31.6
3 5 -25 391.16 39.2
25 -3 5 346.07 35.8
-3 5 25 381.76 52.89
-5 -3 25 216.28 58.09
5 25 -3 321.77 45.3
5 25 -3 389.76 38.2
5 -25 3 384.16 48.1
25 5 3 403.36 47.3
-5 25 3 395.86 55.49
-5 3 -25 313.87 34.3
5 -3 -25 253.27 32.8
-25 3 5 409.16 43.5
25 5 3 319.27 36.9
3 25 5 406.76 39.8
-5 25 3 363.36 39.4
-3 5 25 432.96 60.19
5 25 -3 395.96 35.6
5 3 25 385.46 49.99
-3 5 25 377.56 53.59
25 -3 5 365.56 36
-3 25 -5 324.87 39.1
-3 25 -5 415.96 50.99
3 25 5 347.57 45.2
25 3 -5 392.06 36.1
3 -5 25 364.76 66.09
-5 -3 25 314.57 46.8
5 3 25 498.85 54.69
-25 5 -3 298.57 34.3
25 -5 -3 319.17 31.7
25 3 5 384.86 41
-5 25 -3 350.36 39
5 -3 25 510.65 70.59
-5 3 25 384.36 53.19
3 5 25 387.76 48.7
3 -25 5 333.37 53.89
5 25 3 369.86 39.8
-3 -5 25 356.66 50.69
3 5 25 396.56 56.39
5 -3 25 328.27 55.89
3 5 25 292.17 56.29
25 3 5 352.66 44.2
3 25 -5 358.26 32.2
5 25 3 382.76 46.6
3 25 -5 410.96 45.7
5 3 -25 260.27 34.3
-3 5 -25 356.36 35.9
-5 25 -3 517.75 57.89
3 -5 -25 332.07 38.2
-5 -3 -25 344.57 40.3
-3 -5 25 417.26 62.79
-25 5 3 359.56 44.1
-3 25 5 349.17 42.1
3 25 -5 417.96 38.1
-5 3 25 384.26 58.19
25 -5 3 363.26 34.1
-5 25 -3 330.17 38
25 -3 -5 384.16 31.9
-25 3 -5 342.87 41.7
-3 25 5 383.66 49.3
-25 5 -5 552.14 61.69
-5 5 25 682.43 58.29
25 -5 5 641.44 39.9
5 5 25 654.23 58.09
-5 25 5 635.24 43.9
-5 5 25 611.24 55.89
-5 25 -5 625.94 59.49
25 -5 -5 606.34 35.6
5 5 -25 506.55 52.89
5 -5 25 554.24 81.39
-5 25 -5 603.04 37.5
5 25 -5 694.73 48.1
5 25 5 683.13 47.3
-5 25 5 585.54 58.99
-5 25 -5 656.63 45.6
25 5 5 645.24 59.89
5 5 25 652.83 72.79
5 -5 -25 640.94 54.69
5 -25 5 580.04 51.69
5 25 -5 618.24 40.9
-5 5 25 522.75 69.29
5 25 -5 607.14 36.6
5 5 25 509.95 52.59
5 25 5 604.24 42
5 -5 25 649.43 84.99
-25 5 5 607.04 47.8
5 -5 -25 601.24 54.49
-5 -5 25 599.54 69.19
25 5 5 549.35 51.49
-5 -5 25 778.12 105.09
-5 5 -25 481.95 50.99
1 -7 25 -18.5 47.3
-1 25 -7 19.6 19.9
7 -1 -25 14.4 26.6
25 -1 7 18.1 19.1
7 1 25 6.5 26.5
7 25 -1 -34.4 27.7
1 -7 25 -25.2 44.6
-7 25 1 49.7 40.8
1 25 7 37.1 19.8
25 -1 7 -2.1 19.5
-7 25 1 11.7 19.9
7 1 25 39.5 30.8
-1 7 25 -6.5 23.5
-7 1 -25 9 25.5
25 -7 -1 19.3 14.9
7 -1 -25 49.8 35.3
-1 25 -7 36.4 23.7
-7 -1 25 39.7 42.8
-1 7 25 13.4 26.2
-1 7 25 -14.5 39.3
7 -25 1 23.9 22.7
7 25 -1 8.1 17.5
1 7 -25 0.6 60.89
-1 25 -7 -11.3 14.8
1 25 7 6.3 23.6
25 1 -7 4.7 15.3
-1 -25 7 44.5 49.6
7 25 -1 21.3 24.3
7 1 25 10.6 45.5
-25 7 -1 -7.8 25.3
1 25 -7 -18.5 23.4
-7 25 -1 44.4 20.1
-1 -7 25 54.49 43
25 1 7 9.1 21
25 -1 -7 3.6 14.1
7 25 1 16.4 16.8
7 1 -25 1.2 37.9
1 25 -7 27.9 15.6
7 -25 -1 32.2 23.1
7 25 1 18.1 23.8
25 -7 1 12.9 15.6
-7 1 25 80.09 42.5
-1 25 7 22.7 24.4
25 1 7 31.8 18.3
-7 -1 -25 6.3 24.8
-7 1 25 84.79 58.69
-1 25 7 -6.9 20.2
7 -1 25 -13.5 27.9
7 -1 25 61.99 44.9
1 -7 -25 51.49 42.8
1 7 25 31.6 26.9
7 -1 25 43.2 32.8
1 25 -7 44.6 21.8
-25 7 1 4.3 22.3
1 7 25 17.9 28.1
7 1 -25 48 30.6
-1 -7 25 -24.1 47.5
1 7 25 58.39 42.8
1 -25 7 -30.9 35.9
7 25 -3 87.29 18.8
25 -7 -3 85.69 16.1
-25 3 7 87.99 23.2
3 25 7 73.49 23.2
25 -3 7 79.39 18.4
7 3 25 133.29 32.5
-7 3 -25 92.49 31.4
3 -7 25 123.89 48
7 25 -3 153.18 24.1
-3 25 -7 126.89 18.2
25 -3 7 102.79 21.7
-7 -3 25 73.29 39.2
-7 25 3 160.18 40.8
-3 25 -7 131.09 24.1
7 -3 -25 41.2 39.1
7 -25 3 99.59 26.3
-25 7 -3 132.69 29.7
7 3 25 89.89 28.5
7 -3 -25 150.28 36.7
-7 25 3 149.09 25.1
7 3 25 124.49 47.4
-3 25 -7 161.68 30.1
-3 7 25 159.18 32.2
25 3 -7 118.09 21.4
-3 7 25 169.68 32.7
7 25 -3 128.39 28.4
3 -7 25 62.49 56.69
-3 7 25 105.19 40.1
3 25 7 129.59 22.2
3 7 25 111.09 31.7
-7 3 25 148.29 32.7
-25 7 3 95.19 24.5
7 25 3 140.29 27.9
3 7 25 170.68 30.5
7 -3 25 117.69 45.1
-3 25 7 136.69 26.9
7 25 3 131.49 22.7
-7 3 25 103.09 44.4
-7 25 -3 96.99 22.1
-3 25 7 132.59 30.8
3 25 -7 125.19 26.5
-3 -7 25 6.1 54.29
-7 3 25 118.89 35.5
7 -25 -3 123.99 52.19
3 -7 -25 139.59 28.5
7 3 -25 140.19 40.5
7 -3 25 169.48 37.9
7 -25 -3 130.39 27.3
3 25 -7 94.79 18.4
3 25 -7 143.19 23.6
25 -7 3 100.79 18.1
3 -25 7 140.89 33.8
3 7 25 135.79 50.09
25 -3 -7 89.99 16
25 3 7 116.79 26
-3 -7 25 103.79 42.8
-7 -3 -25 53.89 28.2
25 3 7 121.49 24.9
7 25 -5 377.86 32
-25 7 -5 415.86 59.29
-5 25 -7 384.86 30.5
-7 25 5 394.96 39.8
7 -5 -25 323.97 42.9
-7 -5 25 328.47 48.6
-5 7 25 334.97 48.1
-5 25 -7 396.26 40.3
7 -25 5 315.27 46
-5 7 25 325.37 47.7
7 25 -5 309.07 42.6
5 25 7 455.45 45.2
5 25 7 408.16 36.7
25 -5 7 368.06 36.1
25 -5 7 402.56 35
5 -7 25 313.07 52.49
-25 5 7 355.36 39.9
7 5 25 333.17 48.2
7 5 25 384.26 52.19
-5 7 25 348.97 38.8
-5 25 -7 371.86 56.09
25 -7 -5 377.86 31
-7 25 5 457.55 63.69
25 -5 -7 348.07 29.9
-7 5 25 388.06 51.99
-7 5 25 419.16 65.39
-5 25 7 383.76 53.29
5 7 25 256.97 32.2
7 -5 25 356.46 53.09
25 -7 5 325.77 34.3
-25 7 5 421.06 41.6
-5 -7 25 310.47 68.19
5 7 25 389.96 51.69
-7 25 -5 404.66 33.3
25 5 7 490.05 53.89
-7 25 -5 318.67 37.7
7 25 5 382.96 36.6
5 25 -7 334.97 29.2
25 -7 5 429.76 57.59
5 -25 7 460.75 53.69
-5 25 7 309.77 39.4
5 -7 -25 327.47 39.1
-5 -7 25 319.97 49.7
5 25 -7 406.26 44.2
-7 5 25 316.37 38.4
7 -5 25 423.46 48.4
7 25 5 383.16 43.7
25 5 7 349.47 44.8
7 -7 25 124.49 46
-7 25 -7 160.98 18.5
-7 25 7 123.89 38.8
7 25 -7 228.48 26.8
25 7 7 151.38 33
7 7 25 116.79 27.4
25 -7 -7 168.48 24.3
7 25 -7 97.49 22.9
-7 -7 25 93.19 38.2
7 7 25 117.69 27.9
7 -25 7 137.99 28.6
25 -7 7 115.79 19.8
7 -25 -7 149.69 41.3
-25 7 7 199.08 27.5
-7 7 25 182.58 30.5
25 -7 7 197.88 24.3
7 25 7 151.38 21.9
-7 25 7 166.98 25.7
7 -7 -25 137.09 36.9
7 25 7 139.39 25.6
-7 7 25 147.99 29.8
-7 7 25 135.19 38.8
-7 25 -7 111.39 23.2
1 -9 25 103.49 49.6
25 -9 -1 62.09 15.3
-9 -1 25 118.29 44.8
9 -1 -25 111.99 46
25 1 -9 119.29 18.6
9 -25 1 89.59 27.6
25 -1 9 92.49 19.9
-1 9 25 105.89 30.8
9 25 -1 103.39 21.6
9 1 25 117.09 46.4
9 25 -1 100.89 25.9
-1 25 -9 98.29 16.9
-1 9 25 102.69 29.8
1 25 9 74.09 22.7
25 -1 9 98.19 21.7
9 1 25 83.79 33.1
1 -9 25 195.38 49.8
-1 9 25 190.18 41.8
1 25 9 66.49 24.1
-9 25 1 103.19 24.8
-1 25 -9 99.39 24.5
-25 9 -1 121.09 28.3
25 -9 -1 98.89 44.9
-1 25 -9 98.89 26.3
9 1 25 114.39 31.2
1 -25 9 85.09 41.8
-1 25 9 145.09 25.6
25 1 9 102.59 22.3
-9 25 -1 53.29 22.6
-25 9 1 79.39 24.3
-1 -9 25 86.19 49.99
25 -9 1 77.99 18.4
1 9 25 103.69 42.4
1 -9 -25 55.69 29.8
25 1 9 126.19 24.3
1 25 -9 70.59 15.9
25 -1 -9 113.49 17.9
1 9 25 119.29 27.2
9 -25 -1 98.29 24
9 -1 25 166.78 33.3
-1 -9 25 115.49 43.4
9 -25 -1 73.99 40.3
-9 1 25 137.19 42
1 25 -9 99.59 22
-1 25 9 118.89 27.7
1 25 -9 116.99 25.7
1 9 25 93.09 26.9
25 -9 1 62.79 42.8
9 -1 25 79.79 44.9
9 -1 25 119.29 34.2
9 25 1 90.09 26.9
-3 9 25 35.9 26.1
9 -3 -25 -67.79 39.9
25 -9 -3 31.6 14.1
-25 3 9 29.6 22.8
-3 25 -9 15.7 14.1
-3 9 25 17.4 25
-9 -3 25 -12.1 36.5
25 -3 9 -22.3 18.9
9 25 -3 11.3 22.9
3 -9 25 49.2 43.2
-3 25 -9 -10.1 23.9
-3 9 25 -48 37.6
9 25 -3 2.7 16.1
3 -9 25 9.9 58.49
-3 25 -9 53.29 21.9
9 -25 3 -3.1 22.7
3 25 9 5.2 19
9 3 25 -3.3 27.2
25 -3 9 29 19.2
9 3 25 3.6 28.4
3 25 9 8.5 23.4
9 3 25 20.8 41.7
-25 9 -3 -3.5 27.5
-9 25 3 23.2 21.6
25 3 -9 51.89 17.9
25 -9 3 18.1 15.2
3 9 25 5.7 24.1
-3 25 9 -1.2 21.5
-9 3 25 30.1 29.8
25 -3 -9 11.2 14.4
25 3 9 -10.2 20.3
-3 -9 25 -5.4 38
9 25 3 7.5 23.6
-3 25 9 7.8 24.5
-9 3 25 11.9 38.9
3 -9 -25 47.1 27.9
3 9 25 1.8 25.3
3 -25 9 19.9 32.5
9 -3 25 -7.2 41.9
-25 9 3 62.09 23.1
9 -3 25 42.3 33
25 -9 3 84.79 46.4
3 25 -9 -10.2 14.2
9 -25 -3 36.1 22.7
-9 3 25 48.1 35
9 -25 -3 -14 34.8
3 9 25 -28.2 42.4
-3 -9 25 0.2 55.59
-9 25 -3 8.5 19.2
9 -3 25 43.4 30.9
25 3 9 45.9 23.2
3 25 -9 -5.5 22.8
25 -9 -5 114.99 18.3
-9 25 5 106.39 21.7
9 5 25 119.19 28.9
-5 25 -9 169.28 25.5
25 -5 9 122.09 21.5
-5 9 25 116.29 28.5
-25 5 9 168.98 26.4
5 -9 25 167.58 44.6
-5 9 25 174.38 41.2
5 25 9 148.39 27.6
9 25 -5 123.69 24.7
-5 25 -9 156.38 18.5
9 -25 5 135.79 28.8
5 25 9 122.09 21.9
-5 9 25 128.59 28.9
-9 -5 25 146.59 36.8
9 5 25 109.59 26.1
-25 9 -5 124.19 34.3
25 -5 9 108.59 19.4
-5 -25 9 116.19 28.7
9 25 -5 111.49 17.4
9 -5 -25 122.19 39.6
25 5 9 171.88 29.6
5 -25 9 127.29 32.8
9 -5 25 93.49 42.8
-5 25 9 110.99 30.2
-9 5 25 118.79 31
9 -5 25 165.48 38.6
-9 5 25 101.49 38.4
25 -5 -9 130.69 17.6
-9 25 -5 143.29 24.9
25 -9 5 74.79 17.6
5 25 -9 158.38 27
25 -9 5 177.68 49.7
-5 -9 25 69.79 37.9
-9 25 -5 155.38 19.6
-9 5 25 123.49 28.4
5 9 25 79.99 26.8
9 25 5 166.28 27.2
9 -5 25 119.49 37.4
5 25 -9 148.89 19.3
5 -9 -25 80.59 32.4
9 -25 -5 141.59 37.5
-5 -9 25 126.99 68.99
5 9 25 108.69 27.3
-5 25 9 131.79 24.9
-25 9 5 87.39 22.6
25 5 9 147.59 27.2
9 -25 7 2.1 22.7
25 -7 9 -4.8 15.1
-25 7 9 28 20.3
7 -9 25 -4 40.1
-7 25 -9 32.6 23.3
-9 -7 25 54.99 34.2
-7 9 25 -1 23.6
9 7 25 -8.4 23
-7 25 -9 17.6 13
9 25 -7 2.3 13.2
9 7 25 28.4 26
9 25 -7 25.1 21.2
-7 9 25 58.89 36.9
25 -7 9 16.9 16
7 -25 -9 -29.1 41.8
-7 9 25 28.4 25.1
-9 25 7 39 21
-7 -25 9 10.4 22.3
25 -9 -7 3.1 12.4
9 -7 -25 -15.5 35.6
7 25 9 15.2 21.8
9 -7 25 53.49 41.9
7 9 25 33.6 23.5
25 -9 7 24.7 15.4
9 25 7 -22.2 20.7
-9 25 -7 35.6 14.5
-9 7 25 -14.2 25
-7 -9 25 15.7 36.6
25 7 9 -39.4 27.8
-9 -25 7 -6.3 24.4
-9 25 -7 56.89 22.3
7 -25 9 -9.5 27.6
-7 25 9 9.2 20
7 -9 -25 35.4 34.3
7 25 -9 24.7 14.2
-9 7 25 -13.3 25.5
7 -25 9 89.99 37
-7 25 9 27.2 35.8
25 -7 -9 2 11.7
-25 9 7 22.6 20
25 -9 7 14.6 16.4
7 9 25 32.6 26.1
7 25 -9 14.7 22.1
9 -7 25 -43.1 45.2
-9 7 25 20.5 36
-9 25 -9 41.3 14.2
-9 9 25 10.1 28.2
9 25 -9 53.79 20
-9 -25 9 33.2 26.5
9 9 25 55.79 25.5
9 -25 -9 114.39 41.3
9 -9 -25 10 37.1
-25 9 9 51.29 20
25 -9 9 40.9 16.7
25 -9 9 38.6 17.1
-9 9 25 84.39 25.8
9 -9 -25 42.9 14
9 -25 9 33.4 26.4
9 9 25 71.49 25.4
-9 -9 25 56.59 38.1
9 25 9 46.2 21.5
-9 25 9 70.29 22.7
-9 25 -9 79.19 27.3
9 -9 25 59.89 40.2
25 -9 -9 75.39 15.5
-9 9 25 49.2 35.1
9 25 -9 55.49 14.5
-1 25 -11 171.58 24.4
-1 25 -11 172.28 26.5
1 -11 25 208.58 50.49
25 1 -11 157.98 18.7
11 25 -1 224.18 29.5
-25 1 11 139.89 23.6
1 -11 25 138.99 52.29
25 -11 -1 189.18 43.6
-11 -1 25 158.28 41
11 1 25 128.49 43
11 -25 1 265.97 39.4
11 25 -1 204.98 22.1
25 -11 -1 125.59 18
11 1 25 165.08 36.8
25 -1 11 145.99 21
-11 25 1 167.88 24.6
-1 11 25 169.98 39.1
1 25 11 130.29 23.4
1 25 11 179.88 25.5
11 -25 1 121.59 43.9
-25 11 -1 199.28 28.5
-1 -25 11 221.68 32.5
-1 -11 -25 209.58 36.7
-1 11 25 217.08 31.7
25 -1 11 110.99 22.7
11 1 25 181.68 31.9
-1 11 25 235.38 32.7
25 1 11 177.48 25.7
11 -25 -1 18.8 70.19
-1 25 11 183.48 23.7
1 11 25 194.68 30.5
1 11 25 248.28 40.5
1 11 25 182.98 30.7
-11 25 -1 157.18 25.2
1 25 -11 168.28 24.5
-25 11 1 119.59 25.5
1 -25 11 223.08 32.4
-1 -11 25 208.58 52.69
11 25 1 229.88 30.9
11 -1 25 221.38 33.7
-1 -11 25 248.08 47.4
11 -1 25 255.37 61.69
1 -11 -25 111.19 32.2
1 25 -11 208.28 28.6
-1 25 11 150.18 26.1
25 -1 -11 174.88 19.2
25 1 11 219.58 32.7
11 -25 -1 211.88 27.7
11 -1 25 134.09 45.7
25 -11 1 168.08 43.8
1 -25 11 227.08 48.3
25 -11 1 121.99 18.3
-11 1 25 169.58 41.1
25 -3 11 8.7 18.4
11 25 -3 2.7 15.6
25 -11 -3 27.4 44.1
11 3 25 -17.1 38.2
-25 3 11 -17 19.5
-3 11 25 -5.2 23.2
25 -3 11 -28.6 16.9
-11 -3 25 -33 37.6
25 -11 -3 4.9 13.2
-3 -25 11 15.4 25.3
-25 11 -3 23.9 25.7
11 25 -3 -16.6 19.8
11 3 25 33.1 33.1
11 3 25 -3.4 26
-3 11 25 28.2 24.6
3 -11 25 -48.7 39.5
-11 25 3 16.1 19.8
-3 25 -11 30 23.8
3 25 11 16.8 20.8
-3 11 25 39.5 34.6
-3 25 -11 -2.1 12.9
25 3 -11 -1.8 16.2
11 -25 3 -13.9 21.5
11 -25 3 12.8 49.8
3 25 11 -2.3 20.8
-3 -11 -25 13.1 32
-11 3 25 -6.3 29.2
-25 11 3 -7.5 21.5
-3 25 11 11.1 20.3
25 3 11 31.3 20
3 -25 11 -15.6 28.4
11 25 3 5.7 21.5
3 -11 -25 -28 33.2
-11 3 25 19.9 36.4
3 11 25 -12.3 22.8
3 -25 11 -11.3 38.7
25 -11 3 -3.3 43.7
25 -11 3 2.8 15.4
11 -3 25 8.3 39.6
3 11 25 17.6 24.2
-3 -11 25 46.5 39.2
25 3 11 -31.2 21.4
-11 25 -3 -18.6 20.3
25 -3 -11 9.8 13.4
11 -3 25 -54.99 26.1
-3 -11 25 -14.9 59.19
3 25 -11 -11.1 21
-3 11 -25 22.9 23.7
3 25 -11 -17.7 13.1
-3 25 11 -14.7 23.8
11 -25 -3 -31.7 21.7
25 -11 -5 17.1 13.8
11 25 -5 7 14.2
11 25 -5 18.3 19.5
11 -25 5 26.8 24.1
5 -11 25 38.2 39.3
11 -5 -25 24.9 13.7
-5 -25 11 52.19 25.8
11 5 25 -2.9 30.7
-25 5 11 13.6 19.8
-5 11 25 18.5 23.7
-5 11 25 52.29 34.7
-11 25 5 31.8 18.4
-11 -5 25 25.2 36.1
11 5 25 2.4 22
25 -5 11 34.3 18.7
5 25 11 40.3 22.6
11 -5 -25 -47.1 45.6
25 -5 11 11.1 16.9
-5 25 -11 36.9 25.9
5 25 11 38 22.6
-5 25 -11 13.3 11.6
-5 11 25 -0.1 23.3
25 -11 5 0.5 16.3
11 5 -25 -5.3 14.9
11 -5 25 3.2 40
5 -25 11 20.5 35.8
5 11 25 62.39 24.5
-11 5 25 -6.4 37.1
5 -11 -25 25.6 31.4
-5 11 -25 34.7 24.6
25 -5 -11 0.6 12.2
5 11 25 37.1 23.2
-11 25 -5 22.7 20.3
-5 -11 25 57.89 36.4
5 -25 11 -8.8 31
-5 25 11 34.8 28.3
-11 -25 5 36.7 26
-25 11 5 -6.8 18.4
11 25 5 48.5 23.6
-11 25 -5 38.8 17.5
25 -11 5 59.29 49.9
-11 5 25 15 29.1
5 25 -11 38.1 14.3
25 5 11 18.7 23.7
-5 25 11 54.79 20.9
5 25 -11 5.5 20.8
-11 5 25 -9.1 28
11 -5 25 28.9 32.9
11 -25 -5 33.1 22.1
11 -25 -5 25.2 34.6
-7 11 25 12.4 22.9
25 -7 11 28.3 17.1
-7 25 -11 -14.1 11.9
11 -7 -25 21.1 13.7
11 25 -7 6.5 13.4
11 7 25 45.2 28.5
7 -11 25 0.6 36.6
11 -25 7 -3.2 22.5
25 -11 -7 8.4 12.5
-7 11 25 13.9 25.9
11 -7 -25 -8.7 40.1
-11 -7 25 48.8 34.8
-25 7 11 11.8 19.9
-7 11 25 -1.7 32.8
25 -7 11 19.7 17
11 25 -7 9.9 19.3
-7 -25 11 34.7 26.8
-11 25 7 33 20.3
7 25 11 14.2 20.5
11 7 25 29.9 22.8
7 25 -11 15.9 19.8
25 -7 -11 -4.1 11
-11 25 -7 -0.4 14.2
7 -25 11 -6.3 28.2
-7 -11 25 27 37.9
25 -11 7 11.3 14.8
-11 -25 7 56.89 27.7
11 -25 -7 -10.3 42
11 7 -25 32.1 16.3
11 -7 25 -3.8 39
7 11 25 9.2 22.5
25 -11 7 14.6 15.6
11 25 7 30 21.7
7 -25 11 30.3 57.39
7 -11 -25 40.9 37.3
-11 7 25 62.89 29.9
-7 25 11 23.8 20.7
-25 11 7 3.1 18
-11 25 -7 -16.3 21
25 7 11 6.1 26.3
7 25 -11 14.1 13.7
-11 7 25 5.4 33.8
7 11 25 -14.6 21.7
-11 7 25 28.2 25.3
25 -9 11 107.19 20.4
-11 -9 25 138.79 38.7
-9 -25 11 188.98 32.4
-9 11 25 125.69 27.1
11 9 25 115.19 24.5
11 9 25 135.39 26.9
25 -11 -9 162.28 22.5
-25 9 11 78.29 19.8
11 -9 -25 103.49 47
11 25 -9 190.78 24.5
-9 11 25 149.99 36.1
11 -25 9 110.19 27.4
9 25 11 119.59 22.5
-9 25 -11 122.79 15.9
25 -9 11 147.59 22
11 -9 -25 125.79 16.7
-9 11 25 122.29 23.6
-11 25 9 112.79 22.5
9 -11 25 106.29 38.4
11 25 -9 128.19 24.1
25 -9 -11 143.99 17.5
-11 9 25 150.18 30.4
11 -9 25 112.59 39.7
-9 11 -25 148.09 25
9 25 -11 84.69 14.9
25 -11 9 179.68 21.8
11 25 9 150.28 24.9
9 -11 -25 190.88 37.5
-9 -11 25 82.69 36.8
-11 9 25 130.19 37.6
9 -25 11 198.18 32.3
25 9 11 194.88 30.6
9 11 25 167.58 30.1
-25 11 9 99.99 20.6
9 11 25 132.39 26.2
9 25 -11 117.09 23
-11 9 25 87.59 24.3
-11 25 -9 128.79 16.3
-11 -25 9 142.99 30.1
-9 25 11 127.29 22.3
9 -11 -25 159.48 23.5
25 -11 9 114.39 19.8
11 11 25 329.47 38.8
-11 11 25 218.28 26.5
-11 -25 11 176.18 32.1
-11 25 11 222.48 32.8
11 25 11 269.27 32.7
11 -25 11 198.28 29.6
11 -11 25 201.18 38.3
-11 25 -11 247.48 23
-25 11 11 243.78 30.1
25 -11 11 277.97 29.2
-11 11 -25 242.98 29.6
25 -11 11 271.27 27.1
-11 11 25 174.58 34.7
11 -11 -25 246.18 21.7
11 25 -11 296.77 23.8
-11 11 25 156.78 31.8
25 -11 -11 228.78 22.1
11 11 25 225.18 27.8
-11 -11 25 169.88 39.6
25 -1 13 6.1 16.7
13 -25 1 131.99 45.4
-1 -13 -25 14.1 33.1
-1 25 -13 17.2 12.4
-25 1 13 1.7 18.5
13 1 25 100.69 40.7
-13 -1 25 -3 36.8
1 25 13 38.5 22.5
13 25 -1 60.59 21.9
25 -1 13 3.9 18.3
-13 25 1 22.6 19.3
1 -13 25 64.09 48.8
13 25 -1 46.1 17.6
13 1 25 32.8 25.3
25 -13 -1 21.4 43.6
-1 -25 13 41.8 29.2
-25 13 -1 35.4 22.2
-1 13 25 11.5 23.7
13 -25 1 64.69 23.1
25 -13 -1 40 16.4
-1 13 25 51.49 24
25 1 -13 3.5 14
1 -13 25 -88.69 50.79
1 25 13 71.89 24.1
13 -1 -25 34.5 13.2
-13 1 25 -10.8 37.6
-25 13 1 60.89 21.2
1 13 25 19.8 22.5
13 1 -25 34.2 13.8
25 -13 1 -0.6 15
13 -1 25 42.2 25.6
1 25 -13 11.7 12.7
13 25 1 8.4 21.4
25 -13 1 15.6 44.1
-13 -25 1 47 31.5
13 -25 -1 34.8 22.3
13 -1 25 41.7 43.1
25 -1 -13 2.7 12.5
1 -25 13 20.6 31.2
-1 -13 25 21.9 44.2
1 13 25 33.5 23.2
-13 25 -1 45.3 19.8
-1 -13 25 55.79 51.89
13 -25 -1 129.29 63.19
25 1 13 15.6 19.5
1 -13 -25 58.99 33.9
-1 25 13 -30.3 22.4
25 1 13 51.89 18.6
-1 25 13 75.79 22.8
-13 1 25 45.1 31.5
13 -3 -25 51.59 14.9
-13 25 3 62.99 20.6
25 -13 -3 101.09 44.7
25 3 -13 55.99 17
25 -3 13 38.7 18.4
-25 3 13 65.89 20.2
-3 -25 13 79.09 29.8
13 25 -3 32.4 15.9
13 -25 3 186.18 50.79
-13 -3 25 42.2 40.2
-3 -13 -25 62.79 37
3 -13 25 -3.9 42
13 3 25 77.79 40.5
13 25 -3 83.59 22
3 25 13 43 19.8
25 -3 13 44.5 19.6
13 3 25 70.09 28.1
-3 25 -13 57.99 13.1
-3 13 25 71.89 25.5
25 -13 -3 60.09 14.9
13 -25 3 64.59 23.9
-25 13 -3 51.59 33.2
-3 13 25 44.2 22.6
25 -3 -13 37.5 12.8
13 25 3 67.29 23.6
3 25 -13 46.8 14.3
-13 -25 3 68.69 29.4
-13 3 25 62.79 31.3
-13 3 25 158.28 39.6
3 13 25 56.39 24.3
13 3 -25 32.7 14.5
3 13 25 32.6 21.6
13 -3 25 41.3 26.9
13 -25 -3 51.59 22.1
3 -13 -25 70.59 33.8
-25 13 3 47.9 20.5
3 -25 13 68.29 36.2
25 -13 3 169.38 48.6
13 -3 25 72.59 40.7
25 3 13 52.19 21.6
25 -13 3 63.59 17.1
-3 25 13 51.19 21.3
-3 -13 25 52.79 40.3
-13 25 -3 29.2 19.5
3 -25 13 113.49 38.5
-3 25 13 73.99 24.1
5 -13 25 191.68 44.9
-25 5 13 147.29 21.9
-13 25 5 143.19 21.2
25 -5 13 144.19 22.1
-5 13 25 142.59 32.9
-5 -13 -25 172.28 44.7
-5 13 25 137.89 27
-5 25 -13 190.78 21.8
13 -25 5 174.48 28.7
25 -13 -5 180.48 25
25 -5 13 205.68 28.9
5 25 13 242.68 32.7
-13 -5 25 223.98 43.8
13 5 25 133.79 26.9
-5 -25 13 149.79 29.1
13 25 -5 151.18 18.2
-5 13 25 143.99 26.3
13 -5 -25 175.58 23.1
13 25 -5 133.79 23.8
13 25 5 175.38 26.3
5 -13 -25 187.28 24
-13 25 -5 189.08 19.8
25 -13 5 120.49 19.2
-5 25 13 182.38 24.5
5 -13 -25 82.79 33.7
5 13 25 156.28 26.8
13 5 -25 199.78 23.3
-13 -25 5 207.88 34.5
25 -5 -13 113.19 15.4
-5 25 13 224.88 29.4
13 -5 25 127.59 42.1
-5 13 -25 200.28 26.2
-13 5 25 191.08 34.5
13 -25 -5 151.98 25.1
5 -25 13 225.08 37.3
5 -25 13 192.68 43.7
-13 5 25 173.08 39.5
25 -13 5 122.79 54.29
5 13 25 107.49 24.6
-25 13 5 135.29 21.8
-5 -13 25 211.58 41.5
-13 25 -5 174.48 24.7
25 5 13 157.98 26.2
13 -25 -5 124.19 41
13 -5 25 171.78 30.4
5 25 -13 220.38 23.3
13 -7 -25 30.4 12.2
25 -7 13 3.6 16.9
-13 25 7 36.4 18.5
-25 7 13 5.1 17
13 25 -7 67.89 21.6
-7 -25 13 12.8 24.8
7 -13 25 29.7 36.8
-7 25 -13 34 11.9
-13 -7 25 28.9 36.3
25 -13 -7 4.4 13.1
-7 13 25 62.19 22
-7 13 25 28.5 28.4
7 25 13 55.09 20.4
13 7 25 32.2 21.9
13 25 -7 40.9 13.2
-7 13 25 30.2 22.9
13 -25 7 38.9 23.2
25 -7 13 13.4 16
7 -13 -25 16.4 32.7
7 25 -13 45.4 13.4
7 13 25 41.1 22.1
25 -7 -13 17.9 11
13 -25 -7 65.39 20.8
13 25 7 8.6 19.7
-7 13 -25 17.9 14.9
13 -7 25 -31.4 36.9
-25 13 7 12.7 16.9
7 -13 -25 41.9 12.8
25 7 13 -14.4 23.2
-13 25 -7 20.8 14.1
25 -13 7 18 14.6
-13 7 25 -5.2 34.5
7 -25 13 4.7 27.9
25 -13 7 16.8 17.2
-13 7 25 -19.2 35.1
-13 25 -7 1.5 20.1
-13 -25 7 44.7 29.6
-7 25 13 -1.1 20.2
7 13 25 33.9 21.7
-7 -13 25 -3.2 36.5
-7 25 13 -3.5 31.7
13 25 -9 3.4 17.9
25 -9 13 17.4 14
13 25 -9 7.8 11.5
9 -13 25 24.9 32
13 9 25 3.3 29.9
-25 9 13 -5.3 15.4
13 -25 9 -9.9 20.4
-9 13 25 -6.3 28.4
-9 13 25 12.3 18.9
-9 25 -13 7.5 9.6
25 -9 13 36.1 16.4
25 -13 -9 32.4 12.2
-9 13 25 -23.6 23.4
-13 -9 25 44.8 36.8
13 9 25 5.1 18.9
13 -9 -25 2.2 10.1
9 25 13 -6.5 16.5
-13 25 9 24.5 17.2
-9 -25 13 -42.9 25.3
-25 13 9 13.5 14.1
25 -13 9 16.5 15.4
25 -9 -13 31 11.6
-9 13 -25 15.4 14.4
13 25 9 -16.1 19
9 -25 13 21.3 24.9
-13 25 -9 17 12.2
9 13 25 41.1 20
25 -13 9 7.8 14
9 25 -13 -12.9 10.7
-9 25 13 29.5 19.3
13 -9 25 7.8 33.8
13 -25 -9 15.7 17.5
25 9 13 20.3 26
-13 -25 9 38.5 29.2
-13 9 25 -8.9 34.8
-9 -13 25 -10.1 34.8
9 -13 -25 16.1 11.2
9 13 25 -24.9 20
-11 13 25 88.99 29.3
13 -11 -25 57.09 11.8
-13 25 11 35 17.5
11 -13 25 38.7 32.7
13 25 -11 70.09 12.5
-13 11 -25 48 16.3
13 -25 11 48.6 22.9
-11 -25 13 63.99 29.2
13 11 25 -1.6 27.8
-11 13 25 48.1 19.6
13 11 25 30.4 19.6
11 25 13 23.3 16.5
-11 25 -13 43.3 11.1
25 -11 13 27.8 16.4
25 -13 -11 31 11.1
-25 11 13 33.7 16
-13 -11 25 42.3 36.3
25 -13 11 38.1 14.2
25 -13 11 66.69 16.6
11 13 25 54.29 22
-11 13 -25 22.6 13.9
-13 25 -11 23.9 11.5
-25 13 11 49.4 15.5
13 -11 25 30.1 33.1
-13 -25 11 64.29 31.7
25 -11 -13 31.7 10.9
11 -13 -25 60.59 11.6
11 13 25 46.2 19.8
-11 25 13 16.3 17.3
13 25 11 24.3 18.8
-13 11 25 12.7 30.7
-11 -13 25 36.6 36.7
11 -25 13 25 23.1
11 25 -13 36.3 11.1
13 13 25 40.8 18.1
-13 -13 25 -80.69 35.6
-13 25 -13 18.8 10
13 -13 -25 25.7 10.2
-25 13 13 3.6 14.9
-13 13 -25 -8.7 12.9
25 -13 13 16.7 15.1
25 -13 13 7.2 13.2
25 -13 -13 16.5 10.8
-13 25 13 -2.9 15.9
-25 13 -13 6.1 9.1
13 25 -13 -2.6 9.8
-13 -25 13 85.89 34.4
13 25 13 19.3 17.6
13 -25 13 26.8 22.1
13 -13 25 -15.1 28.6
13 13 25 -15.5 25.3
15 25 -1 -25.5 18.5
-1 25 -15 7 10.9
-1 -25 15 -20.1 29.5
15 -25 1 34.7 21.4
25 -1 15 25.5 18.5
1 -15 25 -47.8 43.2
15 1 25 51.69 38.1
1 25 15 30.7 19.8
-25 15 -1 25.6 20.8
-1 15 25 7.1 20.1
25 -15 -1 10.4 13.8
1 15 -25 -0.7 14.8
-15 -1 25 36.8 40.5
15 -1 -25 15.4 11.8
15 25 -1 4 16
25 1 -15 14.7 12.6
1 -15 25 -65.59 55.19
-1 15 25 44.6 20.3
-15 25 1 37.7 19.3
15 1 25 11.7 21.8
-15 -1 25 2.4 33.8
-25 1 15 10.2 18
15 25 1 4.5 18.9
-25 -1 15 21.9 18.4
1 25 -15 5.6 11.2
15 1 -25 12.4 11.6
-25 15 1 26.5 18.6
1 -25 15 -15.7 35.2
1 -15 -25 9.5 14.7
25 -15 1 0.6 14.1
1 15 25 25.9 20.7
-1 -15 25 -38.5 50.89
15 -25 -1 53.49 20.3
1 15 25 30.9 22.1
-1 25 15 -5.1 19.6
-15 1 25 -23.8 37.9
-15 -25 1 -75.49 39.9
-1 -15 25 -22.4 45
-1 15 -25 31.7 15
25 1 15 9 20.4
25 -1 -15 23.5 12
-15 25 -1 19.2 18.9
15 -1 25 56.49 37.2
15 -1 25 12.4 23.2
15 25 -3 258.47 26.7
25 -3 15 226.48 31.8
15 3 25 228.78 29.2
15 -3 -25 234.38 23.3
25 3 -15 221.18 28.7
-3 25 -15 284.37 22.7
-15 25 3 262.17 30.4
25 -3 15 290.27 28.6
15 -25 3 207.28 26.7
3 15 -25 236.88 27.6
-25 3 15 281.27 33.1
-25 15 -3 272.37 28.3
-3 15 25 282.97 36.3
25 -15 -3 264.07 26.6
3 25 15 261.67 32.9
-3 15 25 303.17 39
-3 -25 15 215.28 33.7
15 25 -3 303.07 32.1
-15 -3 25 251.17 43.8
3 -15 25 213.78 44.3
3 15 25 278.57 37.4
-15 3 25 178.68 42.1
-15 -25 3 215.78 40.9
-3 -15 25 318.67 46.6
15 -3 25 234.38 28.8
15 3 -25 209.18 22.8
25 -15 3 218.28 27.5
-3 15 -25 238.38 27.2
25 -3 -15 269.97 22.1
15 -25 -3 286.07 37
25 3 15 254.37 35.1
-15 25 -3 228.88 33.2
3 25 -15 252.27 22.9
3 -25 15 337.57 45.7
15 25 3 247.18 26.7
-3 25 15 271.77 33.2
3 -15 -25 231.98 24.8
15 -3 25 242.08 43.3
3 15 25 269.17 34.7
3 -25 15 234.38 45.3
-25 15 3 255.77 34
5 -15 25 483.75 63.69
15 -5 -25 518.45 27.9
-25 5 15 482.65 36.6
15 25 -5 477.75 39.3
15 5 25 456.15 42.1
25 -15 -5 493.25 29.7
25 -5 15 515.15 35.9
-15 -5 25 446.56 64.69
-15 25 5 492.35 34.7
15 -25 5 497.75 38.9
15 25 -5 536.95 30.1
-5 15 25 513.95 40.9
-5 15 25 596.54 41.3
25 -5 15 506.35 32.3
-5 25 -15 515.95 27.2
-5 -25 15 403.76 49.1
5 15 -25 462.25 33.4
5 25 15 427.86 34.1
-15 25 -5 477.25 38.9
25 -15 5 464.15 32.3
5 -15 -25 542.65 28.9
-15 5 25 384.36 61.49
5 -25 15 437.86 60.59
-15 -25 5 408.46 51.39
-5 15 -25 534.35 30.9
25 -5 -15 516.25 27.3
15 -5 25 464.95 61.39
15 -25 -5 474.25 36.9
5 15 25 483.15 36.9
5 25 -15 514.45 28.1
5 15 25 529.05 43.3
15 5 -25 472.15 29.4
15 25 5 482.95 40.3
25 5 15 517.05 43.2
-5 -15 25 567.94 59.59
-15 25 -5 453.35 33.3
-5 25 15 499.15 43.4
15 -5 25 475.55 47.9
-25 15 5 454.25 36.1
15 -7 -25 225.18 20.4
15 7 25 170.08 25.3
25 -15 -7 238.98 23.6
15 -25 7 253.67 36.6
-7 15 25 206.98 26.6
-7 25 -15 244.58 19.9
7 15 -25 255.97 29.4
-7 15 25 180.88 22.7
7 -15 25 247.08 38.7
-15 25 7 241.18 28
-7 -25 15 169.18 33.2
25 -7 15 193.88 29.7
-25 7 15 235.48 30.8
25 -7 15 266.07 26.6
15 25 -7 241.58 31.7
7 25 15 225.28 29.1
-15 -7 25 219.48 46.6
15 25 -7 246.88 23.4
-7 -15 25 223.98 40.3
-15 -25 7 217.88 39.3
15 -7 25 260.17 31
25 7 15 268.17 37
-15 25 -7 217.78 25.5
7 15 25 152.28 23
-7 25 15 253.27 33.2
-7 15 -25 268.77 24.1
25 -7 -15 223.48 20.2
25 -15 7 180.18 26.5
15 -25 -7 204.38 23.1
-7 25 15 195.78 25.3
25 -15 7 218.58 27
15 -7 25 147.29 38
7 25 -15 236.98 21.5
7 15 25 217.18 25.8
15 25 7 228.38 26.3
-25 15 7 186.68 28.8
7 -25 15 218.58 36.1
7 -15 -25 193.58 21.3
-15 25 -7 203.78 24.7
-15 7 25 262.47 42.6
-15 25 9 16.5 16.2
-9 15 25 29.7 17.6
25 -15 -9 10.7 11.7
-9 15 25 51.79 24.2
-9 -25 15 -17.9 28
-9 25 -15 20.2 10.2
15 25 -9 9 10.5
15 -9 -25 10.3 10.4
-25 9 15 12.9 15.4
25 -9 15 20.7 15
9 15 -25 11.1 19
9 -15 25 46.5 31.9
-25 15 -9 22.2 10.7
-15 -9 25 94.99 40.9
15 9 25 38.9 19.1
15 -25 9 21.9 21.1
9 25 15 26.4 16.4
-15 9 25 23.2 35.2
-9 25 15 22.1 22.1
-9 15 -25 22.9 12.6
-25 15 9 37.3 16.2
9 25 -15 12.7 10
25 -9 -15 22 10
25 9 15 -17.8 23.4
15 -25 -9 35.9 17.9
25 -15 9 52.09 16.4
-9 -15 25 37.4 37.1
-15 -25 9 -7.8 37.4
-15 25 -9 16.9 12.3
9 -15 -25 20.7 11.3
9 15 25 52.39 19.3
9 -25 15 28.3 28.3
9 15 25 4.8 18.2
15 25 9 20.7 19.5
25 -15 9 12.8 14.5
15 -9 25 62.39 34.4
-15 25 11 -28.8 14.8
15 25 -11 0.2 9.6
15 -25 11 15.1 20.3
15 11 25 5.6 17.9
25 -11 15 5 15.2
-11 25 -15 12.4 9
-15 11 -25 -5.1 17
-15 -11 25 13.4 37.9
-11 -25 15 4.6 29.7
-25 11 15 26.5 15
25 -15 -11 -12.1 10.5
11 -15 25 4.8 29.3
-25 15 -11 14.1 9.8
15 -11 -25 17.3 9.6
11 25 15 1.5 15.4
15 -11 25 65.09 31.5
-11 25 15 5.5 19.2
11 15 25 0.7 17.2
25 -11 -15 -7.1 9.1
11 -15 -25 -2.5 10.1
-15 25 -11 -17.9 10.4
11 25 -15 -2.2 9.2
25 -15 11 -0.2 14.2
15 -25 -11 -1.7 16.4
-25 15 11 22.7 14.8
-25 11 -15 0.8 8.9
11 15 25 8.7 20.3
15 25 11 38.3 20
-15 -25 11 72.59 41.4
-11 -15 25 -0.6 33.4
11 -25 15 13.5 25.3
-11 15 -25 2 11.8
25 -13 15 89.39 19
-13 -25 15 120.19 36.5
13 -15 25 2.1 28.7
15 25 -13 12.1 9.2
-25 15 -13 57.49 10.4
-13 25 -15 36.5 9.6
-15 13 -25 42 14
25 -15 -13 19.9 10.7
-25 13 15 38.3 15.5
-15 25 13 38.2 16.2
15 -13 -25 48.5 10.1
-15 -13 25 98.69 41.2
15 13 25 39.4 17.7
15 -25 13 5.9 22.7
13 25 15 53.69 18.7
13 -25 15 34.3 24.7
-13 25 15 57.49 19.7
25 -13 -15 41.7 10.9
25 -15 13 39.5 18
13 15 25 30.3 17.9
15 25 13 25.2 19.8
-15 25 -13 23.3 10.3
-15 -25 13 126.79 42.6
13 -15 -25 50.59 10.6
-25 15 13 53.09 16.3
-25 13 -15 29.2 9.5
15 -13 25 51.79 28.2
-13 -15 25 -55.19 37.5
15 -25 -13 51.39 16.1
13 25 -15 42.1 10.1
-13 15 -25 69.99 12.4
13 15 25 32.2 26.7
15 -15 -25 225.48 16.7
15 25 -15 199.68 16.3
-25 15 15 142.69 19.3
-15 25 15 185.08 23.9
-15 -15 25 224.38 47.9
15 -15 25 151.98 31.3
25 -15 15 176.28 24.4
15 25 15 173.38 25
25 -15 -15 154.38 17.5
-25 15 -15 209.08 17.3
15 -25 -15 184.68 25
15 15 25 194.28 29.4
-15 25 -15 213.58 17.5
15 -25 15 120.29 25.9
-15 15 -25 197.88 20.1
-17 -1 25 42.2 42.1
17 25 -1 27.1 20.7
1 17 -25 22.6 13
-1 -25 17 64.19 38
-17 25 1 21.3 16.4
-25 1 17 31.2 18.2
-25 17 -1 28.7 16.1
25 1 -17 31.8 13
1 -17 25 47.4 47.5
1 25 17 4.1 17
25 -1 17 25.7 16.5
-1 17 25 66.79 19.9
17 1 25 32.7 19.7
-1 17 25 25 17.6
-25 17 -1 29.3 19.6
25 -17 -1 -6.6 13.9
-1 25 -17 19.8 10.6
17 -1 -25 -0.3 10.6
17 -25 1 -11.5 18.6
25 1 17 8 16.4
-17 1 25 -11.7 41.9
1 25 -17 25.1 10.4
1 17 25 56.29 17.2
-1 -17 25 34 50.09
25 -1 -17 11.6 11.1
17 -1 25 25.6 20.2
-1 25 17 34.8 18.5
17 25 1 6.9 19.7
1 17 25 14.1 18
-25 17 1 11.2 18.1
17 -25 -1 14.9 19.2
25 -17 1 29.2 15.2
1 -25 17 -48.8 42.3
-25 -1 17 7.3 17.5
-1 17 -25 41.3 12.9
-17 25 -1 33.2 17.9
17 1 -25 6 11.2
17 -1 25 63.89 39.6
-3 -25 17 233.38 38
-25 17 -3 224.78 25.4
3 17 -25 222.28 24.9
25 -3 17 303.57 31
-3 17 25 203.58 31.3
3 -17 25 229.38 46
17 25 -3 250.17 32.4
-17 25 3 247.98 28
17 -3 -25 248.28 21.2
-3 25 -17 249.68 20.9
-25 3 17 219.28 29.6
-25 17 -3 302.67 39.8
-3 17 25 190.58 24.2
3 25 17 201.98 28.6
25 -17 -3 199.78 24.5
-17 -3 25 249.88 49.99
17 25 -3 215.58 23.7
17 3 25 253.07 35.7
17 -25 3 233.38 32.4
3 -25 17 249.58 49.3
3 17 25 222.38 34.4
17 3 -25 191.38 21.5
25 -3 -17 258.87 20.9
3 17 25 280.67 31
-3 -17 25 273.17 47.4
17 -3 25 181.08 41.8
25 -17 3 232.88 26.3
17 -3 25 224.78 27.1
-17 25 -3 227.58 31.3
-25 17 3 256.77 30.7
-25 -3 17 220.08 29.6
-17 3 25 269.07 47.6
-3 17 -25 270.47 24.6
3 -25 17 146.49 55.59
-3 25 17 258.37 32.7
3 25 -17 251.67 20.4
25 3 17 316.87 35
17 25 3 234.78 32.6
17 -25 -3 239.18 31.8
-25 5 17 405.46 34.7
-5 25 -17 460.65 24.7
-5 -25 17 379.96 50.19
25 -17 -5 433.76 27.9
-5 17 25 363.56 35.3
17 -25 5 460.25 38.4
17 5 25 420.86 36.9
25 -5 17 421.16 33.6
17 -5 -25 436.36 24.9
5 -17 25 461.65 61.59
17 25 -5 384.56 26.2
-25 17 -5 453.15 27.5
-17 25 5 434.36 31.1
5 17 -25 455.65 31.4
-5 17 25 399.96 34.4
-17 -5 25 499.85 63.29
5 25 17 444.46 30.4
-17 25 -5 406.86 35.5
25 5 17 495.65 37.6
-25 -5 17 493.45 34.7
-5 25 17 432.16 37.9
17 25 5 407.36 37.7
-25 17 5 448.36 33.4
5 -25 17 534.55 60.19
17 -25 -5 452.15 34.3
25 -17 5 431.86 30.4
17 -5 25 434.66 38.6
25 -17 5 439.46 29.7
25 -5 -17 469.35 24.8
5 17 25 413.26 34.3
-17 5 25 550.14 61.29
17 -5 25 398.16 47.3
-5 -17 25 418.56 60.39
5 25 -17 418.96 24.5
-5 17 -25 411.56 27.5
5 17 25 428.86 36.8
25 -7 17 199.58 21.7
-7 25 -17 172.28 17.5
25 -17 -7 171.68 23.4
7 17 -25 196.28 24.8
-25 7 17 173.88 20.7
-25 17 -7 193.28 20.6
-7 -25 17 120.89 34.8
7 -17 25 152.98 36.2
7 25 17 157.18 20.4
-7 17 25 214.48 28.5
-17 25 7 237.28 25.6
-17 -7 25 185.78 47.9
17 -25 7 175.88 24.5
17 25 -7 180.68 20.1
17 -7 -25 205.08 18.9
-7 17 25 160.78 23.5
7 25 -17 186.38 19.3
-17 7 25 159.98 42.4
-7 -17 25 276.87 44
25 -17 7 191.38 28.2
25 -7 -17 174.98 17.7
25 -17 7 226.58 26.6
-7 25 17 170.38 38.1
17 -25 -7 183.48 23
-17 25 -7 159.88 17.1
17 -7 25 183.68 26.4
-7 17 -25 201.38 21.2
-25 7 -17 193.38 18.4
7 -25 17 225.18 35.8
-25 -7 17 255.97 29.5
17 25 7 169.18 24.7
17 -7 25 202.48 37.7
7 -17 -25 194.58 26.4
7 17 25 202.08 29.2
-25 17 7 241.28 27.5
25 7 17 202.88 24.1
7 17 25 227.88 27.7
25 -9 17 -10.5 15.2
9 17 -25 -25 14.9
9 25 17 -3.6 15
-17 25 9 18.7 14.8
25 -17 -9 22.3 12.9
-9 17 25 -24.7 25.9
-9 -25 17 46.1 32.3
17 -25 9 19.9 19.4
-17 -9 25 -46.7 45
-25 9 17 0.6 16.2
-9 17 25 33.6 15
17 9 25 38.9 18.2
-9 25 -17 11.7 8.6
-25 17 -9 18.3 10.7
9 -17 25 58.19 30.7
17 25 -9 18.1 10
17 -9 -25 18.7 9.6
25 9 17 -5.5 22.6
17 -25 -9 15.2 18.5
17 25 9 24 22.2
-17 25 -9 -4.3 11.6
-17 9 25 7.1 40.7
-9 17 -25 27.5 11.6
9 -17 -25 45.6 17.3
-25 17 9 -9.2 14
25 -17 9 48.1 16.9
25 -9 -17 22.9 9.2
-9 -17 25 99.19 38.3
25 -17 9 7.8 15.6
-25 9 -17 14.2 9.7
9 17 25 -17 16
9 17 25 -7.1 17
9 -25 17 57.69 28.7
17 -9 25 -5 30.8
9 25 -17 33.3 10.3
-25 17 -11 13.2 9.1
17 11 25 -3.5 17
25 -17 -11 -5.3 11.4
17 -11 -25 -6.1 7.9
17 25 -11 4.4 9.3
11 -17 25 -14.1 28.7
11 25 17 10.5 15.3
25 -11 17 25.4 17
-11 -25 17 27.9 34.6
17 -25 11 -5.2 20.3
-17 -11 25 70.29 50.59
-11 25 -17 3.3 8.9
-25 11 17 -19.7 17.1
-17 25 11 12 14.6
25 -17 11 47.3 18
-11 17 -25 3.2 10.7
11 25 -17 1 8.7
-25 11 -17 22.4 9.9
-17 25 -11 20.2 10.4
11 -17 -25 -6.4 12.3
-11 -17 25 -14.1 38.1
11 17 25 21.8 17.3
17 -25 -11 10.8 18.4
11 17 25 -17.6 19.9
17 -11 25 17.3 32
11 -25 17 8.4 27.1
-25 17 11 -3.6 14.7
-13 25 -17 70.19 10.2
17 25 -13 57.29 9.8
-13 -25 17 76.39 63.39
-25 13 17 47.7 22.6
-25 17 -13 54.29 9.8
17 13 25 45.3 14.9
13 -17 25 71.49 28.5
-17 25 13 45.4 12.2
13 25 17 28.2 19.1
17 -13 -25 62.59 9.7
25 -13 17 74.69 20.5
13 -25 -17 70.49 15.2
25 -17 -13 63.19 12.5
17 -25 13 2.6 22
13 -25 17 20.4 24.7
13 17 25 60.89 19.8
-25 13 -17 67.49 10.3
13 25 -17 77.09 10.3
17 -25 -13 53.69 19.4
25 -17 13 98.79 29.9
25 -13 -17 45.2 9.9
-13 -17 25 49.7 41.2
-25 17 13 57.09 16.5
17 -13 25 48.6 28.5
-17 25 -13 51.89 10.4
-13 17 -25 51.39 12.9
-1 -25 19 -48 43.2
-1 19 25 5.3 15.8
25 -1 19 16.2 15.6
-19 -1 25 -85.29 55.59
19 -1 -25 -1.9 10.1
-25 19 -1 -3.1 19.1
-25 1 19 10.6 20.2
1 19 -25 -0.4 11.4
25 1 -19 -9.4 13.4
19 -25 1 17.3 19.7
-1 19 25 30.3 17
-19 25 1 -14.1 15.3
19 1 25 27.4 17.9
1 25 19 -10.4 14.9
-1 25 -19 -3.9 9.7
25 -19 -1 21.1 16.2
25 1 19 28.2 16.9
19 -25 -1 -21.6 18.4
-25 19 1 30.8 18.1
-1 -19 25 -77.79 62.39
1 25 -19 6.5 9.3
-1 25 19 -3.9 16.1
1 19 25 20.7 16.7
-19 1 25 83.99 53.79
19 1 -25 19.8 11.8
1 -25 19 60.69 56.79
-25 1 -19 43.5 25
25 -19 1 12.4 17.5
19 -1 25 -12.2 17.3
25 -1 -19 23.2 10.9
-25 -1 19 -4.2 19.6
1 19 25 41.6 16.1
-19 25 -1 17 16.9
-1 19 -25 22.5 11.3
19 -25 3 55.29 20.4
25 -19 -3 50.59 16
3 25 19 23.3 14.9
-19 -3 25 -28.9 53.99
19 3 25 36 17.5
-3 25 -19 37.7 10.3
-3 -25 19 -49.7 36.8
25 -3 19 25.4 16
3 -19 25 -15 44.5
-3 19 25 40.3 18.8
3 19 -25 19.5 13
-25 3 19 62.29 21.1
-19 25 3 16 15
-3 19 25 48.5 16.2
19 -3 -25 68.79 11
-25 19 3 48.6 17.6
25 -3 -19 42.5 10.4
-3 -19 25 39.2 47.5
-19 25 -3 65.29 18.5
3 19 25 43.6 17
19 -25 -3 4.7 19.9
25 3 19 54.19 18
-19 3 25 -23.2 52.79
-25 3 -19 53.29 12.9
-25 -3 19 21.3 20.1
3 25 -19 48.5 10.8
3 19 25 16.6 16.9
19 3 -25 54.59 14.4
25 -19 3 57.49 18.1
19 -3 25 34.8 18.7
-3 19 -25 29.9 11.7
-3 25 19 42.6 18.6
-25 5 19 114.89 21.7
19 -25 5 90.29 22.5
-19 -5 25 37.1 55.09
5 -19 25 168.48 41.2
25 -5 19 92.29 17.7
19 5 25 119.89 18.2
-5 19 25 130.39 20.9
-19 25 5 123.39 16.9
5 25 19 111.29 16.7
19 -5 -25 113.19 13.1
25 -19 -5 129.59 16.6
-5 -25 19 151.58 37.4
-5 25 -19 113.89 16.1
-5 19 25 108.69 17.8
5 19 -25 114.69 15.2
-25 19 -5 117.59 14.6
5 19 25 111.79 18.7
19 -5 25 161.08 44.3
-5 -19 25 112.39 43.7
19 -25 -5 96.19 20.4
-5 19 -25 115.69 13.7
-25 5 -19 94.79 12.9
5 19 25 99.09 20.1
-25 -5 19 123.59 21.5
5 -25 19 192.78 44.5
19 -5 25 105.19 20.9
25 -5 -19 130.69 15.6
-5 25 19 110.49 20.5
5 25 -19 74.19 11.6
25 5 19 95.49 19.2
-25 19 5 122.19 18.6
-19 5 25 103.29 53.19
-19 25 -5 141.69 24.5
25 -19 5 122.09 19.3
25 -19 5 111.69 17.1
7 25 19 11.4 13.9
-25 7 19 71.29 21.5
19 -25 7 33.1 20.2
7 19 -25 16.6 13.4
-25 19 -7 2.4 12
7 -19 25 106.79 35.9
-19 25 7 47.6 14.5
-7 25 -19 24.5 9.1
25 -7 19 3 15
-7 19 25 8.7 12.9
25 -19 -7 22.8 14.6
19 7 25 26.7 14.7
-7 19 25 43 21.9
19 -7 -25 16.7 8.7
-7 -25 19 -21.7 35.2
25 -19 7 -25.1 19.6
-7 19 -25 11.9 11.4
25 -19 7 15 15
19 -7 25 45.5 22.5
7 19 25 20.3 15.5
-25 -7 19 11.6 21.3
25 -7 -19 33 9.6
19 -25 -7 44.4 19
25 7 19 26.8 19.6
7 -25 19 38 37.2
-25 19 7 16.3 14.9
-7 -19 25 1.5 40
-25 7 -19 16.4 10.8
7 19 25 24.7 16.9
19 -7 25 24.3 40
7 25 -19 28.6 8.7
9 19 -25 -16.6 22.1
-9 25 -19 1.1 8.5
19 25 -9 15 8.8
19 -9 -25 3.9 7.7
-19 25 9 -3.1 13.5
9 25 19 3.6 14.5
19 -25 9 25.6 22
-9 -25 19 -33.3 34.8
25 -9 19 7.8 16.1
9 -19 25 31 31.7
-25 19 -9 11.8 10.5
25 -19 -9 -12.5 15
19 9 25 21.3 16.6
-25 9 19 34.7 30.7
25 -19 9 43.1 21
-25 19 9 -4.1 14.1
-25 -9 19 19.7 24.9
9 25 -19 -9.7 8.6
9 19 25 12.7 16.5
-9 19 -25 26.1 11.3
25 9 19 0.5 20.8
19 -25 -9 17.7 19.4
9 19 25 -8.2 18.3
19 -9 25 -90.29 38.6
25 -9 -19 1.1 9.1
-19 25 -9 43.2 14.9
9 -25 19 18.1 30.1
-9 -19 25 -1.2 41.1
-25 9 -19 1.5 9.5
19 -25 11 -6 23.2
-19 25 11 20.5 13.4
-11 25 -19 33.8 9.3
19 11 25 16.4 17.1
11 25 19 40 15.5
19 -11 -25 36.5 8.7
11 -19 25 7.8 29.2
25 -11 19 15.8 18.6
-25 19 -11 11.4 9.5
11 -25 19 -12.7 29.3
19 -11 25 -12 52.89
-25 11 -19 37.8 9.7
-11 19 -25 22.6 15.1
11 19 25 -25.4 30.8
19 -25 -11 55.89 21.3
11 25 -19 35.9 9
25 -11 -19 29.1 9.3
-25 19 11 18.7 14.2
-1 21 25 95.59 16.4
1 25 21 121.49 17.7
-1 21 25 111.39 17.7
-1 25 -21 132.09 15.7
21 -25 1 107.79 23.7
21 1 25 101.09 18.7
25 -1 21 130.89 18.7
1 21 -25 145.19 18.7
-25 21 -1 80.59 22.2
21 -1 -25 129.59 18.1
-21 25 1 109.29 16.8
1 21 25 114.19 17
-1 21 -25 100.19 12.6
21 -1 25 88.69 17.8
25 1 21 123.69 17.9
1 25 -21 119.19 16.6
-1 25 21 84.69 15.7
21 -25 -1 103.39 24.2
-25 21 1 104.99 18.9
25 -1 -21 129.29 14.4
21 1 -25 95.39 22
25 -21 1 73.79 15.5
1 21 25 121.99 17.1
-21 25 -1 116.09 17.8
25 -3 21 1.4 14.5
-3 25 -21 16.4 8.7
-3 21 25 22.2 13.6
3 21 -25 30.1 11.4
-21 25 3 34.4 14.3
21 -25 3 -2.5 22.4
21 3 25 -4.2 14.8
3 25 21 5.2 13.9
-3 21 25 -2.1 16.9
21 -3 -25 9.3 9.8
25 -3 -21 20 10.5
3 25 -21 13.5 9.3
3 21 25 25.4 14.6
21 -3 25 6.7 16.8
-25 21 3 12.8 16.6
3 21 25 19.7 15.6
-3 21 -25 19.4 10.6
25 -21 3 31.9 17.3
25 3 21 54.09 16.1
21 -25 -3 3.1 23.5
-3 25 21 45.1 18.5
21 -25 5 14.7 22.6
-5 21 25 7.5 20.6
25 -5 21 13.7 14.7
-21 25 5 4.4 13.2
21 -5 -25 -2.5 8.7
-5 25 -21 37.2 9
5 25 21 -8.9 12.2
21 5 25 14.7 13.1
25 -5 -21 23.8 10.1
-5 21 -25 13.6 10.2
-25 21 5 -5.8 13.9
21 -5 25 10.7 19.7
21 -25 -5 35 24.4
25 5 21 -6.2 16.2
5 21 25 23.5 14.4
25 -21 5 5.7 31.3
5 25 -21 7.6 8.7
5 21 25 6.1 16.5
21 -7 -25 3.9 8.1
21 -25 7 -17.1 26.8
21 7 25 12.9 15.2
7 -21 25 16.6 55.99
-21 25 7 -10.4 12.6
7 25 21 5.2 13.6
-7 25 -21 -6.9 8.1
25 -7 21 -24.4 15.4
7 25 -21 9 8.8
-25 21 7 5.1 13
-7 21 -25 7.7 10.2
25 7 21 18.4 17.8
7 21 25 -19.1 13.7
25 -7 -21 9.7 9.2
0 0 26 478.35 54.79
0 -26 0 498.15 60.29
0 0 -26 418.46 48.3
0 0 26 502.25 70.59
26 0 0 446.86 36.9
0 26 0 460.15 47.6
0 26 0 454.15 38.5
0 0 26 513.35 78.69
0 -2 26 44.6 48.2
0 26 -2 46.7 27.2
0 26 2 43.5 25.7
-2 0 26 32.9 40.3
2 0 26 -22.2 40.8
26 -2 0 72.09 19.3
-2 0 -26 74.39 28.5
-2 0 26 82.79 46.5
0 -26 -2 39.2 29.3
0 2 26 84.09 46.1
26 0 -2 43.8 17.1
26 0 2 48.7 19
-2 26 0 86.89 29.4
0 2 26 32 26.4
2 26 0 83.69 24.7
0 -2 26 125.09 47.3
0 2 26 49 30.1
26 0 2 26 22.6
2 0 26 125.99 35.8
-26 2 0 54.29 24.4
0 26 -2 33.1 18.6
0 26 2 54.09 19.1
-2 0 26 28.8 43.7
-2 -26 0 22.5 57.39
0 -2 26 -4.1 42.8
0 2 26 92.19 41.9
2 -26 0 62.59 27.2
-2 26 0 57.79 20.7
0 -26 2 48 33.6
2 0 26 94.19 53.19
26 2 0 44.8 26.3
26 2 0 32.5 19.9
-26 0 -2 49.3 27.3
2 26 0 73.89 21.1
2 -2 26 -18 49.6
2 2 26 20.4 25
-26 2 -2 50.49 27.2
26 2 2 16 19.6
2 26 2 12.8 19.8
-2 26 2 61.39 27.2
-2 -2 26 65.29 47.3
26 -2 -2 5.4 15.1
-2 26 -2 39.6 26.8
2 -26 -2 39.2 26.9
2 -26 2 14.2 27.4
2 26 -2 53.89 20.3
2 26 2 12.2 25.7
-2 -26 -2 29.6 35.3
2 -2 26 96.39 52.99
-2 -2 26 -83.59 44.2
26 -2 2 21.6 16.9
26 2 -2 2.4 19
-2 26 -2 25.5 18.9
-2 26 2 9.9 19.4
2 -2 26 -25 40.5
2 2 26 29.5 52.59
26 2 2 -32.9 23.1
-26 2 2 29.8 24.6
-2 2 26 80.59 43.6
2 2 26 8.8 39.2
2 2 26 17.3 29.8
2 26 -2 73.49 26.7
-2 2 26 53.19 34
0 26 -4 72.59 22.1
-4 0 26 130.69 43.9
-26 4 0 69.79 25.2
0 4 26 64.09 46.9
0 -4 26 108.19 50.09
26 0 -4 41.9 16.8
0 26 -4 66.59 18.9
26 -4 0 74.79 18.8
4 0 26 81.09 46.1
-4 26 0 61.39 22
4 0 26 58.59 32
26 0 4 34.5 18.8
4 26 0 87.89 22.4
4 0 26 59.79 29.8
0 -4 26 23.1 47.8
0 26 4 53.29 20.2
-26 0 -4 79.89 31.6
4 -26 0 74.19 25.1
0 -26 -4 95.99 30.3
0 26 -4 91.49 25.8
0 -26 4 7.1 37.9
0 4 26 49.8 26.1
4 26 0 57.59 25.2
0 4 26 21.3 28.9
26 0 4 40.7 21
26 4 0 69.19 24.3
-4 0 26 166.58 61.79
0 26 4 72.29 26.1
-4 26 0 82.29 31.7
-4 -2 26 306.37 55.09
-4 -2 26 218.38 48.1
26 4 2 263.27 30
-2 26 -4 336.37 35.8
4 26 -2 262.87 32.1
2 -4 26 315.17 54.79
2 26 4 226.48 30.5
-26 4 -2 219.08 32.1
26 4 2 163.08 42.1
-2 4 26 170.88 47.3
2 -4 26 269.07 54.39
26 -2 4 246.98 35.6
-26 2 4 249.68 30.1
26 -4 -2 244.28 28.3
4 2 26 277.17 51.29
-4 26 2 216.98 35.2
-26 -2 -4 282.87 36.7
-2 26 -4 238.08 24.3
4 -26 2 235.98 31
26 -2 4 260.97 32.8
-2 4 26 418.46 59.69
26 2 -4 255.67 32.5
-2 4 26 245.68 33.1
-2 26 -4 268.17 32.3
2 26 4 246.28 35.9
4 2 26 246.88 37.8
-4 26 2 236.68 35.9
4 26 -2 286.87 34.1
4 2 26 226.18 33.7
-2 -26 -4 207.18 36.4
4 26 2 164.68 28.5
26 -2 -4 210.28 28.3
-2 26 4 238.78 28.6
-2 -4 26 222.48 47.7
26 -4 2 241.88 31.2
4 26 2 232.98 35.5
4 -26 -2 241.38 30
2 26 -4 245.88 31.6
4 -2 26 276.47 42.6
2 4 26 333.07 53.19
-2 26 4 353.36 47.5
-26 4 2 267.57 32
26 2 4 271.87 30.8
2 4 26 222.08 33.7
2 26 -4 212.18 28.6
-4 2 26 259.37 39.2
2 26 -4 238.68 36.6
2 -26 4 273.07 37.3
-4 26 -2 295.47 36.9
26 4 -2 191.68 27.2
-26 2 -4 247.78 36.2
-4 2 26 223.08 47.9
-2 -4 26 242.38 54.19
2 4 26 231.18 33.4
-4 26 -2 235.08 33.6
26 2 4 178.78 25.3
4 -2 26 220.98 50.79
26 -4 4 604.34 38.8
-4 26 -4 609.64 53.19
4 4 26 583.14 57.79
-4 4 26 604.34 53.79
4 -26 4 612.14 54.69
4 26 -4 536.05 37.2
-26 4 4 552.24 45.7
-4 26 -4 572.24 42.3
4 -4 26 693.03 89.29
-4 -4 26 467.65 65.29
4 4 26 568.84 50.59
26 4 4 579.94 52.09
4 26 4 629.04 48.6
26 -4 -4 554.44 35.4
-4 26 4 552.34 43.9
4 26 -4 605.54 46.1
-4 -4 26 424.96 60.09
-26 4 -4 575.04 55.69
4 -4 26 553.64 77.89
26 4 -4 570.74 44.9
-4 26 -4 583.34 39.2
-4 4 26 646.14 70.09
26 4 4 605.14 46.4
4 26 -4 608.34 41.4
4 26 4 605.44 42.4
-4 26 4 470.85 53.79
-4 4 26 388.56 57.09
-26 6 0 66.29 24.9
0 26 6 24.1 19.1
6 0 26 83.69 29.7
0 6 26 85.19 41.7
26 -6 0 60.19 17.2
0 -26 6 103.99 42.9
6 0 26 29.6 27.1
26 0 6 15.7 17.7
0 -6 26 99.09 47.3
0 26 -6 31.5 24.4
-6 26 0 5.8 34.1
0 26 -6 22.8 16.1
6 -26 0 61.89 23.9
6 0 26 107.29 47.4
0 6 26 2.8 24.2
6 0 -26 98.99 40.6
26 0 -6 36.7 16.1
6 26 0 41.6 23.7
0 26 -6 39.5 20
0 6 26 62.49 28.6
26 0 6 44.8 21.2
-6 26 0 25.6 20.2
0 -6 26 7.8 44.9
-6 0 26 32.1 39.4
6 26 0 58.79 20.1
0 26 6 36.8 25
26 -2 6 187.28 24.1
-6 26 2 249.88 29.4
-2 26 -6 197.18 29.5
-2 6 26 234.48 34.6
6 2 26 248.18 46.6
-6 26 2 254.17 40
-26 2 6 189.48 26.6
-2 26 -6 257.87 29.4
2 26 6 221.98 29.8
6 -2 -26 231.58 39.9
-2 26 -6 190.48 24.2
26 -2 6 152.38 21.7
26 2 -6 237.98 23.7
6 26 -2 197.38 24
2 -6 26 179.88 58.29
2 -6 26 185.08 46.3
6 26 -2 217.68 24.8
6 -26 2 192.08 28.8
26 -6 -2 176.38 26.5
6 2 26 194.68 32.4
-6 -2 26 213.48 44.8
-26 6 -2 198.38 29.6
6 2 26 161.98 30
-2 6 26 169.98 29
2 26 6 168.28 23.8
-2 6 26 206.18 43.7
6 26 -2 237.88 31.5
6 26 2 174.48 27.1
6 -2 26 247.18 35.8
-6 26 -2 247.08 40.1
-2 -6 26 180.18 44.5
6 26 2 167.68 22.2
-2 -6 26 185.48 53.39
2 26 -6 235.18 28.1
6 -2 26 207.08 49.5
-6 2 26 225.48 40.9
-2 26 6 168.98 24.2
-6 26 -2 151.98 23.6
6 -26 -2 186.48 28.1
2 6 26 250.07 34.4
-26 6 2 187.58 27.1
26 2 6 171.68 25
2 26 -6 182.08 24.4
2 26 -6 164.18 27.1
2 6 26 169.68 31.8
26 -2 -6 147.69 18.9
-6 2 26 120.99 42.8
2 6 26 241.28 49.99
26 2 6 201.08 25.2
26 -6 2 238.48 30
2 -26 6 249.08 37.4
6 -2 26 217.38 36.1
-4 6 26 595.84 67.09
6 26 -4 631.44 39.7
4 26 6 681.03 47.7
-4 26 -6 599.04 42.9
6 -4 -26 581.74 64.89
-4 26 -6 592.64 35.3
6 -26 4 643.84 52.39
4 -6 26 662.33 83.39
4 26 6 559.54 38.9
-26 6 -4 558.24 58.39
-6 -4 26 664.53 69.09
-6 26 4 586.74 63.99
-4 6 26 583.04 50.59
-6 26 4 618.14 43.1
26 -4 6 580.44 40.2
26 -6 -4 612.14 36.3
26 -4 6 606.14 41.5
6 26 -4 614.64 37.6
6 4 26 661.13 51.99
6 26 -4 656.43 46.4
26 4 -6 590.54 41.8
-26 4 6 619.54 46.1
6 4 26 624.34 56.69
-4 26 -6 588.94 54.99
-4 6 26 578.24 55.29
6 4 26 661.43 71.29
6 26 4 598.54 47.3
-26 6 4 608.04 46.6
4 6 26 550.94 51.49
26 -4 -6 702.93 36.1
26 4 6 577.34 45.2
-6 26 -4 527.05 64.09
-4 26 6 655.13 43.6
6 26 4 626.94 41.4
-4 -6 26 643.34 70.39
-6 4 26 631.54 59.49
4 -6 -26 588.14 56.39
4 26 -6 634.04 47.9
-4 26 6 521.75 54.29
26 -6 4 632.04 39.7
6 -26 -4 629.64 47.9
-4 -6 26 570.34 66.19
6 -4 26 482.35 74.29
4 6 26 574.74 55.99
-6 4 26 587.14 69.09
26 4 6 660.23 51.69
4 -26 6 538.55 56.39
6 -4 26 722.73 77.59
-6 26 -4 595.54 38.4
4 6 26 723.63 100.89
-6 4 26 624.04 54.89
4 26 -6 604.04 35.4
4 26 -6 670.23 42.4
-6 26 -4 590.54 42.4
-6 -6 26 631.84 70.99
-6 26 6 675.33 65.29
6 -6 26 645.64 82.29
6 26 6 719.23 48
-6 6 26 726.93 52.99
26 -6 -6 734.53 37.9
26 -6 6 782.22 43
26 6 6 645.74 63.69
6 6 26 654.83 49.3
-6 26 6 774.12 47.1
6 26 -6 685.13 38.2
6 -6 -26 828.92 67.79
26 -6 6 751.92 42.3
6 26 -6 736.63 48.4
-26 6 6 762.32 47.6
-6 26 -6 730.23 45.1
-6 6 26 626.64 55.29
-6 6 26 759.42 69.59
6 6 26 757.32 56.09
-6 26 -6 720.43 38.8
6 -26 6 656.33 52.19
6 26 6 732.73 43.3
-6 26 -6 719.93 67.09
0 -8 26 -3.8 46
0 26 -8 23 19.4
8 0 26 26.2 25.9
-8 0 26 81.39 38.5
8 0 26 38.7 28.9
0 26 -8 35 22.2
26 0 8 45 19.5
26 0 -8 23.7 14.8
8 0 26 53.69 43.7
0 8 26 39 42.4
26 -8 0 32.8 14.7
-26 8 0 79.19 25.2
0 -8 26 39.6 44.2
0 26 8 25.2 19.4
0 8 26 14.9 22.6
0 26 -8 40.3 14.5
8 26 0 24.2 22.2
0 26 8 49.9 24.1
-8 26 0 56.49 20.3
8 -26 0 47.9 22.7
26 0 8 52.89 20.4
0 8 26 -2.5 24.7
0 -26 8 28.5 48.5
26 -8 -2 18.1 12.7
-8 26 2 45.3 17.9
-2 26 -8 55.29 25.1
8 2 26 -9.9 24.7
8 -2 -26 -0.9 47.2
2 26 8 26.4 23
-8 -2 26 54.79 40.7
-26 2 8 0.7 20
8 2 26 -42.4 38.6
-2 8 26 -16.4 23.4
26 -2 8 32.3 18.9
8 26 -2 -22.3 18.3
2 -8 26 56.29 43.2
-26 8 -2 53.59 27
26 -2 8 32.3 19.9
-2 26 -8 -1.1 13.4
26 2 -8 18.6 16.3
-2 8 26 6.5 25
8 -26 2 35.9 22.6
-2 8 26 2.2 38
-2 26 -8 32.3 20.7
8 26 -2 12.6 21.5
2 -8 26 0.8 52.79
2 26 8 40.7 20.4
8 2 26 45.3 26.4
2 26 -8 -14.8 17.4
26 -8 2 7.1 15.5
8 -2 26 50.49 28.4
-2 26 8 -11.1 18.6
-8 2 26 -27.5 25.9
-2 -8 26 18.9 41
-8 2 26 20.9 37.6
2 26 -8 -8.3 20.6
2 8 26 -16.5 22.3
26 2 8 13.2 22.1
-2 -8 26 -13.4 48.9
-2 26 8 16.8 24.3
8 -2 26 24.1 30.1
8 -26 -2 38.6 21.8
8 26 2 27 20.9
26 2 8 13.1 19
-8 26 -2 30.6 20
2 8 26 50.09 42.6
2 -8 -26 11.9 27.6
2 26 -8 -18.8 13.9
8 -2 26 37.1 42.5
2 8 26 -0.9 22.6
26 -2 -8 25.3 14.2
-26 8 2 -1 21.4
2 -26 8 21 37.3
4 26 8 230.68 34.2
-26 8 -4 186.08 33.5
8 4 26 157.68 28.3
8 -4 -26 271.47 45.2
8 26 -4 227.28 29.6
-26 4 8 238.28 28.8
26 -4 8 238.98 30
26 -8 -4 223.18 26.5
-8 -4 26 224.58 43.5
4 -8 26 143.49 44.3
8 -26 4 239.88 31.1
4 26 8 255.47 37.3
26 -4 8 162.28 22.2
-4 8 26 242.38 42.3
-4 26 -8 241.78 25.3
26 4 -8 270.07 39.6
-8 26 4 208.08 31.8
8 4 26 197.28 29.3
-4 8 26 177.38 29.8
8 4 26 177.78 43.1
-4 26 -8 211.98 31.4
-4 8 26 217.48 31.1
8 26 -4 162.98 24.3
-4 26 -8 247.08 36
-8 4 26 247.28 36.8
-4 -8 26 120.09 60.09
8 -4 26 250.77 40.3
4 -26 8 244.38 35.9
-4 26 8 240.78 34.4
4 26 -8 234.88 25.8
-4 26 8 202.38 30.3
26 -4 -8 303.67 25.8
26 4 8 262.07 30.1
-8 26 -4 179.28 25.7
4 -8 -26 203.98 37.7
-26 8 4 244.78 36.4
8 -4 26 225.18 36.4
8 -26 -4 244.48 37.5
8 -4 26 192.68 45.9
-8 26 -4 225.48 33.7
-8 4 26 303.17 45.6
26 4 8 217.68 27.2
4 26 -8 250.27 29.9
-8 4 26 237.08 44.2
-4 -8 26 345.07 45.9
8 26 4 273.67 38.6
4 8 26 250.87 33.6
4 8 26 189.58 27.5
-6 8 26 280.37 34.2
8 -26 6 214.48 30
6 26 8 289.57 37.6
-8 -6 26 336.27 45.8
8 -6 -26 303.87 45.9
8 26 -6 259.77 37.8
6 -8 26 191.18 44.5
-6 26 -8 243.68 36
-6 26 -8 346.07 27.5
8 6 26 305.07 42.9
-26 6 8 324.67 36.2
-6 8 26 219.98 30.4
26 -8 -6 266.07 26.5
-6 -26 8 273.87 39.6
-8 26 6 347.37 35.2
26 -6 8 227.98 31.9
-6 8 26 350.06 45.4
6 26 8 327.67 35.3
8 6 26 308.27 34.2
8 26 -6 291.07 27.4
6 8 26 365.16 47.8
-8 26 -6 243.28 30.3
6 8 26 248.78 30.3
8 26 6 309.67 37.9
-8 6 26 279.67 42.5
-6 26 8 304.67 37.9
26 -8 6 296.07 31.1
8 -6 26 242.98 47.5
6 -8 -26 293.97 40
6 26 -8 295.07 27.5
-8 6 26 203.18 30.6
-8 26 -6 336.57 36.2
-6 26 8 258.17 37.6
-6 -8 26 293.27 44.9
8 -6 26 222.08 38
26 6 8 323.17 35.4
-26 8 6 302.47 36.4
6 -26 8 344.77 47.6
-8 6 26 357.36 52.39
26 -8 6 345.27 31.7
8 8 26 78.99 25.3
8 26 -8 36.3 14.9
26 -8 8 28.1 17.3
-8 -8 26 37.7 36.9
8 -26 8 10.7 26.5
8 8 26 27.1 24.2
-8 8 26 65.29 35.4
-8 26 -8 33.2 14.4
8 -26 8 22.2 51.09
-8 26 8 30 18.5
-8 8 26 15.7 24.3
8 26 8 20.3 20.3
-8 26 -8 4.9 20
26 -8 -8 20.4 12.2
-8 8 26 50.09 25.2
8 -8 -26 123.29 39.4
8 26 -8 50.39 20.5
26 -8 8 1.9 15.3
-26 8 8 40.4 19.8
-8 -26 8 41 24.1
8 -8 26 -5.1 38.9
0 10 26 114.19 39.2
0 -10 26 130.99 48.8
26 0 10 80.39 19.3
10 26 0 124.89 25.6
0 26 10 105.39 21.9
0 -10 -26 155.98 32.9
10 0 26 111.79 34.1
-10 0 26 58.59 37.6
26 0 -10 91.99 15.4
10 0 26 129.69 30
10 -26 0 82.69 24.9
0 -10 26 65.59 45.1
0 26 -10 80.49 21.5
-10 26 0 121.29 21.7
0 10 26 111.79 25.2
-26 10 0 65.49 24.9
0 -26 10 74.19 27.5
0 10 26 80.59 25.6
26 0 10 109.29 23.3
0 26 10 92.79 24.6
10 0 26 138.59 41.4
26 -10 0 73.19 17.8
0 26 -10 91.49 15.5
0 26 -10 100.69 23.6
10 2 26 -2.4 38.5
-2 -26 10 63.99 27.2
2 -10 26 -21.3 55.19
-10 -2 26 51.29 39.4
26 -10 -2 -4.2 14
2 26 10 37.5 21.4
26 2 -10 -7.4 15.8
-2 26 -10 10.3 21.7
-2 26 -10 7.1 12.5
10 2 26 -13 22.8
26 -2 10 32.4 15.9
26 -2 10 22.1 17.8
-2 10 26 20.2 34.6
-2 -10 -26 -13 31
10 -26 2 -9.8 21.2
-2 10 26 25.9 22.9
-26 2 10 10.2 19
10 26 -2 20.8 18.4
-10 26 2 16.7 18.1
-26 10 -2 -14 25
10 26 -2 1.3 19.5
10 2 26 19.6 30.2
2 -10 26 18.2 41.5
-2 10 26 30.5 21.5
2 26 10 -10.1 19.7
10 -2 26 -16.3 34.6
2 -10 -26 -17.1 31.5
2 26 -10 7 12.6
-26 10 2 48.8 21.7
10 26 2 20.9 22.6
-2 -10 26 -15.6 42.2
2 26 -10 6.3 20.6
-2 26 10 7.4 22.6
26 -10 2 -15.1 14.1
10 -26 -2 24 20
-10 26 -2 12.1 18.1
-10 2 26 20.6 38.1
26 -2 -10 11.5 13.3
2 10 26 17.9 21.4
2 10 26 -12 21.7
10 -2 26 -24.4 40.2
-2 26 10 28.8 19.4
26 2 10 -8 19.4
26 2 10 -26.2 19.5
10 -2 26 -61.59 26.5
-10 2 26 58.89 29.2
2 -26 10 -35.3 27.2
-2 -10 26 66.19 54.79
-4 10 26 72.19 23.2
4 26 10 48.9 20.7
-26 4 10 29.6 19
10 4 26 107.79 30.5
10 26 -4 67.59 20.6
4 26 10 44.3 21.1
-4 26 -10 96.89 24
26 -4 10 43.1 16.2
-4 26 -10 68.29 13.8
10 4 26 65.09 24.9
10 -4 -26 234.48 53.89
-4 -26 10 59.29 24
-10 -4 26 109.19 40.9
-4 10 26 54.69 35.2
10 -26 4 85.39 24.5
-4 10 26 63.29 24.3
-10 26 4 47.7 20.2
10 26 -4 92.79 18
4 -10 26 28.4 41.2
26 -10 -4 34.7 14
26 -4 10 46.1 18.2
4 26 -10 37.5 13.5
26 -4 -10 72.99 15.6
4 -10 -26 96.59 33.6
-10 26 -4 48.2 20.3
26 -10 4 170.98 66.29
-4 -10 26 80.89 41.4
4 10 26 40.2 22.1
4 -26 10 90.69 36.1
-10 4 26 89.49 27.7
10 -4 26 81.39 54.99
-4 26 10 57.69 27.1
-10 4 26 17.8 37
-26 10 4 51.19 21
26 4 10 31.5 22.3
-4 26 10 83.69 21.8
10 -26 -4 92.59 23
26 -10 4 94.59 18.3
4 10 26 40.7 23.6
4 -26 10 71.39 32.2
10 -4 26 105.99 33.2
10 26 4 57.59 21.3
10 -4 26 59.49 39.3
26 4 10 71.59 24.2
4 26 -10 100.59 22.9
26 -6 10 74.79 19.1
-6 26 -10 66.69 14.3
10 26 -6 50.29 19.2
-6 10 26 61.59 24.5
-26 6 10 55.69 19.7
6 -10 26 71.69 42
-10 -6 26 81.79 37.3
10 -26 6 77.89 24.2
10 6 26 55.49 27.8
-6 10 26 97.99 36.4
26 -10 -6 58.49 14.2
-10 26 6 118.79 22.1
10 -6 -26 151.98 49.99
-6 -26 10 36.2 25.3
10 -6 -26 68.39 14.6
6 26 10 91.59 23.8
-6 10 26 109.59 27
26 -6 10 88.99 19.8
10 26 -6 84.09 16.2
10 6 26 2.7 23.8
6 -26 10 7.8 39.5
10 26 6 47.9 22.3
10 -26 -6 51.89 22.1
-10 26 -6 60.89 15.8
6 10 26 123.69 26.8
-10 -26 6 62.09 25.4
6 -26 10 120.79 31.7
-10 6 26 68.99 29
26 -6 -10 51.79 13.4
10 -6 26 -6.8 39.1
26 6 10 79.79 26.5
-10 6 26 112.79 38.4
10 6 -26 69.39 15.7
26 -10 6 80.09 16.2
26 -10 6 68.59 18.7
6 26 -10 100.39 23.1
-6 26 10 83.79 29.1
-10 26 -6 103.69 22.4
6 -10 -26 104.39 35
6 10 26 106.19 24.3
-6 -10 26 61.89 38.9
-26 10 6 41.8 19.1
-6 26 10 37.2 20.1
6 26 -10 73.49 15.7
-8 26 -10 18.9 11.7
8 26 10 8.6 19.3
-10 -8 26 -9.6 34.3
-8 10 26 -15.2 23
26 -10 -8 -2 12.7
-8 -26 10 24.2 25.5
10 -8 -26 14.8 13.1
10 8 26 35.8 23.8
-8 10 26 21.8 21.6
26 -8 10 -13.7 13.5
-8 10 26 84.79 35.7
-10 26 8 20.2 18.6
10 26 -8 25.1 12.7
26 -8 10 43.9 17.2
8 -10 26 31.5 37.8
-26 8 10 19.9 17.6
10 -26 8 38 25.7
10 8 26 28.9 22.9
10 26 -8 22 19.8
8 10 26 33.9 22.8
10 26 8 -7.3 19.6
-10 8 26 6 21.5
-8 26 10 -13.9 18.4
-10 -26 8 48.1 28.5
-10 26 -8 18.6 21.3
10 -8 26 -24.4 36.2
-10 8 26 14.5 34
8 -10 -26 19.8 43.9
26 -8 -10 1.9 10.9
-10 26 -8 -6.4 12.1
26 -10 8 14.4 14.5
8 -26 10 22.5 26.8
26 -10 8 4.9 14.8
-10 8 26 52.69 25.7
-26 10 8 15.2 18.6
-8 -10 26 10.1 35.9
8 -10 -26 -14.5 11.2
8 10 26 21.4 22.1
26 8 10 -45.3 27
8 26 -10 -11.2 12.1
8 26 -10 24.9 18.4
26 -10 -10 73.69 13.1
-10 -10 26 71.99 35
10 -26 10 97.29 26.2
10 26 -10 98.29 14.5
-26 10 10 61.29 17.5
-10 26 -10 64.59 12.5
10 10 26 99.29 23.2
26 -10 10 71.59 15.5
-10 10 26 59.79 33.4
10 -10 -26 56.59 12.1
26 -10 10 108.59 18.3
-10 -26 10 162.88 30.9
-10 10 26 109.79 27.1
10 26 10 99.79 20.2
10 10 26 82.39 22.5
10 -10 26 91.19 33.9
-10 10 26 123.89 23.4
-10 26 10 61.59 17.7
10 26 -10 92.69 18.9
12 0 26 53.39 38.8
12 0 26 29.4 24.3
0 -12 -26 -50.69 33.9
0 -12 26 118.89 48.8
12 26 0 10.3 20
0 12 26 35.8 23.6
0 26 12 38.7 21.8
0 26 12 25.7 20.9
0 12 26 9.6 22
0 -12 26 34.4 45.5
0 -26 12 10.7 30.9
12 0 -26 21.6 14.3
26 0 -12 21.8 14.4
12 -26 0 31.4 21.2
-26 12 0 21.7 20.7
26 0 12 17.1 16.9
-12 0 26 63.59 37.4
26 -12 0 19.6 15.7
26 0 12 15.4 18.7
-26 0 12 36.2 20.1
0 26 -12 27.1 12.9
-12 26 0 25.2 20
-12 0 26 45.3 29.8
-2 12 26 5.1 21.1
26 2 -12 20.8 15.5
26 -2 12 -5.5 15.4
2 -12 26 36.6 43
-12 -2 26 25.9 36.6
2 26 12 27.3 20.7
-12 26 2 -14.1 16.9
2 26 12 20.6 21.1
-2 12 26 -0.2 22.7
12 -2 -26 12.4 13
12 2 26 4.2 23.2
-26 2 12 2.2 17.9
-2 -26 12 9.6 28
-2 -12 -26 -17.6 35.5
12 26 -2 1.9 19
12 26 -2 -1 16.4
26 -2 12 -13.1 17.6
12 -26 2 -1.8 22.3
-26 12 -2 -7.4 21.3
-2 26 -12 7.6 11.9
12 2 26 42.8 36.6
26 -12 -2 30.3 14.5
-2 26 12 56.69 20.5
26 2 12 16 18.1
26 -12 2 4.6 14
12 -2 26 -80.89 39
12 26 2 5.1 20.5
-2 26 12 37.5 21.3
12 -26 -2 -3 22.1
12 2 -26 6.7 13.2
2 26 -12 -10.5 11.7
-2 -12 26 -85.69 51.29
-12 2 26 15.6 35.4
26 -2 -12 -13.8 11.6
2 -12 -26 20.4 32
26 2 12 2.6 20.3
2 12 26 -8.5 24.1
-12 -26 2 47.2 28.8
12 -2 26 -27.5 25.1
-12 26 -2 3.8 17.4
-2 -12 26 -23.4 42.5
2 12 26 19 22.1
-26 12 2 28.4 20.8
-12 2 26 18 27.1
2 -26 12 17.8 32.4
2 -26 12 2 39.7
-4 12 26 167.18 34.5
26 -12 -4 162.98 19
-4 12 26 143.49 25.3
-12 -4 26 139.09 41.8
4 26 12 142.69 24.2
12 26 -4 123.49 17
-4 -12 -26 173.48 67.59
26 -4 12 141.99 19.3
12 4 26 204.28 61.39
12 -26 4 104.99 24.3
-4 -26 12 170.68 30.6
12 26 -4 132.69 22.6
-4 12 26 159.58 26.7
26 -4 12 100.99 20.5
12 4 26 144.49 27.2
-12 26 4 119.59 21.2
-4 26 -12 154.18 16.7
12 -4 -26 171.88 22.8
4 -12 26 157.98 43.9
-26 4 12 139.89 22.1
-12 -26 4 124.89 28.4
12 4 -26 153.68 22.4
4 -12 -26 194.28 38.5
-4 26 12 173.98 26.1
-26 12 4 101.19 21.1
26 4 12 143.79 24.7
12 -26 -4 135.99 22.3
4 12 26 166.78 27.5
-12 4 26 176.48 40.9
-12 26 -4 140.79 22
-12 4 26 168.98 30.9
4 26 -12 146.29 21.3
12 26 4 138.19 24.5
4 12 26 127.29 24
4 -26 12 162.08 39.7
26 -12 4 143.99 20.9
12 -4 26 170.78 41.3
-4 26 12 156.08 22.4
12 -4 26 206.88 30.6
-4 -12 26 72.09 42.5
26 -4 -12 115.49 15.3
4 -26 12 128.49 35.3
6 26 12 96.29 20.1
-12 26 6 100.19 19.7
-6 12 26 88.89 21.3
12 -6 -26 125.49 16.7
-6 12 26 97.09 31
6 -12 26 128.89 39
26 -6 12 133.89 21.1
12 6 26 175.88 30.5
12 26 -6 147.89 17.5
-6 12 26 159.08 25.6
12 -26 6 83.69 23.2
-26 6 12 105.49 21.2
-6 -26 12 125.69 28.6
12 26 -6 109.89 19.8
-6 26 -12 99.19 13.7
-12 -6 26 111.19 40
26 -12 -6 139.59 17.8
12 6 26 98.29 22.5
26 -6 12 119.19 19.1
-12 26 -6 69.19 19.7
26 -6 -12 146.99 16.8
12 26 6 122.69 21.4
26 6 12 68.89 25
6 -12 -26 148.09 20.7
-6 26 12 127.99 21.7
-12 6 26 107.99 36.8
26 -12 6 113.99 18.3
12 -26 -6 106.49 21.6
-6 -12 26 81.09 38.6
-12 26 -6 137.09 16.7
6 12 26 81.79 22.3
12 -6 26 139.99 34.3
12 6 -26 100.69 16.7
6 26 -12 82.29 14.1
12 -6 26 135.29 39.9
26 -12 6 142.59 19.9
6 12 26 100.59 22
6 -26 12 93.09 30.7
-26 12 6 96.69 20
-12 -26 6 113.09 30.5
-6 26 12 108.79 28.8
-12 6 26 104.39 28.6
12 8 26 42.8 20.1
-8 -26 12 18 26.4
26 -8 12 36 15.4
12 -26 8 -4.5 21.3
12 26 -8 9.9 16.7
12 -8 -26 -3 9.9
26 -12 -8 9 11.1
-12 26 8 -10.1 15.8
12 26 -8 -0.2 11.3
8 -12 26 46.5 35.4
-26 8 12 -33.2 15.5
-8 26 -12 6.7 10.5
-12 -8 26 41.3 35.8
-8 12 26 -15.5 18.9
8 26 12 6.4 17.1
26 -8 12 -2.1 12.1
12 8 26 21.7 26.6
-8 12 26 -27.4 28.2
-8 12 26 30.4 22.9
26 8 12 -14.5 24.4
-26 12 8 7.1 15.6
-8 26 12 -9.1 17
8 12 26 -6.6 19.3
-12 -26 8 -29.7 27.8
26 -8 -12 14.3 11
12 -8 26 40.4 35.4
8 -12 -26 16.6 10.8
-12 8 26 -11.8 29.7
8 -26 12 -22.8 25.2
12 -26 -8 7.9 17.4
8 26 -12 2.6 10.6
8 12 26 24.6 18.2
12 26 8 22.2 18.4
-8 -12 26 -18.9 36.1
-12 26 -8 19.3 12.2
26 -12 8 -0.2 14
-12 26 -8 7.4 20.3
-12 8 26 -69.39 33
26 -12 8 -0.4 12.3
-12 -10 26 82.19 37
26 -10 12 5.1 13.2
12 -10 -26 39.2 11.1
12 10 26 43.7 19.4
12 -26 10 -2.2 22.3
-26 10 12 13.5 15
-10 12 26 47.1 29.5
10 26 12 28.4 17.1
-10 12 26 -3.6 23.6
-12 26 10 24.8 16.1
26 -10 12 32.9 14.2
12 26 -10 26.3 11
-10 26 -12 15 10.4
26 -12 -10 23.9 11.7
-10 -26 12 33.1 27.7
10 -12 26 30.1 32
-10 12 26 -8 18.4
12 10 26 45.3 25.2
10 12 26 13.1 17
26 -12 10 18 13.7
-12 10 26 19.3 32
26 -10 -12 27.4 10.8
12 -10 26 60.59 33.3
-12 10 26 12.6 32.2
10 26 -12 28.2 11.2
-10 -12 26 83.19 34.8
10 -26 12 32 24
-12 26 -10 14.5 11
-26 12 10 51.29 15.9
10 12 26 -1.5 21
-12 -26 10 -22.9 27
-10 26 12 44.1 18.5
26 -12 10 23.9 14.5
12 -26 -10 28 16.5
10 -12 -26 10.7 10.2
12 26 10 5.5 17.6
12 26 12 29.7 17.4
26 -12 12 17.9 13.1
12 12 26 2.3 16.8
-12 -12 26 69.79 38
12 -12 26 0.2 28.3
-12 26 12 42.9 16.7
12 26 -12 25.7 10.5
-26 12 12 17.3 14
-12 26 -12 9.6 9.9
26 -12 -12 7.1 10.3
12 -12 -26 2.5 9.6
26 -12 12 12.5 14.8
-12 -26 12 30.3 31.2
12 12 26 18.6 25.2
12 -26 12 41.8 22.1
14 -26 0 33.1 18.8
0 26 -14 8.1 10.3
-26 0 14 4.3 16.2
14 0 -26 2.8 11.4
26 0 -14 25.7 12.5
0 26 14 30.7 18.9
26 -14 0 1.6 13.9
-26 14 0 32.7 19
0 -14 26 65.29 45.1
26 0 14 -5.9 16.3
-14 0 26 13.4 37.3
0 14 26 15.4 18.9
-14 -26 0 -39 35.1
-14 0 26 3.9 29.9
0 -14 26 154.68 55.29
-14 26 0 -7.6 16.4
0 14 26 -17.9 18.7
14 26 0 17.5 17.8
14 0 26 -8 21.6
0 -26 14 26.5 31.7
14 0 26 24.7 34.8
-2 14 26 106.39 21.5
2 26 14 92.59 19.5
14 -26 2 98.79 21.2
14 -2 -26 97.39 14.2
-14 26 2 106.19 19.6
26 2 -14 109.59 16.6
26 -2 14 97.39 16.4
-14 -2 26 167.38 33.4
-26 2 14 78.99 18.4
-2 -26 14 91.49 30.4
-2 26 -14 123.49 14.8
26 -14 -2 78.89 15.4
14 26 -2 121.99 18.5
26 -2 14 138.59 21
-14 -2 26 190.98 42.3
2 -14 26 63.19 40.3
14 2 26 107.89 23.8
14 26 -2 85.79 19.8
-26 14 -2 108.79 23
-2 14 26 111.89 20.9
-14 -26 2 71.89 36.5
2 26 -14 93.39 13.1
2 14 26 75.69 19.7
14 -2 26 77.99 36.7
-26 -2 14 95.99 20.2
2 14 26 115.99 20.8
14 26 2 120.19 20.6
-2 26 14 81.39 22.2
2 -26 14 218.28 51.99
-14 2 26 192.18 35.1
-2 -14 26 129.59 47.4
-14 26 -2 117.69 19.4
26 2 14 123.69 22.4
14 -2 26 101.59 25.3
-26 14 2 67.39 20.7
2 -14 -26 110.99 15
-2 -14 26 182.08 95.79
-14 2 26 104.09 40.2
14 -26 -2 131.19 21.8
26 -14 2 94.19 15.9
-2 14 -26 114.59 18.7
14 2 -26 116.99 14.9
2 -26 14 96.39 35.9
26 -2 -14 87.79 13.7
-26 14 -4 470.45 47.5
14 -4 -26 421.06 26.8
4 -14 26 397.56 47.3
-4 -26 14 421.66 44.7
14 26 -4 475.45 34.3
4 26 14 377.06 33.6
-4 14 26 432.46 37.4
-4 26 -14 433.56 24.9
14 4 26 391.36 39.5
-4 14 26 482.65 38.3
-14 -4 26 393.96 48
26 -4 14 419.56 30.9
26 -4 14 463.75 34.3
-14 26 4 415.46 33.3
14 -26 4 413.86 36.8
14 26 -4 444.86 27.7
26 -14 -4 418.56 28.4
-26 4 14 436.46 34
4 14 26 399.06 41
-14 26 -4 352.46 33.6
-14 -26 4 461.45 52.99
14 -26 -4 399.06 36.4
26 -4 -14 414.36 25.5
-4 26 14 333.47 39.3
4 -26 14 525.05 65.09
14 4 -26 340.57 26.4
4 -26 14 396.96 62.79
26 4 14 475.85 38.3
4 -14 -26 428.36 26.7
-14 4 26 544.15 66.59
-4 26 14 515.65 41.4
14 26 4 412.76 35.2
-4 -14 26 413.66 62.19
-4 14 -26 407.56 32.9
4 26 -14 421.66 25.8
26 -14 4 432.56 31.5
14 -4 26 448.66 45.1
-14 4 26 428.06 57.99
-26 14 4 421.86 34.5
14 -4 26 384.96 62.09
4 14 26 353.86 35.7
6 26 14 373.66 31.4
14 -6 -26 426.76 25.4
-6 -26 14 327.97 44.3
-6 14 26 418.26 36.3
14 -26 6 373.26 37.3
14 26 -6 379.06 32
-6 14 26 295.37 34.5
6 -14 26 333.97 43.6
26 -6 14 385.46 31.1
14 6 26 362.86 37.1
-14 -6 26 350.36 47.8
-6 26 -14 378.16 23.1
-26 6 14 352.06 31
14 26 -6 377.56 25.9
26 -6 14 412.76 28.9
-14 26 6 344.27 31.1
26 -14 -6 344.17 25.2
26 -14 6 397.66 29
-6 -14 26 394.06 47.7
26 -6 -14 374.86 23.9
-26 14 6 359.06 31.8
26 -14 6 385.86 28.8
-14 26 -6 332.37 27.5
6 -14 -26 361.96 24.3
-14 26 -6 357.26 35.6
14 -26 -6 357.96 33
26 6 14 362.96 39.9
6 14 26 375.86 34
6 26 -14 397.56 24.5
-14 6 26 529.15 56.29
-6 14 -26 426.36 31.9
6 -26 14 354.26 40.9
14 -6 26 455.15 56.69
-14 -26 6 307.07 40
14 26 6 415.56 35
-6 26 14 354.16 42.4
14 -6 26 385.16 48.4
6 14 26 436.56 38.5
-6 26 14 368.76 36.2
-8 26 -14 82.89 12.4
26 -8 14 77.69 15.9
-26 8 14 85.59 17.6
14 -8 -26 78.49 11.7
14 -26 8 60.49 21.2
26 -14 -8 87.89 14
-14 26 8 120.99 18.2
-8 -26 14 104.49 30.8
8 26 14 95.39 17.9
14 26 -8 76.19 12.9
8 -14 26 129.39 34.6
-8 14 26 111.89 24.2
14 8 26 102.69 21.6
-14 -8 26 82.09 41.2
-8 14 26 105.49 20.2
26 -8 14 80.69 14.7
26 -14 8 77.29 15.2
14 -8 26 129.79 33.8
26 -8 -14 72.69 11.8
-14 26 -8 103.59 14.3
14 -26 -8 70.79 18.1
8 -26 14 90.09 31
-14 8 26 86.29 38.9
8 -14 -26 140.09 18.6
-8 26 14 76.19 20.2
8 26 -14 78.49 11.9
-8 14 -26 107.89 17.1
-26 14 8 86.19 17.4
8 14 26 63.39 19.9
14 26 8 120.79 20.1
26 -14 8 74.19 15.3
-8 -14 26 90.59 40.2
8 14 26 77.39 20
-14 -26 8 60.89 34.9
26 8 14 110.99 25
-10 14 26 35.3 27
-26 10 14 -6.8 14.8
14 -10 -26 20.1 10
10 -14 26 7.4 30.2
-10 -26 14 -54.79 28.4
14 26 -10 21.9 10.8
-10 26 -14 10.8 9.6
26 -10 14 20.9 14
10 26 14 -5.6 15.2
26 -14 -10 21.8 10.9
-26 14 -10 21.3 9.2
-10 14 26 -6.7 16.8
26 -10 14 12.8 12.8
14 -26 10 12 21
14 10 26 47.6 18.7
-14 -10 26 -2.3 36.9
-14 26 10 -1.8 14.8
-26 14 10 -3.7 13.6
10 26 -14 6.9 9.8
10 -26 14 16.3 26.4
10 -14 -26 23.5 10.5
10 14 26 22.2 19.4
14 26 10 39.4 18.4
-10 -14 26 58.39 37.6
26 -14 10 -8.2 13
14 -10 26 3.7 30.3
-10 14 -26 20.2 15.1
-14 26 -10 -10.3 10.4
-14 10 26 26.2 33.1
26 -10 -14 1.9 9.1
-14 -26 10 39.9 35.3
26 -14 10 24.8 14.6
-10 26 14 -3.1 19.7
14 -26 -10 52.59 16.8
10 14 26 6.5 16.8
26 -14 -12 41.6 10.9
14 -26 12 28.5 21.5
-26 14 -12 20.8 9.3
12 26 14 14.5 16.6
-14 -12 26 64.89 39.3
26 -12 14 23.7 15.1
14 26 -12 32.1 9.8
14 -12 -26 13.7 9
-14 26 12 38.7 15.4
-12 -26 14 -3.5 31.6
14 12 26 38.3 17
-12 26 -14 2.4 9.1
-26 12 14 30.2 15.8
12 -14 26 22.1 29.2
14 -26 -12 26.3 16
-14 26 -12 22.3 10.2
14 26 12 -23.4 16.9
26 -12 -14 26.2 10.2
26 -14 12 7.2 13
12 -14 -26 7.4 9.4
12 14 26 1.4 16.8
-26 14 12 24.9 15
-14 -26 12 8.7 34.9
-26 12 -14 39.4 9.9
12 -26 14 22 25.3
14 -12 26 35.2 30.8
12 14 26 0.2 22.6
12 26 -14 1.6 9.3
26 -14 12 20.9 14.7
-12 -14 26 60.69 39
-12 14 -26 39.1 19.1
-12 26 14 -11.8 18.1
14 26 -14 114.99 12.5
-14 26 -14 111.89 12
-26 14 14 95.49 16.6
-26 14 -14 130.29 13.3
14 -14 -26 101.39 15.1
26 -14 -14 132.39 16.4
14 -26 -14 132.39 17.2
26 -14 14 120.49 18
14 -26 14 132.69 25.9
14 14 26 85.69 17.9
14 26 14 103.89 19.2
-14 -14 26 113.99 40.8
14 -14 26 90.09 32.1
-14 26 14 90.99 19
0 16 -26 95.69 16
16 0 26 58.59 21.3
26 -16 0 74.79 15.2
16 -26 0 68.79 20.3
-16 0 26 5.4 44.3
-16 26 0 56.69 16.9
16 26 0 65.09 19
0 16 26 68.59 18.4
26 0 -16 84.39 13.9
0 26 -16 70.59 11.7
0 -16 26 -39.1 60.19
-26 0 16 91.49 18.7
0 26 16 99.29 19.3
26 0 16 52.99 18
0 -26 16 73.49 39.8
16 0 -26 74.89 12.5
0 -16 26 -17.4 49.5
-26 16 0 63.99 19.7
-26 16 -2 244.38 26.9
26 -16 -2 244.48 24.1
-16 -2 26 194.38 44
-2 16 26 200.68 30.6
-26 2 16 215.88 29
-16 26 2 266.37 28.8
2 -16 26 250.77 45.4
26 -2 16 276.37 30.5
2 16 -26 273.17 29.4
26 2 -16 269.97 26.9
-2 -26 16 229.78 39.4
-2 26 -16 259.17 20.7
-2 16 26 239.48 28.8
16 26 -2 228.78 30.8
16 -26 2 213.78 31.7
16 -2 -26 261.07 20.4
16 2 26 240.38 35.8
2 26 16 258.77 29
-26 16 -2 227.48 26.2
26 -2 -16 240.88 20.9
2 26 -16 254.47 20.1
2 16 26 239.58 33.3
16 2 -26 205.18 21.3
-2 16 -26 201.88 25.7
2 16 26 246.78 30.6
2 -26 16 260.87 49.7
26 -16 2 242.08 26.3
-2 26 16 233.28 24.5
-16 2 26 254.47 46
16 26 2 272.77 30.8
16 -2 26 314.17 38.1
-2 -16 26 192.28 52.59
-16 26 -2 208.48 22.3
-26 -2 16 202.58 30.4
-26 16 2 234.08 30.6
16 -26 -2 289.27 31.9
16 -2 26 165.68 38.7
26 2 16 253.57 32.3
-26 16 -4 644.54 32
-26 4 16 669.33 36.8
-4 26 -16 639.44 30.4
-4 16 26 685.13 40
-4 -26 16 658.53 51.09
26 -16 -4 676.13 34
4 26 16 676.93 37.4
26 -4 16 670.73 38.4
-4 16 26 669.93 39.4
16 -4 -26 685.73 30.8
16 26 -4 655.83 32.4
16 4 26 700.23 40.9
16 26 -4 576.24 37.8
-16 -4 26 630.34 86.69
4 16 -26 607.84 36.7
-16 -4 26 600.24 64.59
-16 26 4 695.53 37.3
4 -16 26 703.93 66.29
16 -26 4 660.93 41.6
-4 -16 26 618.14 66.09
26 4 16 638.84 41.1
16 4 -26 620.84 31.8
26 -16 4 653.53 35.4
16 -4 26 645.34 45.4
-16 4 26 627.64 60.59
-4 26 16 635.94 42.1
4 -26 16 711.23 64.59
4 26 -16 728.73 31.4
26 -4 -16 682.63 30.3
16 -4 26 666.13 61.69
4 16 26 695.53 38.7
4 16 26 674.03 41.5
-26 -4 16 646.64 38.1
-4 16 -26 642.44 33
-16 26 -4 576.94 35.9
-26 16 4 664.43 38.4
4 -16 -26 663.53 32.4
16 -26 -4 633.24 37.5
16 26 4 695.63 39
-6 16 26 577.44 35.6
-6 -26 16 536.15 52.09
-6 26 -16 612.24 27.9
-6 16 26 615.44 38.3
-16 26 6 633.84 34.7
6 -16 26 553.74 56.49
16 -26 6 514.15 38.2
16 -6 -26 564.64 27.8
16 6 26 581.14 38.5
6 26 16 586.74 33.9
-26 16 -6 593.14 29.8
16 26 -6 610.14 29.2
-16 -6 26 484.65 56.39
-26 6 16 613.04 35.3
26 -6 16 623.14 35.8
26 -16 -6 617.04 31.1
-16 -6 26 495.05 60.09
26 -6 -16 581.14 27.8
26 -16 6 560.74 33.2
-6 -16 26 476.75 52.19
6 26 -16 568.24 28.2
16 -6 26 571.94 60.59
6 16 26 638.94 35.6
6 -16 -26 577.34 29.5
16 -6 26 685.93 47.3
-26 -6 16 634.14 35.8
-6 26 16 499.65 43.9
-16 6 26 448.96 58.29
26 -16 6 586.64 33
6 16 26 590.54 36.8
6 -26 16 630.04 57.59
16 26 6 565.94 36
-16 26 -6 570.14 39.6
-6 16 -26 600.04 31.9
26 6 16 634.54 41.2
-26 16 6 577.54 36.2
16 -26 -6 605.14 35.4
-16 -26 6 469.85 81.19
16 8 26 151.68 21.2
16 -8 -26 188.38 17.8
-8 16 26 260.97 28.2
-26 16 -8 162.98 18.6
26 -8 16 221.48 26.9
-8 16 26 176.48 26.2
26 -16 -8 170.18 21.2
16 -26 8 158.58 24.8
-26 8 16 194.88 26.8
16 26 -8 176.28 18.7
8 26 16 218.98 24.8
-8 -26 16 161.88 33.5
-16 -8 26 190.68 45.4
-16 26 8 184.98 23.3
-8 26 -16 149.99 17
8 -16 26 188.98 37.5
-26 16 8 169.08 24.7
8 -26 16 167.58 35.1
26 -16 8 181.48 23.6
-16 26 -8 216.28 22.5
8 16 26 236.48 26.8
16 26 8 210.18 22.9
-8 -16 26 217.08 41.2
-16 8 26 243.48 39.6
26 8 16 221.48 25.8
8 16 26 192.78 27.7
-8 16 -26 173.98 24.3
-26 8 -16 154.68 17.6
16 -8 26 121.59 34.5
8 -16 -26 199.68 20.3
26 -8 -16 180.68 17.6
16 -26 -8 150.18 21.2
26 -16 8 172.18 24.6
8 26 -16 147.79 17.2
-16 -10 26 44.2 40.3
10 26 16 63.49 15.9
16 26 -10 45.3 10
-26 16 -10 36.5 10.6
16 10 26 39.6 17.9
16 -26 10 49.4 20.7
-10 -26 16 49.2 32.3
16 -10 -26 47.6 9.7
10 -16 26 48.8 30.3
26 -16 -10 55.09 12.5
-16 26 10 45 14.6
26 -10 16 33.8 14.9
-26 10 16 47.5 17.3
-10 26 -16 34.9 9.4
10 16 26 48 16.3
10 26 -16 39.5 9.7
-16 26 -10 64.79 12.6
16 -10 26 59.69 29.9
26 -16 10 63.59 15
10 -26 16 30.4 29.4
-10 -16 26 61.39 38.9
-26 10 -16 42.1 9.7
16 26 10 27.8 20.6
26 -10 -16 36.3 9.5
10 -16 -26 62.29 12.1
26 -16 10 45.5 16.6
-26 16 10 38.9 14.7
16 -26 -10 25.4 17.6
10 16 26 43.1 18.8
-10 16 -26 54.29 14.7
-12 26 -16 80.79 10.6
16 -26 12 124.59 24.8
16 12 26 86.49 17.2
16 26 -12 69.79 9.2
-16 26 12 84.59 16.4
12 26 16 49.8 17.2
16 -12 -26 101.89 14
-16 -12 26 207.68 65.69
-26 12 16 64.79 17.7
-12 -26 16 68.69 37.3
12 -16 26 79.39 28.3
26 -12 16 83.49 18.2
12 -26 -16 142.69 21.6
26 -16 -12 77.49 13.1
-26 16 -12 90.79 12.1
16 -26 -12 74.49 18.3
12 26 -16 78.19 10.7
26 -16 12 96.49 20
-26 16 12 87.49 15.6
16 -12 26 149.09 31.8
12 -16 -26 72.49 12
-26 12 -16 95.69 11.1
-12 -16 26 194.88 42.4
26 -12 -16 93.89 11.9
-16 26 -12 75.29 11.8
12 -26 16 44.6 24.9
12 16 26 98.69 17.9
18 26 0 -27.4 21.5
0 18 26 14.4 16.6
-26 0 -18 4 16.3
26 0 18 26.5 15.8
26 -18 0 17.5 14.5
-18 0 26 47.6 47.6
0 18 -26 -6.9 12.9
18 0 -26 5.1 10.6
-18 26 0 5.7 14.3
0 26 18 -15.5 16.3
18 -26 0 12.1 18
0 26 -18 10.1 9.1
-26 0 18 6.1 17.4
0 18 26 3.6 15.5
18 0 26 29.1 17.4
0 -26 18 -28.7 47.7
26 0 -18 -23.3 13.1
-26 18 0 -15.1 18.9
26 -2 18 78.39 17.3
18 2 26 48.8 17.8
-26 2 18 129.69 20.6
-2 18 26 98.79 17.6
-26 18 -2 80.69 23.1
-18 -2 26 35.3 49
-2 18 26 86.69 18.9
18 -2 -26 90.29 11.7
26 -18 -2 84.49 15.9
-2 -26 18 -32 39.2
2 18 -26 95.69 16
-18 26 2 87.59 16.5
2 26 18 83.49 17
-2 26 -18 87.99 11.2
2 -18 26 88.29 47.8
18 -26 2 100.29 21.1
-26 -2 18 94.99 19.4
18 -26 -2 112.79 20.4
26 -2 -18 84.29 12.6
26 -18 2 118.69 17.2
-2 26 18 103.09 18.3
-18 26 -2 62.19 17
26 2 18 99.19 18.4
18 26 2 63.89 25
2 18 26 74.99 17.3
-18 2 26 97.49 41.6
2 18 26 60.09 16.9
-26 18 2 85.89 19.7
18 -2 26 100.89 20.6
18 2 -26 74.79 13.8
2 26 -18 138.79 16.5
-2 18 -26 61.89 13.4
-2 -18 26 248.68 59.69
-26 2 -18 80.79 13
-4 26 -18 317.17 20
26 -4 18 313.07 28.8
-26 4 18 314.07 32.7
4 18 -26 323.57 27.1
4 26 18 290.87 25.3
-4 18 26 311.67 28.5
26 -18 -4 336.17 25.5
-18 -4 26 311.67 55.89
18 4 26 326.47 30.7
18 -4 -26 319.07 19.8
-26 18 -4 327.57 25.9
-18 26 4 329.27 25.5
18 -26 4 342.07 33.1
-4 -26 18 325.97 51.69
4 -18 26 212.18 43
-4 18 26 335.97 30.6
26 -18 4 317.27 28
-26 18 4 316.07 29.2
-26 4 -18 337.87 21.9
18 -26 -4 289.77 31.3
4 18 26 300.87 30.4
-4 -18 26 351.46 52.89
18 26 4 339.37 38.8
-18 4 26 191.38 51.29
-4 26 18 304.37 32.3
26 -18 4 342.57 25.4
-26 -4 18 288.37 31.8
-18 26 -4 271.37 29
26 -4 -18 311.47 20.6
18 -4 26 298.27 44
4 18 26 297.77 27.1
18 -4 26 266.77 34.3
26 4 18 256.27 31.3
4 26 -18 328.77 20.2
-26 6 18 227.58 28.5
18 -26 6 269.17 34.2
-18 26 6 254.07 24.3
-6 26 -18 249.38 17.9
-6 18 26 302.77 25.9
26 -6 18 240.38 26.3
-6 18 26 362.66 31.4
18 -6 -26 255.87 18.6
26 -18 -6 257.67 24
6 26 18 244.78 23.1
-18 -6 26 190.78 51.69
6 -18 26 397.16 54.89
-26 18 -6 250.17 22.5
18 6 26 246.78 27.7
-6 -26 18 213.88 38.4
-6 -18 26 185.18 48.1
-6 18 -26 264.17 22.6
6 18 26 261.67 28.4
26 -18 6 265.27 28.9
6 -26 18 248.18 44.3
26 -18 6 307.87 28.1
26 -6 -18 239.78 18.4
18 -6 26 271.07 39.1
18 -26 -6 261.37 29.2
-26 6 -18 257.17 19.1
-18 6 26 333.67 62.39
-26 -6 18 272.17 30.8
6 18 26 282.67 25.4
-26 18 6 270.97 26.1
6 26 -18 253.07 18.1
26 6 18 255.37 32.2
18 -6 26 265.97 27.6
-8 26 -18 43.5 9.5
-18 26 8 60.99 14.2
18 -8 -26 33.2 8.8
18 26 -8 33 8.8
18 -26 8 76.39 20.7
-8 -26 18 -12.2 34.3
8 26 18 69.49 15
26 -8 18 27.7 15.5
18 8 26 46.5 16.7
8 -18 26 46.8 31.2
-26 18 -8 46.9 10.7
26 -18 -8 17.1 13.6
-26 8 18 49.7 21
-8 18 -26 43.5 13.3
8 18 26 51.09 18.3
26 -18 8 39.5 16.3
26 8 18 73.69 22.9
-26 -8 18 31.1 19.3
26 -8 -18 37.4 9.8
-26 18 8 37.7 15
8 26 -18 30.4 9.4
8 -26 18 63.09 36
-26 8 -18 35.1 10.2
18 -26 -8 14.7 17.5
8 18 26 68.69 17.1
18 -8 26 -21 34.1
-8 -18 26 17 40.3
18 -26 10 -29.2 21.9
18 10 26 21.7 16
18 26 -10 10.3 6.9
26 -10 18 12.4 15.6
10 26 18 -1.1 14.2
-18 26 10 -21.4 12.2
-10 26 -18 -14.8 8.7
-26 18 -10 -0.3 9.8
10 -18 26 25.9 29.4
26 -18 -10 -1.2 13.3
18 -10 -26 3.1 7.8
10 18 26 10.6 17.6
10 26 -18 16.3 8.3
18 -26 -10 33.2 18.5
-26 18 10 -15.6 14
-26 10 -18 12.3 9.1
10 -26 18 41.2 33
10 18 26 -23.1 17.3
26 -10 -18 -3.9 9
18 -10 26 -15.7 33.9
0 26 20 25.7 15.3
20 -26 0 -1 20.6
20 0 -26 1.6 11.5
26 0 20 38.3 16.7
0 20 -26 30.8 13.4
0 20 26 32.8 14.4
-26 20 0 0.5 18.7
0 20 26 50.09 15.1
20 0 26 42.5 17.8
-20 26 0 -6.2 14.6
20 -2 -26 16.1 9.9
-20 26 2 -0.8 14
-2 20 26 20.3 15.7
26 -2 20 17.5 14.4
20 2 26 14.7 15.6
2 20 -26 5.1 18.8
2 26 20 0.8 13.8
-2 20 26 25.3 14.2
-2 26 -20 17.5 8.8
20 -2 26 -29.6 16.1
2 20 26 -15.4 14.1
26 -20 2 -9.3 13.7
-20 26 -2 2.8 16.9
2 20 26 3.5 13.7
-2 20 -26 -27.5 13
20 -26 -2 -3 20.8
26 -2 -20 3.2 12
-26 20 2 -3.4 16.3
2 26 -20 -12.5 8.5
-2 26 20 -7.6 17
26 2 20 19.4 15.7
20 -4 -26 59.39 10.1
4 26 20 74.39 14.2
-20 26 4 42.1 13.3
20 4 26 53.59 15.8
-4 20 26 62.89 18.2
-4 20 26 27.6 13.2
-4 26 -20 78.39 10.4
20 -26 4 62.69 21.6
26 -4 20 51.99 15.1
20 -26 -4 95.09 22.1
4 20 26 64.49 16
4 26 -20 71.09 9.8
26 -20 4 56.49 16.5
-4 20 -26 75.29 15.2
26 4 20 60.89 17.1
4 20 26 69.19 15
20 -4 26 89.09 18.9
-26 20 4 52.89 15.8
26 -4 -20 87.19 11.7
-4 26 20 39.7 35.5
20 -6 -26 57.99 9.7
20 6 26 70.99 15.8
-6 26 -20 58.69 9.6
20 -26 6 76.79 23.1
26 -6 20 92.89 16.2
6 26 20 76.69 15.1
-20 26 6 69.39 12.8
-26 20 6 68.99 16
6 20 26 28.5 17.3
26 6 20 37.8 18.8
6 26 -20 75.59 9.9
20 -26 -6 62.29 22.5
6 20 26 71.79 15.5
26 -6 -20 73.59 10.6
1 -1 27 43.9 49.5
-1 27 1 45 25.5
1 1 27 59.99 28.5
-1 27 -1 68.19 26.1
-1 1 27 59.29 43.3
-27 1 -1 22.1 24
1 1 27 139.39 50.09
1 27 1 33.7 19
27 1 -1 66.99 24.9
27 1 1 20.7 22.6
-1 1 27 38.7 26.9
-1 -1 27 20.4 46
27 -1 -1 64.79 18
27 -1 1 50.49 18
27 1 -1 71.49 20.1
27 1 1 65.29 19.3
-1 -27 1 78.79 39
-1 -1 27 67.79 38.8
1 -27 -1 48.5 29.8
1 -27 1 52.59 30.7
1 -1 27 26.2 39.7
1 1 27 82.39 40.3
1 -1 27 115.59 40
1 1 27 14.6 30.9
1 27 -1 81.39 24.5
1 27 1 59.89 25.4
-1 27 1 14.3 17.3
1 27 -1 67.89 20.7
27 -1 1 62.19 21.4
-1 -27 -1 33.9 36.5
-1 -1 27 22.1 64.69
-1 1 27 31.2 35.8
-27 -1 -1 67.29 26.3
-1 27 -1 52.49 20.7
-27 1 1 41.5 24.2
-27 -1 -3 49.4 27.4
3 -27 1 58.49 26.2
-1 3 27 77.29 44.6
3 1 27 51.89 26.7
-27 1 3 38 22
-1 27 -3 26.9 18.9
-3 27 1 41.7 20.5
27 1 -3 66.19 19.6
3 27 -1 43 18
-1 3 27 31 30.2
-27 3 -1 2.6 24.7
3 1 27 55.59 30
27 3 1 46.3 38.2
-3 -1 27 20.8 41.5
27 -1 3 41.4 19.6
27 3 1 45 20.6
3 1 27 -62.39 59.69
1 -27 -3 -3 26.2
1 -3 27 -24 40
-3 27 1 14.9 27.8
3 1 27 21.6 38.8
27 -3 -1 59.49 18.6
1 27 3 37.8 19.1
-1 3 27 60.29 25.2
1 27 3 67.89 24.7
3 27 -1 60.49 23.8
27 -1 3 38.9 16.9
1 -3 27 80.39 51.39
-1 27 -3 12.7 24.4
1 27 -3 50.79 22.4
27 3 -1 49.99 21.3
-27 1 -3 50.49 29.6
-3 27 -1 50.19 26.2
3 27 1 33.8 19.3
-1 27 3 35.6 24.8
-1 -27 -3 94.49 33.1
27 1 3 30.6 19.1
3 -1 27 99.89 87.99
3 -1 27 35 39.6
-1 27 3 26.7 18.9
3 -27 -1 50.69 25.8
-27 3 1 79.39 23.7
-3 1 27 62.89 38.4
3 -1 27 -30.6 34.4
-1 -3 27 -1.7 41.8
27 -1 -3 45.2 15.9
1 3 27 -13.5 27.2
-3 1 27 -11.5 41.5
27 1 3 74.49 22
1 -27 3 58.19 33.9
1 3 27 -15.7 46.8
-1 -3 27 -29.3 44.2
-3 27 -1 -8.1 16.6
3 27 1 46.5 24.6
1 27 -3 59.29 20.5
1 3 27 38.5 25.8
3 -1 27 77.49 26.8
27 -3 1 49.9 17.8
-3 -3 27 180.08 47.3
3 3 27 248.98 36
-3 27 -3 251.67 32.5
3 3 27 300.07 57.99
-3 27 3 242.08 34.1
3 27 -3 263.07 30.4
3 27 3 222.88 33.4
27 -3 3 252.07 26.4
3 27 3 286.97 40.2
-3 27 -3 306.37 46.6
3 -27 -3 250.37 29.8
3 -27 3 234.78 32.3
3 -3 27 184.48 47.7
27 3 3 207.98 29.2
-3 3 27 301.07 36.5
-27 3 3 293.27 40
-3 3 27 221.28 46.7
3 -3 27 206.68 50.79
27 -3 3 231.78 30.6
-27 3 -3 279.57 33.6
27 -3 -3 238.98 26.9
27 3 -3 243.28 26.5
-3 -3 27 195.08 47
3 3 27 188.58 28.7
27 3 3 290.67 37.4
-3 27 3 263.37 33.4
3 27 -3 249.38 32.9
-3 3 27 130.09 33.7
1 27 5 191.88 27.5
-1 27 -5 192.68 21.2
5 27 -1 162.88 22.9
5 -27 1 152.28 27.2
1 -5 27 149.59 49.4
-1 5 27 138.69 27.4
5 -1 -27 227.88 44.2
-1 5 27 202.28 32.7
1 -5 27 107.09 53.99
27 -1 5 200.78 25.5
5 1 27 184.68 29.1
5 27 -1 220.48 28.7
-5 -1 27 209.28 43.9
5 1 27 166.68 33.8
27 -1 5 160.88 21.9
-5 27 1 183.48 25.2
1 27 5 162.08 21.9
27 -5 -1 134.19 18.8
-5 27 1 234.28 36.6
-27 1 5 147.89 23.3
-27 5 -1 183.18 27.8
-1 27 -5 231.88 32.6
-1 27 -5 207.08 27.8
5 1 27 216.58 45.9
-1 5 27 277.27 46.2
27 1 -5 189.08 28.4
1 -27 -5 187.58 29.4
1 -27 5 197.88 40.5
27 1 5 200.28 25.8
1 5 27 103.09 47.1
5 -1 27 152.38 29.2
5 27 1 130.49 25.4
-1 27 5 207.78 25.6
5 27 1 216.08 31
1 27 -5 179.98 27.6
-5 27 -1 211.28 37.5
5 -1 27 169.68 37.3
-1 27 5 187.78 27.7
-1 -27 -5 198.28 34.4
1 5 27 182.98 30.7
-1 -5 27 200.98 51.39
-1 -5 27 262.87 50.99
-27 5 1 240.28 28.4
1 27 -5 212.88 24.3
5 -1 27 161.08 43.4
27 1 5 264.27 32.1
5 -27 -1 197.28 28.7
-5 27 -1 142.29 22.4
27 -1 -5 176.18 20.4
-5 1 27 178.18 43.3
1 27 -5 203.58 29.2
27 -5 1 212.88 29
1 5 27 131.69 28.2
5 27 -3 438.86 41.1
-5 27 3 464.55 38
5 27 -3 375.86 36.3
-5 -3 27 385.06 51.59
-3 5 27 435.46 53.09
3 27 5 486.75 37.8
3 -27 -5 415.66 43.2
-3 5 27 432.26 45.5
-27 3 5 454.95 41.1
-27 5 -3 406.56 53.19
27 -3 5 485.95 35.3
27 -3 5 463.75 36.9
3 -5 27 521.45 75.79
3 27 5 524.35 44.9
5 3 27 442.86 52.39
5 3 27 435.46 63.99
-5 27 3 445.26 58.59
-3 5 27 434.76 62.49
5 3 27 334.97 48.1
5 27 -3 498.45 35.6
-3 27 -5 452.35 37.7
27 -5 -3 465.85 31.1
-3 27 -5 464.05 35
27 3 -5 471.15 39.4
5 -3 -27 586.34 65.09
5 -27 3 400.76 48.6
-3 27 -5 494.45 51.09
-3 -5 27 511.55 68.59
5 -3 27 460.05 50.49
-5 27 -3 537.45 56.19
27 -5 3 482.05 35.1
3 27 -5 444.66 32.9
3 27 -5 525.85 36.2
-5 3 27 461.75 44.4
3 5 27 480.15 61.59
5 27 3 429.36 34.5
3 -27 5 360.26 56.29
3 -5 -27 569.74 56.59
27 3 5 463.15 41
-5 3 27 449.26 61.89
3 5 27 509.65 46
-3 27 5 452.35 49.5
3 27 -5 404.16 40.6
3 5 27 494.35 50.39
-3 -5 27 384.46 56.29
-3 27 5 420.86 37.7
5 -27 -3 418.76 40.7
27 -3 -5 465.95 31.6
27 3 5 426.36 50.69
-5 27 -3 464.15 37.6
5 27 3 430.96 41.4
5 -3 27 493.55 77.69
5 -3 27 501.95 50.79
-27 5 3 391.56 42.6
-5 3 27 421.76 49.1
-5 5 27 678.03 60.39
-5 27 -5 793.02 44
27 -5 5 789.72 42.9
-27 5 5 751.92 47.4
-5 27 -5 809.92 69.09
-5 -5 27 804.22 71.29
5 5 27 743.23 50.79
5 27 -5 802.62 48.1
5 5 27 863.81 58.49
-5 27 5 839.82 45.1
27 -5 -5 808.52 39.8
-5 5 27 809.32 52.59
5 27 5 838.22 50.39
5 -5 -27 719.43 71.69
5 -5 27 804.72 78.19
27 -5 5 765.52 43.6
-5 5 27 780.12 67.79
27 5 5 889.01 64.39
5 27 5 787.52 43.9
-5 27 5 838.02 59.29
5 -27 5 827.12 55.79
-5 27 -5 784.42 44.1
5 27 -5 764.12 40.4
5 -27 -5 698.73 49.9
1 27 7 39.6 22
27 -1 7 39.8 19.9
-1 7 27 26.5 22.6
-27 7 -1 91.39 26.9
7 1 27 25.5 35.9
-1 27 -7 51.49 20.1
-1 7 27 59.29 26.8
1 -7 27 21.8 44.1
1 27 7 39.4 18.3
-27 1 7 47.5 20.6
-7 -1 27 41.2 37.3
7 1 27 18.1 26.5
1 -7 27 177.78 57.09
7 27 -1 52.09 22.4
-7 27 1 63.39 19.6
7 -1 -27 135.29 54.69
7 1 27 44.2 27.6
27 1 -7 53.89 17.1
-1 27 -7 62.19 16
-1 7 27 23.4 41.2
27 -1 7 34.1 17.1
7 -27 1 42.9 23.6
-1 27 -7 47.4 24.2
27 -7 -1 40.3 14.6
-27 7 1 40.1 21.7
7 -1 27 49.2 39.4
7 -27 -1 80.69 23.7
1 -7 -27 16.5 30.9
1 7 27 14.6 22.8
-7 1 27 54.39 25.6
7 -1 27 47.2 26.6
-1 27 7 32.1 18.9
1 27 -7 36.7 17.6
-7 1 27 44.8 39
-1 27 7 4.7 23.2
1 27 -7 38.5 22.3
7 27 1 33.4 23
27 1 7 29.3 18.1
1 27 -7 64.79 15.7
1 7 27 19.9 24.3
7 -1 27 62.29 30.4
-7 27 -1 52.29 19.7
27 1 7 50.89 21.7
27 -1 -7 47.9 14.7
27 -7 1 57.79 17.2
-1 -7 27 17.8 45.6
1 7 27 103.19 44.6
-1 -7 27 0.5 45
1 -27 7 93.69 69.09
-7 -3 27 302.07 48
7 3 27 320.97 36.4
27 -3 7 369.26 32.4
-7 27 3 337.37 34.7
3 27 7 314.57 34.5
3 -7 27 296.27 48.4
-3 7 27 256.47 33.2
27 -3 7 299.77 33.4
27 3 -7 324.37 34.5
7 3 27 297.17 45.5
27 -7 -3 344.97 27.6
-27 7 -3 362.96 46.1
-3 27 -7 259.57 31.7
7 27 -3 295.87 32.6
-3 7 27 320.87 41.8
-3 27 -7 299.97 29.5
7 3 27 349.67 46.8
7 -27 3 276.47 31.7
-3 27 -7 290.57 35.1
7 -3 -27 317.17 53.39
-3 7 27 322.57 45.9
3 27 7 319.47 38.3
-27 3 7 284.27 37.4
-3 -7 27 226.98 55.19
3 7 27 353.46 44.6
7 -3 27 313.77 36.1
27 3 7 286.17 44.1
27 -3 -7 283.97 27.1
27 -7 3 277.27 30
3 7 27 323.87 39
7 -3 27 259.07 47.3
27 3 7 266.27 37.4
7 -27 -3 274.97 36.9
-27 7 3 273.07 36.5
3 27 -7 270.47 27.9
7 27 3 329.07 37.4
-7 3 27 237.48 45.2
7 -3 27 260.77 40.1
-7 3 27 294.77 44.4
3 -7 -27 234.38 37.7
-7 27 -3 284.47 35.7
-3 27 7 286.67 33.3
3 -27 7 347.27 41.6
-3 -7 27 266.77 46.7
-3 27 7 310.07 33.7
3 7 27 263.77 53.29
3 27 -7 199.58 26.2
7 5 27 625.54 51.29
-5 7 27 606.04 49.8
-7 27 5 687.13 41.9
7 5 27 617.34 49.3
5 27 7 626.74 39.1
27 -5 7 631.04 38.7
7 27 -5 672.63 36.7
-5 27 -7 646.44 35.8
27 -5 7 640.44 40.1
5 27 7 644.24 44.6
5 -7 27 754.72 72.09
-5 27 -7 609.24 42.5
27 -7 -5 661.63 35.6
-27 5 7 645.44 43.5
-5 7 27 683.83 62.59
7 -27 5 644.24 50.39
-5 7 27 545.65 51.59
-7 -5 27 806.52 72.99
7 27 -5 602.24 43.9
7 -5 -27 593.34 69.49
5 7 27 707.33 53.99
-7 27 -5 643.34 42
5 27 -7 646.84 45.6
-27 7 5 620.94 44.4
-5 27 7 642.64 52.69
-7 5 27 709.43 50.59
-5 -7 27 593.44 67.89
7 -5 27 595.34 56.49
5 -27 7 722.73 59.19
7 27 5 665.03 46
7 -27 -5 651.93 45.6
5 7 27 649.34 47.6
-5 27 7 672.53 42.8
27 -7 5 638.54 39.1
27 -5 -7 644.94 35
7 -5 27 738.03 73.79
-7 27 -5 626.64 37.8
5 -7 -27 639.44 65.19
5 27 -7 634.74 35.1
-7 5 27 641.84 66.19
27 -7 5 642.04 39.2
27 5 7 613.84 52.89
-7 7 27 443.26 57.89
-7 -27 7 480.45 41.8
-7 27 7 460.95 36.8
7 -27 7 407.46 55.09
-7 7 27 450.55 46.8
7 27 -7 492.05 28.5
-7 27 -7 425.06 29.5
-7 -7 27 416.16 59.39
7 7 27 468.45 44.1
27 -7 7 502.45 34
7 7 27 427.66 47.2
7 27 -7 370.26 39.6
7 -7 -27 592.14 70.89
7 -27 7 410.46 49.99
7 -7 27 480.15 68.09
-7 27 -7 401.26 38.8
-7 7 27 462.85 46.6
27 -7 -7 488.15 30.2
7 -7 27 515.65 51.99
27 -7 7 386.66 33.7
7 27 7 463.85 39.8
-27 7 7 467.75 40.9
27 -9 -1 44.7 15.4
-1 27 -9 43.3 23.2
-1 9 27 36 24.2
9 1 27 34 38.2
-27 9 -1 -1.1 23.4
27 -1 9 31.2 19.7
-1 9 27 -5.6 38.2
-1 27 -9 24.8 13.6
9 1 27 52.89 25.6
-27 1 9 19.4 18.9
1 27 9 52.09 22.4
27 -1 9 64.69 18.7
9 1 27 51.59 26.6
1 27 9 29.2 19
-1 -27 9 20.9 26.1
27 1 -9 23.9 15.5
9 27 -1 45.2 20.8
-9 -1 27 4.5 35.9
-1 9 27 35.8 23.4
-9 27 1 13.9 18
9 -27 1 22.1 21.8
-1 27 -9 36 19.9
-1 -9 -27 59.69 35
1 -9 27 -49.5 54.09
1 -9 27 43.1 45.7
1 27 -9 8.4 21
1 9 27 6.9 23.7
-9 1 27 29.6 36.9
9 -1 27 36.2 29.9
1 9 27 105.39 40.7
27 1 9 34.9 18.6
-1 27 9 31.5 23.1
27 -1 -9 13.5 14.5
1 27 -9 43.4 14.4
-9 27 -1 20.5 18.9
27 -9 1 47.5 16.1
1 9 27 63.79 24.2
-1 27 9 40.1 19.6
-1 -9 27 105.79 48.2
9 27 1 42.4 22.8
9 -1 27 28.2 27.8
1 -27 9 -8 27
27 1 9 40.8 21
9 -27 -1 18.8 22.3
-27 9 1 23.4 22.1
-9 1 27 24.6 27.1
9 -1 27 38.3 39.3
-1 -9 27 -16 44.8
1 -9 -27 11.1 36.6
-9 27 3 23.1 18.3
27 -3 9 16.8 15.7
-3 9 27 32.3 23.1
27 -9 -3 31.5 14.6
-9 -3 27 10.7 37.7
27 3 -9 22.5 17.7
-27 3 9 38.5 18
-3 -27 9 18.3 25
-3 9 27 57.99 38.2
9 -27 3 29.9 23.5
27 -3 9 3.8 17.2
9 3 27 24.2 26.2
3 27 9 14.8 19.9
3 27 9 1.8 17.6
-3 -9 -27 6.1 35.6
9 27 -3 17.4 16.8
-3 27 -9 25.5 19.3
9 3 27 19.2 23.1
9 27 -3 15.5 18.1
3 -9 27 -15 37.2
-3 27 -9 23.2 13.8
-3 9 27 52.49 22.6
9 -27 -3 46.9 21.4
3 -27 9 86.59 30.1
27 3 9 21.8 19.7
9 27 3 33 21
27 3 9 -1 22.5
3 27 -9 10 20.7
3 9 27 3.2 23.1
3 9 27 32.6 24.5
3 -27 9 27.6 35.8
-3 -9 27 -31.5 41.6
-27 9 3 19 19.7
3 -9 -27 13 35.5
27 -3 -9 10.9 13.2
-9 3 27 61.99 26.7
9 -3 27 16.7 32.6
3 27 -9 11.5 12.8
27 -9 3 18.1 16
-3 27 9 26.3 24.3
-9 3 27 2.7 35.9
-3 27 9 31.2 18.4
9 -3 27 20.4 39.7
-3 -9 27 2.8 49.1
-9 27 -3 -8.2 17.7
9 5 27 208.98 28.4
-5 27 -9 162.58 23.7
5 -9 27 173.88 43.2
-5 9 27 149.39 40.1
9 27 -5 194.28 24.9
27 -5 9 117.99 18
5 27 9 127.39 22
9 27 -5 179.18 18.8
-5 27 -9 195.28 23.7
9 5 27 123.29 26.2
-9 -5 27 155.18 41.3
-5 9 27 173.38 27.4
-27 5 9 107.09 20.1
27 -5 9 133.19 20.3
9 -27 5 195.78 27.9
27 -9 -5 167.38 19.2
-5 9 27 193.88 28.4
-5 -27 9 144.79 26.4
-9 27 5 226.58 31.6
-5 27 9 193.38 29.4
-9 5 27 147.59 27.5
-27 9 5 161.78 23.5
5 27 -9 222.38 26
-5 -9 27 141.39 42.1
27 -9 5 176.68 20.5
5 -27 9 188.18 37.1
5 9 27 162.08 24.9
27 -5 -9 180.18 23.2
-9 5 27 166.18 39.7
-9 27 -5 165.68 21.9
-9 -27 5 200.88 30.2
5 -27 9 222.58 33.2
9 -5 27 105.09 41
5 -9 -27 199.48 39.1
-5 27 9 187.08 23.2
27 5 9 187.08 28.6
-9 5 27 182.78 29.1
9 -27 -5 242.98 34.9
9 -5 27 148.09 35.8
9 27 5 160.18 23.1
27 -9 5 182.98 27.3
5 27 -9 171.68 23
5 9 27 204.08 29
27 -7 9 68.39 15.1
-7 9 27 105.99 36.8
-7 -27 9 67.99 27.6
9 7 27 38.6 22.2
-7 27 -9 69.99 21
-9 27 7 73.59 18.6
27 -7 9 101.19 19.5
9 -27 7 105.19 25.7
7 -9 27 79.69 37.8
-7 27 -9 73.89 13.6
27 -9 -7 60.69 13.2
-9 -7 27 94.99 38.2
7 27 9 98.59 21.7
9 -7 -27 98.99 15.7
9 7 27 93.89 25.2
9 27 -7 49.4 20.6
-7 9 27 92.69 22.8
-27 7 9 31.4 17.5
9 27 -7 63.69 14.1
-7 9 27 98.69 24.2
-9 27 -7 65.99 19.2
9 7 -27 83.59 16.3
9 27 7 94.29 21.4
7 9 27 69.39 22.7
7 -27 9 106.69 28.1
9 -27 -7 115.19 22
7 27 -9 57.79 20.1
7 -27 9 173.18 53.79
27 -9 7 75.39 16.1
-27 9 7 102.99 20.8
27 -7 -9 87.89 14.9
-7 -9 27 1.2 37.3
7 9 27 62.59 21.9
27 -9 7 86.09 17.6
-7 27 9 42 17.6
-9 7 27 106.69 23.7
-9 27 -7 72.69 15.7
27 7 9 51.89 34.7
-9 -27 7 83.19 25.4
-9 7 27 99.29 36.8
-9 7 27 88.79 24.2
7 27 -9 102.09 14.5
9 -7 27 27.3 35.5
9 9 27 40.8 20.2
9 9 27 20.2 19
9 27 -9 27.6 12.3
9 -27 9 17.7 24
-9 9 27 -2.3 22.8
9 -9 27 32.7 33.3
9 27 -9 -3 16
-9 9 27 7 20.4
-9 -27 9 20.6 25.1
27 -9 9 40.2 15
-9 -9 27 -17.1 36.4
27 -9 9 14.3 12.4
27 -9 -9 18 11.2
-27 9 9 7.1 16.9
-9 27 9 13 16.5
-9 9 27 73.09 34.6
-9 27 -9 5.8 12.5
9 -9 -27 7.7 10.9
9 27 9 41.1 18.2
-9 27 -9 11.9 21
-1 11 27 24.8 20
27 -11 -1 13.6 13.2
-11 -1 27 9.9 36.7
1 27 11 7.2 19.6
1 -11 27 24 39.6
11 1 27 32.7 35.7
-27 1 11 8 16.7
11 -1 -27 -8.4 12.3
-11 -1 27 36.2 25.6
1 27 11 28.3 18.1
27 -1 11 -6.6 14.9
-1 -27 11 76.59 29.6
-11 27 1 9.4 18.2
11 -27 1 -1.1 20.7
11 1 27 8.3 21.7
-1 11 27 17.1 22.1
-27 11 -1 -3.6 19.5
-1 27 -11 11.4 11.7
11 1 27 -5 48.1
1 -11 27 -30.9 57.09
11 27 -1 -0.4 18.8
27 1 -11 2.6 14.1
27 -1 11 2.5 17.7
27 1 11 1.1 18.7
-27 11 1 37.2 19.8
11 -1 27 35.1 23.7
27 -11 1 2 14.2
1 11 27 14.5 21
11 1 -27 8.7 12.1
-1 -11 27 -69.29 47.3
-1 27 11 1.8 20.1
27 1 11 26.4 17
-27 -1 11 6.8 17.1
-11 1 27 25.4 24.8
-11 27 -1 -21.6 16.5
11 27 1 39.7 20.6
1 11 27 -5.4 19.3
1 -27 11 1.8 30.7
1 27 -11 20.9 12
-11 1 27 12.5 35.5
11 -27 -1 -8.7 20.1
11 -1 27 72.89 37.2
27 -1 -11 -16.3 12
1 -11 -27 15.3 67.89
-1 -11 27 74.59 46.5
-1 27 11 30.8 18.1
-3 11 27 7.8 31.8
-27 11 -3 39.4 23.8
27 -11 -3 36.1 14.4
-27 3 11 39.7 17.5
27 3 -11 49.2 19.3
11 27 -3 41.8 16.6
11 -3 -27 18.7 12.4
27 -3 11 39.1 19
-3 11 27 74.19 22.2
-3 27 -11 38.1 12.2
27 -3 11 46.8 16.2
-11 -3 27 119.99 37.8
-3 11 27 34.9 20.2
11 3 27 65.69 24.3
11 27 -3 37.7 19.4
3 -11 27 20.7 37.2
-3 -27 11 38.1 26.7
-11 27 3 68.99 18
3 27 11 34 19.5
11 -27 3 36.2 23.1
11 3 27 -12.4 30.4
3 27 11 27.9 20.1
27 3 11 54.59 20.3
-11 3 27 54.89 35.7
11 -27 -3 7.5 19.3
11 -3 27 43 26.5
-3 -11 27 92.99 44.2
-3 27 11 40.9 18
-27 11 3 13.1 17.8
-3 -11 27 -26 51.29
3 27 -11 48.1 12.1
-11 -27 3 86.49 27.3
-3 27 11 52.49 22.9
-11 27 -3 57.99 17.6
27 -3 -11 49.7 12.2
11 3 -27 21.2 13
-11 3 27 40.4 25.6
3 11 27 17 20
3 11 27 41.6 21.7
3 -27 11 12.7 36
11 27 3 12.4 18.8
11 -3 27 140.59 40.1
3 -27 11 51.09 34.8
27 -11 3 20.5 15
11 27 -5 204.28 29.3
-5 11 27 168.38 24.4
-5 11 27 131.09 34
11 5 27 207.38 31
11 -5 -27 189.88 21.4
-11 -5 27 93.89 39.4
5 27 11 141.99 21.5
-5 27 -11 149.99 15.7
-27 5 11 116.09 19.3
27 -5 11 179.98 24.1
27 -5 11 129.99 19.5
11 5 27 170.68 24.8
5 -11 27 191.88 40.1
11 -27 5 105.69 22.7
-5 11 27 178.08 25.9
11 27 -5 186.38 24.5
-11 27 5 198.68 27.2
27 -11 -5 187.28 21.5
-5 -27 11 155.38 29.8
11 5 -27 123.09 16.1
5 11 27 125.19 21.9
27 -11 5 155.78 18.4
-5 27 11 204.58 28.8
-5 -11 27 125.79 41.7
-5 27 11 199.18 29.2
11 -27 -5 126.49 20.3
5 -27 11 127.69 32.8
5 27 -11 150.78 20.2
11 -5 27 99.79 31.7
5 -27 11 149.69 43.7
-11 -27 5 115.19 28.4
5 11 27 147.19 23.4
27 5 11 148.89 25.9
11 27 5 141.79 21.1
27 -11 5 125.29 17.5
-11 5 27 173.48 38.3
27 -5 -11 132.49 19.8
-27 11 5 86.29 18.7
11 -5 27 187.98 38.7
-11 27 -5 153.48 20.8
-11 5 27 140.69 28.3
-11 -7 27 59.79 38.7
11 27 -7 65.99 14
7 27 11 27.2 16.7
7 -11 27 57.29 34.6
27 -11 -7 43.7 11.9
-7 -27 11 34.5 25.1
27 -7 11 42.4 15.5
11 27 -7 39 16.9
11 7 27 15.9 25.1
11 -7 -27 36.5 11.3
11 -27 7 68.59 23
-11 27 7 36.5 15.7
11 7 27 57.09 21.8
-27 7 11 54.69 16.8
-7 11 27 51.39 19
27 -7 11 63.59 15.4
-7 27 -11 25.5 11
-7 11 27 38.7 21.8
-7 11 27 19.3 29.9
-11 27 -7 72.19 15.7
7 -11 -27 25.4 11.2
11 27 7 65.49 18.5
27 -7 -11 35.5 11.7
-11 27 -7 44.8 18.8
-7 27 11 77.49 18
27 7 11 49.7 26.7
27 -11 7 57.99 14.9
27 -11 7 39.8 14.2
-11 7 27 36.6 34.3
-7 -11 27 9.6 38.1
7 11 27 38.6 19.2
7 -27 11 4.8 27.4
7 27 -11 35.7 11.4
-11 -27 7 49 30.4
7 11 27 25.8 19.3
11 -7 27 29.3 32.8
-11 7 27 3.6 26.1
11 -27 -7 52.39 18.6
-27 11 7 21.1 14.7
27 -9 11 -3.6 12.4
27 -11 -9 28.9 11
-9 11 27 39.2 19.1
11 -9 -27 17.8 10
11 9 27 -24 17.6
9 27 11 14.6 16.7
9 -11 27 -8.3 32
27 -9 11 31.6 14.8
11 27 -9 6.3 11
11 -27 9 5.8 22.8
-27 9 11 -3.6 15.3
-11 -9 27 24.5 35.3
11 9 27 80.89 24.6
-11 27 9 43.5 16.2
-9 11 27 6 23.2
-9 27 -11 2.6 10.2
-9 -27 11 -26.4 25.8
-9 11 27 -4.8 27.1
9 11 27 -14.5 16.2
9 -27 11 -14.4 24
11 -9 27 13.6 31.1
-27 11 9 0.9 14
-11 27 -9 10.5 12.4
9 -11 -27 -0.3 10
-11 -27 9 26.3 27.2
27 -11 9 31.8 14.8
11 -27 -9 23.6 17.2
27 -9 -11 11 10.5
11 27 9 28.4 17.1
-9 27 11 35.3 16.3
9 11 27 18.6 20
9 27 -11 16.9 11
-11 9 27 85.79 32.1
27 -11 9 0.6 12.7
-11 9 27 25.8 26.5
-9 -11 27 -7.4 35.3
11 -11 -27 23.7 9.7
-11 -11 27 -20.6 34
11 -11 27 12.5 30.3
-11 -27 11 20.8 30.4
-11 27 -11 14.5 11.4
11 -27 -11 3 15.7
11 11 27 41.1 17.5
-11 11 27 39.4 27.8
27 -11 -11 12.8 9.9
11 27 11 20.5 16.9
-27 11 11 6.8 13.3
11 27 -11 27.4 10.6
27 -11 11 32.8 13.8
-11 27 11 16.4 15.6
-11 11 27 -18.5 29.5
27 -11 11 16.4 13.3
11 11 27 57.39 25.7
11 -27 11 6.4 22
27 -1 13 11.2 16.7
1 27 13 15.4 17.9
-1 27 -13 25.6 11.2
-27 13 -1 57.99 20.2
-13 -1 27 34.1 27.6
27 1 -13 -11.8 14.4
-13 27 1 6.9 14.3
27 -13 -1 4.7 11.8
-1 13 27 -16.4 18.4
-13 -1 27 15.2 36.9
13 1 27 -40.7 31.9
13 27 -1 3.5 16.7
-27 1 13 -5.6 15.4
13 1 27 7.4 19.4
-13 -27 -1 44.3 33.7
-1 13 27 0.4 19
-1 -27 13 -53.79 28.8
1 -13 27 -11.1 41
27 -1 13 3.5 14.1
13 -1 -27 21.7 10.6
13 -27 1 14.5 19.3
13 27 1 -12.1 16.9
-1 -13 27 60.09 50.19
-1 27 13 7.6 18.4
-1 -13 27 -21.9 51.29
1 13 27 -5.7 18.3
27 -1 -13 28.5 12.7
13 -27 -1 -16.3 17.9
13 -1 27 22.9 32.6
-13 -27 1 -8.8 30.9
13 1 -27 25.2 11.8
1 13 27 6.5 18.7
27 1 13 21.9 18.4
27 -13 1 12.9 12.8
-13 1 27 28.3 37.6
13 -1 27 29 21.1
1 27 -13 9 10.7
-13 1 27 9.3 27.2
-27 13 1 -4.6 18.5
-13 27 -1 22.8 16.3
-1 27 13 -40.6 20.5
1 -27 13 -15.7 31.7
-27 -1 13 12.3 15.9
-27 13 -3 178.38 26.4
27 -3 13 137.49 18.9
3 27 13 149.99 20.7
-3 -27 13 127.19 31.6
13 3 27 243.38 34.4
-3 13 27 164.68 23.2
-3 13 27 132.69 22.9
27 -13 -3 209.78 22.5
-3 27 -13 163.08 19.6
13 27 -3 145.09 18.7
13 -3 -27 145.29 19
3 -13 27 130.69 40.3
-13 -3 27 140.29 40.1
-13 -27 -3 116.99 40.5
27 -3 13 217.28 24.5
-13 -3 27 173.88 30.6
-27 3 13 133.29 18.9
13 -27 3 135.29 22.8
-13 27 3 157.98 19.4
13 27 -3 180.48 27.3
13 -3 27 164.18 36
27 -13 3 124.79 16.8
13 -3 27 135.99 26.1
3 13 27 171.48 23
-3 27 13 129.79 23.9
3 -27 13 171.58 46.6
-3 27 13 130.09 22.7
-13 3 27 171.68 32.1
3 -27 13 166.88 40.3
27 -3 -13 179.18 20.5
27 3 13 152.08 22.8
-27 -3 13 212.08 28.6
13 3 -27 142.39 21.6
-27 13 3 204.38 30.8
13 -27 -3 134.39 21.7
3 -13 -27 150.78 15.8
3 27 -13 191.18 19.6
-13 3 27 214.18 40.7
-13 -27 3 125.49 34.8
13 27 3 110.69 19.7
3 13 27 183.08 23.9
-3 -13 27 147.79 46.1
27 -13 -5 334.07 24.9
13 27 -5 343.27 31.8
-5 13 27 330.47 34.5
-5 13 27 377.86 34.9
-27 5 13 323.37 30.5
13 -27 5 362.96 36
13 27 -5 290.27 25.8
-5 27 -13 321.37 22.6
-5 -27 13 305.87 41.4
5 27 13 359.76 30.3
27 -5 13 292.37 28.5
5 -13 27 311.07 41.9
-13 -5 27 310.57 44.9
27 -5 13 358.16 27
13 5 27 321.57 35.5
-13 27 5 318.97 28.6
13 -5 -27 335.47 22.9
27 -5 -13 330.27 22.1
-13 5 27 276.37 41.6
5 13 27 316.57 36
13 -27 -5 269.37 31.9
13 -5 27 292.07 41.1
5 -13 -27 337.07 22.3
-13 27 -5 340.07 32.6
13 5 -27 246.18 24.3
5 -27 13 217.98 40.3
-13 -27 5 344.67 48
-5 27 13 289.27 38.3
-27 13 5 321.97 30
13 -5 27 354.06 49.4
27 -13 5 319.27 26.1
13 27 5 312.07 31.1
-13 5 27 292.77 35.9
-5 27 13 305.07 34.5
-5 -13 27 388.96 59.89
27 5 13 227.98 26.5
27 -13 5 344.77 26.5
5 27 -13 279.77 22.3
5 13 27 344.07 32.4
27 -7 13 162.88 22.4
-7 -27 13 125.39 28.1
-13 27 7 120.89 17.5
27 -7 13 160.08 19.5
7 27 13 146.19 19.6
-13 -7 27 151.28 41.8
13 27 -7 124.49 14.9
13 -27 7 105.29 22.7
13 27 -7 148.39 20
27 -13 -7 149.29 19.5
-7 13 27 73.19 21.1
7 -13 27 151.98 35.4
13 7 27 126.09 20.7
-7 27 -13 147.09 18.1
-7 13 27 149.79 21
-27 7 13 117.49 18.7
13 -7 -27 160.88 18.7
7 -27 13 87.79 31.9
13 -7 27 151.08 34.8
-13 7 27 160.78 38.2
7 13 27 165.08 21.8
7 13 27 147.19 21.8
13 27 7 131.59 20
-13 27 -7 154.48 22.1
-7 -13 27 102.39 40.5
27 7 13 149.88 26.2
-7 27 13 130.59 20.2
-27 13 7 106.19 18.1
27 -13 7 170.28 22.6
7 -13 -27 144.19 18.3
-13 27 -7 153.38 18.2
7 27 -13 159.98 17.1
13 -27 -7 96.09 18.4
-13 7 27 134.79 38.9
27 -13 7 158.68 18.4
-13 -27 7 140.79 32.1
27 -7 -13 131.19 17.6
27 -9 13 9.8 11.8
9 -13 27 6.7 30
13 9 27 19.3 18.4
-27 9 13 22.5 14.3
9 27 13 -2.6 15.3
-9 27 -13 17.9 9.7
-13 27 9 9.3 14.6
27 -9 13 28.3 14.2
-9 13 27 21 17
-9 -27 13 -34.6 26.2
13 -9 -27 8.3 8.9
-13 -9 27 -70.09 38
13 27 -9 24 11.2
13 -27 9 13.6 20.9
-9 13 27 -19.6 22.8
27 -13 -9 1 10.3
-13 -27 9 5.6 31.6
9 13 27 20.3 19
13 -9 27 33.4 30.3
9 -13 -27 29.4 10.1
-13 27 -9 28.7 13.2
-9 -13 27 24.1 39.2
27 -13 9 3.7 12.8
13 27 9 19.8 16.9
13 -27 -9 18.2 15.8
27 -13 9 19.4 12.9
-27 13 9 30 15.1
9 27 -13 16.6 10.1
9 -27 13 15.7 27.1
-9 27 13 3.9 17.2
9 13 27 -0.4 16.3
27 -9 -13 1.5 9.2
-13 9 27 18.4 29.4
-11 -27 13 23.2 30.4
13 27 -11 3.6 9.9
13 -11 -27 -5.4 7.9
27 -11 13 13.3 14.2
27 -13 -11 8.8 10.3
-27 13 -11 -6 8.5
-13 -11 27 -49.5 39.2
11 27 13 16 15.1
27 -11 13 -3.4 11.7
11 -13 27 27.5 26.9
11 -27 -13 7.9 14.9
13 -27 11 16.6 21.1
-11 27 -13 -10.1 9.1
13 11 27 19.9 16.3
-13 27 11 35.7 15.3
-27 11 13 -12.4 13.7
-11 27 13 -9.3 16.1
27 -13 11 0.5 12.3
13 -27 -11 -0.6 15.2
-27 11 -13 6.1 8.6
27 -13 11 -3.4 14.5
27 -11 -13 -4.7 9.3
-13 -27 11 8.4 35.3
-13 27 -11 -6 11.1
11 13 27 -10.6 16
-27 13 11 8.7 14.7
13 -11 27 8.9 28.4
13 27 11 10.5 15.5
11 13 27 30.6 21.6
11 -27 13 -17.5 25
-11 -13 27 -1.1 35.4
11 27 -13 10.3 9.5
11 -13 -27 -11.7 8.6
-27 13 -13 19.9 9.2
-13 27 13 -1.6 15.9
13 -27 -13 18.2 15.3
13 13 27 18.3 15.9
-27 13 13 23.4 14.9
27 -13 -13 47.4 11.2
-13 -27 13 94.29 40.1
13 27 -13 32.8 9.7
27 -13 13 27.9 15.4
-13 -13 27 11.1 42.4
13 -13 27 15.6 26
-13 27 -13 0.8 10.1
13 -27 13 26 24.9
13 -13 -27 29.4 8.8
13 27 13 14.1 16.9
-1 -27 15 148.49 35.9
27 -15 -1 88.89 15
-15 -1 27 77.59 37.1
-1 27 -15 121.39 17.4
1 27 15 124.09 18.9
-1 15 27 103.89 19.3
-27 15 -1 101.69 15.7
27 -1 15 93.69 17.9
-27 1 15 185.58 26.8
-27 15 -1 78.69 21.4
15 1 27 112.79 21
15 -1 -27 110.79 13.2
-1 15 27 113.89 20.2
15 -27 1 73.99 18.8
15 27 -1 106.29 18.8
-15 -1 27 97.39 42.4
27 1 -15 103.79 16.4
-15 27 1 64.59 16
1 -15 27 26 43.8
-1 -15 27 161.48 61.29
1 15 27 99.19 19.4
15 1 -27 92.79 13
27 -1 -15 104.69 13.9
-1 27 15 104.69 20.2
1 -27 15 94.69 41.5
27 -15 1 85.49 16
-27 -1 15 47.2 16.6
1 15 27 104.79 19.7
1 -15 -27 113.59 16.3
15 -27 -1 96.99 20.1
1 27 -15 90.69 12.3
-15 27 -1 85.39 17.1
15 -1 27 157.48 36.4
27 1 15 76.59 17.6
-27 15 1 123.69 20.8
15 27 1 85.39 18.6
15 -1 27 95.49 21.8
-15 1 27 56.39 39.5
3 -15 27 358.66 43.1
-3 -27 15 396.86 47
-27 3 15 398.96 30.8
3 27 15 389.36 29.2
-15 -3 27 377.66 48.9
27 -15 -3 366.96 25.8
-3 15 27 447.36 34.8
-3 15 27 377.76 32.4
15 -27 3 432.26 32.9
15 27 -3 365.96 28.8
15 27 -3 336.97 32
-3 27 -15 428.56 23.9
-27 15 -3 425.86 25.5
-15 27 3 412.56 29.2
-15 -3 27 365.56 51.79
15 -3 -27 396.26 22.6
15 3 27 386.86 35.2
27 -3 15 381.86 31.5
15 -27 -3 362.96 32.1
3 15 27 431.36 33.4
-3 -15 27 538.25 67.29
15 27 3 361.76 30.5
3 -15 -27 389.56 25.9
15 3 -27 416.16 24.9
3 27 -15 358.46 22.9
3 -27 15 297.17 59.59
-27 15 3 408.06 32.8
15 -3 27 420.56 39.5
-15 3 27 337.97 44.7
3 15 27 408.36 32.5
-3 27 15 384.96 33.9
27 -15 3 389.56 27.7
-27 -3 15 384.16 31.1
27 3 15 390.16 35
15 -3 27 360.86 54.89
27 -3 -15 396.96 23.5
-15 27 -3 433.96 30.2
-5 15 27 584.24 37.6
-27 5 15 645.54 36.6
-15 -5 27 687.43 53.69
15 5 27 650.03 38.7
-5 -27 15 572.84 51.19
5 27 15 639.54 35.2
15 27 -5 586.94 31.1
-5 15 27 641.64 36.5
27 -5 15 600.34 35.3
15 -5 -27 639.74 29.2
-15 -5 27 659.03 61.49
15 -27 5 642.14 40.7
15 27 -5 626.94 35.3
5 -15 27 640.04 59.99
-5 27 -15 653.03 29.1
-27 15 -5 650.83 30.2
-15 27 5 643.34 33.8
27 -15 -5 676.03 32.3
15 27 5 603.94 36.1
-5 27 15 629.54 43.4
5 -27 15 725.83 64.99
-15 5 27 595.74 59.09
15 -27 -5 617.14 36.5
27 -15 5 648.54 33.1
5 15 27 670.33 38.9
-27 15 5 627.24 36.6
27 -15 5 630.24 33.2
27 -5 -15 637.04 28.9
-27 -5 15 642.64 35.8
-15 27 -5 657.83 37
5 15 27 656.03 37.3
5 -15 -27 637.44 29.7
-5 -15 27 745.43 64.99
5 27 -15 627.34 29.4
15 -5 27 674.83 48.8
27 5 15 652.13 40.4
15 -5 27 607.64 58.19
15 7 27 339.07 31
-15 -7 27 256.57 43
15 -27 7 366.86 36.4
27 -7 15 363.86 27.7
-7 15 27 311.97 34.8
-27 15 -7 385.76 22.4
-15 27 7 393.16 25.9
-27 7 15 380.96 28.1
-15 -7 27 437.06 49.7
15 27 -7 336.77 23.4
-7 -27 15 323.17 46.4
15 -7 -27 348.77 20.7
7 -15 27 399.06 52.29
27 -15 -7 410.66 25.1
-7 15 27 392.36 30.3
-7 27 -15 411.76 21.9
7 27 15 340.57 27.9
-27 15 7 388.06 28.7
27 -15 7 391.36 26.4
-15 7 27 263.17 40.1
27 -15 7 387.86 28.1
-15 -27 7 348.77 51.29
15 -27 -7 329.97 31.5
15 -7 27 316.77 38.7
7 -27 15 349.67 43.1
-27 -7 15 430.16 29.2
27 -7 -15 347.37 21.6
7 15 27 352.26 29.2
7 -15 -27 345.77 22.4
-7 -15 27 290.17 45.4
27 7 15 312.27 30
7 15 27 374.86 31.8
7 27 -15 379.66 21.5
15 27 7 300.07 28.7
9 27 15 75.39 15.7
-15 27 9 78.09 14
-27 15 -9 82.19 10.8
15 -27 9 43.9 20
15 9 27 73.49 18.2
-27 9 15 90.39 16.2
15 27 -9 83.89 12.1
-9 -27 15 124.29 32.7
-9 27 -15 76.89 11.1
15 -9 -27 67.39 10.1
-9 15 27 34.8 25.5
9 -15 27 98.09 32.3
27 -15 -9 68.29 12.6
-15 -9 27 140.29 40.9
9 -27 15 124.29 32.6
27 -15 9 109.89 16.1
-27 9 -15 104.59 14.7
9 27 -15 71.99 10.6
27 -15 9 68.49 14.7
15 -9 27 87.09 32.5
9 15 27 85.99 17.2
-27 15 9 81.69 15.7
15 -27 -9 76.59 18.3
27 -9 -15 89.49 11.7
-15 27 -9 86.69 14.8
15 27 9 79.09 19.4
9 15 27 89.99 19.3
-9 -15 27 49.9 40.1
9 -15 -27 66.79 11.3
-11 -27 15 109.29 36.1
-27 15 -11 69.39 10.8
27 -11 15 49.99 15.6
11 -15 27 73.29 28.6
15 27 -11 49.2 10.4
15 11 27 38.3 15.3
-11 27 -15 57.59 10.1
15 -11 -27 50.69 9.3
15 -27 11 12.4 21.9
11 -27 -15 48.5 14.8
27 -15 -11 53.59 11.9
-15 -11 27 76.19 43.1
-15 27 11 57.59 14.1
-27 11 15 43.9 15.5
11 27 15 71.59 16.1
11 -15 -27 45.1 10.7
15 27 11 13.4 18.9
-27 11 -15 35.4 9.4
11 15 27 47 15.7
15 -11 27 -11.5 28.6
-15 27 -11 40.7 12.4
-11 -15 27 113.89 40.9
11 27 -15 51.29 9.8
27 -15 11 69.99 16.5
11 -27 15 67.99 26.9
-27 15 11 42.1 15.2
27 -11 -15 40 10.2
15 -27 -11 28.6 16.8
-27 13 15 135.29 17.9
27 -13 15 115.29 18.2
13 -27 -15 101.69 15.9
15 -13 -27 129.29 14.4
15 13 27 106.49 18.1
15 -27 13 130.49 24.6
13 -15 27 136.99 28.1
-13 27 -15 110.09 11.9
15 27 -13 99.59 12.6
13 27 15 121.69 25.4
-27 15 -13 112.39 15.2
27 -15 -13 150.58 18.9
-27 13 -15 143.39 15.4
13 15 27 113.69 17.6
13 -27 15 97.59 26.1
27 -15 13 86.19 22.9
27 -13 -15 149.99 15.5
13 27 -15 108.79 12.4
15 -27 -13 105.59 19.8
-27 15 13 96.39 13.7
15 -13 27 73.99 28.9
17 -1 -27 118.49 17.2
1 27 17 108.99 16.7
-1 -27 17 39.8 43.3
-1 17 27 101.59 16.7
17 27 -1 85.09 19.5
-17 27 1 103.69 16.9
-17 -1 27 38.4 45.4
17 1 27 74.39 19.1
27 -1 17 74.69 16.7
-27 17 -1 75.49 21.9
27 -17 -1 114.49 16.2
-1 17 27 122.79 17.9
17 -27 1 81.49 19.4
-27 1 17 102.59 18.1
-1 27 -17 98.69 12.3
17 27 1 77.89 21.2
-17 1 27 74.89 42.3
17 -1 27 52.69 19.1
-27 17 1 71.39 19.2
-17 27 -1 121.69 16.6
27 -1 -17 100.89 14.8
1 17 27 88.29 16.8
-27 -1 17 55.29 17.5
27 1 17 92.29 17.4
-1 27 17 100.69 18.8
27 -17 1 111.59 15.5
17 1 -27 104.29 12.6
1 17 27 78.59 17.4
17 -27 -1 116.19 19.4
1 27 -17 80.19 10.7
3 -17 27 326.37 47.2
-3 17 27 427.26 29.6
-3 -27 17 372.76 54.19
27 -17 -3 385.06 26.4
-27 17 -3 373.56 30.4
17 -3 -27 399.46 22
3 27 17 378.36 27
17 -27 3 350.66 34.1
27 -3 17 392.56 28.7
-17 -3 27 229.78 49.7
-27 3 17 341.77 30
17 3 27 471.85 35.5
-17 27 3 382.96 26.5
-3 17 27 386.76 30.8
-3 27 -17 424.76 22.2
3 17 27 359.26 30.4
3 17 27 384.46 30.4
17 27 3 379.46 33.9
17 -3 27 396.66 36.3
3 27 -17 376.26 21.3
-17 3 27 452.05 56.19
17 -27 -3 351.46 32.4
-27 17 3 376.86 29.2
-3 27 17 439.16 31.3
-17 27 -3 334.27 29.9
27 -17 3 424.26 27
-3 -17 27 425.56 82.29
27 -3 -17 400.76 24.1
27 -17 3 387.06 24.9
17 3 -27 365.96 27.8
27 3 17 332.27 30.7
-27 -3 17 396.96 31
5 -17 27 408.56 58.79
17 5 27 572.84 35.4
-17 27 5 597.94 30.6
-27 5 17 547.65 33.7
17 -27 5 474.15 37.6
-5 27 -17 558.44 25.6
27 -5 17 570.74 32.2
-5 17 27 627.64 32.8
27 -17 -5 578.84 29.7
17 -5 -27 535.85 24.9
-5 17 27 518.85 32.4
5 27 17 565.94 31.4
-17 -5 27 585.54 66.79
-27 17 -5 548.25 28.4
-5 -27 17 562.44 54.19
5 17 27 587.84 33.9
27 -17 5 527.85 30.4
-5 27 17 534.65 43
5 -27 17 544.55 91.29
5 17 27 569.44 31.7
-27 5 -17 579.34 25.7
27 -5 -17 582.64 26.5
27 5 17 517.35 36.9
27 -17 5 590.94 30.4
17 27 5 612.04 37.9
-27 17 5 617.64 31.7
17 -5 27 536.95 57.09
5 27 -17 586.74 25.8
-5 -17 27 407.46 55.39
-27 -5 17 583.54 34.7
17 -27 -5 577.94 34.7
-17 5 27 547.85 58.59
17 -5 27 565.34 45.4
7 27 17 250.47 24.3
-27 7 17 270.37 28.1
-7 27 -17 272.67 19.1
-17 -7 27 313.87 54.99
-27 17 -7 266.27 20.9
17 -27 7 294.87 32.1
27 -7 17 307.07 26
17 -7 -27 274.37 18
27 -17 -7 270.87 22.4
-17 27 7 295.77 23.7
-7 17 27 307.07 24.7
-7 -27 17 252.27 38.6
17 7 27 265.27 27.9
7 -17 27 355.36 49.4
17 -7 27 189.98 35.6
-27 -7 17 280.67 30
-27 7 -17 296.37 20.2
7 -27 17 247.78 43
7 17 27 338.77 25.1
27 -7 -17 290.07 18.9
27 -17 7 260.87 26.2
-7 -17 27 225.68 47.6
7 17 27 295.87 27.4
-27 17 7 317.97 26.3
27 -17 7 342.97 26.7
27 7 17 246.18 36.7
7 27 -17 268.07 18.4
17 -27 -7 266.47 28
17 -27 9 97.39 21.7
27 -9 17 83.29 15.5
-9 27 -17 59.99 10
9 27 17 46.1 15.3
9 -17 27 66.19 30.2
-27 17 -9 66.99 10.3
27 -17 -9 38.9 12.6
-17 27 9 52.89 14.8
17 -9 -27 60.09 9.7
-27 9 17 15 18.4
17 9 27 42.8 16.3
9 -27 17 49.7 31.6
-27 -9 17 74.09 18.7
17 -27 -9 59.59 16.9
9 27 -17 73.69 10.4
17 -9 27 95.49 32
9 17 27 62.69 18.4
27 -9 -17 54.69 10.2
9 17 27 13.8 15.4
27 -17 9 97.69 16.5
-27 17 9 65.99 15.1
-27 9 -17 74.79 10.8
-1 19 27 21.7 15.7
19 1 27 49.9 16.7
-1 27 -19 5.6 8.6
-1 19 27 28.8 14.1
-19 27 1 20 13.2
19 -27 1 43 19.3
1 27 19 19.5 15.4
27 -1 19 35.9 14.9
19 -1 -27 31.7 10.9
-1 27 19 7.8 15.6
1 19 27 15.1 13.1
-27 19 1 3 17.9
27 -19 1 16.3 13.1
19 -27 -1 25.6 19.1
-19 27 -1 13.5 15.1
27 1 19 30.3 16.1
1 27 -19 10.1 8.8
19 -1 27 -5 16.5
1 19 27 -6 14
-3 27 -19 128.29 15.1
19 -27 3 91.29 18.4
3 27 19 109.69 15.4
-3 19 27 90.09 16.2
19 -3 -27 144.89 16.1
19 3 27 96.49 16.8
27 -3 19 97.19 16.1
-3 19 27 149.19 21.7
-19 27 3 136.19 15.4
19 -3 27 132.09 19.9
3 19 27 132.19 18.3
19 -27 -3 143.69 20.8
-3 27 19 157.68 29.1
-27 19 3 171.48 26.1
27 3 19 113.09 17.8
3 19 27 153.08 22.1
27 -3 -19 179.98 20.7
27 -19 3 177.88 22.9
3 27 -19 156.88 15.7
-5 19 27 280.47 41.5
-19 27 5 204.88 21.6
19 -5 -27 225.48 16.1
-5 27 -19 237.58 16.7
19 -27 5 264.27 30.9
27 -5 19 208.98 24.7
5 27 19 227.58 21.7
19 5 27 208.18 25.8
27 -5 -19 247.08 19.4
5 19 27 198.18 27
-27 19 5 198.98 25.4
27 5 19 245.68 31.7
5 19 27 233.78 23.5
27 -19 5 267.57 24.1
5 27 -19 210.28 16.8
19 -27 -5 206.08 28.2
28 0 0 228.28 30.9
28 0 0 217.48 27.4
0 0 28 192.58 28.9
0 28 0 204.48 31.2
0 28 0 239.48 29.7
0 0 28 264.67 53.89
-28 0 0 233.08 29.2
-2 0 28 17 42.2
2 0 28 1 37.3
2 -28 0 22.2 28
-2 28 0 1.8 15.9
2 28 0 22.8 19
28 0 2 14.2 22
2 0 28 -64.79 57.49
28 2 0 42.9 20.1
0 28 -2 5.6 22.2
0 28 2 34.1 24.1
2 0 28 18 22.8
-2 0 28 23.9 23.9
0 -2 28 22.1 37.3
-28 -2 0 -14.9 23.1
-28 2 0 6.1 23.3
-2 28 0 45.7 26.5
0 28 2 9.1 19.1
28 0 2 10.3 17.3
2 28 0 -2 22.9
-28 0 -2 64.39 26.3
28 0 -2 33.7 17.1
0 2 28 79.19 32.2
28 0 -2 -37.4 23
2 0 28 82.99 35
0 -2 28 32.4 49
28 -2 0 25.4 16.3
0 28 -2 24.1 17.4
-28 0 2 -2.6 21.1
0 2 28 14.3 47.7
0 2 28 -1.3 23.4
28 -2 0 32.3 20.1
-2 28 2 10.9 16.5
2 28 -2 10.7 16
-28 2 2 5.4 20.4
28 -2 2 21.9 16.4
28 2 -2 5.7 19.2
-2 -2 28 -30.7 42.8
-2 28 -2 15.1 24.5
2 28 -2 16.1 20.3
-28 -2 -2 29.1 28.4
-28 2 -2 -23.2 24.8
-2 28 -2 15.7 18.2
-2 2 28 15.1 37
2 2 28 -7.7 27.7
28 -2 2 -25.5 18.1
28 2 2 15.2 24.5
-2 28 2 -2.9 25.8
28 -2 -2 16.5 16.2
2 2 28 92.09 55.19
-2 2 28 93.59 44.8
2 28 2 8.3 22.5
2 -28 -2 -26.4 28.3
28 2 2 15.8 20.4
2 -2 28 -12 62.59
2 -2 28 51.59 25.8
2 28 2 44.6 18.5
2 -28 2 32.6 30.7
-2 2 28 38.8 23.3
2 2 28 6.5 22
2 -2 28 -12.2 36.4
-4 0 28 68.49 27
0 28 -4 23.3 23.1
0 4 28 110.29 46.9
-28 4 0 25.6 22.6
-28 0 4 56.89 20.2
0 -4 28 12.4 40.1
0 -4 28 76.49 49.6
28 0 -4 46.3 17.3
28 0 4 49.1 18.6
4 0 -28 84.39 47.7
-4 0 28 2.3 40.6
28 -4 0 29.4 15.1
0 28 4 62.79 19.2
0 28 4 88.19 24.3
4 0 28 47.6 42.1
0 28 -4 47.4 18.4
0 4 28 59.79 25.4
4 28 0 80.49 25.2
-4 28 0 39.9 18.9
4 0 28 46.6 36.1
4 28 0 47.8 16.7
0 4 28 16 27.5
28 0 4 74.79 21.8
4 -28 0 49.1 25
-4 28 0 101.49 29.1
4 0 28 51.29 24.2
-2 28 -4 157.38 22.1
-2 28 -4 161.18 28.2
-2 4 28 201.28 29.8
-2 4 28 235.98 45.1
4 2 28 216.88 32.4
28 -4 -2 176.58 26.2
4 28 -2 202.18 29.1
28 -2 4 134.29 20.5
2 28 4 130.09 24.5
4 -2 -28 204.78 47.7
-4 -2 28 190.38 44
-28 2 4 158.98 23.8
28 -2 4 126.49 21.8
28 2 -4 181.48 22.8
4 2 28 162.38 28.9
2 -4 28 143.39 43.7
2 28 4 193.78 24
-2 4 28 122.69 31
4 28 -2 144.79 22.6
2 -28 -4 196.98 28.4
-28 4 -2 196.08 34.6
28 4 2 145.89 29.5
-4 28 2 218.18 31.1
4 -28 2 174.98 30
-4 28 2 201.08 30.9
4 -28 -2 158.48 27.4
-4 28 -2 210.88 31.3
2 4 28 170.68 31.1
4 28 2 144.49 26.5
-4 28 -2 208.18 30.2
2 4 28 235.48 55.69
-2 28 4 182.48 29.1
2 -28 4 136.19 33.1
-4 2 28 224.58 29.7
-2 28 4 179.48 22.1
4 -2 28 182.68 30.9
2 28 -4 161.98 22.4
4 28 2 212.48 29.4
28 -4 2 171.28 21.6
2 4 28 199.78 29.4
-28 4 2 207.28 25.8
28 -2 -4 188.08 27.5
-4 2 28 115.99 43.7
-2 -4 28 99.09 46
-2 -4 28 120.39 43.5
2 -4 -28 189.18 42.6
28 2 4 220.18 25.1
2 28 -4 140.39 24.7
4 -2 28 145.39 42.8
28 -4 2 196.18 23.4
28 2 4 188.88 27.5
28 -4 4 385.06 33.7
-4 4 28 368.46 47.4
-28 4 4 401.26 38.7
4 -4 28 376.16 45.4
28 -4 -4 419.66 30.8
4 28 -4 406.46 32.8
-4 28 -4 384.46 34.3
4 -4 -28 504.05 66.69
4 28 4 459.55 38.8
28 -4 4 394.86 35.5
-4 4 28 361.46 42.7
-4 28 4 437.26 35.9
-4 -4 28 446.76 68.59
-4 28 -4 411.16 49.3
-4 28 4 324.67 48.3
4 28 4 426.96 32.4
4 -28 -4 426.26 42.4
28 4 4 365.26 55.39
4 4 28 397.36 47.5
4 28 -4 443.56 32.6
4 4 28 417.36 44.7
4 28 -4 393.36 38.4
4 -4 28 326.87 48.8
28 4 4 482.55 41.8
0 6 28 53.69 24.7
0 -6 -28 34.7 34.5
28 0 -6 55.39 15.9
6 -28 0 40.7 23.3
-6 0 28 28.9 24.8
6 0 28 42.5 26.1
28 0 6 77.99 19.1
-6 28 0 43.7 18.1
-6 0 28 16.1 39.2
0 -28 -6 39.6 25.7
0 6 28 -19 44.7
0 -6 28 44.9 42.6
0 -6 28 57.09 51.79
0 28 -6 43 17.2
6 0 28 89.39 29.1
28 -6 0 67.19 15.7
0 28 6 85.79 24.4
-28 0 6 61.49 19.5
0 6 28 39.5 26
0 28 6 35.1 17.2
28 0 6 57.29 19.9
-28 6 0 52.09 23
6 0 28 48.6 35.8
0 28 -6 52.49 15.5
0 28 -6 58.39 23.7
6 28 0 45.2 22.7
-2 6 28 142.69 28.3
6 -28 2 222.68 29.5
-2 28 -6 191.88 23.2
-2 6 28 259.27 39.5
-2 28 -6 184.68 28.2
2 28 6 202.98 23.7
6 2 28 176.78 29.2
-28 2 6 146.09 22.4
2 28 6 172.38 25.3
28 -2 6 214.18 24.5
-6 -2 28 169.08 42.6
28 2 -6 223.58 22.8
2 -28 -6 177.88 26.3
-6 28 2 216.18 32.3
28 -6 -2 190.58 25.4
-2 6 28 164.68 43.2
-2 28 -6 167.88 19.1
2 -6 28 177.18 45.8
6 28 -2 191.58 26.1
28 -2 6 216.68 30.3
-28 6 -2 286.47 38.5
6 2 28 143.39 29.2
-6 2 28 158.18 43.3
-6 2 28 148.29 28.2
-2 28 6 208.48 27.5
-2 -6 28 250.57 50.89
2 -28 6 163.68 37.2
2 6 28 200.68 28.9
6 -2 28 205.78 43.7
6 28 2 195.38 27.8
6 -28 -2 191.88 27.9
2 6 28 140.09 52.19
2 28 -6 131.69 24
28 -2 -6 177.08 25.4
2 -6 -28 213.58 42.9
-2 -6 28 124.09 45.6
2 28 -6 176.88 19.4
28 2 6 166.68 24.9
-2 28 6 120.19 19.1
-28 6 2 131.99 23.5
28 2 6 170.28 22.5
-6 28 -2 140.69 20.8
2 28 -6 189.98 22.9
28 -6 2 131.79 18.6
2 6 28 184.28 25.8
6 -2 28 205.28 28.7
-6 -4 28 499.85 67.39
-4 6 28 539.95 44.1
28 -4 6 525.55 38.3
-4 6 28 572.14 48.9
6 28 -4 475.35 39.6
-4 28 -6 562.94 38.7
6 4 28 560.14 43.3
6 -28 4 467.25 46.9
4 -28 -6 551.34 39.8
6 28 -4 541.75 34
28 -6 -4 568.94 32.2
-4 28 -6 592.94 47.1
4 28 6 559.94 35.8
6 4 28 560.84 50.39
4 -6 28 550.64 72.99
-6 28 4 534.15 37.3
4 28 6 524.15 41.3
-4 6 28 544.05 63.99
-4 28 -6 513.05 34.4
28 -4 6 516.05 34.8
-28 4 6 534.05 40.6
-6 4 28 489.35 51.79
28 -6 4 528.35 36.4
4 28 -6 549.54 32.3
28 4 6 511.85 43.7
4 -6 -28 574.94 69.69
4 -28 6 424.36 54.09
-4 28 6 593.74 37.1
-6 28 -4 569.84 38.2
28 -6 4 573.94 36
6 -4 28 522.75 71.39
28 4 6 420.56 51.69
4 6 28 581.84 48.6
-28 6 4 571.44 41.5
4 6 28 468.35 42.4
28 -4 -6 522.95 32
-4 28 6 485.05 47.7
6 28 4 566.04 41.1
-6 4 28 566.94 47.2
-4 -6 28 531.75 73.09
6 -28 -4 574.54 41.1
6 -4 28 539.45 48.7
4 28 -6 542.95 40.4
-6 4 28 543.75 61.89
28 -6 -6 682.73 35
6 -28 6 658.03 51.89
28 -6 6 693.43 39.8
6 28 -6 647.64 34.4
-6 6 28 704.23 46.2
6 -6 28 804.82 72.19
-6 -28 6 730.13 45.6
-6 28 -6 634.84 36.2
6 28 6 674.73 42.3
-6 28 -6 736.73 39.6
-6 6 28 621.84 61.39
6 6 28 688.43 49
-6 -6 28 611.24 68.49
6 -28 -6 719.03 41.9
28 -6 6 652.33 37.2
-6 28 6 671.43 39.8
6 -6 28 747.73 51.19
6 6 28 601.64 45.1
6 28 -6 602.64 41
-6 6 28 627.34 46.8
-28 6 6 621.04 42.6
-28 8 0 -15.4 20.3
0 8 28 22.5 21.2
0 -28 -8 45.2 23.7
0 28 -8 -9.1 12.6
0 -8 28 35.6 56.09
28 0 8 20.6 16.2
0 -8 -28 17.2 47.8
0 28 8 14.9 16.1
8 0 28 25.2 25.4
-8 28 0 27 16.8
28 -8 0 13.4 14.7
0 8 28 -10.5 40.4
0 28 8 19.8 20.2
-28 0 8 10.5 16.9
0 -8 28 -29.1 39.2
28 0 -8 14.3 13.8
8 28 0 21.2 18.5
-8 0 28 -26.4 36.8
0 -28 8 15.1 25.9
0 28 -8 12.7 16.3
0 28 -8 -5 19
8 0 28 27.2 26.5
0 8 28 17 21.4
8 0 28 -4.6 33.6
-8 0 28 25.7 24.6
8 -28 0 15.4 21.4
28 0 8 30.7 18.5
28 -2 8 20.6 15.4
8 2 28 58.59 24.5
-2 28 -8 -4.8 21.8
28 -8 -2 25.4 13.4
-8 28 2 16.3 17
-2 8 28 32.2 22.6
-2 -28 8 -12.2 23.9
-2 8 28 30.4 39
-28 8 -2 11.4 22.6
8 2 28 -13.4 22.8
2 -8 28 37 39.6
8 28 -2 -29.1 17.4
-28 2 8 27.3 17.2
-2 8 28 33.8 22.2
2 28 8 9.3 16.2
-2 28 -8 25.9 17.4
2 28 8 -20.7 19.1
-2 28 -8 21.4 13.3
2 -28 -8 12.3 21.9
-8 -2 28 -45.9 36.2
8 -28 2 30.6 21.9
28 -2 8 24.8 17.7
28 2 -8 12 17.9
2 28 -8 -5.3 18.7
2 -28 8 129.09 41.2
2 8 28 15.6 20.7
2 8 28 5.2 19.5
28 2 8 -6.4 18
-2 28 8 -7.2 15.9
2 -8 -28 -33.5 58.59
-8 2 28 21.2 22.6
28 2 8 46.3 21.6
-2 -8 28 20.7 42.9
8 -2 28 10.6 28.4
8 28 2 18.7 19.7
-2 28 8 44.2 22.3
-8 28 -2 23.9 16.6
-8 2 28 12 36.7
2 -28 8 74.29 29.2
8 -2 28 -5.3 27
28 -2 -8 8.4 12.6
-28 8 2 67.99 20.6
8 -2 28 12.6 37.8
-2 -8 28 -61.79 48
8 -28 -2 -16.2 21.5
28 -8 2 8.5 14.9
2 28 -8 10.8 12.6
4 28 8 212.48 29.1
-8 -4 28 194.28 40.7
8 -28 4 193.28 26.9
-4 8 28 220.08 28.8
8 28 -4 273.07 31.5
4 28 8 185.08 23.5
28 -4 8 222.18 28.4
-4 28 -8 252.67 24.6
8 28 -4 263.67 29.5
-4 8 28 198.38 41.3
28 -8 -4 242.78 24.3
4 -8 28 210.58 41.6
8 4 28 211.58 28.9
28 -4 8 240.58 27.1
-4 -28 8 226.98 30.6
-4 8 28 222.48 26.8
-4 28 -8 204.68 30.4
8 4 28 251.07 30.2
-8 28 4 292.27 31.1
4 -28 -8 294.77 35.6
-28 4 8 242.38 31.4
8 -4 28 280.47 35.1
-4 -8 28 196.38 45.7
-4 28 8 222.68 27.6
28 -8 4 232.48 26.3
-8 4 28 266.17 39
-28 8 4 295.07 32.7
28 -8 4 255.47 27.5
4 -28 8 226.08 36.7
4 28 -8 238.68 33.6
8 28 4 247.18 31.9
28 -4 -8 220.28 22.9
-8 4 28 153.18 43
4 28 -8 224.08 24.3
8 -28 -4 252.27 32.2
28 4 8 219.38 27.8
8 -4 28 177.88 41.9
-4 28 8 200.48 28.4
4 8 28 220.88 26
-8 28 -4 251.27 30.8
4 -28 8 291.47 46.5
28 4 8 217.58 25.9
4 8 28 283.87 38.3
8 28 -6 298.67 26.9
28 -6 8 318.07 30
8 6 28 302.77 40.6
6 -8 28 333.47 46.4
-6 28 -8 405.66 34
8 -28 6 348.47 40.4
6 -8 28 309.87 42.3
-8 -6 28 412.96 60.89
-28 6 8 299.77 32.6
6 28 8 332.27 32.2
-6 8 28 269.07 43
28 -6 8 308.77 27.1
28 -8 -6 340.37 24.3
-8 28 6 342.67 29.9
-6 -28 8 389.46 39.3
6 -28 -8 376.76 33.7
8 6 28 380.26 37.3
-6 28 -8 333.57 26.3
8 28 -6 307.27 31.8
-6 8 28 375.06 38.3
-6 8 28 316.27 41.1
-8 -28 6 343.27 37.1
-6 28 8 329.77 30.2
8 -6 28 403.66 48.9
6 8 28 382.46 37.1
6 28 -8 323.57 24.4
8 28 6 280.77 31.3
6 28 -8 377.76 32.3
-6 -8 28 308.77 46.8
28 -6 -8 331.37 24.7
8 -28 -6 318.87 32.4
-28 8 6 311.07 32.6
-8 6 28 362.96 54.39
6 -28 8 421.96 49.1
6 -28 8 326.87 50.29
28 -8 6 294.67 28.2
8 -6 28 374.86 59.19
-8 28 -6 348.87 33.5
-8 6 28 368.76 42.6
6 8 28 343.07 38.1
-8 6 28 339.17 40.2
28 -8 6 382.86 30.1
8 -8 28 77.39 33.7
28 -8 8 97.39 17.5
8 8 28 90.89 23
28 -8 8 77.99 14.2
8 -8 -28 107.69 14.2
28 -8 -8 94.09 14
-8 8 28 85.89 23.2
-8 28 -8 85.69 19.5
8 -8 28 60.39 44.8
-8 28 8 85.49 16.9
8 28 -8 73.99 18
8 28 8 81.89 18.8
-8 8 28 53.69 21.9
8 28 -8 89.09 14.1
8 -28 8 130.19 26.9
-28 8 8 73.19 18.1
-8 -8 28 116.09 41.4
-8 8 28 137.19 36.9
8 -28 -8 88.49 18.5
8 8 28 108.99 22
-8 28 -8 94.09 15.4
-8 -28 8 41.6 25.4
0 10 28 98.69 22.9
0 28 -10 76.09 13.4
-28 0 10 57.39 17.9
0 -10 28 65.29 43.9
28 0 10 83.99 20.2
0 28 10 102.79 19.5
-28 10 0 79.89 21.5
28 -10 0 43.8 13.5
28 0 10 92.19 17.6
10 0 28 60.39 24.1
-10 28 0 72.49 17.8
-10 0 28 96.49 36.9
10 0 28 52.99 31.2
28 0 -10 66.59 15.2
0 10 28 72.59 19.6
10 0 28 74.29 31.1
10 -28 0 56.99 20.3
10 0 -28 76.49 14.4
10 28 0 73.69 18.9
-10 0 28 79.09 24.8
0 -28 10 65.99 31.5
0 28 10 87.09 20.8
0 -10 28 25.2 60.49
2 28 10 -16.2 16.4
28 -2 10 3.9 14.1
28 -2 10 32.2 16
2 28 10 12.1 18.9
-2 10 28 -34.3 18.9
-2 28 -10 -10.7 11.4
10 -28 2 -3.1 19.5
-2 10 28 66.99 36.6
-10 -2 28 -45.6 35
28 2 -10 -7.2 16.2
-28 10 -2 -14.3 21.9
10 28 -2 5.9 16.7
-2 10 28 -27.8 17.7
-2 -28 10 27.1 27.7
10 2 28 19.3 21.6
-10 28 2 -8.9 15
28 -10 -2 0.4 11.9
2 -10 28 71.99 38.7
10 -2 -28 6.8 11.4
10 2 28 5.5 27.7
-28 2 10 30.9 17
-10 -2 28 2.4 23
2 10 28 9.7 18.6
-10 2 28 -15 22
-10 2 28 -12.1 35.4
28 -10 2 11.4 12.1
2 10 28 1.9 19.2
-2 28 10 10.1 17.1
28 -2 -10 9 12.1
-2 -10 28 -28.7 45.4
10 -28 -2 5.8 17.9
-10 -28 2 -32.9 27.6
-2 28 10 -22.7 20.7
10 2 -28 -1.2 11.2
-28 10 2 -22.6 17.3
28 2 10 -4.3 19
10 -2 28 5.7 25.3
10 28 2 -2.6 17.5
2 28 -10 -2.3 11.2
2 -28 10 54.49 32.7
-28 -2 10 -27.2 14.8
10 -2 28 42.3 33.4
-10 28 -2 9.8 15.6
28 2 10 31 17.4
-2 -10 28 -96.69 47.3
10 -4 -28 30.5 11.6
10 28 -4 35.6 16.2
10 4 28 34.1 26.4
10 28 -4 36.7 16.3
28 -10 -4 66.29 13.5
-4 -28 10 101.69 27.7
28 -4 10 64.59 16.1
-28 4 10 44 16.3
10 -28 4 59.99 21.2
-4 10 28 49.6 20.9
10 4 28 104.79 23.1
28 -4 10 20.3 16.7
-10 -4 28 116.99 38.5
-4 28 -10 74.89 13.5
4 -10 28 104.79 36.6
-10 28 4 78.09 17.2
4 28 10 31.1 17.5
-4 10 28 53.09 20.5
-4 10 28 44 33
28 -4 -10 44.1 12.2
-10 -28 4 23.3 23.5
4 -28 10 99.69 37.2
-4 -10 28 80.29 42
10 -4 28 35.6 29.9
-28 10 4 42.4 17.8
-10 4 28 76.89 25.1
4 10 28 53.49 21.1
-10 4 28 86.19 35.5
-4 28 10 64.19 23.9
-4 28 10 34.8 16.2
10 -4 28 45 34.9
4 28 -10 63.59 13.2
10 -28 -4 80.29 20.1
28 -10 4 67.89 15.9
10 28 4 47.4 18.2
28 -10 4 62.09 14.9
4 10 28 36.4 20.1
-10 28 -4 46.9 16.9
28 4 10 31.7 22.4
4 -28 10 36.2 35.7
10 4 -28 56.59 13.4
-6 10 28 68.49 21.5
10 6 28 85.89 21.1
28 -6 10 87.39 14.9
6 28 10 80.59 18.9
-6 -28 10 120.09 26.6
10 28 -6 73.19 14.8
28 -6 10 67.39 16.3
10 6 28 97.69 24.5
-6 28 -10 84.19 13.5
10 -6 -28 58.19 11.9
6 -10 28 76.69 28.4
-28 6 10 75.69 17.3
-6 10 28 19.7 31.2
10 -28 6 95.99 23.8
-10 28 6 134.09 18.6
28 -10 -6 100.89 14.6
10 28 -6 92.99 18.8
-10 -6 28 76.79 40.5
6 -10 28 101.09 33.6
-6 28 -10 95.59 20.9
-6 10 28 95.99 20.9
10 -28 -6 64.99 18.8
28 -6 -10 67.69 12.8
10 6 -28 98.39 15.3
-10 6 28 99.69 36.4
-10 -28 6 62.69 27.6
6 -10 -28 74.79 12.9
6 -28 10 39.2 28.7
10 28 6 109.49 19.3
6 28 -10 69.79 12.5
-28 10 6 83.79 17.7
-6 28 10 80.39 15.8
28 6 10 63.69 26.7
28 -10 6 76.99 15.3
-6 28 10 140.89 39.3
6 10 28 84.79 19.3
-6 -10 28 93.39 39.5
-10 6 28 74.59 25.1
10 -6 28 59.39 33.6
28 -10 6 77.99 15.3
6 10 28 71.79 19.9
-10 28 -6 81.59 18.7
28 -8 10 5 12.6
10 8 28 19.1 18.1
-10 -8 28 -44.7 37.5
8 -10 28 72.49 31.5
28 -8 10 15.9 14.1
10 -28 8 -2.6 22.2
-28 8 10 2.5 14.9
-8 10 28 45.8 19
10 8 28 -20.7 22.1
28 -10 -8 -10 9.9
10 28 -8 28 16.7
10 -8 -28 -4.8 8.9
-8 10 28 -2.6 29.9
10 28 -8 10.3 12
-8 10 28 27.4 22.2
-10 28 8 2.4 13.7
-8 28 -10 -0.4 11.4
8 -28 -10 -5.1 16.3
-8 -28 10 7.8 25.1
10 -28 -8 -0.1 15.6
10 28 8 -2.3 16.5
-10 8 28 0.8 23.7
28 -10 8 26.7 14.1
8 10 28 38.3 17.7
-10 8 28 44.9 34
-10 28 -8 43.5 14.3
8 28 -10 17.9 10.7
8 10 28 8.1 18.5
-28 10 8 25.8 14.7
-10 28 -8 2.7 19.2
-8 -10 28 7.3 36.8
8 -10 -28 15.5 9.9
-10 -28 8 50.49 26.7
28 -8 -10 -14.8 9.7
8 -28 10 -24.8 26.4
28 -10 8 6.9 12.4
-8 28 10 -3.2 15.3
-10 -10 28 50.69 39.7
-10 28 -10 41.3 12.3
28 -10 -10 35.9 10.7
10 -10 -28 54.59 10.3
-10 -28 10 25.3 25.5
-28 10 10 34.7 14.9
28 -10 10 37 12.6
10 -10 28 62.29 30.9
-10 28 10 26.3 15.2
10 10 28 32.4 21.1
10 28 10 0.9 14.5
10 -28 10 13.6 23
10 28 -10 51.19 11.7
10 -28 -10 41.5 15.9
-10 10 28 51.49 24.2
10 10 28 52.89 17.1
-10 10 28 12.7 29.5
28 -10 10 38.4 13.8
0 -12 28 7 42.9
-12 28 0 30.8 14.9
-12 0 28 15.1 24.7
0 -28 12 15.2 31
28 0 12 10.3 16.1
0 12 28 44.3 19.4
12 28 0 16.5 15.5
-28 0 12 32.4 15
0 12 28 -3.2 18
12 0 -28 11 10.5
28 -12 0 30.4 12.9
0 28 12 8.1 17.2
0 28 -12 -12.7 10.1
12 0 28 -48.7 29
-28 12 0 12.7 19.1
28 0 -12 9.9 14.4
-12 -28 0 44.6 29.9
0 28 12 12.1 19.3
12 0 28 18.5 20.7
-12 0 28 56.69 36.7
12 -28 0 17.2 19
-28 2 12 21.2 15
28 -12 -2 -2.5 11.5
-28 12 -2 -6.1 22
12 -2 -28 15.6 10.2
-2 28 -12 3.6 10.5
-12 -28 -2 -13.9 33.5
-12 28 2 19.6 14.3
-12 -2 28 15 35.9
-2 12 28 17.3 18.3
12 2 28 -23.4 18.9
-12 -2 28 33.5 24.1
2 28 12 -3.5 16
12 28 -2 3.7 15.6
-2 12 28 -41 17.2
28 -2 12 20 15.6
2 -12 28 37 38.2
-2 -28 12 2.5 27.4
12 -28 2 -21.5 18.7
28 -2 12 11.5 12.8
28 2 -12 5.1 25.6
-28 12 2 -23 16.1
-2 28 12 0.7 19.9
2 -28 12 -51.59 34
-2 -12 28 -25.4 51.39
-2 -12 28 -48.7 48.5
-28 -2 12 1.9 15.2
-12 28 -2 23.2 15.5
12 -2 28 6.4 22.2
12 2 -28 6 10.7
2 12 28 -7.4 16.7
28 -12 2 -3.7 12.3
2 28 -12 -7.8 10.2
-12 2 28 -29.2 24.8
2 12 28 10.6 17.5
-12 -28 2 89.19 29.8
12 -28 -2 1.4 17.5
28 2 12 12.9 17.8
12 -2 28 56.09 31.2
28 -2 -12 -0.5 11.5
12 28 2 1.1 15.9
-2 28 12 25.3 18.5
-12 2 28 6.5 35.9
4 -12 28 93.89 36.3
4 28 12 84.39 18
-12 -4 28 90.69 38
28 -4 12 88.99 15.6
12 -4 -28 83.59 12.4
-4 28 -12 95.69 12.2
-4 -28 12 56.99 27.8
-12 -4 28 99.09 25.8
12 28 -4 109.49 18.6
-4 12 28 88.09 19.4
-28 4 12 112.09 19.3
28 -4 12 88.39 16.5
-4 12 28 143.89 22.3
-12 28 4 94.29 16.9
28 -12 -4 118.99 15.9
12 4 28 112.49 21.8
12 28 -4 120.09 17.7
12 -28 4 89.79 21.4
12 28 4 134.09 19.5
28 -12 4 84.89 13.9
12 -4 28 71.89 27.8
28 -4 -12 103.59 13.6
-12 -28 4 125.59 31.4
-4 -12 28 133.89 45.2
-12 28 -4 94.99 17.6
-28 -4 12 122.09 19.1
-12 4 28 140.49 35.8
4 -28 12 -1 40.8
-4 28 12 102.69 23.4
4 28 -12 100.69 13.5
-12 4 28 151.78 27.6
4 -28 12 52.59 43.2
-28 12 4 85.79 17.6
12 -4 28 86.99 31.6
4 12 28 82.09 18.5
28 -12 4 104.09 14.9
4 -12 -28 90.49 13.2
12 4 -28 145.19 20.5
12 -28 -4 102.99 19.3
4 12 28 85.49 19.6
-4 28 12 118.89 20.3
28 4 12 105.29 22.6
-6 28 -12 80.99 12.7
6 28 12 112.99 18.2
-28 6 12 90.79 17.3
28 -6 12 107.19 17.7
6 -12 28 77.09 32.1
12 6 28 136.49 21.7
-6 12 28 125.79 20
28 -6 12 95.29 14.8
12 -6 -28 125.89 17.8
6 -12 28 102.49 33.6
-6 12 28 89.59 21.2
-6 -28 12 126.19 26.7
-12 28 6 126.19 18.1
12 28 -6 95.59 14.9
-12 -6 28 147.19 38.4
12 28 -6 77.99 16.9
28 -12 -6 97.89 13.8
12 -28 6 114.19 22.6
-12 6 28 83.69 28.7
-12 28 -6 106.39 19
28 -12 6 106.49 15.7
6 28 -12 106.69 12.8
12 -28 -6 122.29 19.8
6 -28 12 98.59 34.7
12 28 6 86.09 18.2
-28 12 6 108.79 18.3
6 -12 -28 134.69 16.9
-12 6 28 79.59 35
-6 28 12 132.59 19.9
28 -6 -12 127.29 13.8
-12 -28 6 107.19 31.7
-6 -12 28 217.68 42
28 -12 6 139.39 16.9
6 12 28 103.09 19.2
28 6 12 62.69 25.3
6 12 28 66.59 17.9
12 -6 28 105.49 34.4
28 -8 12 18.3 11.9
8 -28 -12 30.2 15.4
12 28 -8 25.1 11.5
12 -28 8 -10.1 21.2
12 -8 -28 7.9 9.2
28 -12 -8 11.7 10.9
-8 12 28 3.2 20.6
-12 28 8 -17.1 12.8
-8 28 -12 12.6 10.3
-12 -8 28 14.6 38.5
8 28 12 -7.9 14
-8 12 28 -12.1 17
8 -12 28 41.5 30.2
-8 -28 12 39.8 27.7
12 8 28 22.3 16.5
28 -8 12 -4.5 13.2
-28 8 12 0.2 14.7
-28 12 8 -9.2 13.7
-12 28 -8 39.1 25.2
-12 -28 8 14.2 29.4
12 -28 -8 21.4 15.8
-12 8 28 16.7 31.5
8 -12 -28 16.8 8.9
8 28 -12 33.6 10.7
-12 8 28 -12.4 33.7
8 12 28 -3.4 15.9
12 -8 28 41.3 31
-8 28 12 25.5 15.9
28 -12 8 1.9 13.2
-8 -12 28 -36.4 35.5
28 -8 -12 15.4 10.1
28 -12 8 23.8 12
8 -28 12 -46.4 27.6
8 12 28 -19.1 18.5
12 28 8 25.2 16.2
10 -28 -12 16.3 14.5
28 -10 12 25.2 13
-28 10 12 35.9 14
12 -10 -28 7.9 9.1
28 -10 12 -1.4 11.2
-12 -10 28 -18.6 37.9
-10 -28 12 -22.2 31.1
-28 12 -10 24.9 9.2
-10 28 -12 -9.7 10.6
-12 28 10 14 14
28 -12 -10 -2.6 9.6
12 10 28 6.4 15.2
-10 12 28 -43.4 24.6
10 28 12 6.5 14.5
12 28 -10 2.8 10.8
12 -28 10 -28 21.5
10 -12 28 -45.7 26.9
-12 28 -10 34.7 13
10 12 28 -9.8 20.9
28 -12 10 30.7 13.4
12 28 10 28.4 14.6
-10 -12 28 -3.1 37.6
-12 -28 10 -14.3 32.4
10 -12 -28 0.7 8.9
28 -10 -12 4.4 10.1
-10 28 12 12.5 16.3
10 -28 12 -25.8 25.4
12 -10 28 -43.2 27.7
28 -12 10 11.5 11.9
-28 12 10 -18.3 13.3
10 12 28 30.2 16.2
12 -28 -10 25.1 15.4
10 28 -12 22.8 9.8
12 28 12 35 15.7
-12 -12 28 49.3 41.4
12 -12 -28 -7.2 8.1
12 -28 12 22.3 24.6
28 -12 -12 -3.9 9.7
-28 12 12 7.7 15
-12 28 -12 20.6 11.7
12 28 -12 2 9.5
28 -12 12 -20.3 12.8
-12 28 12 6.5 15.8
12 -28 -12 9.8 14.5
-28 12 -12 -17.4 8.4
12 -12 28 -30.6 26.8
-12 -28 12 -17.5 36.3
12 12 28 10.8 15.2
-14 28 0 -13.6 14.3
0 -14 28 54.19 49
0 28 14 -25.1 15.6
0 -14 -28 -16.8 13.1
0 -28 14 67.19 37.2
14 -28 0 -5.7 18.3
-14 0 28 42.3 31.5
14 0 -28 14 10.2
14 28 0 -5 15.3
28 -14 0 -1.1 12
0 14 28 20.1 17
-28 14 0 15.3 18.4
-14 0 28 73.39 38.8
14 0 28 8.8 19.2
28 0 -14 1.6 13.9
0 28 -14 16 9.3
-28 0 14 -0.9 14.9
28 0 14 32.2 16.4
-28 14 0 -13.1 18.2
0 14 28 9.9 16.3
-28 2 14 63.19 17.1
2 -14 28 102.89 42.4
-28 14 -2 93.39 27.6
-2 -28 14 87.39 33.1
-2 14 28 66.79 18.1
-14 28 2 42.4 13.9
14 2 28 57.19 19.3
28 -14 -2 58.19 12.7
-14 -2 28 31.6 30.1
2 28 14 88.79 16.9
-2 28 -14 67.79 11.8
28 -2 14 91.49 18
14 -2 -28 68.79 11.2
-2 14 28 50.09 18.1
14 28 -2 70.39 17.2
-14 -2 28 136.09 39.3
14 -28 2 22.5 18.3
2 28 -14 59.19 11.6
-14 28 -2 78.69 17.7
-2 -14 28 50.29 57.59
14 2 -28 85.39 12.8
2 -14 -28 73.29 13.4
28 -2 -14 79.09 13.4
28 2 14 30.9 18.4
2 14 28 59.29 18.1
2 14 28 53.59 17.7
-28 14 2 67.79 18.2
-2 28 14 55.29 19.9
-14 2 28 156.68 57.89
28 -14 2 63.29 14.2
14 28 2 51.09 17.1
2 -28 14 80.99 47.5
14 -2 28 71.99 22.4
14 -28 -2 75.79 18.8
-28 -2 14 49.7 16.4
-14 2 28 46.6 38.6
14 -2 28 48 32.6
-14 -4 28 339.97 40.7
14 -28 4 332.77 34.2
-14 28 4 292.67 25.5
28 -14 -4 298.57 23.9
-14 -4 28 254.17 41.9
-4 -28 14 304.07 37.3
14 -4 -28 348.17 21.3
28 -4 14 326.07 28.4
4 28 14 340.27 27.2
-4 28 -14 285.07 20.6
14 4 28 288.97 32.8
-4 14 28 284.57 29
-4 14 28 377.76 31.8
4 -14 28 301.07 40.2
14 28 -4 284.57 27.6
-28 4 14 274.27 28.1
28 -4 -14 278.47 21.6
4 14 28 225.78 31.1
14 28 4 317.77 27.9
14 4 -28 353.46 24.2
4 -14 -28 310.77 22.1
-14 28 -4 308.67 29.2
-14 -28 4 302.17 44.7
-4 -14 28 374.16 57.39
-4 28 14 392.56 35
-28 14 4 331.17 29.6
28 4 14 360.76 34.5
28 -14 4 309.27 24.8
28 -14 4 321.37 24.6
14 -4 28 323.97 48.1
14 -4 28 291.47 42.2
-14 4 28 332.27 50.79
4 28 -14 309.57 20.3
14 -28 -4 275.87 27.8
-28 -4 14 319.37 27.8
4 14 28 256.47 29.1
14 28 -6 296.57 23.7
6 28 14 347.17 26.7
-6 28 -14 299.77 19.9
-14 -6 28 378.26 40.9
-6 14 28 296.27 29.5
14 -28 6 262.87 33
-6 14 28 226.68 31.3
28 -14 -6 310.27 22.2
28 -6 14 372.56 27.6
-6 -28 14 268.17 42.1
-14 -6 28 287.47 44.2
-28 6 14 335.97 27.3
-28 14 -6 323.97 20.3
14 -6 -28 320.37 19.5
-14 28 6 349.07 25.6
14 6 28 303.17 31.6
6 -14 28 307.57 38.5
-14 28 -6 279.77 31.4
14 -6 28 337.07 49
28 -14 6 306.17 24.3
6 14 28 317.87 28.8
-14 -28 6 286.37 44.4
28 -14 6 311.17 25.2
28 -6 -14 298.97 21
-14 6 28 320.47 51.29
6 -14 -28 346.57 19.9
6 -28 14 326.07 41.4
6 28 -14 302.57 19.9
-28 -6 14 285.47 26.4
14 -28 -6 313.97 28
14 28 6 300.87 27.7
28 6 14 264.97 39.9
-28 14 6 357.36 27.2
-6 -14 28 244.18 45.1
6 14 28 351.56 29.1
-8 14 28 101.89 16.8
14 -28 8 47.7 20.4
-8 -28 14 101.69 30.8
-28 8 14 75.59 16.2
-8 28 -14 97.19 12.2
-8 14 28 111.59 22.3
-14 28 8 71.39 14.3
-14 -8 28 126.59 40.1
-28 14 -8 87.39 10.6
-14 -8 28 97.59 27
8 28 14 84.49 15.2
14 -8 -28 83.69 10.6
8 -28 -14 92.49 15.7
14 28 -8 96.79 12.8
8 -14 28 111.99 30.7
14 8 28 76.39 17.1
28 -8 14 118.29 16.1
-8 -14 28 97.89 40.1
8 -14 -28 92.09 11.5
8 28 -14 79.39 11
14 -28 -8 72.09 17.3
28 -14 8 101.39 14.9
28 -14 8 91.69 14.7
28 -8 -14 118.59 12.7
8 14 28 106.49 19
8 14 28 91.19 16.6
-28 14 8 74.09 16.1
14 -8 28 27 30.1
-14 8 28 57.49 32.9
-28 -8 14 112.09 17.5
14 28 8 40.5 16.4
8 -28 14 33.9 32.6
14 10 28 21.7 15
14 -28 10 2.2 20.7
14 28 -10 7.1 9.7
28 -14 -10 30 10.6
28 -10 14 8.1 13.4
14 -10 -28 10.1 8
-10 28 -14 18.3 10.4
-14 -10 28 70.99 40.6
-14 -10 28 -2.1 27.6
-10 -28 14 12.9 30.4
-14 28 10 1.7 12.8
10 -14 28 22.7 27.2
10 -28 -14 19.9 14.1
10 28 14 -6.6 13.3
-28 10 14 0.4 15
-28 14 -10 14.9 9.1
10 -14 -28 -3.5 9.4
28 -14 10 12.6 12.1
10 14 28 45.7 21.1
-28 14 10 -10.7 14.2
-10 -14 28 35.5 43.2
14 28 10 -15.1 16.3
-28 10 -14 22.8 8.6
14 -10 28 -15.1 27.6
28 -14 10 8 12.7
10 28 -14 17.1 9
10 -28 14 -5.9 28.4
-28 -10 14 -18.5 14.3
28 -10 -14 12.2 9.4
14 -28 -10 -15.1 15.2
14 12 28 -10.9 15
14 28 -12 11.9 9.9
12 -14 28 36.1 28.8
14 -28 12 13.5 23.2
28 -12 14 43 15.2
-12 28 -14 24.5 13.1
12 28 14 1.1 15.6
14 -12 -28 14.2 8.5
-14 28 12 15.2 23.7
-28 14 -12 -5.2 8.6
12 -28 -14 -19.7 13.3
28 -14 -12 28.6 10.7
-28 12 14 -17.5 15
-28 12 -14 0.8 8.6
12 14 28 6 14.6
-28 -12 14 42.8 15.3
14 -28 -12 34.4 15.5
12 -28 14 12.9 25.1
14 -12 28 11.5 27.6
28 -14 12 6.4 13.8
12 28 -14 18.9 8.7
28 -12 -14 10.5 9.7
-28 14 12 -29.7 13.7
16 0 28 19.4 18
0 16 28 55.49 15.8
-28 16 0 22.8 20.5
-16 0 28 59.59 39.3
16 0 -28 25.7 10.7
28 -16 0 16.1 13.7
16 28 0 1.1 17.2
16 -28 0 41.4 17.6
0 16 28 19.4 15.3
-28 0 16 -5.5 15.8
28 0 -16 41.5 25.7
0 28 16 -2.5 15.7
0 28 -16 25.4 9.7
28 0 16 40.3 16.3
-16 28 0 9.8 13.4
16 -28 2 142.89 20.9
2 -16 28 144.39 49.6
-16 28 2 168.38 22.2
16 -2 -28 142.99 15.9
16 2 28 155.08 20.9
-16 -2 28 135.69 45.2
-2 16 28 104.19 17.9
-28 2 16 118.59 18.8
28 -2 16 94.09 17.2
28 -16 -2 144.49 16.1
-2 -28 16 157.88 42.2
-2 28 -16 119.49 16.6
2 28 16 136.49 17.4
-2 16 28 109.89 17.6
16 28 -2 97.49 18.8
2 16 28 121.19 17.6
16 -2 28 148.19 21.6
16 -28 -2 151.98 20.4
-28 16 2 210.38 29.2
28 -16 2 101.79 15.2
-28 -2 16 143.39 18.9
-2 28 16 147.29 20.1
28 2 16 120.19 18.8
2 16 28 107.89 17
-16 28 -2 100.19 16.7
-16 2 28 133.69 42.1
28 -16 2 123.39 19
2 28 -16 127.69 16.4
28 -2 -16 175.58 21.4
16 2 -28 165.08 20.5
16 28 2 189.88 26.8
-16 -4 28 323.27 49.9
-28 4 16 479.75 31.8
-16 28 4 477.85 28.1
4 -16 28 453.25 62.09
28 -16 -4 444.66 26.5
16 4 28 469.45 33.6
-4 -28 16 429.06 50.99
-4 16 28 455.95 29.7
28 -4 16 406.96 28.1
4 28 16 430.16 27.9
-4 16 28 415.96 30.3
-4 28 -16 456.35 22.3
16 -28 4 428.76 33.7
16 -4 -28 473.45 22
-28 16 -4 388.26 26.1
16 -4 28 389.86 41.2
28 -4 -16 431.26 24.4
28 -16 4 418.06 26.2
-4 28 16 453.25 35.6
4 16 28 394.96 30.6
16 28 4 425.16 32.5
-16 4 28 459.95 58.19
-16 28 -4 469.75 30.5
-28 -4 16 454.45 29.9
28 4 16 431.96 34.7
-28 16 4 419.06 28.2
16 -28 -4 384.06 29.8
28 -16 4 413.16 27.3
4 28 -16 429.86 22.7
4 16 28 433.76 29.2
-6 28 -16 394.96 21.1
16 -28 6 341.87 35.3
-6 16 28 421.26 30.9
-28 16 -6 420.06 24.1
28 -6 16 372.06 29.3
6 28 16 429.56 27
16 -6 -28 387.36 20.6
-28 6 16 388.26 29.4
-16 -6 28 291.07 57.99
-16 28 6 428.36 24.8
-6 -28 16 500.85 50.69
-6 16 28 425.36 27.2
6 -16 28 436.86 54.59
28 -16 -6 351.66 22.7
16 6 28 358.66 31.9
6 16 28 388.96 28.6
-28 16 6 438.16 28.1
16 -28 -6 363.56 30
-28 6 -16 397.86 21.2
16 -6 28 403.46 48.6
28 -6 -16 437.36 23.1
28 -16 6 374.16 27.4
-28 -6 16 393.36 28.9
28 -16 6 452.85 26.6
16 28 6 396.96 31.4
28 6 16 380.36 41.7
6 28 -16 405.06 21.4
6 16 28 433.76 28.7
-8 28 -16 133.69 15.8
-16 28 8 108.99 14.2
16 -8 -28 132.89 13.5
-28 16 -8 103.79 11.7
8 -16 28 61.39 31.7
16 -28 8 87.39 20.6
16 8 28 107.79 16.8
8 28 16 125.59 15.7
28 -8 16 148.59 21.3
8 -28 -16 105.39 15.7
-28 8 16 113.29 18.5
28 -16 -8 111.39 16.5
8 16 28 132.99 18.9
-28 16 8 126.99 16.6
28 -16 8 120.69 15.5
28 -16 8 127.29 16.8
-28 8 -16 156.68 16
28 -8 -16 131.89 15.7
8 28 -16 141.99 14.4
8 16 28 113.09 16.9
16 -28 -8 120.59 18.4
-28 -8 16 112.19 18
16 -8 28 156.68 31.3
8 -28 16 113.99 58.39
28 -18 0 54.49 12.3
0 18 28 41.4 14.8
0 28 -18 41.7 9.9
0 28 18 72.49 16.3
0 18 28 39.7 12.9
18 0 28 52.49 18.1
-28 0 18 63.89 28.1
28 0 18 49.9 15.9
28 -18 0 61.99 20.8
18 -28 0 59.79 19.3
-18 28 0 61.19 14.7
28 -2 18 126.99 16.7
-2 18 28 160.98 23.9
18 2 28 152.08 18.9
-18 28 2 150.58 21
28 -18 -2 128.59 22.5
2 28 18 111.19 16.4
18 -2 -28 164.58 16.6
-2 18 28 145.69 16.2
18 -28 2 134.29 21.7
-2 28 -18 142.39 15.9
18 -28 -2 137.19 20.6
28 -18 2 158.78 16.2
2 18 28 141.19 20.5
18 -2 28 120.09 21.1
2 28 -18 170.68 15.1
28 2 18 149.49 18.9
2 18 28 156.28 22.8
-28 18 2 144.19 20.1
-18 28 -2 147.59 28.6
18 -28 4 318.77 29.9
-4 18 28 388.16 28.7
18 4 28 322.67 28.3
28 -4 18 431.96 26.9
-4 28 -18 422.26 21.2
18 -4 -28 379.66 19.1
4 -28 -18 341.67 26.3
-18 28 4 360.86 23.5
4 28 18 316.07 24.2
-4 18 28 362.06 25.7
28 -4 -18 379.06 36.5
4 18 28 390.26 28
4 18 28 336.67 24.1
-28 18 4 404.26 29.1
4 28 -18 401.26 19.2
18 -28 -4 322.87 29.8
28 4 18 377.16 39.1
28 -18 4 405.26 27
-1 29 1 265.47 37.6
-1 -1 29 140.69 53.79
29 -1 -1 182.78 27.6
29 -1 1 245.48 27.5
1 1 29 229.48 35.4
29 1 1 228.08 29.9
-29 -1 -1 222.28 26.1
-29 -1 1 230.38 32.3
-29 1 -1 204.18 25.8
-29 1 1 283.77 37.5
-1 29 -1 194.28 22.7
-1 1 29 143.39 27.9
-1 29 -1 204.98 26.4
1 29 1 181.78 22.2
1 -29 -1 121.79 30.3
1 -29 1 247.88 36.6
1 29 -1 184.48 25
1 29 1 156.38 25.1
-1 29 1 205.48 29
29 -1 -1 274.97 37.8
29 -1 1 251.97 37
29 1 1 147.69 26.1
-1 1 29 143.09 49.8
1 -1 29 201.58 61.69
1 1 29 359.56 57.89
1 -1 29 174.88 27.3
1 1 29 245.78 37.5
-1 -1 29 217.98 31.1
29 1 -1 211.18 29
1 29 -1 186.38 27.9
3 -29 1 43.2 26.3
3 1 29 -14.3 21
1 -29 -3 39.4 26.3
-29 1 3 -22.5 17.1
29 -3 -1 -4.3 13.7
1 -3 29 -2.8 64.69
1 29 3 6.1 20.1
29 -1 3 20.5 15.8
29 1 -3 -9.5 16.8
-1 29 -3 12.5 21.5
-1 3 29 70.29 44.6
29 -3 -1 -3.9 16.9
-3 29 1 22.9 16.6
-3 -1 29 -10.7 42.3
-3 29 1 -13.9 24.1
-1 3 29 1.8 22.6
3 29 -1 -29 18.7
3 1 29 -12.1 52.59
1 -3 29 -12.4 34
-29 -3 1 4.8 18.8
3 29 -1 10.6 14.6
-3 -1 29 -11.1 22.4
-1 29 -3 -2.7 16.5
1 29 3 -7.5 15.5
-29 3 -1 25.1 21.8
29 -1 3 -4 17.9
1 -3 29 -16.2 22.6
-29 -1 3 10.4 17.7
-3 29 -1 16 24.8
1 29 -3 4 19
-3 1 29 17 23.4
1 3 29 2.5 52.79
1 29 -3 -16.9 14.1
-1 -3 29 -49 47.8
-1 29 3 12.9 21.7
3 29 1 -13.5 19.6
1 3 29 -10.6 25.7
-3 29 -1 -2.4 15.1
3 -29 -1 15.8 23.8
29 -3 1 21.9 14
29 3 -1 36.3 22.1
-1 29 3 39.5 17
-3 1 29 43.5 43.5
-29 3 1 31.7 19.2
3 -1 29 8.6 21.6
3 29 1 -17 14.1
29 -1 -3 -5.4 22.3
29 -1 -3 28.2 15.1
1 3 29 -17.8 21.7
29 1 3 0.3 17.8
29 1 3 -12.9 20.8
-29 -3 -1 -4 20.1
29 -3 1 -7.5 17
3 -1 29 -10.6 32.5
29 -3 3 98.59 19.1
29 -3 -3 123.99 17.9
29 -3 3 86.69 16.5
-3 3 29 74.69 23
-3 29 -3 92.99 17.9
3 29 3 60.49 21.4
-29 -3 3 109.49 20.7
29 3 -3 110.89 24.2
29 3 3 135.29 23.2
-29 3 3 60.89 19.8
3 -3 29 91.99 34.8
3 3 29 95.69 26.3
29 -3 -3 93.19 19.9
3 -29 -3 116.99 24.6
3 3 29 77.59 22.5
-3 29 -3 70.19 25.7
-3 -3 29 185.98 47.1
-3 3 29 109.99 43
3 29 3 105.69 18
3 -29 3 61.09 28.8
3 -3 29 99.29 25.1
-3 29 3 59.29 16.3
-3 29 3 101.89 25.5
-3 3 29 87.29 29.3
3 29 -3 90.29 20.3
3 29 -3 88.89 16.8
-1 29 -5 10.8 14.6
1 29 5 19.2 15.6
-1 5 29 54.99 24.4
5 29 -1 15.3 17.5
1 29 5 40.3 20.1
1 -29 -5 0 26.4
-1 29 -5 25 21.7
29 -5 -1 29.3 13.7
-5 29 1 36.3 15.2
-1 5 29 -16.1 45.4
-5 -1 29 28 22.2
-29 1 5 27.4 16.3
-1 5 29 11.4 18.7
29 -1 5 25.8 16.1
5 1 29 73.59 26.6
5 1 29 39.2 22.8
1 -5 29 6.1 34.1
5 -29 1 13.6 22.7
-29 5 -1 38.2 22.8
29 -1 5 23.8 18.4
29 1 -5 22.7 17
-5 -1 29 14.8 38.9
1 5 29 22.7 50.89
1 29 -5 23 14.2
-5 1 29 54.79 22.7
5 -1 29 66.99 31.7
1 5 29 29.2 20.4
-1 29 5 19.4 21.4
5 29 1 18.4 17.7
-5 1 29 34.2 40
29 1 5 26.1 21.4
-29 5 1 25.3 19.1
1 5 29 57.69 24.2
1 29 -5 0.9 19.4
29 -1 -5 19.1 15.2
-1 29 5 34.4 15.5
29 -5 1 12.6 13.1
29 1 5 22.2 16.8
29 -5 1 8.5 14.9
5 -1 29 5.6 29.5
-5 29 -1 31.1 15.5
5 -29 -1 40.7 20.7
-29 -1 5 27 16.7
-29 -5 -1 26.6 22.1
5 -1 29 31.8 23.7
-1 -5 29 -4.9 36.9
-1 -5 29 6.6 52.19
5 29 -3 137.49 22.2
3 -29 -5 234.28 35.2
5 3 29 162.18 24.6
-3 5 29 152.38 42.1
3 -5 29 100.89 35
-3 29 -5 205.98 27.1
5 -29 3 199.98 28.7
-5 29 3 207.18 27.9
-29 5 -3 246.58 37.5
29 -3 5 178.58 26.1
29 -5 -3 239.88 24.3
-5 29 3 243.78 34.6
5 3 29 174.68 26.4
3 29 5 199.98 24.4
-3 5 29 192.68 28.5
-3 29 -5 247.88 28.3
-29 3 5 180.08 22.3
3 29 5 270.47 27
3 -5 29 185.88 27.4
-5 -3 29 237.08 45.1
-3 5 29 200.98 27.1
29 -3 5 232.58 23.5
-5 3 29 194.08 42.9
5 -3 29 195.08 27.4
29 -5 3 249.08 28.2
29 -5 3 241.78 25.5
3 5 29 247.88 29.1
3 5 29 256.27 33.2
29 -3 -5 211.68 24.6
3 -29 5 217.68 35.9
-29 5 3 198.38 24.8
-5 29 -3 196.88 28
5 29 3 227.78 30.8
-3 29 5 250.77 38.2
5 -3 29 198.08 35.4
-5 3 29 175.48 24.8
-29 -3 5 200.28 30.3
3 29 -5 162.68 22.8
-3 29 5 230.78 28.6
5 -29 -3 232.38 35.4
29 3 5 206.38 24
29 3 5 195.38 29.1
-3 -5 29 250.77 48.3
5 -29 -5 455.85 37.3
5 -5 29 380.26 58.69
5 -29 5 363.16 48.2
5 29 5 375.76 33.7
29 -5 5 402.06 32.5
5 -5 29 443.86 43.5
-5 29 5 387.56 54.69
-5 5 29 386.36 37.7
29 -5 -5 467.15 28.8
-5 5 29 380.36 45.8
-5 -5 29 320.27 47.3
-5 5 29 347.47 45.1
5 29 -5 430.86 35.5
5 5 29 399.76 35.8
-29 5 5 429.56 36.3
-5 29 -5 403.16 32.7
5 29 -5 443.06 36.8
29 -5 5 439.86 30.7
-5 29 5 404.56 31.3
5 5 29 449.16 42.2
29 1 -7 1.9 16.7
1 29 7 -12.8 17.4
-29 7 -1 -23.3 19.7
29 -7 -1 5.8 13.2
-1 29 -7 6.6 14.9
7 1 29 -19.9 23.9
-7 -1 29 -7.7 21.2
7 29 -1 -9 15.5
7 1 29 5.1 22.6
-1 29 -7 8.3 14.3
-1 29 -7 6 20.8
-1 7 29 4.2 18.1
1 29 7 13.1 15
-7 -1 29 -26.4 36.3
-1 7 29 -11.8 20.8
-1 7 29 -70.59 39.6
7 -29 1 27.6 21
29 -1 7 9.7 15
29 -1 7 22.7 18.1
1 -29 -7 74.69 23.6
-29 1 7 -14.7 15.2
-7 29 1 1.8 14.5
1 -7 29 36.5 36.1
-1 -29 7 -36 24.8
1 7 29 -4 16.9
-7 1 29 13.9 38.5
-7 1 29 14.6 21.5
1 29 -7 0.9 18.5
-1 29 7 1.1 19.5
1 29 -7 -7.6 14
1 7 29 -1.1 20
29 1 7 19.9 16.6
-29 -1 7 14.7 16.7
-1 -7 29 -30.8 51.39
29 -1 -7 1.5 14
1 -29 7 20.6 27.9
7 -1 29 19.5 24.3
7 -29 -1 -10.4 19.8
29 -7 1 21.4 13.8
7 29 1 16.5 16.4
29 -7 1 -9.2 11.7
7 -1 29 4.7 31.6
-7 29 -1 3.9 13.6
-29 7 1 -21 18.4
-1 -7 29 -36.7 38.6
-1 29 7 -24.3 13.4
29 1 7 -13.6 19.3
1 7 29 -23.6 46.7
7 -1 29 26.8 26.8
-7 29 3 117.99 18
29 -3 7 121.89 18.3
-3 29 -7 118.29 18.7
-3 -29 7 108.79 26.8
3 -29 -7 99.49 22.2
29 -3 7 132.59 17.4
3 29 7 121.79 20.2
-3 7 29 138.89 23.2
7 3 29 134.89 24.4
3 29 7 115.89 17.5
-3 7 29 133.29 24.6
7 -29 3 131.49 24.4
-29 3 7 127.09 20.1
-3 29 -7 110.09 16.7
7 29 -3 119.89 20.2
7 3 29 116.49 23.9
3 -7 29 92.29 36
-3 7 29 85.99 37.9
29 -7 -3 99.09 14.9
-7 -3 29 110.09 40.5
-3 -7 29 62.89 46.4
7 -29 -3 117.59 21.7
29 -3 -7 181.58 22.8
-3 29 7 127.19 24.4
-7 3 29 157.08 25.4
7 -3 29 122.09 35.4
7 29 3 125.59 20.8
3 29 -7 96.29 15.7
-7 3 29 121.69 39
7 -3 29 97.39 27.8
-29 -3 7 91.19 18.2
3 -29 7 156.78 38
29 -7 3 144.49 17.8
3 7 29 110.29 23.8
-29 7 3 106.49 20.2
3 29 -7 71.99 18.7
29 3 7 79.39 24
-3 29 7 112.59 17.9
3 7 29 107.79 21.2
3 -29 7 126.99 31.4
-7 29 -3 108.19 17.6
29 -7 3 167.68 25.2
29 3 7 94.59 22.6
7 29 -5 370.56 32.3
29 -5 7 330.07 29.1
29 -5 7 316.97 26.2
5 -7 29 257.77 30.9
-7 -5 29 369.06 57.69
-7 29 5 320.87 28.4
-5 7 29 239.18 42.4
5 -7 29 300.17 41.4
-5 29 -7 307.97 28.1
7 5 29 324.27 36.8
7 5 29 317.77 37
-5 7 29 345.67 40.6
-29 5 7 330.07 31.8
-5 -29 7 344.57 37
29 -7 -5 334.07 24.9
5 -29 -7 376.86 33.3
7 -29 5 424.06 41.5
-5 7 29 406.26 37
7 29 -5 328.17 29.6
5 29 7 371.16 31
-5 29 -7 278.47 28
29 -7 5 338.17 28.6
5 29 -7 378.96 31.5
-7 5 29 322.07 43.4
-7 5 29 326.27 40.1
29 -7 5 354.96 27.7
-7 -29 5 336.97 38.1
7 -29 -5 328.87 33.7
-7 5 29 352.16 36.7
5 -29 7 357.16 49
5 7 29 314.07 33.9
-5 29 7 320.87 28.7
7 -5 29 330.57 51.09
7 -5 29 276.97 33.1
5 29 -7 317.47 25.7
-7 29 -5 338.07 28.7
-5 -7 29 336.97 49.2
5 7 29 375.46 37.5
7 29 5 350.96 31.7
29 -5 -7 368.86 24.7
-29 7 5 341.67 31.8
5 -29 7 383.96 48.3
-5 29 7 324.27 47.2
7 29 -7 312.57 28
7 7 -29 308.07 25.8
-7 -29 7 290.17 38.3
29 -7 7 264.97 23.6
7 29 -7 216.78 25.1
-7 7 29 281.57 34.6
29 -7 7 245.38 27.3
7 7 29 297.67 33.8
7 -29 -7 302.27 30.6
7 -7 -29 345.97 22.2
7 -7 29 256.67 38.2
7 7 29 296.17 34.4
-7 -7 29 271.27 46.3
29 -7 -7 333.57 23
7 -7 29 315.27 45.8
-29 7 7 272.87 29.2
-7 29 -7 243.68 30.8
-7 7 29 254.57 37.7
-7 29 7 293.97 26.6
7 -29 7 302.97 41.8
7 29 7 264.17 29.2
-7 7 29 238.58 40.8
9 1 29 88.19 24.1
1 29 9 45.9 17.2
-9 -1 29 45.7 35.7
1 -29 -9 40.3 22.8
1 29 9 74.29 20.2
9 1 29 37.8 26.4
9 -1 -29 42.1 11.8
-29 9 -1 64.69 20.7
-9 29 1 47.5 15.2
-1 9 29 38.7 18.1
9 -29 1 69.69 21.3
29 -1 9 47.8 18
-9 -1 29 46.7 23.3
-1 9 29 59.59 21.1
-29 1 9 37.3 16.8
9 29 -1 56.29 15.9
-1 -29 9 61.39 28.3
29 1 -9 67.29 18.8
29 -9 -1 62.59 15
29 -1 9 85.99 16.5
1 -9 29 87.59 38.4
-1 29 -9 50.09 13.3
9 1 -29 60.09 12
9 -1 29 62.39 29.4
-1 -9 29 112.99 41.2
-1 29 9 75.59 19.8
9 -29 -1 40.9 19.6
-29 -1 9 59.49 16.3
29 1 9 50.29 17
-9 29 -1 47.5 15.5
-1 -9 29 154.48 57.19
29 1 9 93.59 20.7
-9 1 29 53.59 22
1 29 -9 61.09 13.9
29 -9 1 71.69 13.9
9 29 1 75.69 17.2
-9 1 29 114.89 38
1 -29 9 52.19 31.1
29 -1 -9 43.6 14.5
1 9 29 33.9 18.2
-1 29 9 27.5 15.9
-29 9 1 48.3 19.3
9 -1 29 23.7 29
9 -1 29 55.09 25.9
1 9 29 65.99 20.9
9 -3 -29 3.3 10.2
9 -29 3 13.9 20.1
-3 -29 9 39.3 26.6
-9 -3 29 -17.7 38.8
-9 -3 29 15.5 21.3
3 -29 -9 -0.3 19.6
3 29 9 -2.9 16.8
9 3 29 -11.1 24
3 -9 29 36.5 35.1
-29 3 9 17.3 15.3
-3 9 29 20.5 19.9
9 3 29 -29.3 19.3
-3 9 29 50.89 35.3
29 -9 -3 -7 10.9
29 -3 9 6.4 15.3
9 29 -3 0.7 14.8
-3 29 -9 6.5 12.6
29 -3 9 3.9 13.5
-3 9 29 -18.2 17.4
-9 29 3 -13.2 13.9
-3 29 9 3.5 15.5
9 29 3 2.1 15.3
3 -29 9 39.6 41.4
9 -3 29 -54.89 29.4
-29 -3 9 10.6 15.7
3 -29 9 -22.9 33.2
-9 29 -3 -1.4 13.7
-3 29 9 -1.2 21.1
-3 -9 29 -22.2 47.5
9 3 -29 1.9 11.2
9 -3 29 -32.1 28.8
29 -3 -9 -13.7 11.1
29 3 9 5 21.4
29 -9 3 5.3 13
9 -29 -3 13.4 18.4
3 29 -9 18 12.2
3 9 29 -1.7 18.5
-9 3 29 23 21.3
-9 3 29 -17.6 33.4
29 -9 3 3.9 12.4
-29 9 3 11.9 17.2
3 9 29 19.7 18.5
-9 -29 3 -17.7 24.8
-5 9 29 98.59 21.3
9 -29 5 164.98 24.9
5 -29 -9 81.19 19.7
5 29 9 66.99 17.6
9 5 29 131.79 22.7
-5 -29 9 68.19 25.5
29 -5 9 90.59 15
-5 9 29 97.09 20.8
-5 9 29 88.39 34.8
9 29 -5 109.59 18.6
-9 29 5 110.29 16.5
29 -5 9 99.29 18.7
5 -9 29 102.29 27.5
-9 -5 29 87.19 38.2
29 -9 -5 91.39 14.3
-29 5 9 114.09 17.9
-5 29 -9 84.49 18.5
9 5 29 123.19 25.4
-5 29 -9 117.49 14.8
5 -9 29 114.69 36.3
9 -5 -29 125.19 18.5
5 -9 -29 90.59 12.5
-5 29 9 89.69 16.9
9 -5 29 80.69 32.1
9 5 -29 87.79 14.3
5 -29 9 120.59 44.7
-9 5 29 147.09 37.2
29 5 9 104.19 30.5
-9 5 29 113.19 22.9
5 9 29 70.19 19.3
-29 9 5 102.99 19.3
-5 29 9 132.19 30.2
29 -5 -9 91.79 12.8
-9 -29 5 144.89 28.6
29 -9 5 101.89 16.1
-5 -9 29 86.09 46.9
5 29 -9 62.39 12.8
9 29 5 80.89 17.5
5 9 29 84.09 19
5 -29 9 96.49 33
29 -9 5 71.09 13.7
-9 29 -5 120.39 16.6
9 -29 -5 103.99 20.3
9 7 29 54.69 19.1
29 -7 9 69.69 15.8
9 29 -7 69.59 14.2
-7 -29 9 80.79 27.8
-7 9 29 94.09 20.8
9 7 29 59.09 22
7 29 9 55.69 16.1
-7 9 29 62.69 20.7
7 -9 29 140.19 47.5
-7 29 -9 62.49 19.4
7 -9 29 104.99 33.7
-9 29 7 18.5 14.2
-7 9 29 61.79 31
-7 29 -9 32.6 14
7 -29 -9 64.69 17.2
9 -29 7 67.69 24.1
9 29 -7 72.79 16.1
9 -7 -29 60.49 10.8
29 -9 -7 44.7 11.7
-9 -7 29 87.49 37.4
-29 7 9 66.69 17.1
29 -7 9 42.1 13.1
-29 9 7 80.49 16.3
29 -9 7 27.4 12
-9 7 29 5.8 21.8
-9 29 -7 47 17.9
29 -9 7 43.3 14.1
7 9 29 43.5 17.6
7 -9 -29 59.49 10.9
29 -7 -9 61.99 11.7
-7 29 9 44.8 15.1
9 -29 -7 50.49 17.2
-7 -9 29 15.9 40.6
-9 7 29 65.59 35.8
7 9 29 41.2 18.6
9 29 7 35.3 16.4
9 -7 29 23.3 31.8
7 29 -9 30.8 12.3
-9 -29 7 66.89 25.4
7 -29 9 43.1 26.9
-9 29 9 -2.7 14
-9 -9 29 -36.9 37.5
9 -9 -29 23.2 9.1
-9 9 29 -46 28.7
9 9 29 -32.7 20.4
29 -9 9 5.2 11.6
9 29 9 12.3 14.3
9 -9 29 11.4 30.5
29 -9 -9 6.7 9.9
-9 29 -9 -10.3 14.6
9 -29 -9 17.3 15.8
9 -29 9 -9.8 23.5
29 -9 9 13.8 12.6
-9 -29 9 37.2 25.4
9 29 -9 4.6 11.4
-29 9 9 -6.8 13
9 9 29 19 16
-9 9 29 0.7 22.3
11 29 -1 93.89 16.7
-1 11 29 94.29 19.4
29 -1 11 110.79 18.4
-11 29 1 155.78 23
-11 -1 29 88.89 23.2
29 -1 11 168.08 24.9
11 1 29 93.49 22.7
-29 1 11 110.39 17.9
29 1 -11 78.89 19.2
1 -11 29 101.39 40
-11 -29 -1 180.68 31.8
-1 29 -11 159.78 18.5
-11 -1 29 70.29 38.7
-1 11 29 141.39 20.7
-1 -29 11 119.69 32.5
-29 11 -1 128.49 22.6
11 -1 -29 113.39 13.2
1 -29 -11 94.99 23
1 29 11 171.78 25.5
29 -11 -1 149.39 20.8
11 -29 1 109.69 21.3
-29 -1 11 80.59 16.9
1 11 29 96.99 19.7
-11 1 29 113.39 24.8
-29 11 1 142.09 22.3
29 -11 1 92.19 14.5
-1 29 11 79.49 19.8
1 29 -11 112.69 13.5
1 11 29 108.19 19.9
-1 29 11 150.08 19.9
-11 29 -1 94.69 16.2
11 -29 -1 110.49 20.2
1 -29 11 104.09 35.1
11 1 -29 134.99 18.3
11 29 1 132.89 17.8
-11 1 29 114.39 38.9
-11 -29 1 95.69 28.2
-1 -11 29 80.19 43.6
11 -1 29 102.39 24.7
-1 -11 29 182.18 90.19
29 1 11 115.09 19.7
29 -1 -11 122.69 15.6
11 -1 29 116.99 31.7
-11 -3 29 -5.8 20.9
11 29 -3 29 15.3
3 -29 -11 9.9 18.8
-3 11 29 38.5 18.6
3 29 11 6.9 15.4
-29 3 11 4 14.8
-3 29 -11 -1.9 11.2
-3 -29 11 12.3 26.5
29 -11 -3 -4.4 11
29 -3 11 28.4 15.2
29 -3 11 7.4 12.9
11 3 29 -0.4 19.4
-11 -3 29 -65.79 34.4
-3 11 29 -28.3 17.1
3 -11 29 35 34.5
11 -3 -29 21.2 9.7
-11 29 3 1.3 12.7
11 -29 3 -26 18.3
-3 -11 29 114.49 54.29
-11 3 29 49.99 24.4
3 11 29 -7.1 15.8
-11 3 29 0.8 34.2
3 -11 -29 23.1 10.4
3 11 29 32.2 17.9
29 3 11 -2.7 20.2
29 -11 3 -6.3 12.4
-3 29 11 -1.9 19.6
3 -29 11 51.09 38.7
-11 29 -3 16.7 13.8
11 -29 -3 2 17.4
-29 11 3 32.2 16.7
11 29 3 -14.6 14.4
3 29 -11 20.6 10.9
11 -3 29 25.6 28.6
29 -3 -11 14.6 11.7
-3 29 11 11.5 16.6
11 3 -29 1.7 11.3
-11 -29 3 -24.9 27.7
-29 -3 11 13.2 15.2
11 -3 29 -5.7 27.2
29 -11 3 15.4 11.7
-5 11 29 2 15.6
29 -11 -5 14.4 10.9
5 -29 -11 21.8 16.8
-5 -29 11 -33.6 26.2
-11 -5 29 -16 36.9
11 -5 -29 26.7 9.9
29 -5 11 14 14.5
-11 29 5 2.7 13.2
5 -11 29 89.19 35
11 -29 5 -7.5 20.5
29 -5 11 13.6 12.4
11 5 29 -11.9 18.7
-5 11 29 31.7 19.1
11 29 -5 39.9 15.7
-5 29 -11 22.2 11.7
5 29 11 23.9 15.1
5 -11 29 59.79 27.5
-11 -5 29 93.79 24
-29 5 11 0.4 15.2
-5 29 11 -5.9 39.5
-11 5 29 -11.7 33.6
-11 5 29 -38.2 24.6
5 11 29 -0.5 16.7
11 -29 -5 14.9 16.3
5 -29 11 12 39.3
11 29 5 6.4 15.4
5 -11 -29 17.1 9.8
5 11 29 28.8 16.8
-29 11 5 -7.4 14.7
11 5 -29 4.3 13.7
29 -11 5 18.3 12.4
-11 29 -5 -9.5 15.1
29 5 11 26.9 25.7
29 -5 -11 5.6 10.6
-5 -11 29 71.99 46
11 -5 29 26.9 29.7
-29 -5 11 15.4 14.1
-5 29 11 2.3 15.9
5 29 -11 -2.9 10.5
-11 -29 5 94.59 30
29 -11 5 16 11.3
-11 -7 29 27.5 36.8
7 29 11 27.6 14.1
11 -7 -29 9.5 8.7
-7 29 -11 20.3 12
11 29 -7 10.6 13.4
29 -11 -7 10 10.4
-7 11 29 43.7 18.4
-7 11 29 3.8 18.7
11 -29 7 13.9 22.4
29 -7 11 6.4 11.2
7 -11 29 31.8 32
-29 7 11 45.5 15.8
7 -29 -11 -0.4 17.1
11 7 29 -2.1 16
-7 -29 11 45.9 25.5
-11 29 7 7.8 12.9
29 -7 11 6.9 12.8
-7 -11 29 50.39 43
-7 29 11 4.6 16.2
-11 7 29 6.8 26.6
-29 -7 11 -11 13.3
7 -29 11 -23 31.8
11 -7 29 42.7 29.7
7 29 -11 18.2 10.7
7 11 29 -20.8 16.1
-29 11 7 -13.1 14
-11 7 29 3.8 31.7
-11 -29 7 -30.1 27
11 29 7 26.4 15.5
11 -29 -7 -1.8 16.2
7 11 29 -10.6 17.1
29 -11 7 14.1 11.8
29 -11 7 5 12.8
-11 29 -7 5.2 17.5
29 -7 -11 -2.2 9.8
11 -9 -29 44.8 9.6
11 -29 9 38.1 22
29 -11 -9 36.6 10.7
11 29 -9 40.8 11.9
-9 -29 11 12.2 30.9
29 -9 11 69.29 12.7
-9 11 29 55.29 22.9
-29 9 11 61.19 14.3
-11 29 9 33.6 13.4
-11 -9 29 138.19 39.1
9 -29 -11 69.49 15.6
9 29 11 39.2 14.5
9 -11 29 133.59 30.7
-9 29 -11 58.69 12.9
11 9 29 50.09 16.9
29 -9 11 26.7 12.9
-29 11 9 27.5 13.5
29 -11 9 46.3 13.3
9 11 29 22.2 16.4
11 -29 -9 57.59 16.4
29 -11 9 58.69 12.7
29 -9 -11 38.6 9.9
9 11 29 56.99 20.1
-11 9 29 55.39 32.3
11 29 9 69.59 15.8
-9 29 11 30.5 15
9 29 -11 53.09 11.4
9 -11 -29 63.59 10.2
-11 9 29 43.6 31.5
-9 -11 29 -63.79 40.9
9 -29 11 86.19 28.8
11 -9 29 -2.8 28.1
-11 -29 9 41.6 30.8
11 11 29 90.19 16
11 -11 -29 109.29 13.5
11 29 11 89.49 16.1
11 -29 -11 99.19 16.5
11 -11 29 7.8 28.1
29 -11 -11 124.09 17.1
29 -11 11 53.29 12.9
11 29 -11 107.79 12
-11 -29 11 67.69 53.09
-11 -11 29 112.99 39.7
11 -29 11 73.39 26.9
-11 29 11 54.29 15.2
-29 11 11 86.29 15.9
29 -11 11 84.79 13
-1 -29 13 114.79 37.3
-29 13 -1 7.9 21
29 -1 13 32.2 15.5
13 29 -1 18.9 15.5
13 -1 -29 31.3 10.6
1 -29 -13 4.9 21.9
-1 13 29 27.1 16.6
-13 -1 29 45.7 37.9
-13 -1 29 -11.4 26.6
13 1 29 7.2 18.8
-13 29 1 9.5 13.2
13 -29 1 36.9 17.7
-29 1 13 27.9 14.9
-1 -13 -29 37.9 13.8
1 -13 29 38.4 41.9
-1 29 -13 26.6 10.4
1 29 13 11.7 15
29 -13 -1 27.9 12.1
-1 13 29 46.3 18
13 -29 -1 4.4 15.8
13 -1 29 16.4 21.3
1 13 29 32.3 16.8
-29 -1 13 49.2 15.9
13 29 1 36.2 14.2
-13 29 -1 47.7 14.7
29 1 13 23.5 16.5
-29 13 1 60.99 19.4
1 29 -13 27.3 10.5
1 13 29 28.7 16
29 -1 -13 27.3 13.8
1 -29 13 99.69 41.8
1 -13 -29 19.3 11.5
-13 1 29 92.99 36.1
29 -13 1 40.6 12
-1 29 13 2.5 17.1
-13 1 29 28.4 28.1
13 1 -29 13.2 10.1
29 -13 1 28.3 12.4
13 29 -3 21 15.5
29 -13 -3 21.5 11.8
-13 29 3 28 12.7
-3 29 -13 6.7 10.1
-3 13 29 11.1 17.1
-13 -3 29 3.3 38.9
29 -3 13 -2.3 14.3
-13 -3 29 33.4 32.5
3 -29 -13 55.59 18.6
-3 13 29 18.5 15.6
3 29 13 15.4 15.3
13 3 29 23.7 18
-29 3 13 26.4 14.4
-3 -13 -29 17.9 16.2
13 -29 3 -7.6 17.5
13 -3 -29 33.8 10.5
-13 -29 3 48.8 42.1
29 -13 3 9.5 11.2
-3 -13 29 61.09 69.89
29 -3 -13 27.1 11.5
-3 29 13 0.4 19.3
13 3 -29 8.3 12.2
-13 3 29 -78.39 44.3
3 29 -13 17.7 10
3 13 29 1 15.3
3 -13 -29 15.8 10.6
-29 -3 13 2.6 14
13 29 3 6.1 14.4
13 -3 29 -35.2 26.3
-13 3 29 21 35.7
-29 13 3 -3.3 16.2
13 -3 29 28.2 25.1
-13 29 -3 25.8 14.9
13 -29 -3 56.79 18.2
3 13 29 0 15.5
29 -13 3 27.5 12.2
29 3 13 -6.8 19.3
13 5 29 63.49 17.5
-13 -5 29 169.98 42.1
-5 -29 13 63.29 30.1
5 -29 -13 78.59 17.3
-5 13 29 89.79 19.4
13 -29 5 62.39 20.2
5 -13 29 151.18 35.6
-5 29 -13 85.69 12.3
13 -5 -29 98.99 11.3
29 -13 -5 85.09 12.9
29 -5 13 93.99 15.3
13 29 -5 66.69 16.2
-29 5 13 89.09 16.1
-5 13 29 101.89 17.4
5 29 13 100.79 16
-13 29 5 90.79 14.9
29 5 13 110.69 26
29 -5 -13 80.89 12.4
-29 13 5 57.99 16.1
5 13 29 74.89 17.2
5 -13 -29 81.89 11.2
5 29 -13 95.69 11.9
-5 -13 29 141.89 51.99
13 -5 29 106.19 28.9
13 29 5 82.19 16.7
13 -29 -5 118.19 18.3
-13 5 29 78.29 35.2
29 -13 5 104.69 15
5 13 29 83.09 17.8
-29 -5 13 109.29 16.3
29 -13 5 102.29 13.8
-13 29 -5 77.59 17.2
-7 13 29 40.4 15.6
7 -29 -13 30.3 16.1
-7 29 -13 52.39 10.9
13 -29 7 21.5 20.5
-29 7 13 32.6 14.2
-13 -7 29 56.99 25.8
-7 13 29 -0.4 19.3
-7 -29 13 47.7 30.2
-13 29 7 44.7 13.7
13 -7 -29 34.6 9.2
13 29 -7 44.4 13.8
13 7 29 7.7 15.4
-13 -7 29 56.59 38.4
7 -13 29 50.89 32.6
29 -7 13 82.09 14.3
7 29 13 50.69 14.4
-29 13 -7 54.99 10.3
29 -13 -7 24.5 11.3
7 13 29 4.1 16.9
13 -7 29 44.9 29.3
29 -13 7 29.9 12.7
13 29 7 67.49 15.6
7 -29 13 66.19 36.5
7 13 29 37.1 15.2
-7 -13 29 56.99 48.5
13 -29 -7 16 14.2
7 29 -13 41.9 10.7
29 -13 7 38.6 12.5
-13 7 29 19.3 32.5
-29 13 7 26.9 14.9
29 -7 -13 44.2 10.7
-29 -7 13 37.9 14.8
7 -13 -29 31.1 10
29 -13 -9 -3.7 10.1
-29 9 13 25.1 14.4
13 -29 9 27.8 21.6
9 29 13 -13.9 12.8
-29 13 -9 -10.9 9
29 -9 13 7.3 12.5
-13 -9 29 53.99 50.29
-13 -9 29 1.1 25.8
9 -13 29 69.19 28.8
13 9 29 22.7 14.9
-9 -29 13 34.1 41.9
9 -29 -13 17 14.1
13 29 -9 -11.5 10.9
-13 29 9 26.1 12.8
13 -9 -29 17.1 7.9
-9 29 -13 -12.9 11.1
9 -13 -29 -10.4 8.7
13 -29 -9 -13.8 14.6
29 -13 9 3.6 12.1
9 -29 13 -26.6 31
9 13 29 18.3 14
13 29 9 -13.5 15.4
9 29 -13 -2.5 8.7
-29 -9 13 1.1 13.8
29 -13 9 -4 11.8
-29 13 9 -14.2 13.6
9 13 29 27.1 20.5
13 -9 29 60.29 27.8
29 -9 -13 6.7 9.4
-29 9 -13 8.7 8.4
-15 -1 29 0.2 40.5
15 -29 1 21.6 17.3
-1 15 29 -7.2 14.9
29 -1 15 17 15.1
-29 1 15 -13.9 15
15 29 -1 -5.8 15.4
29 -15 -1 -18.7 11.2
15 1 29 -22.8 17.9
15 -1 -29 -9.9 8.9
-15 29 1 6.1 12.4
1 29 15 1.4 14.3
-1 15 29 22.2 13
-1 29 -15 1.5 8.9
15 -1 29 -24.3 15.6
29 -1 -15 -44.2 22.5
15 1 -29 24.4 11.1
1 15 29 11.8 15
-15 1 29 78.49 39.7
1 29 -15 -4.9 9.4
15 -29 -1 -28.1 15.7
1 15 29 2.5 13.5
-15 29 -1 9.8 13.8
15 29 1 16.7 17.2
-1 29 15 4 16.8
29 -15 1 -15.4 10
-29 -1 15 -10.7 14.9
29 1 15 -20.2 16.3
29 -15 1 -0.4 12
-29 15 1 35.6 19.1
-15 29 3 92.99 14.2
29 -15 -3 83.49 13.6
15 3 29 81.79 18.5
-29 3 15 95.49 16.4
3 29 15 79.69 15.5
3 -29 -15 87.89 19.2
-3 29 -15 99.79 11.6
15 -3 -29 71.79 10.4
-3 15 29 102.99 15.5
29 -3 15 58.59 15.3
3 -15 29 30.4 42.1
-3 -29 15 55.69 61.59
15 -29 3 77.39 19.4
-3 15 29 95.19 17.8
3 -15 29 67.29 31.3
-15 -3 29 127.59 44.1
-3 29 15 103.19 22.4
-29 15 3 115.59 18
-15 3 29 81.99 34.5
29 -15 3 76.39 13.9
29 -15 3 129.89 19.1
-29 -3 15 92.59 16.9
15 -29 -3 78.19 17.9
3 15 29 93.09 16.7
29 3 15 85.59 20.5
-15 29 -3 91.29 16.7
3 15 29 111.99 16.8
3 29 -15 108.89 14.7
29 -3 -15 83.09 13.5
15 29 3 75.59 16.5
15 -3 29 79.49 25.5
29 -5 15 196.38 23.9
15 5 29 171.58 25.3
15 -5 -29 242.78 15.9
-15 29 5 222.28 22
5 29 15 199.68 22.8
5 -29 -15 233.88 24.2
-5 29 -15 192.28 17.6
-5 15 29 213.38 23.1
-5 15 29 229.28 28.3
29 -15 -5 244.28 20.7
5 -15 29 151.78 37.7
15 -29 5 198.68 23.1
-29 5 15 200.28 22.6
-29 15 -5 217.08 21.7
-29 15 5 246.08 25
29 -15 5 249.38 20.7
-29 5 -15 237.08 17
-29 -5 15 287.37 25.1
5 15 29 205.58 25
29 -15 5 257.97 22.4
5 15 29 182.28 25.2
15 29 5 188.58 26.6
5 29 -15 236.38 16.5
29 -5 -15 252.57 19.1
15 -29 -5 169.38 19.4
7 -29 -15 131.49 20.8
29 -15 -7 133.29 17.2
15 7 29 143.89 17.6
-29 7 15 176.88 23.8
29 -7 15 107.59 15.5
15 -7 -29 144.79 13.5
-15 29 7 86.89 13.2
-7 29 -15 108.99 12.4
7 -15 29 159.18 34.5
15 -29 7 142.69 21.2
-29 15 -7 130.99 12.6
7 15 29 125.29 17
15 -7 29 102.79 29.7
29 -7 -15 160.88 15.9
-29 15 7 140.89 21.3
-29 -7 15 102.99 16
7 29 -15 153.08 15.3
-29 7 -15 115.09 16.7
15 -29 -7 127.09 17.7
29 -15 7 117.79 14.3
29 -15 7 124.59 15.1
7 15 29 133.79 17.2
0 30 0 434.66 37.9
0 0 30 426.16 37.5
0 30 0 465.55 30
0 0 30 517.15 81.09
30 0 0 449.95 33.2
-30 0 0 522.05 38.8
30 0 0 338.37 43.6
-2 30 0 269.27 27
30 0 -2 238.78 28.3
-2 30 0 281.27 36.5
0 30 -2 199.48 24.9
0 30 2 167.68 25.7
30 -2 0 268.47 26.1
-2 0 30 172.08 23.7
0 30 -2 203.88 25
-30 0 2 222.48 32.3
-2 0 30 244.78 51.89
-30 -2 0 233.68 35.1
-30 2 0 315.17 35.8
30 -2 0 265.57 35.1
2 30 0 227.28 24.8
0 2 30 278.97 56.79
0 2 30 172.68 24.3
30 0 2 204.78 30
2 -30 0 251.77 32.3
-30 0 -2 237.98 27.5
0 2 30 187.68 32.3
30 0 2 209.98 26
30 2 0 205.78 24.3
0 30 2 228.38 34.2
0 -2 30 191.28 62.59
2 30 0 225.48 33.1
0 -2 30 213.28 26.6
2 0 30 182.08 24.9
-30 -2 -2 58.49 24.2
-30 2 -2 110.79 26.2
-2 30 -2 54.29 23.1
2 30 2 93.29 16.1
30 -2 -2 90.99 22.5
30 2 -2 102.69 22
30 2 2 90.59 20.4
2 -2 30 68.39 21.7
-30 2 2 83.19 19.5
2 30 -2 100.89 19.5
2 30 2 114.69 20.2
-30 -2 2 106.89 19.8
-2 2 30 123.09 48
-2 2 30 48 20.1
2 2 30 122.99 27.6
2 -30 -2 113.39 28.5
-2 30 2 86.09 15.9
2 30 -2 72.49 15
30 -2 2 94.29 20.2
-2 30 -2 93.49 16.4
-2 -2 30 134.39 24
-2 30 2 91.49 23.7
2 2 30 84.09 21.8
30 -2 -2 98.59 16.4
30 -2 2 65.09 15.9
-2 -2 30 117.69 52.49
2 -30 2 126.79 36.1
-4 0 30 0.2 44.9
30 -4 0 12.1 13
0 30 4 -14.4 19.8
-30 -4 0 36.8 19.2
0 30 -4 7 13.3
0 4 30 15 18.5
4 0 30 -36.1 31.2
0 -4 30 -54.49 107.59
-4 0 30 6.1 19.2
0 30 -4 29.6 20
30 0 -4 4.1 15.6
-30 0 4 29.9 17.3
30 0 4 6.4 19
0 -4 30 3.7 20
30 0 4 -11.3 15.7
0 4 30 -20.4 23
-4 30 0 -17.5 26.8
-4 30 0 -5.7 14.1
4 -30 0 0.2 24.3
0 30 4 -15.8 13.1
4 30 0 0.5 16.7
30 -4 0 0.7 16.4
4 0 30 15.8 20.5
0 4 30 11.2 50.59
-30 4 0 29.3 20.4
2 -4 30 4.1 20.1
2 30 4 24.1 13.6
4 2 30 -30.6 18.8
4 2 30 32.8 25.2
2 -4 30 -26.8 30.3
-2 30 -4 15.8 13.9
4 -30 2 -33.6 26.1
2 30 4 -9.9 18.2
-4 -2 30 23 45.7
-4 -2 30 13.4 20.4
-2 4 30 -42.4 45.1
4 30 -2 -36.1 16.6
-30 4 -2 -14 33.1
-4 30 2 9.1 13.2
30 -4 -2 25.8 17.1
-4 30 2 -16.9 27
-30 -4 2 23.8 17.2
30 -2 4 -23.4 16.9
-2 4 30 21.5 18.6
2 -30 -4 14.9 24.6
-2 4 30 -51.69 25.2
30 -4 -2 -24.2 12.6
-2 30 -4 -44.8 21.4
30 2 -4 -16.2 19.9
30 -2 4 26.9 14.4
-30 2 4 11.4 15.5
30 -4 2 -0.9 16.2
30 -4 2 -18.5 13
-2 -4 30 -37.9 51.39
30 2 4 14.9 27.1
30 -2 -4 23.1 14.7
-30 4 2 15.7 17.5
-4 2 30 13.6 19.1
-2 30 4 -2 13.5
2 4 30 -27.3 17.8
2 30 -4 13.8 18.1
-2 -4 30 11.4 19.9
-2 30 4 6 21.5
-4 2 30 28.8 41.5
2 4 30 -38.3 22.2
-30 -2 4 20.4 15.8
-4 30 -2 -8.7 13.3
4 -30 -2 6.5 21.7
4 30 2 14.1 15.9
-4 30 -2 11.5 28.7
-30 -4 -2 -7.8 34.4
30 2 4 -9.5 18.2
4 -2 30 35.8 22.4
-4 30 4 127.99 27.3
-4 -4 30 164.18 45.8
30 -4 4 107.09 16.1
4 -30 -4 99.59 22.2
30 -4 -4 107.79 15.4
4 4 30 79.39 19.8
-30 4 4 67.69 18.3
4 4 30 120.79 24
-4 4 30 70.89 39.6
30 -4 -4 84.99 19.8
30 -4 4 88.29 17.9
-4 -4 30 111.19 22.3
4 -30 4 52.79 30.3
4 -4 30 85.09 30.8
-30 -4 4 109.79 18.4
-4 30 -4 116.39 16.6
4 30 -4 116.49 19.6
-4 4 30 39.4 19.3
-4 30 4 87.89 16.1
4 30 4 75.19 17.8
4 -4 30 140.59 23.6
30 -6 0 -9.4 12.4
0 -30 6 19.2 25.6
30 0 6 50.69 19.2
-6 0 30 -49.7 40.7
6 0 30 -46 19.9
0 6 30 8.7 19.9
-6 0 30 22.1 19
-6 30 0 6.5 13
6 0 30 0.3 25.5
0 6 30 -14.5 17.8
30 0 -6 18.2 16.3
0 30 6 -8.7 13
6 -30 0 -28.4 20.9
30 -6 0 25.9 14.6
-30 0 6 -8.8 15.3
0 30 6 -3.1 19.3
-30 -6 0 -2.3 19.1
0 6 30 17.8 47.5
6 30 0 23.2 16.3
-30 6 0 -4.9 20
30 0 6 8.3 15.5
0 30 -6 -2.7 18.7
-30 2 6 -13.5 15.1
30 -6 -2 -26.5 11.9
-30 6 -2 49.5 25.9
30 -2 6 -2.4 14.6
6 -30 2 4.5 22.9
-2 -30 6 16 25.6
6 30 -2 2.2 15.6
2 -6 30 -5.6 31.4
30 -6 -2 5.6 14.2
-30 -6 2 0.1 17.3
6 2 30 6.3 22.4
-6 -2 30 33.3 18.7
2 30 6 2.9 13.9
-2 30 -6 3 14
-2 6 30 -20.4 17.2
30 -2 6 36.4 17.5
-6 -2 30 -3.1 41.1
2 30 6 9.8 17.9
6 2 30 -22 19.8
-2 6 30 6.6 21
2 -30 -6 39.8 24.2
-2 6 30 -9.4 40.5
-6 30 2 0.3 12.6
2 -6 30 -6.6 20
30 2 6 4 18.7
-2 30 6 28.8 21.7
6 -2 30 31 23.6
-2 30 6 1.9 14.4
30 -6 2 18.3 14.9
-30 6 2 -0.3 18.1
2 6 30 30.2 19
30 -2 -6 14.4 13.7
-6 30 -2 13.1 13.8
-6 2 30 3.5 38
-30 -6 -2 -43.6 26.6
2 6 30 -31.5 18.9
6 -30 -2 -26.7 19.3
2 30 -6 10.2 17.8
30 -6 2 1.7 12.9
6 30 2 13.6 14.8
6 -2 30 -5.6 27.2
30 2 6 9.4 22.4
-2 -6 30 76.69 53.29
2 -30 6 30.3 28.6
-6 2 30 -19.4 19.2
-30 -2 6 -12.8 14.1
30 -4 6 144.99 19.5
-4 -30 6 86.69 24
-4 6 30 177.78 40.4
-30 -6 4 138.09 19.5
6 4 30 164.98 23.5
-6 -4 30 178.58 24.4
-6 -4 30 106.89 41.3
4 -6 30 177.38 26.5
-4 30 -6 125.79 17.2
4 -6 30 112.79 31.5
6 -30 4 133.39 28.2
6 4 30 158.18 23.1
-30 4 6 198.38 27.3
30 -6 -4 171.08 20.6
4 30 6 176.98 26.8
6 30 -4 118.09 18.6
30 -4 6 118.09 16.1
4 -30 -6 129.29 23.5
-4 6 30 216.38 29.1
30 -6 -4 126.39 17
-6 30 4 140.59 17.5
-4 6 30 158.38 24.8
-30 -4 6 178.18 26.2
6 30 4 136.59 19.2
6 -4 30 175.28 27.5
-4 30 6 141.99 26.9
4 -30 6 191.08 33.5
30 -6 4 180.18 25.5
30 -4 -6 168.98 24.9
-6 4 30 59.49 38.8
-4 -6 30 80.29 47.2
-6 4 30 121.19 21.4
30 -6 4 139.09 17.2
-6 30 -4 159.08 24.5
-4 30 6 185.48 24
4 -30 6 155.28 35.8
6 -4 30 131.09 30.4
-6 -30 4 203.38 32.2
30 -4 -6 136.49 16.2
4 6 30 181.88 24.6
4 30 -6 150.48 20.8
4 6 30 145.39 21.2
6 -30 -4 157.28 21.5
-30 6 4 131.29 19.7
-30 -6 6 307.77 28.1
-30 6 6 300.77 28.4
6 -6 30 234.08 30.7
30 -6 -6 274.17 23.1
30 -6 6 309.77 26.8
-6 -6 30 307.17 48.8
-6 6 30 270.57 30.2
-6 6 30 237.08 28
6 -6 -30 276.97 20.6
6 -30 -6 251.07 31.9
6 -30 6 279.67 40.9
6 -6 30 326.97 46.4
6 -30 6 296.97 46.1
6 6 30 312.37 34.5
6 30 -6 299.07 26.4
-6 -30 6 237.18 35.8
-6 30 -6 259.97 26.1
-6 6 30 202.78 41.2
6 6 -30 254.77 22.8
30 -6 6 276.27 23.9
6 6 30 259.97 33.1
6 30 6 313.27 28.2
-6 30 6 289.17 24.3
8 0 30 70.69 25.5
30 -8 0 70.19 13.7
0 -30 8 105.99 29.2
0 30 -8 68.39 15.5
0 30 8 74.79 16
-8 30 0 74.19 14.6
8 0 30 72.89 24.7
30 -8 0 87.79 15.3
-30 8 0 99.19 20.3
-30 -8 0 85.49 21.1
30 0 8 92.39 17
30 0 -8 140.49 18
-8 0 30 70.09 38.5
8 30 0 63.99 16.5
-8 0 30 28.4 19.7
8 -30 0 106.29 22
30 0 8 106.59 20.2
0 8 30 87.59 20
0 30 8 98.19 19.7
8 0 -30 81.69 12.4
0 8 30 98.09 19.3
-30 0 8 109.39 18
8 2 30 11.9 20.5
-8 30 2 29.8 12.6
2 -8 30 -9.2 32.1
8 -30 2 70.49 21.7
-2 8 30 -5.1 16.9
8 30 -2 -0.3 14.2
2 -30 -8 27.6 24.6
2 30 8 29.6 17.3
8 2 30 -32.5 23
-30 2 8 28 15.1
-2 30 -8 52.39 15.3
30 -8 -2 44.3 12.5
30 -8 -2 19.1 12.9
-2 -30 8 53.49 27.3
8 -2 -30 20.7 10.7
30 -2 8 10.5 16
-8 -2 30 33 39.7
2 -8 30 62.09 21.5
-2 8 30 32.9 19.8
30 -2 8 29.6 13.9
-8 -2 30 6.5 19.8
30 -8 2 38 12.6
-8 2 30 39.9 21.2
-2 30 8 19.9 14.9
2 30 -8 10.6 13.6
2 8 30 60.79 19.6
-8 30 -2 19.1 14
8 30 2 -15 14.3
8 -2 30 11.6 26.2
-8 -30 2 45.9 23.3
8 -2 30 41.4 27.8
-8 2 30 42.7 35.6
30 -8 2 35.6 13.3
-2 30 8 3.1 20.9
8 2 -30 37.3 12.2
-2 -8 30 32.7 57.59
-30 -2 8 7.5 14.4
2 8 30 2.1 18
2 -30 8 107.99 32.4
-30 8 2 40.2 18.4
30 2 8 20.6 21.6
8 -30 -2 -27.5 18.8
30 -2 -8 17.7 13.5
8 30 -4 36.5 15.6
30 -4 8 23.5 12.4
-4 8 30 59.89 20.2
30 -4 8 34.3 15.2
4 -8 30 -18 29.7
4 -30 -8 39.3 20.7
4 -8 30 38.4 23.9
-8 -4 30 26.6 20.6
-4 -30 8 21.9 25.3
8 4 30 38.9 19
4 30 8 15 16.4
-30 4 8 5.7 14.4
8 4 30 27.1 22.8
-4 8 30 30.5 35.3
-8 -4 30 1.7 38.1
8 -30 4 -0.8 23.2
-4 8 30 45.3 18.4
-8 30 4 33.1 13.8
8 -4 -30 10.7 9.7
30 -8 -4 41.5 12
-4 30 8 32.1 15.6
30 -8 4 44.1 13.6
8 30 4 26.5 14.8
-4 30 8 53.79 25.6
8 -4 30 45.5 25.3
-8 -30 4 35 24.7
-8 4 30 28.6 35.5
30 -4 -8 19.6 12.1
-30 -4 8 46.6 14.8
4 8 30 40.4 18.2
30 -8 4 20.6 12.4
-4 -8 30 30.6 47.3
-8 4 30 -20.3 18.6
8 -4 30 110.29 31.9
4 -30 8 25 39.2
-8 30 -4 34.4 14.6
8 -30 -4 31.3 17.9
-30 8 4 57.99 16.3
8 4 -30 34.4 12.5
4 -30 8 108.99 39.2
4 8 30 48 20.1
4 30 -8 23.6 13.5
8 -30 6 54.79 25
6 -8 30 111.49 29.3
8 -6 -30 125.79 16.3
-6 8 30 88.29 21
8 30 -6 93.79 16
-6 -30 8 103.09 27.4
-6 8 30 169.98 23.1
8 6 30 97.89 21.4
8 6 30 148.79 20.7
30 -6 8 83.79 16.2
6 -8 30 111.09 31.4
-8 -6 30 71.89 35.9
30 -8 -6 129.29 15
6 30 8 112.99 17.4
30 -6 8 100.99 14.8
-8 30 6 100.19 14.5
6 -30 -8 90.69 19.6
-30 6 8 84.19 17.5
-6 8 30 139.49 34.8
-8 6 30 130.09 22.4
6 8 30 99.19 19.9
30 -6 -8 85.39 21
8 -30 -6 181.28 27.6
30 -8 6 117.29 15.6
30 -8 6 146.89 19.9
-30 -6 8 110.99 17.6
-8 30 -6 103.39 17.2
-8 6 30 58.19 35.9
6 8 30 120.89 20.4
-6 -8 30 148.79 42.8
8 6 -30 84.79 15.2
-30 8 6 74.79 16.3
6 30 -8 95.59 14.6
8 30 6 113.49 17.2
6 -30 8 90.39 31.4
-6 30 8 115.39 17
30 -6 -8 123.29 18.4
-8 -30 6 67.69 24.8
6 -8 -30 113.89 13
8 -6 30 66.19 28.5
8 8 30 -11.6 19.2
-8 30 8 17.6 12.8
-30 8 8 24.8 14.2
8 -30 -8 31.7 17.9
30 -8 -8 11.8 10.5
30 -8 8 27.3 13.9
8 30 8 17.7 13.9
-8 -30 8 5.8 27
-8 -8 30 -21 37
-8 8 30 14.1 31.5
8 -30 8 73.19 25.6
8 -8 30 -14.1 27.4
8 8 30 13.9 16.3
-30 -8 8 8.5 13.4
8 30 -8 -11.2 13.8
30 -8 8 19 11.4
-8 8 30 0.5 20.8
8 -8 -30 17.2 8.9
10 -30 0 193.28 29
-10 0 30 324.77 49.5
10 0 -30 279.07 19.7
-30 0 10 200.78 24.7
30 -10 0 248.78 22.5
-10 0 30 224.78 31.6
0 10 30 323.77 31.4
10 0 30 346.17 37.4
-30 10 0 295.07 33.5
30 0 10 285.37 32.5
30 0 -10 285.17 29.1
0 30 10 223.38 29.6
0 10 30 211.48 28
-10 30 0 276.57 23.7
0 30 -10 248.58 22.4
-30 -10 0 259.57 31.3
0 -30 10 286.07 36.3
10 30 0 218.68 24
-10 -30 0 237.08 37.4
30 -10 0 285.47 22.9
30 -2 10 99.79 17.5
30 -10 -2 145.39 19.2
-10 30 2 141.89 20.6
-10 -2 30 144.29 23.7
10 2 30 128.89 21.5
-2 30 -10 145.69 15.3
-10 -30 -2 150.78 29.8
-2 10 30 119.89 20.5
-2 10 30 109.19 20
2 -30 -10 147.09 24.5
10 30 -2 134.39 17.9
10 -30 2 100.19 21.6
-30 2 10 130.09 17.4
30 -2 10 169.08 23.1
-2 -30 10 95.69 31.2
2 -10 30 115.99 22.6
-10 -2 30 142.89 39.5
10 -2 -30 134.99 16.7
2 -10 30 185.88 37.1
2 30 10 129.59 18.4
10 2 -30 153.88 18.5
2 -10 -30 138.49 16.8
30 -10 2 101.39 14.7
-10 -30 2 125.89 28.4
30 -10 2 136.39 20.2
2 10 30 129.99 19.5
-10 2 30 159.68 21.8
30 -2 -10 136.89 16.7
-30 10 2 112.69 19.4
10 30 2 151.48 22.4
-2 30 10 167.18 25.3
2 30 -10 139.29 18.5
-10 30 -2 159.78 23.3
-2 30 10 128.49 21.7
2 -30 10 85.39 36.1
10 -30 -2 126.69 20.1
30 2 10 142.09 23.1
-30 -2 10 130.99 17.8
-10 2 30 107.59 36.2
2 10 30 149.49 20.7
-10 30 4 18.3 12.7
-4 10 30 -1.7 17.1
4 30 10 7.6 14.9
4 -10 30 -0.4 26.3
-10 -4 30 4.6 20.4
30 -10 -4 11 11
-4 10 30 -7.2 16.9
10 4 30 29.7 17.9
-4 30 -10 -15.6 13.2
4 -30 -10 -11 18.5
-4 -30 10 -2.1 25.9
30 -4 10 32.7 14.8
30 -4 10 18.2 12.1
10 -4 -30 12.2 8.7
10 30 -4 -7.8 13.5
10 -30 4 -41.4 21.1
-10 -4 30 -23.1 36.2
4 -10 30 3.7 31.6
-30 4 10 2.2 14.4
30 -4 -10 22.3 12.1
4 10 30 -6.1 15.6
10 -30 -4 17.9 16.5
-4 30 10 22.4 33.4
-10 30 -4 -8.1 13.7
30 -10 4 15.5 12.5
4 -10 -30 3.2 9.7
-30 -4 10 4.6 13.1
-10 4 30 3.6 21.2
-30 10 4 17 16.1
-10 -30 4 48.1 27.8
10 -4 30 -44.9 25.2
-4 30 10 9.7 15.1
4 30 -10 30.9 12.1
10 4 -30 5.3 12.7
-4 -10 30 167.98 53.59
4 10 30 33.4 16.6
-10 4 30 -33.7 33.8
30 -10 4 16 11.1
10 30 4 7.1 13.8
-30 6 10 15.6 13.9
6 -30 -10 4.9 17.1
-10 -6 30 -10.1 38.6
10 30 -6 14.9 13.8
-6 10 30 -4.7 18.2
10 6 30 20.4 17
30 -6 10 -6.1 12.9
6 30 10 12.9 13.9
-6 10 30 -24.3 17.7
10 -30 6 28 22.6
10 -6 -30 1 9
-6 -30 10 32 23.9
30 -10 -6 5.6 10.9
-10 30 6 -23 11.7
-10 -6 30 44.4 21.6
6 -10 30 17.9 29.6
-6 30 -10 30.7 14.4
6 10 30 16.2 15.7
6 10 30 10.4 15.1
-10 6 30 -25.7 19.8
-6 30 10 20.5 14.6
30 -6 -10 17.3 11.5
-10 6 30 49.7 32.8
10 -30 -6 0.5 15.1
30 -10 6 -11.3 10.9
10 30 6 -9.9 13.2
-30 -6 10 -8.5 13.3
10 -6 30 5.7 25.7
30 -10 6 11.2 12
-10 30 -6 28.6 16.1
-6 -10 30 31.3 41.6
-30 10 6 4.6 13.1
6 30 -10 -26.8 11.3
-10 -30 6 -27.4 28.8
6 -10 -30 7.3 8.6
6 -30 10 -16.5 37.5
8 30 10 26.5 14.4
8 -30 -10 46.3 15.4
-10 -8 30 69.29 20.9
30 -8 10 18.8 11.3
30 -10 -8 24.9 11
-8 -30 10 81.29 28.2
-30 8 10 33.1 14.5
10 8 30 67.49 17.3
-10 -8 30 21.1 40.2
-10 30 8 9.7 12.4
10 -8 -30 35.3 8.8
30 -8 10 39 13.3
8 -10 30 68.99 29.8
-8 10 30 43.9 20.8
10 -30 8 39.5 20.7
10 30 8 18.7 14.7
8 10 30 36.6 15.1
30 -10 8 48.4 13.6
-10 8 30 1.9 23.2
-30 10 8 36.4 14.7
30 -10 8 2.1 11.4
-30 -8 10 12.1 13.2
-10 -30 8 90.39 30.3
30 -8 -10 37.5 10.9
-8 30 10 23.7 14.8
-8 -10 30 32.4 40.4
8 30 -10 46.7 12.1
8 -30 10 66.59 32.3
-10 8 30 1.4 32.1
10 -30 -8 70.19 16.2
8 10 30 77.49 19.1
10 -8 30 13.7 25.2
30 -10 10 163.68 17.9
30 -10 10 173.38 22.2
-30 10 10 156.08 23.8
10 -30 -10 223.18 23
10 -30 10 126.29 29.8
10 -10 -30 149.88 15.2
-10 -10 30 248.68 29.8
10 -10 30 121.99 28.8
10 10 30 119.29 18.5
-30 10 -10 219.38 16.6
-30 -10 10 232.88 24.3
10 30 10 157.48 22.1
30 -10 -10 220.98 18.6
-10 30 10 194.08 22
-12 0 30 255.37 29.1
0 12 30 249.88 28.2
30 0 12 228.68 30.2
-12 30 0 276.27 22.6
12 0 30 260.37 33.1
0 30 12 246.58 26.7
12 0 -30 243.28 18.1
30 -12 0 221.98 20.2
-30 -12 0 210.68 25.2
-30 12 0 214.48 32.6
12 -30 0 268.27 26.7
0 -30 12 226.78 40.9
30 -12 0 260.37 22.1
12 30 0 255.27 22.8
0 30 -12 227.28 20.6
0 12 30 242.08 26.4
-12 0 30 247.48 39.8
0 -12 -30 225.78 18.9
-30 0 12 243.18 24.1
12 -30 2 181.08 27
2 -30 -12 91.49 24.1
-2 12 30 122.89 18.8
12 2 30 138.29 20
30 -12 -2 164.08 18.3
-2 -12 -30 140.19 20.4
-12 -2 30 75.69 25.8
12 -2 -30 102.79 15.3
30 -12 -2 104.49 13.7
12 30 -2 112.39 17.3
-12 -2 30 181.88 40
2 30 12 134.49 17.5
-2 -30 12 88.69 36.2
-2 30 -12 94.19 13.2
2 -12 30 125.59 24.1
30 -2 12 104.39 17.1
-2 12 30 87.29 18.1
-30 2 12 126.49 16.7
-12 30 2 134.09 20.7
2 -12 30 137.99 42.6
2 12 30 141.79 18.4
12 -2 30 93.39 36.7
-12 30 -2 139.39 20.6
12 30 2 130.59 16.9
-30 -2 12 147.49 21.7
2 12 30 118.59 18.7
2 -12 -30 149.39 17.3
2 30 -12 119.59 17.1
30 -12 2 148.39 19
-2 30 12 121.89 20.9
-12 2 30 101.29 37
-30 12 2 153.78 20
-12 2 30 167.28 28.8
30 -2 -12 95.39 16.2
12 -30 -2 76.59 19.2
30 -12 2 122.59 18
12 2 -30 178.88 18.2
30 2 12 131.29 21
-4 12 30 47.1 17.3
-12 -4 30 38.7 23.7
-4 30 -12 34.8 11.9
12 4 30 16.3 16.1
30 -4 12 -21.8 13.5
4 -30 -12 34.8 19.3
30 -12 -4 13.9 10.9
-12 30 4 12.4 11.8
-4 12 30 5.7 14.7
12 -4 -30 18.6 9
-4 -30 12 29.6 30.4
-30 4 12 15.5 14.5
12 -30 4 12.8 19.6
4 30 12 4.6 13.9
4 -12 30 22.4 35.2
12 30 -4 26.4 14.3
-12 -4 30 -0.1 39.5
4 -12 30 40.5 29.2
12 -30 -4 -1.4 16.4
-12 30 -4 -6.2 14.7
12 30 4 9.4 13.9
-30 12 4 14.5 15.6
4 12 30 -11 15.5
30 -4 -12 13.2 12.4
30 4 12 -4 41.9
30 -12 4 12.8 11.1
4 12 30 -12.6 14.3
4 -12 -30 -0.8 9.8
-12 4 30 43.4 36.1
30 -12 4 14.1 11.8
-30 -4 12 -12.7 13.3
4 30 -12 21.6 10.6
-6 -30 12 58.99 29.3
-6 12 30 18.8 15.3
12 6 30 20.5 15.4
30 -12 -6 -18.5 10.1
6 -12 30 27.4 30.1
6 30 12 12.3 13.2
-12 -6 30 34.5 23
6 -30 -12 -14.7 16.5
-30 12 -6 9.9 9.9
-12 -6 30 0.7 40
-12 30 6 14.4 11.8
-6 12 30 -10 18.1
-30 6 12 5.9 14
12 -30 6 -41.7 19.5
30 -6 12 9.2 13.2
12 -6 -30 -15.5 7.9
6 -12 -30 17 9
12 30 6 7.1 12.9
12 -6 30 -31.1 28
12 -30 -6 -1.9 15.3
-30 -6 12 6.2 13.6
-12 6 30 20.7 33.9
30 -12 6 13.2 11.3
6 12 30 -8.8 15.9
-30 12 6 -13 14.3
30 -12 6 -11.4 11
30 -6 -12 6.2 11.1
6 12 30 -34.3 14.3
6 30 -12 11.2 10.5
-30 8 12 46.9 13.8
30 -12 -8 23.3 11
8 -12 30 9.2 26.7
30 -8 12 51.79 13.4
8 -30 -12 15 16.6
-12 -8 30 84.39 24.7
-12 30 8 18.1 10.7
12 -30 8 37 22.7
-30 12 -8 48.6 10.4
12 8 30 44.9 14.5
8 30 12 39.3 14.1
30 -12 8 53.79 12.5
12 -8 30 53.79 26.8
8 -12 -30 43 9.3
-30 8 -12 41 8.7
12 -30 -8 46.8 15.5
-30 -8 12 39.4 14.8
-30 12 8 17.9 13.7
30 -8 -12 58.29 11.5
30 -12 8 48.1 12.1
8 12 30 60.19 20.2
8 12 30 20.2 13.9
12 30 8 30.9 14.4
8 30 -12 50.79 11
14 0 -30 160.08 17.5
0 30 -14 96.29 11.6
-30 0 14 89.29 16.5
14 -30 0 103.39 20.4
0 14 30 107.69 17.5
-14 30 0 110.09 14.7
30 -14 0 121.09 14
30 0 14 119.49 19.1
14 0 30 120.39 20.3
14 30 0 72.89 16.5
0 30 14 83.59 17.1
30 -14 0 149.69 19.9
0 14 30 106.89 15.8
2 30 14 48.7 14.9
-2 14 30 48.5 15.7
14 -2 -30 20.7 11.4
-30 2 14 14.9 15.1
-2 30 -14 10.9 10.8
14 -30 2 -11.2 18.1
2 -14 30 61.99 31.6
30 -14 -2 31.7 12.1
-2 14 30 10.7 13.1
30 -14 -2 19.5 10.6
30 -2 14 19.6 15.5
14 2 30 46.2 17.7
-14 30 2 17.6 12.2
-30 14 2 33.5 19.6
-30 -2 14 12.5 15.1
30 -14 2 18.8 11.1
-14 30 -2 28.8 14.4
2 14 30 34.4 13.4
14 30 2 38.5 16.7
30 2 14 -6.6 20
14 -30 -2 36.9 16.6
30 -14 2 34 11.7
2 30 -14 39.9 9.9
2 14 30 23.9 15.3
14 -4 -30 20.8 8.6
4 30 14 -9.3 13.6
-30 4 14 -1.5 14.1
-14 30 4 -8.7 10.9
-4 30 -14 7.9 10.9
-4 14 30 21.4 14.6
30 -14 -4 18.1 10.5
30 -4 14 15.7 13.4
-4 14 30 18.9 16.4
14 4 30 30.1 15.7
14 -30 4 -2.3 18.9
30 -4 -14 29.3 14.1
14 -30 -4 27.3 14.7
4 14 30 -4.6 15.6
-30 -4 14 6.5 14.2
30 -14 4 23.1 11.7
14 30 4 28 15.4
30 -14 4 25.9 11.4
-30 14 4 40.7 16.7
4 30 -14 18.2 9.9
4 14 30 -15 12.8
-1 31 -1 418.26 27
-31 -1 -1 390.56 37.3
-1 31 1 440.46 27.4
31 1 1 372.36 33.6
1 31 -1 377.16 26.1
31 -1 1 412.36 32.7
-1 31 1 435.06 34.5
-31 1 1 429.26 34.3
-1 -1 31 448.46 72.59
-1 1 31 506.25 64.09
-1 31 -1 409.56 33.6
31 -1 -1 471.45 31.1
1 31 -1 481.95 32.5
-1 -1 31 422.26 35.1
-1 1 31 372.96 35.5
31 -1 1 445.96 42.7
31 1 -1 419.16 35.2
1 31 1 376.66 32.2
-31 -1 1 400.86 34.1
1 31 1 436.56 27.3
1 1 31 413.26 34.9
1 -1 31 395.06 36.1
-31 1 -1 488.15 40.3
-3 -1 31 218.08 28.7
-31 -3 1 173.48 22.7
31 -3 -1 156.78 17.7
-1 3 31 40.2 56.29
31 -1 3 139.99 22.6
31 1 -3 230.08 32.9
31 -1 3 165.98 18.9
1 31 3 195.48 28.7
-31 1 3 220.08 28.2
31 -3 -1 152.28 23.2
-3 31 1 158.18 22.7
-31 3 -1 126.19 26
-1 3 31 161.18 21.8
1 -3 31 203.98 29.1
1 31 3 187.48 21
3 31 -1 181.98 27.2
3 1 31 121.09 22.1
-1 31 -3 158.48 20.6
-3 31 1 93.59 25.7
-3 -1 31 133.89 48.1
-1 31 -3 127.99 22.7
-31 -1 3 158.18 19.9
-3 1 31 152.58 47
1 3 31 194.08 27.1
-31 3 1 192.78 22.6
-1 31 3 168.28 22.7
3 -31 -1 123.69 28.9
31 -1 -3 188.98 25.8
-3 31 -1 188.68 20.7
31 -3 1 176.58 21.2
-1 31 3 163.58 22
31 1 3 141.99 20.3
31 -3 1 150.58 17.6
-1 -3 31 164.58 23.8
1 31 -3 143.09 21.5
3 31 1 156.98 19.6
3 -1 31 172.18 23.6
1 3 31 144.69 27.1
-3 31 -1 111.79 27.1
-3 1 31 136.19 21.2
-31 -3 -1 178.88 26.8
-31 3 3 55.49 17.6
-3 -3 31 11.7 19.2
31 -3 3 63.09 17.8
3 3 31 61.99 20.1
-3 -3 31 -103.09 51.09
3 3 31 53.19 24.5
-3 3 31 55.89 18.7
31 -3 3 35 13.9
-3 31 3 39.2 13.6
-3 31 -3 65.99 13.6
3 31 -3 29.4 17.2
-31 -3 3 34 16.6
31 -3 -3 56.79 14.1
3 -31 -3 98.49 26.9
3 31 3 56.79 17
-3 31 3 36.1 24.7
3 -3 31 67.29 22
-3 3 31 26.9 45.3
-1 5 31 17.2 54.69
31 -1 5 -2.5 14.2
5 1 31 -16 19.3
5 1 31 29.9 27
5 31 -1 23.6 15.4
5 -31 1 37.4 25.6
31 -5 -1 13.4 12.5
-5 31 1 42.3 13
-5 -1 31 14.9 17.3
31 -1 5 53.29 20.1
31 -5 -1 32.9 16.8
-31 1 5 40.2 16.1
1 -5 31 23.4 19.7
-1 5 31 77.39 24.1
-1 5 31 -21.2 15.8
-5 -1 31 27.9 42
-1 -31 5 -41.5 24
-31 -5 1 41.5 17.8
1 31 5 30.8 13.1
1 31 5 9.8 17.6
1 31 -5 11.4 17.3
-1 -5 31 -6.9 18.1
31 1 5 -10.3 24
31 -1 -5 53.49 15.7
-31 -1 5 -10.6 15.8
-31 5 1 -19.8 18.1
-5 31 -1 27.6 13.7
-5 1 31 22.1 19
31 1 5 12.8 18.1
-5 1 31 82.19 41.1
1 5 31 -24 20.4
5 -31 -1 59.79 24.2
1 5 31 14.9 17.6
31 -5 1 -13.1 16.3
5 31 1 -1.9 14
1 -31 5 22.8 29.2
-1 31 5 -27.1 18.9
-1 31 5 -8.4 12.3
5 -1 31 5.2 20.7
31 -5 1 10.3 12.5
3 31 5 34.7 16
-31 3 5 4.7 15
5 31 -3 -5.1 14.5
31 -3 5 8.3 15.9
31 -3 5 -8.5 12.7
-3 5 31 -18.4 16.9
31 -5 -3 49.99 18.6
-5 -3 31 2.7 18.3
-5 -3 31 25.7 46.5
-3 5 31 -3.7 26.5
3 -5 31 -48 19.5
3 -31 -5 8 23.7
31 -5 -3 1.9 11.8
5 3 31 6.7 21.2
5 -31 3 -13.3 28.1
5 3 31 9.1 18.2
-31 -5 3 27.5 15.9
-3 5 31 18 43.1
-3 -31 5 4.9 21.9
-5 31 3 -4.3 12.3
-3 31 -5 1.9 13
-5 3 31 97.39 41
3 -31 5 51.99 30.4
-3 -5 31 22.6 18.4
-5 3 31 1.3 17.9
5 31 3 18.3 15.2
5 -3 31 15.1 21.6
-3 31 5 1.1 12.4
-5 -31 3 0.4 21.6
31 -5 3 0.9 13.1
-3 31 5 -2.1 22
3 5 31 31.5 20.5
-3 -5 31 67.99 57.19
-31 5 3 -23.1 16.7
31 -5 3 51.59 15.5
31 -3 -5 9.9 12.9
-31 -3 5 3.2 14.7
-5 31 -3 3.2 12.7
5 -31 -3 -30 22.3
3 31 -5 0.7 16.2
3 5 31 7.7 17.5
5 31 5 100.89 16.8
31 -5 -5 109.79 24.7
5 31 -5 124.79 17.7
-5 31 5 132.39 19.5
-5 5 31 122.59 39.6
31 -5 5 107.49 17.3
31 -5 -5 108.59 14.7
-5 5 31 88.49 19.3
5 -31 5 178.58 34.4
-31 -5 5 117.69 17
-31 5 5 118.09 18.1
-5 31 -5 127.79 15.9
-5 -5 31 97.79 20.9
31 -5 5 109.89 15.4
5 -31 -5 166.48 22.7
5 5 31 87.69 20.1
5 5 31 122.19 20.5
5 -31 5 55.69 40.1
5 -5 31 174.38 25.2
-5 -5 31 86.99 49.99
-7 31 1 86.39 14.1
-1 -31 7 66.09 27.3
31 -7 -1 69.19 16.1
7 -31 1 47.9 22.4
31 -1 7 109.49 20.2
7 31 -1 27.5 14.6
1 -7 31 34.6 20.4
1 31 7 72.09 18
31 -7 -1 62.99 12.8
31 -1 7 69.49 15.9
-1 7 31 70.29 20.4
7 1 31 55.99 25.7
-31 1 7 58.59 16.1
-1 7 31 56.49 17.7
7 1 31 19.1 22.9
7 -1 -31 42.4 11
-7 -1 31 115.19 40.1
-7 -1 31 96.29 20.1
-7 1 31 79.39 20.7
1 7 31 86.39 19.9
-1 -7 31 83.09 20.7
-1 31 7 66.79 20.8
31 -7 1 67.19 15.4
1 -31 7 34.5 29.9
-31 -1 7 30.8 13.5
31 -7 1 81.29 14
7 -1 31 84.59 25.5
-7 1 31 49.6 38.4
-1 31 7 88.99 14.4
31 -1 -7 63.49 16.5
1 7 31 27.2 16.7
7 1 -31 61.59 11.7
-7 31 -1 64.39 13.2
7 -31 -1 110.49 21.9
-31 7 1 83.49 19
31 1 7 6 22.7
7 31 1 50.69 13.9
-7 -31 1 55.39 25.7
7 3 31 54.09 22.1
3 -7 31 -26.5 20.3
31 -3 7 20.4 13.5
-7 31 3 -16.4 11.5
31 -7 -3 0 11.4
-7 -3 31 -19 40.9
3 31 7 16.3 16
-3 -31 7 -1.9 24.4
7 -31 3 22.3 23.5
7 3 31 21.8 20.9
31 -3 7 -17.4 15.3
-31 -7 3 -2 15.1
-3 7 31 2.1 16.2
7 -3 -31 8.5 8.8
-3 7 31 15.5 20.1
-7 -3 31 18.4 18.8
7 31 -3 -5.4 14.5
-31 3 7 25 14.8
31 -7 -3 -3.8 14.9
3 -31 -7 -26.8 22.6
31 -7 3 -14 13.7
-31 -3 7 9.6 13.5
3 -31 7 -20.7 35.5
-7 31 -3 0.4 12.8
7 31 3 9.3 13.8
7 -31 -3 13.1 19.5
-31 7 3 -1.8 16
7 -3 31 45.6 25.5
-7 3 31 13.8 38
-7 -31 3 14 21.8
-3 31 7 8 23.1
-3 31 7 -12 12.6
31 -7 3 -17.1 11.2
3 7 31 2.6 18.3
-7 3 31 24.4 17.9
3 7 31 -11.6 16.9
31 -3 -7 6.4 11.3
7 3 -31 0.4 10.9
-3 -7 31 7.4 18
31 -5 7 48.4 12.8
-31 -7 5 78.69 15.8
7 5 31 86.39 20.2
5 -31 -7 72.69 20.3
5 31 7 53.99 15.5
7 5 31 89.49 20.8
-5 7 31 75.69 18.6
-5 7 31 88.39 27.5
7 -5 -31 97.79 12.1
5 -7 31 75.49 26.5
31 -7 -5 64.89 12.9
7 31 -5 121.89 18
-7 -5 31 27.2 20.1
5 -7 31 38.1 26.7
-7 31 5 53.29 12.9
-5 -31 7 47.4 23.1
31 -7 -5 68.69 17.4
-7 -5 31 71.89 39.1
7 -31 5 103.39 28.7
-31 5 7 44.3 15.2
31 -5 7 87.49 15.7
-5 7 31 87.99 38.4
7 5 -31 85.29 13.7
-5 -7 31 84.09 50.69
-31 -5 7 74.19 15.2
-7 5 31 53.69 33.9
5 -7 -31 69.59 10.9
31 -5 -7 86.89 14.1
31 -7 5 54.49 12.8
5 7 31 109.89 19.4
7 -5 31 69.39 26.7
7 -31 -5 78.39 19.5
-7 -31 5 24.6 25.6
-7 5 31 80.09 19.7
-7 31 -5 63.39 14.9
-5 -7 31 63.29 19.3
5 7 31 106.49 18.3
31 -7 5 50.89 14.4
-31 7 5 24.5 15
-5 31 7 67.49 14.2
7 31 5 75.79 14.8
7 -7 -31 45.7 9.4
7 7 31 72.79 17.6
-7 -7 31 38.6 19.8
31 -7 7 57.39 13.7
7 -7 31 37.9 26.4
-31 -7 7 65.59 15.1
7 -31 -7 52.69 18
7 -31 7 26.4 29
-7 31 7 53.29 13.3
31 -7 7 20 11.7
-7 7 31 94.99 34.6
7 7 31 26.6 19.5
31 -7 -7 24.5 11.9
-31 7 7 40.7 15.2
-7 -31 7 -7.9 23.4
-7 -7 31 -80.49 44.4
-7 7 31 90.39 20.2
7 31 7 49.8 14.8
9 -1 -31 280.97 18.3
-31 1 9 265.17 24.6
31 -9 -1 306.87 21.3
31 -9 -1 306.97 24.8
9 -31 1 240.28 30.7
-9 -1 31 328.47 32.5
1 -9 31 294.87 32.9
-9 -1 31 280.37 43.3
9 31 -1 257.97 22.5
-9 31 1 259.17 21.5
-1 9 31 278.77 31
31 -1 9 220.38 29.3
-1 -31 9 185.78 34.7
-1 9 31 216.38 27
-31 -9 1 276.87 29.4
-9 -31 -1 294.17 38.3
1 31 9 248.98 27.8
9 1 31 250.67 38.7
-31 9 1 284.57 31.8
31 -9 1 275.17 21.8
-1 31 9 326.17 29.8
31 -1 -9 260.47 28.3
-1 -9 31 209.98 30.4
9 1 -31 263.57 18.4
31 -9 1 233.68 22.9
1 9 31 303.17 30.6
1 -31 9 180.48 38.5
-9 1 31 257.97 32.1
1 9 31 257.17 27.8
-9 1 31 237.68 39.5
-9 -31 1 260.77 37
31 1 9 299.47 37.2
-9 31 -1 255.87 21.3
-31 -1 9 206.78 23.6
9 31 1 253.77 23.8
9 -31 -1 288.27 29.5
-9 -3 31 112.89 42
31 -9 -3 80.19 12.7
31 -3 9 70.59 16.6
-3 -31 9 21.3 28.5
3 -31 -9 84.49 24.1
31 -9 -3 78.09 14.4
31 -3 9 107.79 14.5
9 31 -3 109.19 15.2
9 -31 3 125.89 23.3
-31 3 9 77.29 15.7
3 -9 31 114.79 22.8
-9 -31 -3 193.48 48.7
-9 31 3 97.89 14
-9 -3 31 117.69 21.4
3 31 9 73.69 16.5
-3 9 31 93.69 18.6
-31 -9 3 104.79 17.1
9 3 31 62.49 19.9
-3 9 31 75.59 18.2
-9 -31 3 81.59 28.1
31 -9 3 92.89 14.5
-9 3 31 -8.8 37.1
-9 31 -3 66.69 14.4
3 -9 -31 73.49 11.1
31 -3 -9 101.39 15.3
3 9 31 84.89 18.8
-31 9 3 77.89 17.1
9 -31 -3 43.1 19
3 9 31 88.49 18
9 31 3 68.69 14.9
9 3 -31 126.19 18.2
-3 31 9 71.09 15.1
-3 -9 31 75.79 19.2
-9 3 31 93.09 18.2
31 -9 3 80.49 13.3
5 -31 -9 18.6 18.8
-9 -5 31 -6.1 17.5
31 -5 9 -1.8 11.2
5 31 9 0.7 13.7
31 -9 -5 17.3 10.7
9 31 -5 6.2 13.6
31 -5 9 13.5 13.7
-9 31 5 -13.8 11.7
-9 -5 31 -50.89 41.4
31 -9 -5 -6.4 14
-5 -31 9 36.4 26.4
-31 5 9 34.8 15.2
-31 -9 5 -0.1 14.1
5 -9 31 85.49 29
9 -31 5 12.9 25.9
-5 9 31 41.8 20.3
-5 9 31 5 17.8
9 -5 -31 9 8.6
-9 5 31 77.19 34.1
-31 -5 9 12.5 13.2
9 -31 -5 0.1 17.4
-31 9 5 19.2 14.8
31 -5 -9 -9.4 11.5
5 -9 -31 -11.7 7.4
-5 31 9 -20.7 13.6
5 9 31 6.8 15.8
-5 -9 31 29.4 17.8
-9 -31 5 -16.6 30.7
5 9 31 -5.2 15.5
31 -9 5 -10 12.3
9 31 5 -6.7 13
-9 5 31 26.6 21.5
31 -9 5 8.4 11.4
9 -31 7 26.8 25.6
31 -9 -7 30.5 10.8
7 -9 31 -14.8 27.2
-7 -31 9 59.89 31.5
7 31 9 1.3 13.5
31 -7 9 27.8 11.1
31 -9 -7 14.3 22.6
-7 9 31 -39.4 17.7
9 7 31 27.1 16.1
-31 -9 7 1.7 13.4
-9 31 7 -9 11.4
-31 7 9 15 12.8
-9 -7 31 18.9 19
9 -7 -31 1.4 7.9
31 -7 9 3.2 12.6
7 -31 -9 19.6 16.9
-7 -9 31 -4.7 17.8
-9 7 31 31.8 22.9
9 -31 -7 -18.3 16.3
7 9 31 1.6 19.3
31 -9 7 27.4 11.8
-31 -7 9 14 13.3
-31 9 7 27 15
31 -9 7 10.1 12
9 31 7 13.9 12.9
9 -7 31 21.6 25
-7 31 9 -9.9 13.6
31 -7 -9 -1.2 10.8
7 9 31 35.6 15.8
9 -9 31 57.19 26.2
9 9 31 121.59 16.8
9 31 9 83.69 13.4
9 -9 -31 97.79 9.9
31 -9 9 96.29 12.6
-9 31 9 62.19 14.4
9 -31 -9 54.29 16.4
-9 -9 31 104.19 19.9
31 -9 9 91.39 14.4
31 -9 -9 102.49 12.8
-31 9 9 80.99 15.8
31 -11 -1 380.56 23.9
-11 -1 31 377.86 49.4
-11 31 1 367.36 23.3
-11 -1 31 486.05 34.9
-1 11 31 375.96 29.9
-1 -11 -31 398.86 22.9
31 -11 -1 415.36 24.4
31 -1 11 436.26 31.3
-1 11 31 415.36 29.1
11 1 31 365.36 36
1 -11 31 403.96 34.3
11 -1 -31 417.66 21.5
-31 1 11 381.96 27.1
11 31 -1 393.66 26.6
1 31 11 346.97 28
11 -31 1 375.36 32.9
31 -11 1 419.06 23.6
-1 31 11 426.46 31.4
-11 1 31 384.66 37.4
-1 -11 31 370.16 32.4
1 11 31 431.16 29.8
11 1 -31 400.36 22.3
31 1 11 447.36 38.2
31 -11 1 405.06 25.6
1 -11 -31 426.46 21.4
1 11 31 390.26 28.3
-31 -1 11 438.16 26.7
-11 1 31 392.06 52.59
-11 31 -1 360.36 24.7
11 -31 -1 339.37 30.2
11 31 1 420.76 25.8
11 -3 -31 165.68 15.2
-3 11 31 208.38 22.3
-11 -3 31 91.29 24.2
-11 -3 31 178.68 56.89
11 3 31 138.49 18.3
31 -11 -3 148.29 18.8
-31 3 11 163.48 23.1
3 31 11 114.29 16.6
3 -11 31 168.28 28.2
31 -3 11 220.48 25.2
-31 -11 3 177.58 25.8
-11 31 3 179.08 19.6
11 31 -3 193.88 21.7
31 -11 -3 199.58 20.5
11 -31 3 148.39 22.7
-3 11 31 152.68 23.2
31 -3 -11 211.28 23.9
-31 11 3 176.18 25.8
3 11 31 147.99 18.9
31 -11 3 169.78 21.1
-11 3 31 133.09 31.3
-11 3 31 170.28 43.6
31 -11 3 190.18 18.7
-11 31 -3 126.39 15.8
11 31 3 116.69 15.8
-3 -11 31 178.28 25.8
3 11 31 180.18 26.2
11 -31 -3 170.98 25.2
-31 -3 11 160.98 20.5
3 -11 -31 172.98 15.6
11 5 31 12.2 17.2
-31 -11 5 22.8 14.5
-5 11 31 23.4 16.4
31 -11 -5 34.1 13.9
11 -5 -31 42.1 9.3
31 -11 -5 55.49 11.7
-31 11 -5 65.09 10.1
-31 5 11 30.3 12.8
-11 31 5 49.7 12.6
5 31 11 35 13.7
31 -5 11 35.2 14.8
-11 -5 31 24.3 22.6
11 -31 5 -31.2 20.9
31 -11 5 39.1 11.6
5 -11 -31 54.69 9.7
-31 -5 11 22.4 13.7
-31 11 5 45.6 16
5 11 31 55.49 15.1
31 -11 5 32.9 12
11 -31 -5 37.8 16.4
5 11 31 7.8 15.9
-5 -11 31 61.49 17.8
31 -5 -11 30.5 13.2
11 31 5 32.2 13.7
0 32 0 585.54 36.3
-32 0 0 614.64 61.49
32 0 0 603.94 36.7
0 0 32 606.24 37.2
32 -2 0 387.86 29.2
0 32 2 397.26 23.4
-2 32 0 369.16 36
0 2 32 364.76 29.7
-32 0 2 405.76 32.1
-2 32 0 387.36 24.7
2 32 0 303.47 28.7
0 -2 32 403.76 33.1
32 0 -2 492.55 40.3
2 0 32 333.57 31.5
0 32 2 369.16 29.8
-2 0 32 392.66 31.7
0 32 -2 339.27 30.6
32 0 2 363.96 31
32 -2 2 271.47 30.8
32 -2 2 255.77 25
-32 2 2 286.07 30.5
-2 32 -2 279.67 21.9
-2 32 2 282.77 21.9
32 -2 -2 313.07 27.7
-32 -2 2 295.17 28
-2 -2 32 307.27 30.2
2 2 32 229.48 27.6
-2 2 32 283.17 26.9
-2 32 2 238.08 34.5
-2 -32 2 280.57 34.5
2 32 -2 235.28 26.8
2 32 2 303.77 27.1
2 -2 32 323.47 29
-4 32 0 88.19 13.1
32 -4 0 102.99 15.2
32 -4 0 89.39 20.8
0 -4 32 69.79 19.2
4 0 32 45 18.9
0 4 32 91.69 18
32 0 4 72.29 18.2
-32 0 4 61.09 16
4 32 0 46.8 15.7
-4 0 32 111.49 19.2
0 -32 4 42.7 24.7
0 32 4 116.39 19.7
4 -32 2 82.09 34.5
-32 -4 2 22.7 17.2
4 32 -2 56.59 16.5
32 -4 -2 37.8 13.8
-32 2 4 28.2 17.7
32 -2 4 38 14.6
-2 -32 4 48.8 23.2
4 2 32 40.3 18.8
-4 -2 32 3.1 17.9
-4 32 2 38.2 12
2 -4 32 23.1 20
32 -2 4 36.9 20.7
2 32 4 41.1 15.9
-2 4 32 57.79 17.9
4 -2 32 68.89 20.8
2 32 -4 31 16.6
-4 2 32 68.79 17.6
-32 -2 4 48.5 16.5
4 32 2 52.19 15
-2 -4 32 51.39 17.1
32 -4 2 66.69 13.5
32 -4 2 67.19 18.4
-4 32 -2 33.3 11.9
-2 32 4 13.7 22.4
-4 -32 2 18.4 24.4
2 4 32 32.3 17.6
2 -32 4 19.4 30.9
32 -2 -4 14.4 15.9
-32 4 2 31.3 17.5
-2 32 4 8.8 11.5
32 -4 4 24.7 12.6
4 -4 32 11.4 21
-4 -4 32 8.2 16.4
4 4 32 7.6 17.7
-32 -4 4 -25.5 14.3
-4 4 32 19.1 17.1
4 4 32 23 22.4
4 32 -4 -4.4 14.7
4 32 4 10.3 14.2
-32 4 4 -5.3 15.9
-4 32 4 -12.5 10.9
32 -4 -4 5.1 12.8
4 -4 -32 4.3 8.5
-4 -32 4 39.4 25.7
4 4 -32 3.5 10.8
32 -4 4 16.6 16.2
6 32 0 84.39 16.2
0 -6 32 111.99 19.9
-6 32 0 72.69 13.1
-6 0 32 106.99 55.39
0 -32 6 30.9 28.8
6 -32 0 62.49 26.6
32 -6 0 63.99 13.2
-32 0 6 100.89 17.7
6 0 32 52.39 22.3
0 6 32 70.29 17.2
-6 -32 0 62.99 23.9
-6 0 32 77.39 18.5
0 6 32 53.79 33.9
6 0 -32 118.09 16.3
32 -6 0 46.6 16.7
0 32 6 79.99 17.6
-6 -2 32 85.69 19
6 -32 2 21.9 29.5
2 -6 32 27.5 20.7
32 -6 -2 26.1 12.3
-32 -6 2 4.3 18.2
6 -2 -32 34.7 10.2
6 2 32 60.19 21.3
32 -2 6 14 13.7
-32 2 6 33.8 14.7
-2 -32 6 17 26.5
32 -2 6 8.4 19
32 -6 -2 18.3 18.8
6 32 -2 13 14.8
-6 32 2 33 11.9
2 32 6 46.1 15.8
-2 6 32 24.7 16.7
6 2 -32 41.8 11.1
-32 6 2 52.69 18.5
32 -2 -6 67.99 16.7
-32 -2 6 51.69 15
32 -6 2 29.6 12
-2 32 6 20 25.3
-2 -6 32 9.2 16.8
-6 -32 2 55.59 25
-6 32 -2 21.2 12
6 -2 32 94.69 24.3
6 -32 -2 32.3 23.6
2 6 32 64.49 20.4
2 6 32 43.3 17.8
-2 32 6 46 12.3
6 32 2 25 13.5
-6 2 32 31.6 17.7
32 -6 2 33.1 15.8
6 32 -4 4.1 13.7
-4 -32 6 30.2 25.4
32 -4 6 8.9 12.9
32 -4 6 32.6 16
6 -4 -32 -2.5 8.3
6 4 32 22.8 20.7
-4 6 32 39.2 17.4
32 -6 -4 20.3 12.5
-6 32 4 19.2 11.7
6 4 32 19.7 19.6
-6 -4 32 -2.3 16.8
-32 4 6 -13.3 15
-32 -6 4 27.3 16.1
4 32 6 20.3 14.8
4 -6 32 21.1 23.9
6 32 4 -11.6 12
4 -6 -32 9 8.6
-4 -6 32 15.7 17.1
-6 4 32 16.6 18.8
6 -32 -4 -30.1 22.1
-32 -4 6 17.1 13.5
32 -6 4 8.1 14.1
-6 32 -4 0.2 12.1
4 6 32 13.7 17.5
6 4 -32 9.6 11.5
-4 32 6 7.4 12
32 -6 4 38.9 11.9
-32 6 4 7.9 15.2
4 6 32 3.7 18.6
-6 -32 4 -9.7 25.2
32 -4 -6 4.1 13.3
6 32 6 17.2 12.8
32 -6 -6 25.8 12.4
32 -6 6 24.9 14.5
-6 32 6 0.1 11.6
32 -6 6 -0.5 11.9
6 6 32 13.3 18
-32 -6 6 52.69 15.5
6 -32 -6 1.4 22.6
6 -6 -32 37 8.7
-6 -6 32 31.9 17.7
6 6 32 -7.9 18.6
-6 6 32 38.3 18.1
0 8 32 209.88 23.1
8 32 0 179.18 22.3
0 32 8 191.88 21.2
32 -8 0 211.58 20.8
32 -8 0 221.18 25.5
8 0 -32 285.87 17.5
0 8 32 231.88 29.4
-8 32 0 195.08 19.6
8 -32 0 262.57 34.6
-8 0 32 199.38 22
0 -8 -32 250.17 16.9
0 -8 32 305.07 29.3
-32 0 8 265.57 22
32 -8 -2 133.19 19.1
32 -8 -2 187.68 25.9
2 32 8 159.98 23.2
2 -8 32 115.09 22.9
8 32 -2 107.49 15.2
32 -2 8 146.39 20.4
8 -32 2 133.99 30.5
-8 32 2 101.39 13.7
-32 2 8 149.79 22.8
-2 8 32 126.09 18.3
-8 -2 32 124.89 20.3
8 -2 -32 142.79 15.2
32 -8 2 116.69 16.1
2 8 32 80.09 16.7
-8 2 32 156.28 20.9
-2 -8 32 146.39 20.4
-32 -2 8 116.89 16.7
-8 32 -2 147.99 19.3
32 -8 2 140.69 19.2
2 -8 -32 126.89 15.3
8 2 -32 145.99 18.5
8 -32 -2 121.79 21.4
8 32 2 129.89 19.8
2 8 32 137.29 18.1
32 -4 8 13.6 15.6
-32 4 8 11.1 13.2
32 -8 -4 0.4 10.9
-4 8 32 7.6 15.7
-8 32 4 -10.5 10.7
8 -4 -32 7.8 8.8
4 32 8 17.7 13.5
-8 -4 32 6.1 19
-32 -8 4 6.2 15.8
4 -8 -32 10 8.5
-32 -4 8 6.5 12.7
4 8 32 -11.8 15.2
8 -32 -4 42.1 19
32 -4 -8 22.8 14.5
4 8 32 -9 16.7
32 -8 4 12 10.7
-8 4 32 39.8 20.1
32 -8 4 0.5 13.9
-4 32 8 16.9 13.1
-4 -8 32 -4.1 16.8
-32 8 4 -9.6 16
-8 32 -4 6.2 13.1
8 32 4 15.7 12.4
32 -6 8 -22.3 13.2
32 -6 8 -6.4 11
-32 -8 6 22.5 14.4
-8 32 6 -18.7 11.3
8 -6 -32 -2.9 7.8
-6 8 32 -1.9 17
-32 6 8 -10 13
32 -8 -6 -9.5 11.3
8 6 32 -12.5 16.9
-8 -6 32 33.4 18.4
6 32 8 19.8 13.5
8 32 6 4.4 12.6
6 -8 -32 7.6 8.1
8 -32 -6 23.5 19.3
6 8 32 6 20.1
6 8 32 -11.3 16
-8 6 32 6 19.7
-6 32 8 6.7 12.8
-6 -8 32 -22.8 16.6
32 -6 -8 25 12.7
32 -8 6 0.5 11
-32 8 6 20.6 15.3
-32 -6 8 12.9 13.5
32 -8 6 -12 12.5
0 -10 32 458.75 34.4
32 -10 0 430.86 23.2
-10 32 0 453.95 24.1
10 0 -32 437.56 22.2
-32 0 10 425.36 27.3
10 32 0 470.35 25.6
0 10 32 403.46 30.7
0 -10 -32 426.46 28.9
-10 0 32 379.56 56.39
10 -32 0 452.45 33.9
32 -10 0 464.75 27.3
0 10 32 477.05 27.7
1 33 -1 374.96 31
-1 -33 1 453.55 55.89
-1 -1 33 498.35 29.1
-1 1 33 538.15 29.9
1 1 33 444.66 29.6
1 -1 33 465.15 29.7
1 33 1 374.06 31
-33 1 3 123.99 20.8
-3 -1 33 171.78 24.3
3 33 -1 150.88 16.8
-1 3 33 113.09 17.4
1 -3 33 110.99 19.1
3 -1 -33 152.78 15.4
33 -3 -1 112.99 16.7
3 1 33 85.39 19.6
1 33 3 146.59 19.5
3 33 1 122.29 17.7
-1 -3 33 90.79 18.8
-33 -1 3 89.69 21.3
1 3 33 131.79 18.7
3 -1 33 107.39 18.3
33 -3 1 132.49 16.2
3 1 -33 154.28 15.6
-3 1 33 120.09 17.2
-3 -3 33 52.49 17.4
3 -3 -33 13.1 8.2
3 3 33 18.3 17.5
3 33 3 -0.2 14.8
3 3 -33 12.7 10.7
-3 3 33 -10 15.3
3 -3 33 25.3 19.3
33 -3 3 23.3 17.2
5 -1 -33 64.79 10
-33 1 5 67.99 16.6
1 33 5 15.4 19.9
-5 -1 33 83.69 16.8
5 33 -1 43.7 14
-1 5 33 51.09 16.7
-5 33 1 36.8 11.3
1 -5 33 81.49 20.4
33 -5 -1 82.49 13.7
5 1 33 37.6 33
5 33 1 17.8 14.5
-1 -5 33 44 18.5
5 1 -33 69.59 10.4
1 5 33 19.2 16.3
-33 -1 5 41.6 17.7
-5 1 33 76.69 17.6
1 -5 -33 72.29 9.6
33 -5 1 39.2 13.1
3 33 5 -30.9 13.6
-33 3 5 10.2 15.3
-5 33 3 1 10.9
-5 -3 33 -20.8 16
5 3 33 26.2 30.8
5 -3 -33 -0.1 8.1
33 -5 -3 -1.5 12.8
33 -5 3 29.3 13.3
-33 -3 5 -16.5 15.5
3 5 33 9.3 15.3
-5 3 33 23.3 17
3 -5 -33 -8.7 7.8
5 33 3 3.5 12.6
-3 -5 33 -21.6 16
