#------------------------------------------------------------------------------
#$Date: 2019-11-26 03:52:18 +0200 (Tue, 26 Nov 2019) $
#$Revision: 242550 $
#$URL: file:///home/coder/svn-repositories/cod/cif/4/13/26/4132603.cif $
#------------------------------------------------------------------------------
#
# This file is available in the Crystallography Open Database (COD),
# http://www.crystallography.net/
#
# All data on this site have been placed in the public domain by the
# contributors.
#
data_4132603
loop_
_publ_author_name
'Collet, Guillaume'
'Lathion, Timoth\'ee'
'Besnard, C\'eline'
'Piguet, Claude'
'Petoud, St\'ephane'
_publ_section_title
;
 On-Demand Degradation of Metal-Organic Framework Based on Photocleavable
 Dianthracene-Based Ligand.
;
_journal_issue                   34
_journal_name_full               'Journal of the American Chemical Society'
_journal_page_first              10820
_journal_page_last               10828
_journal_paper_doi               10.1021/jacs.8b05047
_journal_volume                  140
_journal_year                    2018
_chemical_formula_moiety         'C30 H20 O4, 2(C4 H9 N O)'
_chemical_formula_sum            'C38 H38 N2 O6'
_chemical_formula_weight         618.70
_space_group_crystal_system      monoclinic
_space_group_IT_number           14
_space_group_name_Hall           '-P 2ybc'
_space_group_name_H-M_alt        'P 1 21/c 1'
_atom_sites_solution_hydrogens   mixed
_atom_sites_solution_primary     dual
_audit_creation_date             2017-09-25
_audit_creation_method
;
Olex2 1.2
(compiled 2017.08.10 svn.r3458 for OlexSys, GUI svn.r5381)
;
_audit_update_record
;
2018-04-09 deposited with the CCDC.
2018-05-09 downloaded from the CCDC.
;
_cell_angle_alpha                90
_cell_angle_beta                 96.716(2)
_cell_angle_gamma                90
_cell_formula_units_Z            2
_cell_length_a                   10.6198(3)
_cell_length_b                   12.0108(3)
_cell_length_c                   12.5761(3)
_cell_measurement_reflns_used    3011
_cell_measurement_temperature    180.01(10)
_cell_measurement_theta_max      73.5940
_cell_measurement_theta_min      5.0850
_cell_volume                     1593.10(7)
_computing_cell_refinement       'CrysAlisPro 1.171.38.46 (Rigaku OD, 2015)'
_computing_data_collection       'CrysAlisPro 1.171.38.46 (Rigaku OD, 2015)'
_computing_data_reduction        'CrysAlisPro 1.171.38.46 (Rigaku OD, 2015)'
_computing_molecular_graphics    'Olex2 (Dolomanov et al., 2009)'
_computing_publication_material  'Olex2 (Dolomanov et al., 2009)'
_computing_structure_refinement  'ShelXL (Sheldrick, 2015)'
_computing_structure_solution    'ShelXT (Sheldrick, 2015)'
_diffrn_ambient_environment      N~2~
_diffrn_ambient_temperature      180.01(10)
_diffrn_detector                 'CCD plate'
_diffrn_detector_area_resol_mean 10.4679
_diffrn_detector_type            Atlas
_diffrn_measured_fraction_theta_full 0.998
_diffrn_measured_fraction_theta_max 0.969
_diffrn_measurement_details
;
List of Runs (angles in degrees, time in seconds):

  # Type    Start    End  Width  t~exp~   \w     \q     \k     \f   Frames
#--------------------------------------------------------------------------
  1  \w    -26.00  30.00   1.00    3.10    --  -37.69  57.00  90.00   56
  2  \w     25.00  71.00   1.00    3.10    --   37.69  38.00 -90.00   46
  3  \w    105.00 143.00   1.00   15.00    --  110.40 111.00 -60.00   38
  4  \w    109.00 134.00   1.00   15.00    --  110.40  61.00-150.00   25
  5  \w    110.00 175.00   1.00   15.00    --  110.40  99.00-159.00   65
  6  \w     72.00 115.00   1.00    3.10    --   37.69 178.00-120.00   43
  7  \w    100.00 158.00   1.00   15.00    --  110.40 111.00  90.00   58
  8  \w    100.00 178.00   1.00   15.00    --  110.40 111.00 150.00   78
  9  \w    107.00 139.00   1.00   15.00    --  110.40 -45.00  90.00   32
 10  \w     72.00 138.00   1.00   15.00    --  110.40 -77.00 150.00   66
 11  \w     56.00 106.00   1.00   15.00    --  110.40 -94.00 120.00   50
 12  \w     36.00  89.00   1.00   15.00    --  110.40 -45.00  90.00   53
 13  \w    -73.00  34.00   1.00    3.10    --  -37.69  77.00 -30.00  107
;
_diffrn_measurement_device       'four-circle diffractometer'
_diffrn_measurement_device_type  'SuperNova, Dual, Cu at zero, Atlas'
_diffrn_measurement_method       '\w scans'
_diffrn_orient_matrix_type
'CrysAlisPro convention (1999,Acta A55,543-557)'
_diffrn_orient_matrix_UB_11      -0.0762622000
_diffrn_orient_matrix_UB_12      0.1015684000
_diffrn_orient_matrix_UB_13      -0.0461458000
_diffrn_orient_matrix_UB_21      -0.1241862000
_diffrn_orient_matrix_UB_22      -0.0662886000
_diffrn_orient_matrix_UB_23      0.0015041000
_diffrn_orient_matrix_UB_31      -0.0107628000
_diffrn_orient_matrix_UB_32      0.0417816000
_diffrn_orient_matrix_UB_33      0.1143014000
_diffrn_radiation_monochromator  mirror
_diffrn_radiation_probe          x-ray
_diffrn_radiation_type           CuK\a
_diffrn_radiation_wavelength     1.54184
_diffrn_reflns_av_R_equivalents  0.0226
_diffrn_reflns_av_unetI/netI     0.0339
_diffrn_reflns_Laue_measured_fraction_full 0.998
_diffrn_reflns_Laue_measured_fraction_max 0.969
_diffrn_reflns_limit_h_max       11
_diffrn_reflns_limit_h_min       -13
_diffrn_reflns_limit_k_max       14
_diffrn_reflns_limit_k_min       -14
_diffrn_reflns_limit_l_max       15
_diffrn_reflns_limit_l_min       -9
_diffrn_reflns_number            5834
_diffrn_reflns_point_group_measured_fraction_full 0.998
_diffrn_reflns_point_group_measured_fraction_max 0.969
_diffrn_reflns_theta_full        67.684
_diffrn_reflns_theta_max         73.563
_diffrn_reflns_theta_min         4.192
_diffrn_source                   'micro-focus sealed X-ray tube'
_diffrn_source_type              'SuperNova (Cu) X-ray Source'
_exptl_absorpt_coefficient_mu    0.704
_exptl_absorpt_correction_T_max  1.000
_exptl_absorpt_correction_T_min  0.885
_exptl_absorpt_correction_type   gaussian
_exptl_absorpt_process_details
;
CrysAlisPro 1.171.38.46 (Rigaku Oxford Diffraction, 2015)
Numerical absorption correction based on gaussian integration over
			a multifaceted crystal model
Empirical absorption correction using spherical harmonics,
 implemented in SCALE3 ABSPACK scaling algorithm.
;
_exptl_crystal_colour            colourless
_exptl_crystal_colour_primary    colourless
_exptl_crystal_density_diffrn    1.290
_exptl_crystal_description       prism
_exptl_crystal_F_000             656
_exptl_crystal_size_max          0.114
_exptl_crystal_size_mid          0.06
_exptl_crystal_size_min          0.039
_refine_diff_density_max         0.273
_refine_diff_density_min         -0.246
_refine_diff_density_rms         0.045
_refine_ls_extinction_method     none
_refine_ls_goodness_of_fit_ref   1.043
_refine_ls_hydrogen_treatment    mixed
_refine_ls_matrix_type           full
_refine_ls_number_parameters     214
_refine_ls_number_reflns         3122
_refine_ls_number_restraints     0
_refine_ls_restrained_S_all      1.043
_refine_ls_R_factor_all          0.0507
_refine_ls_R_factor_gt           0.0404
_refine_ls_shift/su_max          0.000
_refine_ls_shift/su_mean         0.000
_refine_ls_structure_factor_coef Fsqd
_refine_ls_weighting_details
'w=1/[\s^2^(Fo^2^)+(0.0538P)^2^+0.2851P] where P=(Fo^2^+2Fc^2^)/3'
_refine_ls_weighting_scheme      calc
_refine_ls_wR_factor_gt          0.1004
_refine_ls_wR_factor_ref         0.1082
_reflns_Friedel_coverage         0.000
_reflns_number_gt                2581
_reflns_number_total             3122
_reflns_threshold_expression     'I > 2\s(I)'
_cod_data_source_file            ja8b05047_si_002.cif
_cod_data_source_block           batch3_2b
_cod_database_code               4132603
_shelx_shelxl_version_number     2017/1
_chemical_oxdiff_formula         C38H38N2O6
_shelx_space_group_comment
;
The symmetry employed for this shelxl refinement is uniquely defined
by the following loop, which should always be used as a source of
symmetry information in preference to the above space-group names.
They are only intended as comments.
;
_shelx_estimated_absorpt_t_max   0.973
_shelx_estimated_absorpt_t_min   0.924
_reflns_odcompleteness_completeness 99.90
_reflns_odcompleteness_iscentric 1
_reflns_odcompleteness_theta     67.29
_olex2_refinement_description
;
1. Fixed Uiso
 At 1.2 times of:
  All C(H) groups
 At 1.5 times of:
  All C(H,H,H) groups, All O(H) groups
2.a Ternary CH refined with riding coordinates:
 C5(H5)
2.b Aromatic/amide H refined with riding coordinates:
 C1(H1), C2(H2), C3(H3), C7(H7), C8(H8), C9(H9), C10(H10), C14(H14)
2.c Idealised Me refined as rotating group:
 C20(H20A,H20B,H20C), C22(H22A,H22B,H22C), C23(H23A,H23B,H23C)
;
_shelx_res_file
;
TITL batch3_2b_a.res in P2(1)/c
    batch3_2b.res
    created by SHELXL-2017/1 at 09:44:28 on 25-Sep-2017
REM Old TITL batch3_2b in P2(1)/c
REM SHELXT solution in P2(1)/c
REM R1 0.123, Rweak 0.155, Alpha 0.042, Orientation as input
REM Formula found by SHELXT: C19 N O3
CELL 1.54184 10.619773 12.010778 12.576099 90 96.7157 90
ZERR 2 0.000264 0.000324 0.0003 0 0.0023 0
LATT 1
SYMM -X,0.5+Y,0.5-Z
SFAC C H N O
UNIT 76 76 4 12

L.S. 10
PLAN  20
SIZE 0.039 0.06 0.114
TEMP -93
BOND $H
list 4
MORE -1
CONF
fmap 2
ACTA
OMIT 6 8 3
REM <olex2.extras>
REM <HklSrc "%.\\batch3_2b.hkl">
REM </olex2.extras>

WGHT    0.053800    0.285100
FVAR       6.85227
O16   4    0.194562    0.490970    0.779973    11.00000    0.04497    0.05382 =
         0.02186   -0.01217   -0.01185    0.02060
O17   4    0.293417    0.370836    0.684293    11.00000    0.02760    0.03595 =
         0.02235   -0.00166   -0.00648    0.01016
H17   2    0.350270    0.362256    0.747528    11.00000   -1.50000
C1    1    0.371621    0.582400    0.436109    11.00000    0.02362    0.03027 =
         0.03740    0.00197    0.00439   -0.00205
AFIX  43
H1    2    0.455005    0.611921    0.448955    11.00000   -1.20000
AFIX   0
C2    1    0.312531    0.573785    0.332030    11.00000    0.03069    0.03339 =
         0.03053    0.00388    0.01083   -0.00168
AFIX  43
H2    2    0.355380    0.596563    0.273478    11.00000   -1.20000
AFIX   0
C3    1    0.190146    0.531543    0.314299    11.00000    0.02989    0.03044 =
         0.01987    0.00178    0.00435    0.00209
AFIX  43
H3    2    0.149010    0.526280    0.243222    11.00000   -1.20000
AFIX   0
C4    1    0.127043    0.496825    0.399446    11.00000    0.02203    0.01990 =
         0.01884    0.00017    0.00120    0.00360
C5    1   -0.005527    0.449734    0.382860    11.00000    0.02118    0.02282 =
         0.01465   -0.00072   -0.00069    0.00261
AFIX  13
H5    2   -0.023238    0.427008    0.306070    11.00000   -1.20000
AFIX   0
C6    1   -0.006889    0.345792    0.450187    11.00000    0.01914    0.02215 =
         0.01825   -0.00064    0.00111    0.00327
C7    1   -0.061582    0.247178    0.409249    11.00000    0.02294    0.02705 =
         0.01993   -0.00362    0.00135    0.00036
AFIX  43
H7    2   -0.099140    0.243963    0.336949    11.00000   -1.20000
AFIX   0
C8    1   -0.061365    0.153270    0.474011    11.00000    0.02719    0.02302 =
         0.02861   -0.00390    0.00362   -0.00187
AFIX  43
H8    2   -0.096529    0.085348    0.445465    11.00000   -1.20000
AFIX   0
C9    1   -0.009602    0.159081    0.580510    11.00000    0.03015    0.02354 =
         0.02600    0.00386    0.00599    0.00104
AFIX  43
H9    2   -0.012548    0.095939    0.625647    11.00000   -1.20000
AFIX   0
C10   1    0.046583    0.257256    0.621227    11.00000    0.02534    0.02687 =
         0.01894    0.00032    0.00266    0.00196
AFIX  43
H10   2    0.082216    0.260635    0.694048    11.00000   -1.20000
AFIX   0
C11   1    0.050957    0.350320    0.556217    11.00000    0.01820    0.02274 =
         0.01778   -0.00182    0.00136    0.00251
C12   1    0.112252    0.461426    0.593419    11.00000    0.01993    0.02243 =
         0.01473   -0.00017   -0.00107    0.00289
C13   1    0.187754    0.503263    0.504192    11.00000    0.02089    0.02045 =
         0.01963   -0.00003    0.00095    0.00411
C14   1    0.309257    0.547982    0.521718    11.00000    0.02326    0.02666 =
         0.02565   -0.00068   -0.00194    0.00016
AFIX  43
H14   2    0.349997    0.555078    0.592771    11.00000   -1.20000
AFIX   0
C15   1    0.203638    0.443667    0.696800    11.00000    0.02277    0.02455 =
         0.01772   -0.00022   -0.00254    0.00138

O18   4    0.542544    0.842190    0.652453    11.00000    0.02435    0.04493 =
         0.02459   -0.00517   -0.00241   -0.00014
N21   3    0.491752    0.852633    0.475217    11.00000    0.02943    0.03382 =
         0.02543   -0.00186   -0.00095    0.00025
C19   1    0.574532    0.831656    0.560642    11.00000    0.02291    0.02796 =
         0.02913   -0.00723    0.00034   -0.00138
C20   1    0.705769    0.793214    0.545963    11.00000    0.02687    0.06313 =
         0.04752   -0.02312    0.00078    0.00776
AFIX 137
H20A  2    0.700767    0.733064    0.492983    11.00000   -1.50000
H20B  2    0.748205    0.765930    0.614394    11.00000   -1.50000
H20C  2    0.754080    0.855531    0.520921    11.00000   -1.50000
AFIX   0
C22   1    0.520246    0.850155    0.364782    11.00000    0.06134    0.04721 =
         0.02669   -0.00027    0.00644    0.00020
AFIX 137
H22A  2    0.610925    0.835929    0.363515    11.00000   -1.50000
H22B  2    0.498006    0.921981    0.330664    11.00000   -1.50000
H22C  2    0.470987    0.790889    0.325830    11.00000   -1.50000
AFIX   0
C23   1    0.360630    0.878175    0.490068    11.00000    0.02734    0.04495 =
         0.04046   -0.00160   -0.00815    0.00575
AFIX 137
H23A  2    0.311825    0.808907    0.489801    11.00000   -1.50000
H23B  2    0.323639    0.926368    0.431720    11.00000   -1.50000
H23C  2    0.358354    0.916407    0.558659    11.00000   -1.50000
AFIX   0
HKLF 4




REM  batch3_2b_a.res in P2(1)/c
REM R1 =  0.0404 for    2581 Fo > 4sig(Fo)  and  0.0507 for all    3122 data
REM    214 parameters refined using      0 restraints

END

WGHT      0.0538      0.2851

REM Highest difference peak  0.273,  deepest hole -0.246,  1-sigma level  0.045
Q1    1   0.3250  0.8344  0.5573  11.00000  0.05    0.27
Q2    1   0.7790  0.8301  0.5866  11.00000  0.05    0.21
Q3    1   0.2955  0.8508  0.4251  11.00000  0.05    0.19
Q4    1   0.0845  0.4033  0.5801  11.00000  0.05    0.18
Q5    1   0.0611  0.5053  0.6025  11.00000  0.05    0.18
Q6    1   0.1585  0.5056  0.3565  11.00000  0.05    0.17
Q7    1   0.5861  0.9100  0.3391  11.00000  0.05    0.16
Q8    1   0.1532  0.4731  0.5513  11.00000  0.05    0.16
Q9    1   0.1594  0.4555  0.6393  11.00000  0.05    0.15
Q10   1   0.4212  0.8477  0.3176  11.00000  0.05    0.14
Q11   1   0.3400  0.9741  0.4823  11.00000  0.05    0.14
Q12   1   0.3431  0.5466  0.4786  11.00000  0.05    0.14
Q13   1  -0.0071  0.3961  0.4176  11.00000  0.05    0.14
Q14   1   0.3713  0.5416  0.2612  11.00000  0.05    0.13
Q15   1   0.0047  0.3511  0.5045  11.00000  0.05    0.13
Q16   1   0.0699  0.4833  0.3904  11.00000  0.05    0.13
Q17   1   0.1627  0.5009  0.4522  11.00000  0.05    0.12
Q18   1  -0.0186  0.2961  0.4238  11.00000  0.05    0.12
Q19   1   0.3166  0.3661  0.5922  11.00000  0.05    0.12
Q20   1   0.4666  0.5929  0.3009  11.00000  0.05    0.12
;
_shelx_res_checksum              4330
_shelx_hkl_file
;
   0   0   1 24.6990 29.3552  13
   0   0   2 648992. 2157.31   1
   0   0   2 642867. 3318.65  13
   0   0   3-16.3558 112.534   6
   0   0   3 39.8409 118.648  13
   0   0   4 2462.64 325.509  13
   0   0   4 2364.57 332.961   6
   0   0   5 319.152 229.984   6
   0   0   6 23205.1 1310.76   6
   0   0   7-57.0122 196.449   6
   0   0   8 22116.8 1599.02   6
   0   0   9 220.768 285.471   6
   0   0  10 7560.36 492.097  11
   0   0  10 10518.4 1270.83   6
   0   0  11 32.4736 146.871  11
   0   0  12-46.4680 183.504  11
   0   0  13-38.2270 161.852  11
   0   0  14 1097.63 190.311  11
   0   0  14 982.540 185.889  10
   0   0  15 25.0545 73.9059  10
   0   0  15 137.695 109.941  11
   0   1   0 60.4093 43.0958  13
   0   1   1 198929. 1575.65  13
   0  -1  -1 202734. 1156.41   2
   0   1   2 33940.9 807.927  13
   0  -1  -2 29884.6 592.895   2
   0   1   3 66616.3 1360.61  13
   0   1   3 65885.1 1504.47   6
   0  -1   3 63059.9 836.022   1
   0   1   4 69331.9 1792.47   6
   0  -1   4 69442.1 934.943   1
   0   1   4 72823.1 1645.81  13
   0  -1   5 2107.13 393.074   6
   0   1   5 1454.33 302.102  13
   0   1   5 1505.71 342.995   6
   0  -1   6 602.389 310.591   6
   0   1   6 623.671 304.697   6
   0   1   6 488.463 188.924  13
   0  -1   7 9347.44 935.754   6
   0  -1  -7 9232.58 721.816   2
   0   1   7 9719.24 983.564   6
   0   1   8 3657.71 657.961   6
   0  -1   8 3190.49 624.656   6
   0  -1   9 379.571 287.277   6
   0   1  10 165.811 139.758  11
   0  -1  10 138.859 102.503  11
   0  -1  11 56802.4 1364.87  11
   0   1  11 57305.3 1373.53  11
   0   1  12 4861.29 404.655  11
   0  -1  12 4692.61 390.893  11
   0  -1  13 18082.5 735.021  11
   0   1  13 18033.9 800.285  10
   0   1  13 18815.6 747.663  11
   0   1  14 2170.53 247.150  10
   0  -1  14 2082.43 252.608  10
   0   1  14 2400.10 262.097  11
   0  -1  14 2050.23 238.842  11
   0  -1  15 388.314 125.763  11
   0  -1  15 141.254 97.4373  10
   0   2   0 125813. 1538.77  13
   0   2   1 242083. 2257.66  13
   0   2   2 113584. 1714.41  13
   0   2   3 9177.42 580.034  13
   0  -2  -3 9643.03 409.329   2
   0  -2  -4 45597.1 1020.92   2
   0   2   4 46066.0 1397.81  13
   0  -2  -5 646.687 163.702   2
   0   2   5 501.254 236.895  13
   0  -2  -6 3481.48 369.977   2
   0  -2   6 3338.59 530.549   6
   0   2   6 3280.41 504.403  13
   0  -2   7 66898.0 2498.77   6
   0   2   7 63247.7 2315.49  13
   0   2   8 2197.97 484.131  13
   0  -2   8 1903.88 450.267   6
   0  -2   9 26925.1 1940.92   6
   0  -2  10 52656.1 1263.84  11
   0  -2  10 51812.3 1201.83  12
   0   2  10 52788.8 1276.97  11
   0   2  11 17158.7 746.753  11
   0  -2  11 17406.6 751.727  11
   0  -2  11 16350.3 697.382  12
   0   2  12 1788.30 291.213  10
   0  -2  12 1873.07 245.725  11
   0   2  12 1832.49 270.572  11
   0   2  13 74.7484 125.941  10
   0  -2  13 93.8106 136.970  11
   0   2  14 668.763 174.672  11
   0   2  14 396.894 131.315  10
   0  -2  15 3399.67 247.407  10
   0  -2  15 3260.76 227.034  11
   0   3   0 1.87494 107.634  13
   0   3   1 999999. 5599.88  13
   0   3   2 152738. 2295.50  13
   0   3   3 20884.9 950.224  13
   0   3   4 775.097 236.470  13
   0   3   5 4510.44 536.118  13
   0   3   6 55380.0 2041.89  13
   0  -3   7 96497.7 3080.08   6
   0   3   7 92786.3 2889.43  13
   0  -3   8-196.427 223.070   6
   0   3   8 103.147 189.062  13
   0   3   9 5505.56 841.405  13
   0  -3   9 6842.15 435.381   3
   0  -3   9 6695.31 974.722   6
   0  -3   9 6316.36 418.592  12
   0   3   9 6386.98 427.018  11
   0   3  10 50731.1 1391.26  10
   0   3  10 52884.8 1277.65  11
   0  -3  10 50919.1 1229.52   3
   0  -3  10 51358.2 1235.73  11
   0  -3  10 50863.9 1218.75  12
   0  -3  11 19928.2 791.145  11
   0   3  11 20270.8 807.936  11
   0  -3  11 20283.4 782.005  12
   0   3  11 21690.5 915.805  10
   0   3  12 726.271 170.037  10
   0   3  12 533.918 170.860  11
   0  -3  12 729.060 171.655  12
   0  -3  12 693.406 166.487  11
   0   3  13 1117.54 219.587  11
   0  -3  13 650.274 153.105  12
   0  -3  13 549.100 133.562  11
   0   3  13 780.764 188.286  10
   0  -3  14 846.972 157.670  11
   0  -3  15 603.945 107.461  11
   0  -3  15 112.819 75.8250  10
   0   4   0 36739.5 1220.80  13
   0   4   1 27589.8 1079.72  13
   0   4  -1 26833.0 1043.24  13
   0   4   2 76728.8 1883.61  13
   0   4   3 16335.2 935.236  13
   0   4   4 13856.6 934.933  13
   0   4   5 158.158 207.752  13
   0   4   6 55679.4 2171.93  13
   0   4   7 441.259 295.958  13
   0  -4   8 33055.3 2066.97   6
   0   4   8 31052.0 1925.77  13
   0  -4   9 36419.1 2343.96   6
   0  -4   9 36571.2 1027.47  12
   0  -4   9 35003.5 992.736   3
   0  -4   9 36429.8 992.149  11
   0   4   9 35240.1 1003.58  11
   0   4   9 35715.3 2212.99  13
   0  -4  10 62941.3 1380.62   3
   0  -4  10 62755.5 1390.45  12
   0   4  10 66369.5 1512.18  10
   0  -4  10 64643.7 1371.37  11
   0   4  10 64172.7 1392.44  11
   0   4  11 714.038 182.183  10
   0   4  11 387.092 162.085  11
   0  -4  11 510.466 169.163  11
   0  -4  11 515.651 156.504  12
   0   4  12 647.727 190.627  11
   0  -4  12 422.035 163.292  12
   0  -4  12 125.248 118.411  11
   0  -4  13 264.898 103.852  11
   0  -4  13 233.827 119.723  12
   0  -4  14 326.271 101.903  11
   0   5   0 17.9955 188.295  13
   0   5   1 363.208 235.860  13
   0   5  -1 458.170 222.023  13
   0   5  -2 102.056 174.543  13
   0   5   2 159.784 205.121  13
   0   5   3 39237.1 1585.29  13
   0   5   4 27636.8 1445.88  13
   0   5   5 8269.46 841.376  13
   0   5   6 10.4223 193.111  13
   0   5   7 41828.2 2157.36  13
   0  -5   8 4816.16 362.868   3
   0  -5   8 4547.09 361.141  12
   0  -5   8 4917.46 825.892   6
   0   5   8 3702.51 738.387  13
   0  -5   9 24722.3 806.050  11
   0  -5   9 26207.5 894.628  12
   0  -5   9 25617.3 865.261   3
   0   5  10 8069.21 493.942  11
   0  -5  10 7056.31 470.029   3
   0  -5  10 7212.04 448.638  11
   0  -5  10 6982.11 487.483  12
   0  -5  11 12244.9 608.377   3
   0  -5  11 12724.3 582.512  11
   0  -5  11 11850.7 617.199  12
   0   5  11 11810.7 576.649  11
   0  -5  12 1773.46 212.867  11
   0  -5  12 2038.21 261.842  12
   0  -5  13 313.801 129.906  12
   0  -5  13 266.904 116.929  11
   0  -5  14 1508.08 152.394  12
   0   6   0 188343. 3537.42  13
   0   6  -1 7845.97 739.219  13
   0   6   1 7662.77 749.345  13
   0   6  -2 47068.6 1795.55  13
   0   6   2 47230.7 1849.91  13
   0   6   3 1191.67 355.939  13
   0   6  -3 1332.13 371.310  13
   0   6   4 35789.9 1802.14  13
   0   6  -4 36675.6 1715.45  13
   0   6   5 6126.03 780.110  13
   0   6   6 196.215 226.698  13
   0   6   7-82.0201 158.242  13
   0  -6   8 67.8396 103.593   3
   0   6   8 76.3803 117.063   7
   0  -6   8-6.41469 102.376  12
   0   6   8-21.2559 182.653  13
   0  -6   9 4763.89 396.395   3
   0  -6   9 4562.78 394.191  12
   0  -6  10 3833.10 353.806   3
   0  -6  10 4127.08 372.987  12
   0  -6  11 79.3742 140.626  12
   0  -6  11-24.2189 130.333   3
   0  -6  12 16.7337 106.887  12
   0  -6  13 233.497 117.244  12
   0   7   0-28.7147 188.692  13
   0   7  -1 25618.9 1453.02  13
   0   7   1 27683.6 1541.53  13
   0   7  -2 8491.49 847.990  13
   0   7   2 7828.63 844.602  13
   0   7   3 12890.1 1112.93  13
   0   7  -3 13006.0 1078.03  13
   0   7  -4 545.871 207.131  13
   0   7   4 532.974 209.742  13
   0   7   5 4609.35 735.144  13
   0   7  -5 4390.77 669.079  13
   0   7   6 2096.59 260.229   7
   0   7  -6 2619.79 529.963  13
   0   7   6 2723.60 600.047  13
   0  -7   7 6587.59 450.147  12
   0   7   7 5844.56 439.675   7
   0  -7   7 6455.96 442.676   3
   0   7   7 5483.76 866.943  13
   0  -7   8 23328.8 851.544  12
   0  -7   8 23580.3 840.221   3
   0   7   8 23283.8 880.026   7
   0  -7   9 4177.08 378.180  12
   0  -7   9 3159.18 337.933   3
   0  -7  10 19851.0 793.730  12
   0  -7  10 18448.5 729.747   3
   0  -7  11 3420.21 305.521   3
   0  -7  11 3149.13 315.324  12
   0  -7  12 1273.92 201.125  12
   0  -7  13 1560.84 182.460  12
   0   8   0 25925.2 1616.12  13
   0   8  -1 3481.07 591.829  13
   0   8   1 3673.76 660.410  13
   0   8   2 486.299 287.996  13
   0   8  -2 705.561 296.889  13
   0   8  -3 20459.6 1453.19  13
   0   8   3 22371.1 1618.10  13
   0   8   4 2941.11 592.243  13
   0   8  -4 1463.44 414.587  13
   0   8   5 4058.18 796.035  13
   0   8   5 4905.21 403.204   7
   0   8  -5 3954.40 660.154  13
   0  -8   5 4296.76 337.432  12
   0  -8   6 69.9386 116.776  12
   0   8   6 279.052 124.257   7
   0   8   7 2045.55 267.911   7
   0  -8   7 2502.11 314.219  12
   0  -8   7 1847.86 256.641   3
   0   8   8 12247.1 653.298   7
   0  -8   8 12649.1 627.917  12
   0  -8   8 12117.0 604.460   3
   0  -8   9 5988.91 423.607   3
   0  -8   9 6160.36 450.944  12
   0  -8  10 7792.95 489.890  12
   0  -8  10 7555.15 453.627   3
   0  -8  11 415.405 130.814   3
   0  -8  11 30.1493 121.315  12
   0  -8  12 808.575 155.599  12
   0  -8  13 240.399 83.0488  12
   0   9   0 374.294 252.245  13
   0   9   1 1970.00 487.655  13
   0   9  -1 2041.18 514.686  13
   0   9   2 2075.54 267.409   7
   0   9  -2 2228.70 523.569  13
   0   9   2 1317.33 445.295  13
   0   9  -3 507.119 263.910  13
   0   9   3 841.866 349.276  13
   0   9   3 489.624 169.437   7
   0   9  -4-110.674 151.001  13
   0   9   4 441.217 174.540   7
   0  -9   5 3203.59 291.410  12
   0   9   5 3462.75 355.395   7
   0   9   6 93.1677 135.250   7
   0  -9   6 213.753 127.055  12
   0   9   7 8245.71 531.711   7
   0  -9   7 7476.18 477.084   3
   0  -9   7 8117.62 497.876  12
   0  -9   8 54.6499 109.891   3
   0  -9   8 85.3546 143.798  12
   0   9   8 89.7086 118.152   7
   0  -9   9 29.8232 111.686   3
   0  -9   9 90.3141 108.143  12
   0  -9  10 85.6310 115.466  12
   0  -9  10 59.6488 103.878   3
   0  -9  11 2097.70 226.998  12
   0  -9  11 1878.52 192.429   3
   0  -9  12 1968.02 185.560  12
   0  10   0 125732. 1992.95   7
   0  10   1 2751.87 323.034   7
   0  10  -1 2860.06 319.727   7
   0  10  -2 10646.5 589.267   7
   0  10   2 10379.3 595.694   7
   0  10   3 1550.94 263.413   7
   0  10   4 9649.95 581.109   7
   0  10   5 727.758 209.532   7
   0 -10   6 441.518 154.963  12
   0  10   6 324.634 156.340   7
   0 -10   7 1619.68 222.118  12
   0  10   7 1754.88 266.452   7
   0 -10   7 1464.14 233.335   3
   0  10   8 1971.05 265.830   7
   0 -10   8 1949.59 245.007  12
   0 -10   8 1625.70 228.681   3
   0 -10   9 5533.91 366.945  12
   0 -10   9 5059.64 341.176   3
   0 -10  10 849.892 154.047  12
   0 -10  10 700.564 130.243   3
   0 -10  11 1843.77 182.802  12
   0  11   0 163.067 146.199   7
   0  11   1 191.024 137.079   7
   0  11  -1 145.008 125.542   7
   0  11   2 98.4751 142.217   7
   0  11  -2 17.6030 133.686   7
   0  11   3 12719.5 666.010   7
   0  11  -3 13315.0 643.398   7
   0  11   4 125.015 147.687   7
   0  11  -4 16.3119 118.239   7
   0  11   5 166.778 147.313   7
   0  11  -5 166.159 127.215   7
   0  11   6 81.4058 132.171   7
   0 -11   6-68.0547 123.752   3
   0 -11   7 6244.26 393.462   3
   0  11   7 7208.49 454.573   7
   0  11  -7 6640.89 384.254   7
   0 -11   7 7232.12 395.016  12
   0 -11   8 1223.18 172.877  12
   0 -11   8 1244.67 169.492   3
   0 -11   9 193.372 97.4502   3
   0 -11   9 290.873 103.187  12
   0 -11  10 269.408 77.4882   3
   0 -11  10 133.142 73.3137  12
   0  12   0 17959.4 754.102   7
   0  12  -1 256.468 158.036   7
   0  12   1 116.071 138.318   7
   0  12   2 7087.16 484.495   7
   0  12  -2 7167.00 465.865   7
   0  12  -3 346.223 145.361   7
   0  12   3 422.836 165.547   7
   0  12   4 1394.57 239.325   7
   0  12  -4 1409.82 207.663   7
   0  12  -5 998.476 174.455   7
   0  12   5 928.523 195.692   7
   0  12  -6 6166.48 343.449   7
   0 -12   6 5172.45 338.064   3
   0  12   6 6289.03 401.285   7
   0 -12   7 494.981 118.606   3
   0  12   7 380.177 131.624   7
   0 -12   8 48.6216 67.6163   3
   0  13   0 13.8936 112.114   7
   0  13  -1 525.627 159.994   7
   0  13   1 415.666 155.440   7
   0  13  -2 749.790 154.447   7
   0  13   2 867.971 181.609   7
   0  13  -3 3888.93 300.537   7
   0  13   3 3765.67 324.203   7
   0  13  -4 1299.58 178.545   7
   0  13   4 1114.97 174.888   7
   0 -13   5 87.4692 71.7628   3
   0  13  -5 143.330 85.3749   7
   0  13   5-56.2628 95.3364   7
   0 -13   6 3617.34 230.879   3
   0  13   6 5254.15 311.500   7
   0 -13   7 65.5870 58.2474   3
   0  14   0 5571.42 323.957   7
   0  14  -1 155.810 86.4514   7
   0  14   1 198.538 94.8974   7
   0  14  -2 2113.92 193.862   7
   0  14   2 2174.55 213.384   7
   0 -14   3 1315.41 143.793   3
   0  14  -3 1550.66 159.187   7
   0  14   3 1690.70 179.416   7
   0 -14   4 4331.93 224.253   3
   0  14   4 5288.38 285.376   7
  -1   0  15 187.981 109.217  11
  -1   0  14 8369.75 472.487  10
  -1   0  14 9145.42 475.824  11
  -1   0  13-356.563 196.129  11
  -1   0  12 9157.29 557.263  11
  -1   0  11-35.3021 124.719  11
  -1   0  10 49671.2 2880.12   6
  -1   0  10 47072.5 1200.22  11
  -1   0   9 440.799 301.935   6
  -1   0   8-329.544 279.411   6
  -1   0   7-69.6760 256.669   6
  -1   0   6 299108. 4747.64   6
  -1   0   5-65.1354 102.054   1
  -1   0   5 51.3749 171.970   6
  -1   0   4 52718.0 1248.29  13
  -1   0   4 52279.1 1140.45   1
  -1   0   3 35.7684 81.1109   1
  -1   0   3-38.6043 85.0863  13
  -1   0   2 34.8508 55.2745  13
  -1   0   2 6.53372 81.3327   1
  -1   0   1 14.2913 48.1606   1
  -1   0   0 111920. 1022.38   1
   1   0   1-3.23883 32.0587   6
   1   0   1 1.70730 51.1853  13
  -1   0  -1 1.70126 28.8551   1
   1   0   2 41142.7 1007.81  13
   1   0   2 39348.3 814.084   6
   1   0   3-41.6065 133.135   6
   1   0   3-6.65683 137.721  13
   1   0   4 29944.8 1098.93   6
   1   0   5-10.4877 157.323   6
   1   0   6 164101. 3367.02   6
   1   0   7 36.1404 209.551   6
  -1   0  -8 1384.58 352.413   2
   1   0   8 461.253 280.052   6
   1   0   9 1457.80 476.971   6
   1   0  10 44735.9 1172.21  11
   1   0  11-408.336 217.427  11
   1   0  12 32013.8 1020.29  11
   1   0  13 44.1392 138.998  11
   1   0  13-335.755 222.624  10
   1   0  14 3892.16 318.488  11
   1   0  14 3338.35 311.647  10
   1   0  15 50.1147 70.9124  10
  -1  -1  15 4608.94 265.953  10
  -1   1  15 5206.12 299.315  11
  -1  -1  15 5621.88 312.281  11
  -1   1  14 922.898 172.933  11
  -1  -1  14 860.364 174.354  11
  -1  -1  13 4506.78 382.173  11
  -1   1  13 4621.80 382.963  11
  -1   1  13 4396.38 390.864  10
  -1   1  12 1248.56 223.321  11
  -1  -1  12 1546.80 262.551  11
  -1  -1  11 11503.7 619.126  11
  -1   1  11 11672.8 621.122  11
  -1  -1  10 4410.34 384.213  11
  -1   1  10 4443.68 381.396  11
  -1  -1   9 1864.56 539.303   6
  -1   1   9 1126.07 418.784   6
  -1   1   8 361.363 275.993   6
  -1  -1   8 249.506 204.444   6
  -1   1   7 38105.0 1946.99   6
  -1   1   7 34497.1 1556.80  13
  -1  -1   7 36048.1 1857.65   6
  -1  -1   6 15851.6 1115.49   6
  -1   1   6 15791.3 1148.04   6
  -1   1   6 16924.7 977.614  13
  -1  -1   5 3930.82 332.758   1
  -1  -1   5 4275.99 515.522   6
  -1   1   5 4539.39 456.607  13
  -1   1   5 5236.52 602.545   6
  -1  -1   4 2284.79 245.433   1
  -1  -1   4 2691.07 358.561   6
  -1   1   4 1946.37 330.745   6
  -1   1   4 2597.53 307.926  13
  -1  -1   3 46800.1 988.590   1
  -1   1   3 46087.8 1022.92  13
  -1   1   3 46156.1 1058.75   1
  -1   1   2 31158.6 699.186  13
  -1   1   2 31750.6 797.579   1
  -1   1   1 549325. 3029.44   1
   1   1  -1 552739. 1886.32  13
  -1   1   1 550715. 2624.41  13
   1   1   0 33964.6 569.198  13
   1   1   1 93890.9 1244.27  13
  -1  -1  -2 10429.5 493.458   2
   1   1   2 11656.7 551.093  13
  -1  -1  -3 502.163 153.443   2
   1   1   3 408.422 154.976   6
   1   1   3 436.432 170.680  13
   1   1   4 17012.1 877.138   6
   1   1   4 16843.7 877.506  13
  -1  -1  -4 17702.8 805.628   2
  -1  -1  -5 86531.7 1960.90   2
   1   1   5 84682.9 2232.23  13
   1  -1   5 81822.7 2113.66   6
   1   1   5 81213.2 2171.31   6
   1  -1   6 14375.5 1024.58   6
   1   1   6 15152.1 1070.03  13
  -1  -1  -6 14068.0 887.450   2
   1   1   6 14570.1 1038.40   6
   1   1   7 2685.42 541.087   6
   1  -1   7 2614.71 518.850   6
  -1  -1  -7 3157.37 470.724   2
   1   1   8 23306.3 1588.96   6
   1  -1   8 23573.7 1595.35   6
   1  -1   9 2309.87 571.923   6
   1  -1  10 12590.8 625.402  11
   1   1  10 11651.1 610.689  11
   1  -1  11 9948.24 568.905  11
   1   1  11 9457.05 568.857  11
   1  -1  12 24044.2 879.104  11
   1   1  12 24262.6 893.608  11
   1   1  13 688.004 200.763  11
   1   1  13 1018.45 216.186  10
   1  -1  13 1391.50 220.953  11
   1  -1  14 2239.08 267.603  10
   1   1  14 2270.77 246.787  10
   1   1  14 2758.19 281.140  11
   1  -1  14 2607.38 264.024  11
   1   1  15 2638.04 193.415  10
   1  -1  15 2645.47 211.545  10
  -1  -2  15 726.393 125.571  11
  -1  -2  15 650.151 111.845  10
  -1  -2  14-173.176 133.926  11
  -1   2  14 275.724 133.936  11
  -1   2  13 9512.62 526.682  11
  -1  -2  13 9939.25 539.729  11
  -1   2  12 439.638 159.682  11
  -1  -2  12 630.748 189.939  11
  -1   2  11 5189.19 422.872  11
  -1  -2  11 5104.74 422.284  11
  -1  -2  10 4913.50 363.372  12
  -1  -2  10 4626.64 387.531  11
  -1   2  10 4881.88 390.521  11
  -1  -2   9 4007.92 772.158   6
  -1  -2   8 33128.7 1969.31   6
  -1   2   8 30231.2 1679.65  13
  -1  -2   7 6827.59 819.751   6
  -1   2   7 6480.93 711.270  13
  -1  -2   6 7133.49 768.146   6
  -1   2   6 7548.75 682.759  13
  -1   2   5 1291.20 298.638  13
  -1  -2   5 1740.72 247.027   1
   1  -2  -4 49864.6 696.439   2
  -1   2   4 52307.5 1401.34  13
  -1  -2   4 50435.2 1191.21   1
  -1   2   3 6552.43 454.292  13
  -1   2   2 98602.5 1569.34  13
  -1   2   1 22358.4 709.140  13
   1   2  -1 22593.0 595.920  13
   1   2   0 30451.9 743.940  13
   1   2   1 45917.6 1010.75  13
  -1  -2  -2 50.0007 97.8373   2
   1   2   2 61.4767 95.4468  13
   1   2   3 13107.4 720.278  13
  -1  -2  -3 13204.7 628.102   2
   1   2   4 61279.7 1744.86  13
  -1  -2  -4 61649.8 1469.57   2
  -1  -2  -5 38638.0 1284.26   2
   1   2   5 39572.5 1548.74  13
   1  -2   6 1646.72 384.636   6
  -1  -2  -6 2126.84 352.123   2
   1   2   6 2174.26 436.762  13
   1  -2   7 152.074 253.906   6
   1   2   7 200.519 221.923  13
   1  -2   8 2967.19 595.639   6
   1  -2   9 30965.7 917.821   3
   1   2   9 30545.7 940.491  11
   1  -2   9 28647.4 1951.88   6
   1  -2  10 1213.18 216.227  11
   1   2  10 954.923 210.944  11
   1  -2  10 822.045 191.719  12
   1  -2  11 56370.8 1329.23  11
   1   2  11 54643.0 1532.46  10
   1  -2  11 57741.7 1331.69  12
   1   2  11 56291.6 1375.64  11
   1   2  12 698.882 219.170  10
   1  -2  12 702.861 173.829  12
   1  -2  12 708.644 168.344  11
   1   2  12 999.944 216.165  11
   1   2  13 247.545 187.832  11
   1   2  13 92.8328 147.391  10
   1  -2  13 122.777 125.428  11
   1  -2  14-225.530 161.368  10
   1   2  14 33.6867 100.663  10
   1  -2  15 3542.12 241.937  10
  -1  -3  15 2087.85 188.406  10
  -1  -3  15 2502.98 193.925  11
  -1   3  14 4597.72 313.130  11
  -1  -3  14 4649.36 314.805  11
  -1  -3  13 2296.23 266.276  11
  -1   3  13 2567.42 274.346  11
  -1   3  12 35.6216 148.648  11
  -1  -3  12 262.823 140.024  11
  -1  -3  12 454.090 149.642  12
  -1  -3  11 88688.8 1668.95  11
  -1  -3  11 86484.1 1581.95  12
  -1   3  11 87505.2 1645.16  11
  -1   3  10 36389.7 1042.61  11
  -1  -3  10 37329.0 1030.14  12
  -1  -3  10 37809.2 1036.75   3
  -1  -3  10 36951.7 1072.88  11
  -1  -3   9 59150.6 2950.05   6
  -1  -3   8 824.896 361.087   6
  -1   3   8 1448.90 467.864  13
  -1  -3   7 45021.7 2132.17   6
  -1   3   7 44286.1 1903.23  13
  -1   3   6 3484.06 514.677  13
  -1  -3   5 4803.82 426.199   1
  -1   3   5 3865.65 482.829  13
  -1   3   4 12579.1 772.275  13
  -1   3   3 50384.8 1391.63  13
  -1   3   2 20814.6 868.759  13
   1   3  -2 21894.0 769.013  13
   1   3  -1 155286. 2013.64  13
  -1   3   1 158298. 2252.32  13
  -1   3   0 75683.9 1584.28  13
   1   3   0 76022.9 1442.80  13
   1   3   1 24947.8 880.187  13
   1   3   2 231717. 2944.78  13
  -1  -3  -3 11535.7 613.681   2
   1   3   3 11850.6 749.555  13
  -1  -3  -4 10717.1 628.950   2
   1   3   4 10734.5 773.884  13
  -1  -3  -5 70336.6 1712.44   2
   1   3   5 64077.4 2081.84  13
   1   3   6 6349.39 731.082  13
   1  -3   7 1464.84 420.936   6
   1   3   7 1287.26 385.101  13
   1  -3   8 18025.0 1465.28   6
   1   3   8 17065.3 1443.99  13
   1  -3   9 13447.4 622.448   3
   1  -3   9 11554.5 563.959  11
   1   3   9 11812.2 682.317  10
   1  -3   9 12848.7 1334.19   6
   1  -3   9 12013.3 592.604  12
   1   3   9 12165.7 607.189  11
   1   3  10 36.5836 182.216  10
   1  -3  10 204.564 155.407   3
   1   3  10 229.041 148.147  11
   1  -3  10 660.172 175.514  11
   1  -3  10 281.897 135.094  12
   1   3  11 22872.0 866.922  11
   1  -3  11 21812.1 846.386  12
   1  -3  11 21411.3 804.173  11
   1   3  11 22074.0 944.057  10
   1   3  12 277.130 179.069  11
   1  -3  12-9.18016 153.963  11
   1  -3  12 273.760 140.774  12
   1   3  12 46.7819 149.511  10
   1  -3  13 98.6104 124.489  11
   1   3  13 377.351 188.126  11
   1  -3  13 0.51478 104.580  12
   1   3  13 20.4288 111.449  10
   1  -3  14 5511.41 321.637  11
   1   3  14 5238.76 312.340  10
   1  -3  15 20868.0 548.215  10
  -1  -4  14 1771.98 186.730  11
  -1  -4  13 479.932 140.065  12
  -1   4  13 688.266 174.487  11
  -1  -4  13 269.643 110.238  11
  -1  -4  12 484.013 171.650  11
  -1   4  12 163.856 133.269  11
  -1  -4  12 419.791 142.174  12
  -1   4  11 3199.72 324.527  11
  -1  -4  11 3009.75 319.907  12
  -1  -4  11 3639.30 341.079  11
  -1  -4  10 17656.3 712.607   3
  -1   4  10 17893.5 722.929  11
  -1  -4  10 17944.1 735.153  11
  -1  -4  10 17823.5 732.370  12
  -1   4   9 11725.3 1227.38  13
  -1  -4   9 13002.8 610.515  11
  -1   4   9 13858.7 587.814   8
  -1  -4   9 13529.6 618.051  12
  -1  -4   9 13771.3 606.065   3
  -1  -4   9 15109.3 1531.38   6
  -1   4   8 55280.3 2466.81  13
  -1  -4   8 57373.6 2747.63   6
  -1   4   7 8718.41 906.702  13
  -1   4   6 3257.47 532.393  13
  -1   4   5 35258.7 1547.15  13
  -1   4   4 102.975 221.701  13
  -1   4   3-34.9744 173.269  13
  -1   4   2 30683.8 1199.16  13
   1   4  -2 31320.5 1076.07  13
   1   4  -1 10998.6 640.553  13
  -1   4   1 11638.4 723.963  13
   1   4   0 434802. 4058.04  13
  -1   4   0 437463. 4344.72  13
   1   4   1 306.504 155.044  13
   1   4   2 308.565 169.289  13
   1   4   3-25.9958 167.611  13
   1   4   4 184388. 3432.91  13
   1   4   5 4857.61 638.140  13
   1   4   6 40903.1 1932.74  13
   1   4   7 307.098 348.420  13
   1   4   8 5696.62 847.681  13
   1  -4   8 6739.37 947.073   6
   1  -4   9 6586.52 420.843  11
   1   4   9 6043.46 941.929  13
   1  -4   9 6663.25 449.214   3
   1  -4   9 6820.50 459.699  12
   1   4   9 6463.98 445.433  11
   1   4   9 6420.39 505.512  10
   1  -4  10 9058.01 508.033  11
   1   4  10 8710.19 534.689  11
   1  -4  10 8891.15 541.277  12
   1  -4  10 9107.99 538.811   3
   1   4  10 8608.46 572.977  10
   1   4  11 11652.3 649.183  10
   1  -4  11 11227.7 564.818  11
   1  -4  11 11244.9 605.912  12
   1  -4  11 12249.6 622.162   3
   1   4  11 11519.7 625.269  11
   1  -4  12 983.935 175.828  11
   1   4  12 1530.34 273.134  11
   1   4  12 1367.39 230.161  10
   1  -4  12 1430.55 235.897  12
   1  -4  13 23.9671 107.406  12
   1  -4  13-39.4926 93.5920  11
   1   4  13-102.652 116.319  10
   1  -4  14 2718.80 207.680  11
  -1  -5  14 1580.58 152.797  11
  -1  -5  14 1548.01 159.365  12
  -1  -5  13 4611.59 331.391  12
  -1  -5  13 5075.03 334.133  11
  -1  -5  12 32364.4 948.137  12
  -1  -5  12 32408.0 902.114  11
  -1  -5  11 476.458 162.616  12
  -1  -5  11 545.967 139.804  11
  -1  -5  11 582.484 169.996   3
  -1  -5  10 12889.2 623.053   3
  -1  -5  10 11402.8 600.852  12
  -1  -5  10 11754.8 586.017  11
  -1   5   9 118.906 113.467   8
  -1  -5   9 221.675 114.578   3
  -1  -5   9 3.91093 116.284  12
  -1  -5   9 228.465 132.498  11
  -1  -5   8 953.499 188.006  12
  -1   5   8 745.668 332.436  13
  -1   5   7 73.6357 161.582  13
  -1   5   6 39329.3 1905.91  13
  -1   5   5 4512.35 630.545  13
   1   5  -4 2852.61 440.384  13
  -1   5   4 3143.57 501.807  13
  -1   5   3 841.644 295.380  13
   1   5  -3 7569.88 668.051  13
   1   5  -2 15783.9 906.376  13
  -1   5   2 14152.1 950.814  13
  -1   5   1 68896.5 1981.57  13
   1   5  -1 68462.9 1818.65  13
  -1   5   0 48749.6 1668.25  13
   1   5   0 50486.5 1594.55  13
   1   5   1 18157.7 978.764  13
  -1   5  -1 17901.7 1044.32  13
   1   5   2 6653.93 638.080  13
   1   5   3 9407.48 807.778  13
   1   5   4 105.481 210.853  13
   1   5   5 49651.1 2096.46  13
   1   5   6 170.837 206.624  13
   1   5   7 590.348 249.642  13
   1  -5   8 37523.4 2239.46   6
   1   5   8 39505.0 2355.58  13
   1  -5   8 40181.9 1056.66   3
   1  -5   8 39878.7 1065.06  12
   1   5   8 39874.3 1125.73  10
   1  -5   9 11490.9 593.959   3
   1   5   9 10895.9 582.284  11
   1  -5   9 11874.9 619.561  12
   1   5   9 12624.2 652.279  10
   1   5  10 55336.6 1361.05  10
   1  -5  10 55971.7 1310.06   3
   1   5  10 51784.8 1262.99  11
   1  -5  10 53596.3 1319.88  12
   1  -5  11 5088.34 418.275  12
   1  -5  11 4922.78 399.582   3
   1   5  11 4849.68 404.528  10
   1  -5  12 4840.93 388.542  12
   1   5  12 4719.53 362.423  10
   1  -5  13 2026.45 228.794  12
  -1  -6  13 189.483 112.351  12
  -1  -6  12 31.2452 115.588  12
  -1  -6  12-219.172 117.423  11
  -1  -6  11 338.214 145.167  12
  -1  -6  11 296.400 133.907   3
  -1  -6  11 497.409 140.232  11
  -1  -6  10 1850.30 264.400  12
  -1  -6  10 1793.41 251.650   3
  -1  -6  10 1947.89 252.534  11
  -1  -6   9 26781.6 877.766   3
  -1  -6   9 27192.1 922.039  12
  -1   6   9 26569.0 804.701   8
  -1  -6   8 101.001 112.744  12
  -1  -6   8-5.29703 112.223   3
  -1   6   8 32.3604 127.499   7
  -1   6   8 87.3355 211.607  13
  -1   6   7 128.160 206.721  13
  -1   6   6 14310.2 1243.24  13
   1   6  -5 36460.1 1647.60  13
  -1   6   5 31818.0 1757.84  13
   1   6  -4 69684.2 2193.11  13
  -1   6   4 65541.6 2384.71  13
  -1   6   3 1587.36 380.648  13
   1   6  -3 1677.74 381.187  13
   1   6  -2 2893.26 457.920  13
  -1   6   2 2488.23 477.900  13
   1   6  -1 76421.8 2179.68  13
  -1   6   1 77587.5 2355.48  13
   1   6   0-117.724 188.438  13
  -1   6   0-4.57944 252.682  13
   1   6   1 14054.9 980.086  13
  -1   6  -1 15419.3 1076.80  13
   1   6   2 54125.0 1956.91  13
  -1   6  -2 55383.4 2027.40  13
   1   6   3 10258.2 941.325  13
  -1   6  -3 10560.4 936.903  13
   1   6   4 25392.0 1517.28  13
   1   6   5 58487.5 2437.18  13
   1   6   6 6641.45 912.238  13
   1  -6   7 1006.57 190.791  12
   1  -6   7 1145.28 198.324   3
   1   6   7 925.108 175.282   7
   1   6   7 542.052 315.850  13
   1  -6   8 54301.5 1264.53   3
   1   6   8 52648.4 1297.16  10
   1  -6   8 54183.0 1279.25  12
   1   6   8 51821.2 1256.26   7
   1  -6   9 3838.07 364.098   3
   1  -6   9 3975.79 376.000  12
   1   6   9 3634.58 362.186  10
   1  -6  10 3814.16 372.600  12
   1   6  10 3199.72 329.059  10
   1  -6  10 3181.11 327.190   3
   1  -6  11 5122.96 393.712   3
   1   6  11 5041.39 380.365  10
   1  -6  11 5148.67 413.630  12
   1  -6  12 2180.79 272.527  12
   1  -6  13 1396.26 183.961  12
  -1  -7  13 168.833 88.4355  12
  -1  -7  12 160.928 118.061  12
  -1  -7  11 15711.6 623.790   3
  -1  -7  11 17788.3 716.975  12
  -1  -7  10 24557.5 872.955  12
  -1  -7  10 23144.2 797.152   3
  -1  -7   9 10538.9 554.937   3
  -1  -7   9 10830.9 593.368  12
  -1  -7   8 443.771 148.671   3
  -1  -7   8 430.727 164.498  12
  -1   7   8 557.670 163.389   7
  -1   7   7 14822.7 696.762   7
  -1  -7   7 14456.6 625.211   3
  -1   7   7 13622.8 1356.62  13
  -1  -7   7 15126.7 673.428  12
  -1   7   6 38266.8 2167.27  13
  -1   7   6 39889.9 1098.84   7
  -1   7   5-159.534 337.958  13
  -1   7   4 10316.7 1037.06  13
   1   7  -4 11479.3 985.333  13
   1   7  -3 121.480 225.499  13
  -1   7   3-144.769 209.722  13
  -1   7   2 5304.69 709.105  13
   1   7  -2 5857.41 673.278  13
  -1   7   1 130023. 3412.56  13
   1   7  -1 129709. 3192.93  13
   1   7   0 2156.43 437.024  13
  -1   7   0 2513.41 500.139  13
  -1   7  -1 16140.6 1206.72  13
   1   7   1 16444.0 1175.83  13
  -1   7  -2 21682.4 1403.81  13
   1   7   2 23672.9 1439.87  13
  -1   7  -3 27168.1 1614.24  13
   1   7   3 27702.3 1636.29  13
  -1   7  -4 1442.85 441.228  13
   1   7   4 1423.56 382.799  13
  -1   7  -5 287.698 283.090  13
   1   7   5-127.071 203.813  13
   1   7   6 317.469 262.632  13
   1   7   6 212.247 110.842   7
  -1   7  -6 700.822 320.127  13
   1  -7   6 813.944 180.718  12
   1   7   7-149.106 139.518  10
   1  -7   7-22.7588 116.185  12
   1  -7   7-44.5326 112.737   3
   1   7   7 23.3510 127.259   7
   1   7   8 1751.30 245.232   7
   1  -7   8 1933.03 260.418   3
   1  -7   8 1761.64 266.756  12
   1  -7   9 6724.45 469.694   3
   1  -7   9 6765.42 479.244  12
   1  -7  10 23773.6 870.643  12
   1  -7  10 24412.9 842.602   3
   1  -7  11 242.880 149.129  12
   1  -7  11 272.187 139.895   3
   1  -7  12 40.2846 112.741  12
   1  -7  13 1406.72 165.691  12
  -1  -8  13 1092.33 136.048  12
  -1  -8  12 175.544 106.827  12
  -1  -8  11 4537.66 350.302  12
  -1  -8  11 4420.07 308.834   3
  -1  -8  10 8210.98 454.380   3
  -1  -8  10 9388.34 535.039  12
  -1  -8   9 4433.84 359.917   3
  -1  -8   9 5012.39 405.090  12
  -1  -8   8 4089.51 345.378   3
  -1   8   8 3986.66 391.254   7
  -1  -8   8 3952.07 358.562  12
  -1  -8   7 13624.5 640.208  12
  -1  -8   7 12598.9 600.789   3
  -1   8   7 12630.3 660.925   7
  -1   8   6 7280.43 501.426   7
  -1  -8   6 6514.69 443.591  12
  -1   8   5 20331.9 801.085   7
  -1   8   5 20483.8 1644.43  13
   1   8  -4 2626.47 516.934  13
  -1   8   4 2496.86 579.832  13
   1   8  -3 1644.32 403.581  13
  -1   8   3 2360.44 538.686  13
  -1   8   2 8496.15 966.711  13
   1   8  -2 7892.43 858.123  13
  -1   8   1 1332.84 375.961  13
   1   8  -1 1158.77 317.397  13
   1   8   0 14252.9 1185.40  13
  -1   8   0 13877.8 1226.73  13
   1   8   1 6.37254 189.865  13
  -1   8  -1 501.081 262.377  13
  -1   8  -2 42.5977 214.432  13
   1   8   2 484.130 290.994  13
   1   8   3 187.541 232.478  13
  -1   8  -3 239.785 250.082  13
   1   8   4 213.931 395.825  13
  -1   8  -4 954.782 372.953  13
   1  -8   5-74.6061 90.1717  12
   1   8   5-132.958 136.382   7
   1   8   5-227.147 228.831  13
   1  -8   6 3498.99 323.287  12
   1   8   6 3549.24 349.943   7
   1  -8   7 460.434 169.757   3
   1  -8   7 258.483 155.910  12
   1   8   7 141.606 138.516   7
   1  -8   8 10313.3 566.448  12
   1   8   8 11019.8 602.056   7
   1  -8   8 11010.0 586.095   3
   1  -8   9 35.8622 124.637  12
   1  -8   9 28.9546 129.991   3
   1  -8  10 5979.62 431.426  12
   1  -8  10 6430.02 418.308   3
   1  -8  11 4573.27 353.327  12
   1  -8  11 4559.83 323.767   3
   1  -8  12 1332.98 175.593  12
  -1  -9  12 2490.76 210.751  12
  -1  -9  11 4416.25 313.681  12
  -1  -9  10 3636.82 315.257  12
  -1  -9  10 3133.91 263.061   3
  -1  -9   9 9799.96 497.200   3
  -1  -9   9 10231.7 542.001  12
  -1  -9   8 334.832 136.788   3
  -1   9   8 275.683 151.567   7
  -1  -9   8 296.765 141.652  12
  -1  -9   7 3350.15 330.476  12
  -1  -9   7 3187.71 310.557   3
  -1   9   7 3375.46 356.508   7
  -1   9   6 8.11767 132.120   7
  -1  -9   6-110.735 129.309  12
  -1  -9   5-216.234 143.022  12
  -1   9   5-2.17417 129.941   7
  -1   9   4 2893.03 317.810   7
   1   9  -3 518.164 259.446  13
  -1   9   3 110.455 137.728   7
  -1   9   2 10950.5 581.046   7
   1   9  -2 9723.54 1070.42  13
  -1   9   2 9916.75 1136.10  13
   1   9  -1 2867.25 590.133  13
  -1   9   1 2314.08 567.494  13
  -1   9   0 6462.24 907.961  13
   1   9   0 5441.99 414.719   7
   1   9   0 4682.23 727.982  13
  -1   9  -1 5356.39 811.684  13
   1   9   1 4313.19 369.355   7
   1   9   2 2568.15 613.856  13
  -1   9  -2 2555.61 626.766  13
   1   9   2 1902.84 266.552   7
   1   9   3 32487.1 1023.25   7
  -1   9  -3 32371.9 2040.02  13
   1   9   3 29783.1 1994.48  13
   1   9   4 9740.92 574.036   7
   1  -9   5 979.933 168.926  12
   1   9   5 834.328 207.255   7
   1  -9   6 3540.56 328.726  12
   1   9   6 4138.66 389.592   7
   1   9   7 125.867 144.963   7
   1  -9   7-25.5670 129.297   3
   1  -9   7 17.0072 116.726  12
   1  -9   8 5520.10 417.682   3
   1  -9   8 5189.48 400.333  12
   1   9   8 5601.96 423.417   7
   1  -9   9 1536.40 228.627   3
   1  -9   9 1430.09 209.983  12
   1  -9  10 6763.60 417.870  12
   1  -9  10 6994.58 401.825   3
   1  -9  11 10009.4 453.023  12
   1  -9  11 9766.18 413.495   3
   1  -9  12 2384.43 192.500  12
  -1 -10  11 3660.44 245.382  12
  -1 -10  10 2554.74 239.798  12
  -1 -10  10 2527.79 206.880   3
  -1 -10   9 206.925 92.5774   3
  -1 -10   9 457.391 138.834  12
  -1 -10   8 13032.2 556.463   3
  -1 -10   8 13520.2 597.293  12
  -1  10   7-101.221 144.805   7
  -1 -10   7 53.5290 99.0859  12
  -1 -10   7-52.0107 101.326   3
  -1 -10   6 3557.95 329.561   3
  -1  10   6 3859.42 379.511   7
  -1 -10   6 3582.08 319.412  12
  -1  10   5 4297.32 403.211   7
  -1 -10   5 4105.01 328.932  12
  -1  10   4-81.9384 142.230   7
  -1  10   3 12889.1 665.704   7
  -1  10   2 38680.5 1137.47   7
   1  10  -1 207.176 163.390   7
  -1  10   1 350.198 166.364   7
  -1  10   0 13707.5 654.829   7
   1  10   0 13299.2 661.390   7
   1  10   1 26896.9 942.713   7
  -1  10  -1 25616.7 879.733   7
   1  10   2 2466.44 314.172   7
  -1  10  -2 2325.56 285.800   7
   1  10   3 6363.32 474.826   7
  -1  10  -3 6518.24 438.522   7
   1  10   4 8530.51 555.190   7
   1  10   5 161.239 149.439   7
   1  10   6 35314.3 1068.85   7
   1 -10   6 35248.1 953.765  12
   1 -10   7 973.170 185.991   3
   1 -10   7 1282.84 212.475  12
   1  10   7 1322.56 235.040   7
   1 -10   8 501.622 143.799  12
   1 -10   8 768.301 176.953   3
   1 -10   9 2303.28 247.085   3
   1 -10   9 2619.96 258.048  12
   1 -10  10 523.544 115.002   3
   1 -10  10 557.142 130.308  12
   1 -10  11 2.39993 68.3694  12
  -1 -11  10 1545.11 157.290  12
  -1 -11   9 995.666 146.423  12
   1  11  -9 1096.79 134.785   7
  -1 -11   9 920.998 130.096   3
  -1 -11   8 1708.80 194.839   3
  -1 -11   8 1496.62 183.865  12
  -1  11   7 492.607 162.741   7
  -1 -11   7 540.496 139.048  12
  -1 -11   7 303.088 110.692   3
  -1 -11   6 2768.37 271.162   3
  -1  11   6 2517.75 296.215   7
  -1  11   5 910.701 209.183   7
  -1  11   4 2204.98 301.153   7
  -1  11   3 1150.78 228.144   7
   1  11  -3 1315.47 233.002   7
   1  11  -2 497.792 164.592   7
  -1  11   2 777.441 213.034   7
   1  11  -1 18772.3 793.547   7
  -1  11   1 18724.6 783.381   7
  -1  11   0 886.461 205.201   7
   1  11   0 675.991 191.894   7
  -1  11  -1 81.3452 138.029   7
   1  11   1 125.975 129.860   7
   1  11   2 219.516 137.879   7
  -1  11  -2-17.2841 111.904   7
  -1  11  -3 11432.5 572.649   7
   1  11   3 11483.5 630.718   7
   1  11   4 146.547 153.890   7
  -1  11  -4 120.824 114.076   7
   1  11   5 1325.45 224.216   7
  -1  11  -5 1236.31 186.780   7
   1 -11   6 99.2471 124.047   3
   1  11   6 324.422 154.669   7
   1  11   7 709.471 175.968   7
   1 -11   7 663.377 156.709   3
   1 -11   8 85.4570 98.4905   3
   1 -11   8 155.093 102.854  12
   1 -11   9 1378.22 164.877   3
   1 -11   9 1269.60 157.505  12
   1 -11  10 524.034 89.8857   3
   1  12  -8 2437.47 182.393   7
  -1 -12   8 2240.50 168.279   3
  -1 -12   7 3617.60 245.033   3
   1  12  -7 4250.47 283.185   7
  -1  12   6 1849.47 243.567   7
  -1 -12   6 1255.98 172.937   3
   1  12  -6 1339.98 186.871   7
  -1 -12   5 833.351 155.643   3
  -1  12   5 931.441 194.379   7
   1  12  -5 383.555 135.726   7
   1  12  -4 3340.11 313.155   7
  -1  12   4 3110.09 318.117   7
   1  12  -3 2554.13 290.267   7
  -1  12   3 2365.45 285.857   7
   1  12  -2 144.618 129.269   7
  -1  12   2 176.856 120.612   7
   1  12  -1 1016.69 234.016   7
  -1  12   1 729.083 181.779   7
  -1  12   0 3097.16 317.599   7
   1  12   0 3171.02 335.519   7
   1  12   1 236.947 171.671   7
  -1  12  -1 121.674 129.616   7
   1  12   2 19503.3 794.533   7
  -1  12  -2 19427.1 730.645   7
   1  12   3-138.000 158.968   7
  -1  12  -3 26.0474 97.2539   7
   1  12   4 757.844 178.409   7
  -1  12  -4 1061.60 176.723   7
   1  12   5 8499.80 486.793   7
   1  12   6 86.5123 122.250   7
   1 -12   6 17.4001 95.9529   3
   1 -12   7 234.107 98.8052   3
   1 -12   8 132.624 76.3638   3
  -1 -13   6 408.234 83.9599   3
   1  13  -6 525.065 111.090   7
  -1 -13   5 163.475 84.2537   3
   1  13  -5 238.446 94.5940   7
  -1  13   5 312.077 119.761   7
   1  13  -4 208.830 95.7444   7
  -1 -13   4 25.2714 71.7688   3
  -1  13   4 229.255 100.838   7
  -1  13   3 2493.70 259.095   7
   1  13  -3 2685.03 265.920   7
  -1  13   2 87.4560 121.362   7
   1  13  -2 13.4482 119.121   7
   1  13  -1 138.810 114.418   7
  -1  13   1-53.9185 110.399   7
  -1  13   0 1416.99 211.645   7
   1  13   0 1224.18 210.808   7
  -1  13  -1 2984.33 288.416   7
   1  13   1 2657.74 289.796   7
   1  13   2 6601.36 421.839   7
  -1  13  -2 5879.10 362.128   7
   1  13   3 4313.65 333.526   7
  -1  13  -3 4254.54 296.467   7
   1  13   4 25.3922 109.063   7
   1  13   5 603.728 137.266   7
   1 -13   5 574.973 125.907   3
   1 -13   6 1795.55 170.471   3
   1  13   6 1988.12 190.327   7
   1 -13   7 1031.28 112.200   3
   1  14  -4 1123.75 132.483   7
  -1  14   4 1323.69 146.853   7
  -1  14   3 5391.97 294.970   7
   1  14  -3 5165.38 290.739   7
  -1 -14   3 4441.87 225.274   3
   1  14  -2-26.7327 83.5416   7
  -1  14   2-34.7630 83.5538   7
   1  14  -1 323.663 104.784   7
  -1  14   1 322.639 101.680   7
   1  14   0 403.609 109.338   7
  -1  14   0 276.526 93.2386   7
  -1  14  -1 399.016 94.6031   7
   1  14   1 268.814 104.902   7
  -1  14  -2 5344.66 269.504   7
   1  14   2 5878.87 328.445   7
   1  14   3 998.012 144.263   7
   1 -14   3 1018.48 131.274   3
   1  14   4 11750.4 409.157   7
   1 -14   4 11016.3 368.005   3
  -2   0  15-31.1666 83.6465  11
  -2   0  14 309.686 111.832  11
  -2   0  13 184.846 143.314  11
  -2   0  12 17395.5 760.479  11
  -2   0  11-71.4455 130.641  11
  -2   0  10 61164.7 1383.33  11
  -2   0   9 15.8622 256.282   6
  -2   0   8 65928.7 2827.85   6
  -2   0   7-352.821 318.883   6
  -2   0   6 24102.9 1043.62   1
  -2   0   6 24122.9 1389.66   6
  -2   0   5-54.9589 245.529   6
  -2   0   5 93.7050 130.166   1
  -2   0   4 17321.0 608.179  13
  -2   0   4 18913.8 826.983   1
  -2   0   4 17729.5 943.142   6
  -2   0   3 42.8520 56.8703  13
  -2   0   3 122.024 137.839   1
  -2   0   3-16.7766 130.717   6
  -2   0   2 965530. 2163.85  13
  -2   0   2 963133. 5057.07   1
  -2   0   2 965951. 5107.36   6
  -2   0   1 79.3104 112.643   1
  -2   0   1 61.7840 84.2088   6
  -2   0   0 177586. 1836.85   1
  -2   0   0 175379. 1961.11   2
  -2   0  -1-13.5571 65.9168   1
  -2   0  -2 19190.8 476.636   1
   2   0   2 18729.1 513.947   6
  -2   0  -3 10.7218 20.9756   1
   2   0   3-56.4591 89.7863   6
   2   0   4 797757. 5416.71   6
   2   0   5 24.2779 158.722   6
  -2   0  -6 118436. 2879.09   2
   2   0   6 113255. 2738.10   6
   2   0   7-40.2290 172.389   6
  -2   0  -7-367.895 223.711   2
  -2   0  -8 525.660 255.228   2
   2   0   9-310.244 179.281  11
   2   0  10 16248.5 727.351  11
   2   0  11-219.552 188.906  11
   2   0  12 168.048 160.544  11
   2   0  13 261.269 163.289  11
   2   0  13-121.292 172.571  10
   2   0  14 51.2140 104.698  10
  -2  -1  15-124.715 97.6999  11
  -2   1  15 91.7906 91.4630  11
  -2  -1  14 484.752 125.932  11
  -2   1  14 605.855 144.515  11
  -2   1  13 7831.97 478.632  11
  -2  -1  13 8763.84 521.921  11
  -2   1  12 308.463 175.591  11
  -2  -1  12 0.70251 122.182  11
  -2  -1  11 46123.1 1231.28  11
  -2   1  11 45563.5 1210.62  11
  -2   1  10 5256.29 410.008  11
  -2  -1  10 5180.38 414.029  11
  -2  -1   9 230.589 265.112   6
  -2   1   9-657.256 352.635   6
  -2  -1   8 5393.63 842.600   6
  -2   1   8 6151.82 907.524   6
  -2  -1   7 78596.6 2792.80   6
  -2   1   7 75995.2 2812.91   6
  -2  -1   6 2048.60 441.699   6
  -2  -1   6 2238.22 336.362   1
  -2   1   6 1656.20 298.995  13
  -2   1   6 2102.74 461.826   6
  -2   1   5 66474.0 1685.26   1
  -2   1   5 68695.2 1571.38  13
  -2  -1   5 68733.8 1661.57   1
  -2   1   5 69363.3 2175.16   6
  -2  -1   5 70880.4 2125.04   6
  -2  -1   4 33906.6 1270.12   6
  -2   1   4 33870.9 964.401  13
  -2   1   4 31805.3 1110.93   1
  -2   1   4 34082.1 1351.48   6
  -2  -1   4 32250.5 1072.04   1
  -2   1   3 8851.23 431.343  13
  -2   1   3 8238.70 558.936   1
  -2  -1   3 8973.13 566.449   1
  -2   1   3 9525.35 657.178   6
  -2   1   2 5367.14 296.987  13
  -2   1   2 5066.48 398.596   1
  -2  -1   2 5469.19 399.640   1
  -2   1   2 5465.13 438.011   6
  -2   1   1 73013.9 1364.02   1
  -2   1   1 74008.6 1052.54   2
   2   1  -1 76893.2 668.202  13
   2   1   0 12223.8 423.517  13
  -2   1   0 11612.5 497.741   2
  -2   1   0 11156.7 491.181   1
  -2   1  -1 178340. 1716.79   1
   2   1   1 180490. 2035.88  13
   2   1   2 164.591 125.023  13
  -2  -1  -2 171.437 121.659   2
   2   1   3 36622.7 1268.59  13
  -2  -1  -3 36571.8 1204.97   2
  -2  -1  -4 108856. 2272.31   2
   2  -1   4 109683. 2033.48   6
   2   1   4 108077. 2439.46  13
   2   1   4 108646. 2085.86   6
   2   1   5 129767. 2982.52  13
  -2  -1  -5 130281. 2733.52   2
   2   1   5 129145. 2638.24   6
   2  -1   5 128648. 2570.33   6
  -2  -1  -6 5919.53 637.624   2
   2   1   6 4758.07 593.870   6
   2  -1   6 5714.03 650.782   6
   2  -1   7 8906.34 889.979   6
  -2  -1  -7 10257.3 892.754   2
  -2  -1  -8 1445.66 447.401   2
  -2   1  -9 26634.5 1778.08   2
   2  -1   9 25505.4 858.744  12
   2   1   9 26515.4 889.244  11
   2  -1   9 26405.3 871.914  11
   2  -1  10 25199.3 890.590  12
   2  -1  10 24944.5 890.802  11
   2   1  10 25896.0 926.801  11
   2   1  11 9770.05 585.064  11
   2  -1  11 9839.73 577.771  11
   2   1  12 1521.36 270.370  11
   2   1  12 1307.44 262.607  10
   2  -1  12 778.719 203.209  11
   2  -1  13 5538.10 402.485  11
   2   1  13 5242.20 431.580  10
   2   1  13 5548.98 419.190  11
   2  -1  13 4548.62 416.344  10
   2  -1  14-117.975 130.078  10
   2   1  14-72.5798 108.232  10
   2  -1  15 2260.03 179.417  10
  -2   2  15 2960.29 211.544  11
  -2  -2  15 3479.03 241.723  11
  -2   2  14 1255.38 190.159  11
  -2  -2  14 1220.65 181.505  11
  -2   2  13 1651.91 230.634  11
  -2  -2  13 2208.44 279.938  11
  -2   2  12 2181.75 269.753  11
  -2  -2  12 2177.00 282.242  11
  -2  -2  11 183.721 165.111  11
  -2   2  11-25.0583 114.171  11
  -2   2  10 14898.9 669.908  11
  -2  -2  10 13632.9 669.467  11
  -2  -2   9 38625.9 2401.84   6
  -2  -2   8 3872.47 726.005   6
  -2   2   7 272.505 181.508  13
  -2  -2   7 24.1022 216.761   6
  -2   2   6 23322.7 1124.56  13
  -2  -2   6 26079.3 1467.41   6
  -2  -2   6 25784.6 1104.50   1
  -2  -2   5 50891.2 1824.04   6
  -2   2   5 50374.2 1498.54  13
  -2  -2   5 50974.9 1480.06   1
  -2  -2   4 21586.3 910.519   1
  -2   2   4 20048.2 853.754  13
  -2   2   3 551.316 162.296  13
  -2   2   2 59029.9 1224.12  13
   2   2  -2 57854.5 813.257  13
  -2   2   1 587284. 2888.64   2
  -2   2   1 580024. 3962.50  13
   2   2   0 596716. 3406.31  13
  -2  -2  -1 243.150 132.559   2
   2   2   1 313.317 133.134  13
   2   2   2 79635.0 1672.91  13
  -2  -2  -2 82426.9 1732.90   2
  -2  -2  -3 1317.57 275.678   2
   2   2   3 1086.18 265.525  13
   2   2   4 3722.33 476.129  13
  -2  -2  -4 3967.47 460.375   2
  -2  -2  -5 12203.9 840.048   2
   2   2   5 12473.2 971.427  13
   2  -2   6 1088.33 339.907   6
  -2  -2  -6 1244.43 290.525   2
   2   2   6 1288.00 381.770  13
  -2  -2  -7 27195.0 1450.32   2
   2  -2   7 24281.5 1467.74   6
   2   2   7 23314.1 1568.33  13
   2  -2   8 757.576 331.222   6
   2  -2   9 421.079 133.041  11
   2   2   9 387.692 123.244  11
   2  -2   9 756.122 180.464   3
   2  -2   9 545.935 145.286  12
   2  -2  10 105.264 127.850  11
   2   2  10 234.120 159.891  11
   2  -2  10 108.520 126.730  12
   2   2  10-43.9210 221.425  10
   2   2  11 23435.8 886.888  11
   2  -2  11 23974.5 861.194  11
   2  -2  11 23984.9 887.812  12
   2   2  11 24383.6 1036.81  10
   2   2  12 184.854 170.011  11
   2  -2  12 177.114 127.054  12
   2  -2  12 195.048 138.498  11
   2   2  12 81.5460 163.765  10
   2  -2  13 126.167 128.401  11
   2   2  13-63.5842 138.470  10
   2  -2  14 1399.30 205.519  10
   2   2  14 1627.64 203.598  10
  -2  -3  15 424.133 94.8499  11
  -2  -3  14 5924.81 355.412  11
  -2   3  14 5448.74 327.580  11
  -2   3  13 3560.93 312.138  11
  -2  -3  13 3894.43 340.604  11
  -2  -3  12 11557.1 557.882  12
  -2  -3  12 11259.2 597.204  11
  -2   3  12 11238.6 572.455  11
  -2   3  11 651.699 137.542  11
  -2  -3  11 531.714 153.763  12
  -2  -3  11 663.817 174.500  11
  -2  -3  10-145.452 133.758  12
  -2   3  10 47.7455 123.388  11
  -2  -3  10 10.9915 137.460  11
  -2  -3   9 9042.30 495.936  12
  -2   3   9 9323.31 494.739   8
  -2  -3   9 9536.38 1237.60   6
  -2  -3   8 1523.53 464.451   6
  -2   3   7 26546.9 1399.33  13
  -2  -3   7 26562.9 1686.88   6
  -2   3   6 8155.98 732.709  13
  -2  -3   6 8221.41 658.304   1
  -2  -3   5 102.067 142.845   1
  -2   3   5 65.3743 152.281  13
  -2   3   4 42007.0 1375.68  13
   2   3  -3 165838. 1968.57  13
  -2   3   3 170301. 2592.50  13
   2   3  -2 299949. 2562.15  13
  -2   3   2 298189. 3303.17  13
   2   3  -1 97744.5 1535.77  13
  -2   3   1 95049.3 1855.12  13
   2   3   0 182448. 2227.35  13
   2   3   1 504.316 206.010  13
   2   3   2 180.443 143.497  13
   2   3   3 85641.9 2082.81  13
  -2  -3  -3 87483.1 1992.25   2
   2   3   4 96908.8 2450.84  13
  -2  -3  -4 95334.1 2213.60   2
   2   3   5 12794.8 994.238  13
  -2  -3  -5 13487.3 887.406   2
  -2  -3  -6 7504.35 696.676   2
   2   3   6 9017.69 939.465  13
   2  -3   7 3415.90 574.419   6
   2   3   7 3955.11 692.237  13
   2  -3   8 6031.08 821.937   6
   2   3   8 6228.80 892.037  13
   2   3   9 1526.36 256.182  11
   2  -3   9 2288.90 282.048   3
   2   3   9 1853.33 307.700  10
   2  -3   9 1732.03 232.890  11
   2  -3   9 2462.05 308.606  12
   2   3  10 2102.98 333.933  10
   2   3  10 2325.38 308.732  11
   2  -3  10 2155.05 270.945  11
   2  -3  10 2088.44 283.532   3
   2  -3  10 2263.54 306.839  12
   2  -3  11 675.540 157.953  11
   2  -3  11 1058.48 224.149  12
   2   3  11 1016.53 239.199  10
   2   3  11 1323.32 285.575  11
   2   3  12-132.148 159.728  10
   2  -3  12 69.4679 122.854  12
   2  -3  12-3.40236 117.662  11
   2   3  13 2507.45 273.239  10
   2  -3  13 2304.31 245.571  11
   2   3  14 15315.5 510.822  10
   2  -3  14 15926.8 615.443  10
  -2  -4  14 7369.93 368.000  11
  -2   4  13 447.571 141.344  11
  -2  -4  13 291.314 111.117  12
  -2  -4  13 164.114 112.793  11
  -2   4  12 4849.21 364.415  11
  -2  -4  12 4575.57 360.073  12
  -2  -4  12 4400.80 370.072  11
  -2  -4  11 5554.59 416.992  12
  -2   4  11 4823.84 376.783  11
  -2  -4  11 5571.31 431.986  11
  -2  -4  10 5135.14 403.678  12
  -2  -4  10 4905.30 373.282   3
  -2  -4  10 4802.98 404.371  11
  -2   4  10 4710.31 370.410   8
  -2  -4   9 542.866 149.490  12
  -2  -4   9 1004.92 174.178   3
  -2   4   9 562.368 151.293   8
  -2  -4   8 1606.07 512.974   6
  -2   4   7 250.304 206.275  13
  -2  -4   7 76.4997 171.219   6
  -2   4   6 43470.8 1800.62  13
  -2  -4   6 43986.7 1616.98   1
  -2   4   5 67572.7 2099.20  13
   2   4  -4 118614. 2059.47  13
  -2   4   4 112169. 2519.11  13
  -2   4   3 16814.8 939.131  13
   2   4  -3 16567.2 755.814  13
   2   4  -2 120538. 1982.90  13
  -2   4   2 118285. 2402.11  13
   2   4  -1 66454.6 1519.96  13
  -2   4   1 70253.2 1813.03  13
  -2   4   0 239907. 3471.82  13
   2   4   0 240788. 2972.57  13
   2   4   1 52106.4 1498.03  13
   2   4   2 47362.2 1553.76  13
   2   4   3 10151.7 788.782  13
   2   4   4 31282.8 1498.51  13
   2   4   5 31825.9 1637.50  13
   2   4   6 8591.87 944.342  13
   2  -4   7 1613.63 433.840   6
   2   4   7 835.324 360.836  13
   2  -4   8 3080.50 299.528   3
   2   4   8 3557.94 361.749  10
   2   4   8 3428.06 742.017  13
   2  -4   8 3622.11 333.786  12
   2   4   8 2901.92 308.854  11
   2  -4   9 10217.4 579.199  12
   2   4   9 10418.7 594.217  11
   2  -4   9 10074.3 556.620   3
   2   4   9 10377.4 636.207  10
   2  -4  10 28230.4 986.424  12
   2   4  10 27783.3 1039.73  10
   2  -4  10 27295.8 929.622   3
   2   4  10 27219.2 956.786  11
   2  -4  10 27993.6 875.644  11
   2  -4  11 5577.47 448.968  12
   2   4  11 5398.28 451.485  10
   2  -4  11 5372.17 383.154  11
   2  -4  12 171.649 118.205  12
   2  -4  12-28.0967 100.760  11
   2   4  12 216.743 158.577  10
   2   4  13 515.169 134.203  10
   2  -4  13 1043.63 168.082  11
   2  -4  14 4028.97 299.237  10
   2   4  14 3547.85 229.458  10
  -2  -5  14 56.4999 84.9554  11
  -2  -5  13 1467.16 197.340  12
  -2  -5  13 1806.45 207.475  11
  -2  -5  12 317.159 133.301  12
  -2  -5  12 344.344 129.316  11
  -2  -5  11 23.2334 124.025  12
  -2  -5  11 75.4915 123.845  11
  -2  -5  10 2072.54 279.131  12
  -2  -5  10 2064.45 267.726  11
  -2  -5  10 1780.29 240.732   3
  -2   5  10 1973.11 256.866   8
  -2  -5   9 596.002 154.975   3
  -2   5   9 573.967 150.692   8
  -2  -5   9 806.747 186.167  12
  -2  -5   8 16711.8 1563.79   6
  -2   5   8 16056.8 642.727   8
  -2   5   7 10103.4 1012.05  13
  -2   5   6 364.890 231.981  13
  -2   5   5 899.328 296.712  13
  -2   5   4 1661.49 365.793  13
   2   5  -4 1792.43 289.376  13
   2   5  -3 99558.2 2102.59  13
  -2   5   3 99721.5 2541.52  13
  -2   5   2 4098.34 530.033  13
   2   5  -2 4765.81 467.884  13
   2   5  -1 3448.49 401.401  13
  -2   5   1 3325.77 480.640  13
  -2   5   0 133895. 2862.82  13
   2   5   0 130692. 2528.89  13
   2   5   1 4174.37 489.301  13
  -2   5  -1 4538.09 577.511  13
   2   5   2 8783.96 752.831  13
   2   5   3 1239.52 344.729  13
   2   5   4 14389.9 1104.44  13
   2   5   5 4382.96 648.032  13
   2   5   6 3604.78 632.506  13
   2   5   7 2722.18 604.383  13
   2  -5   8 7712.15 499.037  12
   2  -5   8 7739.45 482.001   3
   2   5   8 6970.56 996.264  13
   2   5   8 8201.14 547.367  10
   2  -5   9 1409.02 238.842   3
   2  -5   9 1164.20 217.854  12
   2   5  10 1191.99 250.968  10
   2  -5  10 1068.74 236.995  12
   2  -5  10 812.250 196.255   3
   2  -5  11 13071.1 626.010   3
   2  -5  11 12799.5 649.243  12
   2   5  11 12555.8 638.033  10
   2   5  12 3772.82 332.456  10
   2  -5  12 3753.59 340.470  12
   2  -5  13 1583.18 200.498  12
   2   5  13 1916.96 207.855  10
   2  -5  14-131.483 94.8216  10
  -2  -6  13 2013.38 210.843  12
  -2  -6  13 1870.62 181.350  11
  -2  -6  12 1610.38 222.277  12
  -2  -6  12 1650.38 212.467  11
  -2  -6  11 7274.79 471.481  12
  -2  -6  11 7832.63 452.987  11
  -2  -6  10 19032.7 710.660   3
  -2   6  10 19426.6 715.672   8
  -2  -6  10 19453.1 785.803  12
  -2  -6  10 19512.9 745.007  11
  -2   6   9 69.2459 83.2883   8
  -2  -6   9 80.5277 123.766   3
  -2  -6   9 82.3041 128.200  12
  -2   6   8 327.439 117.652   8
  -2  -6   8 678.726 159.489   3
  -2   6   7-433.410 278.341  13
  -2   6   7 191.458 126.268   7
  -2   6   6 9865.06 1015.72  13
  -2   6   5 1014.62 364.539  13
  -2   6   4 1670.20 400.232  13
   2   6  -3 102.530 164.224  13
  -2   6   3 19.2910 176.227  13
  -2   6   2 129.577 190.003  13
   2   6  -2 3.79057 142.517  13
   2   6  -1 51118.3 1739.50  13
  -2   6   1 48762.4 1931.83  13
   2   6   0 45517.9 1673.72  13
  -2   6   0 44453.5 1853.42  13
   2   6   1 9375.77 806.966  13
  -2   6  -1 9454.66 868.256  13
  -2   6  -2 136804. 3375.76  13
   2   6   2 130076. 3131.43  13
   2   6   3 3367.16 562.005  13
   2   6   4 7848.85 858.380  13
   2   6   5 1410.86 412.290  13
   2   6   6 457.123 274.787  13
   2   6   7 42.0572 191.065  10
   2   6   7 365.520 299.734  13
   2  -6   7 221.146 111.920   3
   2  -6   7 13.9744 129.965  12
   2  -6   8 77605.0 1560.11  12
   2   6   8 73662.1 1580.65  10
   2  -6   8 73371.0 1485.10   3
   2  -6   9 4044.68 369.673   3
   2   6   9 4124.09 407.603  10
   2  -6   9 4616.13 410.592  12
   2  -6  10 32963.9 1044.53  12
   2  -6  10 31716.9 979.623   3
   2   6  10 31941.1 1018.71  10
   2  -6  11 4853.98 381.910   3
   2  -6  11 4442.58 389.392  12
   2   6  11 4086.10 357.241  10
   2  -6  12 775.156 177.453  12
   2   6  12 634.484 154.438  10
  -2  -7  13 3584.24 255.294  12
  -2  -7  12 160.030 109.902  12
  -2  -7  11 2150.08 255.395  12
  -2  -7  10 13642.5 652.172  12
  -2  -7  10 12931.4 563.785   3
  -2  -7   9-8.95443 123.061  12
  -2   7   9-156.011 121.995   8
  -2  -7   9 150.029 127.763   3
  -2   7   8 800.542 168.413   8
  -2  -7   8 443.612 138.166  12
  -2  -7   8 924.583 183.979   3
  -2   7   7 33013.7 893.941   8
  -2  -7   7 32167.8 900.635   3
  -2   7   7 30643.8 1010.07   7
  -2   7   7 30291.2 1992.74  13
  -2   7   6 16779.6 1430.69  13
  -2   7   6 16140.8 706.755   7
  -2   7   5 7849.62 961.376  13
  -2   7   4 9500.48 1006.66  13
  -2   7   3 5328.88 754.755  13
   2   7  -3 4492.30 571.263  13
   2   7  -2 758.011 285.397  13
  -2   7   2 520.468 295.036  13
  -2   7   1 95498.4 2976.90  13
   2   7  -1 94385.2 2655.14  13
   2   7   0 549.006 224.117  13
  -2   7   0 232.526 256.531  13
  -2   7  -1 1658.92 447.308  13
   2   7   1 2041.96 446.162  13
   2   7   2 11497.1 1026.44  13
  -2   7  -2 10552.9 1055.03  13
  -2   7  -3 6167.16 812.037  13
   2   7   3 5610.29 771.950  13
  -2   7  -4 969.361 420.305  13
   2   7   4 784.398 349.041  13
  -2   7  -5 1639.82 495.244  13
   2   7   5 1611.10 425.366  13
   2   7   6 708.512 325.026  13
   2   7   6 178.034 137.563  10
   2  -7   6 414.782 139.797  12
   2   7   6-66.5425 103.349   7
   2  -7   7 12333.1 614.491   3
   2   7   7 13738.0 684.320  10
   2   7   7 12802.6 613.766   7
   2  -7   7 13492.5 646.671  12
   2   7   8 2016.94 290.401  10
   2   7   8 2413.63 280.084   7
   2  -7   8 2220.50 288.426   3
   2  -7   8 2417.47 308.786  12
   2  -7   9 5839.53 432.535   3
   2  -7   9 6181.48 460.370  12
   2  -7  10 2594.85 307.575  12
   2   7  10 3040.08 312.230  10
   2  -7  10 2786.97 298.494   3
   2   7  11 652.308 171.847  10
   2  -7  11 592.730 160.524   3
   2  -7  11 700.131 179.854  12
   2  -7  12 1557.70 209.215  12
  -2  -8  13 148.550 80.1128  12
  -2  -8  12 577.195 133.743  12
  -2  -8  11 4339.47 348.475  12
  -2  -8  10 1083.07 199.666  12
  -2  -8  10 1098.41 172.273   3
  -2  -8   9 1147.71 219.651  12
  -2  -8   9 1402.94 194.591   3
  -2  -8   8 2143.23 282.570  12
  -2  -8   8 2031.35 235.223   3
  -2  -8   7 295.122 140.019   3
  -2   8   7 107.742 143.647   7
  -2  -8   6 1220.62 195.050   3
  -2   8   6 1600.30 253.430   7
  -2   8   5 3090.42 329.485   7
  -2   8   5 3931.97 716.134  13
  -2   8   4 655.010 281.601  13
  -2   8   3 4747.17 752.562  13
  -2   8   2 977.498 373.051  13
   2   8  -2 221.357 189.573  13
  -2   8   1 22673.9 1592.83  13
   2   8  -1 20776.0 1388.35  13
   2   8   0 113.630 176.041  13
  -2   8   0 2.43651 186.768  13
   2   8   1 1073.93 382.583  13
  -2   8  -1-173.006 272.423  13
   2   8   2 30262.9 1838.80  13
  -2   8  -2 31117.1 1935.88  13
   2   8   3 2509.52 562.066  13
  -2   8  -3 2047.81 540.981  13
   2   8   4 9339.36 549.086  10
   2   8   4 8699.97 520.323   7
  -2   8  -4 8760.30 1099.25  13
   2   8   4 9479.67 1092.81  13
   2  -8   5 2480.46 262.411  12
   2   8   5 2510.81 295.778   7
   2   8   6 2127.50 300.189  10
   2  -8   6 1897.36 246.030  12
   2   8   6 1993.41 268.784   7
   2   8   7 5291.91 442.060  10
   2   8   7 5541.05 420.651   7
   2  -8   7 4822.20 400.534  12
   2  -8   7 5645.10 432.774   3
   2   8   8 5917.28 423.167   7
   2  -8   8 5935.81 434.570   3
   2  -8   8 6139.40 461.347  12
   2   8   8 6017.31 451.383  10
   2  -8   9 3656.30 341.397   3
   2  -8   9 3545.51 348.229  12
   2   8   9 3875.71 355.440  10
   2  -8  10 9006.40 483.566   3
   2  -8  10 9074.17 516.525  12
   2   8  10 9004.22 480.609  10
   2  -8  11 4482.04 345.015  12
   2  -8  11 5014.43 330.348   3
   2  -8  12 1643.32 182.471  12
  -2  -9  12 23.5379 75.4004  12
  -2  -9  11 367.809 119.661  12
  -2  -9  10 866.079 183.870  12
  -2  -9   9 4547.39 323.638   3
  -2  -9   9 5038.63 387.542  12
  -2  -9   8 3344.48 293.893   3
  -2  -9   8 3004.57 316.368  12
  -2  -9   7 453.255 143.316  12
  -2   9   7 407.061 184.390   7
  -2  -9   7 350.032 126.722   3
  -2  -9   6 530.437 121.140  12
  -2  -9   6 590.807 164.984   3
  -2   9   6 548.207 178.648   7
  -2   9   5 7199.86 494.789   7
  -2   9   4 539.458 177.725   7
  -2   9   3 8455.08 518.180   7
  -2   9   3 7615.69 1006.49  13
  -2   9   2 3749.06 349.192   7
  -2   9   2 3057.96 663.943  13
   2   9  -1 2062.11 459.412  13
  -2   9   1 2198.46 538.183  13
  -2   9   1 2144.83 260.499   7
  -2   9   0 1650.65 486.850  13
   2   9   0 2584.31 545.019  13
  -2   9   0 2013.09 250.875   7
   2   9   1 12896.8 632.729   7
   2   9   1 11729.3 1167.38  13
  -2   9  -1 13137.2 1302.92  13
  -2   9  -1 13600.8 605.620   7
   2   9   2 2221.51 295.987  10
   2   9   2 1643.08 460.858  13
   2   9   2 2438.95 294.538   7
   2   9   3 95.8424 141.270  10
   2   9   3 94.7416 113.028   7
   2   9   4 4450.85 395.231   7
   2   9   4 4181.88 389.502  10
   2   9   5 374.451 178.529  10
   2   9   5 558.034 168.803   7
   2   9   6 5996.62 481.807  10
   2  -9   6 5713.74 411.724  12
   2   9   6 6096.62 449.997   7
   2  -9   7 4379.81 366.172  12
   2  -9   7 4113.56 370.452   3
   2   9   7 4208.44 383.518  10
   2   9   7 4094.39 360.965   7
   2  -9   8 3527.68 332.870   3
   2  -9   8 3281.29 324.488  12
   2   9   8 3902.13 351.390  10
   2  -9   9 10513.7 523.617   3
   2  -9   9 10494.6 540.816  12
   2  -9  10 4990.85 332.408   3
   2  -9  10 4540.21 342.488  12
   2  -9  11-111.884 96.0894  12
   2  -9  11 122.850 85.4593   3
  -2 -10  11 125.639 83.0758  12
  -2 -10  10 2997.49 253.728  12
  -2 -10   9 1190.98 187.101  12
  -2 -10   8 124.257 115.267  12
  -2 -10   7 4132.04 320.712   3
  -2 -10   7 4179.53 341.506  12
  -2  10   7 4273.71 381.663   7
  -2  10   6 7109.69 498.208   7
  -2 -10   6 6794.18 421.325   3
  -2 -10   6 7017.42 443.377  12
  -2 -10   5 13321.3 598.371  12
  -2  10   5 12935.1 659.853   7
  -2  10   4 152.610 127.054   7
  -2  10   3 41.8900 130.545   7
  -2  10   2 86536.1 1647.22   7
   2  10  -1 2736.02 320.113   7
  -2  10   1 2150.77 267.979   7
  -2  10   0 88355.5 1626.89   7
   2  10   0 93182.7 1755.11   7
  -2  10  -1 13780.9 627.782   7
   2  10   1 14350.6 697.911   7
   2  10   2 1510.02 252.384   7
  -2  10  -2 1860.01 254.184   7
   2  10   3 3686.81 374.673   7
   2  10   4 5159.34 431.547  10
   2  10   4 4964.62 425.208   7
   2  10   5 11914.4 618.511   7
   2  10   5 11237.0 606.497  10
   2  10   6 674.948 193.971  10
   2 -10   6 843.434 192.800   3
   2  10   6 647.829 163.754   7
   2  10   7 1238.31 208.724   7
   2 -10   7 1565.47 246.797   3
   2 -10   7 1296.71 209.039  12
   2 -10   8 16550.8 641.210  12
   2 -10   8 17825.8 667.042   3
   2 -10   9 4896.10 330.613   3
   2 -10   9 4386.64 317.435  12
   2 -10  10 2961.11 234.099  12
   2 -10  10 2940.14 226.020   3
  -2 -11  10 251.019 79.8627  12
  -2 -11   9 1680.48 181.086  12
  -2 -11   8 464.505 128.157  12
  -2 -11   7 5622.13 353.582  12
  -2  11   7 5314.40 395.527   7
  -2  11   6 6858.86 459.269   7
  -2 -11   6 6970.11 405.530  12
  -2  11   5 16708.3 721.371   7
  -2  11   4 20.9060 139.080   7
  -2  11   3 8011.78 506.146   7
   2  11  -2 860.894 217.960   7
  -2  11   2 948.806 205.117   7
  -2  11   1 275.164 159.144   7
   2  11  -1 56.3597 120.539   7
   2  11   0 632.740 193.363   7
  -2  11   0 535.635 165.133   7
  -2  11  -1 158.017 122.210   7
   2  11   1-22.8602 137.117   7
  -2  11  -2 5499.31 390.038   7
   2  11   2 5848.51 457.970   7
   2  11   3 697.121 198.612   7
   2  11   4 270.277 155.274   7
   2  11   5 8354.04 508.167   7
   2 -11   6-71.4350 120.163   3
   2  11   6-53.4332 103.433   7
   2 -11   7 11154.7 509.212   3
   2  11   7 10820.2 503.033   7
   2 -11   8 4337.75 297.057   3
   2 -11   8 4181.04 272.034  12
   2 -11   9 2279.72 179.326  12
   2 -11   9 2115.50 191.127   3
   2  12  -8 131.991 80.0314   7
   2  12  -7-49.4769 85.0881   7
   2  12  -6 2143.99 237.581   7
  -2  12   6 2527.07 253.766   7
  -2  12   5 2917.78 298.004   7
   2  12  -5 2794.60 277.643   7
  -2  12   4 351.402 147.716   7
   2  12  -4 400.242 132.451   7
  -2  12   3 118.222 114.354   7
   2  12  -3-25.7621 127.504   7
  -2  12   2 8709.90 499.809   7
   2  12  -2 8285.95 509.497   7
  -2  12   1 9509.30 516.691   7
   2  12  -1 9741.88 561.856   7
   2  12   0 22258.0 844.668   7
  -2  12   0 22090.5 766.996   7
   2  12   1 1599.34 253.242   7
  -2  12  -1 1661.30 218.810   7
  -2  12  -2 95.2821 101.174   7
   2  12   2-115.328 144.189   7
   2  12   3 916.402 188.311   7
   2  12   4 35.3546 118.270   7
   2 -12   5 2979.86 275.120   3
   2  12   5 3492.75 304.171   7
   2 -12   6 3098.42 265.398   3
   2  12   6 3167.34 261.586   7
   2 -12   7 168.291 87.6233   3
   2 -12   8 23176.7 548.058   3
   2  13  -7 86.3666 57.0315   7
   2  13  -6 339.892 96.1701   7
  -2  13   5 637.295 137.556   7
   2  13  -5 582.970 133.313   7
   2  13  -4 2360.47 239.024   7
  -2  13   4 2301.90 226.681   7
   2  13  -3 2126.71 242.941   7
  -2  13   3 1706.86 207.079   7
   2  13  -2 3368.42 307.146   7
  -2  13   2 2892.62 263.645   7
   2  13  -1 1230.06 209.357   7
  -2  13   1 1638.53 201.418   7
  -2  13   0 1650.95 198.845   7
   2  13   0 1828.32 249.351   7
  -2  13  -1 4694.79 304.706   7
   2  13   1 5014.47 368.850   7
   2  13   2 49.1943 112.037   7
   2  13   3 359.439 123.085   7
   2  13   4 9036.09 433.292   7
   2 -13   5 192.143 99.2960   3
   2  13   5 32.8990 80.0199   7
   2 -13   6 1406.89 148.988   3
   2  14  -4 50.8825 67.2918   7
  -2  14   3 94.7199 61.0661   7
   2  14  -3 26.9732 69.4903   7
  -2  14   2-69.5860 59.9867   7
   2  14  -2 15.1113 84.5931   7
  -2  14   1 353.166 85.9091   7
   2  14  -1 232.598 96.9874   7
  -2  14   0 54.4977 65.4083   7
   2  14   0-62.1820 89.4901   7
   2  14   1 8573.84 389.508   7
   2  14   2 5083.06 296.285   7
   2 -14   3-2.85794 72.2808   3
   2  14   3-8.51315 66.6635   7
   2  14   4 4576.34 239.088   7
   2 -14   4 4747.21 235.486   3
  -3   0  15-141.209 91.5420  11
  -3   0  14 3445.01 287.301  11
  -3   0  13 108.717 136.168  11
  -3   0  12 265.522 129.352  11
  -3   0  11 65.4099 120.727  11
  -3   0  10 166.495 136.730  11
  -3   0  10 157.092 116.731   5
  -3   0   9 171.366 259.126   6
  -3   0   8 49014.9 2493.76   6
  -3   0   7 123.056 189.477   6
  -3   0   7 105.255 155.108   1
  -3   0   6 41668.1 1885.35   6
  -3   0   6 40013.7 1515.76   1
  -3   0   5 115.758 170.673   1
  -3   0   5 175.069 236.938   6
  -3   0   4 11590.8 749.417   1
  -3   0   4 11186.3 799.295   6
  -3   0   3 123.469 149.308   6
  -3   0   3-73.4357 123.214   1
  -3   0   2 404378. 3905.05   1
  -3   0   2 404818. 3533.26   6
  -3   0   1 103.686 107.741   2
  -3   0   1-81.8815 132.856   1
  -3   0   1-1.70743 79.6646   6
  -3   0   0 84321.8 1710.64   2
  -3   0   0 84704.1 1578.10   1
  -3   0  -1-100.108 153.352   2
  -3   0  -1 38.0352 96.9014   1
  -3   0  -2 122489. 2351.23   2
  -3   0  -2 122165. 1628.21   1
   3   0   3 81.1659 66.6361   6
  -3   0  -3-132.393 195.151   2
  -3   0  -3 39.7734 53.2603   1
  -3   0  -4 45436.5 1684.03   2
   3   0   4 45231.9 1206.37   6
  -3   0  -5 126.511 214.932   2
  -3   0  -6 6828.83 777.252   2
  -3   0  -7-463.289 256.175   2
  -3   0  -8 290.344 229.290   2
   3   0   9 39.5160 117.776  12
   3   0   9-113.231 165.972  11
   3   0  10 21746.4 846.014  11
   3   0  11 171.604 180.831  11
   3   0  12-27.6982 221.095  10
   3   0  12 378.268 203.343  11
   3   0  13-200.511 168.271  10
   3   0  14 7001.99 383.999  10
  -3   1  15 1721.80 168.390  11
  -3  -1  15 1498.73 166.762  11
  -3   1  14 756.738 149.404  11
  -3  -1  14 742.049 160.889  11
  -3  -1  13 102.332 134.844  11
  -3   1  13 142.920 117.787  11
  -3  -1  12 293.989 152.209  11
  -3   1  12 560.715 169.357  11
  -3   1  11 82208.7 1622.30  11
  -3  -1  11 82960.5 1670.27  11
  -3   1  10 139.270 134.785  11
  -3   1  10 203.222 121.242   5
  -3  -1  10 79.8813 125.398   5
  -3  -1   9 7894.36 1075.39   6
  -3   1   8 14276.7 1387.25   6
  -3  -1   8 13851.3 1332.79   6
  -3   1   7 713.843 387.845   6
  -3  -1   7 433.586 283.257   6
  -3  -1   7-158.319 204.116   1
  -3   1   6 10047.2 784.518   1
  -3  -1   6 10566.6 956.386   6
  -3  -1   6 10215.6 788.471   1
  -3   1   6 10052.9 953.809   6
  -3  -1   5 1731.54 394.407   6
  -3  -1   5 1708.76 335.798   1
  -3   1   5 1585.39 324.905   1
  -3   1   5 1878.13 393.685   6
  -3  -1   4 755.921 223.789   1
  -3   1   4 650.031 259.223   6
  -3  -1   4 564.006 251.441   6
  -3   1   4 972.225 168.848  13
  -3   1   4 647.860 225.522   1
  -3  -1   3 9599.50 630.465   6
  -3   1   3 10090.1 672.603   1
  -3  -1   3 9477.14 646.206   1
  -3   1   3 8471.03 386.954  13
  -3   1   3 9910.46 702.416   6
  -3  -1   2 43422.9 1122.78   6
  -3   1   2 40570.4 1317.62   1
  -3   1   2 43325.7 873.142  13
  -3  -1   2 40477.5 1270.90   1
  -3  -1   1 2379.20 221.224   6
  -3   1   1 2322.83 297.444   1
  -3  -1   1 2168.95 303.867   1
  -3   1   1 2145.88 259.283   2
  -3   1   0 8777.38 523.502   1
  -3  -1   0 8757.21 582.759   2
  -3   1   0 8474.03 527.137   2
  -3  -1   0 8363.37 260.440   6
  -3   1  -1 51462.2 1173.44   1
   3   1   1 51753.7 1284.78  13
  -3  -1  -1 51903.6 1475.45   2
  -3   1  -1 54360.9 1431.03   2
   3   1   2 1816.39 303.309  13
  -3  -1  -2 1603.84 310.219   2
  -3   1  -2 1669.82 301.600   2
  -3   1  -2 1777.55 205.504   1
   3  -1   3 97185.5 1500.68   6
  -3  -1  -3 96435.2 1469.32   1
   3   1   3 98705.6 2273.77  13
  -3  -1  -3 96854.4 2277.00   2
  -3  -1  -4 135020. 2870.10   2
   3  -1   4 131224. 2146.66   6
   3  -1   5 22603.5 1031.66   6
  -3  -1  -5 23455.7 1299.78   2
  -3   1  -6 10355.9 981.346   2
  -3  -1  -6 10751.5 942.703   2
  -3  -1  -7 839.898 311.134   2
  -3   1  -7 341.259 233.130   2
  -3  -1  -8 1096.44 361.887   2
  -3   1  -8-586.062 297.401   2
   3  -1   9 4303.22 381.637  12
   3   1   9 4411.09 390.671  11
   3  -1   9 3857.19 340.760  11
   3   1  10 41848.8 1188.86  11
   3  -1  10 41494.3 1151.46  11
   3  -1  10 43597.1 1204.71  12
   3  -1  11 8470.29 535.061  11
   3   1  11 8766.43 643.109  10
   3   1  12 5409.94 472.664  10
   3   1  12 5684.40 452.177  11
   3  -1  12 5667.66 435.663  11
   3   1  13 141.579 127.566  10
   3  -1  13 65.7456 162.978  10
   3   1  14 3552.25 270.498  10
   3  -1  14 3383.43 277.880  10
  -3   2  15 1019.22 126.329  11
  -3  -2  15 1029.74 136.595  11
  -3   2  14 113.174 99.6946  11
  -3  -2  14 158.126 114.812  11
  -3   2  13 345.810 106.835  11
  -3  -2  13 445.815 154.710  11
  -3   2  12 3743.90 343.914  11
  -3  -2  12 3717.42 372.016  11
  -3  -2  11 543.953 174.995  11
  -3   2  11 714.732 177.078  11
  -3   2  10 35961.2 1021.04   8
  -3   2  10 34912.4 1026.29  11
  -3  -2   9 464.651 341.243   6
  -3   2   9 317.433 141.561   5
  -3  -2   9 459.813 152.556   5
  -3   2   9 201.526 105.482   8
  -3  -2   8 3949.86 741.525   6
  -3  -2   7 8424.64 951.229   6
  -3  -2   6 28635.3 1327.35   1
  -3  -2   6 26683.9 1526.06   6
  -3  -2   5 408.867 243.434   6
  -3  -2   5 518.865 208.631   1
  -3   2   5 496.902 171.379  13
  -3   2   4 94796.2 1768.79  13
  -3  -2   4 99959.3 2225.15   1
  -3  -2   3 188215. 2928.21   1
  -3   2   3 182877. 2331.28  13
  -3   2   3 190836. 3005.77   1
  -3   2   2 13809.2 786.159   1
  -3   2   2 13005.4 619.183  13
  -3   2   1 11301.3 539.286   2
   3   2  -1 11931.8 425.601  13
  -3   2   1 10650.5 654.774   1
  -3   2   0 169193. 2326.41   2
  -3   2   0 165514. 2397.72   1
   3   2   0 163029. 2001.03  13
   3   2   1 7257.06 498.294  13
  -3  -2  -1 7285.17 592.021   2
   3   2   2 28373.5 1103.08  13
  -3  -2  -2 28554.2 1206.38   2
   3   2   3 67075.3 1909.88  13
  -3  -2  -3 64115.1 1904.01   2
   3   2   4 4143.35 577.829  13
  -3  -2  -4 4404.31 560.978   2
   3  -2   5-96.1821 124.053   6
  -3  -2  -5 238.462 195.244   2
   3   2   5 262.833 222.626  13
  -3  -2  -6 10669.4 945.647   2
   3   2   6 10801.6 1049.47  13
  -3  -2  -7 18942.2 1333.31   2
  -3   2  -8 3659.63 678.865   2
   3  -2   9 13224.8 626.543   3
   3  -2   9 13245.1 671.240  12
   3   2   9 14249.0 689.467  11
   3  -2   9 13358.0 627.583  11
   3   2   9 13815.5 788.483  10
   3  -2  10 5575.42 454.642  12
   3   2  10 6387.86 492.533  11
   3  -2  10 6027.43 436.281  11
   3   2  10 6497.17 552.699  10
   3   2  11 72.0542 175.276  10
   3  -2  11-152.224 155.004  12
   3  -2  11 334.048 187.165  11
   3  -2  12 3155.11 313.646  11
   3   2  12 3371.27 366.740  10
   3   2  13 228.727 130.806  10
   3  -2  13-99.2379 170.426  10
   3   2  14 2035.36 201.582  10
   3  -2  14 2266.61 231.921  10
  -3  -3  15 1807.27 159.590  11
  -3   3  14 2992.65 229.425  11
  -3  -3  14 4112.59 304.151  11
  -3   3  13 12256.3 531.933  11
  -3  -3  13 13640.7 604.981  11
  -3   3  12 24910.2 820.770  11
  -3  -3  12 25779.1 897.062  11
  -3  -3  11 593.155 184.134  11
  -3   3  11 602.474 165.477  11
  -3  -3  11 485.783 154.889  12
  -3   3  10 13839.5 628.005  11
  -3  -3  10 14411.4 642.893  12
  -3   3  10 14836.7 664.152   8
  -3   3   9 8636.35 481.651   5
  -3  -3   9 8707.35 476.305   5
  -3   3   9 8941.28 503.374   8
  -3  -3   8 418.677 311.943   6
  -3  -3   7 6905.26 881.674   6
  -3  -3   6 22914.9 1221.87   1
  -3  -3   6 22502.7 1432.42   6
  -3  -3   5 25118.8 1230.43   1
  -3   3   5 24265.3 1114.56  13
  -3   3   4 5396.79 500.845  13
  -3  -3   4 4611.48 530.804   1
  -3   3   3 4017.78 419.023  13
  -3   3   2 9583.01 629.821  13
  -3   3   2 9358.46 378.816   2
   3   3  -2 9897.42 418.088  13
   3   3  -1 133621. 1769.17  13
  -3   3   1 136376. 2436.84  13
  -3   3   1 132993. 1852.47   2
   3   3   0 894.660 188.711  13
   3   3   1 23110.9 937.352  13
   3   3   2 2200.61 357.476  13
  -3  -3  -3 37289.8 1496.64   2
   3   3   3 36010.2 1443.19  13
   3   3   4 6291.19 690.961  13
  -3  -3  -4 5714.53 645.800   2
  -3  -3  -5 1011.69 309.911   2
   3   3   5 1264.13 376.040  13
  -3  -3  -6 854.728 376.398   2
   3   3   6 401.781 272.625  13
   3   3   7 13749.7 1307.15  13
   3   3   8 310.591 151.769  10
   3  -3   8 809.889 177.530   3
   3  -3   8 322.519 121.871  12
   3   3   8 689.196 205.699  11
   3  -3   9 19173.1 753.884   3
   3  -3   9 19700.8 824.115  12
   3   3   9 20417.3 829.041  11
   3  -3   9 19269.5 725.422  11
   3   3   9 19993.2 923.719  10
   3  -3  10 17836.1 742.175   3
   3   3  10 19071.5 898.082  10
   3   3  10 18725.0 812.584  11
   3  -3  10 18100.7 801.244  12
   3  -3  10 17596.0 714.896  11
   3   3  11 9239.53 603.662  10
   3  -3  11 8804.76 552.073  12
   3  -3  11 9468.61 518.249  11
   3   3  12 330.991 164.489  10
   3  -3  12 417.429 145.345  11
   3   3  13 1097.47 203.415  10
   3  -3  13 337.878 141.125  10
   3   3  14 873.647 134.754  10
   3  -3  14 1019.50 153.457  10
  -3  -4  14-69.8260 99.8586  11
  -3  -4  13 3515.54 307.462  11
  -3  -4  12 5540.88 385.774  12
  -3  -4  12 4976.69 394.864  11
  -3  -4  11 53642.4 1322.79  11
  -3  -4  11 54917.4 1261.40  12
  -3   4  10 24748.7 843.173   8
  -3  -4  10 23892.9 851.974  12
  -3   4   9 966.913 190.543   8
  -3  -4   8 5474.61 889.285   6
  -3  -4   7 5982.72 863.022   6
  -3   4   6 492.626 225.914  13
  -3  -4   6 923.129 300.641   1
  -3   4   5 89.5919 154.286  13
  -3  -4   5 19.0856 158.374   1
  -3   4   4 100150. 2394.10  13
  -3   4   3 15459.2 929.877  13
   3   4  -2 96077.3 1624.94  13
  -3   4   2 95772.6 2247.16  13
   3   4  -1 23548.4 886.132  13
  -3   4   1 23682.4 1113.78  13
   3   4   0 147176. 2395.56  13
   3   4   1 10987.5 719.585  13
   3   4   2 42810.9 1546.50  13
   3   4   3 13938.5 969.930  13
   3   4   4 10028.3 905.756  13
   3   4   5 5480.89 738.081  13
   3   4   6 26.9533 193.300  13
   3   4   7 1539.67 481.695  13
   3  -4   8 40487.2 1066.03   3
   3  -4   8 39582.5 1128.36  12
   3   4   8 40050.5 1241.23  10
   3   4   9 2068.88 306.605  10
   3  -4   9 1763.33 244.360   3
   3  -4   9 2176.39 296.459  12
   3   4  10 2826.86 353.190  10
   3  -4  10 3486.18 338.050   3
   3  -4  10 3353.20 363.024  12
   3  -4  11 22039.9 856.312  12
   3   4  11 23215.9 905.554  10
   3  -4  12 4589.13 369.046  12
   3   4  12 4869.12 387.998  10
   3   4  13 832.565 154.676  10
   3  -4  14 609.735 120.233  10
  -3  -5  14 5040.28 270.802  11
  -3  -5  13 128.153 96.8611  12
  -3  -5  13 205.545 116.464  11
  -3  -5  12 7004.86 443.385  11
  -3  -5  12 7092.29 430.453  12
  -3  -5  11 22770.8 832.454  11
  -3  -5  11 23037.1 819.327  12
  -3   5  10 167.523 121.135   8
  -3  -5  10 129.347 131.672  12
  -3   5   9-52.0360 99.0596   8
  -3  -5   8 1272.03 463.313   6
  -3   5   8 370.587 147.720   8
  -3  -5   7 2466.71 604.475   6
  -3   5   6 12020.7 1015.56  13
  -3  -5   6 12481.1 1008.74   1
  -3   5   5-32.6002 137.629  13
  -3   5   4 769.086 269.416  13
  -3   5   3 1884.63 395.670  13
  -3   5   2 47270.5 1780.54  13
   3   5  -2 46280.6 1347.75  13
  -3   5   1 28347.8 1388.85  13
   3   5  -1 30805.5 1169.36  13
  -3   5   0 205.850 217.450  13
   3   5   0 282.993 147.302  13
   3   5   1 42735.0 1557.57  13
   3   5   2 25576.2 1297.74  13
   3   5   3 1559.81 364.813  13
   3   5   4 26796.1 1559.73  13
   3   5   5 2751.78 564.649  13
   3   5   6 11394.5 1183.12  13
   3   5   7 2557.19 315.504  10
   3  -5   7 2408.26 272.288   3
   3  -5   7 2258.88 256.946  12
   3   5   7 2782.23 632.567  13
   3  -5   8 28486.4 912.069   3
   3  -5   8 28576.6 975.643  12
   3   5   8 28984.0 1038.18  10
   3  -5   9 12338.1 625.852   3
   3  -5   9 12972.9 682.828  12
   3   5   9 12712.8 696.471  10
   3  -5  10 43333.6 1129.36   3
   3  -5  10 42187.4 1210.12  12
   3   5  10 43692.0 1245.96  10
   3   5  11 2476.23 302.319  10
   3  -5  11 2955.28 333.344  12
   3  -5  12 3188.35 304.686  12
   3   5  12 3470.58 312.319  10
   3   5  13 1780.94 192.718  10
  -3  -6  13 578.611 131.888  12
  -3  -6  13 699.301 130.885  11
  -3  -6  12 3261.62 289.671  12
  -3  -6  12 3231.80 280.430  11
  -3  -6  11 26218.4 866.778  12
  -3  -6  11 25149.8 824.125  11
  -3   6  10-12.3429 114.621   8
  -3  -6  10-39.2504 140.026  12
  -3   6   9 2221.21 266.711   8
  -3   6   8 13296.2 605.639   8
  -3   6   7 1564.47 218.715   8
  -3   6   7 1548.11 258.201   7
  -3   6   6 2982.62 563.305  13
  -3   6   5 2003.99 437.536  13
  -3   6   4 4308.94 638.501  13
  -3   6   3 23192.7 1408.41  13
  -3   6   2 14167.9 1084.15  13
  -3   6   1 88945.2 2706.63  13
   3   6  -1 87431.8 2249.54  13
   3   6   0 137546. 2937.69  13
  -3   6   0 135502. 3359.26  13
  -3   6  -1 19540.7 1335.55  13
   3   6   1 19227.7 1159.92  13
  -3   6  -2 36541.0 1843.59  13
   3   6   2 35862.6 1678.72  13
   3   6   3 9206.38 903.598  13
   3   6   4 4376.74 682.672  13
   3   6   5 126.269 215.049  13
   3   6   6 50376.3 2551.56  13
   3  -6   6 52700.1 1186.83   3
   3   6   6 52487.3 1324.06  10
   3  -6   6 53121.6 1234.10  12
   3   6   7 2709.91 334.588  10
   3  -6   7 2654.41 295.614   3
   3  -6   7 2134.26 274.699  12
   3  -6   8 26566.9 894.603   3
   3   6   8 25729.0 968.283  10
   3  -6   8 27873.4 976.755  12
   3   6   9 902.947 224.310  10
   3  -6   9 963.511 211.886   3
   3  -6   9 648.486 187.842  12
   3  -6  10 10741.3 558.580   3
   3  -6  10 11165.5 620.443  12
   3   6  10 11457.6 621.604  10
   3  -6  11 5799.34 391.518   3
   3   6  11 5614.80 407.370  10
   3  -6  11 6063.74 430.786  12
   3  -6  12 186.167 107.505  12
   3   6  12 5.30848 109.183  10
   3  -6  13 1739.48 178.486  10
  -3  -7  13 14107.1 468.347  12
  -3  -7  12 33858.1 860.490  12
  -3  -7  12 33976.5 749.730  11
  -3  -7  11 49354.0 1146.84  12
  -3  -7  11 51218.2 1051.36  11
  -3   7  10 6036.68 391.018   8
  -3  -7  10 6672.34 465.978  12
  -3  -7  10 6598.72 413.960  11
  -3   7   9 7983.84 475.157   8
  -3  -7   9 8024.48 516.627  12
  -3   7   8 32.2889 125.737   8
  -3   7   7 23.1350 96.3570   8
  -3   7   7 75.8950 134.470   7
  -3   7   6 315.932 257.752  13
  -3   7   6 54.6243 96.6230   8
  -3   7   6-24.7454 119.131   7
  -3   7   5 29375.2 1856.63  13
  -3   7   4 3885.98 618.995  13
  -3   7   3 390.731 239.830  13
  -3   7   2 47171.3 2158.45  13
  -3   7   1 4094.19 632.103  13
   3   7  -1 3836.26 540.307  13
  -3   7   0 38246.7 1977.79  13
   3   7   0 38546.8 1736.48  13
  -3   7  -1-339.438 327.385  13
   3   7   1 18.4419 140.258  13
  -3   7  -2 3771.41 670.026  13
   3   7   2 4386.75 650.284  13
  -3   7  -3 25694.8 1745.11  13
   3   7   3 23632.0 1553.39  13
   3   7   4 792.848 364.163  13
  -3   7  -4 1004.22 406.792  13
   3   7   5 53.8761 161.103  10
   3   7   5 263.888 235.507  13
   3  -7   5-129.530 106.386  12
   3  -7   6 5981.04 422.202   3
   3  -7   6 5818.37 433.205  12
   3   7   6 5626.10 462.509  10
   3  -7   7 20857.8 794.468   3
   3  -7   7 20520.7 820.038  12
   3   7   7 21172.3 870.061  10
   3  -7   8 14800.5 671.645   3
   3   7   8 14408.1 722.248  10
   3  -7   8 14408.5 703.389  12
   3  -7   9 7942.94 491.250   3
   3  -7   9 8239.62 535.673  12
   3   7   9 8343.72 541.114  10
   3   7  10 2294.83 289.560  10
   3  -7  10 1961.96 247.586   3
   3  -7  10 1953.44 274.006  12
   3  -7  11 3352.38 284.575   3
   3   7  11 3361.90 293.177  10
   3  -7  11 3324.16 313.085  12
   3   7  12 284.642 114.573  10
  -3  -8  12 3059.52 244.770  12
  -3  -8  11 215.116 114.819  12
  -3   8  10 389.313 109.234   8
  -3  -8  10 388.376 144.864  12
  -3   8   9 3125.23 283.620   8
  -3  -8   9 2264.43 284.935  12
  -3   8   8 14050.8 603.704   8
  -3   8   7 492.412 160.121   8
  -3   8   7 561.285 200.541   7
  -3   8   6 879.183 165.907   8
  -3   8   6 844.385 194.952   7
  -3   8   5 883.863 180.198   8
  -3   8   5 757.611 201.567   7
  -3   8   4-257.911 208.182  13
  -3   8   4 79.8840 139.004   7
  -3   8   3 36850.3 2100.79  13
  -3   8   2 1937.17 525.625  13
  -3   8   1 49866.8 2425.14  13
   3   8   0 11660.6 1067.31  13
  -3   8   0 12063.6 1214.81  13
  -3   8  -1 15865.5 1390.96  13
   3   8   1 14951.9 1230.23  13
  -3   8  -2 15731.9 1418.97  13
   3   8   2 17362.7 1395.49  13
  -3   8  -3 473.525 273.093  13
   3   8   3 67.5148 158.349  13
   3   8   3 655.917 152.192   7
   3   8   4 4567.18 425.352  10
   3   8   4 4874.15 757.144  13
   3   8   4 4936.34 388.382   7
  -3   8  -4 4281.05 795.360  13
   3   8   5 154.301 178.225  10
   3   8   5-143.629 118.319   7
   3  -8   5 125.674 118.657  12
   3   8   6 128.412 183.937  10
   3  -8   6 183.166 143.759   3
   3  -8   6 164.222 119.190  12
   3   8   6 213.676 126.588   7
   3  -8   7 4435.86 378.412   3
   3  -8   7 4309.30 384.406  12
   3   8   7 4867.18 448.404  10
   3   8   8 2527.17 328.354  10
   3  -8   8 2364.85 302.495   3
   3  -8   8 2189.32 291.622  12
   3  -8   9 12587.8 587.456   3
   3   8   9 11597.0 595.963  10
   3  -8   9 11710.4 605.339  12
   3   8  10 313.088 139.121  10
   3  -8  10 150.842 124.136  12
   3  -8  10 266.949 128.927   3
   3  -8  11 5152.66 340.860  12
   3   8  11 5048.55 305.501  10
  -3  -9  12-68.1105 69.3309  12
  -3  -9  11 9517.78 435.402  12
  -3  -9  10 1761.80 230.302  12
  -3  -9   9 2361.98 271.617  12
  -3  -9   8 2723.71 294.419  12
  -3   9   7 12595.6 656.733   7
  -3   9   6 540.474 160.711   7
  -3   9   5 97.3422 140.542   7
  -3   9   4 7.38826 127.603   7
  -3   9   3 33711.5 1006.20   7
  -3   9   2 7061.95 1001.20  13
  -3   9   2 7379.02 462.448   7
  -3   9   1 67083.4 1349.43   7
  -3   9   1 67879.3 3058.68  13
  -3   9   0 1439.31 477.635  13
   3   9   1 8943.79 1003.04  13
   3   9   1 7726.91 493.576   7
  -3   9  -1 7075.41 990.199  13
   3   9   2 448.065 194.872  10
   3   9   2 138.528 181.565  13
   3   9   2 648.864 193.775   7
   3   9   3 514.898 177.988  10
   3   9   3 716.640 184.271   7
   3   9   4 10878.2 587.995   7
   3   9   4 10750.7 629.864  10
   3   9   5 1775.52 249.400   7
   3   9   5 1984.83 308.596  10
   3   9   6 2960.29 346.558  10
   3  -9   6 3035.05 322.149   3
   3  -9   6 3218.73 315.356  12
   3   9   6 3063.53 308.361   7
   3  -9   7 22296.8 810.058   3
   3   9   7 22868.8 772.489   7
   3  -9   7 22249.4 813.010  12
   3   9   7 22925.6 872.284  10
   3   9   8 909.473 195.158  10
   3  -9   8 1267.64 214.532  12
   3  -9   8 1102.18 202.444   3
   3  -9   9 3469.39 298.985   3
   3  -9   9 3367.85 304.707  12
   3   9   9 3384.42 307.048  10
   3   9  10 1235.84 170.560  10
   3  -9  10 1629.62 189.049   3
   3  -9  10 1444.18 190.403  12
  -3 -10  11 20.5040 67.2614  12
  -3 -10  10 2507.99 229.780  12
  -3 -10   9-116.326 107.043  12
  -3 -10   8 9.14585 110.018  12
  -3 -10   7 696.301 166.422  12
  -3 -10   6 17288.4 689.302  12
  -3  10   6 16432.3 725.996   7
  -3  10   5 1582.83 250.527   7
  -3  10   4 16302.4 719.356   7
  -3  10   3 41.5653 123.669   7
  -3  10   2 33315.7 991.810   7
  -3  10   1 10736.1 559.472   7
   3  10   0 16688.9 750.131   7
   3  10   1 7766.84 516.432   7
   3  10   2 409.278 164.740   7
   3  10   3 1433.45 240.981   7
   3  10   4 8950.42 572.656  10
   3  10   4 9084.34 540.773   7
   3  10   5 1762.67 266.855  10
   3  10   5 2200.69 277.401   7
   3  10   6 237.856 145.444  10
   3 -10   6 273.245 146.973   3
   3  10   6 143.253 104.064   7
   3  10   7 2081.85 271.133  10
   3 -10   7 1961.12 250.055   3
   3  10   7 2054.92 230.290   7
   3 -10   7 2227.13 251.461  12
   3 -10   8 7215.43 407.728   3
   3 -10   8 6813.90 397.580  12
   3  10   8 6452.75 399.317  10
   3  10   9 23.5994 91.4794  10
   3 -10   9-127.044 92.8081  12
   3 -10   9 45.1349 87.4237   3
   3 -10  10 1381.77 147.718   3
  -3 -11  10 60.3842 62.0806  12
  -3 -11   9 2520.54 208.530  12
  -3 -11   8-36.0039 78.9474  12
  -3 -11   7 707.213 149.004  12
  -3  11   6 6553.00 437.008   7
  -3 -11   6 6689.69 393.046  12
  -3  11   5 118.416 123.068   7
  -3  11   4 301.347 145.744   7
  -3  11   3 9659.13 536.063   7
   3  11  -2 2338.62 313.958   7
  -3  11   2 1929.53 252.639   7
  -3  11   1 12599.8 586.129   7
   3  11  -1 12557.8 650.644   7
   3  11   0 135.191 150.322   7
  -3  11   0 192.769 112.538   7
   3  11   1 6071.91 461.784   7
   3  11   2 83.8695 127.537   7
   3  11   3 321.475 166.499   7
   3  11   4 115.494 119.833   7
   3  11   5 951.370 181.220   7
   3 -11   6 30.1954 97.6029   3
   3  11   6 42.8072 92.1775   7
   3 -11   7 24444.4 713.976   3
   3 -11   8 49.3487 87.9211   3
   3 -11   9 2345.54 176.870   3
   3  12  -8 5905.81 299.241   7
   3  12  -7 756.405 150.164   7
   3  12  -6 2951.31 278.979   7
   3  12  -5 179.285 118.458   7
  -3  12   5 34.1047 97.1575   7
  -3  12   4 12236.7 544.431   7
   3  12  -4 12352.9 588.072   7
  -3  12   3 6421.45 404.864   7
   3  12  -3 5732.39 408.859   7
  -3  12   2 851.062 169.523   7
   3  12  -2 1065.82 213.271   7
   3  12  -1 45.6466 120.380   7
  -3  12   1 42.7155 103.406   7
   3  12   0 578.635 185.626   7
   3  12   1 2188.77 283.130   7
   3  12   2 12.1235 119.641   7
   3  12   3 2328.35 267.655   7
   3  12   4 100.520 116.809   7
   3 -12   5 458.665 130.919   3
   3  12   5 584.889 135.665   7
   3 -12   6 7902.05 380.212   3
   3  12   6 7035.19 344.248   7
   3 -12   7 408.913 94.9825   3
   3 -12   8 11303.4 352.088   3
   3  13  -7 705.745 102.021   7
   3  13  -6 1028.89 136.724   7
   3  13  -5 66.7098 78.7439   7
  -3  13   4 1104.56 150.880   7
   3  13  -4 1092.57 169.603   7
  -3  13   3 2546.88 224.511   7
   3  13  -3 2835.21 263.263   7
  -3  13   2 6150.34 335.475   7
   3  13  -2 6605.23 402.503   7
   3  13  -1 703.118 161.727   7
  -3  13   1 833.577 129.787   7
   3  13   0 2175.56 243.658   7
   3  13   1 1866.84 232.267   7
   3  13   2 1106.16 180.215   7
   3  13   3 296.741 115.778   7
   3 -13   4 614.022 124.621   3
   3  13   4 591.634 124.554   7
   3 -13   5 2063.00 182.304   3
   3  13   5 1663.55 158.191   7
   3 -13   6 1121.49 121.068   3
   3  14  -4 23.7140 53.0079   7
   3  14  -3 3592.24 232.606   7
   3  14  -2 5097.39 287.295   7
   3  14  -1 49.7679 80.3525   7
   3  14   0 280.264 97.3129   7
   3  14   1 276.281 91.6922   7
   3  14   2 403.517 96.1994   7
   3 -14   3-59.1157 59.1255   3
   3  14   3-110.208 65.4956   7
  -4   0  15-138.505 80.7549  11
  -4   0  14-31.5409 94.7433  11
  -4   0  13 48.2274 119.385  11
  -4   0  12 7593.98 494.074  11
  -4   0  11-221.928 162.865  11
  -4   0  10 3051.29 326.178   5
  -4   0   9-128.912 96.0160   8
  -4   0   9-115.685 115.830   5
  -4   0   8-90.4607 342.949   6
  -4   0   7 173.089 211.225   6
  -4   0   7 221.678 136.151   1
  -4   0   6 126435. 3046.28   1
  -4   0   6 119927. 3327.52   6
  -4   0   5 34.2187 198.131   6
  -4   0   5-37.9574 193.215   1
  -4   0   4 147.270 185.498   6
  -4   0   4 58.9522 218.021   1
  -4   0   3-82.1232 160.761   6
  -4   0   3 75.2231 211.874   1
  -4   0   2 237754. 3399.02   1
  -4   0   2 236589. 2867.87   6
  -4   0   1 39.2282 124.973   2
  -4   0   1 26.0226 143.430   1
  -4   0   0 140843. 2388.14   1
  -4   0   0 133342. 2524.80   2
  -4   0  -1 113.216 175.393   2
  -4   0  -1-124.505 122.876   1
  -4   0  -2 272823. 3994.21   2
  -4   0  -2 263739. 2956.13   1
  -4   0  -3-131.578 244.355   2
  -4   0  -4 10847.1 930.370   2
  -4   0  -5-569.162 283.111   2
  -4   0  -6-189.794 206.389   2
  -4   0  -7 274.938 272.103   2
  -4   0  -8-274.510 288.806   2
   4   0   8 590.050 201.716  11
   4   0   9 52.0528 164.955  11
   4   0  10 11835.4 646.013  11
   4   0  11-246.888 213.077  10
   4   0  12 16639.5 767.176  10
   4   0  13 79.6650 126.792  10
   4   0  14 1492.02 170.858  10
  -4   1  15 87.9107 58.3986  11
  -4  -1  15 178.553 73.3714  11
  -4   1  14 2476.94 227.310  11
  -4  -1  14 2662.04 252.826  11
  -4   1  13 2179.37 250.327  11
  -4  -1  13 1904.54 251.274  11
  -4   1  12 11666.3 595.364  11
  -4  -1  12 12370.2 639.686  11
  -4  -1  11 115.258 124.533  11
  -4   1  11 252.858 138.828  11
  -4   1  10 131.406 112.523   5
  -4  -1  10 276.599 123.342   5
  -4   1  10 274.282 139.984   8
  -4   1  10 345.199 135.832  11
  -4   1   9 4096.31 342.595   5
  -4  -1   9 4513.51 362.756   5
  -4  -1   9 4089.55 822.870   6
  -4   1   9 3732.13 316.140   8
  -4  -1   8-237.640 216.586   6
  -4  -1   7 4927.52 753.632   6
  -4  -1   7 4733.92 642.685   1
  -4   1   7 5711.50 816.264   6
  -4   1   6 296.308 283.443   6
  -4  -1   6-53.6420 163.511   1
  -4  -1   6-5.91829 259.900   6
  -4   1   6 184.486 158.657   1
  -4  -1   5 46373.7 1767.09   1
  -4  -1   5 43228.8 1791.92   6
  -4   1   5 43383.8 1718.53   1
  -4   1   5 45024.8 1882.07   6
  -4   1   4 8633.55 745.020   1
  -4  -1   4 9367.11 767.839   1
  -4   1   4 9850.84 837.995   6
  -4  -1   4 9069.09 742.330   6
  -4   1   3 34916.0 1434.04   1
  -4  -1   3 33936.4 1369.44   1
  -4  -1   3 35454.1 1264.33   6
  -4   1   2 19310.9 1007.11   1
  -4   1   2 20117.0 652.539  13
  -4  -1   2 17338.0 943.265   1
  -4  -1   2 18339.2 778.200   6
  -4   1   1 58645.5 1646.68   1
  -4  -1   1 55459.6 1601.21   1
  -4   1   1 55594.7 1484.45   2
  -4  -1   1 59950.7 1092.82   6
  -4   1   0 34398.6 1208.28   1
  -4  -1   0 32454.0 1170.81   1
  -4  -1   0 33838.6 1324.63   2
  -4   1   0 33776.2 1229.00   2
  -4   1  -1 4355.98 422.381   1
  -4  -1  -1 4056.23 412.874   1
  -4  -1  -1 4404.33 530.572   2
  -4   1  -1 4750.21 516.050   2
  -4  -1  -2 631.713 189.876   1
  -4  -1  -2 869.980 268.305   2
  -4   1  -2 1192.04 226.763   1
  -4   1  -2 895.573 298.713   2
  -4  -1  -3 17857.0 760.535   1
  -4  -1  -3 17307.3 1101.48   2
  -4   1  -3 16426.0 1064.59   2
  -4  -1  -4 165.173 204.504   2
  -4   1  -4-23.6097 172.776   2
  -4   1  -5 34402.7 1764.51   2
  -4  -1  -5 34834.0 1765.38   2
  -4  -1  -6 56.4308 176.329   2
  -4   1  -6 620.219 338.449   2
  -4  -1  -7 1390.44 419.689   2
  -4   1  -7 2.55605 143.935   2
  -4  -1  -8 2811.73 603.105   2
  -4   1  -8 2661.32 594.818   2
   4  -1   8 2326.44 300.296  12
   4   1   8 2524.68 318.096  11
   4  -1   8 3134.08 336.585  11
   4   1   9-56.4091 207.072  10
   4  -1   9 273.028 127.709  12
   4   1   9 461.470 218.701  11
   4  -1   9 98.2841 135.552  11
   4   1  10-258.124 242.076  10
   4  -1  10 1146.56 290.111  11
   4   1  11 867.105 238.507  10
   4  -1  11 685.279 207.832  10
   4   1  12 891.270 227.191  10
   4  -1  12 791.540 192.896  10
   4   1  13 14134.1 589.735  10
   4  -1  13 14353.7 604.844  10
   4   1  14 1494.02 159.154  10
   4  -1  14 1852.98 174.334  10
  -4  -2  15 1274.71 140.088  11
  -4   2  14 305.585 103.394  11
  -4  -2  14 408.101 132.603  11
  -4  -2  13 56.3982 117.465  11
  -4   2  13 54.0792 111.058  11
  -4   2  12 2452.62 272.701  11
  -4  -2  12 2520.66 306.622  11
  -4   2  11 606.552 163.538  11
  -4   2  10 3263.80 325.470   5
  -4  -2  10 3456.93 338.305   5
  -4   2  10 3027.44 308.810   8
  -4   2  10 3240.87 319.752  11
  -4  -2   9 2468.77 673.260   6
  -4   2   9 3007.47 296.947   5
  -4  -2   9 2945.20 288.262   5
  -4   2   9 2555.75 281.926   8
  -4  -2   8 560.893 315.255   6
  -4  -2   7 4251.99 698.162   6
  -4  -2   7 5551.89 685.584   1
  -4  -2   6 65541.0 2473.46   6
  -4  -2   6 70252.2 2312.96   1
  -4  -2   5 38386.4 1635.24   1
  -4  -2   5 38458.1 1698.36   6
  -4  -2   4 1979.26 397.556   1
  -4   2   4 2126.14 419.954   1
  -4  -2   4 1499.51 342.065   6
  -4  -2   3 50566.9 1537.70   6
  -4   2   3 51423.8 1242.29  13
  -4   2   3 52574.0 1797.77   1
  -4  -2   3 51491.6 1739.00   1
  -4  -2   2 136808. 2192.36   6
  -4   2   2 133031. 2089.12  13
  -4   2   2 131459. 2701.58   1
  -4  -2   2 137828. 2700.98   1
  -4   2   1 168854. 2892.66   1
  -4   2   1 171870. 2542.36   2
  -4   2   0 105823. 2191.33   1
  -4   2   0 103777. 2149.78   2
   4   2   0 106710. 1816.92  13
   4   2   1 34122.4 1201.90  13
  -4  -2  -1 35802.5 1476.53   2
  -4   2  -1 36448.6 1379.31   2
  -4   2  -2 4720.97 560.465   2
  -4  -2  -2 4478.48 563.211   2
   4   2   2 4753.63 531.447  13
  -4   2  -3 130569. 3017.65   2
   4   2   3 123934. 2851.98  13
  -4  -2  -3 126872. 3052.45   2
  -4   2  -4 19694.0 1276.58   2
   4   2   4 19890.4 1267.54  13
  -4  -2  -4 19676.5 1276.53   2
  -4   2  -5 28716.4 1651.30   2
  -4  -2  -5 29673.8 1639.27   2
  -4  -2  -6 261.126 282.039   2
  -4   2  -6-482.529 277.226   2
  -4  -2  -7 1549.52 450.137   2
  -4   2  -7 1422.32 451.913   2
   4  -2   8 3016.76 287.546   3
   4   2   8 3414.95 392.727  10
   4  -2   8 3527.55 368.968  12
   4   2   8 3874.39 390.055  11
   4  -2   8 3704.87 335.931  11
   4  -2   9 10719.3 626.304  12
   4  -2   9 10292.2 560.801  11
   4   2   9 11450.1 718.741  10
   4  -2  10 3907.18 370.840  11
   4   2  10 3813.16 423.586  10
   4   2  11-48.8482 177.105  10
   4   2  12 1199.14 238.829  10
   4  -2  12 302.045 163.282  10
   4   2  13 2779.83 271.146  10
   4  -2  13 2732.97 273.801  10
   4   2  14 38.3316 72.8241  10
   4  -2  14 14.3329 70.6859  10
  -4  -3  15 3681.97 208.221  11
  -4  -3  14 115.974 94.2462  11
  -4  -3  13 10250.4 516.804  11
  -4   3  12 4984.51 353.720  11
  -4  -3  12 4164.47 372.491  11
  -4  -3  11 2945.16 295.156  12
  -4   3  10 3863.82 343.349   5
  -4  -3  10 3743.40 339.798   5
  -4   3  10 3918.84 355.955   8
  -4   3   9 5540.11 393.609   5
  -4  -3   9 6216.36 411.875   5
  -4   3   9 5865.49 421.246   8
  -4  -3   8 11634.1 1284.40   6
  -4  -3   7 29510.0 1612.25   1
  -4  -3   7 28844.9 1835.83   6
  -4  -3   6 34114.5 1826.07   6
  -4  -3   6 33453.8 1647.67   1
  -4  -3   5 1670.85 375.886   1
  -4  -3   5 1813.46 418.836   6
  -4  -3   4 6790.54 687.537   1
  -4   3   4 6919.38 546.030  13
  -4  -3   3 7101.95 685.265   1
  -4   3   3 6362.88 539.016  13
  -4   3   2 2819.73 381.016  13
  -4   3   1 9135.95 701.800  13
   4   3  -1 10020.4 497.500  13
  -4   3   1 10183.3 617.317   2
   4   3   0 47938.7 1293.79  13
  -4   3   0 49725.3 1505.45   2
  -4   3  -1 7921.14 664.535   2
   4   3   1 8157.77 622.867  13
   4   3   2 20259.6 1068.67  13
   4   3   3 31384.1 1475.05  13
  -4  -3  -3 29247.5 1504.59   2
   4   3   4 22278.8 1382.22  13
  -4  -3  -4 20595.6 1322.49   2
   4   3   5 10622.4 1039.76  13
  -4  -3  -5 10259.0 989.653   2
  -4  -3  -6 983.114 341.430   2
  -4   3  -7 8484.18 1064.79   2
  -4  -3  -7 8055.06 949.234   2
   4  -3   7 8169.89 518.719  12
   4   3   7 8497.42 575.050  10
   4   3   8 1473.51 276.395  10
   4  -3   8 1640.48 224.999   3
   4  -3   8 1712.49 271.652  12
   4  -3   9 4322.96 365.566   3
   4  -3   9 4308.14 412.013  12
   4   3   9 4368.58 439.879  10
   4   3  10 124.095 170.365  10
   4  -3  10 10.7102 140.061  12
   4  -3  10 191.030 160.164  11
   4   3  11 474.987 193.597  10
   4   3  12 7055.42 462.609  10
   4  -3  12 6123.22 453.878  10
   4   3  13 3346.44 273.122  10
   4  -3  13 3374.02 286.606  10
  -4  -4  14 4901.24 290.889  11
  -4  -4  13 72.7208 107.575  11
  -4  -4  12-78.2264 127.058  11
  -4  -4  12 40.5072 111.331  12
  -4   4  11 262.500 152.122   8
  -4  -4  11 351.589 130.556  12
  -4   4  10 3513.85 344.937   8
  -4   4   9 4700.30 361.907   5
  -4  -4   9 4623.01 353.075   5
  -4   4   9 4628.75 378.875   8
  -4   4   8 17385.6 694.528   8
  -4  -4   8 15560.7 1500.16   6
  -4  -4   7 15553.4 1385.87   6
  -4  -4   6 11509.6 1109.01   6
  -4  -4   6 12050.5 1039.90   1
  -4  -4   5 9985.66 911.105   1
  -4   4   4 1824.96 327.163  13
  -4  -4   4 1949.47 425.089   1
  -4   4   3 15660.2 953.936  13
  -4   4   2 241.375 176.103  13
  -4   4   1 28188.3 1298.76  13
  -4   4   0 66109.9 1790.69   2
   4   4   0 62587.8 1636.04  13
   4   4   1 101327. 2303.46  13
   4   4   2 6849.77 655.704  13
   4   4   3-281.362 195.361  13
   4   4   4 25319.9 1523.64  13
   4   4   5-216.551 205.654  13
   4   4   6 18833.9 1545.05  13
   4  -4   7 439.070 148.333  12
   4  -4   7 298.462 121.501   3
   4  -4   8 56125.8 1259.61   3
   4  -4   8 56589.1 1421.28  12
   4   4   8 58155.3 1509.26  10
   4  -4   9 3264.29 328.860   3
   4  -4   9 3247.95 372.781  12
   4   4   9 3514.52 394.197  10
   4  -4  10 3393.81 312.138   3
   4  -4  10 3479.56 371.979  12
   4   4  10 4036.83 414.641  10
   4   4  11 496.732 208.630  10
   4   4  12 971.247 184.835  10
   4  -4  13 350.738 117.213  10
   4   4  13 338.281 115.998  10
  -4  -5  14 1875.90 162.099  11
  -4  -5  13 389.830 105.637  12
  -4  -5  13 466.387 116.965  11
  -4  -5  12 373.355 125.191  12
  -4  -5  12 531.921 152.477  11
  -4   5  11 5006.06 383.543   8
  -4  -5  11 5393.44 398.043  12
  -4   5  10 6708.70 458.186   8
  -4   5   9 3861.03 355.355   8
  -4   5   8 2138.45 256.386   8
  -4  -5   7-589.782 311.351   6
  -4   5   7 112.048 99.7837   8
  -4  -5   6-261.262 213.872   1
  -4  -5   5 1660.26 440.374   1
  -4   5   4 1500.88 321.852  13
  -4   5   3 10525.3 880.502  13
  -4   5   2 55368.9 2000.56  13
  -4   5   1 26544.9 1402.73  13
  -4   5   0 178.427 179.955  13
   4   5   0 221.578 184.965  13
   4   5   1 1450.89 324.248  13
   4   5   2 8816.54 799.989  13
   4   5   3 1306.57 337.732  13
   4   5   4 46056.4 2130.37  13
   4   5   5 1574.95 488.963  13
   4   5   6 1140.65 211.193  10
   4   5   6 1256.08 441.219  13
   4  -5   6 853.724 170.905   3
   4  -5   6 1073.12 207.231  12
   4   5   7 509.298 216.187  10
   4  -5   7 257.724 121.132   3
   4  -5   7 405.718 175.586  12
   4  -5   8 24807.1 848.677   3
   4   5   8 26868.3 1015.88  10
   4  -5   8 25332.5 956.050  12
   4  -5   9 5048.49 398.185   3
   4   5   9 3984.74 412.978  10
   4  -5   9 4900.36 439.799  12
   4  -5  10 5606.49 398.210   3
   4  -5  10 5096.82 441.678  12
   4   5  10 5804.10 468.068  10
   4   5  11 3002.71 322.701  10
   4   5  12 2793.19 272.400  10
   4   5  13 95.8259 80.2942  10
   4  -5  13 248.877 88.8523  10
  -4  -6  13 4498.63 268.429  12
  -4  -6  13 4906.31 282.504  11
  -4  -6  12 4038.89 305.233  12
  -4  -6  12 3954.01 303.998  11
  -4   6  11 1695.59 220.524   8
  -4  -6  11 2015.03 252.091  12
  -4  -6  11 1875.57 240.260  11
  -4   6  10 27510.8 877.993   8
  -4  -6  10 23474.5 854.374  12
  -4   6   9 956.484 200.870   8
  -4   6   8 143.952 123.348   8
  -4   6   7 8135.37 488.821   8
  -4   6   6 47358.6 1120.66   8
  -4   6   6 45860.0 1165.93   7
  -4  -6   6 48570.9 2287.13   1
  -4   6   5 26787.9 1592.27  13
  -4  -6   5 23686.6 1576.16   1
  -4   6   4 161.766 177.420  13
  -4   6   3-713.898 273.536  13
  -4   6   2 56246.2 2224.51  13
  -4   6   1 14654.9 1145.51  13
   4   6   0 36371.8 1527.68  13
  -4   6   0 37362.0 1872.97  13
   4   6   1 51360.5 1936.78  13
  -4   6  -1 51995.1 2296.33  13
   4   6   2 698.638 270.019  13
  -4   6  -2 175.922 205.529  13
   4   6   3 1674.67 418.945  13
   4   6   4 25083.4 1657.94  13
   4   6   5 2390.28 311.742  10
   4   6   5 1887.11 507.885  13
   4  -6   5 2508.08 289.939  12
   4  -6   6 24724.5 823.531   3
   4  -6   6 24556.6 890.103  12
   4   6   6 25463.0 964.697  10
   4   6   7 701.172 231.938  10
   4  -6   7 1082.83 200.074   3
   4  -6   7 994.751 217.141  12
   4  -6   8 22411.8 809.054   3
   4  -6   8 21833.0 889.069  12
   4   6   8 22981.3 931.446  10
   4  -6   9 8536.62 498.304   3
   4  -6   9 8443.44 561.629  12
   4   6   9 8296.48 554.577  10
   4  -6  10 4329.64 340.748   3
   4  -6  10 4231.28 385.894  12
   4   6  10 4212.73 379.759  10
   4   6  11-103.797 136.888  10
   4   6  12 5353.59 321.962  10
   4  -6  12 4703.47 300.207  10
  -4  -7  13 114.083 72.6202  12
  -4  -7  12 10205.3 454.784  12
  -4  -7  12 9850.27 404.602  11
  -4  -7  11 6700.55 421.107  12
  -4  -7  11 6825.57 390.778  11
  -4   7  10 4982.34 367.853   8
  -4  -7  10 5297.69 408.050  12
  -4   7   9 57398.7 1259.48   8
  -4   7   8-73.4811 142.882   8
  -4   7   7 1371.17 214.789   8
  -4   7   6 18807.6 720.755   8
  -4   7   6 18618.6 778.549   7
  -4   7   5 351.091 133.752   8
  -4   7   5 576.550 140.667   7
  -4   7   4 1204.91 390.386  13
  -4   7   3 3515.22 625.840  13
  -4   7   2 4693.46 713.243  13
  -4   7   1 67.4948 212.340  13
  -4   7   0 23197.8 1593.75  13
   4   7   1 5895.42 720.118  13
  -4   7  -1 6142.58 843.530  13
   4   7   2 3646.79 623.026  13
  -4   7  -2 3260.03 655.297  13
  -4   7  -3 11318.7 1257.30  13
   4   7   3 11133.5 1118.42  13
   4   7   4-213.767 157.877  10
  -4   7  -4 262.861 273.111  13
   4   7   4-101.449 154.716  13
   4  -7   5 16884.6 732.487  12
   4   7   5 18546.9 823.630  10
   4   7   6 182.174 164.146  10
   4  -7   6 515.741 166.722   3
   4  -7   6 94.3189 134.144  12
   4  -7   7 8300.92 503.930   3
   4  -7   7 8128.53 539.458  12
   4   7   7 8982.04 598.604  10
   4   7   8 95.1619 164.348  10
   4  -7   8 156.641 115.701   3
   4  -7   8-32.6970 127.075  12
   4   7   9 365.550 186.323  10
   4  -7   9 425.167 150.309   3
   4  -7   9 324.767 175.752  12
   4   7  10 109.186 138.677  10
   4  -7  10 258.132 118.328   3
   4  -7  10 39.2103 115.441  12
   4   7  11 988.656 176.776  10
   4   7  12 1169.82 141.500  10
  -4  -8  12 491.842 112.319  12
  -4  -8  11 527.158 142.237  12
  -4   8  10 6580.28 381.516   8
  -4  -8  10 6172.23 414.354  12
  -4   8   9 4501.66 338.807   8
  -4  -8   9 4493.91 380.433  12
  -4   8   8 12230.9 571.298   8
  -4   8   7 5306.68 389.580   8
  -4   8   6 1322.66 206.868   8
  -4   8   6 1233.01 236.457   7
  -4   8   5 12678.4 592.802   8
  -4   8   5 13157.2 636.307   7
  -4   8   4 8271.64 484.505   8
  -4   8   4 7232.31 462.584   7
  -4   8   4 6781.11 902.869  13
  -4   8   3 3579.26 319.142   8
  -4   8   3 3490.49 665.971  13
  -4   8   2 20228.8 739.445   8
  -4   8   2 21918.9 1650.94  13
  -4   8   1 42778.3 2310.75  13
  -4   8   1 40455.4 1045.25   8
  -4   8   0 522.318 314.372  13
  -4   8   0 411.917 154.978   8
  -4   8  -1 15588.3 1452.77  13
   4   8   1 13222.5 610.573   7
   4   8   1 14060.7 704.557  10
  -4   8  -2 25889.4 1868.18  13
   4   8   2 23733.8 1626.49  13
   4   8   2 24817.2 831.048   7
   4   8   2 26625.0 978.931  10
   4   8   3 29027.1 1894.97  13
   4   8   3 30883.5 1075.71  10
   4   8   4 17583.9 825.702  10
   4   8   5 1280.48 292.101  10
   4  -8   5 881.953 202.261  12
   4   8   6 2323.79 336.674  10
   4  -8   6 2426.03 288.441   3
   4  -8   6 2297.35 303.452  12
   4   8   7 160.642 165.499  10
   4  -8   7-67.7110 110.093   3
   4  -8   7 8.20574 133.933  12
   4   8   8 238.898 189.795  10
   4  -8   8-40.5902 114.024   3
   4  -8   8 166.719 147.728  12
   4  -8   9 12487.2 547.722   3
   4  -8   9 12100.0 589.176  12
   4   8   9 12108.8 602.184  10
   4  -8  10 1537.60 188.400   3
   4   8  10 2084.17 264.776  10
   4   8  11 3256.98 238.528  10
  -4  -9  12 161.931 62.3080  12
  -4  -9  11 548.427 125.428  12
  -4  -9  10 147.215 112.302  12
  -4   9   9 558.055 127.941   8
  -4  -9   9 494.079 165.159  12
  -4   9   8 8386.16 443.841   8
  -4  -9   8 8175.89 491.876  12
  -4   9   7 15260.7 620.201   8
  -4   9   6-12.5474 107.688   8
  -4   9   6-39.7876 125.706   7
  -4   9   5 1270.50 201.097   8
  -4   9   5 1181.35 219.724   7
  -4   9   4 2818.94 290.133   8
  -4   9   4 2425.09 293.977   7
  -4   9   3 1278.65 198.596   8
  -4   9   3 1150.18 207.737   7
  -4   9   2 12889.1 603.674   8
  -4   9   1 3406.88 326.045   8
  -4   9   0 2230.53 266.489   8
   4   9   0 2070.75 266.589   7
   4   9   1 3563.01 338.611   7
  -4   9  -1 3676.47 340.197   8
   4   9   2 936.616 251.475  10
   4   9   2 771.217 206.677   7
   4   9   3-41.2123 196.644  10
   4   9   3 66.0492 131.912   7
   4   9   4 1043.22 251.522  10
   4   9   4 1102.62 201.570   7
   4   9   5 7913.97 569.202  10
   4  -9   6 6412.33 438.412  12
   4  -9   6 5880.85 420.160   3
   4   9   6 6300.91 495.276  10
   4   9   7 485.230 185.818  10
   4  -9   7 320.733 146.486   3
   4  -9   7 182.462 120.204  12
   4   9   8 1687.29 256.888  10
   4  -9   8 1805.06 220.455   3
   4  -9   8 1618.19 227.082  12
   4   9   9 132.818 123.828  10
   4  -9   9 318.812 121.362   3
   4   9  10 185.021 91.6817  10
   4  -9  10 10.2732 65.6461   3
  -4 -10  11 6212.11 273.361  12
  -4 -10  10 571.519 120.741  12
  -4 -10   9 1278.86 173.359  12
  -4 -10   8 9770.49 488.353  12
  -4 -10   7 577.284 157.809  12
  -4  10   6 773.101 149.976   8
  -4  10   5 2513.60 258.195   8
  -4  10   5 2415.48 277.716   7
  -4  10   4 6713.93 414.324   8
  -4  10   4 6700.23 442.752   7
  -4  10   3 25197.2 808.067   8
  -4  10   3 25901.1 849.968   7
  -4  10   2 43926.8 1084.59   8
   4  10  -1 356.162 171.732   7
  -4  10   1-19.9412 104.496   8
  -4  10   0 44934.2 1100.98   8
   4  10   0 45160.5 1198.94   7
  -4  10  -1 2769.56 291.866   8
   4  10   1 3684.89 357.890   7
  -4  10  -2 1958.51 239.587   8
   4  10   2 1910.65 264.715   7
   4  10   3 4294.25 368.326   7
   4  10   4 31968.5 938.409   7
   4  10   4 30604.8 1056.19  10
   4 -10   5 14990.7 641.092   3
   4  10   5 14337.2 708.975  10
   4  10   6 763.872 207.028  10
   4 -10   6 618.184 164.667   3
   4  10   7 650.416 179.494  10
   4 -10   7 997.786 170.557   3
   4 -10   8 6432.33 355.229   3
   4  10   8 6807.22 399.992  10
   4 -10   9 102.567 69.9798   3
  -4 -11   9 489.002 107.900  12
  -4 -11   8 6957.56 354.829  12
  -4 -11   7 164.496 82.0751  12
  -4 -11   6 2915.62 254.927  12
  -4  11   5 318.382 117.361   7
  -4 -11   5 188.545 88.8464  12
  -4  11   4 332.305 127.942   7
  -4  11   3-97.2815 115.041   7
   4  11  -2 1350.27 228.745   7
   4  11  -1 17864.3 746.521   7
   4  11   0 28077.4 931.362   7
   4  11   1 579.746 169.834   7
   4  11   2 255.357 138.959   7
  -4  11  -3 4750.52 336.923   8
   4  11   3 5075.93 375.204   7
  -4  11  -4 1958.27 216.865   8
   4  11   4 1938.70 233.225   7
  -4  11  -5 1147.23 171.041   8
   4 -11   5 779.553 158.897   3
   4  11   5 940.273 162.831   7
   4 -11   6 3052.14 262.042   3
  -4  11  -6 2452.68 217.603   8
   4 -11   7 2675.02 224.711   3
  -4  11  -7 2148.55 179.271   8
   4 -11   8 1826.87 167.867   3
   4  12  -8 186.690 78.2351   7
   4  12  -7 807.198 149.276   7
   4  12  -6-61.2216 95.4001   7
   4  12  -5 984.622 181.667   7
  -4  12   4 8098.42 399.823   7
   4  12  -4 7604.54 447.490   7
  -4  12   3 9597.40 438.246   7
   4  12  -3 8967.35 494.878   7
   4  12  -2 3138.20 302.058   7
   4  12  -1 1351.18 223.403   7
   4  12   0 251.957 134.769   7
   4  12   1 259.134 127.073   7
   4  12   2 307.665 126.086   7
   4  12   3 627.498 146.790   7
   4 -12   4 1947.94 214.128   3
   4  12   4 1866.99 196.522   7
   4 -12   5 7989.07 379.648   3
   4 -12   6 83.0321 76.0951   3
   4 -12   7 416.136 86.2462   3
   4  13  -6 9618.42 357.506   7
   4  13  -5 96.7525 85.9820   7
   4  13  -4 290.029 104.726   7
   4  13  -3 798.999 151.857   7
   4  13  -2 1431.29 197.075   7
   4  13  -1 10515.6 474.399   7
   4  13   0 157.223 104.033   7
   4  13   1-76.7537 93.0791   7
   4  13   2 98.7196 79.3009   7
   4 -13   3 91.6450 77.2480   3
   4  13   3 5.70708 66.9059   7
   4 -13   4 1889.84 170.641   3
   4 -13   5-46.5492 61.0468   3
   4  14  -3 706.143 103.573   7
   4  14  -2 1267.91 137.872   7
   4  14  -1 8941.24 337.432   7
   4  14   0 2025.91 163.517   7
  -5   0  14 2546.84 227.334  11
  -5   0  13 42.6686 108.325  11
  -5   0  12 21.5256 111.078  11
  -5   0  11 7.97812 124.757   5
  -5   0  11-25.6210 136.563  11
  -5   0  10 6767.04 468.987   5
  -5   0   9 36.7740 103.871   8
  -5   0   9-82.0167 112.974   5
  -5   0   8 14782.0 1260.69   1
  -5   0   8 13428.8 1389.21   6
  -5   0   7 355.438 368.012   6
  -5   0   7 23.2267 145.223   1
  -5   0   6 15175.3 1177.60   1
  -5   0   6 14423.9 1192.95   6
  -5   0   5-154.538 255.212   6
  -5   0   5 158.093 211.132   1
  -5   0   4 40476.6 1741.72   1
  -5   0   4 39035.8 1603.08   6
  -5   0   3 19.3463 221.097   1
  -5   0   2 6909.83 685.444   1
  -5   0   1 13.8457 181.755   1
  -5   0   0 1768.05 378.558   2
  -5   0   0 2071.80 339.706   1
  -5   0  -1 111.178 196.121   2
  -5   0  -1 112.594 164.682   1
  -5   0  -2 101903. 2146.30   1
  -5   0  -2 104816. 2836.52   2
  -5   0  -3-62.7868 197.418   2
  -5   0  -4 216.243 201.460   2
  -5   0  -5-32.3465 144.989   2
  -5   0  -6 39248.5 2177.49   2
   5   0   7-157.395 158.154  10
  -5   0  -7 243.904 232.205   2
   5   0   8 1475.41 273.425  10
   5   0   9-103.404 183.725  10
   5   0  10-187.582 178.475  10
   5   0  11-108.146 203.557  10
   5   0  11 280.107 170.288   9
   5   0  12 17710.3 701.585  10
   5   0  13 195.277 124.135  10
  -5   1  14 4.23329 78.2938  11
  -5  -1  14 40.0830 79.1470  11
  -5   1  13 11508.9 516.310  11
  -5  -1  13 12240.5 558.634  11
  -5   1  12 1469.75 222.316  11
  -5  -1  12 1387.04 226.917  11
  -5   1  11 18246.1 748.835   5
  -5  -1  11 17336.4 732.106   5
  -5   1  11 16882.3 718.510  11
  -5   1  10 6879.76 470.911   5
  -5  -1  10 7355.21 481.195   5
  -5   1  10 6205.52 449.667   8
  -5   1   9 7641.15 473.950   5
  -5  -1   9 7501.81 474.152   5
  -5   1   9 6759.01 449.700   8
  -5  -1   8 4152.98 776.761   6
  -5   1   8 4353.61 339.201   5
  -5  -1   8 4833.81 370.912   5
  -5  -1   8 3430.58 678.671   1
  -5  -1   7 20917.4 1434.24   1
  -5   1   7 19465.1 1382.86   1
  -5  -1   7 18028.9 1469.67   6
  -5  -1   6 13372.1 1099.28   1
  -5   1   6 14042.6 1148.59   1
  -5  -1   6 13019.0 1122.59   6
  -5  -1   5 3109.13 525.646   6
  -5   1   5 3333.53 518.400   1
  -5  -1   5 3926.13 580.981   1
  -5   1   4 35895.4 1657.87   1
  -5  -1   4 34370.9 1490.26   6
  -5  -1   4 35443.9 1643.58   1
  -5   1   3 47259.0 1835.05   1
  -5  -1   3 48545.0 1826.15   1
  -5  -1   3 48184.1 1534.95   6
  -5  -1   2 3291.92 478.754   1
  -5   1   2 3290.38 499.780   1
  -5   1   1 53229.7 1784.36   1
  -5   1   1 51806.9 1669.85   2
  -5  -1   1 55404.6 1814.64   1
  -5   1   0 74603.1 2016.34   1
  -5  -1   0 71154.4 2203.50   2
  -5  -1   0 75382.9 2046.01   1
  -5   1   0 75547.5 2151.41   2
  -5  -1  -1 12599.1 967.620   2
  -5   1  -1 14229.4 840.190   1
  -5  -1  -1 13531.7 828.625   1
  -5   1  -1 13366.6 955.269   2
  -5  -1  -2 2701.00 490.738   2
  -5   1  -2 3103.50 511.765   2
  -5   1  -2 3408.89 407.746   1
  -5  -1  -2 3046.11 403.216   1
  -5  -1  -3 7.60615 210.262   2
  -5   1  -3 212.407 211.890   2
  -5  -1  -4 902.286 396.956   2
  -5   1  -4 693.936 298.052   2
  -5   1  -5 3867.96 669.878   2
  -5  -1  -5 4863.53 748.950   2
  -5  -1  -6 3209.98 635.846   2
  -5   1  -6 3347.56 645.363   2
  -5  -1  -7 5127.75 877.232   2
  -5   1  -7 6845.34 957.936   2
   5   1   7 5423.32 476.491  10
   5   1   8 1716.72 288.062  10
   5   1   9 194.484 182.361  10
   5   1  10 7879.20 565.242  10
   5  -1  10 7961.14 577.064  10
   5   1  11 686.081 206.274  10
   5  -1  11 812.198 219.699  10
   5   1  12 1634.56 241.789  10
   5  -1  12 1208.86 209.804  10
   5  -1  12 1807.47 243.845   9
   5   1  13 1580.93 183.782  10
   5  -1  13 2205.81 211.971  10
  -5  -2  14 1337.46 166.803  11
  -5   2  13-26.0493 101.230  11
  -5  -2  13 10.7414 98.6370  11
  -5  -2  12 9754.37 553.108  11
  -5   2  12 9354.66 483.943  11
  -5   2  11 1213.22 207.274   5
  -5  -2  11 1577.42 240.912   5
  -5   2  11 1181.53 202.934  11
  -5   2  10 46.4856 110.584   5
  -5  -2  10 135.624 133.199   5
  -5   2  10-62.5822 119.341   8
  -5   2  10-38.9394 116.487  11
  -5   2   9 8704.44 501.369   5
  -5  -2   9 8182.18 488.929   5
  -5   2   9 8188.47 492.536   8
  -5  -2   8 801.548 359.058   6
  -5   2   8 1232.95 212.212   8
  -5   2   8 749.074 160.115   5
  -5  -2   8 782.148 159.765   5
  -5  -2   7 14784.2 1220.79   1
  -5  -2   7 15368.8 1357.77   6
  -5  -2   6 27262.7 1598.76   1
  -5  -2   6 26045.4 1618.24   6
  -5  -2   5 1194.44 373.649   6
  -5  -2   5 1047.55 337.928   1
  -5   2   5 895.752 324.439   1
  -5  -2   4 3477.17 475.512   6
  -5  -2   4 3623.91 558.890   1
  -5   2   4 4827.14 645.934   1
  -5   2   3 28853.8 1456.66   1
  -5  -2   3 28156.5 1426.11   1
  -5  -2   3 28554.8 1205.61   6
  -5   2   2 17712.1 1104.49   1
  -5  -2   2 18003.6 1104.54   1
  -5   2   1 19674.1 1114.73   1
  -5  -2   1 19040.0 1100.38   1
  -5   2   1 18727.8 986.486   2
  -5  -2   0 68449.8 1994.37   1
  -5   2   0 68249.8 1991.18   1
  -5   2   0 68189.2 2000.55   2
  -5  -2  -1 15418.4 925.729   1
  -5   2  -1 15435.6 1024.81   2
  -5  -2  -2 17363.4 966.400   1
  -5  -2  -2 16608.9 1207.78   2
  -5   2  -2 17392.3 1149.91   2
  -5  -2  -3-60.8973 137.695   2
  -5   2  -3-27.8509 195.035   2
  -5  -2  -4 49385.1 2227.08   2
  -5   2  -4 49106.3 2190.01   2
  -5  -2  -5 6888.11 902.403   2
  -5   2  -5 6681.91 856.895   2
  -5  -2  -6 2844.44 592.331   2
  -5   2  -6 3118.26 671.283   2
   5  -2   7 14335.3 715.275  12
   5   2   7 15635.3 774.382  10
   5   2   8-55.7772 154.832  10
   5   2   9 897.866 251.190  10
   5   2  10 7494.57 542.201  10
   5  -2  10 6471.20 514.601  10
   5  -2  11 2473.02 302.557  10
   5   2  11 2814.39 333.141  10
   5   2  12 1835.71 242.436  10
   5  -2  12 1682.28 232.314  10
   5   2  13 7597.69 361.944  10
   5  -2  13 7693.74 355.614  10
  -5  -3  14 1810.74 186.650  11
  -5  -3  13 5684.17 372.947  11
  -5  -3  12 6366.84 445.600  11
  -5   3  11 65276.7 1372.19   8
  -5   3  10 338.246 141.882   5
  -5  -3  10 424.317 150.524   5
  -5   3  10 273.118 149.174   8
  -5   3   9 435.380 151.428   5
  -5  -3   9 424.518 139.563   5
  -5   3   9 249.596 132.871   8
  -5  -3   8 5554.23 923.431   6
  -5   3   8 6148.26 402.907   5
  -5  -3   8 6767.35 429.751   5
  -5   3   8 6358.50 428.343   8
  -5  -3   7 9065.77 989.934   1
  -5  -3   7 8820.16 1084.32   6
  -5  -3   6 6006.78 775.952   1
  -5  -3   6 6158.80 822.830   6
  -5  -3   5-357.169 218.567   6
  -5  -3   5 252.769 311.107   1
  -5  -3   4 1910.74 394.462   1
  -5  -3   4 1638.68 367.450   6
  -5  -3   3 51871.8 1692.68   6
  -5  -3   3 50751.3 1995.78   1
  -5   3   2 55978.1 1679.11  13
  -5  -3   2 57687.6 2038.53   1
  -5   3   1 46544.9 1613.38  13
  -5  -3   1 46296.7 1775.46   1
  -5   3   1 47729.3 1542.13   2
  -5   3   0 19438.2 1066.55   2
  -5   3  -1 365.207 204.729   2
   5   3   1 92.1837 185.164  13
   5   3   2 7436.59 716.742  13
  -5   3  -2 6492.48 723.098   2
  -5  -3  -3 716.904 260.172   2
  -5   3  -3 241.542 206.033   2
   5   3   3 896.256 300.466  13
  -5  -3  -3 583.997 182.231   1
  -5  -3  -4 1705.49 443.788   2
  -5   3  -4 1836.46 468.114   2
  -5  -3  -5 3112.72 587.925   2
  -5   3  -5 3542.41 624.535   2
  -5  -3  -6 5139.42 792.374   2
  -5   3  -6 6604.47 922.603   2
   5  -3   6 5838.68 447.695  12
   5  -3   7 5676.80 381.433   3
   5  -3   7 5107.31 440.764  12
   5   3   7 6310.53 500.487  10
   5  -3   8 3817.86 318.184   3
   5  -3   8 3199.81 370.255  12
   5   3   8 4381.22 434.946  10
   5   3   9 2291.02 324.764  10
   5   3  10-90.2281 163.911  10
   5   3  11 2334.89 302.602  10
   5  -3  11 2242.18 274.133  10
   5   3  12 3076.96 287.131  10
   5  -3  12 2869.89 272.355  10
   5   3  13 4732.46 280.391  10
   5  -3  13 4452.93 247.899  10
  -5  -4  14 969.464 140.303  11
  -5  -4  13 4729.72 330.324  11
  -5  -4  12-77.5649 96.2163  12
  -5  -4  12 60.6952 120.087  11
  -5   4  11 1373.69 228.448   8
  -5  -4  11 1608.77 223.551  12
  -5   4  10 1673.08 236.413   5
  -5  -4  10 1881.36 245.791   5
  -5   4  10 1528.38 239.257   8
  -5   4   9 160.078 99.5776   5
  -5  -4   9 119.120 91.4225   5
  -5   4   9 202.200 151.427   8
  -5   4   8 1522.21 210.026   5
  -5  -4   8 1547.83 207.981   5
  -5   4   8 1499.37 224.170   8
  -5   4   7 17750.7 703.331   8
  -5  -4   7 18917.6 1454.09   1
  -5  -4   7 16668.1 1491.19   6
  -5  -4   6 8496.56 949.842   1
  -5  -4   6 8678.90 987.133   6
  -5  -4   5 12702.1 1085.74   6
  -5  -4   5 11969.6 1092.07   1
  -5  -4   4 5676.71 671.935   6
  -5  -4   4 6079.02 758.752   1
  -5  -4   3 2842.34 527.353   1
  -5   4   2 6845.37 675.993  13
  -5   4   1 401.033 207.998  13
  -5   4   0 21480.8 1135.49   2
   5   4   1 8575.63 729.253  13
  -5   4  -1 7438.70 737.109   2
  -5   4  -2 110745. 3017.47   2
   5   4   2 112432. 2870.05  13
  -5   4  -3 17721.6 1297.55   2
   5   4   3 17783.2 1253.12  13
  -5   4  -4 19493.5 1443.21   2
   5   4   4 20195.5 1443.62  13
  -5   4  -5 17752.3 1469.40   2
   5  -4   6 121971. 2023.78  12
   5   4   6 123997. 2081.87  10
   5  -4   7 23149.3 776.433   3
   5  -4   7 23803.8 926.431  12
   5   4   7 24612.9 966.228  10
   5  -4   8 15617.7 646.388   3
   5  -4   8 15699.8 767.405  12
   5   4   8 17177.8 811.344  10
   5  -4   9 9332.67 506.308   3
   5   4   9 10565.3 637.280  10
   5   4  10 2796.23 346.959  10
   5   4  11-47.2012 155.020  10
   5  -4  11-120.749 153.303  10
   5  -4  12 1575.85 196.513  10
   5   4  12 1957.52 237.916  10
   5   4  13-93.1116 85.1127  10
  -5  -5  13-73.4428 83.9599  11
  -5  -5  12 4403.26 308.569  12
  -5  -5  12 4387.02 337.970  11
  -5   5  11 4748.48 364.886   8
  -5  -5  11 4320.04 349.203  12
  -5   5  10 598.722 169.699   8
  -5   5   9 3176.28 332.218   8
  -5   5   8 6171.62 441.678   8
  -5   5   7 12411.4 604.403   8
  -5  -5   7 13064.8 1246.26   1
  -5  -5   6 32320.3 1978.26   6
  -5   5   6 36439.7 991.231   8
  -5  -5   6 31931.0 1910.06   1
  -5  -5   5 16047.4 1281.55   6
  -5  -5   5 15383.3 1301.07   1
  -5  -5   4 8931.65 970.070   1
  -5   5   3 5293.81 662.406  13
  -5   5   2 3928.73 567.983  13
  -5   5   1 4696.93 647.567  13
  -5   5   0 10397.0 954.822  13
  -5   5  -1 253.555 188.366   2
  -5   5  -2 7724.54 826.742   2
   5   5   2 7189.00 792.520  13
   5   5   3 161.878 183.193  13
  -5   5  -3 135.471 192.488   2
  -5   5  -4 4818.52 742.280   2
   5   5   4 5523.64 779.062  13
   5   5   5 22506.2 1701.15  13
   5  -5   5 21259.3 820.360  12
   5   5   5 20769.4 845.526  10
   5  -5   6 50830.9 1132.31   3
   5  -5   6 52906.8 1340.32  12
   5   5   6 54297.7 1406.42  10
   5  -5   7 22504.2 776.860   3
   5  -5   7 23171.1 917.308  12
   5   5   7 23196.0 934.961  10
   5  -5   8 21271.3 755.532   3
   5  -5   8 21559.1 888.218  12
   5   5   8 22329.6 914.472  10
   5  -5   9 5998.92 405.057   3
   5   5   9 5843.59 477.960  10
   5   5  10 442.691 205.562  10
   5   5  11 1719.62 234.455  10
   5  -5  11 1207.42 185.100  10
   5   5  12 152.252 96.7884  10
   5  -5  12 199.309 87.1010  10
  -5  -6  13 222.510 73.9884  12
  -5  -6  13 173.662 70.2392  11
  -5  -6  12 8154.95 405.595  12
  -5  -6  12 8655.60 429.147  11
  -5   6  11 160.188 113.485   8
  -5  -6  11 7.64874 114.278  12
  -5   6  10 640.219 165.345   8
  -5   6   9 12665.7 626.292   8
  -5   6   8 4697.88 395.376   8
  -5   6   7 8323.99 508.967   8
  -5  -6   6 168.260 200.633   1
  -5   6   6 1245.31 212.661   8
  -5  -6   5 2182.27 537.202   1
  -5   6   5 2432.74 273.891   8
  -5  -6   4 7844.05 965.551   1
  -5   6   3 8530.13 889.024  13
  -5   6   2 16698.2 1255.77  13
  -5   6   1 6175.02 767.615  13
  -5   6   0 10442.4 1036.32  13
  -5   6  -1 14430.1 1292.85  13
  -5   6  -2 14765.6 1332.49  13
  -5   6  -3 25617.0 1643.29   2
   5   6   3 24870.3 1632.40  13
   5   6   4 5878.60 840.785  13
  -5   6  -4 5261.08 781.849   2
   5  -6   4 5700.85 423.343  12
   5   6   4 7012.58 527.676  10
   5   6   5 1930.49 282.766  10
   5  -6   5 2129.62 239.657   3
   5  -6   5 2324.49 295.735  12
   5  -6   6 6498.69 426.700   3
   5  -6   6 6847.22 495.118  12
   5   6   6 6722.21 519.198  10
   5  -6   7 43419.7 1080.28   3
   5  -6   7 42683.2 1225.31  12
   5   6   7 44404.4 1296.84  10
   5  -6   8 4014.16 332.237   3
   5  -6   8 4175.59 397.276  12
   5   6   8 4186.79 421.935  10
   5   6   9 1870.33 290.208  10
   5  -6   9 2411.08 266.589   3
   5   6  10 2581.87 299.436  10
   5   6  11 242.615 120.103  10
   5   6  12 421.865 111.038  10
  -5  -7  12 179.906 87.2504  12
  -5  -7  12 491.585 106.793  11
  -5   7  11 3625.71 284.927   8
  -5  -7  11 3156.78 278.234  12
  -5  -7  11 3387.23 275.161  11
  -5   7  10 138.508 113.827   8
  -5  -7  10-82.1073 150.227  12
  -5   7   9 3551.26 331.135   8
  -5   7   8 16555.9 701.198   8
  -5   7   7 36990.4 1055.21   8
  -5   7   6 7930.63 494.621   8
  -5   7   5 6929.66 458.130   8
  -5   7   4 12947.2 623.010   8
  -5   7   3 39042.9 1052.90   8
  -5   7   3 35574.2 1978.15  13
  -5   7   2 588.551 296.700  13
  -5   7   2 75.1804 118.188   8
  -5   7   1 3056.15 643.384  13
  -5   7   0 64.8277 203.710  13
   5   7   1 210.189 166.721  10
  -5   7  -1 322.118 275.678  13
   5   7   2 1890.82 299.352  10
  -5   7  -2 1921.50 573.861  13
  -5   7  -3 6145.17 965.509  13
   5   7   3 9218.53 604.359  10
   5  -7   4 23409.6 841.684  12
   5   7   4 26106.2 997.956  10
   5   7   5 2566.66 339.060  10
   5  -7   5 2626.70 280.172   3
   5  -7   5 2785.19 318.229  12
   5  -7   6 5117.51 378.546   3
   5  -7   6 4981.86 415.103  12
   5   7   6 5807.94 489.812  10
   5  -7   7 31618.3 919.587   3
   5  -7   7 29956.0 1008.32  12
   5   7   7 31143.6 1077.87  10
   5   7   8-18.9930 159.483  10
   5  -7   8-0.54187 111.961   3
   5  -7   8-204.292 169.203  12
   5   7   9 265.806 192.829  10
   5  -7   9 184.356 100.552   3
   5   7  10 5635.51 385.411  10
   5   7  11 725.241 145.802  10
  -5  -8  12 4267.24 245.489  12
  -5  -8  11 602.758 135.825  12
  -5  -8  11 495.879 99.5372  11
  -5   8  10 202.389 104.915   8
  -5  -8  10 100.064 107.760  12
  -5  -8  10 167.543 88.7856  11
  -5   8   9 465.164 147.451   8
  -5   8   8 1291.65 209.225   8
  -5   8   7 18130.9 723.442   8
  -5   8   6 855.843 195.884   8
  -5   8   5 14155.5 658.753   8
  -5   8   5 13869.3 651.807   7
  -5   8   4 38770.6 1082.41   8
  -5   8   3 32829.9 988.036   8
  -5   8   2 27505.8 904.310   8
  -5   8   2 28645.2 1900.71  13
  -5   8   1 1239.75 205.973   8
  -5   8   1 460.700 287.091  13
  -5   8   0 2314.23 276.870   8
  -5   8   0 3368.36 691.208  13
   5   8   1 428.113 206.500  10
   5   8   2 2476.22 334.753  10
   5   8   3 54.2475 171.942  10
   5   8   4 4238.23 436.918  10
   5  -8   5 5223.37 386.894   3
   5  -8   5 4963.97 397.984  12
   5   8   5 5106.63 477.305  10
   5  -8   6 4950.85 377.412   3
   5  -8   6 4959.18 400.912  12
   5   8   6 5658.56 490.762  10
   5  -8   7 3557.86 309.428   3
   5   8   7 3884.25 402.614  10
   5  -8   8 13099.7 546.352   3
   5   8   8 12433.9 638.192  10
   5  -8   9 2789.67 237.361   3
   5   8   9 2439.31 280.854  10
   5   8  10 2351.83 228.817  10
  -5  -9  11 12020.6 423.494  12
  -5   9  10 232.295 91.6774   8
  -5  -9  10 372.752 123.127  12
  -5   9   9 848.611 150.416   8
  -5  -9   9 855.435 175.381  12
  -5   9   8 1314.62 183.928   8
  -5   9   7 3177.64 298.730   8
  -5   9   6 13428.2 603.706   8
  -5   9   5 3076.90 308.426   8
  -5   9   4 1295.21 213.107   8
  -5   9   3 13109.6 625.048   8
  -5   9   2 53.8875 110.976   8
  -5   9   1 836.735 193.964   8
  -5   9   0 43.4535 123.941   8
   5   9   0 54.4601 133.322   7
  -5   9  -1 828.529 185.051   8
   5   9   1 585.807 164.355   7
   5   9   2 6437.96 521.277  10
   5   9   3 18213.8 860.647  10
   5   9   4 5401.37 477.914  10
   5   9   5 553.994 228.574  10
   5  -9   5 649.554 170.707   3
   5   9   6 417.762 190.405  10
   5  -9   6 324.318 120.861   3
   5  -9   7 5957.41 368.508   3
   5   9   7 5861.31 452.567  10
   5   9   8 530.043 163.979  10
   5  -9   8 717.626 146.289   3
   5   9   9 1864.77 217.658  10
   5  -9   9 1426.57 156.593   3
  -5 -10  10-2.17155 64.6862  12
  -5  10   9 767.469 114.148   8
  -5 -10   9 1055.24 153.962  12
  -5  10   8 5131.10 302.995   8
  -5 -10   8 5332.73 352.562  12
  -5  10   7 158.409 101.424   8
  -5  10   6 3150.03 274.328   8
  -5  10   5 1516.30 200.830   8
  -5  10   4 5029.15 374.888   8
  -5  10   3 249.004 120.577   8
  -5  10   2 184.974 117.629   8
  -5  10   1 219.388 127.129   8
   5  10  -1 182.522 146.727   7
  -5  10   0 637.926 166.879   8
   5  10   0 669.581 148.039   7
   5  10   1 293.568 151.314   7
  -5  10  -1 174.392 123.301   8
  -5  10  -2 4890.28 376.690   8
   5  10   2 4897.20 377.459   7
  -5  10  -3 5952.54 415.907   8
   5  10   4 13524.6 704.302  10
   5  10   5 999.436 235.953  10
   5 -10   5 539.148 141.269   3
   5 -10   6 9427.07 444.471   3
   5  10   6 8760.37 516.448  10
   5  10   7 17.0573 122.245  10
   5 -10   7 33.1803 79.6469   3
   5 -10   8 7870.89 335.949   3
  -5 -11   9 174.469 67.6167  12
  -5 -11   8 4625.46 273.620  12
  -5 -11   7 3.08575 88.7640  12
  -5 -11   6 63.5315 80.1567  12
  -5  11   5 4455.19 294.500   8
  -5  11   4 2826.70 253.672   8
  -5  11   3 14231.1 558.948   8
   5  11  -3 14341.1 639.487   7
  -5  11   2 1333.99 198.371   8
   5  11  -2 1195.22 213.424   7
  -5  11   1 174.462 114.956   8
   5  11  -1 54.7879 121.863   7
  -5  11   0 1521.40 208.793   8
   5  11   0 1667.97 232.217   7
  -5  11  -1 197.976 105.125   8
   5  11   1 222.393 118.798   7
  -5  11  -2 1682.77 209.522   8
   5  11   2 1641.60 224.168   7
  -5  11  -3 942.188 170.242   8
   5 -11   4 7329.26 395.695   3
  -5  11  -4 6669.26 370.997   8
   5 -11   5 47.3752 75.9542   3
  -5  11  -5-77.6202 75.7244   8
   5 -11   6 445.671 104.535   3
  -5  11  -6 371.689 97.2137   8
   5 -11   7 2522.24 188.409   3
  -5  11  -7 2361.27 170.323   8
   5  12  -7 374.795 99.8144   7
   5  12  -6 3034.53 245.125   7
   5  12  -5 118.964 103.963   7
   5  12  -4 17283.2 611.080   7
   5  12  -3 4630.84 331.523   7
   5  12  -2 18683.7 657.658   7
   5  12  -1 10259.3 490.313   7
   5  12   0 6132.40 378.015   7
   5  12   1 882.281 160.804   7
   5  12   2 330.231 102.552   7
   5 -12   3 444.390 107.621   3
   5 -12   4-43.0897 71.6845   3
   5 -12   5 41.0786 69.4412   3
   5 -12   6-4.08753 45.2646   3
   5  13  -5 2205.06 173.300   7
   5  13  -4 96.4184 73.4054   7
   5  13  -3 25351.0 629.108   7
   5  13  -2 1873.68 185.818   7
   5  13  -1 13390.2 462.980   7
   5  13   0 149.073 83.6629   7
   5  13   1 192.836 71.9988   7
   5 -13   2 1296.66 137.846   3
   5 -13   3 490.679 93.3113   3
  -6   0  14 791.182 123.599  11
  -6   0  13 2.69557 88.0851  11
  -6   0  12 503.790 146.398  11
  -6   0  11-18.6219 114.886   5
  -6   0  10 4736.61 390.287   5
  -6   0   9-86.8742 109.619   8
  -6   0   9-60.9394 124.763   5
  -6   0   8 25495.9 857.504   5
  -6   0   8 23466.8 773.383   8
  -6   0   8 26565.3 1770.23   1
  -6   0   7-220.430 243.230   1
  -6   0   6 4330.46 689.447   1
  -6   0   5 437.694 258.169   1
  -6   0   4 56087.2 2286.79   1
  -6   0   3 25.9119 250.055   1
  -6   0   2 49664.5 1988.46   1
  -6   0   1-75.2957 152.953   1
  -6   0   0 150382. 3215.65   1
  -6   0   0 150885. 3494.30   2
  -6   0  -1 163.592 146.388   1
  -6   0  -1 43.5880 186.047   2
  -6   0  -2 13627.5 1165.69   2
  -6   0  -3-48.3582 226.949   2
  -6   0  -4 2071.75 507.046   2
  -6   0  -5-1292.21 269.599   2
  -6   0  -6 43410.7 2467.71   2
   6   0   6 43313.7 1221.05  10
   6   0   7-155.735 200.835  10
   6   0   8 476.289 204.114  10
   6   0   9-132.452 180.613  10
   6   0  10-37.5578 135.666  10
   6   0  10 270.413 173.098   9
   6   0  11 107.006 125.342  10
   6   0  11-83.7437 159.554   9
   6   0  12 209.561 114.578  10
  -6   1  14 4461.81 229.589  11
  -6  -1  14 5782.75 295.887  11
  -6   1  13 10556.1 444.939  11
  -6  -1  13 10891.9 489.776  11
  -6   1  12 7146.87 428.079  11
  -6  -1  12 7260.56 461.155  11
  -6   1  11 2878.32 319.623   5
  -6  -1  11 3048.13 315.288   5
  -6   1  11 2990.06 302.242  11
  -6   1  10 1103.20 218.049   8
  -6   1  10 1211.46 230.357   5
  -6  -1  10 1245.91 225.942   5
  -6   1   9 2355.45 289.745   5
  -6   1   9 2181.82 264.811   8
  -6  -1   9 2227.87 276.178   5
  -6   1   8 2297.13 274.752   5
  -6   1   8 1571.35 221.949   8
  -6  -1   8 1736.57 236.350   5
  -6  -1   7 3584.64 705.164   6
  -6   1   7 2973.67 284.682   5
  -6   1   7 3346.94 644.869   1
  -6  -1   7 2141.19 490.933   1
  -6  -1   6 4801.01 749.678   1
  -6   1   6 4098.24 702.705   1
  -6  -1   5 5431.53 739.269   1
  -6   1   5 5530.39 744.138   1
  -6   1   4 1674.30 428.184   1
  -6  -1   4 1977.68 487.134   1
  -6  -1   3 8631.42 872.414   1
  -6   1   3 9026.52 882.713   1
  -6   1   2 38515.7 1747.90   1
  -6  -1   2 37236.8 1727.77   1
  -6   1   1 22635.0 1300.02   1
  -6  -1   1 22160.1 1288.85   1
  -6  -1   0 72562.9 2261.40   1
  -6   1   0 77092.9 2286.26   1
  -6   1   0 73199.7 2377.88   2
  -6   1  -1 5296.19 583.495   1
  -6  -1  -1 5236.50 729.593   2
  -6   1  -1 4460.11 631.168   2
  -6  -1  -1 4457.51 552.440   1
  -6  -1  -2 3242.83 582.103   2
  -6   1  -2 3989.02 632.939   2
  -6  -1  -2 2755.60 421.649   1
  -6  -1  -3 4729.81 733.685   2
  -6   1  -3 5220.09 754.017   2
  -6  -1  -4 5837.01 850.980   2
  -6   1  -4 6423.21 877.629   2
  -6  -1  -5 242.897 241.065   2
  -6   1  -5 50.1721 180.890   2
   6   1   6 404.103 165.769  10
  -6  -1  -6 789.851 366.995   2
  -6   1  -6 964.068 414.553   2
   6   1   7 25055.5 968.886  10
   6  -1   7 22861.4 927.102  10
   6   1   8 4941.25 489.776   9
   6   1   8 4022.20 404.526  10
   6  -1   8 3761.23 390.862  10
   6   1   9 564.396 188.234  10
   6  -1   9 393.297 141.286  10
   6   1   9 575.028 244.383   9
   6   1  10 102.294 140.245  10
   6  -1  10 93.7870 138.112  10
   6   1  10-317.276 213.753   9
   6   1  11 882.268 197.301  10
   6  -1  11 812.399 184.314  10
   6  -1  11 1167.17 240.342   9
   6   1  12 1104.24 162.954  10
   6  -1  12 1247.61 167.913  10
   6  -1  12 1049.37 183.340   9
  -6  -2  14 174.369 82.4670  11
  -6  -2  13 275.970 119.592  11
  -6  -2  12 956.386 202.042  11
  -6   2  11 1253.69 212.066   5
  -6  -2  11 1460.20 228.145   5
  -6   2  10 211.726 138.359   5
  -6  -2  10 541.396 159.490   5
  -6   2  10 298.092 145.875   8
  -6   2   9 1954.06 245.596   8
  -6   2   9 2055.14 256.061   5
  -6  -2   9 1856.27 257.065   5
  -6   2   8 129.008 137.512   8
  -6   2   8 126.519 127.790   5
  -6  -2   8 91.0772 106.578   5
  -6  -2   7 29567.8 1880.18   1
  -6   2   7 30127.0 889.629   5
  -6  -2   7 29571.2 881.404   5
  -6   2   7 28940.8 878.440   8
  -6  -2   6 1201.29 406.518   1
  -6  -2   5 44769.7 2144.02   1
  -6   2   5 47137.1 2215.94   1
  -6   2   4 10349.6 1023.25   1
  -6  -2   4 11038.6 1048.85   1
  -6   2   3 127559. 3390.34   1
  -6  -2   3 127444. 3348.99   1
  -6   2   2 38583.9 1795.26   1
  -6  -2   2 36207.2 1736.99   1
  -6   2   1 62965.1 2207.71   1
  -6   2   1 62420.9 2035.81   2
  -6  -2   1 64018.3 2233.97   1
  -6   2   0 77640.9 2352.33   1
  -6  -2   0 73607.7 2344.60   1
  -6   2   0 76530.1 2410.50   2
  -6  -2  -1 6311.52 660.071   1
  -6   2  -1 6173.90 732.995   2
  -6  -2  -2 22255.9 1526.36   2
  -6  -2  -2 22992.0 1235.08   1
  -6   2  -2 22418.7 1457.67   2
  -6  -2  -3 43229.1 2199.27   2
  -6   2  -3 41990.3 2076.95   2
  -6  -2  -4 12806.4 1241.33   2
  -6   2  -4 12521.2 1212.23   2
  -6  -2  -5 17952.8 1540.53   2
  -6   2  -5 17459.4 1508.10   2
   6   2   6 16091.8 871.889   9
   6   2   6 15916.3 740.967  10
   6   2   7 3853.02 448.947   9
   6   2   7 3341.88 379.471  10
   6   2   8 681.471 222.279  10
   6  -2   8 577.783 215.417  10
   6   2   8 1092.07 284.391   9
   6   2   9 7140.84 517.454  10
   6  -2   9 7555.30 519.604  10
   6   2  10 9713.41 561.777  10
   6  -2  10 9130.36 538.136  10
   6   2  11 9642.64 507.326  10
   6  -2  11 10108.3 499.035  10
   6  -2  12 1933.08 226.696   9
   6   2  12 2172.15 218.310  10
   6  -2  12 2067.84 198.276  10
  -6  -3  14 59.9415 72.8554  11
  -6  -3  13 2211.94 226.178  11
  -6  -3  12 64.9207 114.068  11
  -6   3  11 15395.8 639.383   5
  -6  -3  11 13731.4 608.364   5
  -6   3  11 13447.4 614.541   8
  -6   3  10-92.5739 124.895   5
  -6  -3  10 119.156 127.049   5
  -6   3  10-103.020 127.632   8
  -6   3   9 8187.18 490.650   5
  -6  -3   9 7866.37 488.379   5
  -6   3   9 7859.74 490.319   8
  -6   3   8 18277.4 712.630   5
  -6  -3   8 18126.1 717.042   5
  -6   3   8 18624.0 740.224   8
  -6  -3   7 29628.1 1914.64   1
  -6   3   7 28123.9 852.124   5
  -6  -3   7 27363.9 852.629   5
  -6   3   7 29169.8 900.929   8
  -6  -3   6 2416.68 566.109   1
  -6  -3   5 378.634 272.998   1
  -6  -3   4 35078.0 1897.67   1
  -6  -3   3 5806.53 764.034   1
  -6  -3   2 517.164 303.268   1
  -6  -3   1 83467.5 2660.61   1
  -6  -3   0 8063.13 810.870   1
  -6   3   0 8847.62 821.310   2
  -6  -3  -1 6602.68 720.376   1
  -6   3  -1 6374.43 727.998   2
  -6   3  -2 6.15641 177.716   2
  -6  -3  -2 373.772 255.357   1
  -6   3  -3 6538.49 839.866   2
  -6   3  -4-123.960 155.879   2
   6   3   5 7376.78 634.699   9
  -6   3  -5 5713.73 868.280   2
   6   3   5 6358.01 462.822  10
   6   3   6 1909.11 304.381  10
   6   3   6 1211.62 270.588   9
   6   3   7 4715.49 446.787  10
   6   3   8 917.317 257.615  10
   6   3   9 2730.09 348.609  10
   6  -3   9 3056.07 335.594  10
   6   3  10 1331.50 227.540  10
   6  -3  10 1396.71 212.823  10
   6   3  11 1441.67 213.757  10
   6  -3  11 1225.09 186.405  10
   6   3  12 187.769 99.6391  10
   6  -3  12 166.119 84.7213  10
   6  -3  12 225.021 116.947   9
  -6  -4  14 309.416 74.7579  11
  -6  -4  13-30.7352 87.2253  11
  -6  -4  12 2836.42 278.574  11
  -6   4  11 10080.0 518.296   8
  -6  -4  11 9774.46 486.044  12
  -6   4  10 41.8919 105.355   5
  -6  -4  10 89.6952 104.410   5
  -6   4  10 102.808 127.565   8
  -6   4   9 4323.48 349.438   5
  -6  -4   9 4203.81 345.578   5
  -6   4   9 4310.77 384.149   8
  -6   4   8 6403.95 420.355   5
  -6  -4   8 5567.95 404.604   5
  -6   4   8 5779.60 431.015   8
  -6   4   7 7124.42 430.467   5
  -6  -4   7 6391.90 405.335   5
  -6   4   7 6689.22 450.512   8
  -6  -4   7 7033.91 937.496   1
  -6   4   6 4149.30 350.065   8
  -6  -4   6 3719.86 668.683   1
  -6  -4   5 2583.31 583.142   1
  -6  -4   4 13484.7 1223.51   1
  -6  -4   3 2027.22 477.650   1
  -6  -4   2 857.333 363.818   1
  -6  -4   1 72381.8 2573.67   1
  -6   4   0 4863.81 653.078  13
  -6  -4   0 3795.17 589.517   1
  -6   4  -1 4337.62 631.237   2
  -6  -4  -1 3107.20 540.493   1
  -6  -4  -2 17471.9 1209.07   1
  -6   4  -2 18404.2 1342.26   2
  -6   4  -3 2240.02 505.512   2
  -6   4  -4 1463.06 434.171   2
   6   4   5 40763.7 1187.72  10
   6   4   6 19516.5 844.604  10
   6   4   7 23660.0 933.079  10
   6   4   8 5482.71 453.363  10
   6   4   9 237.649 168.511  10
   6   4  10 1594.57 260.804  10
   6   4  11 345.362 134.407  10
   6  -4  12 12464.7 501.075   9
   6   4  12 12768.5 445.505  10
  -6  -5  13 4.72998 67.1648  11
  -6  -5  12 154.667 83.6719  12
  -6  -5  12 1.43554 105.663  11
  -6   5  11 1377.94 215.672   8
  -6  -5  11 1454.54 207.063  12
  -6   5  10 9668.12 532.310   8
  -6   5   9 1090.96 217.896   8
  -6   5   8 3770.34 358.836   8
  -6   5   7 1583.24 233.913   8
  -6   5   6 39373.0 1081.48   8
  -6  -5   6 39165.0 2264.38   1
  -6  -5   5 3619.45 694.451   1
  -6   5   5 2656.95 285.624   8
  -6  -5   4 9830.88 1085.16   1
  -6  -5   3 5179.74 774.632   1
  -6  -5   2 286.547 249.366   1
  -6  -5   1 12426.8 1141.98   1
  -6   5   0 28021.1 1655.28  13
  -6   5  -1 65.4995 183.207  13
  -6  -5  -2 29983.5 1702.19   1
   6   5   3 12052.7 641.988  10
  -6   5  -3 11581.0 1139.16   2
  -6   5  -4 6734.76 918.721   2
   6   5   4 7921.52 532.557  10
   6   5   5 250.074 179.603  10
   6   5   6 48946.2 1337.62  10
   6   5   7 12801.0 689.367  10
   6   5   8 1717.83 303.299  10
   6  -5   8 1130.30 163.621   3
   6   5   9 1567.49 276.999  10
   6   5  10 13153.8 600.656  10
   6   5  11 45.8076 105.497  10
   6   5  12 6500.23 290.330  10
  -6  -6  13 854.119 108.921  11
  -6  -6  12 25.5667 67.5592  12
  -6  -6  12 193.335 88.7576  11
  -6   6  11 48.9077 94.1176   8
  -6  -6  11-26.5238 102.178  12
  -6   6  10 2092.85 263.544   8
  -6   6   9 3111.82 320.264   8
  -6   6   8 22356.8 829.692   8
  -6   6   7 16152.4 709.746   8
  -6   6   6 607.625 178.094   8
  -6   6   5 1646.00 253.265   8
  -6   6   4 32742.3 992.899   8
  -6  -6   4 34366.0 2101.74   1
  -6   6   3-1.88189 112.525   8
  -6  -6   3 380.239 328.797   1
  -6   6   2 3111.55 309.589   8
  -6  -6   2 2671.91 574.214   1
  -6   6   1 5254.77 387.684   8
  -6   6   1 5003.90 732.797  13
  -6   6   0 7696.41 913.607  13
   6   6   1-104.340 150.197  10
  -6   6  -1 795.961 329.256  13
   6   6   2 1718.31 291.795  10
  -6   6  -2 1350.35 435.893  13
   6   6   3 3273.77 375.325  10
   6   6   4 16612.7 797.974  10
   6   6   5 20381.5 873.396  10
   6   6   6 3801.42 410.859  10
   6  -6   7 5396.05 367.570   3
   6   6   7 5327.37 465.139  10
   6  -6   8 6734.76 385.423   3
   6   6   8 6299.54 489.462  10
   6   6   9 1353.45 253.681  10
   6   6  10 2984.23 294.974  10
   6   6  11 278.237 113.586  10
  -6  -7  12 872.893 125.334  12
  -6  -7  12 692.067 112.021  11
  -6   7  11 823.572 144.271   8
  -6  -7  11 783.486 142.197  12
  -6  -7  11 836.434 140.590  11
  -6   7  10 5161.01 350.637   8
  -6  -7  10 4454.08 347.828  12
  -6   7   9 278.556 134.485   8
  -6   7   8 5300.88 400.356   8
  -6   7   7 8236.28 509.607   8
  -6   7   6 286.052 145.725   8
  -6   7   5 37050.9 1065.39   8
  -6   7   4 15347.2 695.524   8
  -6   7   3 33936.5 1015.32   8
  -6   7   2 672.384 159.418   8
  -6   7   1 4437.16 381.674   8
  -6   7   0 161.581 246.008  13
  -6   7   0 747.154 184.107   8
   6   7   0 675.838 200.260  10
   6   7   1 167.334 148.095  10
  -6   7  -1 1340.27 428.474  13
   6   7   2 628.730 249.267  10
   6   7   3 1971.87 313.997  10
   6   7   4 9675.74 635.792  10
   6  -7   5 24330.2 768.935   3
   6   7   5 24342.5 968.485  10
   6   7   6 2408.08 349.910  10
   6  -7   6 2300.74 244.329   3
   6  -7   7 5851.21 371.861   3
   6   7   7 5752.47 470.024  10
   6   7   8 447.646 205.653  10
   6  -7   8 386.357 103.552   3
   6   7   9 950.757 206.808  10
   6   7  10 202.413 118.526  10
  -6  -8  11 4439.89 272.088  12
  -6  -8  11 3668.87 216.508  11
  -6   8  10 441.284 115.551   8
  -6  -8  10 285.862 100.647  12
  -6   8   9 146.277 110.564   8
  -6   8   8 1303.46 205.873   8
  -6   8   7 5696.12 411.280   8
  -6   8   6 7405.73 473.425   8
  -6   8   5 10700.0 573.545   8
  -6   8   4 73585.6 1499.48   8
  -6   8   3 46610.3 1205.93   8
  -6   8   2 3058.56 325.424   8
  -6   8   1 9590.86 563.545   8
  -6   8   0 426.327 166.180   8
   6   8   1 209.718 164.365  10
  -6   8  -1 416.861 181.112   8
   6   8   2 395.162 209.708  10
   6   8   3 45456.2 1395.30  10
   6  -8   4 8180.61 446.713   3
   6   8   4 8582.02 608.809  10
   6  -8   5 8666.79 453.848   3
   6   8   5 8386.12 575.805  10
   6  -8   6 15408.6 583.301   3
   6   8   6 15471.4 749.499  10
   6   8   7 900.503 219.158  10
   6  -8   7 1041.51 170.125   3
   6   8   8 1015.60 214.211  10
   6  -8   8 1055.37 151.211   3
   6   8   9 10759.0 483.841  10
   6   8  10 653.913 118.499  10
   6  -8  10 1005.01 146.760   9
  -6  -9  11 8977.63 320.193  12
  -6   9  10 5621.47 279.558   8
  -6  -9  10 5766.30 317.736  12
  -6   9   9 8024.42 381.311   8
  -6  -9   9 7573.20 412.917  12
  -6   9   8 86.2944 97.7561   8
  -6   9   7 1550.26 218.288   8
  -6   9   6 4215.37 346.658   8
  -6   9   5 113.477 128.186   8
  -6   9   4 1397.56 227.472   8
  -6   9   3 2637.08 293.294   8
  -6   9   2 3174.53 322.371   8
  -6   9   1 425.843 150.405   8
   6   9  -1 557.341 165.999   7
  -6   9   0 4805.88 396.991   8
  -6   9  -1 3794.17 362.761   8
  -6   9  -2 2930.70 318.785   8
   6   9   3 1163.01 259.330  10
   6   9   4 2341.94 333.804  10
   6  -9   4 2568.66 257.397   3
   6   9   5 393.334 177.973  10
   6  -9   5 603.505 132.474   3
   6  -9   6 3728.93 273.275   3
   6   9   6 3899.78 372.019  10
   6   9   7 2579.86 281.824  10
   6  -9   7 2509.81 210.002   3
   6   9   8 367.147 143.455  10
   6  -9   8 340.222 83.1051   3
   6   9   9 2214.27 194.866  10
  -6  10   9 1272.05 129.545   8
  -6 -10   9 1661.34 171.146  12
  -6  10   8 305.319 89.2648   8
  -6 -10   8 270.847 108.230  12
  -6  10   7-67.5835 86.3456   8
  -6  10   6 2630.28 245.609   8
  -6  10   5 9445.69 476.075   8
  -6  10   4 1000.42 177.560   8
  -6  10   3 8984.95 492.905   8
  -6  10   2 3410.32 325.638   8
   6  10  -2 3293.79 320.386   7
  -6  10   1 2066.64 258.025   8
   6  10  -1 1915.33 239.066   7
  -6  10   0 1213.63 202.607   8
  -6  10  -1 225.676 141.079   8
  -6  10  -2 1339.49 213.939   8
  -6  10  -3 11392.3 540.286   8
  -6  10  -4 35.2555 107.116   8
   6 -10   4-120.105 102.108   3
   6 -10   5 27.5723 85.5272   3
  -6  10  -5 351.650 142.268   8
   6 -10   6 1457.07 161.151   3
  -6  10  -6 1486.69 188.239   8
   6 -10   7 832.495 113.470   3
  -6  10  -7 991.866 141.127   8
  -6  10  -8 343.024 82.1186   8
  -6 -11   8-100.768 55.9192  12
  -6  11   7 11.1526 53.3963   8
  -6 -11   7 26.3789 69.7910  12
  -6  11   6 714.270 117.209   8
  -6 -11   6 775.359 123.907  12
  -6  11   5-98.5313 87.7297   8
   6  11  -5 26.2583 91.6730   7
  -6  11   4 181.072 89.7770   8
   6  11  -4-79.3933 103.669   7
  -6  11   3 1420.73 186.522   8
   6  11  -3 1180.88 190.892   7
  -6  11   2 3109.00 264.567   8
   6  11  -2 2812.44 269.307   7
  -6  11   1 5076.85 346.709   8
   6  11  -1 5046.27 347.458   7
  -6  11   0 1703.70 212.641   8
   6  11   0 1868.88 216.742   7
  -6  11  -1 331.568 130.600   8
  -6  11  -2 1099.80 173.723   8
  -6  11  -3 848.123 148.033   8
   6 -11   3 1197.81 157.191   3
   6 -11   4 2321.11 191.776   3
  -6  11  -4 2229.16 207.939   8
   6 -11   5 128.813 68.3329   3
  -6  11  -5 27.1581 69.0664   8
  -6  11  -6 1691.70 148.394   8
   6  12  -6 795.890 118.987   7
   6  12  -5 3245.06 231.998   7
   6  12  -4 232.741 88.1995   7
   6  12  -3 641.794 127.186   7
  -6  12   2 9440.58 365.027   8
   6  12  -2 9378.00 408.120   7
  -6  12   1 16667.0 492.613   8
   6  12  -1 16353.1 525.593   7
  -6  12   0 571.362 111.380   8
  -6  12  -1 742.252 118.326   8
   6 -12   2 9990.47 357.792   3
  -6  12  -2 9649.99 359.149   8
   6 -12   3 7559.32 290.411   3
  -6  12  -3 6691.29 282.178   8
  -7   0  13-23.0094 77.0559  11
  -7   0  12 1121.17 179.725  11
  -7   0  11 205.151 144.975   5
  -7   0  10 651.963 180.255   5
  -7   0   9-109.062 92.3743   8
  -7   0   9 70.0534 109.436   5
  -7   0   8 7457.36 480.401   5
  -7   0   7-37.7890 116.620   5
  -7   0   7 702.760 315.564   1
  -7   0   6 4965.86 379.074   5
  -7   0   6 4795.39 802.399   1
  -7   0   5-35.5212 195.235   1
  -7   0   4 12.0192 259.580   1
  -7   0   3 27.0462 262.578   1
  -7   0   2 304.079 226.547   1
  -7   0   1 164.639 146.810   1
  -7   0   0 1378.86 343.122   1
  -7   0  -1-122.730 208.015   2
  -7   0  -1-731.349 235.645   1
  -7   0  -2-475.799 271.860   2
  -7   0  -3 11.0264 167.690   2
   7   0   4 140893. 2517.26   9
  -7   0  -4 119952. 4053.93   2
   7   0   5 233.222 195.683   9
   7   0   6 4695.75 499.809   9
   7   0   7 194.536 160.210  10
   7   0   7 270.010 220.125   9
   7   0   8 9979.93 699.976   9
   7   0   8 7654.18 497.690  10
   7   0   9 78.1698 124.729  10
   7   0   9 90.4417 173.727   9
   7   0  10 17111.3 833.663   9
   7   0  10 17156.5 642.162  10
   7   0  11-149.038 118.150  10
   7   0  11 126.465 136.174   9
  -7  -1  13 7048.16 350.869  11
  -7   1  12 14323.0 528.559  11
  -7  -1  12 14723.3 595.911  11
  -7   1  11 534.649 165.966   5
  -7  -1  11 348.957 139.437   5
  -7   1  11 323.903 110.822  11
  -7   1  10 161.111 119.294   8
  -7   1  10-15.9755 122.721   5
  -7  -1  10 96.7759 128.793   5
  -7   1   9 19366.4 774.040   5
  -7  -1   9 20020.3 788.412   5
  -7   1   9 21830.6 769.671   8
  -7   1   8 16794.4 713.748   5
  -7  -1   8 16574.1 713.306   5
  -7   1   8 16369.3 664.012   8
  -7   1   7 13839.2 636.186   5
  -7  -1   7 13004.0 618.972   5
  -7   1   7 12976.5 579.967   8
  -7   1   6 13548.7 616.124   5
  -7  -1   6 13971.8 623.560   5
  -7  -1   6 14229.5 1353.28   1
  -7   1   6 13182.2 1315.43   1
  -7  -1   5 17935.7 1465.56   1
  -7   1   5 18263.6 1481.20   1
  -7  -1   4 387.296 192.785   1
  -7   1   4 477.969 267.927   1
  -7   1   3 747.693 300.905   1
  -7  -1   3 1455.85 484.404   1
  -7   1   2 289.284 183.901   1
  -7  -1   2 143.223 190.578   1
  -7  -1   1 36177.8 1835.31   1
  -7   1   1 37868.8 1840.26   1
  -7   1   0 3111.66 565.611   2
  -7   1   0 3180.63 544.168   1
  -7  -1   0 3842.57 581.506   1
  -7   1  -1 991.628 314.733   2
  -7  -1  -1 1401.07 377.476   1
  -7  -1  -2 19348.0 1545.68   2
  -7   1  -2 19258.7 1487.33   2
  -7  -1  -3 356.966 279.176   2
  -7   1  -3 631.497 301.638   2
   7   1   4 38474.2 1418.66   9
  -7  -1  -4 37082.0 2287.91   2
  -7   1  -4 33443.5 2150.10   2
   7   1   5 2936.72 422.020   9
   7   1   6 1558.04 257.515  10
   7   1   6 1658.83 356.325   9
   7   1   7 2457.81 390.748   9
   7   1   7 2644.32 332.981  10
   7   1   8 6730.91 601.505   9
   7   1   8 6544.93 472.932  10
   7  -1   9 3590.42 422.122   9
   7   1   9 2563.55 367.430   9
   7   1   9 3349.13 334.153  10
   7  -1   9 2555.09 276.075  10
   7   1  10 18624.1 904.211   9
   7  -1  10 17796.1 822.241   9
   7   1  10 16376.9 638.191  10
   7  -1  10 17978.3 633.748  10
   7   1  11 1591.96 184.868  10
   7  -1  11 1298.30 155.933  10
   7  -1  11 1516.29 248.887   9
  -7  -2  13 4402.24 285.436  11
  -7  -2  12 322.318 131.738  11
  -7   2  11-41.0027 112.030   5
  -7  -2  11-63.1793 113.257   5
  -7   2  10 5266.56 397.017   5
  -7  -2  10 5049.05 392.768   5
  -7   2  10 4778.05 366.092   8
  -7   2   9 2550.30 290.181   5
  -7  -2   9 2463.33 292.485   5
  -7   2   9 2221.88 267.254   8
  -7   2   8 40157.6 1089.67   5
  -7  -2   8 40130.3 1099.71   5
  -7   2   8 37694.8 1035.96   8
  -7   2   7 26625.4 869.288   5
  -7  -2   7 26362.9 870.009   5
  -7   2   7 24828.9 821.913   8
  -7   2   6 236.148 110.700   8
  -7   2   6 316.343 135.694   5
  -7  -2   6 278.965 111.005   5
  -7  -2   5 12663.0 1243.69   1
  -7  -2   4 10543.3 1115.49   1
  -7   2   4 10334.2 1101.37   1
  -7   2   3 46647.4 2231.63   1
  -7  -2   3 43840.4 2177.08   1
  -7  -2   2 163.440 210.992   1
  -7   2   2 739.903 299.393   1
  -7   2   1 435.608 239.405   1
  -7  -2   1 742.737 307.405   1
  -7   2   0 382.004 169.606   2
  -7  -2   0 302.031 205.175   1
  -7   2  -1-22.5303 149.738   2
  -7  -2  -1-288.143 198.339   1
  -7   2  -2 15310.9 1324.83   2
  -7   2  -3 1313.00 416.159   2
   7   2   4 31608.9 1375.13   9
  -7  -2  -4 30498.3 2100.46   2
  -7   2  -4 32797.6 2130.09   2
   7   2   5 10571.4 805.028   9
   7   2   5 9619.12 569.846  10
   7   2   6 1345.81 234.974  10
   7   2   6 1526.99 346.965   9
   7   2   7 1729.52 260.149  10
   7   2   7 2342.60 409.726   9
   7   2   8 1097.68 215.992  10
   7   2   8 1567.03 350.198   9
   7   2   9 71.8854 153.748  10
   7   2   9 133.535 185.071   9
   7  -2   9 560.566 241.348   9
   7   2  10 841.920 184.240  10
   7  -2  10 1572.52 283.327   9
   7   2  11-103.663 105.929  10
   7  -2  11 165.535 147.778   9
  -7  -3  13 2325.53 203.793  11
  -7  -3  12 127.178 114.010  11
  -7   3  11 3735.45 307.908   5
  -7  -3  11 3489.35 303.381   5
  -7   3  11 3359.48 298.606   8
  -7   3  10 69.3731 102.089   5
  -7  -3  10-125.236 123.941   5
  -7   3  10-50.0510 141.516   8
  -7   3   9 2334.92 274.252   5
  -7  -3   9 2154.82 276.971   5
  -7   3   9 2099.12 269.811   8
  -7   3   8 7639.61 474.733   5
  -7  -3   8 7462.96 473.550   5
  -7   3   8 7173.99 464.025   8
  -7   3   7 36493.6 1000.18   5
  -7  -3   7 33201.0 969.969   5
  -7   3   7 33601.3 988.001   8
  -7   3   6 595.149 180.371   8
  -7   3   6 427.175 135.080   5
  -7  -3   6 591.326 180.970   5
  -7  -3   6 660.804 338.764   1
  -7  -3   5 31952.6 2021.03   1
  -7   3   5 30224.3 889.108   5
  -7  -3   5 28690.7 878.686   5
  -7   3   5 28862.0 881.094   8
  -7  -3   4 12973.5 1257.25   1
  -7  -3   3 15261.9 1331.16   1
  -7  -3   2 1495.06 424.621   1
  -7  -3   1 3919.75 682.862   1
  -7  -3   0 6923.81 826.538   1
  -7   3  -1 3090.55 564.826   2
  -7  -3  -1 3065.16 523.111   1
  -7   3  -2 10583.0 1099.80   2
   7   3   3 481.175 249.598   9
  -7   3  -3-181.763 224.596   2
   7   3   4 1176.15 246.248  10
   7   3   4 813.750 320.634   9
   7   3   5 63833.8 2105.73   9
   7   3   5 59129.9 1403.67  10
   7   3   6 4398.23 585.855   9
   7   3   6 4007.50 392.090  10
   7   3   7 1582.66 263.067  10
   7   3   7 1365.28 354.524   9
   7   3   8 251.863 160.038  10
   7   3   9 534.537 197.901  10
   7   3  10 1975.00 241.927  10
   7  -3  10 2881.93 335.292   9
   7  -3  11 19205.6 717.314   9
   7   3  11 17846.9 558.715  10
  -7  -4  13 172.614 80.6986  11
  -7  -4  12-1.83608 97.3023  11
  -7   4  11 148.156 97.9753   8
  -7  -4  11 174.843 91.5302  12
  -7   4  10 20.8158 93.4159   5
  -7  -4  10-49.9238 110.881   5
  -7   4  10 245.856 139.608   8
  -7   4   9 491.678 151.218   5
  -7  -4   9 641.632 162.925   5
  -7   4   9 847.460 204.764   8
  -7   4   8 14457.8 623.537   5
  -7  -4   8 13271.7 608.381   5
  -7   4   8 12624.4 630.228   8
  -7   4   7 4026.31 334.113   5
  -7  -4   7 3648.46 320.942   5
  -7   4   7 3593.18 342.201   8
  -7   4   6 13251.7 585.038   5
  -7  -4   6 12485.5 577.916   5
  -7   4   6 12650.1 613.843   8
  -7  -4   5 922.212 479.458   1
  -7   4   5 706.629 164.491   8
  -7   4   5 829.872 157.833   5
  -7  -4   5 700.860 158.475   5
  -7  -4   4 8999.72 490.831   5
  -7   4   4 8379.60 496.830   8
  -7  -4   4 8471.57 1051.84   1
  -7  -4   3-208.553 235.930   1
  -7  -4   2 34985.3 2016.64   1
  -7  -4   1 164.220 273.153   1
  -7  -4   0 2318.89 510.306   1
  -7  -4  -1 37707.7 1953.97   1
   7   4   2 28074.3 1533.75   9
   7   4   2 22200.1 834.377  10
   7   4   3 4651.86 634.577   9
  -7   4  -3 4516.46 793.433   2
   7   4   3 3820.71 374.518  10
   7   4   4 1212.97 229.484  10
   7   4   4 2070.94 447.149   9
   7   4   5 131.282 173.309  10
   7   4   5 62.6065 301.722   9
   7   4   6 26449.4 1439.14   9
   7   4   6 21071.6 871.116  10
   7   4   7 243.615 180.527  10
   7   4   8 6185.14 459.750  10
   7   4   9 1461.79 231.150  10
   7  -4  10 3177.39 336.709   9
   7   4  10 2437.46 250.142  10
   7  -4  11 11372.7 517.913   9
   7   4  11 10932.9 422.055  10
  -7  -5  13 402.763 80.1658  11
  -7  -5  12 322.549 100.862  11
  -7   5  11 179.876 107.267   8
  -7  -5  11 215.912 101.785  12
  -7   5  10 161.108 116.703   8
  -7   5   9 7372.06 469.897   8
  -7   5   8 2128.11 275.557   8
  -7   5   7 5054.98 402.662   8
  -7   5   6 5302.94 415.075   8
  -7   5   5 6496.48 452.644   8
  -7   5   4 2296.21 286.410   8
  -7  -5   3 1394.79 533.572   1
  -7   5   3 745.493 190.184   8
  -7  -5   2 988.488 379.372   1
  -7   5   2 1753.81 250.210   8
  -7   5   1 431.365 150.777   8
  -7  -5   1-776.661 353.145   1
  -7   5   0 15085.9 664.146   8
  -7  -5   0 16098.3 1357.04   1
   7   5   0 15724.7 718.496  10
  -7  -5  -1 7909.07 946.925   1
   7   5   1 8128.67 533.811  10
   7   5   2 87.9598 160.722  10
   7   5   3 1376.60 268.156  10
   7   5   4 45129.0 1272.63  10
   7   5   5 5428.07 462.448  10
   7   5   6 1496.55 278.373  10
   7   5   7 1690.08 281.639  10
   7   5   8 3657.28 362.132  10
   7   5   9-23.7968 135.348  10
   7   5  10-43.7064 111.447  10
   7  -5  10 215.249 158.180   9
   7  -5  11 2360.40 228.301   9
   7   5  11 2517.82 194.222  10
  -7  -6  12 704.544 99.7203  12
  -7  -6  12 810.073 121.771  11
  -7   6  11 1287.64 167.612   8
  -7  -6  11 1238.19 161.995  12
  -7   6  10-9.34583 95.9006   8
  -7   6   9 81.4764 110.913   8
  -7   6   8 3507.84 335.692   8
  -7   6   7 5063.39 400.520   8
  -7   6   6 14929.5 687.090   8
  -7   6   5 19803.7 792.738   8
  -7   6   4 4151.77 377.951   8
  -7   6   3 3143.06 328.290   8
  -7   6   2 224.755 154.568   8
  -7   6   1 0.65933 129.275   8
  -7   6   0 10419.1 578.010   8
   7   6   0 10810.7 623.510  10
   7   6   1 43890.9 1258.37  10
   7   6   2 9426.57 601.897  10
   7   6   3 644.480 202.607  10
   7   6   4 27646.0 1028.92  10
   7   6   5 2941.65 374.428  10
   7   6   6 19434.1 840.385  10
   7   6   7 285.191 203.728  10
   7   6   8 17134.1 713.387  10
   7   6   9 45.0384 132.091  10
   7   6  10 697.741 146.315  10
   7  -6  10 635.086 151.296   9
  -7  -7  11 3802.56 247.580  12
  -7  -7  11 3978.45 254.311  11
  -7   7  10 4842.32 318.671   8
  -7   7   9 46.6560 109.732   8
  -7   7   8 125.012 135.304   8
  -7   7   7 472.406 174.411   8
  -7   7   6 2185.10 270.646   8
  -7   7   5 5839.77 438.583   8
  -7   7   4 1394.08 268.979   8
  -7   7   3 727.389 194.031   8
  -7   7   2 413.881 162.573   8
  -7   7   1 27590.2 935.877   8
  -7   7   0 10351.4 576.925   8
   7   7   1 2278.79 320.395  10
  -7   7  -1 1797.34 267.035   8
   7   7   2 28024.1 1038.38  10
   7   7   3 212.287 177.772  10
   7   7   4 509.278 216.081  10
   7   7   5 10209.6 638.844  10
   7   7   6 1089.97 246.664  10
   7   7   7 1544.24 256.610  10
   7   7   8 938.575 250.152  10
   7   7   9 426.035 137.652  10
   7  -7   9 981.931 181.495   9
   7   7  10 663.905 113.474  10
  -7  -8  11 8.33761 53.8926  12
  -7   8  10 151.695 69.9005   8
  -7  -8  10 267.959 111.452  12
  -7   8   9 2137.96 213.997   8
  -7   8   8 8602.87 451.771   8
  -7   8   7 673.372 167.443   8
  -7   8   6 3131.18 309.320   8
  -7   8   5 3791.03 349.861   8
  -7   8   4 388.285 170.881   8
  -7   8   3 14493.4 675.404   8
  -7   8   2 700.610 174.732   8
  -7   8   1 536.504 181.304   8
  -7   8   0 11165.6 600.905   8
  -7   8  -1 3327.10 342.706   8
  -7   8  -2 28919.1 940.831   8
   7   8   2 29722.0 1057.28  10
   7   8   3 4494.48 442.834  10
   7   8   4 2135.62 310.677  10
   7   8   5 829.191 235.995  10
   7   8   6 5603.89 428.932  10
   7  -8   7 4343.02 349.355   9
   7   8   7 3178.98 312.189  10
   7  -8   8 8016.75 415.916   9
   7   8   8 7663.07 411.327  10
   7   8   9 735.016 125.737  10
  -7  -9  10-46.8916 63.0211  12
  -7   9   9 1586.70 160.890   8
  -7  -9   9 1597.99 178.893  12
  -7   9   8 7160.91 368.835   8
  -7   9   7 19272.3 647.689   8
  -7   9   6 342.240 135.244   8
  -7   9   5 242.097 118.863   8
  -7   9   4 3534.89 330.759   8
  -7   9   3 4543.05 378.804   8
  -7   9   2 6144.04 434.973   8
  -7   9   1 405.803 144.925   8
  -7   9   0 117.439 119.094   8
  -7   9  -1 162.775 130.601   8
  -7   9  -2 3388.14 325.216   8
  -7   9  -3 2751.90 295.990   8
  -7   9  -4 826.342 180.279   8
   7   9   4 889.164 226.406  10
   7   9   5 474.627 183.133  10
  -7   9  -5 557.532 148.408   8
   7   9   6 1803.51 241.083  10
  -7   9  -6 1979.00 216.224   8
  -7   9  -7 2309.03 204.799   8
   7   9   7 1985.67 226.223  10
  -7   9  -8 1128.59 127.247   8
  -7 -10   9 181.302 64.1650  12
  -7  10   8 503.800 95.1100   8
  -7 -10   8 292.291 85.2600  12
  -7  10   7 1412.58 162.724   8
  -7  10   6 403.774 111.275   8
  -7  10   5 572.139 132.086   8
  -7  10   4 971.293 168.055   8
   7  10  -4 783.512 164.184   7
  -7  10   3 1877.10 227.292   8
   7  10  -3 1688.75 201.611   7
  -7  10   2-113.720 114.327   8
  -7  10   1 2406.52 261.241   8
  -7  10   0 258.670 116.121   8
  -7  10  -1 97.8461 112.623   8
  -7  10  -2 311.856 130.391   8
  -7  10  -3 394.591 121.998   8
  -7  10  -4 285.921 108.261   8
  -7  10  -5 643.789 126.888   8
  -7  10  -6 2105.23 180.783   8
  -7  10  -7 6318.55 253.675   8
  -7  11   6 294.913 78.8062   8
  -7 -11   6 226.846 77.9559  12
   7  11  -6 175.853 82.8896   7
  -7  11   5 152.182 72.6533   8
   7  11  -5 91.4864 77.8737   7
  -7  11   4 2545.96 212.496   8
   7  11  -4 1978.42 189.322   7
  -7  11   3 1917.43 194.282   8
   7  11  -3 1745.90 179.343   7
  -7  11   2 236.993 100.288   8
  -7  11   1 5007.27 316.025   8
  -7  11   0 455.028 118.059   8
  -7  11  -1 7824.42 381.302   8
  -7  11  -2 1554.33 177.248   8
  -7  11  -3 4043.88 257.170   8
  -7  11  -4 2005.05 171.814   8
  -7  11  -5 249.860 67.2590   8
  -7  12   3 4759.09 220.958   8
  -7  12   2 1299.37 128.449   8
  -7  12   1 3070.33 191.900   8
  -7  12   0 1206.35 126.464   8
  -7  12  -1 180.634 67.6506   8
  -8   0  12-2.09671 70.7450  11
  -8   0  11 46.3101 118.288   5
  -8   0  11 86.9827 92.3680  11
  -8   0  10 1096.94 188.903   5
  -8   0   9-27.0718 119.299   5
  -8   0   8 27438.8 916.155   5
  -8   0   7-38.9766 121.970   5
  -8   0   6 37462.2 1063.26   5
  -8   0   5 70.3518 138.109   5
  -8   0   4 36520.0 1045.72   5
  -8   0   4 39193.5 2217.33   1
  -8   0   3 261.645 219.678   1
  -8   0   3-158.043 132.850   5
  -8   0   3 105.934 121.313   4
  -8   0   2 28109.3 1786.68   1
  -8   0   2 28716.3 883.846   4
  -8   0   1 65.2127 149.579   1
  -8   0   1-14.1847 103.075   4
  -8   0   0 35420.7 1884.46   1
  -8   0   0 35134.4 987.522   4
   8   0   1-320.736 287.804   9
  -8   0  -2 1587.10 475.971   2
   8   0   2 2725.38 471.840   9
   8   0   3 176.880 199.385   9
   8   0   4 1335.63 341.655   9
   8   0   5 257.379 256.213   9
   8   0   6 31252.9 1342.79   9
   8   0   7 44.2438 200.234   9
   8   0   8-84.9106 199.346   9
   8   0   9-380.820 264.164   9
   8   0  10 977.537 216.966   9
  -8  -1  13 1381.81 128.404  11
  -8  -1  12 1317.63 168.649  11
  -8   1  11 14064.2 580.751   5
  -8  -1  11 13801.4 578.850   5
  -8   1  10 13.4528 110.585   5
  -8  -1  10 91.6904 116.647   5
  -8   1   9 2927.31 315.219   5
  -8  -1   9 2638.99 301.473   5
  -8   1   9 1982.06 246.853   8
  -8   1   8 1695.11 229.384   8
  -8   1   8 1615.83 252.596   5
  -8  -1   8 1501.09 242.888   5
  -8   1   7 6145.17 441.166   5
  -8  -1   7 6619.55 459.562   5
  -8   1   6 1091.04 205.983   5
  -8  -1   6 1339.67 225.533   5
  -8   1   5 48269.8 1201.80   5
  -8  -1   5 47217.4 1191.72   5
  -8   1   4 5456.27 841.589   1
  -8   1   4 5619.02 409.447   5
  -8  -1   4 5376.70 413.768   5
  -8  -1   4 4174.34 745.487   1
  -8   1   3 505.890 273.479   1
  -8   1   3 328.169 120.086   5
  -8  -1   3 195.263 107.883   5
  -8  -1   3 231.274 123.349   4
  -8   1   3 242.035 115.747   4
  -8   1   2 94.8942 177.524   1
  -8  -1   2 160.755 190.970   1
  -8  -1   2 308.694 129.417   4
  -8   1   2 420.495 115.074   4
  -8  -1   1 1074.38 349.678   1
  -8   1   1 369.007 294.767   1
  -8  -1   1 718.410 167.878   4
  -8   1   1 1063.59 191.482   4
   8   1   0 6311.15 739.403   9
  -8  -1   0 5650.82 759.388   1
  -8  -1   0 5371.29 391.477   4
  -8   1   0 5546.96 395.411   4
  -8   1  -1 8.19326 114.163   2
   8   1   1-275.454 317.510   9
   8  -1   1-38.3075 249.648   9
  -8  -1  -1 8.49063 113.281   4
   8   1   2 17548.4 1152.75   9
   8  -1   2 18672.8 1057.98   9
  -8   1  -2 15632.3 1429.27   2
   8   1   3 8204.86 801.682   9
   8  -1   3 8233.55 699.727   9
   8   1   4 42327.8 1701.43   9
   8  -1   4 41938.0 1521.43   9
   8   1   5 58897.4 1975.30   9
   8  -1   5 59182.6 1783.91   9
   8   1   6 1588.18 397.546   9
   8  -1   6 1233.28 358.348   9
   8   1   7 21312.5 1163.49   9
   8  -1   7 20996.7 1058.33   9
   8   1   8 138.054 132.706  10
   8   1   8 84.6621 222.450   9
   8  -1   8 286.859 219.749   9
   8   1   9 1843.46 223.780  10
   8   1   9 2006.37 345.746   9
   8  -1   9 1978.38 330.642   9
   8   1  10 712.182 130.661  10
   8   1  10 857.291 232.021   9
   8  -1  10 712.482 238.079   9
  -8  -2  13 422.528 85.8040  11
  -8  -2  12 2002.69 204.264  11
  -8   2  11 5.77561 100.226   5
  -8  -2  11 122.636 106.074   5
  -8   2  10-110.946 97.0082   8
  -8   2  10-31.7624 107.447   5
  -8  -2  10-12.9442 116.033   5
  -8   2   9 27.9034 94.4111   8
  -8   2   9 295.533 129.103   5
  -8  -2   9 250.314 150.483   5
  -8   2   8 1994.21 251.964   8
  -8   2   8 1628.89 256.470   5
  -8  -2   8 1800.53 248.011   5
  -8   2   7 31794.1 970.840   5
  -8  -2   7 31989.6 977.004   5
  -8   2   7 31522.7 924.973   8
  -8   2   6 23384.1 830.254   5
  -8  -2   6 22702.2 824.338   5
  -8   2   6 21736.9 760.066   8
  -8   2   5 48.2189 88.3611   8
  -8   2   5-20.2408 114.270   5
  -8  -2   5 5.82778 123.500   5
  -8  -2   4 35275.4 2181.64   1
  -8   2   4 35864.3 1023.73   5
  -8  -2   4 34805.7 1016.71   5
  -8   2   3 10.0090 120.896   5
  -8  -2   3-16.7830 135.569   5
  -8   2   3 87.7493 111.371   4
  -8  -2   3 132.867 188.228   1
  -8  -2   2 2962.91 303.261   4
  -8   2   2 3205.00 298.575   4
  -8  -2   1 35172.9 2008.78   1
  -8  -2   1 34680.9 975.591   4
  -8   2   1 36000.3 989.884   4
  -8   2   0 1192.62 210.898   4
   8   2   0 1297.64 397.013   9
   8  -2   0 1118.72 305.645   9
  -8  -2   0 572.470 278.099   1
  -8  -2   0 1227.82 212.289   4
   8   2   1 50007.0 2091.55   9
   8  -2   1 45057.2 1600.01   9
   8   2   2 23660.8 1436.81   9
   8  -2   2 22768.2 1102.82   9
  -8  -2  -2 19623.1 740.513   4
   8   2   3 72403.1 2429.88   9
   8  -2   3 67947.5 1857.29   9
   8   2   4 55754.6 2100.71   9
   8  -2   4 59187.2 1732.08   9
   8  -2   5 3630.77 488.493   9
   8   2   5 2675.86 472.800   9
   8   2   6 52367.1 1930.36   9
   8  -2   6 55195.7 1653.42   9
   8   2   6 49374.5 1210.47  10
   8   2   7 13768.1 969.614   9
   8  -2   7 15061.3 855.192   9
   8   2   7 13176.7 621.568  10
   8   2   8-23.2326 125.534  10
   8   2   8-286.067 269.381   9
   8  -2   8 323.310 209.947   9
   8  -2   9 6840.58 545.374   9
   8   2   9 6524.85 381.552  10
   8   2  10 522.879 127.526  10
   8  -2  10 249.620 170.053   9
  -8  -3  13 1920.12 149.634  11
  -8  -3  12 3524.44 261.615  11
  -8   3  11 726.861 139.778   5
  -8  -3  11 576.107 131.676   5
  -8   3  10 9185.53 469.206   5
  -8  -3  10 8305.56 453.573   5
  -8   3   9 29427.1 880.787   5
  -8  -3   9 27016.3 848.469   5
  -8   3   9 27128.1 840.024   8
  -8   3   8 2681.71 286.213   5
  -8  -3   8 2537.58 279.506   5
  -8   3   8 2724.95 297.789   8
  -8   3   7 8009.11 477.991   5
  -8  -3   7 6628.34 445.742   5
  -8   3   7 6709.03 449.695   8
  -8   3   6 725.271 182.845   8
  -8   3   6 1011.72 190.773   5
  -8  -3   6 760.443 185.144   5
  -8   3   5 56296.5 1256.02   5
  -8  -3   5 52587.0 1234.62   5
  -8   3   5 53673.3 1224.62   8
  -8   3   4 974.233 181.360   8
  -8   3   4 955.216 191.391   5
  -8  -3   4 872.889 178.415   5
  -8  -3   3 20031.8 1625.49   1
  -8   3   3 19626.3 747.705   5
  -8  -3   3 19635.3 767.046   5
  -8   3   3 18434.7 709.130   8
  -8   3   3 20244.1 728.353   4
  -8   3   2 4122.32 336.217   8
  -8  -3   2 4043.38 740.045   1
  -8   3   2 4565.12 353.408   4
  -8   3   1 7217.48 446.809   8
  -8  -3   1 7032.24 447.195   4
  -8   3   1 7379.60 446.445   4
  -8  -3   1 7292.24 921.716   1
  -8   3   0 2064.70 251.320   8
  -8  -3   0 2149.01 252.604   4
   8  -3   1 6278.23 585.296   9
  -8   3  -1 5271.99 386.391   8
  -8  -3  -1 5094.42 379.329   4
   8   3   2 2701.28 519.798   9
   8  -3   2 2644.96 379.632   9
  -8  -3  -2 2395.36 266.364   4
   8   3   3 502.935 321.027   9
   8  -3   3 1312.46 314.292   9
  -8  -3  -3 920.000 182.900   4
   8   3   4 28993.8 1611.96   9
   8  -3   4 27771.9 1161.99   9
   8   3   5 1649.21 246.653  10
   8   3   5 1586.98 441.324   9
   8  -3   5 2433.35 393.347   9
   8   3   6 640.440 191.822  10
   8   3   6 764.345 358.035   9
   8  -3   6 1234.62 342.811   9
   8  -3   7 4485.31 491.483   9
   8   3   7 4132.57 570.067   9
   8   3   7 3662.27 343.251  10
   8   3   8 108.487 123.902  10
   8   3   8-65.8384 219.949   9
   8  -3   8 381.234 245.744   9
   8   3   9 522.901 143.497  10
   8  -3   9 415.555 188.343   9
   8  -3  10 5010.72 404.792   9
   8   3  10 4973.69 287.473  10
  -8  -4  12 334.505 90.1358  11
  -8   4  10-43.3885 85.4691   5
  -8  -4  10 70.4981 84.6344   5
  -8   4  10 12.5095 93.2924   8
  -8   4   9 8707.59 453.344   5
  -8  -4   9 7943.94 440.988   5
  -8   4   9 8525.29 476.461   8
  -8   4   8 8356.90 465.016   5
  -8  -4   8 8302.88 467.288   5
  -8   4   8 8366.01 490.449   8
  -8   4   7 4896.19 363.249   5
  -8  -4   7 3776.11 330.232   5
  -8   4   7 4023.91 346.760   8
  -8   4   6 8831.50 481.483   5
  -8  -4   6 8436.00 483.297   5
  -8   4   6 8487.22 503.511   8
  -8   4   5 35333.7 968.374   5
  -8  -4   5 33685.1 964.571   5
  -8   4   5 33802.6 990.873   8
  -8   4   4 9996.12 515.801   5
  -8  -4   4 9159.05 513.795   5
  -8   4   4 9691.21 536.227   8
  -8   4   3 9642.78 510.651   5
  -8  -4   3 8062.23 473.638   5
  -8   4   3 8312.14 501.634   8
  -8   4   2 15423.1 643.138   5
  -8  -4   2 14354.8 643.179   5
  -8   4   2 14367.0 646.056   8
  -8   4   2 14118.0 604.190   4
  -8   4   1 399.727 143.339   8
  -8   4   1 679.978 170.903   4
  -8   4   0 16889.0 693.456   8
  -8  -4   0 16497.2 657.069   4
  -8   4   0 17932.8 701.718   4
  -8   4  -1 1463.03 240.773   8
  -8  -4  -1 990.219 188.152   4
   8  -4   2 1118.33 284.155   9
   8  -4   3 98808.2 2111.10   9
   8   4   3 86921.2 1678.44  10
   8   4   4 21702.4 1409.43   9
   8  -4   4 20233.6 970.156   9
   8   4   4 17451.1 760.961  10
   8   4   5 44252.7 1934.79   9
   8  -4   5 44067.1 1413.26   9
   8  -4   6 2457.58 380.831   9
   8   4   6 6960.30 509.700  10
   8   4   7 1893.72 261.847  10
   8  -4   7 2339.36 364.806   9
   8   4   8 24.7514 122.690  10
   8  -4   8 364.918 212.037   9
   8   4   9 958.669 174.315  10
   8  -4   9 903.404 203.996   9
   8  -4  10 6823.69 434.244   9
   8   4  10 6806.26 315.933  10
  -8  -5  12 2114.51 176.447  11
  -8  -5  11-109.478 82.0765  12
  -8   5  10 305.847 120.157   8
  -8   5   9 110.044 97.7216   8
  -8  -5   8 14506.9 571.918   5
  -8   5   8 15360.7 652.680   8
  -8   5   7 472.790 149.287   8
  -8   5   6 3371.40 330.540   8
  -8   5   5 1217.12 217.463   8
  -8   5   4 34463.9 1027.70   8
  -8   5   3 739.423 187.087   8
  -8   5   2 3257.16 332.646   8
  -8   5   1 185.106 135.319   8
  -8   5   0 1005.92 171.214   4
  -8   5   0 819.216 199.990   8
  -8   5  -1 7799.35 500.179   8
   8   5   1 7035.17 498.173  10
   8   5   2 7358.50 506.289  10
   8  -5   3 11500.3 715.219   9
   8   5   3 9420.18 581.193  10
   8   5   4 829.754 246.469  10
   8  -5   4 1508.66 308.797   9
   8   5   5 1022.30 229.382  10
   8  -5   5 1955.62 342.689   9
   8  -5   6 3542.47 423.119   9
   8   5   6 2989.17 338.195  10
   8  -5   7 5019.73 454.812   9
   8   5   7 3794.89 352.619  10
   8   5   8-37.6524 118.916  10
   8  -5   8 223.231 169.579   9
   8   5   9 126.366 113.252  10
   8  -5   9 251.652 142.888   9
   8  -5  10 14829.5 580.455   9
  -8  -6  11-1.37464 56.3557  12
  -8   6  10 1166.49 164.875   8
  -8   6   9 1152.94 181.389   8
  -8   6   8 1517.49 223.533   8
  -8   6   7-49.1563 118.599   8
  -8   6   6 23.1784 120.978   8
  -8   6   5 7615.32 493.522   8
  -8   6   4 30248.5 963.164   8
  -8   6   3-77.9929 133.435   8
  -8   6   2 84.2656 133.018   8
  -8   6   1 1363.98 232.761   8
  -8   6   0-62.6381 125.676   8
  -8   6  -1 7246.26 485.661   8
   8   6   1 7992.66 526.908  10
   8   6   2 186.135 151.438  10
  -8   6  -2 411.092 184.579   8
   8   6   3 25260.8 941.949  10
   8  -6   4 4007.57 419.438   9
   8   6   4 3149.85 358.263  10
   8  -6   5 8316.86 576.959   9
   8   6   5 6557.21 483.260  10
   8  -6   6 13754.1 711.786   9
   8   6   6 11176.4 586.747  10
   8  -6   7 13104.3 657.232   9
   8   6   7 11334.8 551.070  10
   8   6   8 1185.13 197.855  10
   8  -6   8 1035.78 202.385   9
   8  -6   9 6170.84 390.906   9
   8   6   9 5514.85 297.079  10
  -8   7  10 4409.11 265.785   8
  -8  -7  10 3991.38 263.042  12
  -8   7   9 4354.29 301.313   8
  -8   7   8 2934.23 274.771   8
  -8   7   7 519.591 156.548   8
  -8   7   6 613.082 171.579   8
  -8   7   5 506.878 145.177   8
  -8   7   4 1094.63 202.800   8
  -8   7   3 7234.44 480.741   8
  -8   7   2-72.2360 155.557   8
  -8   7   1 941.543 200.813   8
  -8   7   0 8642.21 518.679   8
  -8   7  -1 2654.89 305.082   8
  -8   7  -2 1076.49 219.655   8
   8   7   2 944.131 215.254  10
  -8   7  -3 6294.19 431.323   8
   8   7   3 6270.72 480.873  10
   8   7   4 4768.28 415.531  10
   8   7   5-65.8365 143.576  10
   8  -7   5 12.9333 141.463   9
   8   7   6 73.4478 145.156  10
   8  -7   6 281.400 144.024   9
   8   7   7 1369.57 210.254  10
   8  -7   7 1172.93 205.299   9
   8   7   8 11.9218 92.2277  10
   8  -7   8 10.5351 104.841   9
  -8   8  10 737.249 99.5768   8
  -8  -8  10 566.133 93.9377  12
  -8   8   9 1325.25 153.800   8
  -8   8   8 1838.77 204.059   8
  -8   8   7 10843.8 492.900   8
  -8   8   6 10248.0 506.516   8
  -8   8   5 8198.33 472.700   8
  -8   8   4 596.904 154.883   8
  -8   8   3 2317.27 280.568   8
  -8   8   2 4002.61 358.255   8
  -8   8   1 10518.2 568.865   8
  -8   8   0 1472.10 233.606   8
  -8   8  -1 5572.93 415.838   8
  -8   8  -2 2215.63 277.169   8
  -8   8  -3 11516.9 552.014   8
  -8   8  -4 2136.14 249.868   8
   8   8   4 2607.44 302.935  10
  -8   8  -5 4347.21 323.749   8
   8   8   5 3995.62 344.686  10
   8   8   6-65.4444 123.389  10
  -8   8  -6 102.993 85.6655   8
  -8   8  -7 2358.75 197.731   8
   8   8   7 2421.56 227.185  10
  -8   8  -8 327.302 82.6705   8
  -8   9   9 443.209 83.6113   8
  -8  -9   9 390.649 82.9855  12
  -8   9   8 39.3187 66.6283   8
  -8   9   7 2675.39 224.239   8
  -8   9   6 2565.26 238.935   8
  -8   9   5 2710.30 261.342   8
  -8   9   4 516.881 147.338   8
  -8   9   3 4221.68 333.003   8
  -8   9   2 260.525 128.670   8
  -8   9   1 321.960 133.150   8
  -8   9   0 101.315 121.416   8
  -8   9  -1 2312.85 262.620   8
  -8   9  -2 217.872 113.850   8
  -8   9  -3 101.042 108.343   8
  -8   9  -4 688.723 147.902   8
  -8   9  -5 2334.37 207.977   8
  -8   9  -6 477.626 102.793   8
  -8  10   7 79.2729 65.3248   8
  -8  10   6-21.2950 71.9222   8
  -8  10   5 480.633 110.307   8
  -8  10   4 2023.46 206.819   8
  -8  10   3 1922.83 210.924   8
  -8  10   2 807.432 154.178   8
  -8  10   1-15.6730 94.5527   8
  -8  10   0 1148.53 178.693   8
  -8  10  -1 232.334 105.440   8
  -8  10  -2 589.671 129.515   8
  -8  10  -3-18.1636 77.4171   8
  -8  10  -4-38.7927 65.9963   8
  -8  10  -5 295.303 74.7589   8
  -8  11   5 2132.00 154.270   8
  -8  11   4 880.603 114.749   8
  -8  11   3-61.1771 66.0808   8
  -8  11   2 110.756 77.9306   8
  -8  11   1 147.065 78.0463   8
  -8  11   0 1402.19 155.243   8
  -8  11  -1 2628.20 195.907   8
  -8  11  -2 1163.25 132.703   8
  -8  11  -3 352.569 74.1976   8
  -9   0  11 68.6428 82.7135   5
  -9   0  10 60.4488 99.0368   5
  -9   0   9-131.154 138.481   5
  -9   0   8 25.9946 129.849   5
  -9   0   7-112.980 122.658   5
  -9   0   6 7237.18 485.945   5
  -9   0   5 9.50080 106.337   5
  -9   0   4 21534.0 832.501   5
  -9   0   3-21.5489 120.900   5
  -9   0   2 6862.05 465.498   4
  -9   0   1 206.822 158.191   4
   9   0   0-338.845 402.188   9
  -9   0   0 38.3951 128.050   4
   9   0   1-212.090 346.352   9
  -9   0  -1-72.5366 135.908   4
   9   0   2 1406.23 340.888   9
  -9   0  -2 1877.18 270.072   4
   9   0   3-320.861 390.938   9
   9   0   4 8829.94 840.323   9
   9   0   5 255.819 326.196   9
   9   0   6 2040.60 424.245   9
   9   0   7-118.341 251.021   9
   9   0   8 1733.70 357.889   9
  -9   0  -8 2014.47 202.573   4
   9   0   9-78.3510 174.121   9
  -9   0  -9 74.5039 54.9621   4
  -9   1  11 1222.92 167.126   5
  -9  -1  11 1305.78 172.908   5
  -9  -1  11 1095.54 150.886  11
  -9   1  10 579.034 153.969   5
  -9  -1  10 459.295 131.420   5
  -9   1   9 9933.73 517.872   5
  -9  -1   9 9695.17 511.517   5
  -9   1   8 27560.2 884.067   5
  -9  -1   8 27381.2 887.312   5
  -9   1   7 1865.27 258.410   5
  -9  -1   7 1947.12 260.369   5
  -9   1   6 2130.09 272.766   5
  -9  -1   6 2126.20 274.025   5
  -9   1   5 17579.6 747.128   5
  -9  -1   5 15875.1 715.247   5
  -9   1   4 10014.7 569.184   5
  -9  -1   4 10660.5 581.927   5
  -9   1   3-0.68402 125.404   5
  -9  -1   3 34.0537 132.083   5
  -9   1   3-92.0192 120.549   4
  -9  -1   2 107.079 121.500   4
  -9   1   2 299.439 152.711   4
  -9  -1   1 194.015 136.692   4
  -9   1   1 158.223 147.787   4
   9  -1   0 4535.70 693.648   9
  -9  -1   0 3576.31 346.777   4
  -9   1   0 3766.54 356.302   4
   9   1   1 15066.1 1229.69   9
   9  -1   1 14263.2 1098.39   9
  -9  -1  -1 13087.0 629.705   4
  -9   1  -1 12634.8 620.422   4
   9  -1   2 22145.7 1311.23   9
  -9  -1  -2 19355.9 766.269   4
   9   1   3-653.385 487.794   9
   9  -1   3-190.875 278.270   9
  -9  -1  -3 45.9410 114.448   4
   9  -1   4 5394.08 658.040   9
   9   1   4 5544.23 735.536   9
  -9  -1  -4 4997.30 391.021   4
  -9  -1  -5 1635.98 233.950   4
   9   1   5 1499.38 427.598   9
   9  -1   5 640.751 291.009   9
  -9  -1  -6 342.900 135.209   4
   9   1   6-1.56220 287.954   9
   9  -1   6 265.588 224.280   9
   9   1   7 207.198 264.886   9
   9  -1   7 79.5121 235.525   9
  -9  -1  -7-40.2987 98.2749   4
   9   1   8 33.8184 219.048   9
   9  -1   8-87.4538 220.689   9
  -9  -1  -8-140.455 78.9676   4
   9   1   9 2403.67 361.100   9
   9  -1   9 1843.53 301.678   9
  -9   1  -9 2209.79 183.083   4
  -9  -2  12 705.786 99.7295  11
  -9   2  11 797.678 133.117   5
  -9  -2  11 775.391 141.971   5
  -9   2  10 1140.02 172.149   5
  -9  -2  10 1271.77 191.785   5
  -9   2   9 58.9433 81.6683   8
  -9   2   9 263.245 133.359   5
  -9  -2   9 255.790 124.807   5
  -9   2   8 915.042 169.766   8
  -9   2   8 776.815 176.571   5
  -9  -2   8 768.906 183.355   5
  -9   2   7 1926.54 226.018   8
  -9   2   7 1436.95 222.007   5
  -9  -2   7 1417.39 227.107   5
  -9   2   6 6232.73 431.114   5
  -9  -2   6 6468.67 449.447   5
  -9   2   5 16399.3 705.611   5
  -9  -2   5 15927.4 704.303   5
  -9   2   4 47983.5 1201.43   5
  -9  -2   4 46521.1 1207.31   5
  -9   2   3 38566.7 1083.45   5
  -9  -2   3 36599.2 1082.51   5
  -9   2   3 37686.7 1044.82   4
  -9   2   2 464.128 162.514   5
  -9   2   2 449.321 157.082   4
  -9  -2   1 3363.38 331.654   4
  -9   2   1 3576.46 339.148   4
  -9  -2   0 22764.4 823.316   4
  -9   2   0 22438.9 830.556   4
  -9   2  -1 215.424 143.752   4
   9  -2   1-67.5585 358.082   9
  -9  -2  -1 277.563 130.537   4
   9   2   2 4223.00 713.129   9
   9  -2   2 3489.51 543.629   9
  -9  -2  -2 2696.13 290.321   4
   9   2   3 4342.60 687.880   9
   9  -2   3 3467.06 524.032   9
  -9  -2  -3 3750.49 340.006   4
   9   2   4 1491.99 498.956   9
   9  -2   4 1078.05 334.799   9
  -9  -2  -4 1129.28 202.797   4
   9  -2   5 5807.33 611.769   9
  -9  -2  -5 5714.04 379.421   4
   9   2   6 3716.70 603.856   9
   9  -2   6 3273.51 497.786   9
  -9  -2  -6 2896.67 256.743   4
   9   2   7 308.759 250.555   9
   9  -2   7 270.561 229.016   9
   9   2   8 5370.19 558.086   9
   9  -2   8 4913.92 492.312   9
   9  -2   9 2051.80 309.586   9
  -9  -3  12 67.4533 51.7575  11
  -9   3  10 3578.37 267.154   5
  -9  -3  10 3460.27 266.450   5
  -9   3  10 3513.92 251.253   8
  -9   3   9 2424.59 244.072   5
  -9  -3   9 2096.69 239.185   5
  -9   3   9 2532.79 246.226   8
  -9   3   8 429.497 128.090   8
  -9   3   8 279.137 122.891   5
  -9  -3   8 109.556 101.757   5
  -9   3   7 2129.28 250.741   8
  -9   3   7 1894.51 243.092   5
  -9  -3   7 1778.18 241.888   5
  -9   3   6 7360.70 455.769   5
  -9  -3   6 6985.30 448.258   5
  -9   3   6 7111.17 434.392   8
  -9   3   5 29643.7 918.089   5
  -9  -3   5 29358.0 924.860   5
  -9   3   5 30826.3 901.037   8
  -9   3   4 6302.91 438.213   5
  -9  -3   4 6027.13 437.942   5
  -9   3   4 5974.38 404.426   8
  -9   3   3 26977.8 892.717   5
  -9  -3   3 26270.1 900.037   5
  -9   3   3 26355.5 836.885   8
  -9   3   3 25985.1 855.703   4
  -9   3   2 2406.98 263.250   8
  -9   3   2 2154.64 268.734   5
  -9  -3   2 2001.94 277.656   5
  -9   3   2 1985.16 257.099   4
  -9   3   1 84.7820 97.2100   8
  -9   3   1 28.2683 130.981   4
  -9  -3   0 3803.32 342.093   4
  -9   3   0 3926.12 352.090   4
   9  -3   1 6676.90 698.530   9
  -9  -3  -1 5430.69 406.456   4
  -9   3  -1 6215.90 446.329   4
   9  -3   2 980.412 330.017   9
  -9  -3  -2 1156.60 199.225   4
   9  -3   3 15821.7 991.202   9
  -9  -3  -3 15032.7 618.602   4
   9   3   4 3107.17 612.243   9
   9  -3   4 2621.29 424.223   9
  -9  -3  -4 2673.28 260.402   4
   9   3   5 3049.77 556.932   9
   9  -3   5 2775.86 441.660   9
   9  -3   6-9.82371 203.290   9
   9  -3   7 4648.12 495.891   9
   9  -3   8-189.325 198.552   9
   9  -3   9 2249.07 300.172   9
  -9   4  10 91.9389 77.6179   5
  -9  -4  10 178.665 81.5252   5
  -9   4  10 319.617 94.2596   8
  -9   4   9 2864.84 240.899   5
  -9  -4   9 2619.29 240.091   5
  -9   4   9 2590.16 239.484   8
  -9   4   8 58.8568 104.145   8
  -9   4   8 24.6077 83.2504   5
  -9  -4   8-72.8587 104.225   5
  -9   4   7 4531.84 338.184   5
  -9  -4   7 4179.87 332.152   5
  -9   4   7 5058.62 372.668   8
  -9   4   6 6379.82 403.914   5
  -9  -4   6 6104.64 398.310   5
  -9   4   6 6353.12 412.654   8
  -9   4   5-48.3878 122.536   8
  -9   4   5-61.0242 106.033   5
  -9  -4   5-36.2804 112.658   5
  -9   4   4 580.576 174.499   8
  -9   4   4 528.905 138.065   5
  -9  -4   4 528.804 159.380   5
  -9   4   3 5461.14 389.386   5
  -9  -4   3 5760.61 409.393   5
  -9   4   3 5357.28 396.217   8
  -9   4   2 2430.59 267.465   5
  -9  -4   2 2444.33 284.730   5
  -9   4   2 2188.45 263.106   8
  -9   4   2 2534.68 271.550   4
  -9   4   1 130.294 107.785   8
  -9   4   1 449.881 147.027   5
  -9  -4   1 324.160 146.628   5
  -9   4   1 260.783 133.493   4
  -9   4   0 181.894 131.376   8
  -9   4   0-119.025 109.752   4
  -9   4  -1 40.2349 119.581   4
  -9   4  -1 34.5839 127.991   8
   9  -4   2 1212.99 277.149   9
  -9   4  -2 1148.48 207.305   8
   9  -4   3 191.496 201.163   9
  -9   4  -3 245.910 142.823   8
   9  -4   4 14341.3 882.030   9
   9  -4   5 15606.9 886.393   9
   9   4   6 1891.39 243.032  10
   9  -4   6 1527.27 301.801   9
   9  -4   7 16480.8 826.710   9
   9   4   7 15410.5 561.188  10
   9   4   8 647.017 121.798  10
   9  -4   8 581.640 196.471   9
   9  -4   9 1593.13 237.690   9
  -9   5  10 9303.78 378.736   8
  -9   5   9 1777.09 199.790   8
  -9   5   8 2024.18 232.428   8
  -9  -5   7 291.689 95.9005   5
  -9   5   7 399.360 145.539   8
  -9  -5   6 3399.49 287.882   5
  -9   5   6 3333.12 314.938   8
  -9  -5   5 4927.21 348.780   5
  -9   5   5 5495.46 403.713   8
  -9   5   4 591.125 172.850   8
  -9  -5   4 582.268 121.527   5
  -9   5   3 78.3809 117.697   8
  -9  -5   3 199.124 116.657   5
  -9   5   2 115.329 125.689   8
  -9  -5   2 146.146 98.7067   5
  -9   5   1-130.761 147.978   8
  -9  -5   1-79.5524 94.7079   5
  -9   5   1-39.3017 93.1422   4
  -9   5   0 5302.85 397.505   8
  -9   5   0 5879.27 395.826   4
  -9   5  -1 1353.71 216.661   8
  -9   5  -1 1170.82 193.343   4
  -9   5  -2 24990.3 832.327   8
   9   5   3 218.629 146.667  10
   9  -5   3 947.004 291.981   9
  -9   5  -3 631.464 160.358   8
   9  -5   4 3868.56 463.705   9
  -9   5  -4 3433.24 308.251   8
   9   5   4 3027.57 304.794  10
   9   5   5 73.4458 111.715  10
   9  -5   5 205.956 192.953   9
   9  -5   6 13453.6 746.459   9
   9   5   6 12800.0 544.988  10
   9  -5   7 3475.24 381.031   9
  -9   5  -7 3586.66 246.577   8
   9   5   7 3561.59 269.084  10
   9   5   8-83.6186 82.6473  10
   9  -5   8-241.731 163.786   9
  -9   5  -8-23.5569 55.5403   8
  -9   6  10-1.10032 66.6094   8
  -9  -6  10 137.097 71.9893  12
  -9   6   9 643.100 123.762   8
  -9   6   8 2489.75 236.965   8
  -9   6   7 973.680 169.408   8
  -9   6   6 277.100 122.260   8
  -9   6   5 149.787 111.054   8
  -9   6   4 6018.75 421.650   8
  -9   6   3 2422.79 283.121   8
  -9   6   2 67.1262 138.144   8
  -9   6   1 1624.61 235.152   8
  -9   6   0 2407.85 277.572   8
  -9   6  -1 2350.92 278.641   8
  -9   6  -1 2336.20 249.495   4
  -9   6  -2 67.2858 129.480   8
  -9   6  -2 84.7429 117.937   4
  -9   6  -3 1353.76 211.951   8
   9   6   3 1019.49 177.612  10
  -9   6  -4 14796.4 596.604   8
   9   6   4 14967.3 642.439  10
   9  -6   5 3525.78 380.585   9
  -9   6  -5 4066.18 305.008   8
   9   6   5 3393.10 298.098  10
  -9   6  -6 35430.0 789.737   8
   9   6   6 35615.8 861.345  10
   9   6   7 771.224 131.204  10
   9  -6   7 898.754 192.603   9
  -9   6  -7 816.733 125.751   8
  -9   6  -8 551.433 87.7570   4
  -9   7   9 1845.78 168.816   8
  -9   7   8 932.391 154.918   8
  -9   7   7 7842.91 406.046   8
  -9   7   6 5941.54 376.796   8
  -9   7   5 4791.58 350.763   8
  -9   7   4 2287.02 267.848   8
  -9   7   3 12899.5 590.215   8
  -9   7   2 391.540 161.722   8
  -9   7   1 2138.05 262.606   8
  -9   7   0 1194.92 209.486   8
  -9   7  -1 291.990 139.508   8
  -9   7  -2 89.0342 116.395   8
  -9   7  -3 1226.55 190.665   8
  -9   7  -3 1064.76 157.368   4
  -9   7  -4 395.827 116.541   8
  -9   7  -4 296.398 111.764   4
  -9   7  -5 5935.87 333.608   8
  -9   7  -5 5718.53 301.190   4
  -9   7  -6 7601.80 341.935   8
  -9   7  -6 8067.96 327.105   4
  -9   7  -7 1626.25 141.196   8
  -9   7  -7 1804.81 139.797   4
  -9   8   9-26.1108 51.2447   8
  -9  -8   9 31.6525 57.8731  12
  -9   8   8 1097.92 137.556   8
  -9   8   7 869.552 136.375   8
  -9   8   6-6.18852 90.0654   8
  -9   8   5 3982.78 297.713   8
  -9   8   4 522.891 143.402   8
  -9   8   3 2549.66 262.212   8
  -9   8   2 2940.11 291.662   8
  -9   8   1 1891.75 235.517   8
  -9   8   0 14558.4 596.802   8
  -9   8  -1 674.198 155.466   8
  -9   8  -2 388.968 122.618   8
  -9   8  -3 1808.69 208.463   8
  -9   8  -4 3798.15 266.262   8
  -9   8  -5 1400.65 156.476   8
  -9   8  -6 1200.11 128.331   8
  -9   9   7 1247.11 133.486   8
  -9   9   6 46.1679 69.8705   8
  -9   9   5 1268.70 164.481   8
  -9   9   4 2964.19 239.717   8
  -9   9   3 608.195 139.174   8
  -9   9   2 4206.42 304.093   8
  -9   9   1 6548.66 369.706   8
  -9   9   0 1876.03 220.203   8
  -9   9  -1 182.930 104.145   8
  -9   9  -2-65.7958 84.0490   8
  -9   9  -3 291.972 98.0999   8
  -9   9  -4 8.46387 69.2338   8
  -9   9  -5 2748.28 176.319   8
  -9  10   5 199.290 73.3392   8
  -9  10   4 164.610 75.0605   8
  -9  10   3 1.22118 65.6632   8
  -9  10   2 142.696 80.3981   8
  -9  10   1 4129.89 258.124   8
  -9  10   0 48.8002 73.0575   8
  -9  10  -1 120.578 70.7011   8
  -9  10  -2 344.434 90.5030   8
  -9  10  -3 2162.35 159.484   8
 -10   0  11-43.4577 61.9046   5
 -10   0  10 12544.1 473.285   5
 -10   0   9-6.94891 94.6113   5
 -10   0   8 1857.60 235.171   5
 -10   0   7 98.2530 122.023   5
 -10   0   6 10347.1 552.056   5
 -10   0   5 119.659 144.674   5
 -10   0   4 3771.26 362.983   5
 -10   0   3 1.36470 130.931   5
 -10   0   2 2205.37 294.412   5
 -10   0   2 1893.07 261.008   4
 -10   0   1-106.180 142.047   4
 -10   0   0 28117.4 918.290   4
 -10   0  -1 28.5672 124.138   4
  10   0   2 976.691 402.170   9
 -10   0  -2 387.372 134.060   4
  10   0   3-258.859 370.584   9
 -10   0  -3-69.7368 128.678   4
  10   0   4 8285.67 854.220   9
 -10   0  -4 6679.00 430.868   4
  10   0   5-72.8717 301.371   9
 -10   0  -5 61.9658 111.878   4
  10   0   6-181.553 285.345   9
 -10   0  -6-19.7386 85.1802   4
  10   0   7-126.820 239.772   9
 -10   0  -7 95.3165 81.6920   4
  10   0   8 12572.4 744.789   9
 -10   0  -8 9594.30 311.925   4
 -10   1  11 5957.96 277.609   5
 -10  -1  11 5689.82 270.673   5
 -10   1  10 7074.93 352.693   5
 -10  -1  10 6777.58 344.310   5
 -10   1   9 39.2260 90.4313   5
 -10  -1   9 92.5976 99.0754   5
 -10   1   8-51.0827 104.146   5
 -10  -1   8 4.69123 100.275   5
 -10   1   7 6984.03 435.764   5
 -10  -1   7 7019.01 439.110   5
 -10   1   6 991.920 195.709   5
 -10  -1   6 934.194 194.566   5
 -10   1   5 21249.6 788.389   5
 -10  -1   5 20981.4 789.848   5
 -10   1   4 15659.0 690.604   5
 -10  -1   4 15044.0 688.977   5
 -10   1   3-64.7435 125.548   5
 -10  -1   3 114.116 148.248   5
 -10   1   2 934.288 203.511   5
 -10  -1   2 527.534 196.464   5
 -10   1   2 626.252 168.723   4
 -10  -1   1 14960.5 679.843   4
 -10   1   1 14147.3 656.229   4
 -10  -1   0 238.954 133.614   4
 -10   1   0 233.057 161.482   4
 -10  -1  -1 9595.50 537.154   4
 -10   1  -1 9561.78 544.703   4
 -10  -1  -2 10566.7 548.288   4
 -10   1  -2 10646.4 568.119   4
  10   1   3 14881.2 1179.21   9
  10  -1   3 14393.9 1103.26   9
 -10  -1  -3 10975.9 551.996   4
 -10   1  -3 11341.0 580.266   4
 -10  -1  -4 2988.38 286.116   4
 -10   1  -4 3031.79 299.878   4
  10   1   5 600.365 351.292   9
  10  -1   5 676.223 307.977   9
 -10  -1  -5 583.144 146.094   4
 -10   1  -5 728.920 153.013   4
  10   1   6 3428.95 548.167   9
  10  -1   6 2782.58 479.108   9
 -10  -1  -6 2529.96 227.409   4
 -10   1  -6 2200.53 226.346   4
 -10  -1  -7 3900.04 234.045   4
 -10   1  -7 3782.30 256.869   4
  10  -1   8 30.3181 190.980   9
 -10   1  -8 56.7315 65.1222   4
 -10   2  10 4753.99 279.053   5
 -10  -2  10 4326.99 269.849   5
 -10   2   9 11368.9 470.508   5
 -10  -2   9 11198.6 472.777   5
 -10   2   8 177.746 116.862   5
 -10  -2   8 120.889 107.821   5
 -10   2   7 580.179 155.891   5
 -10  -2   7 425.937 139.800   5
 -10   2   6 6341.21 418.807   5
 -10  -2   6 6316.13 421.289   5
 -10   2   5 432.739 157.978   5
 -10  -2   5 473.800 162.112   5
 -10   2   4 128.278 136.706   5
 -10  -2   4-36.0332 122.908   5
 -10   2   3 5825.84 422.442   5
 -10  -2   3 5684.97 425.599   5
 -10   2   2 48.9480 129.335   5
 -10  -2   2 37.2613 118.360   5
 -10   2   2 122.940 127.150   4
 -10   2   1 1444.67 251.972   5
 -10   2   1 926.127 197.374   4
 -10  -2   0 34910.2 1006.64   4
 -10   2   0 35614.9 1012.28   4
 -10  -2  -1 2534.31 277.578   4
 -10   2  -1 2735.29 295.697   4
 -10  -2  -2 5474.83 393.509   4
 -10   2  -2 5703.07 417.417   4
 -10  -2  -3 39096.4 988.280   4
 -10   2  -3 38971.6 1039.14   4
  10  -2   4 2597.67 487.114   9
 -10  -2  -4 3172.71 282.635   4
 -10   2  -4 2873.91 296.425   4
 -10  -2  -5 20083.3 622.411   4
 -10   2  -5 19978.0 691.848   4
 -10   2  -6 355.108 131.106   4
  10  -2   6 96.7583 221.667   9
  10  -2   7 473.578 252.472   9
 -10   2  -7 598.049 125.117   4
  10  -2   8 6934.45 538.268   9
 -10   2  -8 5247.53 250.543   4
 -10   3  10 1027.90 127.261   5
 -10  -3  10 1175.85 139.432   5
 -10   3   9 789.456 131.690   5
 -10  -3   9 743.428 139.321   5
 -10   3   8 2147.60 220.700   5
 -10  -3   8 2008.28 221.445   5
 -10   3   7 392.595 128.457   5
 -10  -3   7 411.215 120.386   5
 -10   3   6 1321.34 197.306   5
 -10  -3   6 1362.46 205.033   5
 -10   3   5 6790.77 430.774   5
 -10  -3   5 6237.59 416.170   5
 -10   3   4 17991.4 695.521   5
 -10  -3   4 17090.2 699.572   5
 -10   3   3-97.0783 129.149   5
 -10  -3   3 85.1640 118.477   5
 -10   3   2 279.777 120.252   5
 -10  -3   2 292.376 148.195   5
 -10   3   2 379.112 143.862   4
 -10   3   1 4402.11 364.993   5
 -10  -3   1 4055.95 369.539   5
 -10   3   1 3994.38 346.697   4
 -10   3   0 25.0000 124.210   4
  10  -3   1 5759.67 686.710   9
 -10   3  -1 4108.69 353.635   4
 -10  -3  -2 8556.41 466.333   4
 -10   3  -2 9073.22 511.877   4
  10  -3   3 15486.0 1032.92   9
 -10  -3  -3 13825.4 559.701   4
 -10   3  -3 13667.8 607.919   4
  10  -3   4 3120.34 472.929   9
 -10  -3  -4 2922.05 248.994   4
 -10   3  -4 2667.04 283.363   4
 -10   3  -5-16.9424 98.1865   4
  10  -3   5 219.434 243.259   9
 -10   3  -6 126.550 100.204   4
  10  -3   6 57.5153 207.419   9
  10  -3   7 2850.21 378.805   9
 -10   3  -7 2398.42 203.968   4
  10  -3   8 115.424 154.360   9
 -10   3  -8 117.889 62.5351   4
 -10   4   9 1421.54 144.031   5
 -10  -4   9 1311.34 143.102   5
 -10   4   9 1012.60 129.209   8
 -10   4   8 778.892 123.764   8
 -10   4   8 951.007 138.860   5
 -10  -4   8 790.437 132.631   5
 -10   4   7 21603.3 645.695   5
 -10  -4   7 21063.0 650.455   5
 -10   4   7 22382.9 653.666   8
 -10   4   6 3895.34 295.818   5
 -10  -4   6 3675.36 296.493   5
 -10   4   6 4416.60 314.596   8
 -10   4   5 61.1616 108.102   8
 -10   4   5-89.2097 90.1676   5
 -10  -4   5-37.0226 102.129   5
 -10   4   4 1885.10 220.780   8
 -10   4   4 1415.33 195.043   5
 -10  -4   4 1388.51 206.576   5
 -10   4   3 341.108 131.580   8
 -10   4   3 92.5232 91.5217   5
 -10  -4   3 194.790 125.612   5
 -10   4   2 690.867 144.093   8
 -10   4   2 956.564 178.597   5
 -10  -4   2 892.150 179.238   5
 -10   4   2 1004.39 183.328   4
 -10   4   1 2872.45 276.456   5
 -10  -4   1 2690.70 285.901   5
 -10   4   1 2589.24 257.874   8
 -10   4   1 2979.79 285.398   4
 -10  -4   0 1945.55 262.084   5
 -10   4   0 1793.16 219.690   8
 -10   4   0 1884.16 230.815   5
 -10   4   0 1909.95 237.862   4
 -10   4  -1 14607.1 581.241   8
 -10   4  -1 15105.7 625.374   4
  10  -4   2 269.861 258.543   9
 -10   4  -2 585.291 139.250   8
 -10   4  -2 233.622 135.525   4
  10  -4   3 2403.05 419.936   9
 -10   4  -3 2413.39 254.070   4
  10  -4   4 20332.2 1070.15   9
 -10   4  -4 17708.1 640.165   4
 -10   4  -5 40.4535 104.518   4
  10  -4   5 100.684 209.933   9
  10  -4   6 13.2974 209.253   9
 -10   4  -6 72.5315 81.3002   4
  10  -4   7 664.579 213.263   9
 -10   4  -7 568.484 101.018   4
 -10   5   9 2.05593 57.8149   8
 -10   5   8 399.865 97.2636   8
 -10   5   7 3404.36 258.033   8
 -10  -5   6 12746.8 478.734   5
 -10   5   6 13292.9 524.252   8
 -10   5   5 1532.03 206.205   8
 -10  -5   5 1234.45 166.411   5
 -10  -5   4 8841.40 430.902   5
 -10   5   4 8625.86 447.924   8
 -10   5   3 195.181 135.438   8
 -10  -5   3-1.42789 98.7701   5
 -10   5   2 60.2054 97.2582   8
 -10  -5   2 5.43859 94.1583   5
 -10   5   1 391.482 136.493   8
 -10  -5   1 192.285 110.465   5
 -10   5   1 399.928 121.038   4
 -10   5   0 1341.76 192.950   8
 -10  -5   0 1444.01 209.881   5
 -10   5   0 832.059 154.826   4
 -10   5  -1 140.816 103.231   8
 -10  -5  -1 273.631 103.748   5
 -10   5  -1 171.630 109.041   4
 -10   5  -2 5662.81 361.826   8
 -10   5  -2 4894.50 343.897   4
 -10   5  -3 3152.69 259.381   8
 -10   5  -3 2771.38 256.649   4
  10  -5   4 6103.17 561.601   9
 -10   5  -4 5346.41 312.387   8
 -10   5  -4 5765.57 347.958   4
 -10   5  -5 230.864 83.6207   8
 -10   5  -5 302.665 102.268   4
  10  -5   6 536.352 193.453   9
 -10   5  -6 335.276 94.3787   4
  10  -5   7 16.0072 142.896   9
 -10   5  -7 28.8559 61.5757   4
 -10   6   9 1147.13 115.192   8
 -10   6   8 3418.31 220.472   8
 -10   6   7 7887.74 363.744   8
 -10   6   6 3654.52 270.543   8
 -10   6   5 833.961 157.517   8
 -10   6   4 3146.98 278.242   8
 -10   6   3 439.392 135.877   8
 -10   6   2 41.9272 107.287   8
 -10   6   1 136.227 111.786   8
 -10   6   0 1986.84 222.207   8
 -10   6  -1 5902.74 364.248   8
 -10   6  -1 4697.25 299.114   4
 -10   6  -2 6423.90 366.095   8
 -10   6  -2 5813.94 326.911   4
 -10   6  -3 1017.44 153.642   8
 -10   6  -3 1254.04 161.465   4
 -10   6  -4 8177.60 366.747   8
 -10   6  -4 8292.96 364.672   4
 -10   6  -5 7778.87 321.146   8
 -10   6  -5 7567.98 324.281   4
 -10   6  -6 1333.52 128.457   4
 -10   7   8 200.304 62.4629   8
 -10   7   7 6506.37 304.162   8
 -10   7   6 324.159 96.4520   8
 -10   7   5 601.810 128.715   8
 -10   7   4 495.659 125.922   8
 -10   7   3 301.769 114.543   8
 -10   7   2 1435.09 198.121   8
 -10   7   1 198.245 105.623   8
 -10   7   0 624.494 138.685   8
 -10   7  -1 942.217 157.601   8
 -10   7  -2-88.7130 82.8421   8
 -10   7  -3 2701.55 225.582   8
 -10   7  -4 1266.36 146.174   8
 -10   7  -4 970.562 113.839   4
 -10   7  -5 461.412 81.8288   8
 -10   8   7 5578.46 237.663   8
 -10   8   6 1250.35 132.431   8
 -10   8   5 2266.47 195.401   8
 -10   8   4 355.862 97.1183   8
 -10   8   3-126.586 90.1169   8
 -10   8   2 8326.27 388.892   8
 -10   8   1-83.2566 93.3153   8
 -10   8   0 6271.56 334.308   8
 -10   8  -1 2875.64 224.326   8
 -10   8  -2 17.8830 67.7615   8
 -10   8  -3 26453.5 577.023   8
 -10   8  -4 6047.62 249.743   8
 -10   9   5 2361.38 160.166   8
 -10   9   4-76.2240 57.5429   8
 -10   9   3 565.741 103.596   8
 -10   9   2-112.575 67.4068   8
 -10   9   1 6084.01 292.043   8
 -10   9   0 324.990 87.5452   8
 -10   9  -1 91.1655 60.7257   8
 -10   9  -2 1337.67 128.881   8
 -11   0  10 145.876 62.9003   5
 -11   0   9-51.7128 69.6067   5
 -11   0   8 368.877 115.106   5
 -11   0   7-87.6896 98.1879   5
 -11   0   6 15.8407 97.0822   5
 -11   0   5-53.3040 113.885   5
 -11   0   4 2432.08 269.728   5
 -11   0   3 10.0133 128.693   5
 -11   0   2 718.038 179.084   5
 -11   0   1-12.8363 138.003   5
 -11   0   0 2661.31 298.693   5
 -11   0   0 2502.52 282.623   4
 -11   0  -1-41.1520 123.104   4
 -11   0  -2 819.483 173.070   4
 -11   0  -3 56.3211 106.275   4
 -11   0  -4 6117.61 351.052   4
 -11   0  -5-22.2340 83.6097   4
 -11   0  -6 2279.36 174.295   4
 -11   1  10 5492.90 238.486   5
 -11  -1  10 5293.94 237.571   5
 -11   1   9 14.7893 69.6834   5
 -11  -1   9 156.982 81.7807   5
 -11   1   8 6174.21 335.808   5
 -11  -1   8 6137.15 337.246   5
 -11   1   7 289.217 118.549   5
 -11  -1   7 357.848 125.151   5
 -11   1   6 48.6242 91.8533   5
 -11  -1   6-18.6098 99.5110   5
 -11   1   5 1157.87 193.701   5
 -11  -1   5 1432.35 205.639   5
 -11   1   4 845.767 189.240   5
 -11  -1   4 647.730 168.923   5
 -11   1   3 663.663 156.708   5
 -11  -1   3 656.818 166.312   5
 -11   1   2 937.183 191.724   5
 -11  -1   2 753.181 184.048   5
 -11   1   1 4934.37 386.757   5
 -11  -1   1 4869.71 385.846   5
 -11   1   1 4822.14 380.275   4
 -11   1   0 1508.40 239.235   5
 -11  -1   0 1204.58 207.349   5
 -11   1   0 1464.01 218.443   4
 -11  -1  -1 2980.04 286.044   4
 -11   1  -1 2645.05 273.502   4
 -11  -1  -2 6459.24 394.508   4
 -11   1  -2 6355.60 402.725   4
 -11  -1  -3 1320.96 190.819   4
 -11   1  -3 1242.69 182.168   4
 -11  -1  -4-41.6214 76.3165   4
 -11   1  -4 51.2659 97.7031   4
 -11  -1  -5 425.858 103.758   4
 -11   1  -5 401.950 99.2481   4
 -11  -1  -6 2771.89 173.972   4
 -11   1  -6 3221.51 210.877   4
 -11   2   9-48.4562 61.2416   5
 -11  -2   9 4.25475 57.6588   5
 -11   2   8 388.574 98.3127   5
 -11  -2   8 487.366 113.875   5
 -11   2   7 3336.31 259.892   5
 -11  -2   7 3298.82 262.169   5
 -11   2   6-9.89841 90.9423   5
 -11  -2   6 168.887 104.134   5
 -11   2   5 1780.80 217.143   5
 -11  -2   5 1671.88 219.736   5
 -11   2   4 3543.54 306.454   5
 -11  -2   4 3687.31 314.448   5
 -11   2   3-56.4942 107.236   5
 -11  -2   3 27.5053 111.606   5
 -11   2   2 3053.86 295.628   5
 -11  -2   2 3476.26 325.937   5
 -11   2   1 854.191 170.508   5
 -11  -2   1 1034.10 201.502   5
 -11   2   1 819.643 166.418   4
 -11   2   0 4733.69 357.054   5
 -11  -2   0 5117.39 388.262   5
 -11   2   0 4692.95 351.783   4
 -11   2  -1 577.719 154.156   4
 -11   2  -2 527.882 153.155   4
 -11  -2  -3 10767.8 459.061   4
 -11   2  -3 10792.1 486.784   4
  11  -2   4 1966.34 402.058   9
 -11  -2  -4 1573.94 168.598   4
 -11   2  -4 1429.76 181.207   4
  11  -2   5 2211.52 379.331   9
 -11   2  -5 1876.15 188.412   4
 -11   2  -6 130.120 64.3266   4
 -11  -3   9 62.5158 46.1723   5
 -11   3   8-21.7708 57.6001   5
 -11  -3   8 37.7912 62.6987   5
 -11   3   7 265.644 96.8933   5
 -11  -3   7 151.147 80.7882   5
 -11   3   6 51.1708 77.6940   5
 -11  -3   6 238.347 106.190   5
 -11   3   5 19.4102 83.3489   5
 -11  -3   5-115.695 93.4779   5
 -11   3   4 754.932 139.363   5
 -11  -3   4 732.648 150.555   5
 -11   3   3 2601.65 251.622   5
 -11  -3   3 2591.63 262.046   5
 -11   3   2 3009.68 276.283   5
 -11  -3   2 3264.01 292.813   5
 -11   3   1 314.915 127.520   5
 -11  -3   1 201.729 109.264   5
 -11   3   1 567.139 148.654   4
 -11   3   0 536.285 132.264   5
 -11  -3   0 792.019 179.551   5
 -11   3   0 544.839 149.479   4
 -11   3  -1 362.800 127.693   5
 -11  -3  -1 185.713 123.777   5
 -11   3  -1 261.970 111.540   4
 -11   3  -2 5276.99 344.323   4
 -11   3  -3 158.510 96.1834   4
  11  -3   4 161.092 222.313   9
 -11   3  -4 200.975 95.0703   4
  11  -3   5 87.9779 189.983   9
 -11   3  -5-73.9855 80.0075   4
 -11   3  -6 2058.18 156.183   4
 -11  -4   8 416.492 81.5340   5
 -11   4   7 1123.21 128.849   5
 -11  -4   7 1234.75 131.166   5
 -11   4   6 2312.85 197.252   5
 -11  -4   6 2309.65 201.134   5
 -11   4   5 12624.8 458.316   5
 -11  -4   5 11809.7 465.057   5
 -11   4   4 12576.6 475.214   5
 -11  -4   4 12874.4 504.467   5
 -11   4   3 2472.33 222.015   5
 -11  -4   3 2304.61 226.565   5
 -11   4   2 3105.33 250.221   5
 -11  -4   2 3560.97 286.069   5
 -11   4   1 153.655 95.9351   5
 -11  -4   1 314.004 95.3041   5
 -11   4   0 1121.65 153.320   5
 -11  -4   0 1121.18 180.217   5
 -11   4   0 1198.62 172.376   4
 -11   4  -1 8.65258 73.2711   5
 -11  -4  -1 26.6109 100.296   5
 -11   4  -1 66.2406 112.515   4
 -11   4  -2 894.804 143.841   5
 -11  -4  -2 895.070 153.666   5
 -11   4  -2 959.271 158.160   4
 -11   4  -3 657.474 123.542   5
 -11  -4  -3 644.729 131.529   5
 -11   4  -3 681.779 130.682   4
 -11   4  -4 1005.84 123.411   5
 -11   4  -4 1248.08 154.911   4
 -11  -4  -5 9122.81 325.954   5
 -11   4  -5 12713.6 403.450   4
 -11   4  -6 1745.73 136.401   4
 -11   5   6 35281.6 648.170   8
 -11   5   5 13371.5 433.689   8
 -11   5   4 3658.75 242.195   8
 -11   5   3 1782.74 182.038   8
 -11   5   2 549.908 111.366   8
 -11  -5   2 602.126 119.412   5
 -11   5   1 99.2997 69.8904   8
 -11  -5   1-49.3774 91.8874   5
 -11  -5   0 1064.71 146.724   5
 -11   5  -1 171.251 96.2366   4
 -11   5  -2 2240.82 197.869   4
 -11   5  -3 502.188 105.187   4
 -11   5  -4 417.417 95.1581   4
 -11   5  -5 648.098 92.6141   4
 -11   6   6 2311.52 162.657   8
 -11   6   5 9636.67 347.463   8
 -11   6   4 138.001 76.7790   8
 -11   6   3 30.9286 76.3079   8
 -11   6   2 641.779 106.451   8
 -11   6   1 205.189 87.6730   8
 -11   6   0 2849.52 207.996   8
 -11   6  -1 1.69893 69.2448   8
 -11   6  -2 1938.52 154.412   8
 -11   6  -2 1726.87 148.481   4
 -11   6  -3 92.7937 62.6811   4
 -11   7   5 8670.28 296.292   8
 -11   7   4 107.318 60.5852   8
 -11   7   3 417.991 91.2741   8
 -11   7   2 141.007 75.3703   8
 -11   7   1 35.8184 62.8832   8
 -11   7   0 938.048 116.400   8
 -11   7  -1-3.26473 55.6790   8
 -12   0   8 1018.30 113.395   5
 -12   0   7-44.0494 67.1188   5
 -12   0   6 5252.02 292.752   5
 -12   0   5 8.32498 81.2594   5
 -12   0   4 7.75574 91.1575   5
 -12   0   3-39.1606 96.4560   5
 -12   0   2 43.1758 90.6899   5
 -12   0   1 69.2217 100.225   5
 -12   0   0 19407.6 628.905   5
 -12   0  -1-174.964 101.158   5
 -12   0  -2 6542.13 352.265   5
 -12   0  -3 38.9171 77.2586   5
 -12   0  -4 3390.85 225.469   5
 -12   1   8 697.536 91.8247   5
 -12  -1   8 619.406 89.0939   5
 -12   1   7 1315.38 139.482   5
 -12  -1   7 1281.92 143.624   5
 -12   1   6 469.027 104.717   5
 -12  -1   6 559.369 112.154   5
 -12   1   5 57.2237 76.6493   5
 -12  -1   5 35.7649 76.8907   5
 -12   1   4 642.358 129.716   5
 -12  -1   4 1012.07 157.187   5
 -12   1   3 1202.14 165.935   5
 -12  -1   3 1097.54 165.987   5
 -12   1   2 1947.35 210.871   5
 -12  -1   2 2194.66 224.998   5
 -12   1   1 118.234 99.2984   5
 -12  -1   1 185.086 105.328   5
 -12   1   0 70.2422 86.9328   5
 -12  -1   0 216.236 115.937   5
 -12   1  -1 10194.6 439.793   5
 -12  -1  -1 10906.1 458.899   5
 -12   1  -2 1157.86 156.918   5
 -12  -1  -2 1269.86 170.014   5
 -12   1  -3 450.606 101.439   5
 -12  -1  -3 325.988 99.1301   5
 -12   1  -3 421.116 99.2622   4
 -12   1  -4 143.808 76.3556   5
 -12  -1  -4 59.4921 64.3481   5
 -12   1  -4 52.3299 60.3106   4
 -12   2   7 8599.71 311.558   5
 -12  -2   7 8790.29 322.710   5
 -12   2   6 257.021 80.0940   5
 -12  -2   6 346.348 93.5576   5
 -12   2   5 232.312 86.0557   5
 -12  -2   5 235.416 95.2019   5
 -12   2   4 422.806 107.001   5
 -12  -2   4 432.574 120.531   5
 -12   2   3 1955.11 197.561   5
 -12  -2   3 2051.74 201.117   5
 -12   2   2 2918.24 239.969   5
 -12  -2   2 3073.22 251.696   5
 -12   2   1 6341.53 347.342   5
 -12  -2   1 6066.29 347.539   5
 -12   2   0 1072.32 154.682   5
 -12  -2   0 1024.41 154.966   5
 -12   2  -1 14316.0 491.020   5
 -12  -2  -1 15213.5 524.591   5
 -12   2  -2 3579.72 242.981   5
 -12  -2  -2 3731.19 258.889   5
 -12   2  -2 3818.14 253.685   4
 -12   2  -3 8058.03 328.349   5
 -12  -2  -3 8356.64 346.787   5
 -12   2  -3 8928.46 354.195   4
 -12   2  -4 5187.64 234.365   5
 -12  -2  -4 5066.43 250.611   5
 -12   2  -4 5865.47 259.002   4
 -12   3   6 7366.46 284.447   5
 -12  -3   6 7715.05 304.717   5
 -12   3   5 62.6238 65.4091   5
 -12  -3   5 86.2808 70.0469   5
 -12   3   4 841.958 128.610   5
 -12  -3   4 917.864 135.038   5
 -12   3   3-199.857 80.4166   5
 -12  -3   3 30.9840 71.0051   5
 -12   3   2 1688.94 170.978   5
 -12  -3   2 1957.77 189.677   5
 -12   3   1-18.2679 72.2369   5
 -12  -3   1 32.3988 75.6028   5
 -12   3   0 124.787 83.5304   5
 -12  -3   0-44.1864 74.0161   5
 -12   3  -1 21.8053 60.9431   5
 -12  -3  -1 129.150 73.2065   5
 -12   3  -2 3365.33 205.223   5
 -12  -3  -2 4050.38 241.100   5
 -12   3  -2 3805.47 240.161   4
 -12   3  -3 783.173 93.9377   5
 -12  -3  -3 951.915 116.329   5
 -12   3  -3 946.850 119.301   4
 -12   3  -4 32.6087 50.0197   4
 -12  -4   5 43.4701 44.7632   5
 -12  -4   4 3111.51 192.696   5
 -12   4   3 1239.58 125.058   5
 -12  -4   3 1323.19 137.938   5
 -12  -4   2 1400.79 143.476   5
 -12   4   2 979.311 112.542   5
 -12   4   1 4538.92 228.234   5
 -12  -4   1 4920.02 257.250   5
 -12  -4   0 1496.11 144.044   5
 -12  -4  -1 2989.35 191.603   5
 -13   0   4 66.9689 51.7246   5
 -13   0   3-34.5494 59.2457   5
 -13   0   2 216.542 66.5726   5
 -13   0   1 56.5094 62.5976   5
 -13   0   0 222.342 67.0412   5
 -13   0  -1 44.1232 44.5807   5
 -13  -1   4 960.921 106.785   5
 -13   1   4 800.607 98.0007   5
 -13   1   3 6998.95 275.321   5
 -13  -1   3 7597.73 290.745   5
 -13   1   2 2277.41 164.013   5
 -13  -1   2 2185.32 163.829   5
 -13   1   1 142.374 63.8717   5
 -13  -1   1 206.803 68.1489   5
 -13   1   0 2845.53 174.579   5
 -13  -1   0 2800.63 179.308   5
 -13  -2   2 3564.40 191.478   5
 -13  -2   1 587.546 87.5753   5
   0   0   0    0.00    0.00   0

TITL batch3_2b in P2(1)/c
REM P2(1)/c (#14 in standard setting)
CELL 1.54184  10.619773  12.010778  12.576099  90.0000  96.7157  90.0000
ZERR    2.00   0.000264   0.000324   0.000300   0.0000   0.0023   0.0000
LATT  1
SYMM -x, y+1/2,-z+1/2
SFAC C H N O
UNIT 76.00 76.00 4.00 12.00
TREF
HKLF 4
END
;
_shelx_hkl_checksum              49318
_olex2_submission_special_instructions 'No special instructions were received'
_oxdiff_exptl_absorpt_empirical_details
;
Empirical correction (ABSPACK) includes:
- Absorption correction using spherical harmonics
- Frame scaling
;
_oxdiff_exptl_absorpt_empirical_full_max 2.825
_oxdiff_exptl_absorpt_empirical_full_min 0.807
loop_
_space_group_symop_operation_xyz
'x, y, z'
'-x, y+1/2, -z+1/2'
'-x, -y, -z'
'x, -y-1/2, z-1/2'
loop_
_atom_site_label
_atom_site_type_symbol
_atom_site_fract_x
_atom_site_fract_y
_atom_site_fract_z
_atom_site_U_iso_or_equiv
_atom_site_adp_type
_atom_site_occupancy
_atom_site_site_symmetry_order
_atom_site_calc_flag
_atom_site_refinement_flags_posn
O16 O 0.19456(12) 0.49097(11) 0.77997(9) 0.0415(3) Uani 1 1 d .
O17 O 0.29342(10) 0.37084(10) 0.68429(8) 0.0294(2) Uani 1 1 d .
H17 H 0.350(2) 0.3623(19) 0.7475(17) 0.044 Uiso 1 1 d R
C1 C 0.37162(14) 0.58240(13) 0.43611(13) 0.0304(3) Uani 1 1 d .
H1 H 0.455005 0.611921 0.448955 0.036 Uiso 1 1 calc R
C2 C 0.31253(15) 0.57379(13) 0.33203(12) 0.0310(3) Uani 1 1 d .
H2 H 0.355380 0.596563 0.273478 0.037 Uiso 1 1 calc R
C3 C 0.19015(14) 0.53154(13) 0.31430(11) 0.0266(3) Uani 1 1 d .
H3 H 0.149010 0.526280 0.243222 0.032 Uiso 1 1 calc R
C4 C 0.12704(12) 0.49682(11) 0.39945(10) 0.0204(3) Uani 1 1 d .
C5 C -0.00553(12) 0.44973(11) 0.38286(9) 0.0198(3) Uani 1 1 d .
H5 H -0.023238 0.427008 0.306070 0.024 Uiso 1 1 calc R
C6 C -0.00689(12) 0.34579(11) 0.45019(10) 0.0199(3) Uani 1 1 d .
C7 C -0.06158(12) 0.24718(12) 0.40925(11) 0.0234(3) Uani 1 1 d .
H7 H -0.099140 0.243963 0.336949 0.028 Uiso 1 1 calc R
C8 C -0.06136(14) 0.15327(12) 0.47401(12) 0.0262(3) Uani 1 1 d .
H8 H -0.096529 0.085348 0.445465 0.031 Uiso 1 1 calc R
C9 C -0.00960(14) 0.15908(12) 0.58051(11) 0.0264(3) Uani 1 1 d .
H9 H -0.012548 0.095939 0.625647 0.032 Uiso 1 1 calc R
C10 C 0.04658(13) 0.25726(12) 0.62123(11) 0.0237(3) Uani 1 1 d .
H10 H 0.082216 0.260635 0.694048 0.028 Uiso 1 1 calc R
C11 C 0.05096(12) 0.35032(11) 0.55622(10) 0.0196(3) Uani 1 1 d .
C12 C 0.11225(12) 0.46143(11) 0.59342(9) 0.0193(3) Uani 1 1 d .
C13 C 0.18775(12) 0.50326(11) 0.50419(10) 0.0204(3) Uani 1 1 d .
C14 C 0.30926(13) 0.54798(12) 0.52172(11) 0.0256(3) Uani 1 1 d .
H14 H 0.349997 0.555078 0.592771 0.031 Uiso 1 1 calc R
C15 C 0.20364(13) 0.44367(12) 0.69680(10) 0.0221(3) Uani 1 1 d .
O18 O 0.54254(10) 0.84219(10) 0.65245(8) 0.0317(3) Uani 1 1 d .
N21 N 0.49175(12) 0.85263(12) 0.47522(10) 0.0299(3) Uani 1 1 d .
C19 C 0.57453(13) 0.83166(13) 0.56064(12) 0.0269(3) Uani 1 1 d .
C20 C 0.70577(16) 0.79321(19) 0.54596(15) 0.0461(5) Uani 1 1 d .
H20A H 0.700767 0.733064 0.492983 0.069 Uiso 1 1 calc GR
H20B H 0.748205 0.765930 0.614394 0.069 Uiso 1 1 calc GR
H20C H 0.754080 0.855531 0.520921 0.069 Uiso 1 1 calc GR
C22 C 0.5202(2) 0.85016(17) 0.36478(13) 0.0450(4) Uani 1 1 d .
H22A H 0.610925 0.835929 0.363515 0.067 Uiso 1 1 calc GR
H22B H 0.498006 0.921981 0.330664 0.067 Uiso 1 1 calc GR
H22C H 0.470987 0.790889 0.325830 0.067 Uiso 1 1 calc GR
C23 C 0.36063(15) 0.87818(16) 0.49007(14) 0.0385(4) Uani 1 1 d .
H23A H 0.311825 0.808907 0.489801 0.058 Uiso 1 1 calc GR
H23B H 0.323639 0.926368 0.431720 0.058 Uiso 1 1 calc GR
H23C H 0.358354 0.916407 0.558659 0.058 Uiso 1 1 calc GR
loop_
_atom_site_aniso_label
_atom_site_aniso_U_11
_atom_site_aniso_U_22
_atom_site_aniso_U_33
_atom_site_aniso_U_23
_atom_site_aniso_U_13
_atom_site_aniso_U_12
O16 0.0450(7) 0.0538(8) 0.0219(5) -0.0122(5) -0.0119(5) 0.0206(6)
O17 0.0276(5) 0.0360(6) 0.0223(5) -0.0017(4) -0.0065(4) 0.0102(4)
C1 0.0236(7) 0.0303(8) 0.0374(8) 0.0020(6) 0.0044(6) -0.0021(6)
C2 0.0307(7) 0.0334(8) 0.0305(7) 0.0039(6) 0.0108(6) -0.0017(6)
C3 0.0299(7) 0.0304(7) 0.0199(6) 0.0018(5) 0.0044(5) 0.0021(6)
C4 0.0220(6) 0.0199(6) 0.0188(6) 0.0002(5) 0.0012(5) 0.0036(5)
C5 0.0212(6) 0.0228(6) 0.0147(6) -0.0007(5) -0.0007(5) 0.0026(5)
C6 0.0191(6) 0.0221(6) 0.0183(6) -0.0006(5) 0.0011(5) 0.0033(5)
C7 0.0229(6) 0.0271(7) 0.0199(6) -0.0036(5) 0.0014(5) 0.0004(5)
C8 0.0272(7) 0.0230(7) 0.0286(7) -0.0039(5) 0.0036(5) -0.0019(5)
C9 0.0302(7) 0.0235(7) 0.0260(7) 0.0039(5) 0.0060(6) 0.0010(6)
C10 0.0253(6) 0.0269(7) 0.0189(6) 0.0003(5) 0.0027(5) 0.0020(5)
C11 0.0182(6) 0.0227(7) 0.0178(6) -0.0018(5) 0.0014(5) 0.0025(5)
C12 0.0199(6) 0.0224(6) 0.0147(6) -0.0002(5) -0.0011(5) 0.0029(5)
C13 0.0209(6) 0.0205(6) 0.0196(6) 0.0000(5) 0.0010(5) 0.0041(5)
C14 0.0233(6) 0.0267(7) 0.0257(6) -0.0007(5) -0.0019(5) 0.0002(5)
C15 0.0228(6) 0.0246(7) 0.0177(6) -0.0002(5) -0.0025(5) 0.0014(5)
O18 0.0243(5) 0.0449(7) 0.0246(5) -0.0052(4) -0.0024(4) -0.0001(5)
N21 0.0294(6) 0.0338(7) 0.0254(6) -0.0019(5) -0.0009(5) 0.0003(5)
C19 0.0229(7) 0.0280(7) 0.0291(7) -0.0072(5) 0.0003(5) -0.0014(6)
C20 0.0269(8) 0.0631(12) 0.0475(10) -0.0231(9) 0.0008(7) 0.0078(8)
C22 0.0613(12) 0.0472(10) 0.0267(8) -0.0003(7) 0.0064(8) 0.0002(9)
C23 0.0273(7) 0.0450(10) 0.0405(9) -0.0016(7) -0.0081(6) 0.0058(7)
loop_
_atom_type_symbol
_atom_type_description
_atom_type_scat_dispersion_real
_atom_type_scat_dispersion_imag
_atom_type_scat_source
C C 0.0181 0.0091 'International Tables Vol C Tables 4.2.6.8 and 6.1.1.4'
H H 0.0000 0.0000 'International Tables Vol C Tables 4.2.6.8 and 6.1.1.4'
N N 0.0311 0.0180 'International Tables Vol C Tables 4.2.6.8 and 6.1.1.4'
O O 0.0492 0.0322 'International Tables Vol C Tables 4.2.6.8 and 6.1.1.4'
loop_
_exptl_crystal_face_index_h
_exptl_crystal_face_index_k
_exptl_crystal_face_index_l
_exptl_crystal_face_perp_dist
0 -1 1 0.0301
0 1 -1 0.0301
0 -1 -1 0.0536
0 1 1 0.0536
1 0 0 0.0197
-1 0 0 0.0197
loop_
_geom_angle_atom_site_label_1
_geom_angle_atom_site_label_2
_geom_angle_atom_site_label_3
_geom_angle
_geom_angle_site_symmetry_1
_geom_angle_site_symmetry_3
C15 O17 H17 111.8(13) . .
C2 C1 H1 119.9 . .
C2 C1 C14 120.27(14) . .
C14 C1 H1 119.9 . .
C1 C2 H2 120.3 . .
C1 C2 C3 119.35(13) . .
C3 C2 H2 120.3 . .
C2 C3 H3 119.6 . .
C2 C3 C4 120.77(13) . .
C4 C3 H3 119.6 . .
C3 C4 C5 122.09(12) . .
C3 C4 C13 119.83(13) . .
C13 C4 C5 118.07(12) . .
C4 C5 H5 107.6 . .
C4 C5 C6 107.60(10) . .
C4 C5 C12 113.06(11) . 3_566
C6 C5 H5 107.6 . .
C6 C5 C12 113.02(10) . 3_566
C12 C5 H5 107.6 3_566 .
C7 C6 C5 121.84(12) . .
C7 C6 C11 120.16(12) . .
C11 C6 C5 118.00(12) . .
C6 C7 H7 119.9 . .
C8 C7 C6 120.11(12) . .
C8 C7 H7 119.9 . .
C7 C8 H8 120.1 . .
C9 C8 C7 119.82(13) . .
C9 C8 H8 120.1 . .
C8 C9 H9 119.9 . .
C8 C9 C10 120.11(13) . .
C10 C9 H9 119.9 . .
C9 C10 H10 119.7 . .
C11 C10 C9 120.51(12) . .
C11 C10 H10 119.7 . .
C6 C11 C12 116.54(12) . .
C10 C11 C6 119.17(12) . .
C10 C11 C12 124.26(12) . .
C11 C12 C5 110.51(10) . 3_566
C11 C12 C13 107.49(10) . .
C11 C12 C15 109.84(11) . .
C13 C12 C5 110.92(10) . 3_566
C13 C12 C15 109.25(10) . .
C15 C12 C5 108.81(10) . 3_566
C4 C13 C12 116.53(12) . .
C14 C13 C4 119.15(12) . .
C14 C13 C12 124.30(12) . .
C1 C14 C13 120.58(13) . .
C1 C14 H14 119.7 . .
C13 C14 H14 119.7 . .
O16 C15 O17 123.36(12) . .
O16 C15 C12 124.07(13) . .
O17 C15 C12 112.57(11) . .
C19 N21 C22 125.11(14) . .
C19 N21 C23 119.14(13) . .
C22 N21 C23 115.74(14) . .
O18 C19 N21 120.17(13) . .
O18 C19 C20 120.17(14) . .
N21 C19 C20 119.65(14) . .
C19 C20 H20A 109.5 . .
C19 C20 H20B 109.5 . .
C19 C20 H20C 109.5 . .
H20A C20 H20B 109.5 . .
H20A C20 H20C 109.5 . .
H20B C20 H20C 109.5 . .
N21 C22 H22A 109.5 . .
N21 C22 H22B 109.5 . .
N21 C22 H22C 109.5 . .
H22A C22 H22B 109.5 . .
H22A C22 H22C 109.5 . .
H22B C22 H22C 109.5 . .
N21 C23 H23A 109.5 . .
N21 C23 H23B 109.5 . .
N21 C23 H23C 109.5 . .
H23A C23 H23B 109.5 . .
H23A C23 H23C 109.5 . .
H23B C23 H23C 109.5 . .
loop_
_geom_bond_atom_site_label_1
_geom_bond_atom_site_label_2
_geom_bond_distance
_geom_bond_site_symmetry_2
O16 C15 1.2041(18) .
O17 H17 0.95(2) .
O17 C15 1.3168(18) .
C1 H1 0.9500 .
C1 C2 1.388(2) .
C1 C14 1.391(2) .
C2 H2 0.9500 .
C2 C3 1.389(2) .
C3 H3 0.9500 .
C3 C4 1.3919(19) .
C4 C5 1.5089(18) .
C4 C13 1.3994(18) .
C5 H5 1.0000 .
C5 C6 1.5095(18) .
C5 C12 1.6097(17) 3_566
C6 C7 1.3912(19) .
C6 C11 1.4024(18) .
C7 H7 0.9500 .
C7 C8 1.391(2) .
C8 H8 0.9500 .
C8 C9 1.389(2) .
C9 H9 0.9500 .
C9 C10 1.392(2) .
C10 H10 0.9500 .
C10 C11 1.3888(19) .
C11 C12 1.5337(18) .
C12 C13 1.5379(17) .
C12 C15 1.5436(17) .
C13 C14 1.3912(19) .
C14 H14 0.9500 .
O18 C19 1.2475(18) .
N21 C19 1.330(2) .
N21 C22 1.456(2) .
N21 C23 1.459(2) .
C19 C20 1.500(2) .
C20 H20A 0.9800 .
C20 H20B 0.9800 .
C20 H20C 0.9800 .
C22 H22A 0.9800 .
C22 H22B 0.9800 .
C22 H22C 0.9800 .
C23 H23A 0.9800 .
C23 H23B 0.9800 .
C23 H23C 0.9800 .
loop_
_geom_torsion_atom_site_label_1
_geom_torsion_atom_site_label_2
_geom_torsion_atom_site_label_3
_geom_torsion_atom_site_label_4
_geom_torsion
_geom_torsion_site_symmetry_1
_geom_torsion_site_symmetry_4
C1 C2 C3 C4 -0.7(2) . .
C2 C1 C14 C13 0.8(2) . .
C2 C3 C4 C5 -179.52(13) . .
C2 C3 C4 C13 -0.7(2) . .
C3 C4 C5 C6 133.48(13) . .
C3 C4 C5 C12 -100.99(14) . 3_566
C3 C4 C13 C12 -179.02(12) . .
C3 C4 C13 C14 2.1(2) . .
C4 C5 C6 C7 -133.09(13) . .
C4 C5 C6 C11 45.89(15) . .
C4 C13 C14 C1 -2.2(2) . .
C5 C4 C13 C12 -0.16(18) . .
C5 C4 C13 C14 -179.00(12) . .
C5 C6 C7 C8 -179.74(12) . .
C5 C6 C11 C10 177.42(11) . .
C5 C6 C11 C12 -0.78(17) . .
C5 C12 C13 C4 -75.78(14) 3_566 .
C5 C12 C13 C14 103.00(14) 3_566 .
C5 C12 C15 O16 -0.8(2) 3_566 .
C5 C12 C15 O17 179.32(11) 3_566 .
C6 C7 C8 C9 1.8(2) . .
C6 C11 C12 C5 76.59(13) . 3_566
C6 C11 C12 C13 -44.59(15) . .
C6 C11 C12 C15 -163.34(11) . .
C7 C6 C11 C10 -3.59(19) . .
C7 C6 C11 C12 178.21(11) . .
C7 C8 C9 C10 -2.6(2) . .
C8 C9 C10 C11 0.3(2) . .
C9 C10 C11 C6 2.8(2) . .
C9 C10 C11 C12 -179.17(12) . .
C10 C11 C12 C5 -101.51(14) . 3_566
C10 C11 C12 C13 137.32(13) . .
C10 C11 C12 C15 18.56(17) . .
C11 C6 C7 C8 1.3(2) . .
C11 C12 C13 C4 45.14(15) . .
C11 C12 C13 C14 -136.08(13) . .
C11 C12 C15 O16 -121.86(16) . .
C11 C12 C15 O17 58.23(15) . .
C12 C5 C6 C7 101.36(14) 3_566 .
C12 C5 C6 C11 -79.66(14) 3_566 .
C12 C13 C14 C1 179.05(13) . .
C13 C4 C5 C6 -45.35(15) . .
C13 C4 C5 C12 80.18(14) . 3_566
C13 C12 C15 O16 120.47(16) . .
C13 C12 C15 O17 -59.44(15) . .
C14 C1 C2 C3 0.6(2) . .
C15 C12 C13 C4 164.28(12) . .
C15 C12 C13 C14 -16.95(18) . .
C22 N21 C19 O18 175.88(16) . .
C22 N21 C19 C20 -5.3(3) . .
C23 N21 C19 O18 -5.5(2) . .
C23 N21 C19 C20 173.38(16) . .
loop_
_exptl_oxdiff_crystal_face_indexfrac_h
_exptl_oxdiff_crystal_face_indexfrac_k
_exptl_oxdiff_crystal_face_indexfrac_l
_exptl_oxdiff_crystal_face_x
_exptl_oxdiff_crystal_face_y
_exptl_oxdiff_crystal_face_z
-0.0006 -0.9994 1.0002 -0.1476 0.0678 0.0726
0.0006 0.9994 -1.0002 0.1476 -0.0678 -0.0726
0.0004 -1.0000 -0.9981 -0.0555 0.0647 -0.1559
-0.0004 1.0000 0.9981 0.0555 -0.0647 0.1559
0.9993 -0.0003 0.0013 -0.0763 -0.1241 -0.0106
-0.9993 0.0003 -0.0013 0.0763 0.1241 0.0106
