#------------------------------------------------------------------------------
#$Date: 2019-11-26 03:29:45 +0200 (Tue, 26 Nov 2019) $
#$Revision: 242511 $
#$URL: file:///home/coder/svn-repositories/cod/cif/4/13/25/4132545.cif $
#------------------------------------------------------------------------------
#
# This file is available in the Crystallography Open Database (COD),
# http://www.crystallography.net/
#
# All data on this site have been placed in the public domain by the
# contributors.
#
data_4132545
loop_
_publ_author_name
'Jiang, Hao'
'Jia, Jiangtao'
'Shkurenko, Aleksander'
'Chen, Zhijie'
'Adil, Karim'
'Belmabkhout, Youssef'
'Weselinski, Lukasz J.'
'Assen, Ayalew H.'
'Xue, Dong-Xu'
'O'Keeffe, Michael'
'Eddaoudi, Mohamed'
_publ_section_title
;
 Enriching the Reticular Chemistry Repertoire: Merged Nets Approach for
 the Rational Design of Intricate Mixed-Linker Metal-Organic Framework
 Platforms.
;
_journal_issue                   28
_journal_name_full               'Journal of the American Chemical Society'
_journal_page_first              8858
_journal_page_last               8867
_journal_paper_doi               10.1021/jacs.8b04745
_journal_volume                  140
_journal_year                    2018
_chemical_formula_moiety         'C62 H54 F6 N6 O34 Tb6'
_chemical_formula_sum            'C62 H54 F6 N6 O34 Tb6'
_chemical_formula_weight         2494.63
_space_group_crystal_system      cubic
_space_group_IT_number           227
_space_group_name_Hall           '-F 4vw 2vw 3'
_space_group_name_H-M_alt        'F d -3 m :2'
_atom_sites_solution_hydrogens   geom
_atom_sites_solution_primary     direct
_atom_sites_solution_secondary   difmap
_audit_creation_method           SHELXL-2014/7
_cell_angle_alpha                90
_cell_angle_beta                 90
_cell_angle_gamma                90
_cell_formula_units_Z            16
_cell_length_a                   38.309(4)
_cell_length_b                   38.309(4)
_cell_length_c                   38.309(4)
_cell_measurement_reflns_used    1076
_cell_measurement_temperature    100.0(1)
_cell_measurement_theta_max      26.94
_cell_measurement_theta_min      3.83
_cell_volume                     56222(10)
_computing_cell_refinement       'SAINT v8.34A (Bruker, 2013)'
_computing_data_collection
'Bruker APEX2 v2009.3-0 (Bruker AXS Inc., 2009)'
_computing_data_reduction        'SAINT v8.34A (Bruker, 2013)'
_computing_molecular_graphics    'DIAMOND (Crystal Impact GbR, 2009'
_computing_publication_material
'PublCIF. Westrip, S. P. (2010). J. Appl. Cryst. 43, 920-925.'
_computing_structure_refinement  'SHELXL-2014/7 (Sheldrick, 2014)'
_computing_structure_solution    'ShelXS (Sheldrick, 2008)'
_diffrn_ambient_temperature      100.0(1)
_diffrn_detector_area_resol_mean 8.3
_diffrn_measured_fraction_theta_full 0.997
_diffrn_measured_fraction_theta_max 0.997
_diffrn_measurement_device_type  'Bruker X8 PROSPECTOR APEX2 CCD'
_diffrn_measurement_method       '\f and \w scans'
_diffrn_radiation_monochromator  mirrors
_diffrn_radiation_type           CuK\a
_diffrn_radiation_wavelength     1.54178
_diffrn_reflns_av_R_equivalents  0.0204
_diffrn_reflns_av_unetI/netI     0.0148
_diffrn_reflns_Laue_measured_fraction_full 0.997
_diffrn_reflns_Laue_measured_fraction_max 0.997
_diffrn_reflns_limit_h_max       22
_diffrn_reflns_limit_h_min       -15
_diffrn_reflns_limit_k_max       19
_diffrn_reflns_limit_k_min       -17
_diffrn_reflns_limit_l_max       22
_diffrn_reflns_limit_l_min       -17
_diffrn_reflns_number            2489
_diffrn_reflns_point_group_measured_fraction_full 0.997
_diffrn_reflns_point_group_measured_fraction_max 0.997
_diffrn_reflns_theta_full        26.741
_diffrn_reflns_theta_max         26.741
_diffrn_reflns_theta_min         1.997
_diffrn_source                   'Incoatec I\ms'
_exptl_absorpt_coefficient_mu    15.031
_exptl_absorpt_correction_T_max  0.0796
_exptl_absorpt_correction_T_min  0.0469
_exptl_absorpt_correction_type   multi-scan
_exptl_absorpt_process_details
;
SADABS-2016/2 (Bruker,2016/2) was used for absorption correction.
wR2(int) was 0.0548 before and 0.0391 after correction.
The Ratio of minimum to maximum transmission is 0.5892.
The \l/2 correction factor is Not present.
;
_exptl_crystal_colour            colorless
_exptl_crystal_density_diffrn    1.179
_exptl_crystal_description       octahedron
_exptl_crystal_F_000             18944
_exptl_crystal_size_max          0.200
_exptl_crystal_size_mid          0.150
_exptl_crystal_size_min          0.150
_refine_diff_density_max         0.445
_refine_diff_density_min         -0.336
_refine_diff_density_rms         0.079
_refine_ls_extinction_method     none
_refine_ls_goodness_of_fit_ref   2.320
_refine_ls_hydrogen_treatment    constr
_refine_ls_matrix_type           full
_refine_ls_number_parameters     62
_refine_ls_number_reflns         320
_refine_ls_number_restraints     43
_refine_ls_restrained_S_all      2.155
_refine_ls_R_factor_all          0.1212
_refine_ls_R_factor_gt           0.1100
_refine_ls_shift/su_max          0.001
_refine_ls_shift/su_mean         0.000
_refine_ls_structure_factor_coef Fsqd
_refine_ls_weighting_details
'w=1/[\s^2^(Fo^2^)+(0.2000P)^2^] where P=(Fo^2^+2Fc^2^)/3'
_refine_ls_weighting_scheme      calc
_refine_ls_wR_factor_gt          0.3956
_refine_ls_wR_factor_ref         0.4314
_reflns_Friedel_coverage         0.000
_reflns_number_gt                272
_reflns_number_total             320
_reflns_threshold_expression     'I > 2\s(I)'
_cod_data_source_file            ja8b04745_si_002.cif
_cod_data_source_block           Tb_spn_MOF_1
_cod_original_cell_volume        56220(20)
_cod_original_sg_symbol_H-M      'F d -3 m'
_cod_database_code               4132545
_shelx_shelxl_version_number     2014/7
_shelx_space_group_comment
;
The symmetry employed for this shelxl refinement is uniquely defined
by the following loop, which should always be used as a source of
symmetry information in preference to the above space-group names.
They are only intended as comments.
;
_shelx_estimated_absorpt_t_min   0.153
_shelx_estimated_absorpt_t_max   0.211
_platon_squeeze_void_probe_radius 1.20
_shelx_res_file
;

    shelx.res created by SHELXL-2014/7

TITL KME_906 in Fd-3m #227
CELL 1.54178 38.3089 38.3089 38.3089 90 90 90
ZERR 16.0000  0.0037  0.0037  0.0037  0  0  0
LATT 4
SYMM 0.75-X,0.25-Y,0.5+Z
SYMM 0.25-X,0.5+Y,0.75-Z
SYMM 0.5+X,0.75-Y,0.25-Z
SYMM +Z,+X,+Y
SYMM 0.5+Z,0.75-X,0.25-Y
SYMM 0.75-Z,0.25-X,0.5+Y
SYMM 0.25-Z,0.5+X,0.75-Y
SYMM +Y,+Z,+X
SYMM 0.25-Y,0.5+Z,0.75-X
SYMM 0.5+Y,0.75-Z,0.25-X
SYMM 0.75-Y,0.25-Z,0.5+X
SYMM 0.75+Y,0.25+X,0.5-Z
SYMM -Y,-X,-Z
SYMM 0.25+Y,0.5-X,0.75+Z
SYMM 0.5-Y,0.75+X,0.25+Z
SYMM 0.75+X,0.25+Z,0.5-Y
SYMM 0.5-X,0.75+Z,0.25+Y
SYMM -X,-Z,-Y
SYMM 0.25+X,0.5-Z,0.75+Y
SYMM 0.75+Z,0.25+Y,0.5-X
SYMM 0.25+Z,0.5-Y,0.75+X
SYMM 0.5-Z,0.75+Y,0.25+X
SYMM -Z,-Y,-X
SFAC C H N O Tb F
UNIT 992 864 96 544 96 96
EQIV $1 1.25-Y,+Z,1.25-X
EQIV $2 1.25-X,1.25-Z,+Y
EQIV $3 1-X,1-Z,1-Y
EQIV $4 1.25-X,+Y,1.25-Z
EQIV $5 +Y,+Z,+X
EQIV $6 +Y,1.25-X,1.25-Z
EQIV $7 1-Y,1-Z,1-X
EQIV $8 +Y,1.25-Z,1.25-X
EQIV $9 +Z,+X,+Y
EQIV $10 +X,+Z,+Y
EQIV $11 1.25-Y,1.25-X,+Z
EQIV $12 1-Y,1-X,1-Z
EQIV $13 1.25-Y,+X,1.25-Z
EQIV $14 1.25-Z,+Y,1.25-X
EQIV $15 +Z,+Y,+X
EQIV $16 1.25-Z,1.25-X,+Y
EQIV $17 1-Z,1-X,1-Y
EQIV $18 +Y,+X,+Z
EQIV $19 1-Z,1-Y,1-X
DFIX 1.23 0.01 O1F1 C1F1
DFIX 1.23 0.01 O2F1 C1F1
DFIX -0.85 0.01 O1W O1W_$15
DFIX 2.23 O1F1 O2F1
DFIX -2.3 0.01 Tb1 O1F2
DFIX 1.23 0.01 C1L1 O1L1
DFIX 1.23 0.01 C1L1 O2L1
DFIX 1.5 0.01 C1L1 C3L1
DFIX 1.39 0.01 C2L1 C3L1
DFIX 1.39 0.01 C3L1 C4L1
DFIX 1.39 0.01 C4L1 C5L1
DFIX 1.44 0.01 C5L1 N1L1
DFIX 1.32 0.01 N1L1 C6L1
DFIX 1.29 0.01 C6L1 N2L1
DFIX 1.39 0.01 N2L1 N2L1_$11
DFIX 2.78 C2L1 C5L1
DFIX 2.41 C2L1 C4L1
DFIX 2.41 C3L1 C3L1_$11
DFIX 2.41 C3L1 C5L1
DFIX 2.41 C4L1 C4L1_$11
DFIX 2.51 C5L1 C6L1
DFIX 2.23 O1F2 O1F2_$3
DFIX -2.3 Tb2 O2L1
DFIX 2.56 Tb1 O1W Tb2 O2W
SADI 0.01 Tb1 O1H Tb2 O1H
SADI Tb1 O2L1 Tb2 O1L1
SADI O2L1 C3L1 O1L1 C3L1
SADI Tb1 O1F1 Tb2_$19 O2F1
SADI Tb1 O2F1 Tb2_$19 O1F1
FLAT 0.002 N1L1 N2L1 N2L1_$11 C2L1 C3L1 C3L1_$11 C4L1_$11 C4L1 C5L1 C6L1 =
 C6L1_$11
FLAT 0.05 Tb1_$13 Tb1_$4 N2L1_$11 N2L1 C6L1 C6L1_$11
FLAT 0.01 O1L1 O2L1 C1L1 C3L1
FLAT 0.05 Tb1 Tb2_$19 O1F1 O2F1 C1F1
EADP O1F1 O2F1 C1F1 O1F2
EADP O1W O2W
EADP O1L1 O2L1 C1L1 C2L1 C3L1 C4L1 C5L1 N1L1 C6L1 N2L1
EADP O1F2 O2W

L.S. 11
PLAN  5
SIZE 0.15 0.15 0.2
TEMP -173
FREE C1L1 C1L1_$10
FREE C2L1 C4L1_$16
FREE C2L1 C4L1_$10
FREE C2L1 C5L1_$1
FREE C2L1 C5L1_$14
FREE C2L1 C5L1_$16
FREE C2L1 C5L1_$10
FREE C3L1 C3L1_$10
FREE C3L1 C1L1_$10
FREE C4L1 C3L1_$1
FREE C4L1 C3L1_$10
FREE C4L1 C4L1_$10
FREE C4L1 C4L1_$14
FREE C4L1 C2L1_$10
FREE C4L1 C2L1_$1
FREE C4L1 N1L1_$14
FREE C4L1 N1L1_$16
FREE C4L1 C5L1_$16
FREE C4L1 C5L1_$14
FREE C4L1 C5L1_$1
FREE C4L1 C5L1_$10
FREE C4L1 C6L1_$14
FREE C4L1 C5L1_$11
BIND C5L1 C4L1_$11
FREE C5L1 C5L1_$10
FREE C5L1 C5L1_$16
FREE C5L1 C5L1_$14
FREE C5L1 C5L1_$1
FREE C5L1 C5L1_$11
FREE C5L1 C3L1_$1
FREE C5L1 C3L1_$14
FREE C5L1 C2L1_$10
FREE C5L1 C2L1_$1
FREE C5L1 C2L1_$14
FREE C5L1 C2L1_$16
FREE C5L1 C4L1_$10
FREE C5L1 C4L1_$1
FREE C5L1 C4L1_$14
FREE C5L1 C4L1_$16
FREE N1L1 C3L1_$14
FREE N1L1 C3L1_$1
FREE N1L1 C1L1_$1
FREE N1L1 C1L1_$14
FREE N1L1 C4L1_$14
FREE N1L1 C4L1_$1
FREE C6L1 C1L1_$14
FREE C6L1 C1L1_$1
FREE C6L1 C2L1_$14
FREE C6L1 C2L1_$1
FREE C6L1 C3L1_$1
FREE C6L1 C2L1_$16
FREE C6L1 C2L1_$10
FREE C6L1 C4L1_$14
FREE C6L1 C3L1_$14
FREE C6L1 C6L1_$11
FREE C6L1 O1L1_$1
FREE C6L1 O1L1_$14
FREE C6L1 O2L1_$1
FREE C6L1 C4L1_$1
FREE N2L1 C1L1_$1
FREE N2L1 C1L1_$14
FREE N2L1 Tb1_$14
FREE O1F1 C1F1_$12
FREE O1F1 O1F2
FREE O1F1 O1F2_$15
FREE O2F1 C1F1_$12
FREE O2F1 O1F1_$12
FREE O2F1 O1F2_$12
FREE O2F1 O1F2_$7
FREE O2F1 O2F1_$12
FREE C1F1 C1F1_$12
FREE O1F2 C1F1_$12
FREE O1F2 C1F1
BIND Tb2 O2W
FREE Tb2 Tb1_$17
FREE Tb2 Tb1_$19
FREE Tb2 Tb1_$5
FREE Tb2 Tb1_$18
FREE Tb2 Tb1_$7
FREE Tb2 Tb1
FREE Tb2 Tb1_$10
FREE Tb2 Tb1_$15
FREE Tb2 Tb1_$9
FREE Tb2 N2L1_$14
FREE Tb2 N2L1_$16
FREE Tb2 N2L1_$8
FREE Tb2 N2L1_$2
FREE Tb2 N2L1_$6
FREE Tb2 N2L1_$4
FREE Tb2 O1F2_$15
FREE Tb2 O1F2_$9
FREE Tb2 O1F2_$5
FREE Tb2 O1F2_$10
FREE Tb2 O1F1_$5
FREE Tb2 O1F1_$10
FREE Tb2 O1F1_$15
FREE Tb2 O1F1_$9
FREE Tb2 O1L1_$18
FREE Tb2 O1L1
FREE Tb2 O1F1_$17
FREE Tb2 O1F1_$19
CONN 24 Tb1
BIND Tb1 O1H_$18
BIND Tb1 O1W
BIND Tb1 O1F2
FREE Tb1 Tb1_$10
FREE Tb1 Tb1_$15
FREE Tb1 C1L1_$10
FREE Tb1 O1H_$5
FREE Tb1 O1H_$10
FREE Tb1 O1H_$15
FREE Tb1 O1H_$9
FREE Tb1 Tb1_$18
FREE Tb1 Tb1_$5
FREE Tb1 Tb1_$9
FREE Tb1 Tb1_$7
FREE Tb1 Tb1_$12
FREE Tb1 Tb1_$17
FREE Tb1 O2H_$10
FREE Tb1 O1L1_$10
FREE Tb1 N2L1_$16
FREE Tb1 O2F1_$12
FREE Tb1 O1F2_$15
FREE Tb1 O2L1
FREE Tb1 O2L1_$10
FREE Tb1 O2L1_$5
FREE Tb1 O2F1
BIND O1H Tb1_$18
FREE O1H O1H_$10
FREE O1H O1H_$9
FREE O1H O1H_$5
FREE O2H O2H_$10
FREE O2H O1F2_$10
FREE O2H O1F2_$9
FREE O2L1 N2L1_$16
FREE O2L1 C6L1_$16
FREE O2L1 C3L1
FREE O2L1 O1F2_$9
FREE O1L1 N2L1_$16
FREE O1L1 O1L1_$10
FREE O1L1 O2L1_$10
FREE O1L1 C1L1_$10
FREE O1L1 C6L1_$16
FREE O1L1 C6L1_$14
FREE O1L1 N2L1_$14
FREE O1L1 N1L1_$14
FREE O1L1 N1L1_$16
FREE O1L1 C3L1
FREE O1L1 C3L1_$10
BOND $H
LIST 4
ABIN
fmap 2
acta
OMIT 0 180
OMIT 0 2 2
REM ################### Tb6-cluster ####################
WGHT    0.200000
FVAR       0.00728
TB1   5    0.553673    0.481524    0.535827    10.33333    0.23616
TB2   5    0.552149    0.552149    0.462559    10.16667    0.21044
O1H   4    0.536931    0.536931    0.518779    10.16667    0.04132
O2H   4    0.557750    0.493294    0.481098    10.50000    0.22349
PART -1
O1W   4    0.603596    0.460407    0.575485    10.33333    0.23336
PART 0
O2W   4    0.593292    0.593292    0.429781    10.16667    0.23336

REM #################### Ligand L1 #####################
O1L1  4    0.602392    0.518030    0.534940    10.33333    0.26259
O2L1  4    0.606744    0.540028    0.483866    10.33333    0.26259
C1L1  1    0.617758    0.536517    0.513734    10.33333    0.26259
C2L1  1    0.667480    0.582520    0.507925    10.16667    0.26259
PART -1
AFIX  43
H2L1  2    0.660349    0.589651    0.485270    10.16667   -1.20000
AFIX   0
PART 0
C3L1  1    0.650481    0.555074    0.524522    10.33333    0.26259
C4L1  1    0.660904    0.544641    0.557655    10.33333    0.26259
PART -1
AFIX  43
H4L1  2    0.649279    0.525889    0.568976    10.33333   -1.20000
AFIX   0
PART 0
C5L1  1    0.688356    0.561644    0.574252    10.16667    0.26259
N1L1  3    0.699150    0.550850    0.608548    10.16667    0.26259
C6L1  1    0.687684    0.526134    0.629596    10.33333    0.26259
PART -1
AFIX  43
H6L1  2    0.668813    0.511575    0.622747    10.33333   -1.20000
AFIX   0
N2L1  3    0.702398    0.521970    0.659585    10.33333    0.26259
REM #################### FBA 1 #########################
O1F1  4    0.592852    0.439293    0.524498    10.33333    0.29556
O2F1  4    0.583088    0.418751    0.471002    10.33333    0.29556
PART -1
C1F1  1    0.598414    0.420207    0.499195    10.33333    0.29556
PART 0
REM #################### FBA 2 #########################
O1F2  4    0.520590    0.452755    0.576713    10.33333    0.23336
HKLF 4

REM  KME_906 in Fd-3m #227
REM R1 =  0.1100 for     272 Fo > 4sig(Fo)  and  0.1212 for all     320 data
REM     62 parameters refined using     43 restraints

END

WGHT      0.2000      0.0000

REM Highest difference peak  0.445,  deepest hole -0.336,  1-sigma level  0.079
Q1    1   0.6250  0.6250  0.4271  10.25000  0.05    0.45
Q2    1   0.5451  0.4952  0.5378  11.00000  0.05    0.34
Q3    1   0.5453  0.4936  0.5453  10.50000  0.05    0.32
Q4    1   0.5428  0.5631  0.4639  11.00000  0.05    0.29
Q5    1   0.5341  0.5415  0.5051  11.00000  0.05    0.29
;
_shelx_res_checksum              42213
_shelx_hkl_file
;
  -1  -1  -1  745.47   16.09
   1   1   1  746.88   16.10
   0   0  -2   -0.01    0.03
   0   0   2    0.00    0.03
  -2  -2   0   -0.04    0.04
   0   2   2    0.02    0.03
   0   2   2   -0.02    0.05
   2   2   0    0.03    0.05
  -2  -2  -2  996.31   21.58
   2   2   2 1000.00   21.61
  -1  -1  -3  302.02    6.42
  -1   1   3  301.51    6.44
   1  -1   3  291.47    6.41
   1   1  -3  300.09    6.41
   1   1   3  294.10    6.42
   1   1   3  303.32    6.43
   1   3   1  297.78    6.42
  -3  -3  -1   68.98    1.55
  -3  -3   1   70.31    1.53
  -1  -3  -3   71.33    1.56
   1   3   3   69.10    1.52
   1   3   3   70.33    1.56
   3   3   1   68.60    1.55
  -3  -3  -3   27.42    0.68
   3   3   3   28.42    0.69
   0   0  -4  515.01   11.05
   0   0   4  506.55   11.08
   0   4   0  521.35   11.05
   0  -2  -4   -0.13    0.07
   0   2   4    0.00    0.05
   0   2   4    0.15    0.08
   2   4   0   -0.06    0.07
  -2   0   4    0.12    0.06
   0   4   2   -0.04    0.04
   2   0   4    0.01    0.05
  -2  -4  -2    0.18    0.09
  -2  -2  -4    0.08    0.08
   2   2   4    0.13    0.06
   2   2   4    0.23    0.10
   2   4  -2    0.18    0.06
   2   4   2    0.22    0.09
  -4  -4   0   45.83    1.02
   0   4   4   43.93    0.99
   0   4   4   44.58    1.05
  -4  -4  -2    3.06    0.21
  -4  -4   2    3.06    0.14
  -4  -2  -4    3.00    0.20
  -2  -4  -4    2.95    0.20
   2   4   4    3.20    0.14
   2   4   4    3.20    0.22
   4   4   2    3.06    0.19
  -4  -4  -4   40.06    0.97
  -1  -1  -5   16.05    0.43
  -1   1   5   16.14    0.42
  -1   5   1   15.33    0.37
   1  -1  -5   16.72    0.42
   1  -1   5   17.40    0.38
   1   1  -5   16.71    0.40
   1   1   5   16.08    0.39
   1   1   5   16.36    0.43
   1   5   1   16.66    0.44
  -3  -5  -1   11.33    0.34
  -1  -3  -5   10.76    0.34
  -1   3   5   10.63    0.35
   1  -3   5   10.59    0.26
   1   5   3   10.96    0.28
   3   5  -1   11.31    0.31
  -3  -1   5   11.19    0.28
   1   5   3   10.92    0.35
   3   5   1   10.77    0.34
  -1   5   3   10.10    0.27
   1   3   5   10.65    0.28
  -3  -1  -5   11.12    0.34
  -5  -3  -3   13.43    0.40
  -3  -5  -3   13.36    0.41
  -3  -3  -5   13.50    0.41
   3   3   5   13.18    0.41
   3   5  -3   13.17    0.33
  -5  -5  -1    0.31    0.12
  -5  -5   1    0.40    0.11
  -1  -5  -5    0.20    0.13
  -1   5   5    0.03    0.07
  -1   5   5    0.23    0.15
   1  -5   5    0.17    0.04
   1   5   5    0.01    0.08
   1   5   5   -0.11    0.13
  -5  -5  -3   78.74    1.79
  -5  -5   3   79.07    1.72
  -5  -3  -5   78.53    1.80
  -3  -5  -5   78.11    1.80
   3   5   5   78.35    1.81
  -5  -5  -5   30.33    0.80
   0   0  -6    0.05    0.09
   0  -2  -6    2.30    0.19
   0   2   6    2.36    0.13
   0   2   6    2.27    0.19
   2   6   0    2.42    0.19
   0   6   2    2.32    0.12
   2   0   6    2.37    0.13
  -2   0   6    2.46    0.16
  -2   0  -6    2.29    0.19
   2   2  -6    2.94    0.13
   2  -2   6    2.75    0.12
   2   2   6    2.95    0.15
   2   6   2    2.73    0.21
  -2  -2  -6    2.98    0.21
  -2   2   6    2.87    0.20
   0   4   6   -0.14    0.13
   4   6   0   -0.06    0.11
  -4  -6   0   -0.08    0.11
   0   4   6   -0.03    0.08
  -6  -4   0    0.13    0.11
   0   6   4   -0.05    0.07
   0   6   4    0.04    0.14
   2  -4   6   10.86    0.28
   2   6   4   11.98    0.31
   2   6   4   11.93    0.41
   4   6  -2   11.66    0.33
  -2   4   6   12.64    0.41
  -4  -6  -2   12.03    0.39
  -2  -4  -6   11.97    0.40
  -6  -4   2   12.16    0.34
  -4  -2   6   11.94    0.29
   4   6   2   11.45    0.39
  -4  -2  -6   11.79    0.39
  -6  -4  -2   12.17    0.38
  -2  -6  -4   12.67    0.41
   2   4   6   12.04    0.32
   2   4   6   11.29    0.41
  -6  -4  -4  108.10    2.46
  -6  -4   4  109.99    2.37
  -4  -6  -4  109.05    2.46
  -4  -4  -6  109.92    2.46
   4   6  -4  109.61    2.37
   4   6   4  108.59    2.46
  -6  -6   0   64.96    1.49
   0   6   6   63.92    1.44
   0   6   6   66.43    1.53
  -6  -6  -2   10.10    0.37
  -6  -6   2   10.41    0.32
  -2  -6  -6   10.42    0.40
   2   6   6   10.21    0.30
   2   6   6   10.67    0.41
  -6  -6  -4   17.54    0.53
  -6  -4  -6   17.84    0.55
  -4  -6  -6   16.38    0.54
   4   6   6   17.30    0.55
   6  -4   6   17.80    0.40
  -6  -6  -6    4.30    0.32
   6  -6   6    4.35    0.17
  -1  -1  -7   10.91    0.36
  -1   1  -7   10.99    0.34
  -1   1   7   10.60    0.34
  -1   7   1   10.52    0.26
   1  -1  -7   10.97    0.34
   1  -1   7   10.44    0.28
   1   1  -7   10.88    0.32
   1   1   7   10.49    0.29
  -1  -3  -7   13.69    0.43
  -1   3   7   13.61    0.43
   1  -3   7   13.61    0.34
   1   3  -7   14.13    0.37
   1   7   3   14.20    0.45
   1   7   3   13.75    0.35
   3   7  -1   14.79    0.41
  -3  -1   7   13.69    0.36
   3   1   7   14.08    0.36
   1   3   7   14.07    0.45
   1   3   7   13.61    0.36
   3  -1   7   13.40    0.35
  -1   7   3   13.31    0.34
  -3   1   7   14.29    0.41
   3   7   1   14.40    0.43
  -3  -1  -7   14.13    0.43
   3   7  -3    0.78    0.12
   3   3   7    0.72    0.10
  -3   3   7    0.80    0.15
   3   7   3    0.67    0.16
  -3  -3  -7    0.76    0.15
  -7  -5   1    1.44    0.14
   1   7   5    1.21    0.19
   5   7  -1    1.38    0.14
  -5  -7  -1    1.24    0.17
  -1  -5  -7    1.20    0.17
  -1   5   7    1.17    0.11
  -1   5   7    1.37    0.19
   1  -5   7    1.34    0.10
   1   7   5    1.22    0.11
  -5  -1   7    1.38    0.12
   1   5   7    1.17    0.11
  -1   7   5    1.33    0.11
  -1   7   5    1.19    0.19
   5   7   1    1.12    0.16
   1   5   7    1.32    0.19
  -7  -5  -1    1.29    0.16
   3   7   5    3.49    0.30
  -7  -3  -5    3.59    0.28
   5   7  -3    3.51    0.20
  -3  -5  -7    3.71    0.26
  -7  -5   3    3.95    0.19
  -5  -7  -3    3.95    0.29
   3   5   7    3.56    0.29
  -7  -5  -3    3.81    0.28
   3   5   7    3.75    0.21
  -5  -3  -7    3.81    0.27
  -3  -7  -5    4.26    0.30
   5   7   3    3.48    0.29
  -7  -5  -5   12.85    0.44
  -7  -5   5   11.40    0.30
  -5  -7  -5   12.00    0.44
  -5  -5  -7   11.36    0.44
   5  -5   7   12.19    0.30
   5   7   5   12.01    0.45
  -7  -7  -1   47.62    1.14
  -7  -7   1   48.88    1.11
  -1   7   7   46.81    1.07
  -1   7   7   47.81    1.18
   1  -7   7   43.89    1.03
   1   7   7   47.57    1.07
   1   7   7   49.67    1.19
  -7  -7  -3   15.80    0.52
  -7  -7   3   17.01    0.45
  -7  -3  -7   16.90    0.54
  -3  -7  -7   16.72    0.55
   3   7   7   16.94    0.44
   3   7   7   15.83    0.55
  -7  -7  -5   68.05    1.61
  -7  -5  -7   68.04    1.62
  -5  -7  -7   66.69    1.62
   5  -7   7   66.96    1.49
   5   7   7   67.29    1.63
   7  -5   7   69.13    1.47
  -7  -7  -7   57.59    1.41
   7  -7   7   57.25    1.27
   0   0  -8  115.74    2.54
   0   0   8  113.59    2.49
  -2   8   0   -0.12    0.05
   0  -2  -8   -0.08    0.13
   0   2  -8    0.09    0.11
   0   2   8   -0.07    0.09
   0   2   8    0.02    0.14
   2   8   0   -0.13    0.13
   2   0   8   -0.05    0.09
  -2   0   8    0.00    0.11
   0   8   2    0.00    0.07
  -2   0  -8    0.07    0.13
   2  -2   8    0.80    0.09
  -2   2   8    0.76    0.15
  -2   8   2    0.71    0.08
   2   2  -8    0.84    0.11
  -2  -2  -8    0.58    0.16
   2   2   8    0.81    0.11
   2   8   2    0.78    0.17
   0   8   4   79.65    1.76
   0  -4  -8   80.35    1.85
   0   4   8   78.50    1.77
  -4   0   8   82.63    1.79
   4   8   0   79.86    1.83
   0   4   8   80.45    1.86
   0   8   4   80.60    1.87
  -2   4   8    3.17    0.23
  -2  -4  -8    2.84    0.21
   2   8   4    3.13    0.23
   2  -4   8    2.81    0.14
   2   4  -8    3.04    0.15
   4   8  -2    3.88    0.23
   2   4   8    2.77    0.23
   4   8   2    2.94    0.23
  -4  -2  -8    2.79    0.22
  -4   2   8    3.19    0.25
  -2   8   4    2.93    0.15
   2   4   8    2.99    0.19
   4  -4   8    2.35    0.11
   4   8  -4    2.64    0.18
   4   8   4    2.63    0.23
   8  -4   4    2.29    0.11
  -8  -4  -4    2.29    0.21
  -4  -4  -8    2.51    0.22
  -4   4   8    2.73    0.22
  -4  -8  -4    2.54    0.22
   6   8   0   -0.08    0.14
  -8  -6   0   -0.12    0.13
   0   8   6    0.22    0.09
   0   8   6   -0.18    0.16
  -6  -8   0   -0.05    0.13
   0   6   8   -0.02    0.10
   0   6   8    0.22    0.17
  -6  -8  -2   24.36    0.67
   2  -6   8   21.97    0.54
  -8  -6   2   24.67    0.62
   2   8   6   24.38    0.59
   6   8  -2   24.85    0.62
  -6  -2   8   24.44    0.57
  -2  -6  -8   25.64    0.70
  -2   6   8   24.62    0.70
   2   8   6   23.63    0.70
   2   6   8   24.37    0.59
  -6  -2  -8   24.77    0.68
   6   8   2   23.22    0.67
  -2   8   6   23.77    0.58
   2   6   8   23.84    0.70
  -8  -6  -2   24.76    0.67
   4  -6   8   45.67    1.03
   4   8   6   46.04    1.17
  -8  -4  -6   47.07    1.17
  -6  -8  -4   45.86    1.15
  -4  -6  -8   45.37    1.16
  -8  -6   4   45.69    1.05
  -8  -6  -4   45.64    1.15
   4   6   8   47.26    1.18
  -6  -4  -8   46.07    1.16
  -4  -8  -6   46.25    1.17
   4   8  -6   47.66    1.03
   6   8   4   46.56    1.16
  -8  -6  -6   95.65    2.19
  -6  -8  -6   94.33    2.19
  -6  -6  -8   93.85    2.19
   6  -8   6   93.59    2.06
   6  -6   8   94.23    2.04
   6   8   6   93.45    2.19
   8  -6   6   94.13    2.04
  -8  -8   0    1.33    0.17
   0  -8   8    1.10    0.07
   0   8   8    1.32    0.13
   0   8   8    0.97    0.21
  -8  -8  -2   22.64    0.65
  -8  -8   2   23.17    0.61
  -2   8   8   23.28    0.57
  -2   8   8   23.26    0.71
   2   8   8   24.19    0.58
   2   8   8   22.78    0.71
  -8  -8  -4    0.23    0.17
  -8  -4  -8    0.26    0.18
  -4  -8  -8    0.17    0.18
   4  -8   8    0.38    0.10
   4   8   8    0.29    0.19
  -8  -8  -6    2.16    0.24
  -8  -6  -8    2.22    0.25
  -6  -8  -8    2.24    0.24
   6  -8   8    2.50    0.16
   8  -8   8    5.34    0.19
  -1  -1  -9   65.44    1.50
  -1   1  -9   63.70    1.48
  -1   1   9   65.92    1.49
  -1   9   1   63.75    1.41
   1  -1  -9   65.28    1.48
   1  -1   9   62.10    1.41
   1  -1   9   64.49    1.42
   1   1  -9   65.13    1.46
   1   1   9   64.01    1.43
   9   3   1   27.29    0.62
  -3   9   1   26.11    0.61
  -1  -3  -9   27.51    0.73
  -1   3   9   26.95    0.65
  -1   3   9   27.21    0.73
   1  -3   9   26.43    0.63
   1   3  -9   26.89    0.66
   1   9   3   27.42    0.75
  -3  -1   9   26.83    0.66
   3   9  -1   27.95    0.71
   3   1   9   27.17    0.65
   9  -1   3   27.66    0.60
  -3   9  -1   26.76    0.60
   3   9   1   27.61    0.73
  -1   9   3   27.34    0.63
   1   3   9   27.43    0.65
   1   3   9   27.53    0.74
  -3   1   9   27.84    0.70
   3  -1   9   27.12    0.64
  -3  -1  -9   28.76    0.74
   3   9  -3    0.69    0.14
   3   3   9    0.59    0.11
   3   9   3    0.58    0.18
   3  -3   9    0.80    0.06
  -3   3   9    0.53    0.16
   9  -3   3    0.77    0.07
   3  -3   9    0.72    0.09
  -3  -3  -9    0.84    0.18
   1   9   5    9.82    0.42
   1  -5   9    9.63    0.26
   5   9  -1   10.02    0.36
  -5  -1   9    9.48    0.31
  -1   5   9    9.81    0.30
  -9  -5   1   10.11    0.35
   1   9   5   10.04    0.29
  -1  -5  -9    9.50    0.39
  -1   5   9   10.01    0.41
  -1   9   5   10.52    0.45
  -5  -1  -9   10.22    0.41
   1   5   9    9.75    0.41
  -5   1   9   10.33    0.35
   5   9   1   10.34    0.39
  -9  -5  -1    9.42    0.37
  -1   9   5    9.40    0.29
   1   5   9    9.83    0.30
  -3   5   9   47.98    1.19
   3  -5   9   48.58    1.07
   3   9   5   48.96    1.22
  -9  -5   3   48.15    1.12
   5   9  -3   49.27    1.13
  -3  -5  -9   48.65    1.20
  -5  -9  -3   48.29    1.20
   3   5   9   48.26    1.22
  -9  -5  -3   46.47    1.19
   5   9   3   50.10    1.20
   3   5   9   48.34    1.10
   9  -5   3   47.11    1.07
  -5  -3  -9   49.25    1.20
  -5   3   9   49.82    1.18
   5  -5   9   62.20    1.36
   5   9  -5   64.61    1.40
  -9  -5  -5   61.38    1.50
  -9  -5   5   63.72    1.40
  -5  -9  -5   61.94    1.51
  -5  -5  -9   61.99    1.51
   5   9   5   62.06    1.51
   9  -5   5   61.24    1.36
  -7  -9  -1    3.56    0.28
   1   9   7    3.89    0.29
   1   9   7    3.72    0.21
  -9  -7   1    4.08    0.25
  -1   7   9    3.55    0.22
  -1   7   9    3.54    0.27
   1  -7   9    3.77    0.30
   1  -7   9    3.67    0.14
  -7  -1   9    3.80    0.22
  -1   9   7    4.03    0.30
  -9  -7  -1    4.15    0.28
   1   7   9    3.73    0.28
  -1   9   7    3.87    0.20
   1   7   9    3.72    0.22
  -9  -7   3    2.36    0.17
  -7  -9  -3    2.33    0.23
  -9  -3  -7    2.29    0.24
   3  -7   9    2.42    0.17
   3   9   7    2.48    0.26
  -3   7   9    2.34    0.25
  -3  -7  -9    1.99    0.22
   3   7   9    2.65    0.25
  -9  -7  -3    2.94    0.24
   3   7   9    2.26    0.16
  -7  -3  -9    2.04    0.22
   5  -7   9    1.35    0.10
  -9  -5  -7    1.18    0.21
  -5  -7  -9    0.79    0.20
   5   9   7    0.90    0.21
  -9  -7   5    1.14    0.12
  -9  -7  -5    1.24    0.21
  -5  -9  -7    0.94    0.22
   5  -9   7    1.17    0.12
  -7  -5  -9    0.98    0.20
  -9  -7  -7    1.54    0.22
  -7  -9  -7    1.30    0.22
  -7  -7  -9    1.67    0.23
   7  -9   7    1.38    0.12
   7  -7   9    1.58    0.09
   9  -7   7    1.57    0.13
  -9  -9  -1    4.01    0.29
  -9  -9   1    4.30    0.27
  -1   9   9    4.32    0.23
  -1   9   9    4.57    0.35
   1  -9   9    4.25    0.21
   1   9   9    4.50    0.23
   1   9   9    4.23    0.32
  -9  -9  -3   21.96    0.66
  -9  -9   3   21.76    0.59
  -9  -3  -9   22.07    0.69
  -3   9   9   22.22    0.56
  -3   9   9   21.58    0.70
   3  -9   9   22.02    0.54
   3   9   9   22.79    0.57
   3   9   9   21.37    0.71
  -9  -9  -5   43.66    1.13
   5  -9   9   44.75    0.99
   5   9   9   42.31    1.16
   7  -9   9   25.95    0.62
   9  -9   7   26.40    0.62
   9  -9   9   25.12    0.59
   9  -9   9   25.25    0.55
   0   0 -10   -0.02    0.13
   0   0  10    0.05    0.09
  -2  10   0    0.44    0.07
   0  -2 -10    0.32    0.15
   0  -2  10    0.57    0.09
   0  -2  10    0.39    0.10
   0   2 -10    0.68    0.14
   0   2  10    0.40    0.11
   0   2  10    0.41    0.16
   2  10   0    0.46    0.17
  10   0   2    0.50    0.07
   2   0  10    0.57    0.10
  -2   0 -10    0.35    0.16
  -2   0  10    0.38    0.14
   0  10   2    0.47    0.08
  10   2   0    0.43    0.08
   2   2  10   74.57    1.66
   2   2 -10   78.15    1.69
  -2   2 -10   75.91    1.72
  -2   2  10   75.55    1.73
   2  -2  10   74.51    1.65
  -2  -2 -10   76.13    1.75
  -2  10   2   73.08    1.64
   2  -2  10   73.59    1.62
   2  10   2   74.08    1.75
  10  -2   2   74.79    1.63
   0  -4  10   -0.01    0.08
   4  10   0    0.07    0.15
   0  -4 -10   -0.15    0.15
   0  -4  10    0.00    0.09
   4   0  10   -0.08    0.10
  10   4   0    0.05    0.08
   0  10   4   -0.06    0.09
   0  10   4   -0.36    0.16
  -4   0 -10   -0.02    0.16
  -4   0  10    0.07    0.12
   0   4 -10   -0.04    0.11
   0   4  10   -0.09    0.10
   0   4  10    0.16    0.16
   2  10   4    0.11    0.18
   2  -4  10    0.06    0.08
   2   4 -10    0.07    0.10
   4  10  -2    0.02    0.14
  -2  -4 -10   -0.19    0.15
  -2   4  10    0.13    0.17
   2  -4  10    0.07    0.07
  -4  -2 -10    0.36    0.16
  -4   2  10    0.18    0.15
   2   4  10   -0.02    0.11
   2   4  10    0.04    0.18
  -2  10   4    0.05    0.09
   4  10   2   -0.09    0.16
  10  -4   2    0.05    0.07
   4   4  10   43.12    0.98
   4  10  -4   44.33    1.01
  10  -4   4   41.12    0.93
   4  -4  10   42.57    0.93
  -4  -4 -10   42.15    1.08
  -4   4  10   42.82    1.07
   4  10   4   40.19    1.08
   0  10   6   16.74    0.57
   0  -6  10   16.20    0.42
  -6   0  10   16.58    0.46
   0  10   6   16.12    0.42
   0   6  10   16.26    0.44
   0   6  10   16.17    0.57
   0  -6  10   15.64    0.40
 -10  -6   0   16.51    0.50
   6  10   0   17.09    0.52
  -2   6  10   10.13    0.44
  -2  -6 -10    9.83    0.41
   2  10   6   10.06    0.45
   6  10  -2   10.82    0.37
   2  -6  10    9.52    0.27
  -2   6  10   10.52    0.32
   2   6 -10   10.49    0.30
   2  -6  10   10.14    0.29
  -6  -2  10   10.54    0.30
 -10  -6   2    9.79    0.36
   2   6  10   10.11    0.45
   2   6  10   10.43    0.32
 -10  -6  -2   10.41    0.40
  -2  10   6   10.38    0.31
  -6  -2 -10    9.81    0.42
   6  10   2   10.60    0.43
  10  -6   2   10.13    0.29
  -6   2  10   10.98    0.40
   4  -6  10    0.81    0.09
 -10  -6   4    0.77    0.13
  -4   6  10    0.67    0.20
   4  10   6    0.78    0.21
  -4  -6 -10    0.50    0.17
 -10  -4  -6    0.58    0.19
  -6 -10  -4    0.70    0.19
   6  10  -4    0.80    0.13
  -6   4  10    0.69    0.19
 -10  -6  -4    0.61    0.19
  10  -6   4    0.63    0.08
   6  10   4    0.93    0.20
  -6  -4 -10    0.38    0.17
   4  10  -6    0.64    0.12
   6 -10   6   -0.07    0.10
 -10  -6  -6   -0.08    0.18
  10  -6   6    0.03    0.06
  -6 -10  -6    0.13    0.18
  10  -6   6    0.01    0.06
   6  -6  10   -0.11    0.06
   6  10   6    0.15    0.19
 -10  -6   6   -0.01    0.09
  -6  -6 -10    0.24    0.17
 -10  -8   0    0.14    0.15
   0  -8  10   -0.08    0.06
  -8   0  10   -0.10    0.13
   0   8  10   -0.07    0.11
   0   8  10   -0.11    0.19
   0  10   8   -0.11    0.10
   0  10   8   -0.03    0.18
  -8 -10   0   -0.01    0.14
   0  -8  10    0.08    0.10
  -8 -10  -2    8.47    0.38
  -8  -2  10    8.77    0.27
  -2   8  10    8.38    0.29
   2  -8  10    8.27    0.28
   2  10   8    7.53    0.43
   2  10   8    8.46    0.30
 -10  -8   2    8.38    0.33
  -2   8  10    8.20    0.41
   2 -10   8    8.46    0.30
 -10  -8  -2    8.77    0.38
   2   8  10    8.45    0.29
  -8  -2 -10    8.19    0.39
  -2  10   8    8.51    0.29
  -2  10   8    8.04    0.43
   2   8  10    8.52    0.43
  -4   8  10   28.63    0.84
   4  -8  10   29.46    0.68
   4  10   8   27.88    0.84
 -10  -4  -8   29.37    0.85
  -8 -10  -4   28.88    0.83
 -10  -8   4   28.96    0.72
  -4  -8 -10   27.98    0.84
  -8  -4 -10   28.80    0.83
 -10  -8  -4   28.03    0.81
   4  10  -8   30.23    0.67
   4   8  10   28.63    0.85
  -4  10   8   29.50    0.70
   4 -10   8   29.51    0.70
  -8 -10  -6   29.99    0.93
   6  -8  10   28.94    0.68
   6  10   8   29.35    0.87
   6 -10   8   29.44    0.70
 -10  -8  -6   30.07    0.92
  10  -8   6   29.05    0.67
   8 -10   8   28.84    0.68
   8  -8  10   29.20    0.65
   8  -8  10   29.27    0.63
  10  -8   8   27.48    0.65
  10  -8   8   29.26    0.66
  10  -8   8   29.17    0.63
 -10 -10   0    1.47    0.19
   0 -10  10    1.61    0.14
   0  10  10    1.56    0.15
   0  10  10    1.58    0.25
 -10 -10  -2   11.86    0.46
 -10 -10   2   11.82    0.41
  -2  10  10   12.00    0.36
  -2  10  10   11.15    0.51
   2 -10  10   11.89    0.35
   2  10  10   12.47    0.37
   2  10  10   10.92    0.52
 -10 -10  -4   -0.01    0.17
  -4  10  10    0.05    0.12
  -4  10  10    0.13    0.20
   4 -10  10    0.25    0.10
   4  10  10    0.15    0.19
   6 -10  10    0.24    0.10
   8 -10  10    5.11    0.21
   8 -10  10    5.16    0.14
  10 -10   8    5.13    0.21
  10 -10   8    5.29    0.14
  10 -10  10    6.60    0.21
  10 -10  10    6.39    0.17
  -1  -1 -11   38.78    0.97
  -1  -1  11   38.17    0.86
  -1   1 -11   37.77    0.95
  -1   1  11   37.78    0.88
   1  -1 -11   39.11    0.95
   1  -1  11   38.14    0.88
   1   1 -11   38.66    0.93
   1   1  11   38.22    0.89
  11  -1  -1   40.16    0.89
  11  -1   1   37.97    0.86
  11   1  -1   37.39    0.87
  11   1   1   37.95    0.86
   3  11  -1   20.04    0.58
  -3  11   1   19.58    0.46
  -1  -3 -11   19.41    0.59
  -3   1 -11   19.90    0.59
   1  11   3   18.71    0.61
  -1   3  11   19.86    0.51
  -1   3  11   19.30    0.60
   1  -3  11   19.55    0.46
   1  -3  11   19.51    0.48
   1   3 -11   20.02    0.53
  11  -1   3   19.46    0.44
   3   1  11   19.84    0.50
  11   3   1   19.19    0.47
  -3  11  -1   18.89    0.44
  -1   3 -11   19.31    0.55
  -1  -3  11   19.56    0.48
  -3   1  11   19.45    0.56
  -1  11   3   19.26    0.47
   1   3  11   19.82    0.50
   3  -1  11   19.12    0.49
   1   3  11   20.31    0.61
  11  -3   1   19.50    0.47
   3  11   1   18.77    0.59
  -3  -1 -11   19.67    0.60
   3  -3  11   10.30    0.25
   3  -3  11    9.87    0.29
   3   3  11   10.60    0.33
  -3  -3 -11   10.96    0.42
   3  11   3   10.88    0.45
  11  -3   3   10.16    0.27
  -3  11   3    9.94    0.29
   3  11  -3   10.50    0.38
  -3   3  11   10.14    0.41
   1   5 -11    0.16    0.11
  -5   1 -11    0.02    0.16
   1  -5  11    0.08    0.08
   1  11   5    0.26    0.19
  -1  -5 -11   -0.11    0.16
   1  -5  11   -0.03    0.09
  -5  -1  11    0.03    0.11
   5  11  -1    0.13    0.15
  -1   5  11    0.06    0.18
  -1   5  11    0.04    0.11
   1  11   5    0.08    0.10
  -1  -5  11    0.12    0.09
   1   5  11    0.23    0.18
  11  -5   1    0.11    0.09
   5  11   1   -0.05    0.16
  -5  -1 -11   -0.06    0.16
  11   5  -1    0.20    0.09
   1   5  11    0.17    0.11
  -5   1  11    0.01    0.14
  -1  11   5    0.16    0.10
  -1  11   5   -0.06    0.19
  -3   5  11    6.33    0.37
   3  -5  11    5.91    0.21
   3  11   5    6.33    0.40
   5  11  -3    6.97    0.31
  -3  -5 -11    6.24    0.35
   3  -5  11    6.48    0.20
  -5  -3 -11    6.49    0.37
  -3  11   5    6.51    0.23
 -11  -5  -3    6.53    0.35
  11  -5   3    6.56    0.21
   5  11   3    6.43    0.37
   3   5  11    6.47    0.27
  -5   3  11    6.61    0.33
   5  11   5    3.69    0.29
  -5   5  11    3.28    0.26
   5  11  -5    3.45    0.22
 -11  -5  -5    3.46    0.28
  11  -5   5    3.37    0.14
  -5  -5 -11    3.59    0.30
   1  -7  11    7.55    0.26
   1  -7  11    7.37    0.23
  11  -7  -1    7.85    0.30
   7  11  -1    8.39    0.36
  -7  -1  11    7.61    0.28
 -11  -7   1    7.55    0.34
   1  11   7    7.91    0.27
  -1   7  11    7.69    0.43
  -1   7  11    7.59    0.28
   1  11   7    7.80    0.42
 -11  -7  -1    8.14    0.36
  -1  11   7    7.27    0.44
  -1  11   7    7.62    0.26
  -7   1  11    7.85    0.33
  -7  -1 -11    7.69    0.38
   7  11   1    7.61    0.38
   1   7  11    8.50    0.30
   1   7  11    8.20    0.42
  -1  -7  11    8.01    0.28
  11  -7   1    7.72    0.26
  -3   7  11    2.26    0.16
   3  11   7    1.82    0.25
 -11  -7   3    2.04    0.18
  -3  -7 -11    1.92    0.22
   3  -7  11    1.79    0.12
   7  11  -3    2.12    0.18
  -3   7  11    1.98    0.24
  -7  -3 -11    1.95    0.22
   3   7  11    2.21    0.16
 -11  -7  -3    2.37    0.23
   3   7  11    2.33    0.27
   3 -11   7    2.36    0.17
  -7   3  11    2.06    0.21
  11  -7   3    2.02    0.12
  11   7  -3    2.09    0.17
  -3  11   7    1.98    0.14
   7  11   3    2.01    0.24
  -5   7  11   16.67    0.60
   5  -7  11   17.51    0.41
   5  11   7   16.43    0.60
  -7 -11  -5   16.46    0.58
 -11  -7   5   17.05    0.46
   7  11   5   16.48    0.59
  -7   5  11   17.45    0.58
   5 -11   7   17.15    0.46
 -11  -7  -5   16.50    0.57
 -11  -5   7   17.52    0.44
   5  11  -7   17.99    0.44
  11  -7   5   16.70    0.41
  -7   7  11   27.04    0.82
   7 -11   7   28.05    0.67
  11  -7   7   27.95    0.62
   7  11   7   27.48    0.83
  11  -7   7   27.95    0.63
   1  -9  11    4.86    0.24
 -11  -9   1    5.34    0.30
  -1   9  11    5.26    0.24
   1  11   9    5.03    0.25
  -1   9  11    5.86    0.41
   1  11   9    4.17    0.33
  11  -9  -1    4.81    0.23
  -9 -11  -1    5.06    0.33
  -9  -1  11    5.30    0.24
  11  -9   1    5.04    0.22
   1 -11   9    5.10    0.24
  -1  11   9    4.64    0.39
 -11  -9  -1    4.41    0.31
  -1  -9  11    4.63    0.17
  -1  11   9    5.33    0.23
  -1  -9  11    4.81    0.23
   1   9  11    5.26    0.24
   1   9  11    5.81    0.39
  -3   9  11    2.06    0.26
 -11  -9   3    2.31    0.19
   3  11   9    2.39    0.28
   3  -9  11    2.46    0.19
  -3   9  11    2.45    0.20
  -9 -11  -3    2.10    0.23
  -3  11   9    2.22    0.16
   3   9  11    2.44    0.21
   3   9  11    2.25    0.28
   3 -11   9    2.78    0.21
  -3  11   9    2.21    0.28
  11  -9   3    1.93    0.13
 -11  -9  -3    2.34    0.24
   5  -9  11    0.40    0.09
  -5   9  11    0.10    0.20
   5  11   9    0.39    0.21
  11  -9   5    0.30    0.08
   5 -11   9    0.34    0.11
   5   9  11    0.11    0.21
   9 -11   7    2.59    0.19
   7  -9  11    2.59    0.09
  -7   9  11    2.12    0.27
   7  -9  11    2.48    0.15
   7 -11   9    2.71    0.20
  11  -9   7    2.50    0.14
  11  -9   7    2.13    0.16
  11  -9   7    2.46    0.09
   9 -11   9    3.07    0.19
   9 -11   9    2.94    0.11
   9  -9  11    2.77    0.14
   9  -9  11    2.92    0.09
  11  -9   9    2.84    0.13
  11  -9   9    2.93    0.15
  11  -9   9    3.09    0.10
 -11 -11  -1    2.88    0.25
 -11 -11   1    2.47    0.22
  -1  11  11    2.97    0.23
   1 -11  11    3.12    0.22
   1  11  11    3.07    0.22
 -11 -11  -3   14.73    0.61
  -3  11  11   15.75    0.44
   3 -11  11   15.12    0.43
  -5  11  11    2.16    0.18
   5 -11  11    2.37    0.15
   7 -11  11    8.19    0.27
   7 -11  11    8.21    0.21
  11 -11   7    8.44    0.28
  11 -11   7    8.44    0.21
   9 -11  11    4.39    0.20
   9 -11  11    4.52    0.14
  11 -11   9    4.84    0.21
  11 -11   9    4.94    0.14
  11  -9  11    4.83    0.13
  11 -11  11    0.71    0.08
  11 -11  11    0.66    0.09
  11 -11  11    0.67    0.06
   0   0 -12  164.49    3.67
   0   0  12  168.54    3.61
  12   0   0  165.64    3.59
   0  -2 -12   -0.14    0.15
   0  -2  12   -0.13    0.07
   0  -2  12   -0.01    0.10
   0   2 -12   -0.09    0.14
   0   2  12    0.00    0.11
   2  12   0   -0.12    0.16
  12   0  -2    0.02    0.10
  12   0   2    0.13    0.07
  12   2   0   -0.17    0.08
  12  -2   0    0.08    0.10
   2   0  12   -0.21    0.11
  -2   0 -12   -0.16    0.15
   2  12   2   -0.03    0.17
   2   2  12    0.00    0.11
   2  -2  12    0.23    0.10
  -2  -2 -12    0.12    0.17
  -2  -2  12    0.21    0.09
  -2   2 -12    0.07    0.15
  -2   2  12    0.06    0.15
  -2  12   2    0.23    0.08
  12  -2   2    0.18    0.08
  12   2  -2    0.17    0.08
   2   2 -12    0.05    0.12
  12  -2  -2    0.29    0.10
   0   4 -12   27.82    0.70
   4  12   0   27.68    0.75
  -4   0 -12   26.94    0.76
   0  -4  12   27.60    0.64
   0   4  12   25.69    0.77
  -4  12   0   26.74    0.61
   0  -4  12   26.38    0.63
   0  12   4   26.62    0.80
   4   0  12   26.69    0.66
  12  -4   0   27.01    0.64
  12   4   0   27.34    0.64
   0   4  12   27.60    0.67
   0  12   4   27.72    0.64
  -4   0  12   27.06    0.70
  12  -4  -2    6.02    0.24
   4   2  12    6.07    0.26
   4  12  -2    6.07    0.31
  -2   4  12    5.78    0.35
  -4   2 -12    6.10    0.34
  -4  12   2    6.06    0.20
  -2  -4 -12    5.94    0.34
   2  -4  12    5.96    0.19
   2   4 -12    6.27    0.26
  -2   4  12    5.73    0.25
   2  12   4    5.60    0.37
   2  -4  12    5.80    0.22
  -2   4 -12    6.16    0.30
  -4  -2 -12    6.32    0.35
   2   4  12    6.13    0.25
   4  -2  12    5.68    0.23
   4  12   2    6.10    0.36
  12  -4   2    6.07    0.21
  -2  -4  12    5.97    0.23
  -4   2  12    5.70    0.32
  -2  12   4    6.18    0.22
  12   4  -2    6.21    0.24
   4   4  12    7.03    0.27
   4  12  -4    6.43    0.30
  -4  12   4    6.65    0.23
  12  -4   4    6.52    0.20
  -4   4  12    6.90    0.37
  -4  -4 -12    5.83    0.35
   4  12   4    6.71    0.40
 -12  -6   0   -0.14    0.14
   0  12   6    0.00    0.10
   0  12   6   -0.19    0.19
  12  -6   0    0.06    0.09
   0   6 -12    0.04    0.12
   0   6  12    0.08    0.12
   0   6  12    0.00    0.18
   0  -6  12   -0.06    0.08
   0  -6  12   -0.04    0.10
   6  12   0    0.03    0.16
  -6   0  12    0.13    0.13
  -6   0 -12   -0.09    0.17
   2  12   6    1.36    0.23
   2  -6  12    1.21    0.10
   2  -6  12    1.41    0.11
  -2   6  12    1.11    0.22
  12  -6  -2    1.27    0.12
 -12  -6   2    1.45    0.18
  -2   6  12    1.48    0.14
   6  12  -2    1.19    0.18
   2   6 -12    1.54    0.13
  -2  -6 -12    1.22    0.21
 -12  -6  -2    1.37    0.20
   2   6  12    1.43    0.14
  12  -6   2    1.34    0.11
  12   6  -2    1.48    0.14
   2   6  12    1.14    0.23
  -2  -6  12    1.30    0.12
  -6  -2 -12    1.47    0.21
  -6   2  12    1.43    0.19
  -2  12   6    1.45    0.13
  -2  12   6    0.81    0.22
   6  12   2    1.56    0.21
   4  -6  12    0.07    0.07
   4  12   6    0.13    0.19
  -4   6  12    0.01    0.18
 -12  -6   4    0.00    0.12
   6  12  -4   -0.01    0.12
   4  12  -6   -0.07    0.11
   6  12   4    0.14    0.18
  12   6  -4    0.16    0.13
   4 -12   6    0.01    0.10
 -12  -6  -4   -0.01    0.17
  -4  12   6    0.00    0.10
  -6   4  12    0.12    0.17
  12  -6   4    0.04    0.07
   4   6  12   -0.15    0.12
  12  -6   6   17.55    0.42
  -6   6  12   17.85    0.60
 -12  -6   6   18.24    0.48
   6  12   6   16.87    0.63
   6  12  -6   18.65    0.49
   0  -8  12    1.83    0.14
   0  -8  12    1.88    0.13
   0   8  12    2.09    0.16
   0  12   8    2.26    0.20
  12  -8   0    2.14    0.14
   0   8  12    1.65    0.25
  -8   0  12    2.11    0.18
   0  12   8    1.52    0.25
 -12  -8   0    1.98    0.21
   2  -8  12    3.99    0.21
  -8  -2  12    3.92    0.19
  12  -8  -2    4.07    0.23
   2  12   8    3.83    0.31
   2   8 -12    4.37    0.23
  -2   8  12    4.46    0.25
  -2   8  12    3.47    0.31
 -12  -8   2    3.90    0.27
  -2  12   8    4.06    0.22
   2   8  12    4.18    0.24
   2   8  12    3.68    0.31
  -2  -8  12    4.05    0.22
   2 -12   8    3.93    0.24
   8  12   2    4.11    0.33
  -8   2  12    4.19    0.29
  12  -8   2    4.09    0.20
 -12  -8  -2    4.11    0.31
  -2  12   8    3.61    0.31
 -12  -8   4    0.62    0.14
   4  -8  12    0.69    0.09
   4  12   8    0.57    0.22
   4  -8  12    0.71    0.07
  -4   8  12    0.65    0.21
  -4   8  12    0.58    0.13
  12  -8   4    0.58    0.09
  -8   4  12    0.69    0.19
  -4  12   8    0.61    0.12
   4   8  12    0.80    0.23
   4 -12   8    0.52    0.11
 -12  -8  -4    0.47    0.20
   8  12   4    0.73    0.21
  -6   8  12    0.16    0.20
   6  -8  12    0.03    0.07
   6  -8  12    0.11    0.04
  12  -8   6    0.12    0.07
  12  -8   6    0.10    0.04
   6 -12   8    0.17    0.10
  -8   6  12    0.00    0.18
   8 -12   8    0.54    0.11
  -8   8  12    0.74    0.22
  12  -8   8    0.71    0.04
   0 -10  12    0.04    0.11
   0  12  10   -0.08    0.12
  12 -10   0   -0.07    0.10
 -12 -10   0    0.13    0.15
   0  10  12    0.10    0.12
   2  12  10    1.86    0.16
   2 -10  12    1.65    0.14
  -2  10  12    1.58    0.16
 -10 -12  -2    1.59    0.22
 -12 -10   2    1.66    0.19
   2  10  12    1.76    0.16
 -10   2  12    1.52    0.20
  -2  12  10    1.78    0.15
   2 -12  10    1.39    0.13
 -12 -10  -2    1.68    0.21
  12 -10   2    1.53    0.13
  -4  10  12    2.71    0.22
   4 -10  12    2.87    0.20
  12 -10   4    2.97    0.18
   4 -12  10    2.70    0.22
  -4  12  10    3.25    0.24
   6 -10  12    5.83    0.22
   6 -10  12    5.92    0.16
  -6  12  10    6.39    0.29
   6 -12  10    5.92    0.26
  12 -10   6    5.94    0.21
  12 -10   6    5.84    0.16
   8 -10  12    2.84    0.10
  10 -12   8    3.02    0.21
  10 -12   8    2.88    0.12
   8 -10  12    2.94    0.16
   8 -12  10    2.72    0.21
   8 -12  10    2.71    0.12
  12 -10   8    2.98    0.16
  12 -10   8    3.00    0.17
  12 -10   8    3.04    0.11
  10 -12  10    0.78    0.11
  10 -12  10    0.73    0.06
  10 -10  12    0.74    0.05
  12 -10  10    0.72    0.05
 -12 -12   0    8.52    0.41
   0  12  12    9.70    0.35
  -2  12  12    8.96    0.33
   2 -12  12    9.10    0.32
   2  12  12    8.66    0.34
  -4  12  12    3.63    0.28
   4 -12  12    3.63    0.24
  -6  12  12    0.20    0.15
   6 -12  12    0.49    0.11
   6 -12  12    0.50    0.06
  12 -12   6    0.66    0.06
  12  12   6    0.66    0.05
   8 -12  12    0.04    0.11
   8 -12  12    0.04    0.05
  12 -12   8    0.07    0.11
  12 -12   8    0.11    0.06
  12  12   8    0.15    0.04
  10 -12  12    1.35    0.11
  10 -12  12    1.37    0.10
  12 -12  10    1.39    0.10
  12 -12  10    1.25    0.12
  12 -12  10    1.41    0.10
  12 -10  12    1.48    0.08
  12 -12  12   -0.02    0.05
  -1  -1 -13   30.27    0.82
  -1  -1  13   30.41    0.73
  -1   1 -13   29.50    0.80
  -1   1  13   31.54    0.74
   1  -1 -13   31.31    0.81
   1  -1  13   30.86    0.73
   1   1 -13   29.87    0.79
   1   1  13   31.38    0.74
   1  13   1   29.17    0.84
  13  -1  -1   30.47    0.72
  13  -1   1   30.45    0.70
  13   1  -1   30.68    0.71
  13   1   1   30.30    0.70
  -3  13   1    5.20    0.19
  -1  -3 -13    5.15    0.34
   3   1  13    5.76    0.25
  13  -3  -1    5.58    0.23
   1  13   3    5.10    0.38
  -1   3  13    5.45    0.25
  -1   3  13    5.30    0.35
   1  -3  13    5.49    0.19
   1  -3  13    5.49    0.23
   1   3 -13    5.62    0.28
  13   3   1    5.22    0.21
   3  13  -1    5.74    0.33
  -3  -1  13    5.64    0.22
  -3   1 -13    5.02    0.32
  13  -1   3    5.44    0.17
  13   1  -3    5.68    0.24
  -1   3 -13    5.58    0.30
   3  -1  13    5.37    0.24
  -1  -3  13    5.51    0.21
  -1  -3  13    5.76    0.24
  13  -3   1    5.51    0.22
  13   3  -1    5.33    0.22
   1   3  13    5.60    0.26
  -3   1  13    5.95    0.31
  -1  13   3    5.82    0.21
  13  -1  -3    5.60    0.24
   3  13   1    5.66    0.35
  -3  -1 -13    5.60    0.35
  -3   3  13    0.46    0.17
  -3   3 -13    0.57    0.17
  13  -3   3    0.58    0.08
  13   3  -3    0.58    0.13
   3  -3  13    0.44    0.10
   3   3  13    0.53    0.13
   3  13  -3    0.53    0.17
  13  -3  -3    0.30    0.11
  -3  -3 -13    0.22    0.18
  -3  -3  13    0.42    0.11
   3  13   3    0.46    0.20
  -3  13   3    0.60    0.10
   1  -5  13   10.60    0.32
  -5  -1  13   11.26    0.34
  -1   5  13   11.53    0.36
  -1   5  13   10.86    0.47
  -5   1 -13   11.58    0.46
  -5  13   1   10.96    0.30
   1  -5  13   11.13    0.31
  13  -5  -1   10.93    0.33
  -1  -5 -13   10.54    0.46
   1   5 -13   11.43    0.37
   1  13   5   10.22    0.47
   5  13  -1   11.01    0.44
  -1   5 -13   11.00    0.39
   5  13   1   11.39    0.47
  13  -5   1   11.44    0.32
  -1  -5  13   11.15    0.32
  -1  13   5   10.90    0.49
  -5   1  13   11.41    0.40
  -1  13   5   11.36    0.33
  13   5  -1   11.08    0.34
  -1  -5  13   11.31    0.32
  -5  -1 -13   10.50    0.45
   1   5  13   10.70    0.49
   1   5  13   11.43    0.36
   3  13   5    2.30    0.26
   3  -5  13    2.70    0.14
  -5  13   3    2.39    0.16
  -3  -5 -13    2.24    0.25
   3  -5  13    2.37    0.17
   5  13  -3    2.56    0.22
  13  -5  -3    2.83    0.20
  -3   5  13    2.62    0.26
  -5  -3  13    2.61    0.18
  -3   5  13    2.76    0.21
  -3  13   5    2.52    0.18
  -3  -5  13    2.48    0.19
  -5   3  13    2.25    0.23
  -5  -3 -13    2.54    0.27
   3  13  -5    2.87    0.24
   3   5  13    2.26    0.17
  13  -5   3    2.31    0.15
   5  13   3    3.04    0.27
   5  13  -5    1.29    0.16
  13  -5   5    0.84    0.07
   5  13   5    0.85    0.22
  -5   5  13    1.29    0.21
  -5  13   5    1.11    0.12
   1  -7  13    1.66    0.11
  13  -7  -1    1.68    0.13
  -7  -1  13    1.64    0.15
   1  -7  13    1.59    0.12
  -1   7  13    1.78    0.25
  -1   7  13    1.41    0.15
   1  13   7    1.68    0.15
   1  13   7    1.38    0.25
   7  13  -1    1.70    0.20
   1   7 -13    1.49    0.14
 -13  -7   1    1.51    0.19
   1   7  13    1.61    0.25
  -1  -7  13    1.41    0.12
 -13  -7  -1    1.72    0.21
  -1  13   7    1.26    0.24
  -1  -7  13    1.63    0.12
   1   7  13    1.40    0.15
  -1  13   7    2.41    0.19
  -7   1  13    1.78    0.19
   7  13   1    1.83    0.22
  13  -7   1    1.80    0.13
 -13  -7   3    4.43    0.28
  -3   7  13    4.32    0.24
  -3   7  13    4.15    0.32
   3  -7  13    4.62    0.19
   7  13  -3    4.88    0.29
   3  13   7    3.89    0.32
  13  -7  -3    4.65    0.25
  -3  13   7    4.86    0.23
  -3  13   7    4.93    0.39
  13  -7   3    4.42    0.19
  -7   3  13    4.36    0.30
   7  13   3    4.28    0.36
   3   7  13    4.96    0.26
 -13  -7  -3    4.20    0.33
   3   7  13    4.00    0.32
  -3  -7  13    4.78    0.23
  13   7  -3    4.52    0.25
   5  13   7    0.30    0.27
  -5   7  13    0.41    0.19
   5  -7  13    0.20    0.07
  13  -7   5    0.16    0.04
   5 -13   7    0.35    0.12
  -5  13   7    0.25    0.12
  -7   5  13    0.19    0.18
  13  -7   5    0.22    0.08
   7  13   5    0.32    0.20
  13  -7   7    1.04    0.06
   7 -13   7    1.05    0.14
  -7   7  13    0.83    0.22
   1  13   9    2.03    0.16
 -13  -9   1    2.20    0.22
   1  -9  13    1.86    0.14
  13  -9  -1    1.86    0.14
  -1   9  13    1.92    0.17
  -1   9  13    1.66    0.31
  13  -9   1    1.95    0.13
   1   9  13    1.79    0.16
  -1  -9  13    1.82    0.14
  -1  13   9    2.00    0.16
  -9   1  13    1.76    0.23
 -13  -9  -1    2.03    0.23
   3  -9  13    0.11    0.09
  -3   9  13    0.04    0.13
  -3   9  13    0.00    0.21
   3   9  13    0.01    0.13
   3 -13   9    0.00    0.10
  -3  13   9    0.11    0.12
  13  -9   3    0.10    0.09
  -9   3  13    0.37    0.17
  -5   9  13    1.45    0.17
   5  -9  13    1.97    0.09
   5  -9  13    1.96    0.15
  -9   5  13    1.92    0.24
  13  -9   5    1.84    0.09
  13  -9   5    1.80    0.11
   5 -13   9    1.76    0.15
  -5  13   9    1.86    0.16
   7  -9  13    0.87    0.08
   7  -9  13    0.88    0.05
   9 -13   7    0.70    0.12
   7 -13   9    0.72    0.13
  -9   7  13    0.94    0.22
  13  -9   7    0.73    0.08
  13  -9   7    0.98    0.06
  13  -9   7    0.83    0.09
   9 -13   9   -0.09    0.06
   9 -13   9   -0.03    0.12
   9  -9  13   -0.01    0.04
  13  -9   9   -0.05    0.04
   1 -11  13    0.03    0.11
  -1  11  13    0.18    0.14
   1  13  11    0.03    0.14
   1  11  13    0.02    0.13
  13 -11   1    0.24    0.11
  -1  13  11    0.15    0.13
 -13 -11  -1    0.23    0.18
   3 -11  13    0.14    0.11
  -3  11  13    0.16    0.14
  13 -11   3    0.06    0.10
  -3  13  11    0.20    0.14
   3 -13  11   -0.10    0.12
   3  11  13   -0.16    0.14
  13  11   5    0.07    0.04
   5 -11  13   -0.02    0.05
  -5  11  13   -0.33    0.14
   5 -11  13   -0.02    0.10
  -5  13  11   -0.27    0.14
  13 -11   5    0.02    0.05
  13 -11   5    0.12    0.10
   5 -13  11   -0.12    0.12
   7 -11  13    0.07    0.09
   7 -11  13   -0.03    0.05
  11 -13   7    0.20    0.11
  11 -13   7    0.02    0.06
  13  11   7   -0.07    0.03
   7 -13  11   -0.06    0.11
   7 -13  11    0.04    0.06
  13 -11   7   -0.08    0.09
  13 -11   7    0.09    0.10
  13 -11   7    0.02    0.05
  11 -13   9   -0.09    0.11
  11 -13   9    0.05    0.06
  13  -9  11    0.01    0.04
   9 -11  13   -0.02    0.05
   9 -11  13   -0.04    0.08
   9 -13  11   -0.09    0.11
   9 -13  11   -0.21    0.05
  11  -9  13    0.04    0.04
  13 -11   9    0.03    0.08
  13 -11   9   -0.08    0.09
  13 -11   9   -0.02    0.05
  11 -13  11    0.82    0.12
  11 -13  11    0.56    0.07
  11 -11  13    0.62    0.06
  13 -11  11    0.62    0.06
  -1  13  13    8.31    0.33
   1 -13  13    7.10    0.41
   1  13  13    8.34    0.36
  -3  13  13    2.05    0.18
   3 -13  13    1.89    0.17
  13 -13   3    1.81    0.16
  -5  13  13    2.46    0.20
   5 -13  13    2.40    0.17
  13 -13   5    2.50    0.16
  -7  13  13   -0.31    0.16
   7 -13  13    0.07    0.11
   7 -13  13    0.03    0.06
  13 -13   7   -0.05    0.10
  13 -13   7   -0.11    0.12
  13 -13   7    0.03    0.06
   9 -13  13    1.58    0.13
   9 -13  13    1.90    0.11
  13 -13   9    1.48    0.12
  13 -13   9    1.39    0.14
  13 -13   9    1.31    0.08
  13  -9  13    1.58    0.07
  13  13   9    1.52    0.08
  11 -13  13    0.76    0.07
  13 -13  11    0.81    0.09
  13 -13  11    0.71    0.10
  13 -13  11    0.66    0.07
  13 -11  13    0.73    0.06
   0   0 -14   -0.02    0.15
   0   0  14   -0.12    0.11
  14   0   0   -0.05    0.08
   0  -2 -14    3.29    0.26
   0  -2  14    3.17    0.21
   0   2 -14    3.78    0.27
   0   2  14    3.33    0.23
   2  14   0    2.93    0.26
  14   0  -2    2.93    0.20
  14   0   2    3.28    0.15
  14   0   2    3.13    0.09
  -2   0 -14    2.94    0.25
  -2   0  14    3.56    0.23
   2   0  14    3.31    0.21
  14  -2   0    3.32    0.19
  14   2   0    3.23    0.18
   2   2  14   25.11    0.62
   2  14  -2   23.64    0.71
   2  14   2   23.16    0.74
  14  -2  -2   24.50    0.60
  -2  14   2   24.11    0.58
   2   2 -14   25.23    0.66
  -2  -2 -14   24.10    0.71
  -2  -2  14   24.28    0.59
  -2   2 -14   24.44    0.69
  -2   2  14   24.68    0.62
  14  -2   2   24.76    0.53
  14   2  -2   24.87    0.60
   2  -2  14   24.64    0.60
  14  -2   2   24.44    0.57
  14   0  -4   -0.03    0.12
   0   4  14   -0.04    0.13
   0   4  14    0.31    0.18
   0  14   4   -0.02    0.19
   4   0  14   -0.02    0.11
  14  -4   0   -0.04    0.10
  14   4   0    0.05    0.09
   0  -4  14   -0.02    0.10
   0   4 -14    0.01    0.14
   4  14   0    0.18    0.17
  -4   0 -14   -0.07    0.17
   0  -4  14    0.02    0.08
   2   4 -14    4.94    0.25
  -2  -4 -14    4.33    0.35
   2  14   4    4.61    0.38
  -4  14   2    4.89    0.19
  -4   2 -14    5.14    0.33
  -2   4  14    4.83    0.25
  -2   4  14    5.24    0.35
   4   2  14    5.08    0.26
  14  -4  -2    5.21    0.24
   4  14  -2    4.76    0.32
  -4   2  14    4.95    0.32
  -2   4 -14    5.08    0.30
   4  14   2    5.16    0.36
  14  -2  -4    4.99    0.26
  14   4  -2    4.94    0.23
   4  -2  14    4.31    0.22
   2   4  14    4.88    0.26
  -2  14   4    4.96    0.21
  -2  -4  14    4.98    0.22
  -4  -2 -14    4.97    0.36
  14  -4   2    5.08    0.21
   4   4  14   -0.14    0.13
  -4   4  14    0.12    0.18
  -4   4 -14   -0.09    0.16
   4  14   4    0.02    0.19
  14  -4  -4   -0.10    0.11
   4  14  -4   -0.03    0.14
  -4  14   4    0.01    0.10
  -4  -4  14   -0.01    0.11
  14   4  -4   -0.06    0.11
  14  -4   4   -0.03    0.06
 -14  -6   0   10.89    0.43
   0  14   6   11.61    0.35
  -6   0  14   10.80    0.39
   0   6 -14   11.14    0.37
   0   6  14   11.12    0.35
   0  -6  14   11.13    0.32
   0  -6  14   10.93    0.32
   6  14   0   10.77    0.45
  14  -6   0   10.63    0.33
   0   6  14    9.97    0.48
   0  14   6   10.52    0.51
   2  -6  14   -0.01    0.08
 -14  -6   2    0.16    0.15
  -2   6  14    0.09    0.13
  -2   6  14   -0.06    0.19
  -6   2 -14    0.16    0.26
  14  -6  -2   -0.02    0.10
   2  -6  14    0.04    0.09
  -6  14   2   -0.07    0.09
   2  14   6    0.01    0.21
   6  14  -2   -0.08    0.15
 -14  -6  -2    0.31    0.17
  14   6  -2   -0.13    0.11
   6  14   2    0.04    0.18
  -2   6 -14   -0.16    0.13
  -6   2  14    0.17    0.15
  -2  -6  14   -0.02    0.10
  14  -6   2    0.10    0.09
   2   6  14   -0.03    0.13
  -2  14   6    0.01    0.11
 -14  -6   4    6.76    0.32
  -6  14   4    6.66    0.25
   4  14   6    7.57    0.54
  -4   6  14    6.46    0.41
   4  -6  14    6.89    0.20
   6  14  -4    7.14    0.33
   4  14  -6    6.74    0.37
  -4  14   6    6.90    0.27
  14  -6   4    6.74    0.22
  14  -6   4    6.72    0.17
  14   6  -4    6.64    0.29
  -6   4  14    6.58    0.38
   6  14   4    6.38    0.41
  -4  -6  14    6.93    0.27
   4   6  14    6.99    0.29
  -6   6  14    0.14    0.19
  -6  14   6    0.34    0.12
  14  -6   6    0.32    0.03
   0  -8  14    0.19    0.09
   0   8  14   -0.04    0.13
   8  14   0    0.13    0.18
   0  -8  14    0.15    0.10
  14  -8   0   -0.01    0.10
 -14  -8   0    0.09    0.16
   0   8  14    0.08    0.36
   0  14   8   -0.05    0.12
  -2   8  14    0.80    0.15
   2  -8  14    0.68    0.10
  14  -8  -2    0.92    0.13
   8  14  -2    0.89    0.17
   2  -8  14    0.98    0.06
 -14  -8   2    0.83    0.17
  -2   8  14    0.64    0.23
   2   8  14    0.84    0.14
  14  -8   2    0.80    0.11
  -8   2  14    1.12    0.19
  -2  -8  14    0.97    0.13
  -2  -8  14    0.93    0.11
   8  14   2    1.04    0.22
  -2  14   8    0.81    0.14
  -4   8  14   -0.06    0.13
  -4   8  14   -0.13    0.20
   4  -8  14    0.06    0.05
   4  -8  14    0.02    0.08
  14   8   4   -0.03    0.03
  14  -8   4   -0.02    0.09
  -4  14   8    0.13    0.12
  -8   4  14   -0.24    0.16
  14  -8   4   -0.04    0.05
   8  14   4   -0.13    0.19
  -6   8  14    0.81    0.25
   6  -8  14    0.99    0.08
   6 -14   8    0.94    0.15
  -6  14   8    1.20    0.14
  14  -8   6    1.00    0.09
  14  -8   6    1.09    0.08
  -8   6  14    0.60    0.20
  14  -8   8    0.16    0.04
   8 -14   8    0.01    0.12
   0 -10  14    3.97    0.23
 -14 -10   0    3.08    0.26
  14 -10   0    3.73    0.23
   0  10  14    3.79    0.26
   0  14  10    4.10    0.26
  -2  10  14    5.96    0.30
   2 -10  14    5.43    0.25
  -2  14  10    5.34    0.28
  14 -10   2    5.66    0.24
   2  10  14    5.73    0.30
  14  10   4    0.85    0.05
   4 -10  14    0.77    0.06
   4 -10  14    1.02    0.11
  -4  10  14    0.78    0.16
  -4  14  10    0.75    0.15
  14 -10   4    0.79    0.06
   4 -14  10    0.65    0.15
  14 -10   4    0.89    0.11
   6 -10  14    0.45    0.05
  14  10   6    0.43    0.04
   6 -10  14    0.35    0.09
  -6  10  14    0.08    0.15
 -10   6  14    0.33    0.20
  14 -10   6    0.54    0.10
  -6  14  10    0.33    0.15
   6 -14  10    0.27    0.13
  14 -10   6    0.48    0.06
  14  -8  10    1.01    0.06
  10 -14   8    0.85    0.13
   8 -10  14    0.95    0.06
  14 -10   8    1.07    0.10
  14 -10   8    0.90    0.08
  14 -10   8    0.86    0.06
   8 -14  10    0.74    0.13
  -8  14  10    0.83    0.16
  10 -10  14    0.04    0.05
  10 -14  10    0.30    0.13
  14 -10  10    0.01    0.05
   0 -12  14    0.35    0.13
   0  14  12    0.28    0.15
   0  12  14    0.39    0.15
   2 -12  14    0.07    0.12
  -2  12  14    0.21    0.15
  14 -12   2    0.12    0.12
   2  12  14    0.16    0.16
  -2  14  12    0.11    0.15
   4 -12  14    0.36    0.12
  -4  12  14    0.33    0.16
  -4  14  12    0.41    0.15
   4 -14  12    0.21    0.13
  14 -12   4    0.33    0.12
   6 -12  14   -0.16    0.10
  -6  12  14   -0.43    0.15
   6 -12  14   -0.04    0.06
  14  12   6    0.01    0.05
  14 -12   6   -0.03    0.06
  -6  14  12   -0.24    0.15
  14 -12   6   -0.04    0.11
   6 -14  12   -0.30    0.12
  -8  12  14   -0.59    0.16
   8 -12  14   -0.01    0.06
  12 -14   8    0.01    0.13
  14  12   8    0.06    0.04
   8 -12  14   -0.03    0.09
  -8  14  12   -0.35    0.16
  14 -12   8   -0.05    0.06
  14 -12   8    0.08    0.09
  14 -12   8    0.11    0.11
   8 -14  12    0.01    0.12
  10 -12  14    1.62    0.10
  12 -14  10    1.42    0.09
  12 -14  10    1.53    0.15
  14 -10  12    1.47    0.09
  12  14  10    1.21    0.09
  10 -14  12    1.62    0.14
  10 -14  12    1.48    0.11
  12 -10  14    1.45    0.08
  14 -12  10    1.30    0.08
  12 -14  12    3.08    0.18
  12 -14  12    3.36    0.20
  12 -14  12    2.68    0.13
  12 -12  14    2.77    0.12
  14 -12  12    2.73    0.12
   0  14  14   15.39    0.48
  -2  14  14    0.11    0.16
   2 -14  14    0.08    0.15
  -4  14  14    4.23    0.30
   4 -14  14    3.77    0.28
  14 -14   4    4.19    0.25
  -6  14  14   -0.02    0.17
   6 -14  14   -0.02    0.13
  14 -14   6    0.01    0.11
  -8  14  14    0.16    0.18
   8 -14  14    0.04    0.12
  14 -14   8    0.01    0.11
  14 -14   8    0.07    0.13
 -10  14  14    0.04    0.18
  10 -14  14    0.17    0.10
  10 -14  14    0.07    0.06
  14 -14  10    0.10    0.10
  14 -14  10    0.05    0.11
  14 -14  10    0.05    0.07
  14 -10  14    0.10    0.05
  14  14  10   -0.05    0.08
  -1  -1 -15    1.86    0.22
  -1  -1  15    2.22    0.16
  -1   1 -15    1.99    0.21
  -1   1  15    2.07    0.16
   1  -1  15    2.03    0.16
   1   1 -15    2.01    0.21
   1   1  15    2.02    0.16
   1  15   1    1.90    0.24
  15  -1  -1    2.33    0.15
  15  -1   1    1.94    0.15
  15   1  -1    1.75    0.12
  15   1   1    1.85    0.11
  -1  -3 -15    5.28    0.35
   1  15   3    4.57    0.36
   3   1  15    5.34    0.26
  15  -1   3    5.15    0.17
  -1   3  15    5.57    0.28
   1  -3  15    5.45    0.25
   1   3 -15    5.62    0.30
  -3   1 -15    4.82    0.33
   3  15  -1    5.01    0.35
  15  -3  -1    5.37    0.24
  -1  -3  15    5.09    0.24
  -1   3 -15    5.48    0.31
  15  -3   1    5.52    0.22
  15   3  -1    5.34    0.23
   3  15   1    5.30    0.36
  -3  -1 -15    4.95    0.35
   1   3  15    5.59    0.26
  -1  -3  15    5.23    0.21
   3  -1  15    5.28    0.25
  15  -1  -3    4.98    0.25
  15   3  -3   17.31    0.47
   3  15  -3   16.94    0.56
   3  15   3   16.23    0.60
  15  -3  -3   18.15    0.49
  -3   3  15   17.54    0.60
  -3  15   3   18.01    0.45
   3  -3  15   19.05    0.47
   3   3  15   17.74    0.48
  15  -3   3   17.20    0.42
  15  -3   3   17.79    0.39
  -3  -3  15   17.79    0.46
  -3   3  15   17.94    0.49
  -3   3 -15   17.51    0.56
  15   1  -5    3.38    0.25
   1  -5  15    3.57    0.20
   5  15  -1    3.20    0.26
  15  -5  -1    3.46    0.22
  -5  -1  15    3.38    0.22
  -1   5  15    3.46    0.24
  -1   5  15    2.87    0.29
   1  -5  15    3.68    0.18
  -1  -5  15    3.69    0.20
  -1  -5  15    3.57    0.21
  -1   5 -15    3.68    0.27
  -1  15   5    3.80    0.21
   5  15   1    3.64    0.29
  15  -5   1    3.60    0.20
   1   5  15    3.78    0.25
  15   5  -1    3.33    0.22
  -5   1  15    3.41    0.28
  -5  -3  15    0.50    0.12
  -3   5  15    0.57    0.14
  -3   5  15    0.32    0.20
   3  -5  15    0.67    0.07
  15   5   3    0.63    0.04
  15   3  -5    0.52    0.12
  -5   3 -15    0.42    0.18
   5  15  -3    0.67    0.17
  -5  15   3    0.79    0.11
   3  -5  15    0.75    0.11
  15  -5  -3    0.63    0.12
  -5   3  15    0.62    0.19
   5  15   3    0.48    0.21
   3   5  15    0.45    0.14
  15   5  -3    0.58    0.13
  -3  15   5    0.69    0.12
  -3  -5  15    0.68    0.12
  -3   5 -15    0.70    0.17
  15  -5   3    0.48    0.09
  15  -5   3    0.64    0.05
   3  15  -5    0.46    0.16
  -5   5  15    6.10    0.40
  15  -5   5    7.06    0.16
  -5  15   5    6.81    0.26
  -1   7  15    0.08    0.20
  -1   7  15    0.40    0.14
  15  -7  -1    0.31    0.11
   1  -7  15    0.30    0.10
   1  -7  15    0.28    0.09
   1  -7  15    0.37    0.05
   7  15  -1    0.19    0.17
 -15  -7   1    0.48    0.17
 -15  -7  -1    0.38    0.19
  -1  -7  15    0.44    0.11
   1   7  15    0.39    0.14
  -1  -7  15    0.30    0.10
   7  15   1    0.50    0.19
  15  -7   1    0.38    0.11
  -1  15   7    0.31    0.12
  -7  15   3    3.65    0.20
   3  -7  15    3.79    0.17
  -3   7  15    3.84    0.32
  -3   7  15    3.89    0.26
  15   7   3    3.79    0.11
   3   7  15    3.73    0.25
  15  -7   3    3.86    0.19
  -3  -7  15    3.41    0.22
  -7   3  15    3.45    0.27
  -3  15   7    4.02    0.23
   7  15   3    3.77    0.31
  15  -7   3    3.79    0.12
  -5   7  15    2.93    0.30
  -5   7  15    2.97    0.24
  -7  15   5    3.07    0.22
  15  -7   5    3.10    0.16
  15  -7   5    3.14    0.10
  -7   5  15    2.94    0.28
  -5  15   7    3.51    0.23
  -7  15   7    6.14    0.27
  -7   7  15    6.15    0.41
  15  -7   7    6.21    0.15
   1  -9  15    0.97    0.12
  15  -9  -1    0.91    0.13
  -1   9  15    1.04    0.16
  -1  15   9    1.13    0.15
  -1  -9  15    0.96    0.13
  15  -9   1    0.81    0.13
   1   9  15    0.88    0.15
   3  -9  15    0.44    0.06
  -3   9  15    0.46    0.15
   3  -9  15    0.44    0.10
  -3  15   9    0.54    0.14
   3   9  15    0.22    0.15
  15  -9   3    0.48    0.11
  15  -9   3    0.47    0.06
   5  -9  15    0.85    0.06
  15   9   5    0.88    0.06
  -5   9  15    0.55    0.15
   5  -9  15    0.77    0.09
  15  -9   5    0.87    0.06
  15  -9   5    0.82    0.10
  -5  15   9    1.03    0.15
   9 -15   7    0.93    0.15
   7  -9  15    0.91    0.06
  -7  15   9    0.86    0.15
   7 -15   9    0.78    0.15
  15  -9   7    0.96    0.06
   9 -15   9    0.93    0.14
   9  -9  15    0.80    0.05
  15  -9   9    0.75    0.06
  -1  11  15    4.37    0.28
   1 -11  15    4.54    0.25
  -1  15  11    4.23    0.28
  -1 -11  15    4.17    0.26
   1  11  15    4.63    0.29
  15 -11   1    4.45    0.25
   3 -11  15    1.68    0.14
   3 -11  15    1.71    0.11
  -3  11  15    1.46    0.18
   3  11  15    1.51    0.18
  -3  15  11    1.94    0.18
  15 -11   3    1.83    0.15
  -5  11  15    0.80    0.17
  15  11   5    0.68    0.06
   5 -11  15    0.62    0.06
   5 -11  15    0.53    0.11
  15 -11   5    0.82    0.06
  15 -11   5    0.81    0.11
  -5  15  11    0.72    0.16
   5 -15  11    0.53    0.15
  15  11   7    0.59    0.05
  -7  11  15    0.43    0.17
   7 -11  15    0.59    0.09
  11 -15   7    0.57    0.15
   7 -11  15    0.57    0.06
  15 -11   7    0.66    0.11
  15 -11   7    0.68    0.10
  -7  15  11    0.66    0.16
   7 -15  11    0.69    0.15
  15 -11   7    0.58    0.06
   9 -11  15    0.00    0.05
  15  -9  11    0.03    0.04
  11 -15   9    0.13    0.14
  15 -11   9   -0.05    0.06
  -9  15  11    0.28    0.16
   9 -15  11    0.20    0.13
  11  -9  15    0.01    0.04
  11 -11  15    4.13    0.13
  15 -11  11    4.04    0.14
  11 -15  11    4.78    0.26
  -1  13  15    3.32    0.29
   1 -13  15    3.98    0.28
   1  15  13    3.10    0.27
  -1  15  13    3.97    0.29
   1  13  15    3.29    0.28
   3 -13  15    1.90    0.16
  -3  13  15    1.83    0.19
  15 -13   3    1.77    0.16
  -3  15  13    2.05    0.19
   5 -13  15    0.26    0.12
  -5  13  15    0.25    0.17
   5 -15  13    0.23    0.15
  -5  15  13    0.61    0.16
  15 -13   5    0.29    0.12
  13 -15   7    0.00    0.14
   7 -13  15    0.08    0.06
  -7  13  15   -0.06    0.17
   7 -13  15   -0.05    0.10
  15 -13   7    0.06    0.12
   7 -15  13    0.04    0.13
  15 -13   7    0.09    0.11
  -7  15  13   -0.20    0.17
  13 -15   9    0.16    0.14
  15  -9  13    0.25    0.04
  13 -15   9    0.18    0.12
   9 -13  15    0.47    0.09
   9 -13  15    0.24    0.06
  -9  13  15    0.17    0.18
  15  13   9    0.30    0.05
   9 -15  13    0.38    0.13
  13  -9  15    0.26    0.04
  15 -13   9    0.31    0.09
  15 -13   9    0.25    0.11
  15 -13   9    0.14    0.06
  -9  15  13    0.33    0.18
  -1  15  15    0.51    0.17
   1  15  15    0.46    0.18
  -3  15  15    3.68    0.29
   3 -15  15    3.13    0.21
  15 -15   3    3.59    0.27
  -5  15  15    0.30    0.18
   5 -15  15    0.36    0.15
  15 -15   5    0.59    0.14
  -7  15  15   -0.03    0.18
   7 -15  15    0.22    0.13
  15 -15   7    0.28    0.13
  15 -15   7    0.24    0.15
   0   0 -16   13.75    0.50
   0   0  16   14.59    0.42
  16   0   0   13.66    0.37
   0  -2 -16   -0.17    0.17
   0  -2  16   -0.16    0.12
   0   2 -16    0.05    0.16
   0   2  16    0.03    0.13
   2  16   0   -0.14    0.17
  16   0  -2   -0.01    0.09
  16   0   2   -0.07    0.08
  16   2   0   -0.09    0.09
  -2   0 -16   -0.19    0.16
  -2   0  16   -0.08    0.12
   0  16   2   -0.03    0.19
   2   0  16   -0.03    0.12
  16  -2   0   -0.12    0.09
   2  16  -2    0.44    0.18
  -2  -2  16    0.31    0.13
  -2   2 -16    0.25    0.17
  -2   2  16    0.23    0.14
   2  -2  16    0.14    0.12
   2  16   2    0.04    0.18
  16   2  -2    0.30    0.10
   2   2  16    0.20    0.13
  16  -2   2    0.34    0.08
  16  -2   2    0.24    0.04
  16  -2  -2    0.36    0.12
   0  -4  16    0.28    0.12
   4  16   0    0.54    0.20
   4   0  16    0.64    0.13
  16  -4   0    0.46    0.11
   0   4  16    0.59    0.14
  16   0  -4    0.45    0.13
   0  -4  16    0.56    0.09
   2  -4  16   10.13    0.32
  -4  -2  16   10.36    0.33
  -4   2 -16   10.04    0.50
  16   2  -4   10.20    0.33
  16  -4  -2   10.46    0.34
   4  16  -2    9.18    0.42
   4   2  16   10.19    0.35
  -2   4  16   10.22    0.46
  -2   4  16    9.98    0.35
  16  -4   2    9.83    0.24
   2  16  -4    8.89    0.41
  -2  -4  16   10.56    0.34
  -2   4 -16    9.78    0.42
  -2  -4  16    9.83    0.31
  16   4  -2    9.97    0.33
   4  -2  16   10.08    0.33
   2   4  16    9.92    0.34
  16  -4   2   10.09    0.29
   4  16   2    9.09    0.46
  16  -2  -4   10.48    0.35
  -4  -4  16    0.51    0.12
  -4   4 -16    0.48    0.18
  -4   4  16    0.29    0.14
  -4   4  16    0.50    0.19
  -4  16   4    0.34    0.11
   4   4  16    0.36    0.14
  16  -4  -4    0.52    0.17
  16  -4   4    0.43    0.04
  16   4  -4    0.27    0.10
   0   6  16   -0.06    0.14
   6  16   0    0.04    0.18
   0  -6  16   -0.03    0.10
   0  -6  16    0.02    0.11
  16  -6   0   -0.09    0.10
   2  -6  16    1.88    0.14
  16  -6  -2    1.79    0.15
  -2   6  16    2.18    0.18
  -2   6  16    1.96    0.27
   2  -6  16    2.04    0.15
   6  16  -2    1.82    0.22
   6  16   2    2.14    0.26
  -2  -6  16    2.12    0.15
  -2  -6  16    1.92    0.15
   2   6  16    1.80    0.17
  16  -6   2    2.11    0.10
  -2  16   6    2.06    0.16
  16  -6   2    1.82    0.13
  -4   6  16    8.52    0.48
  -4   6  16    9.48    0.35
  16   6   4    9.73    0.22
  -6  16   4    9.21    0.30
  16  -6   4    9.51    0.23
  16  -6   4    9.28    0.27
  -6   4  16    9.27    0.45
  16   6  -4    9.58    0.34
   4   6  16    9.46    0.36
  -4  -6  16    9.60    0.34
  -4  16   6    9.04    0.32
  -6  16   6   11.49    0.36
  16  -6   6   11.29    0.26
  -6   6  16   11.21    0.52
  16  -8   0    5.15    0.25
   0  -8  16    5.28    0.23
   8  16   0    4.58    0.37
   0   8  16    5.35    0.28
   2  -8  16    0.29    0.06
  -2   8  16    0.47    0.15
  16  -8  -2    0.00    0.12
   2  -8  16    0.36    0.10
  -2  -8  16    0.27    0.17
  -2  -8  16    0.28    0.12
  16  -8   2    0.33    0.11
  16  -8   2    0.20    0.05
   2   8  16    0.20    0.14
   8  16   2    0.21    0.24
  -2  16   8    0.25    0.13
  -4   8  16    2.28    0.19
   4  -8  16    2.72    0.15
  16   8   4    2.72    0.10
   4  -8  16    2.72    0.11
  -4  16   8    2.41    0.18
  16  -8   4    2.60    0.18
  16  -8   4    2.77    0.11
  -6   8  16    2.92    0.26
  -8  16   6    2.88    0.24
  -6  16   8    3.07    0.25
  16  -8   6    3.09    0.11
  -8  16   8    0.33    0.14
  16  -8   8    0.43    0.05
   0 -10  16    0.07    0.12
   0  16  10    0.04    0.14
  16 -10   0   -0.12    0.12
   0  10  16   -0.12    0.14
  -2  10  16    0.19    0.15
   2 -10  16    0.41    0.06
   2 -10  16    0.53    0.11
  -2  16  10    0.56    0.15
  16 -10   2    0.40    0.12
   2  10  16    0.63    0.16
  -2 -10  16    0.34    0.15
   4 -10  16    1.01    0.07
  -4  10  16    0.77    0.17
   4 -10  16    0.95    0.11
  16 -10   4    1.08    0.12
  16 -10   4    0.89    0.07
  -4  16  10    1.18    0.16
   6 -10  16    1.40    0.10
   6 -10  16    1.32    0.10
  16  10   6    1.48    0.08
  -6  10  16    1.61    0.19
  16 -10   6    1.75    0.10
  -6  16  10    1.88    0.18
  16 -10   6    1.60    0.12
  16  -8  10    1.20    0.07
  10 -16   8    1.06    0.16
   8 -10  16    1.04    0.06
  -8  16  10    0.98    0.17
  16 -10   8    1.03    0.07
   8 -16  10    1.05    0.16
  10 -16  10    0.72    0.16
  10 -10  16    0.50    0.06
  16 -10  10    0.51    0.06
 -10  16  10    0.67    0.17
   0  12  16    0.08    0.15
   0 -12  16    0.02    0.13
   0  16  12    0.24    0.16
  -2  12  16    5.21    0.30
   2 -12  16    6.05    0.28
  16 -12   2    5.67    0.27
   2  12  16    5.58    0.33
  -2  16  12    5.37    0.30
   4 -12  16    0.07    0.11
  -4  12  16   -0.01    0.16
  -4  16  12    0.20    0.15
  16 -12   4   -0.01    0.11
   6 -12  16    0.01    0.10
   6 -12  16    0.01    0.06
  -6  12  16    0.09    0.17
   6 -16  12   -0.13    0.15
  16 -12   6   -0.04    0.10
  16 -12   6   -0.03    0.06
  -6  16  12   -0.05    0.16
   8 -12  16    0.04    0.06
  16  12   8    0.10    0.05
  12 -16   8    0.24    0.16
  -8  12  16   -0.27    0.17
  16 -12   8    0.09    0.10
   8 -16  12    0.00    0.14
  16 -12   8    0.07    0.09
  16 -12   8    0.07    0.06
  -8  16  12   -0.25    0.16
  16 -10  12    1.51    0.09
  16  12  10    1.58    0.07
  10 -12  16    1.53    0.10
  12 -16  10    1.80    0.17
  16 -12  10    1.22    0.08
  10 -16  12    1.51    0.16
  12 -10  16    1.46    0.09
 -10  16  12    1.57    0.21
   0  14  16    0.14    0.17
   0  16  14    0.06    0.17
   2 -14  16    0.65    0.16
  -2  14  16    0.58    0.18
  -2  16  14    0.65    0.17
  16 -14   2    0.63    0.15
  14 -16   4    0.70    0.21
  -4  14  16    0.82    0.19
   4 -14  16    0.68    0.14
   4 -16  14    0.33    0.16
  16 -14   4    0.68    0.15
  -4  16  14    0.87    0.18
  -6  14  16    0.32    0.19
   6 -14  16    0.79    0.13
  14 -16   6    0.81    0.15
  -6  16  14    0.63    0.19
   6 -16  14    0.66    0.16
  16 -14   6    0.82    0.13
  -1  -1 -17    3.27    0.32
  -1  -1  17    3.35    0.24
  -1   1 -17    3.19    0.26
  -1   1  17    3.53    0.25
   1  -1  17    3.24    0.24
   1   1  17    3.42    0.25
   1  17  -1    2.69    0.26
  17  -1  -1    3.07    0.20
  17  -1   1    3.02    0.18
  17   1  -1    3.44    0.20
  17   1   1    3.20    0.18
  -3  -1  17    0.90    0.15
  -1   3  17    0.70    0.15
   1  -3  17    0.82    0.13
   3   1  17    0.59    0.14
   3  17  -1    0.66    0.20
  17  -3  -1    0.52    0.12
  17   1  -3    0.75    0.13
  17  -1   3    0.79    0.05
  17  -1   3    0.79    0.05
  17  -1  -3    0.88    0.14
  17   1   3    0.69    0.04
   3  -1  17    0.73    0.14
   1   3  17    0.73    0.15
   3  17   1    0.36    0.20
  17  -3   1    0.62    0.11
  17   3  -1    0.74    0.12
  -1  -3  17    0.71    0.14
  -3   1  17    0.71    0.15
  17   3  -3    3.22    0.22
  17   3   3    3.08    0.09
   3  17  -3    2.59    0.24
  17  -3  -3    3.09    0.24
  17  -3   3    2.83    0.15
  -3  -3  17    2.98    0.22
  -3  -3  17    3.39    0.24
  -3   3 -17    2.59    0.29
  -3   3  17    3.30    0.24
  17  -3   3    3.10    0.10
   3  -3  17    3.37    0.22
   3   3  17    3.13    0.23
  17  -3   3    3.10    0.10
  17  -5  -1    1.95    0.15
   5  17  -1    1.64    0.24
   1  -5  17    2.57    0.16
  -1   5  17    2.16    0.19
   1  -5  17    2.12    0.15
  -1  -5  17    2.00    0.14
  -1  -5  17    2.21    0.16
   1   5  17    2.16    0.18
   5  17   1    1.83    0.25
  17  -5   1    1.84    0.13
   3  -5  17    4.41    0.23
  -3   5  17    4.15    0.33
  -3   5  17    4.52    0.29
  17  -3   5    4.36    0.12
  17  -5  -3    4.73    0.27
  17  -3   5    4.39    0.12
  -5  -3  17    4.49    0.25
  17   5   3    4.52    0.12
  -3  17   5    4.19    0.23
  -3  -5  17    4.55    0.26
  17   5  -3    4.44    0.26
  -3  -5  17    4.17    0.24
  17  -5   3    4.64    0.13
   3   5  17    4.07    0.28
  17  -5   5   15.29    0.35
  -5   5  17   16.22    0.48
  -5  17   5   16.04    0.50
  -5   5  17   14.55    0.60
  -1   7  17    1.91    0.18
   1  -7  17    2.66    0.18
  17  -7  -1    2.09    0.16
   1  -7  17    2.10    0.11
   7  17   1    2.14    0.31
   1   7  17    2.26    0.19
  -1  -7  17    2.25    0.15
  -1  -7  17    2.08    0.15
  17  -7   1    1.98    0.14
  17   7   3    2.19    0.09
   3  -7  17    2.11    0.15
  -3   7  17    2.26    0.20
  -3  -7  17    2.10    0.16
  -3  17   7    2.24    0.17
  17  -7   3    2.08    0.14
   3   7  17    2.05    0.19
  17  -7   3    2.39    0.10
  -3  -7  17    2.55    0.22
  17   7   5    4.93    0.13
  -5   7  17    5.09    0.30
  -5  17   7    4.85    0.26
  17  -7   5    4.70    0.14
  -7  17   7    0.97    0.15
  17  -7   7    0.92    0.06
   1  -9  17    0.08    0.10
   1  -9  17    0.06    0.07
  -1   9  17   -0.14    0.14
  17  -9  -1   -0.02    0.13
   1   9  17   -0.06    0.14
  17  -9   1   -0.09    0.11
  -1  -9  17    0.07    0.12
  -1  17   9    0.05    0.14
   3  -9  17    3.95    0.14
   3  -9  17    4.05    0.20
  -3   9  17    4.30    0.28
  17  -9   3    4.35    0.22
   3   9  17    3.96    0.28
  17  -9   3    4.02    0.14
  -3  17   9    4.09    0.26
  17   9   5    3.87    0.12
   5  -9  17    4.05    0.14
  -5   9  17    4.10    0.28
   5  -9  17    3.97    0.16
  17  -9   5    4.06    0.20
  -5  17   9    4.34    0.27
  17  -9   5    3.87    0.14
  -7   9  17    0.95    0.17
  17  -7   9    1.35    0.07
   7  -9  17    1.12    0.07
  -9  17   7    1.21    0.16
  -7  17   9    1.35    0.17
  17  -9   7    1.27    0.09
  17  -9   9    2.90    0.12
  -9  17   9    3.54    0.28
   9 -17   9    3.89    0.29
   9  -9  17    3.09    0.11
   1 -11  17    0.51    0.13
  -1  11  17    0.85    0.16
   1  11  17    0.48    0.15
  -1 -11  17    0.60    0.15
  -1  17  11    0.55    0.16
  17 -11   1    0.41    0.13
  -3  11  17    0.29    0.16
   3 -11  17    0.45    0.12
  17 -11   3    0.44    0.12
  -3  17  11    0.34    0.15
  -5  11  17   -0.13    0.16
   5 -11  17    0.07    0.06
   5 -11  17    0.01    0.09
  17 -11   5    0.01    0.10
  -5  17  11    0.14    0.15
  17 -11   5    0.05    0.06
  -7  11  17   -0.21    0.16
  11 -17   7    0.03    0.22
  17  11   7    0.00    0.05
   7 -11  17    0.03    0.06
  -7  17  11   -0.02    0.16
  17 -11   7   -0.03    0.09
  17 -11   7   -0.10    0.06
   7 -17  11    0.04    0.16
  -9  11  17    0.14    0.18
   9 -11  17    0.01    0.06
  17  -9  11   -0.01    0.05
 -11  17   9    0.09    0.16
  11 -17   9    0.09    0.15
  17  11   9    0.04    0.04
  11  -9  17    0.07    0.05
  -9  17  11    0.10    0.17
   9 -17  11   -0.09    0.16
  17 -11   9   -0.03    0.06
  -1  13  17    0.70    0.17
   1 -13  17    0.97    0.15
   1  13  17    0.68    0.18
  -1  17  13    0.86    0.18
  17 -13   1    0.82    0.16
   3 -13  17    0.06    0.13
  -3  13  17   -0.10    0.16
  -3  17  13   -0.01    0.16
  17 -13   3   -0.05    0.13
   5 -13  17    0.38    0.12
  -5  13  17    0.22    0.18
  17 -13   5    0.28    0.13
  -5  17  13    0.62    0.17
   0   0  18   -0.07    0.14
  18   0   0   -0.07    0.10
   0  -2  18    1.73    0.17
   0   2  18    1.95    0.18
  18   0  -2    1.56    0.13
  18   0   2    2.00    0.15
  18   0   2    1.77    0.13
  18  -2   0    1.58    0.13
  18   2   0    1.82    0.13
  -2   0  18    1.97    0.18
   2   0  18    2.05    0.17
  18   2   2    0.46    0.05
   2   2  18    0.39    0.14
  -2  -2  18    0.46    0.14
  -2   2  18    0.53    0.15
   2  -2  18    0.57    0.14
  18  -2  -2    0.24    0.12
   2  18  -2    0.38    0.19
  18   2  -2    0.44    0.12
  18  -2   2    0.40    0.09
   4   0  18   -0.09    0.13
  18   0  -4    0.03    0.11
   0  -4  18   -0.03    0.13
  18   0   4    0.00    0.03
  18   0   4   -0.03    0.04
  18  -4   0   -0.09    0.11
   0   4  18   -0.09    0.14
  -4   0  18    0.22    0.15
  18   2  -4    2.34    0.18
  18  -2   4    2.07    0.09
  -4  -2  18    2.25    0.18
  18  -2   4    1.97    0.09
   4   2  18    2.09    0.18
  18  -4  -2    2.20    0.16
  -2   4  18    2.08    0.19
   2  -4  18    2.08    0.16
  -2  -4  18    2.14    0.16
  -4   2  18    2.19    0.20
   2   4  18    2.04    0.18
  -2  -4  18    2.05    0.17
  18  -4   2    2.26    0.17
  18   4  -2    2.83    0.23
  18  -2  -4    2.01    0.17
  18   2   4    2.22    0.08
   4   4  18   11.26    0.40
  -4  -4  18   10.60    0.36
  18   4  -4   10.45    0.37
  18   4   4   10.66    0.25
  -4   4  18   11.59    0.40
  -4  -4  18   11.94    0.39
  18  -4   4   10.89    0.26
   0   6  18    1.28    0.17
  18  -6   0    1.35    0.14
   0  -6  18    1.44    0.14
   0  -6  18    1.41    0.12
  18  -6  -2    3.17    0.25
   2  -6  18    3.00    0.21
  -2   6  18    3.29    0.27
  -2  -6  18    3.28    0.24
  -2  -6  18    3.06    0.23
  18  -6   2    3.22    0.21
   2   6  18    3.50    0.27
  18  -4   6    3.53    0.11
  18  -4   6    3.72    0.11
  -4   6  18    3.47    0.29
  18   6   4    3.58    0.11
  18   6  -4    3.72    0.28
   4   6  18    3.35    0.27
  18  -6   4    3.68    0.17
  -4  -6  18    3.73    0.26
  18  -6   4    3.71    0.13
  -4  -6  18    3.95    0.26
  18  -6   6    1.53    0.09
  -6   6  18    1.21    0.18
   0   8  18    0.09    0.15
   0  -8  18   -0.01    0.11
  18  -8   0   -0.10    0.12
   2  -8  18    1.47    0.10
  18  -8  -2    1.48    0.17
  -2   8  18    1.20    0.18
   2  -8  18    1.49    0.12
  -2  -8  18    1.47    0.15
  -2  18   8    1.30    0.16
   2   8  18    0.84    0.16
  18  -8   2    1.38    0.13
   4  -8  18    7.06    0.19
  18   8   4    6.80    0.18
  -4   8  18    7.02    0.33
  18  -8   4    6.71    0.19
  18  -8   4    7.37    0.25
  -4  18   8    7.25    0.31
  18   8   6    2.90    0.10
  18  -6   8    2.98    0.10
  -6   8  18    2.46    0.21
  -6  18   8    3.19    0.25
  18  -8   6    2.85    0.12
  18  -8   8    3.59    0.13
  -8  18   8    3.60    0.32
  18 -10   0    0.16    0.13
   0  10  18    0.30    0.16
   0 -10  18    0.41    0.13
  -2  10  18   -0.15    0.15
   2 -10  18   -0.02    0.11
   2  10  18   -0.16    0.15
  -2  18  10    0.03    0.15
  18 -10   2   -0.26    0.12
  -2 -10  18   -0.18    0.13
   4 -10  18    0.05    0.09
  -4  10  18   -0.08    0.16
   4 -10  18    0.10    0.06
  18 -10   4   -0.14    0.11
  18 -10   4   -0.07    0.06
  -4  18  10    0.04    0.14
  18  10   6    0.03    0.05
  -6  10  18    0.19    0.16
   6 -10  18    0.04    0.06
  -6  18  10    0.11    0.15
  18 -10   6    0.15    0.06
  18  10   8    0.57    0.05
  18  -8  10    0.63    0.06
  -8  10  18    0.85    0.19
   8 -10  18    0.51    0.06
  18 -10   8    0.51    0.06
  -8  18  10    0.94    0.17
  18 -12   0    0.09    0.14
   0 -12  18    0.23    0.14
   0  12  18    0.03    0.16
   2 -12  18    0.11    0.12
  -2  12  18   -0.06    0.16
   2  12  18    0.15    0.16
  18 -12   2   -0.04    0.13
  -2  18  12   -0.07    0.16
  -4  12  18   -0.36    0.16
   4 -12  18    0.12    0.11
  18 -12   4   -0.08    0.12
  -4  18  12   -0.06    0.15
  -1  -1  19    0.94    0.16
  -1   1  19    0.89    0.16
   1  -1  19    0.94    0.15
   1   1  19    1.07    0.16
  19  -1  -1    1.04    0.12
  19  -1   1    0.82    0.11
  19   1  -1    1.23    0.13
  19   1   1    1.01    0.11
  -3  -1  19    0.80    0.16
  -1   3  19    0.81    0.16
   1  -3  19    0.69    0.14
  19  -3  -1    0.82    0.13
  19   1  -3    0.50    0.12
  19  -1   3    0.65    0.07
   3   1  19    0.76    0.15
  19  -1  -3    0.51    0.13
   3  -1  19    0.81    0.15
  19   1   3    0.71    0.05
   1   3  19    0.75    0.16
  19  -3   1    0.74    0.11
  -1  -3  19    0.70    0.15
  -3   1  19    0.85    0.16
  19   3  -1    0.90    0.12
   3   3  19    2.00    0.19
  -3   3  19    1.69    0.19
  19   3  -3    2.13    0.18
  19   3   3    1.69    0.09
   3  -3  19    1.81    0.16
  19  -3  -3    1.65    0.16
  -3  -3  19    1.77    0.17
  19  -5  -1    1.21    0.15
  19  -1   5    1.15    0.07
  19  -1   5    1.12    0.07
   1  -5  19    1.14    0.15
  -5  -1  19    1.12    0.17
  -1   5  19    1.05    0.17
  -1  -5  19    1.13    0.15
  -5   1  19    1.32    0.18
   1   5  19    0.94    0.16
  19   1   5    1.17    0.07
  19  -3   5    3.98    0.12
  19  -5  -3    4.00    0.28
  -3   5  19    4.33    0.28
  19  -3   5    4.18    0.12
  -3  -5  19    4.89    0.26
  19  -5   3    3.73    0.19
   3   5  19    4.16    0.28
  -3  -5  19    4.57    0.28
  -5   3  19    3.99    0.28
  19   3   5    4.10    0.11
  19   5  -3    4.88    0.28
  19   5   5    0.30    0.05
  19  -5   5    0.31    0.06
  -5   5  19    0.08    0.16
  19  -7  -1    1.26    0.16
   1  -7  19    1.21    0.12
   1  -7  19    1.08    0.07
  -1   7  19    0.95    0.17
  -1  -7  19    1.03    0.14
  19  -7   1    0.92    0.13
   1   7  19    0.77    0.17
  -3   7  19    3.68    0.30
  19  -7   3    3.52    0.21
   3   7  19    3.26    0.27
  -3  -7  19    3.71    0.26
  -5   7  19    4.07    0.29
  19   7   5    4.15    0.13
  19  -5   7    4.26    0.13
  19  -7   5    4.47    0.14
  -5  -7  19    4.11    0.27
  19  -7   7    6.81    0.19
  -7   7  19    7.31    0.34
  -1   9  19    0.00    0.15
   1  -9  19   -0.01    0.11
  19  -9  -1   -0.08    0.13
  -1  -9  19    0.01    0.12
  19  -9   1    0.00    0.12
   1   9  19   -0.02    0.15
  -3   9  19   -0.08    0.16
   3  -9  19    0.13    0.06
   3  -9  19    0.10    0.09
  19  -9   3    0.05    0.12
   3   9  19    0.04    0.16
  -3  -9  19   -0.02    0.15
  -3  19   9    0.11    0.15
   5  -9  19    0.10    0.06
  -5   9  19   -0.15    0.17
  19  -9   5    0.07    0.06
  -5  19   9   -0.13    0.15
  -7   9  19    0.67    0.17
  19  -7   9    0.33    0.06
  19   9   7    0.24    0.05
   7  -9  19    0.42    0.06
  19  -9   7    0.33    0.06
  19 -11  -1    0.07    0.16
   1 -11  19    0.08    0.13
  -1  11  19    0.04    0.16
   1  11  19    0.11    0.16
  19 -11   1    0.11    0.13
  -1 -11  19    0.19    0.14
  -3  11  19   -0.02    0.16
   3 -11  19    0.20    0.11
  -3  19  11    0.21    0.16
  19 -11   3    0.02    0.13
   0   0  20    4.65    0.29
  20   0   0    5.08    0.23
   0  -2  20   -0.09    0.14
   0   2  20   -0.05    0.15
  20   0  -2   -0.05    0.12
   2   0  20   -0.04    0.13
  20  -2   0   -0.04    0.10
  20   2   0   -0.03    0.11
  -2   0  20    0.08    0.15
  20  -2   2    0.45    0.10
  20   2  -2    0.53    0.14
   2   2  20    0.44    0.15
  -2  -2  20    0.52    0.15
  -2   2  20    0.62    0.17
   2  -2  20    0.45    0.14
  20  -2  -2    0.41    0.12
  20   0  -4    2.65    0.19
   0  -4  20    2.40    0.18
  -4   0  20    2.44    0.20
  20  -4   0    2.43    0.16
  20   0   4    2.50    0.10
   0   4  20    2.11    0.19
   2  -4  20    0.17    0.13
  20  -4  -2    0.23    0.13
  -4  -2  20    0.30    0.15
  -2   4  20   -0.09    0.15
  20   2  -4    0.12    0.13
  -2  -4  20    0.01    0.14
  20  -2  -4    0.03    0.15
  -4   2  20    0.34    0.16
   2   4  20    0.27    0.15
  20   4  -2    0.21    0.13
  20  -4   2    0.12    0.10
  20   2   4    0.10    0.05
  20   4   4    1.32    0.09
  20  -4  -4    1.47    0.24
  20   4  -4    1.32    0.17
  -4  -4  20    1.53    0.18
  -4   4  20    0.98    0.18
   0   6  20   -0.12    0.15
  -6   0  20   -0.10    0.15
  20  -6   0    0.07    0.13
  20   0   6   -0.06    0.04
  20   0   6   -0.05    0.04
  20  -6  -2    2.02    0.18
  20  -2   6    2.23    0.09
  20  -2   6    2.10    0.09
  -2   6  20    1.92    0.20
   2   6  20    2.03    0.19
  -2  -6  20    1.94    0.18
  20  -6   2    2.62    0.20
  -2  -6  20    2.49    0.17
  -6   2  20    1.85    0.20
  20  -4   6    1.18    0.07
  -4   6  20    1.17    0.19
  -4  -6  20    1.34    0.17
  20   4   6    1.56    0.08
  -6   4  20    1.27    0.18
  20   6  -4    1.43    0.18
  -4  -6  20    1.53    0.16
  -6   6  20    8.82    0.38
  20  -6   6    8.24    0.22
  20   6   6    8.34    0.21
   0   8  20   -0.15    0.16
  20  -8   0   -0.02    0.14
   0  -8  20   -0.04    0.11
  20  -8  -2   -0.19    0.14
  -2   8  20   -0.10    0.15
   2  -8  20    0.02    0.06
  20  -8   2   -0.15    0.12
   2   8  20    0.08    0.16
  -2  -8  20   -0.08    0.14
  -4   8  20    0.04    0.17
  20  -4   8    0.02    0.04
  20  -4   8    0.01    0.05
   4  -8  20    0.11    0.06
  20  -8   4    0.05    0.09
  20  -6   8    0.75    0.06
   6  -8  20    0.80    0.07
  -6   8  20    0.83    0.18
  20   8   6    0.60    0.06
  20  -8   6    0.75    0.07
  -8   6  20    0.69    0.18
  20 -10   0   -0.12    0.14
   0  10  20   -0.12    0.15
   0 -10  20   -0.09    0.13
  -1  -1  21    1.10    0.17
  -1   1  21    1.22    0.17
   1  -1  21    1.21    0.17
   1   1  21    1.20    0.17
  21  -1  -1    1.13    0.14
  21  -1   1    1.24    0.12
  21   1  -1    1.11    0.14
  -3  -1  21    0.57    0.17
  -1   3  21    0.66    0.16
   1  -3  21    0.49    0.14
   3   1  21    0.47    0.16
  21  -3  -1    0.51    0.13
  21   1  -3    0.64    0.14
   3  -1  21    0.48    0.15
   1   3  21    0.65    0.16
  21  -1  -3    0.61    0.15
  21  -3   1    0.53    0.11
  -1  -3  21    0.55    0.15
  -3   1  21    0.54    0.17
   3   3  21    0.26    0.16
  21  -3  -3   -0.06    0.13
  -3  -3  21    0.01    0.15
  -3   3  21   -0.09    0.16
  21   3  -3    0.00    0.14
  -5  -1  21    0.03    0.16
  21  -1   5   -0.05    0.05
  -1   5  21   -0.08    0.15
   1  -5  21   -0.01    0.17
  21  -5  -1   -0.08    0.13
  -1  -5  21   -0.23    0.13
  21   1   5   -0.03    0.04
  21  -5   1   -0.01    0.11
   1   5  21   -0.05    0.15
  -5   1  21   -0.07    0.15
  -3   5  21    1.63    0.20
  -5  -3  21    1.63    0.19
  21  -5  -3    1.62    0.18
  21   3  -5    2.20    0.30
  21   3   5    1.74    0.09
  -5   3  21    1.58    0.20
  -3  -5  21    1.45    0.17
   3   5  21    1.58    0.19
  21   5   5    2.96    0.12
  -5   5  21    3.74    0.32
  -5  -5  21    3.88    0.30
  21  -5   5    3.12    0.13
  21  -1   7   -0.04    0.04
  21  -1   7   -0.03    0.04
  -1   7  21   -0.06    0.15
  21  -7  -1   -0.04    0.14
  -7   1  21    0.10    0.15
  21  -7   1   -0.18    0.12
   1   7  21    0.06    0.15
  21  -3   7   -0.03    0.05
  21  -3   7    0.06    0.05
  21  -7  -3    0.06    0.15
  -3   7  21   -0.20    0.16
   3   7  21    0.05    0.16
  -7   3  21    0.23    0.16
  -3  -7  21    0.33    0.15
  21  -7   3    0.01    0.10
   0   0  22   -0.10    0.14
  22   0   0   -0.13    0.11
   0  -2  22    0.14    0.15
   0   2  22    0.20    0.15
  22   0  -2    0.17    0.13
   2   0  22    0.06    0.15
  22  -2   0    0.23    0.12
  -2   0  22    0.28    0.16
  22  -2  -2    1.40    0.17
  22   2  -2    1.35    0.15
   2   2  22    1.17    0.18
  -2  -2  22    1.42    0.18
  -2   2  22    1.26    0.18
   2  -2  22    1.12    0.17
   0   4  22   -0.15    0.15
  22   0  -4   -0.17    0.14
   0  -4  22   -0.19    0.14
  -4   0  22   -0.08    0.16
  22  -4   0    0.16    0.12
   0   0   0    0.00    0.00
;
_shelx_hkl_checksum              54881
_shelx_fab_file
;
    1    1    1  -1269.15      0.00
    0    2    2    130.32      0.00
    2    2    2   -533.12      0.00
    1    1    3    168.47      0.00
    1    3    3    -61.53      0.00
    3    3    3   -232.53      0.00
    0    0    4    -40.70      0.00
    2    2    4    370.04      0.00
    0    4    4    126.32      0.00
    2    4    4   -360.69      0.00
    4    4    4    606.36      0.00
    1    1    5    -30.77      0.00
    1    3    5   -127.09      0.00
    3    3    5    165.87      0.00
    1    5    5    145.53      0.00
    3    5    5     81.73      0.00
    5    5    5   -158.81      0.00
    0    2    6   -100.46      0.00
    2    2    6    -32.89      0.00
    2    4    6   -129.84      0.00
    4    4    6   -165.43      0.00
    0    6    6    188.20      0.00
    2    6    6    -23.02      0.00
    4    6    6    213.20      0.00
    6    6    6   -244.22      0.00
    1    1    7   -319.45      0.00
    1    3    7    -45.40      0.00
    3    3    7   -143.99      0.00
    1    5    7    -68.53      0.00
    3    5    7     94.01      0.00
    5    5    7    -69.88      0.00
    1    7    7   -119.37      0.00
    3    7    7    -66.02      0.00
    5    7    7    -57.79      0.00
    7    7    7    -77.64      0.00
    0    0    8    413.62      0.00
    2    2    8      5.42      0.00
    0    4    8   -317.44      0.00
    2    4    8     14.29      0.00
    4    4    8     39.70      0.00
    2    6    8     86.75      0.00
    4    6    8   -113.02      0.00
    6    6    8    -16.05      0.00
    0    8    8    -26.42      0.00
    2    8    8     30.92      0.00
    4    8    8    -62.34      0.00
    6    8    8     26.44      0.00
    8    8    8     32.09      0.00
    1    1    9   -315.80      0.00
    1    3    9    111.81      0.00
    3    3    9    -93.10      0.00
    1    5    9    -12.07      0.00
    3    5    9    -33.08      0.00
    5    5    9    168.13      0.00
    1    7    9    -48.51      0.00
    3    7    9     23.05      0.00
    5    7    9    -28.25      0.00
    7    7    9     15.62      0.00
    1    9    9    103.98      0.00
    3    9    9    -73.36      0.00
    5    9    9      8.44      0.00
    7    9    9    -24.42      0.00
    9    9    9     64.16      0.00
    0    2   10      9.73      0.00
    2    2   10    112.03      0.00
    2    4   10     29.34      0.00
    4    4   10    -65.41      0.00
    0    6   10    -95.61      0.00
    2    6   10    -24.18      0.00
    4    6   10      6.77      0.00
    6    6   10     20.20      0.00
    2    8   10     -2.52      0.00
    4    8   10     32.21      0.00
    6    8   10     -3.02      0.00
    8    8   10    -31.29      0.00
    0   10   10     28.76      0.00
    2   10   10    -24.03      0.00
    4   10   10     48.45      0.00
    6   10   10     -2.87      0.00
    8   10   10     -3.85      0.00
   10   10   10      9.82      0.00
    1    1   11     88.40      0.00
    1    3   11    -65.84      0.00
    3    3   11     27.50      0.00
    1    5   11     -4.35      0.00
    3    5   11    -32.24      0.00
    5    5   11     36.89      0.00
    1    7   11    -20.20      0.00
    3    7   11     -1.99      0.00
    5    7   11    -13.26      0.00
    7    7   11     -0.91      0.00
    1    9   11     24.26      0.00
    3    9   11    -34.33      0.00
    5    9   11     -7.15      0.00
    7    9   11     59.89      0.00
    9    9   11    -45.75      0.00
    1   11   11     43.02      0.00
    3   11   11     19.85      0.00
    5   11   11     10.37      0.00
    7   11   11    -27.51      0.00
    9   11   11     12.47      0.00
   11   11   11      1.02      0.00
    0    0   12   -157.43      0.00
    2    2   12    -27.61      0.00
    0    4   12     87.73      0.00
    2    4   12    -23.96      0.00
    4    4   12     22.11      0.00
    2    6   12     28.41      0.00
    4    6   12    -11.38      0.00
    6    6   12     13.59      0.00
    0    8   12    -92.09      0.00
    2    8   12     41.54      0.00
    4    8   12      9.64      0.00
    6    8   12      8.35      0.00
    8    8   12    -31.11      0.00
    2   10   12    -21.59      0.00
    4   10   12     -7.16      0.00
    6   10   12      0.29      0.00
    8   10   12     34.14      0.00
   10   10   12    -12.90      0.00
    0   12   12     33.61      0.00
    2   12   12    -59.20      0.00
    4   12   12     -1.37      0.00
    6   12   12     -9.14      0.00
    8   12   12     10.17      0.00
   10   12   12      5.26      0.00
   12   12   12     -9.30      0.00
    1    1   13     40.68      0.00
    1    3   13      0.69      0.00
    3    3   13     31.15      0.00
    1    5   13    -12.72      0.00
    3    5   13     11.37      0.00
    5    5   13    -23.59      0.00
    1    7   13     22.67      0.00
    3    7   13    -27.99      0.00
    5    7   13     22.31      0.00
    7    7   13     48.08      0.00
    1    9   13     -8.07      0.00
    3    9   13     25.88      0.00
    5    9   13     -3.94      0.00
    7    9   13    -42.28      0.00
    9    9   13     -6.72      0.00
    1   11   13    -37.60      0.00
    3   11   13     16.57      0.00
    5   11   13     -6.44      0.00
    7   11   13      7.93      0.00
    9   11   13     -7.54      0.00
   11   11   13     -5.34      0.00
    1   13   13     -8.54      0.00
    3   13   13      4.44      0.00
    5   13   13    -33.88      0.00
    7   13   13      2.95      0.00
    9   13   13      3.91      0.00
   11   13   13    -16.94      0.00
    0    2   14    -78.97      0.00
    2    2   14     45.86      0.00
    2    4   14     -0.05      0.00
    4    4   14    -11.67      0.00
    0    6   14     54.37      0.00
    2    6   14    -39.05      0.00
    4    6   14     41.04      0.00
    6    6   14    -44.98      0.00
    2    8   14     28.41      0.00
    4    8   14    -63.43      0.00
    6    8   14      4.93      0.00
    8    8   14    -14.58      0.00
    0   10   14    -48.00      0.00
    2   10   14     34.35      0.00
    4   10   14    -19.40      0.00
    6   10   14     13.04      0.00
    8   10   14    -25.44      0.00
   10   10   14     22.11      0.00
    2   12   14     -9.85      0.00
    4   12   14     12.86      0.00
    6   12   14     10.99      0.00
    8   12   14    -30.18      0.00
   10   12   14     -4.49      0.00
   12   12   14      5.77      0.00
    0   14   14     23.05      0.00
    2   14   14     11.21      0.00
    4   14   14     11.55      0.00
    6   14   14      4.87      0.00
    8   14   14    -12.75      0.00
   10   14   14    -17.92      0.00
    1    1   15      0.50      0.00
    1    3   15     10.46      0.00
    3    3   15    -23.43      0.00
    1    5   15    -25.17      0.00
    3    5   15      4.27      0.00
    5    5   15     21.31      0.00
    1    7   15     -1.09      0.00
    3    7   15      4.59      0.00
    5    7   15    -15.50      0.00
    7    7   15     -3.10      0.00
    1    9   15     -3.71      0.00
    3    9   15      1.56      0.00
    5    9   15     -0.89      0.00
    7    9   15     -9.10      0.00
    9    9   15     13.27      0.00
    1   11   15    -13.02      0.00
    3   11   15     -7.78      0.00
    5   11   15      9.96      0.00
    7   11   15      3.13      0.00
    9   11   15     22.44      0.00
   11   11   15     -7.94      0.00
    1   13   15     34.80      0.00
    3   13   15      1.74      0.00
    5   13   15     24.13      0.00
    7   13   15     -1.13      0.00
    9   13   15    -13.18      0.00
    1   15   15     48.71      0.00
    3   15   15    -13.55      0.00
    5   15   15      1.22      0.00
    7   15   15    -31.86      0.00
    0    0   16     -4.91      0.00
    2    2   16    -33.25      0.00
    0    4   16    -19.54      0.00
    2    4   16     48.06      0.00
    4    4   16    -33.89      0.00
    2    6   16    -14.76      0.00
    4    6   16     -8.33      0.00
    6    6   16     33.19      0.00
    0    8   16     53.74      0.00
    2    8   16    -41.39      0.00
    4    8   16     22.75      0.00
    6    8   16    -22.46      0.00
    8    8   16     34.17      0.00
    2   10   16     14.08      0.00
    4   10   16     -4.80      0.00
    6   10   16     -3.04      0.00
    8   10   16     -1.50      0.00
   10   10   16      9.43      0.00
    0   12   16     -3.05      0.00
    2   12   16     27.22      0.00
    4   12   16     19.93      0.00
    6   12   16     30.84      0.00
    8   12   16      1.56      0.00
   10   12   16     12.14      0.00
    2   14   16     -8.02      0.00
    4   14   16     -4.04      0.00
    6   14   16     -0.08      0.00
    1    1   17    -17.22      0.00
    1    3   17    -10.23      0.00
    3    3   17      0.50      0.00
    1    5   17      9.12      0.00
    3    5   17    -11.17      0.00
    5    5   17      6.07      0.00
    1    7   17      8.56      0.00
    3    7   17     16.65      0.00
    5    7   17     -9.37      0.00
    7    7   17     -3.57      0.00
    1    9   17     -7.14      0.00
    3    9   17     -7.74      0.00
    5    9   17     -3.29      0.00
    7    9   17      1.47      0.00
    9    9   17     -9.16      0.00
    1   11   17      9.08      0.00
    3   11   17      5.67      0.00
    5   11   17     -3.17      0.00
    7   11   17      9.75      0.00
    9   11   17     15.89      0.00
    1   13   17    -35.94      0.00
    3   13   17     22.28      0.00
    5   13   17     -7.93      0.00
    0    2   18     26.70      0.00
    2    2   18    -21.28      0.00
    2    4   18    -15.08      0.00
    4    4   18     36.95      0.00
    0    6   18    -27.36      0.00
    2    6   18     19.35      0.00
    4    6   18    -15.36      0.00
    6    6   18     33.54      0.00
    2    8   18     -6.32      0.00
    4    8   18     -0.28      0.00
    6    8   18     -0.20      0.00
    8    8   18    -25.22      0.00
    0   10   18     24.80      0.00
    2   10   18    -36.42      0.00
    4   10   18     34.79      0.00
    6   10   18    -27.66      0.00
    8   10   18     26.83      0.00
    2   12   18     16.25      0.00
    4   12   18     -5.29      0.00
    1    1   19     10.33      0.00
    1    3   19     11.21      0.00
    3    3   19     25.66      0.00
    1    5   19     12.00      0.00
    3    5   19    -25.83      0.00
    5    5   19      2.34      0.00
    1    7   19      1.82      0.00
    3    7   19    -10.63      0.00
    5    7   19      7.86      0.00
    7    7   19    -15.47      0.00
    1    9   19    -27.57      0.00
    3    9   19     27.64      0.00
    5    9   19    -14.81      0.00
    7    9   19     14.88      0.00
    1   11   19     -3.88      0.00
    3   11   19     13.08      0.00
    0    0   20     18.59      0.00
    2    2   20     -9.86      0.00
    0    4   20      8.84      0.00
    2    4   20    -24.95      0.00
    4    4   20     15.24      0.00
    2    6   20     -9.05      0.00
    4    6   20      3.38      0.00
    6    6   20    -19.69      0.00
    0    8   20    -27.01      0.00
    2    8   20     -1.40      0.00
    4    8   20     -3.33      0.00
    6    8   20     37.06      0.00
    1    1   21     24.86      0.00
    1    3   21      6.09      0.00
    3    3   21      2.54      0.00
    1    5   21    -13.43      0.00
    3    5   21     16.65      0.00
    5    5   21    -16.32      0.00
    1    7   21     22.15      0.00
    3    7   21    -17.98      0.00
    0    2   22      0.35      0.00
    2    2   22     18.21      0.00
   13   13   13    -57.48      0.00
   11   13   15      6.95      0.00
    8   14   16    -35.16      0.00
    0   16   16    108.07      0.00
    2   16   16    -56.90      0.00
    7   13   17    -43.60      0.00
    1   15   17      5.76      0.00
    6   12   18    -30.86      0.00
    5   11   19    -38.95      0.00
    2   10   20      9.45      0.00
    4   10   20    -49.47      0.00
    5    7   21     20.94      0.00
    2    4   22     -2.69      0.00
    4    4   22     -3.08      0.00
    0    0    0      0.00      0.00
# SQUEEZE RESULTS (Version =  41016)
# Note: Data are Listed for all Voids in the P1 Unit Cell
# i.e. Centre of Gravity, Solvent Accessible Volume,
# Recovered number of Electrons in the Void and
# Details about the Squeezed Material
loop_
  _platon_squeeze_void_nr
  _platon_squeeze_void_average_x
  _platon_squeeze_void_average_y
  _platon_squeeze_void_average_z
  _platon_squeeze_void_volume
  _platon_squeeze_void_count_electrons
  _platon_squeeze_void_content
   1 -0.002 -0.007 -0.003     38418      6647 ' '
   2  0.625  0.125  0.125        99        15 ' '
   3  0.125  0.125  0.625        99        15 ' '
   4  0.375  0.375  0.375        99        15 ' '
   5  0.875  0.375  0.875        99        15 ' '
   6  0.125  0.625  0.125        99        15 ' '
   7  0.625  0.625  0.625        99        15 ' '
   8  0.875  0.875  0.375        99        15 ' '
   9  0.375  0.875  0.875        99        15 ' '
_platon_squeeze_void_probe_radius                  1.20
_platon_squeeze_details
)
TITL shelx     F d -3 m     R = 0.18
CELL   38.3090   38.3090   38.3090     90.00     90.00     90.00
SPGR Fd-3m
# Solvent Accessible Volume =     39202
# Electrons Found in S.A.V. =      6728
# Note: Atoms in Void as Cxxx and Qxxx all others
C101 0.375 0.375 0.375 !       0.87 eA-3
C102 0.125 0.125 0.625 !       0.87 eA-3
C103 0.131 0.116 0.634 !       0.86 eA-3
C104 0.889 0.389 0.889 !       0.86 eA-3
Q105 0.374 0.248 0.125 !       0.73 eA-3
Q106 0.454 0.188 0.197 !       0.67 eA-3
Q107 0.709 0.006 0.211 !       0.60 eA-3
C108 0.283 0.092 0.467 !       0.52 eA-3
)
;
_shelx_fab_checksum              41950
loop_
_space_group_symop_operation_xyz
'x, y, z'
'-x+3/4, -y+1/4, z+1/2'
'-x+1/4, y+1/2, -z+3/4'
'x+1/2, -y+3/4, -z+1/4'
'z, x, y'
'z+1/2, -x+3/4, -y+1/4'
'-z+3/4, -x+1/4, y+1/2'
'-z+1/4, x+1/2, -y+3/4'
'y, z, x'
'-y+1/4, z+1/2, -x+3/4'
'y+1/2, -z+3/4, -x+1/4'
'-y+3/4, -z+1/4, x+1/2'
'y+3/4, x+1/4, -z+1/2'
'-y, -x, -z'
'y+1/4, -x+1/2, z+3/4'
'-y+1/2, x+3/4, z+1/4'
'x+3/4, z+1/4, -y+1/2'
'-x+1/2, z+3/4, y+1/4'
'-x, -z, -y'
'x+1/4, -z+1/2, y+3/4'
'z+3/4, y+1/4, -x+1/2'
'z+1/4, -y+1/2, x+3/4'
'-z+1/2, y+3/4, x+1/4'
'-z, -y, -x'
'x, y+1/2, z+1/2'
'-x+3/4, -y+3/4, z+1'
'-x+1/4, y+1, -z+5/4'
'x+1/2, -y+5/4, -z+3/4'
'z, x+1/2, y+1/2'
'z+1/2, -x+5/4, -y+3/4'
'-z+3/4, -x+3/4, y+1'
'-z+1/4, x+1, -y+5/4'
'y, z+1/2, x+1/2'
'-y+1/4, z+1, -x+5/4'
'y+1/2, -z+5/4, -x+3/4'
'-y+3/4, -z+3/4, x+1'
'y+3/4, x+3/4, -z+1'
'-y, -x+1/2, -z+1/2'
'y+1/4, -x+1, z+5/4'
'-y+1/2, x+5/4, z+3/4'
'x+3/4, z+3/4, -y+1'
'-x+1/2, z+5/4, y+3/4'
'-x, -z+1/2, -y+1/2'
'x+1/4, -z+1, y+5/4'
'z+3/4, y+3/4, -x+1'
'z+1/4, -y+1, x+5/4'
'-z+1/2, y+5/4, x+3/4'
'-z, -y+1/2, -x+1/2'
'x+1/2, y, z+1/2'
'-x+5/4, -y+1/4, z+1'
'-x+3/4, y+1/2, -z+5/4'
'x+1, -y+3/4, -z+3/4'
'z+1/2, x, y+1/2'
'z+1, -x+3/4, -y+3/4'
'-z+5/4, -x+1/4, y+1'
'-z+3/4, x+1/2, -y+5/4'
'y+1/2, z, x+1/2'
'-y+3/4, z+1/2, -x+5/4'
'y+1, -z+3/4, -x+3/4'
'-y+5/4, -z+1/4, x+1'
'y+5/4, x+1/4, -z+1'
'-y+1/2, -x, -z+1/2'
'y+3/4, -x+1/2, z+5/4'
'-y+1, x+3/4, z+3/4'
'x+5/4, z+1/4, -y+1'
'-x+1, z+3/4, y+3/4'
'-x+1/2, -z, -y+1/2'
'x+3/4, -z+1/2, y+5/4'
'z+5/4, y+1/4, -x+1'
'z+3/4, -y+1/2, x+5/4'
'-z+1, y+3/4, x+3/4'
'-z+1/2, -y, -x+1/2'
'x+1/2, y+1/2, z'
'-x+5/4, -y+3/4, z+1/2'
'-x+3/4, y+1, -z+3/4'
'x+1, -y+5/4, -z+1/4'
'z+1/2, x+1/2, y'
'z+1, -x+5/4, -y+1/4'
'-z+5/4, -x+3/4, y+1/2'
'-z+3/4, x+1, -y+3/4'
'y+1/2, z+1/2, x'
'-y+3/4, z+1, -x+3/4'
'y+1, -z+5/4, -x+1/4'
'-y+5/4, -z+3/4, x+1/2'
'y+5/4, x+3/4, -z+1/2'
'-y+1/2, -x+1/2, -z'
'y+3/4, -x+1, z+3/4'
'-y+1, x+5/4, z+1/4'
'x+5/4, z+3/4, -y+1/2'
'-x+1, z+5/4, y+1/4'
'-x+1/2, -z+1/2, -y'
'x+3/4, -z+1, y+3/4'
'z+5/4, y+3/4, -x+1/2'
'z+3/4, -y+1, x+3/4'
'-z+1, y+5/4, x+1/4'
'-z+1/2, -y+1/2, -x'
'-x, -y, -z'
'x-3/4, y-1/4, -z-1/2'
'x-1/4, -y-1/2, z-3/4'
'-x-1/2, y-3/4, z-1/4'
'-z, -x, -y'
'-z-1/2, x-3/4, y-1/4'
'z-3/4, x-1/4, -y-1/2'
'z-1/4, -x-1/2, y-3/4'
'-y, -z, -x'
'y-1/4, -z-1/2, x-3/4'
'-y-1/2, z-3/4, x-1/4'
'y-3/4, z-1/4, -x-1/2'
'-y-3/4, -x-1/4, z-1/2'
'y, x, z'
'-y-1/4, x-1/2, -z-3/4'
'y-1/2, -x-3/4, -z-1/4'
'-x-3/4, -z-1/4, y-1/2'
'x-1/2, -z-3/4, -y-1/4'
'x, z, y'
'-x-1/4, z-1/2, -y-3/4'
'-z-3/4, -y-1/4, x-1/2'
'-z-1/4, y-1/2, -x-3/4'
'z-1/2, -y-3/4, -x-1/4'
'z, y, x'
'-x, -y+1/2, -z+1/2'
'x-3/4, y+1/4, -z'
'x-1/4, -y, z-1/4'
'-x-1/2, y-1/4, z+1/4'
'-z, -x+1/2, -y+1/2'
'-z-1/2, x-1/4, y+1/4'
'z-3/4, x+1/4, -y'
'z-1/4, -x, y-1/4'
'-y, -z+1/2, -x+1/2'
'y-1/4, -z, x-1/4'
'-y-1/2, z-1/4, x+1/4'
'y-3/4, z+1/4, -x'
'-y-3/4, -x+1/4, z'
'y, x+1/2, z+1/2'
'-y-1/4, x, -z-1/4'
'y-1/2, -x-1/4, -z+1/4'
'-x-3/4, -z+1/4, y'
'x-1/2, -z-1/4, -y+1/4'
'x, z+1/2, y+1/2'
'-x-1/4, z, -y-1/4'
'-z-3/4, -y+1/4, x'
'-z-1/4, y, -x-1/4'
'z-1/2, -y-1/4, -x+1/4'
'z, y+1/2, x+1/2'
'-x+1/2, -y, -z+1/2'
'x-1/4, y-1/4, -z'
'x+1/4, -y-1/2, z-1/4'
'-x, y-3/4, z+1/4'
'-z+1/2, -x, -y+1/2'
'-z, x-3/4, y+1/4'
'z-1/4, x-1/4, -y'
'z+1/4, -x-1/2, y-1/4'
'-y+1/2, -z, -x+1/2'
'y+1/4, -z-1/2, x-1/4'
'-y, z-3/4, x+1/4'
'y-1/4, z-1/4, -x'
'-y-1/4, -x-1/4, z'
'y+1/2, x, z+1/2'
'-y+1/4, x-1/2, -z-1/4'
'y, -x-3/4, -z+1/4'
'-x-1/4, -z-1/4, y'
'x, -z-3/4, -y+1/4'
'x+1/2, z, y+1/2'
'-x+1/4, z-1/2, -y-1/4'
'-z-1/4, -y-1/4, x'
'-z+1/4, y-1/2, -x-1/4'
'z, -y-3/4, -x+1/4'
'z+1/2, y, x+1/2'
'-x+1/2, -y+1/2, -z'
'x-1/4, y+1/4, -z-1/2'
'x+1/4, -y, z-3/4'
'-x, y-1/4, z-1/4'
'-z+1/2, -x+1/2, -y'
'-z, x-1/4, y-1/4'
'z-1/4, x+1/4, -y-1/2'
'z+1/4, -x, y-3/4'
'-y+1/2, -z+1/2, -x'
'y+1/4, -z, x-3/4'
'-y, z-1/4, x-1/4'
'y-1/4, z+1/4, -x-1/2'
'-y-1/4, -x+1/4, z-1/2'
'y+1/2, x+1/2, z'
'-y+1/4, x, -z-3/4'
'y, -x-1/4, -z-1/4'
'-x-1/4, -z+1/4, y-1/2'
'x, -z-1/4, -y-1/4'
'x+1/2, z+1/2, y'
'-x+1/4, z, -y-3/4'
'-z-1/4, -y+1/4, x-1/2'
'-z+1/4, y, -x-3/4'
'z, -y-1/4, -x-1/4'
'z+1/2, y+1/2, x'
loop_
_atom_site_label
_atom_site_type_symbol
_atom_site_fract_x
_atom_site_fract_y
_atom_site_fract_z
_atom_site_U_iso_or_equiv
_atom_site_adp_type
_atom_site_occupancy
_atom_site_site_symmetry_order
_atom_site_calc_flag
_atom_site_refinement_flags_posn
_atom_site_refinement_flags_adp
_atom_site_refinement_flags_occupancy
_atom_site_disorder_assembly
_atom_site_disorder_group
Tb1 Tb 0.5537(2) 0.4815(3) 0.5358(4) 0.236(10) Uiso 0.3333 1 d D . P . .
Tb2 Tb 0.5521(3) 0.5521(3) 0.4626(5) 0.210(11) Uiso 0.3333 2 d DS . P . .
O1H O 0.5369(7) 0.5369(7) 0.5188(7) 0.041(19) Uiso 0.3333 2 d DS . P . .
O2H O 0.5577(11) 0.4933(18) 0.4811(18) 0.22(3) Uiso 0.5 1 d . . P . .
O1W O 0.6036(13) 0.4604(19) 0.5755(15) 0.23(2) Uiso 0.3333 1 d D . P A -1
O2W O 0.5933(11) 0.5933(11) 0.430(3) 0.23(2) Uiso 0.3333 2 d DS . P A .
O1L1 O 0.6024(13) 0.5180(13) 0.5349(12) 0.26(2) Uiso 0.3333 1 d D . P A .
O2L1 O 0.6067(7) 0.5400(17) 0.4839(7) 0.26(2) Uiso 0.3333 1 d D . P . .
C1L1 C 0.6178(5) 0.5365(6) 0.5137(6) 0.26(2) Uiso 0.3333 1 d D . P . .
C2L1 C 0.6675(3) 0.5825(3) 0.5079(5) 0.26(2) Uiso 0.3333 2 d DS . P . .
H2L1 H 0.6603 0.5897 0.4853 0.315 Uiso 0.1667 1 calc R U P A -1
C3L1 C 0.6505(3) 0.5551(3) 0.5245(5) 0.26(2) Uiso 0.3333 1 d D . P . .
C4L1 C 0.6609(2) 0.5446(3) 0.5577(5) 0.26(2) Uiso 0.3333 1 d D . P . .
H4L1 H 0.6493 0.5259 0.5690 0.315 Uiso 0.3333 1 calc R U P A -1
C5L1 C 0.68836(13) 0.56164(13) 0.5743(3) 0.26(2) Uiso 0.3333 2 d DS . P . .
N1L1 N 0.69915(9) 0.55085(9) 0.6085(3) 0.26(2) Uiso 0.3333 2 d DS . P . .
C6L1 C 0.6877(4) 0.5261(3) 0.6296(4) 0.26(2) Uiso 0.3333 1 d D . P A .
H6L1 H 0.6688 0.5116 0.6227 0.315 Uiso 0.3333 1 calc R U P B -1
N2L1 N 0.70240(18) 0.52197(18) 0.6596(4) 0.26(2) Uiso 0.3333 1 d D . P A -1
O1F1 O 0.5929(14) 0.4393(13) 0.5245(8) 0.30(4) Uiso 0.3333 1 d D . P A -1
O2F1 O 0.5831(15) 0.4188(13) 0.4710(7) 0.30(4) Uiso 0.3333 1 d D . P A -1
C1F1 C 0.5984(17) 0.4202(15) 0.4992(9) 0.30(4) Uiso 0.3333 1 d D . P A -1
O1F2 O 0.5206(16) 0.453(2) 0.5767(5) 0.23(2) Uiso 0.3333 1 d D . P . .
loop_
_atom_type_symbol
_atom_type_description
_atom_type_scat_dispersion_real
_atom_type_scat_dispersion_imag
_atom_type_scat_source
C C 0.0181 0.0091 'International Tables Vol C Tables 4.2.6.8 and 6.1.1.4'
H H 0.0000 0.0000 'International Tables Vol C Tables 4.2.6.8 and 6.1.1.4'
N N 0.0311 0.0180 'International Tables Vol C Tables 4.2.6.8 and 6.1.1.4'
O O 0.0492 0.0322 'International Tables Vol C Tables 4.2.6.8 and 6.1.1.4'
Tb Tb -9.1472 9.1891 'International Tables Vol C Tables 4.2.6.8 and 6.1.1.4'
F F 0.0727 0.0534 'International Tables Vol C Tables 4.2.6.8 and 6.1.1.4'
loop_
_geom_angle_atom_site_label_1
_geom_angle_atom_site_label_2
_geom_angle_atom_site_label_3
_geom_angle
_geom_angle_site_symmetry_1
_geom_angle_site_symmetry_3
Tb2 Tb1 N2L1 116.8(13) 9 190_657
Tb2 Tb1 O2H 142.9(17) 9 .
N2L1 Tb1 O2H 90.3(18) 190_657 .
Tb2 Tb1 O1F1 67.8(15) 9 .
N2L1 Tb1 O1F1 97.0(13) 190_657 .
O2H Tb1 O1F1 85.1(17) . .
Tb2 Tb1 O1F2 33(3) 9 .
N2L1 Tb1 O1F2 124.5(7) 190_657 .
O2H Tb1 O1F2 143.7(16) . .
O1F1 Tb1 O1F2 99(3) . .
Tb2 Tb1 O2H 77.6(16) 9 101_666
N2L1 Tb1 O2H 163(2) 190_657 101_666
O2H Tb1 O2H 72.9(15) . 101_666
O1F1 Tb1 O2H 79.8(19) . 101_666
O1F2 Tb1 O2H 72(2) . 101_666
Tb2 Tb1 O1H 149.5(12) 9 110
N2L1 Tb1 O1H 65.0(10) 190_657 110
O2H Tb1 O1H 63(2) . 110
O1F1 Tb1 O1H 142.3(14) . 110
O1F2 Tb1 O1H 119(2) . 110
O2H Tb1 O1H 107.6(18) 101_666 110
Tb2 Tb1 O1H 149.5(12) 9 .
N2L1 Tb1 O1H 65.0(10) 190_657 .
O2H Tb1 O1H 63(2) . .
O1F1 Tb1 O1H 142.3(14) . .
O1F2 Tb1 O1H 119(2) . .
O2H Tb1 O1H 107.6(18) 101_666 .
O1H Tb1 O1H 0(2) 110 .
Tb2 Tb1 O1L1 120.8(16) 9 .
N2L1 Tb1 O1L1 16.9(16) 190_657 .
O2H Tb1 O1L1 78.6(19) . .
O1F1 Tb1 O1L1 84(2) . .
O1F2 Tb1 O1L1 137.7(13) . .
O2H Tb1 O1L1 148(3) 101_666 .
O1H Tb1 O1L1 70.6(16) 110 .
O1H Tb1 O1L1 70.6(16) . .
Tb2 Tb1 O2H 70.2(18) 9 14_666
N2L1 Tb1 O2H 171.7(13) 190_657 14_666
O2H Tb1 O2H 86(3) . 14_666
O1F1 Tb1 O2H 89.8(19) . 14_666
O1F2 Tb1 O2H 58.5(19) . 14_666
O2H Tb1 O2H 16(4) 101_666 14_666
O1H Tb1 O2H 106.7(17) 110 14_666
O1H Tb1 O2H 106.7(17) . 14_666
O1L1 Tb1 O2H 163(2) . 14_666
Tb2 Tb1 O2H 73(2) 9 9
N2L1 Tb1 O2H 123.4(14) 190_657 9
O2H Tb1 O2H 114(2) . 9
O1F1 Tb1 O2H 133(2) . 9
O1F2 Tb1 O2H 41(2) . 9
O2H Tb1 O2H 67.4(19) 101_666 9
O1H Tb1 O2H 80.9(17) 110 9
O1H Tb1 O2H 80.9(17) . 9
O1L1 Tb1 O2H 140(2) . 9
O2H Tb1 O2H 53(3) 14_666 9
Tb2 Tb1 O1W 54.8(18) 9 .
N2L1 Tb1 O1W 67.3(18) 190_657 .
O2H Tb1 O1W 126.0(19) . .
O1F1 Tb1 O1W 52.5(17) . .
O1F2 Tb1 O1W 82(2) . .
O2H Tb1 O1W 121(2) 101_666 .
O1H Tb1 O1W 131(2) 110 .
O1H Tb1 O1W 131(2) . .
O1L1 Tb1 O1W 66.6(19) . .
O2H Tb1 O1W 121(2) 14_666 .
O2H Tb1 O1W 120(2) 9 .
Tb2 Tb1 N2L1 85.5(12) 9 27_645
N2L1 Tb1 N2L1 57.4(4) 190_657 27_645
O2H Tb1 N2L1 131.5(18) . 27_645
O1F1 Tb1 N2L1 129.8(7) . 27_645
O1F2 Tb1 N2L1 71.9(15) . 27_645
O2H Tb1 N2L1 136(2) 101_666 27_645
O1H Tb1 N2L1 69.9(8) 110 27_645
O1H Tb1 N2L1 69.9(8) . 27_645
O1L1 Tb1 N2L1 74.2(15) . 27_645
O2H Tb1 N2L1 120.9(19) 14_666 27_645
O2H Tb1 N2L1 69.3(12) 9 27_645
O1W Tb1 N2L1 77.3(17) . 27_645
Tb2 Tb1 O1W 37.7(19) 9 120
N2L1 Tb1 O1W 79.7(16) 190_657 120
O2H Tb1 O1W 158.1(18) . 120
O1F1 Tb1 O1W 77.0(17) . 120
O1F2 Tb1 O1W 53.4(18) . 120
O2H Tb1 O1W 115(2) 101_666 120
O1H Tb1 O1W 126.9(19) 110 120
O1H Tb1 O1W 126.9(19) . 120
O1L1 Tb1 O1W 87.1(18) . 120
O2H Tb1 O1W 107(2) 14_666 120
O2H Tb1 O1W 87.9(18) 9 120
O1W Tb1 O1W 32(3) . 120
N2L1 Tb1 O1W 57.6(15) 27_645 120
Tb2 Tb1 Tb2 108.8(10) 9 24_666
N2L1 Tb1 Tb2 124.1(8) 190_657 24_666
O2H Tb1 Tb2 35.8(16) . 24_666
O1F1 Tb1 Tb2 71.5(6) . 24_666
O1F2 Tb1 Tb2 111.4(9) . 24_666
O2H Tb1 Tb2 39(2) 101_666 24_666
O1H Tb1 Tb2 90.9(10) 110 24_666
O1H Tb1 Tb2 90.9(10) . 24_666
O1L1 Tb1 Tb2 109.5(14) . 24_666
O2H Tb1 Tb2 53.9(18) 14_666 24_666
O2H Tb1 Tb2 98.7(11) 9 24_666
O1W Tb1 Tb2 124.0(16) . 24_666
N2L1 Tb1 Tb2 158.5(4) 27_645 24_666
O1W Tb1 Tb2 142.2(16) 120 24_666
O2L1 Tb2 O2L1 104(3) . 110
O2L1 Tb2 O2H 118(3) . 24_666
O2L1 Tb2 O2H 134(3) 110 24_666
O2L1 Tb2 O2H 134(3) . 105_666
O2L1 Tb2 O2H 118(3) 110 105_666
O2H Tb2 O2H 17(4) 24_666 105_666
O2L1 Tb2 O1H 81.2(10) . 110
O2L1 Tb2 O1H 81.2(10) 110 110
O2H Tb2 O1H 89.1(18) 24_666 110
O2H Tb2 O1H 89.1(18) 105_666 110
O2L1 Tb2 O1H 81.2(10) . .
O2L1 Tb2 O1H 81.2(10) 110 .
O2H Tb2 O1H 89.1(18) 24_666 .
O2H Tb2 O1H 89.1(18) 105_666 .
O1H Tb2 O1H 0(2) 110 .
O2L1 Tb2 O2H 68(2) . .
O2L1 Tb2 O2H 141(2) 110 .
O2H Tb2 O2H 55(3) 24_666 .
O2H Tb2 O2H 69(2) 105_666 .
O1H Tb2 O2H 60.2(17) 110 .
O1H Tb2 O2H 60.2(17) . .
O2L1 Tb2 O2H 141(2) . 110
O2L1 Tb2 O2H 68(2) 110 110
O2H Tb2 O2H 69(2) 24_666 110
O2H Tb2 O2H 55(3) 105_666 110
O1H Tb2 O2H 60.2(17) 110 110
O1H Tb2 O2H 60.2(17) . 110
O2H Tb2 O2H 95(3) . 110
O2L1 Tb2 O2W 74.8(18) . .
O2L1 Tb2 O2W 74.8(18) 110 .
O2H Tb2 O2W 130(3) 24_666 .
O2H Tb2 O2W 130(3) 105_666 .
O1H Tb2 O2W 140(3) 110 .
O1H Tb2 O2W 140(3) . .
O2H Tb2 O2W 132.6(13) . .
O2H Tb2 O2W 132.6(13) 110 .
O1H O1H O1H 0(10) 110 120
O1H O1H Tb1 0(10) 110 5
O1H O1H Tb1 128.7(7) 120 5
O1H O1H Tb1 0(10) 110 115
O1H O1H Tb1 159.1(13) 120 115
Tb1 O1H Tb1 36.0(10) 5 115
O1H O1H Tb2 0(10) 110 .
O1H O1H Tb2 147.0(4) 120 .
Tb1 O1H Tb2 18.5(5) 5 .
Tb1 O1H Tb2 18.5(5) 115 .
O1H O1H Tb1 0(10) 110 110
O1H O1H Tb1 31.9(6) 120 110
Tb1 O1H Tb1 96.8(12) 5 110
Tb1 O1H Tb1 129.9(14) 115 110
Tb2 O1H Tb1 115.2(9) . 110
O1H O1H Tb1 0(10) 110 .
O1H O1H Tb1 89.8(4) 120 .
Tb1 O1H Tb1 129.9(14) 5 .
Tb1 O1H Tb1 96.8(12) 115 .
Tb2 O1H Tb1 115.2(9) . .
Tb1 O1H Tb1 115.5(10) 110 .
O1H O1H Tb1 0(10) 110 120
O1H O1H Tb1 67.1(4) 120 120
Tb1 O1H Tb1 146(2) 5 120
Tb1 O1H Tb1 118.0(11) 115 120
Tb2 O1H Tb1 135.7(11) . 120
Tb1 O1H Tb1 93.9(7) 110 120
Tb1 O1H Tb1 22.7(6) . 120
O1H O1H Tb1 0(10) 110 9
O1H O1H Tb1 12.8(8) 120 9
Tb1 O1H Tb1 118.0(11) 5 9
Tb1 O1H Tb1 146(2) 115 9
Tb2 O1H Tb1 135.7(11) . 9
Tb1 O1H Tb1 22.7(6) 110 9
Tb1 O1H Tb1 93.9(7) . 9
Tb1 O1H Tb1 71.8(8) 120 9
Tb1 O2H Tb1 101(3) 115 .
Tb1 O2H Tb2 137(4) 115 24_666
Tb1 O2H Tb2 111(3) . 24_666
Tb1 O2H Tb1 115(3) 115 105_666
Tb1 O2H Tb1 115(3) . 105_666
Tb2 O2H Tb1 24.1(7) 24_666 105_666
Tb1 O2H Tb2 18.0(12) 115 .
Tb1 O2H Tb2 119(2) . .
Tb2 O2H Tb2 122(3) 24_666 .
Tb1 O2H Tb2 103(3) 105_666 .
Tb1 O2H Tb1 133(3) 115 14_666
Tb1 O2H Tb1 93(3) . 14_666
Tb2 O2H Tb1 23.2(8) 24_666 14_666
Tb1 O2H Tb1 23.4(9) 105_666 14_666
Tb2 O2H Tb1 125(3) . 14_666
Tb1 O2H Tb1 14.5(7) 115 5
Tb1 O2H Tb1 99.5(19) . 5
Tb2 O2H Tb1 127(3) 24_666 5
Tb1 O2H Tb1 104(2) 105_666 5
Tb2 O2H Tb1 22.8(6) . 5
Tb1 O2H Tb1 119(2) 14_666 5
C1L1 O1L1 Tb1 138(4) . .
C1L1 O1L1 Tb1 73(2) . 115
Tb1 O1L1 Tb1 68.3(14) . 115
C1L1 O2L1 O1L1 27(2) . 115
C1L1 O2L1 Tb1 112(2) . 115
O1L1 O2L1 Tb1 84.7(16) 115 115
C1L1 O2L1 Tb2 132(2) . .
O1L1 O2L1 Tb2 105(2) 115 .
Tb1 O2L1 Tb2 24.7(5) 115 .
C1L1 O2L1 Tb1 112.9(17) . 5
O1L1 O2L1 Tb1 86(2) 115 5
Tb1 O2L1 Tb1 15.4(6) 115 5
Tb2 O2L1 Tb1 19.1(5) . 5
O1L1 C1L1 C6L1 93(4) 115 55_564
O1L1 C1L1 N2L1 27(4) 115 55_564
C6L1 C1L1 N2L1 69.0(18) 55_564 55_564
O1L1 C1L1 O2L1 86(5) 115 .
C6L1 C1L1 O2L1 110(3) 55_564 .
N2L1 C1L1 O2L1 84.5(18) 55_564 .
O1L1 C1L1 O1L1 46(4) 115 .
C6L1 C1L1 O1L1 106(2) 55_564 .
N2L1 C1L1 O1L1 67(3) 55_564 .
O2L1 C1L1 O1L1 121(5) . .
O1L1 C1L1 C3L1 141(4) 115 .
C6L1 C1L1 C3L1 51.6(10) 55_564 .
N2L1 C1L1 C3L1 120(2) 55_564 .
O2L1 C1L1 C3L1 120(3) . .
O1L1 C1L1 C3L1 119(3) . .
O1L1 C1L1 N2L1 37(3) 115 190_657
C6L1 C1L1 N2L1 91(2) 55_564 190_657
N2L1 C1L1 N2L1 52.0(10) 55_564 190_657
O2L1 C1L1 N2L1 121(2) . 190_657
O1L1 C1L1 N2L1 17(3) . 190_657
C3L1 C1L1 N2L1 116.4(13) . 190_657
O1L1 C1L1 N1L1 108(4) 115 190_657
C6L1 C1L1 N1L1 47.9(10) 55_564 190_657
N2L1 C1L1 N1L1 97.4(18) 55_564 190_657
O2L1 C1L1 N1L1 153(3) . 190_657
O1L1 C1L1 N1L1 84(3) . 190_657
C3L1 C1L1 N1L1 37.3(6) . 190_657
N2L1 C1L1 N1L1 79.1(11) 190_657 190_657
O1L1 C1L1 N1L1 108(4) 115 55_564
C6L1 C1L1 N1L1 47.9(10) 55_564 55_564
N2L1 C1L1 N1L1 97.4(18) 55_564 55_564
O2L1 C1L1 N1L1 153(3) . 55_564
O1L1 C1L1 N1L1 84(3) . 55_564
C3L1 C1L1 N1L1 37.3(6) . 55_564
N2L1 C1L1 N1L1 79.1(11) 190_657 55_564
N1L1 C1L1 N1L1 0.0(3) 190_657 55_564
O1L1 C1L1 C6L1 77(4) 115 190_657
C6L1 C1L1 C6L1 76.2(17) 55_564 190_657
N2L1 C1L1 C6L1 82.0(14) 55_564 190_657
O2L1 C1L1 C6L1 162(2) . 190_657
O1L1 C1L1 C6L1 42(2) . 190_657
C3L1 C1L1 C6L1 77.6(8) . 190_657
N2L1 C1L1 C6L1 41.0(6) 190_657 190_657
N1L1 C1L1 C6L1 41.8(6) 190_657 190_657
N1L1 C1L1 C6L1 41.8(6) 55_564 190_657
O1L1 C1L1 Tb1 43(4) 115 115
C6L1 C1L1 Tb1 106.5(15) 55_564 115
N2L1 C1L1 Tb1 47.7(9) 55_564 115
O2L1 C1L1 Tb1 43.5(17) . 115
O1L1 C1L1 Tb1 82(3) . 115
C3L1 C1L1 Tb1 151.1(12) . 115
N2L1 C1L1 Tb1 78.2(8) 190_657 115
N1L1 C1L1 Tb1 145.1(15) 190_657 115
N1L1 C1L1 Tb1 145.1(15) 55_564 115
C6L1 C1L1 Tb1 118.9(11) 190_657 115
C3L1 C2L1 C3L1 119.9(13) 133_765 .
C3L1 C2L1 H2L1 120.0 133_765 .
C3L1 C2L1 H2L1 120.0 . .
C4L1 C3L1 N1L1 48.6(16) 115 55_564
C4L1 C3L1 N1L1 48.6(16) 115 190_657
N1L1 C3L1 N1L1 0.0(11) 55_564 190_657
C4L1 C3L1 C6L1 111.8(12) 115 55_564
N1L1 C3L1 C6L1 71.0(9) 55_564 55_564
N1L1 C3L1 C6L1 71.0(9) 190_657 55_564
C4L1 C3L1 C4L1 25.2(16) 115 .
N1L1 C3L1 C4L1 36.4(8) 55_564 .
N1L1 C3L1 C4L1 36.4(8) 190_657 .
C6L1 C3L1 C4L1 107.4(12) 55_564 .
C4L1 C3L1 C2L1 96.0(17) 115 .
N1L1 C3L1 C2L1 133.7(9) 55_564 .
N1L1 C3L1 C2L1 133.7(9) 190_657 .
C6L1 C3L1 C2L1 107.6(11) 55_564 .
C4L1 C3L1 C2L1 120.0(10) . .
C4L1 C3L1 C1L1 132.8(18) 115 .
N1L1 C3L1 C1L1 85.3(11) 55_564 .
N1L1 C3L1 C1L1 85.3(11) 190_657 .
C6L1 C3L1 C1L1 46.6(13) 55_564 .
C4L1 C3L1 C1L1 110.8(9) . .
C2L1 C3L1 C1L1 128.6(10) . .
C4L1 C3L1 C5L1 7.0(10) 115 55_564
N1L1 C3L1 C5L1 55.6(8) 55_564 55_564
N1L1 C3L1 C5L1 55.6(8) 190_657 55_564
C6L1 C3L1 C5L1 117.7(10) 55_564 55_564
C4L1 C3L1 C5L1 30.0(5) . 55_564
C2L1 C3L1 C5L1 90.2(8) . 55_564
C1L1 C3L1 C5L1 139.4(9) . 55_564
C4L1 C3L1 C5L1 7.0(10) 115 190_657
N1L1 C3L1 C5L1 55.6(8) 55_564 190_657
N1L1 C3L1 C5L1 55.6(8) 190_657 190_657
C6L1 C3L1 C5L1 117.7(10) 55_564 190_657
C4L1 C3L1 C5L1 30.0(5) . 190_657
C2L1 C3L1 C5L1 90.2(8) . 190_657
C1L1 C3L1 C5L1 139.4(9) . 190_657
C5L1 C3L1 C5L1 0.0(2) 55_564 190_657
C3L1 C4L1 C5L1 120.0(9) . .
C3L1 C4L1 H4L1 120.0 . .
C5L1 C4L1 H4L1 120.0 . .
C4L1 C5L1 C4L1 119.9(12) . 133_765
C4L1 C5L1 N1L1 120.0(6) . .
C4L1 C5L1 N1L1 120.0(6) 133_765 .
C6L1 N1L1 C6L1 96.0(18) 133_765 .
C6L1 N1L1 C5L1 132.0(9) 133_765 133_765
C6L1 N1L1 C5L1 132.0(9) . 133_765
C6L1 N1L1 C5L1 132.0(9) 133_765 .
C6L1 N1L1 C5L1 132.0(9) . .
C5L1 N1L1 C5L1 0.0(6) 133_765 .
N2L1 C6L1 N1L1 119.2(16) . .
N2L1 C6L1 H6L1 120.4 . .
N1L1 C6L1 H6L1 120.4 . .
C1F1 O1F1 Tb1 133.9(19) . .
O2F1 C1F1 O1F1 129(3) . .
O1F1 O1F2 Tb1 145(5) 120 120
O1F1 O1F2 Tb2 117(9) 120 9
Tb1 O1F2 Tb2 36.0(8) 120 9
O1F1 O1F2 O2H 148(9) 120 9
Tb1 O1F2 O2H 61(3) 120 9
Tb2 O1F2 O2H 94(3) 9 9
O1F1 O1F2 O2L1 82(4) 120 9
Tb1 O1F2 O2L1 74.7(19) 120 9
Tb2 O1F2 O2L1 84.7(15) 9 9
O2H O1F2 O2L1 96(5) 9 9
O1F1 O1F2 Tb1 136(8) 120 .
Tb1 O1F2 Tb1 18.0(14) 120 .
Tb2 O1F2 Tb1 19.2(13) 9 .
O2H O1F2 Tb1 75(2) 9 .
O2L1 O1F2 Tb1 83.7(15) 9 .
loop_
_geom_bond_atom_site_label_1
_geom_bond_atom_site_label_2
_geom_bond_distance
_geom_bond_site_symmetry_2
Tb1 Tb2 0.960(15) 9
Tb1 N2L1 2.141(16) 190_657
Tb1 O2H 2.15(7) .
Tb1 O1F1 2.25(5) .
Tb1 O1F2 2.297(11) .
Tb1 O2H 2.30(5) 101_666
Tb1 O1H 2.312(16) 110
Tb1 O1H 2.312(16) .
Tb1 O1L1 2.33(4) .
Tb1 O2H 2.43(6) 14_666
Tb1 O2H 2.46(7) 9
Tb1 O1W 2.57(2) .
Tb1 N2L1 2.613(16) 27_645
Tb1 O1W 2.84(3) 120
Tb1 Tb2 3.662(15) 24_666
Tb2 O2L1 2.29(2) .
Tb2 O2L1 2.29(2) 110
Tb2 O2H 2.29(5) 24_666
Tb2 O2H 2.29(5) 105_666
Tb2 O1H 2.306(17) 110
Tb2 O1H 2.306(17) .
Tb2 O2H 2.37(8) .
Tb2 O2H 2.37(8) 110
Tb2 O2W 2.56(2) .
O1H O1H 0.00(15) 110
O1H O1H 0.98(2) 120
O1H Tb1 1.565(18) 5
O1H Tb1 1.565(18) 115
O1H Tb1 2.312(16) 110
O1H Tb1 2.509(16) 120
O1H Tb1 2.509(16) 9
O2H Tb1 1.64(7) 115
O2H Tb2 2.29(5) 24_666
O2H Tb1 2.30(5) 105_666
O2H Tb1 2.43(6) 14_666
O2H Tb1 2.46(7) 5
O1L1 C1L1 1.228(11) .
O1L1 Tb1 2.85(5) 115
O2L1 C1L1 1.227(11) .
O2L1 O1L1 1.33(5) 115
O2L1 Tb1 2.04(3) 115
O2L1 Tb1 2.77(3) 5
C1L1 O1L1 0.61(5) 115
C1L1 C6L1 1.10(3) 55_564
C1L1 N2L1 1.17(3) 55_564
C1L1 C3L1 1.499(11) .
C1L1 N2L1 1.76(2) 190_657
C1L1 N1L1 1.77(2) 190_657
C1L1 N1L1 1.77(2) 55_564
C1L1 C6L1 1.91(3) 190_657
C1L1 Tb1 2.748(19) 115
C2L1 C3L1 1.391(9) 133_765
C2L1 C3L1 1.391(9) .
C2L1 H2L1 0.9500 .
C3L1 C4L1 0.874(19) 115
C3L1 N1L1 1.078(15) 55_564
C3L1 N1L1 1.078(15) 190_657
C3L1 C6L1 1.187(17) 55_564
C3L1 C4L1 1.389(10) .
C3L1 C5L1 1.74(2) 55_564
C3L1 C5L1 1.74(2) 190_657
C4L1 C5L1 1.391(9) .
C4L1 H4L1 0.9500 .
C5L1 C4L1 1.391(9) 133_765
C5L1 N1L1 1.438(10) .
N1L1 C6L1 1.319(10) 133_765
N1L1 C6L1 1.319(10) .
N1L1 C5L1 1.438(10) 133_765
C6L1 N2L1 1.290(11) .
C6L1 H6L1 0.9500 .
O1F1 C1F1 1.233(11) .
O2F1 C1F1 1.231(11) .
O1F2 O1F1 0.82(7) 120
O1F2 Tb1 1.53(3) 120
O1F2 Tb2 1.58(4) 9
O1F2 O2H 1.67(9) 9
O1F2 O2L1 1.82(5) 9
loop_
_platon_squeeze_void_nr
_platon_squeeze_void_average_x
_platon_squeeze_void_average_y
_platon_squeeze_void_average_z
_platon_squeeze_void_volume
_platon_squeeze_void_count_electrons
_platon_squeeze_void_content
1 -0.002 -0.007 -0.003 38418 6647 ' '
2 0.625 0.125 0.125 99 15 ' '
3 0.125 0.125 0.625 99 15 ' '
4 0.375 0.375 0.375 99 15 ' '
5 0.875 0.375 0.875 99 15 ' '
6 0.125 0.625 0.125 99 15 ' '
7 0.625 0.625 0.625 99 15 ' '
8 0.875 0.875 0.375 99 15 ' '
9 0.375 0.875 0.875 99 15 ' '
