#------------------------------------------------------------------------------
#$Date: 2019-11-26 05:25:35 +0200 (Tue, 26 Nov 2019) $
#$Revision: 242706 $
#$URL: file:///home/coder/svn-repositories/cod/cif/4/13/28/4132805.cif $
#------------------------------------------------------------------------------
#
# This file is available in the Crystallography Open Database (COD),
# http://www.crystallography.net/
#
# All data on this site have been placed in the public domain by the
# contributors.
#
data_4132805
loop_
_publ_author_name
'Xu, Li-Li'
'Zhang, Hai-Feng'
'Li, Mian'
'Ng, Seik Weng'
'Feng, Jiang-He'
'Mao, Jiang-Gao'
'Li, Dan'
_publ_section_title
;
 Chiroptical Activity from an Achiral Biological Metal-Organic Framework.
;
_journal_issue                   37
_journal_name_full               'Journal of the American Chemical Society'
_journal_page_first              11569
_journal_page_last               11572
_journal_paper_doi               10.1021/jacs.8b06725
_journal_volume                  140
_journal_year                    2018
_chemical_formula_moiety         'Zn (C5 H5 N5) (C6 H2 O5), 0.5(C3 H7 N O)'
_chemical_formula_sum            'C12.5 H10.5 N5.5 O5.5 Zn'
_chemical_formula_weight         391.13
_space_group_crystal_system      tetragonal
_space_group_IT_number           119
_space_group_name_Hall           'I -4 -2'
_space_group_name_H-M_alt        'I -4 m 2'
_atom_sites_solution_hydrogens   geom
_audit_creation_method           SHELXL-2014/6
_cell_angle_alpha                90
_cell_angle_beta                 90
_cell_angle_gamma                90
_cell_formula_units_Z            8
_cell_length_a                   15.6389(3)
_cell_length_b                   15.6389
_cell_length_c                   13.9429(4)
_cell_measurement_reflns_used    7316
_cell_measurement_temperature    100(2)
_cell_measurement_theta_max      74.3370
_cell_measurement_theta_min      4.2310
_cell_volume                     3410.09(12)
_computing_structure_refinement  'SHELXL-2014/6 (Sheldrick, 2014)'
_diffrn_ambient_temperature      100(2)
_diffrn_measured_fraction_theta_full 0.989
_diffrn_measured_fraction_theta_max 0.975
_diffrn_measurement_device_type  'Enhance (Cu) X-ray Source'
_diffrn_radiation_type           CuK\a
_diffrn_radiation_wavelength     1.54184
_diffrn_reflns_av_R_equivalents  0.0594
_diffrn_reflns_av_unetI/netI     0.0309
_diffrn_reflns_Laue_measured_fraction_full 0.989
_diffrn_reflns_Laue_measured_fraction_max 0.975
_diffrn_reflns_limit_h_max       19
_diffrn_reflns_limit_h_min       -12
_diffrn_reflns_limit_k_max       18
_diffrn_reflns_limit_k_min       -18
_diffrn_reflns_limit_l_max       17
_diffrn_reflns_limit_l_min       -11
_diffrn_reflns_number            7044
_diffrn_reflns_point_group_measured_fraction_full 0.993
_diffrn_reflns_point_group_measured_fraction_max 0.979
_diffrn_reflns_theta_full        67.684
_diffrn_reflns_theta_max         74.816
_diffrn_reflns_theta_min         4.248
_exptl_absorpt_coefficient_mu    2.356
_exptl_absorpt_correction_T_max  1.000
_exptl_absorpt_correction_T_min  0.194
_exptl_absorpt_correction_type   gaussian
_exptl_crystal_colour            colorless
_exptl_crystal_density_diffrn    1.524
_exptl_crystal_description       prism
_exptl_crystal_F_000             1584
_exptl_crystal_size_max          0.750
_exptl_crystal_size_mid          0.550
_exptl_crystal_size_min          0.400
_refine_diff_density_max         0.670
_refine_diff_density_min         -0.925
_refine_diff_density_rms         0.118
_refine_ls_abs_structure_details
;
 Refined as an inversion twin.
;
_refine_ls_abs_structure_Flack   0.05(8)
_refine_ls_extinction_coef       0.0041(4)
_refine_ls_extinction_expression Fc^*^=kFc[1+0.001xFc^2^\l^3^/sin(2\q)]^-1/4^
_refine_ls_extinction_method     SHELXL
_refine_ls_goodness_of_fit_ref   1.059
_refine_ls_hydrogen_treatment    constr
_refine_ls_matrix_type           full
_refine_ls_number_parameters     110
_refine_ls_number_reflns         1837
_refine_ls_number_restraints     0
_refine_ls_restrained_S_all      1.059
_refine_ls_R_factor_all          0.0536
_refine_ls_R_factor_gt           0.0535
_refine_ls_shift/su_max          0.001
_refine_ls_shift/su_mean         0.001
_refine_ls_structure_factor_coef Fsqd
_refine_ls_weighting_details
'w=1/[\s^2^(Fo^2^)+(0.1004P)^2^+10.0588P] where P=(Fo^2^+2Fc^2^)/3'
_refine_ls_weighting_scheme      calc
_refine_ls_wR_factor_gt          0.1449
_refine_ls_wR_factor_ref         0.1449
_reflns_Friedel_coverage         0.836
_reflns_Friedel_fraction_full    0.999
_reflns_Friedel_fraction_max     0.984
_reflns_number_gt                1829
_reflns_number_total             1837
_reflns_threshold_expression     'I > 2\s(I)'
_cod_data_source_file            ZnFDCA_positive.cif
_cod_data_source_block           zn
_cod_original_cell_volume        3410.09(16)
_cod_database_code               4132805
_shelx_estimated_absorpt_t_min   0.271
_shelx_estimated_absorpt_t_max   0.452
_shelxl_version_number           2014/6
_shelx_res_file
;
TITL  I-4m2
rem   Zn (C5 H5 N5) (C6 H2 O5), 0.5(C3 H7 N O)
rem   0.5DMF assumed
CELL  1.54184 15.6389 15.6389 13.9429 90.0000 90.0000 90.0000
ZERR  8        0.0003  0.0000  0.0004  0.0000  0.0000  0.0000
LATT -2
SYMM -X,-Y,Z
SYMM -Y,-X,-Z
SYMM  Y,X,-Z
SYMM -X,Y,Z
SYMM  X,-Y,Z
SYMM -Y,X,-Z
SYMM  Y,-X,-Z
SFAC  C H N O Zn
UNIT  100 84 44 44 8
ACTA
OMIT   1   1   1
OMIT   1   1   0
OMIT   2   2   0
OMIT   2   4   0
OMIT   3   9   0
OMIT   0  12   0
OMIT  14  13   1
OMIT  13  14   1
OMIT   1   1   2
OMIT   3   1   2
OMIT   1   3   2
OMIT   3   3   2
OMIT   4   7   5
OMIT   4   7   9
OMIT   1   1  10
OMIT  10   4  10
OMIT  12   2  12
OMIT   4   4  12
SIZE  0.75 0.55 0.40
L.S.  10 0 15
FMAP  2
PLAN -1
EXYZ  N2 C2'
EXYZ  C6 N6'
EADP  N2 C2'
EADP  C6 N6'
TWIN
EQIV  $1 1/2-Y,1/2-X,1/2-Z
FREE  Zn1 C1 Zn1 C1_$1
ABIN
WGHT    0.100400   10.058801
EXTI    0.004054
BASF   0.04679
FVAR       3.34564
ZN1   5    0.312184    0.187816    0.250000    10.50000    0.00999    0.00999 =
         0.02667   -0.00351   -0.00351    0.00020
O1    4    0.219455    0.178223    0.147264    11.00000    0.00770    0.02341 =
         0.03984    0.00489   -0.00922   -0.00369
O2    4    0.156698    0.198396    0.288543    11.00000    0.02905    0.04830 =
         0.03111    0.00027   -0.02681    0.00008
O3    4    0.000000    0.193003    0.207671    10.50000    0.03058    0.03183 =
         0.01499   -0.01020    0.00000    0.00000
N1    3    0.427098    0.184380    0.185769    11.00000    0.01895    0.01396 =
         0.01895    0.00304   -0.00094    0.00179
PART  1
N2    3    0.457546    0.261109   -0.055944    10.50000    0.03342    0.05489 =
         0.01598    0.01243   -0.01068   -0.00022
AFIX  43  0.8800
H2    2    0.431387    0.278310   -0.108387    10.50000   -1.20000
AFIX   0
N3    3    0.325737    0.236156   -0.001298    10.50000    0.00989    0.02614 =
         0.01406    0.00331   -0.00003   -0.00321
AFIX  93  0.8800
H32   2    0.308157    0.250995   -0.058894    10.50000   -1.20000
H31   2    0.288362    0.221087    0.042748    10.50000   -1.20000
AFIX   0
PART  2
C2'   1    0.457546    0.261109   -0.055944    10.50000    0.03342    0.05489 =
         0.01598    0.01243   -0.01068   -0.00022
AFIX  43
H2'   2    0.429901    0.279287   -0.111367    10.50000   -1.20000
AFIX   0
PART  0
C1    1    0.153460    0.190435    0.198849    11.00000    0.02499    0.01717 =
         0.03689    0.00777   -0.02090    0.00205
C2    1    0.069983    0.193987    0.150765    11.00000    0.01120    0.02855 =
         0.01621   -0.00501    0.00157   -0.00002
C3    1    0.045590    0.196244    0.056035    11.00000    0.01180    0.03655 =
         0.02793   -0.00018   -0.00307    0.00140
AFIX  43
H3    2    0.081335    0.197515    0.002748    11.00000   -1.20000
AFIX   0
C4    1    0.500000    0.167349    0.232808    10.50000    0.01490    0.02157 =
         0.00954    0.01235    0.00000    0.00000
AFIX  43
H4    2    0.500000    0.144975    0.294608    10.50000   -1.20000
AFIX   0
C5    1    0.455578    0.213154    0.097909    11.00000    0.02150    0.01380 =
         0.01588    0.00649    0.00358    0.00197
PART   1
C6    1    0.408392    0.236504    0.019081    10.50000    0.02049    0.02869 =
         0.03048    0.00586   -0.00020   -0.00070
PART   2
N6'   3    0.408392    0.236504    0.019081    10.50000    0.02049    0.02869 =
         0.03048    0.00586   -0.00020   -0.00070
PART   1
PART   0
eqiv  $2 1/2-x,1/2-y,-1/2+z
htab  n2 o2_$2
htab  n3 o1

HKLF      4

REM   I-4m2
REM R1 =  0.0535 for    1829 Fo > 4sig(Fo)  and  0.0536 for all    1837 data
REM    110 parameters refined using      0 restraints

END

WGHT      0.0886     10.8354

REM Highest difference peak  0.670,  deepest hole -0.925,  1-sigma level  0.118
Q1    1   0.2656  0.1880  0.2112  11.00000  0.05    0.67
;
_shelx_res_checksum              17930
_shelx_hkl_file
;
   0   0   2 208203. 438.809   1
   0   0   4 263896. 669.950   1
   0   0   6 26304.8 258.547   1
   0   0   8 17843.1 376.458   7
   0   0   8 16142.2 253.681   1
   0   0  10 56906.0 811.515   7
   0   0  12 24457.4 592.523   7
   0   0  14 3258.71 215.665   9
   0   0  14 4682.25 260.777   7
   0   0  16 13811.9 320.765   7
   0   0  16 19389.1 363.883   9
   0  -1  17 8435.76 172.190   9
   0  -1  17 5956.60 154.188   7
   0   1  15 7685.83 283.640   7
   0   1  15 9556.61 300.254   9
   0  -1  15 8488.35 325.527   9
   0  -1  15 6551.09 261.714   7
   0   1  13 74771.5 1053.61   7
   0   1  13 74237.1 980.716   9
   0  -1  11 5440.15 273.274   7
   0   1  11 5148.43 265.396   7
   0   1   9 30938.5 538.569   7
   0  -1   9 29987.5 415.052   6
   0  -1   9 29262.2 527.455   7
   0  -1   7 54851.1 419.291   1
   0   1   7 57567.3 401.465   1
   0   1   7 63647.3 653.988   7
   0  -1   7 63968.7 637.884   7
   0   1   5 13128.9 156.326   1
   0  -1   5 12950.4 167.725   1
   0   1   3 146858. 395.040   1
   1   0  -3 116301. 425.477   1
   0   1   1 108787. 178.681   1
  -1   0  -1 98692.7 223.193   2
   0  -1  -1 120130. 192.270   1
  -1   0   3 117215. 370.273   1
   1   0   5 15092.5 192.665   1
  -1   0   5 13172.7 167.157   1
   1   0   7 58554.0 451.758   1
  -1   0   7 57814.3 425.812   1
   1   0   9 30039.4 529.558   7
  -1   0   9 29561.7 540.155   7
   1   0   9 29845.8 418.578   6
  -1   0  11 6199.86 284.743   7
   1   0  11 6042.12 280.822   7
   1   0  13 68638.1 1005.07   7
  -1   0  13 70549.5 995.132   7
   1   0  13 68539.3 995.710   9
  -1   0  15 6897.57 272.446   7
   1   0  15 7571.95 285.323   9
  -1   0  17 5856.94 160.762   7
   1   0  17 9156.11 171.536   9
   1   1   0 584.341 17.8760   1
   1  -1  -2 3036.85 51.0823   1
  -1   1   2 2903.89 48.3426   1
   1  -1  -4 26048.7 217.094   1
  -1  -1   4 18586.0 175.032   1
   1   1   4 22885.7 188.985   1
  -1   1   4 23830.8 188.900   1
   1  -1   4 17863.5 164.491   1
  -1  -1   6 19077.3 219.614   1
   1   1   6 19338.6 223.977   1
  -1   1   6 19806.9 217.393   1
  -1  -1   8 12371.8 318.440   7
   1   1   8 11194.1 206.436   1
   1  -1   8 12162.6 238.667   5
   1  -1   8 11834.8 309.540   7
   1  -1   8 11417.5 224.250   1
   1   1   8 11161.0 292.514   7
  -1   1   8 11330.2 202.962   1
  -1  -1   8 10799.4 207.009   1
   1  -1   8 10594.0 234.715   6
  -1  -1  -8 10952.5 205.169   2
  -1  -1  10 2485.18 179.755   7
   1  -1  10 2413.11 169.847   7
   1  -1  10 2845.44 148.850   6
   1   1  10 2370.78 172.328   7
  -1  -1  12 11497.7 397.581   7
   1  -1  12 10755.1 393.486   7
   1   1  12 11860.2 417.185   7
   1  -1  14 9901.57 385.099   9
  -1   1  14 10716.3 377.237   7
   1  -1  14 9005.13 362.543   7
  -1   1  14 12362.5 382.801   9
   1   1  14 8346.14 322.807   7
  -1  -1  14 9612.47 371.819   7
   1   1  14 10968.0 366.647   9
   1  -1  16 1795.79 116.360   7
   1  -1  16 2476.41 145.619   9
   1   1  16 1679.35 113.775   7
   1   1  16 2292.45 118.518   9
  -1   1  16 2352.99 136.277   7
  -1  -1  16 2112.94 133.725   9
  -1  -1  16 1666.83 122.732   7
   0  -2  16 9604.08 290.730   9
   0   2  16 9490.91 255.744   7
   0   2  14 8929.34 302.694   9
   0   2  14 7468.03 305.098   7
   0   2  12 36982.1 664.948   9
   0   2  12 35604.7 722.073   7
   0  -2  10 31119.9 471.092   6
   0  -2  10 31133.1 596.530   7
   0  -2   8 113862. 679.326   1
  -2   0  -8 123848. 677.012   2
   0   2   8 125670. 628.393   1
   0   2   8 124212. 992.915   7
   0  -2   8 118665. 786.710   6
   0  -2   8 132373. 1023.12   7
  -2   0  -6 26718.6 267.651   2
   0   2   6 27480.5 246.170   1
   0  -2   6 25267.8 268.140   1
   2   0  -6 25252.1 263.002   1
   2   0  -4 243458. 740.016   1
   0   2   4 268985. 597.606   1
   0  -2   2 403552. 686.100   1
   0   2   2 415123. 527.858   1
   2   0   0 222790. 395.710   2
   0   2   0 228163. 419.696   2
   0  -2  -2 412434. 755.676   2
   0  -2  -2 423679. 528.269   1
   0  -2  -4 273384. 736.442   2
  -2   0   4 252055. 690.628   1
   2   0   6 32373.9 315.616   1
  -2   0   6 32100.0 293.863   1
   2   0   8 127294. 745.869   1
   0  -2  -8 127212. 708.585   2
   2   0   8 141278. 843.295   5
  -2   0   8 132388. 1059.80   7
   2   0   8 117965. 972.422   7
   2   0   8 130804. 870.312   6
  -2   0   8 121587. 679.993   1
   2   0  10 30925.6 578.797   7
   2   0  12 27065.6 612.923   7
  -2   0  14 9873.78 378.775   7
   2   0  14 9346.54 355.732   9
   2   0  16 7741.05 222.815   7
   2   0  16 11063.5 272.008   9
  -2   0  16 11330.2 268.257   9
  -2   0  16 9106.30 266.424   7
  -1  -2  17 3885.28 127.908   7
  -1  -2  17 5619.34 153.726   9
   1  -2  15 4248.02 212.689   7
   1   2  15 2725.40 157.116   9
  -1  -2  15 2228.96 178.435   7
   1   2  15 2205.57 152.578   7
  -1  -2  15 2702.76 195.625   9
   1  -2  15 5448.15 270.330   9
  -1   2  15 5613.13 238.740   7
  -1   2  15 7209.23 232.581   9
  -1   2  13 39475.1 742.555   7
  -1   2  13 46893.2 732.078   9
   1   2  13 40452.7 723.901   7
   1  -2  13 32387.6 682.313   7
  -1  -2  13 38923.1 744.354   7
   1   2  13 47174.3 750.950   9
  -1  -2  11 12790.3 416.675   7
   1  -2  11 5518.52 226.402   6
   1  -2  11 4874.63 260.533   7
   1   2  11 14469.6 443.876   7
   1   2  11 13414.6 397.526   9
   1  -2   9 31341.2 564.276   7
   1  -2   9 29137.8 437.155   6
  -1  -2   9 21812.5 346.106   6
   1  -2   9 31912.6 416.167   5
  -1  -2   9 24184.3 489.763   7
   1   2   9 21794.3 460.512   7
  -1   2   7 67231.7 429.875   1
   1   2   7 59339.5 408.880   1
   1  -2   7 65821.1 495.978   1
  -1  -2   7 64032.1 680.182   7
  -1  -2   7 59629.0 456.308   1
   1  -2   7 74183.6 707.012   7
   1  -2   7 70465.9 585.064   6
  -1   2   7 70941.3 701.360   7
  -2  -1  -7 83467.1 538.803   2
   1   2   7 52126.0 597.202   7
   1   2   5 8877.98 127.306   1
   2   1  -5 8590.58 148.191   1
  -1   2   3 63425.7 263.502   1
   1   2   3 69994.5 258.962   1
   2  -1  -3 66667.0 321.258   1
  -2  -1  -3 59699.4 304.657   2
  -1  -2   3 57801.3 274.836   1
   1   2   1 21240.7 167.335   2
  -2  -1  -1 20176.7 132.368   2
  -2   1  -1 21534.9 86.9213   2
  -1  -2   1 20054.0 113.319   1
   1  -2  -1 22543.7 120.442   1
   1  -2  -1 20733.1 108.557   2
  -2  -1   1 22374.2 151.542   1
   1   2  -1 24212.0 133.519   1
   2   1   1 19459.9 156.048   2
  -2   1   3 62117.3 290.432   1
   1   2  -3 61184.9 299.919   1
  -2   1   5 9523.08 136.033   1
   2  -1   5 10324.6 162.584   1
   2   1   5 11566.9 161.929   1
   1  -2  -5 10822.3 142.972   1
  -2  -1   5 10493.5 149.343   1
   2  -1   7 57301.4 459.220   1
   2   1   7 66184.9 629.311   7
   2   1   7 69519.0 482.413   1
  -2   1   7 65680.6 659.424   7
  -2  -1   7 63959.5 454.290   1
   2  -1   7 55607.3 537.523   6
  -2   1   7 56469.9 416.612   1
   2  -1   7 54571.4 581.432   7
  -2   1   9 26609.6 505.029   7
   2  -1   9 25869.5 402.362   5
   2  -1   9 25166.0 427.089   6
   2  -1  11 10140.1 362.326   7
   2   1  11 4537.50 247.762   7
   2  -1  13 41907.8 814.835   9
  -2  -1  13 42760.2 784.378   7
   2   1  13 40983.1 738.221   9
   2  -1  15 1612.45 133.220   7
  -2   1  15 3219.86 167.705   9
   2   1  15 5183.81 220.391   7
   2   1  15 7482.44 268.969   9
  -2  -1  15 6902.88 298.250   7
   2  -1  15 2048.65 169.403   9
  -2  -1  17 7248.28 183.656   7
   2  -1  17 5892.47 147.444   9
   2   2   0 1831.44 39.2501   1
   2   2  -2 190353. 548.471   1
  -2  -2   2 178409. 446.027   1
   2   2  -4 34532.1 280.063   1
  -2  -2  -4 32701.5 248.029   2
   2  -2  -4 33906.2 245.459   1
   2   2   4 31941.6 221.444   1
   2  -2   6 2116.42 93.3654   1
   2  -2  -6 1300.30 57.8370   1
  -2  -2  -6 1934.58 82.7633   2
  -2   2   6 1479.16 63.7347   1
   2   2   8 157142. 724.312   1
   2  -2   8 146032. 960.288   6
   2   2   8 143267. 1069.46   7
   2  -2   8 154214. 932.583   5
  -2   2   8 162084. 727.945   1
   2  -2   8 156074. 1121.27   7
   2  -2  10 24105.0 459.176   6
   2   2  10 23466.4 530.032   7
  -2  -2  10 25142.2 546.050   7
   2   2  10 23703.0 509.414   9
   2  -2  10 26798.9 444.517   5
   2  -2  10 21397.3 486.487   7
   2   2  12 28504.2 601.449   9
   2   2  12 23630.8 538.370   7
   2  -2  12 25294.5 594.227   7
  -2  -2  12 28485.1 634.124   7
   2   2  14 3382.68 193.713   9
   2  -2  14 3672.29 252.983   9
  -2  -2  14 3168.49 220.449   7
   2  -2  14 3685.79 227.594   7
   2  -2  16 3231.29 144.249   7
  -2  -2  16 4003.83 184.022   9
   2  -2  16 4630.83 195.511   9
   2   2  16 4340.49 147.668   9
  -2  -2  16 3030.40 162.271   7
   0  -3  17 11458.6 227.051   9
   0  -3  15 24051.2 567.575   9
   0  -3  15 21911.3 519.882   7
   0   3  15 31757.5 423.891   9
   0   3  15 28450.6 520.130   7
   0   3  13 8700.38 343.060   7
   0   3  13 9278.04 309.026   9
   0   3  11 105211. 1062.91   9
   0   3  11 102719. 1158.66   7
   0  -3   9 130234. 1147.32   7
   0  -3   9 138695. 900.207   5
   0   3   7 45090.0 324.352   1
  -3   0  -7 44684.3 362.041   2
   0  -3   5 272493. 815.086   1
  -3   0  -5 253971. 776.475   2
   0   3   5 276623. 654.782   1
   3   0  -5 259009. 889.638   1
   0   3   3 315077. 515.043   1
   0  -3   3 301217. 720.913   1
   0   3   1 590501. 940.818   2
   0  -3   1 529831. 656.570   1
   0  -3  -1 527575. 893.999   2
   3   0   1 533205. 869.563   2
  -3   0   3 284639. 734.922   1
   0  -3  -3 306955. 724.196   2
  -3   0   5 248926. 819.646   1
   0  -3  -5 276784. 849.841   2
   3   0   7 44608.1 482.009   5
  -3   0   7 42044.6 389.185   1
  -3   0   7 50056.8 570.904   7
   0  -3  -7 44637.1 400.861   2
   3   0   7 39629.4 474.868   6
   3   0   7 40449.3 408.549   1
   3   0   7 35036.1 455.282   7
  -3   0   9 157485. 1211.16   7
   3   0   9 146374. 957.580   5
  -3   0  11 112954. 1226.72   7
   3   0  11 89294.3 1056.81   7
   3   0  13 8044.61 320.493   7
   3   0  13 8606.66 356.735   9
   3   0  15 22712.3 455.525   7
   3   0  15 29633.6 541.529   9
   3   0  17 16533.7 225.681   9
  -1  -3  16 7698.99 264.456   9
  -1   3  16 8097.24 218.144   7
   1  -3  16 6050.34 203.233   7
   1  -3  16 8245.05 274.231   9
  -1  -3  16 5619.79 208.904   7
   1   3  14 34651.0 555.608   9
   1  -3  14 17560.9 477.986   7
  -1  -3  14 24562.0 592.524   7
   1   3  14 25119.4 514.932   7
  -1   3  14 29980.6 491.635   9
   1   3  12 41686.2 689.734   9
   1  -3  12 32978.0 683.016   7
   1  -3  12 39896.9 622.977   6
   1   3  12 37111.4 685.633   7
  -1  -3  12 35160.1 726.247   7
   1  -3  10 6246.86 207.548   5
  -1  -3  10 8204.35 321.545   7
  -1  -3  10 7421.63 231.674   6
   1  -3  10 5752.35 263.538   7
   1   3  10 9131.85 339.957   7
   1  -3  10 6458.21 245.032   6
   1   3  10 8859.90 296.835   9
  -3   1  -8 44971.9 392.374   2
  -1   3   8 44394.0 618.538   7
   1   3   8 45212.1 364.306   1
   1  -3   8 41091.2 521.002   6
   1  -3   8 44236.0 608.454   7
   1   3   8 45963.8 635.408   7
   1  -3   8 40479.8 476.931   5
  -1  -3   8 50212.7 672.665   7
  -1   3   8 48088.5 389.026   1
  -1  -3   6 20014.6 230.412   1
  -3  -1  -6 25819.2 283.684   2
   1   3   6 23655.1 384.423   7
   3   1  -6 21628.6 264.842   1
   1   3   6 22228.8 206.234   1
  -3   1  -6 23195.3 240.652   2
  -1   3   6 24330.4 383.570   7
  -1   3   6 23415.6 218.496   1
  -1  -3   6 26043.7 385.226   7
  -1   3   4 29922.1 194.334   1
  -3  -1  -4 27915.6 224.229   2
  -3   1  -4 27605.5 204.922   2
   3  -1  -4 29344.2 254.567   1
   1  -3   4 29380.6 239.532   1
  -1  -3   4 27906.4 220.924   1
  -3   1  -2 38981.3 176.007   2
   1   3   2 38766.6 117.051   1
   1   3   2 34887.3 237.568   2
   3  -1  -2 37960.6 250.757   1
  -1  -3   2 32619.4 178.487   1
  -3  -1  -2 36231.8 209.479   2
   3   1  -2 33816.6 237.408   1
  -1  -3   0 11567.4 66.2183   1
  -1   3   0 10600.1 93.7508   2
   3  -1   0 16512.3 99.3390   2
   1   3   0 15907.3 152.251   2
   1   3   0 12047.2 65.7305   1
   3   1   0 10247.1 117.176   2
   1   3  -2 38463.1 215.148   1
   3   1   2 35190.8 268.378   2
  -1  -3  -2 39751.3 224.576   2
   1  -3  -2 35615.9 159.671   1
   1  -3  -2 37690.2 205.666   2
   1  -3  -4 35312.9 270.230   2
  -1  -3  -4 33328.9 264.053   2
   1  -3  -6 22755.2 266.372   2
  -1  -3  -6 24864.9 278.384   2
  -3  -1   6 26187.0 372.704   7
  -3   1   6 21882.3 242.026   1
  -3  -1   6 24046.6 263.993   1
   3  -1   6 21720.2 279.445   1
   3   1   6 18461.7 221.125   1
  -3  -1   8 52637.5 655.777   7
   3   1   8 45096.1 440.196   1
   3  -1   8 48903.0 586.364   6
   3  -1   8 43135.1 573.944   7
   3  -1   8 49404.6 552.883   5
  -3   1   8 47068.1 416.233   1
   3   1   8 47331.0 517.882   5
  -3   1   8 58934.8 709.890   7
   3   1   8 38661.2 547.187   7
   3  -1  10 9614.14 264.211   5
   3  -1  10 7708.70 289.859   7
   3   1  10 4992.04 168.008   5
  -3   1  10 11574.2 365.564   7
   3   1  10 6902.44 290.777   9
  -3  -1  10 6596.18 279.197   7
   3   1  10 5330.32 250.731   7
   3   1  12 32044.2 618.537   7
   3  -1  12 33506.7 676.636   7
   3  -1  14 24029.1 532.219   7
   3  -1  14 26514.7 593.620   9
   3   1  14 24601.9 525.015   9
   3   1  14 18728.1 440.568   7
  -3   1  14 32942.2 659.209   7
  -3   1  14 37448.8 617.558   9
  -3  -1  16 9873.51 248.730   9
   3   1  16 10197.0 236.348   9
  -2  -3  17 6331.17 152.923   7
  -2  -3  17 7546.04 167.908   9
  -2  -3  15 10256.7 353.573   7
  -2   3  15 15457.5 272.087   9
   2  -3  15 8512.62 290.517   7
   2   3  15 13890.6 288.791   9
   2  -3  13 10844.7 393.992   7
   2   3  13 15051.3 398.946   9
  -2   3  13 14725.6 439.320   7
  -2  -3  13 13767.2 454.980   7
  -2   3  13 17847.9 406.611   9
   2   3  13 12644.5 391.362   7
   2  -3  11 52947.2 841.461   7
   2   3  11 51750.0 780.307   7
  -2  -3  11 59890.8 920.798   7
   2  -3  11 54298.8 789.631   6
   2  -3  11 60173.3 707.204   5
   2   3  11 59381.3 818.911   9
   2  -3   9 121691. 987.769   6
   2   3   9 136823. 1110.21   9
   2  -3   9 123735. 930.824   5
   2   3   9 133103. 1143.17   7
  -2  -3   9 153954. 1287.14   7
   2  -3   9 121171. 1111.65   7
  -2   3   9 153821. 1247.76   7
   2  -3   7 95239.5 720.184   5
   2  -3   7 101790. 833.233   7
   3  -2  -7 102022. 565.830   1
  -2   3   7 109953. 545.734   1
  -2   3   7 113723. 912.571   7
   2   3   7 108146. 835.538   9
   2   3   7 101393. 495.064   1
  -3  -2  -7 92137.2 552.412   2
   2  -3   7 102340. 790.379   6
   2   3   7 110803. 937.521   7
  -2  -3   5 146347. 586.999   1
   3   2  -5 145311. 672.068   1
   3  -2  -5 145693. 611.866   1
   2   3   5 154742. 535.172   1
  -3  -2  -5 151991. 616.968   2
   3  -2  -3 55865.0 320.006   1
  -3  -2  -3 62748.6 332.660   2
  -2  -3   3 51609.3 269.376   1
   3   2  -3 62383.1 376.124   1
  -3  -2  -1 40513.3 218.226   2
   3   2  -1 39001.8 240.619   1
  -2  -3   1 31305.8 167.510   1
  -3   2  -1 32754.6 104.539   2
   2   3   1 38287.6 158.921   1
   2   3  -1 32735.9 187.671   1
   3   2   1 33975.1 271.006   2
  -3  -2   3 53447.2 292.337   1
   2  -3  -3 53315.7 264.361   1
   2   3  -3 61045.9 337.888   1
   2  -3  -3 61145.1 305.880   2
   2  -3  -5 141365. 534.213   1
  -3   2   5 144871. 592.500   1
  -3   2   7 120991. 904.444   7
   3   2   7 88042.0 796.233   9
   3  -2   7 104208. 696.635   1
   3  -2   7 97688.9 785.582   7
  -3  -2   7 117952. 898.367   7
   3  -2   7 99861.8 778.085   6
   3   2   7 103257. 598.548   1
  -3  -2   7 86032.3 542.342   1
  -3   2   7 110361. 591.606   1
   2  -3  -7 109157. 684.709   2
   3   2   7 103954. 701.278   5
   3   2   7 92379.6 817.461   7
   3  -2   7 99459.7 743.654   5
   3  -2   9 126092. 1050.50   6
   3   2   9 128600. 785.996   5
   3   2   9 124590. 1116.52   9
  -3  -2   9 129375. 1134.50   7
   3  -2   9 119361. 1024.59   7
   3   2   9 123497. 1141.59   7
   3  -2  11 47315.4 766.327   7
   3   2  11 59059.4 848.236   9
   3   2  11 49891.9 766.434   7
   3  -2  11 55025.8 679.921   5
   3   2  13 11039.5 364.180   7
  -3   2  13 16751.9 411.741   9
   3  -2  13 11515.3 406.052   7
  -3   2  13 17438.1 502.256   7
   3   2  13 13134.2 398.008   9
  -3   2  15 12633.1 343.437   7
  -3   2  15 15118.2 293.360   9
   3   2  15 14905.0 324.431   9
  -3  -2  15 11766.4 376.572   7
   3  -2  17 11837.0 197.599   9
  -3  -2  17 6020.66 156.588   7
   3   3   0 1791.25 47.8467   1
  -3  -3  -2 18951.9 171.483   2
  -3  -3   2 18774.4 164.837   1
   3  -3  -2 20764.2 188.555   1
   3   3  -2 20274.8 191.817   1
   3   3  -4 225414. 803.728   1
   3  -3  -4 225507. 698.395   1
  -3  -3  -6 213488. 842.967   2
  -3  -3   6 228345. 1188.24   7
   3   3   6 191741. 1065.06   9
   3  -3   6 199279. 1026.20   5
   3   3   6 200554. 704.639   1
  -3  -3   6 185292. 757.008   1
  -3   3   6 214028. 1074.93   7
   3   3   6 192350. 1092.03   7
   3   3  -6 196585. 866.064   1
   3  -3  -6 192325. 742.368   1
   3  -3   6 201028. 1059.85   6
   3   3   8 90179.5 619.654   5
   3  -3   8 88595.6 802.593   5
   3  -3   8 88371.7 824.083   6
   3   3   8 89531.2 849.062   9
   3   3  10 122174. 1103.48   9
   3   3  10 115000. 1124.51   7
   3  -3  10 125496. 1154.96   6
   3  -3  10 128371. 1082.39   5
   3  -3  10 117990. 1148.17   7
  -3   3  12 60574.6 743.658   9
   3   3  12 46701.8 721.615   9
   3  -3  12 39635.3 741.136   7
  -3   3  12 58976.8 903.750   7
   3  -3  12 48520.7 659.155   5
   3   3  12 39655.3 689.996   7
  -3   3  14 33136.3 464.747   9
  -3  -3  14 22278.0 551.591   7
  -3   3  14 30763.1 581.266   7
   3   3  14 25106.9 449.635   9
   3  -3  14 17037.4 423.716   7
   3   3  14 19662.6 438.152   7
   3  -3  14 20384.0 573.211   9
   3   3  16 32630.8 345.907   8
  -3   3  16 29863.2 408.910   7
  -3  -3  16 25216.2 447.364   9
  -3  -3  16 22061.8 422.390   7
   0  -4  16 751.489 78.4044   7
   0  -4  16 1020.35 106.133   9
   0   4  14 2516.29 130.715   9
   0   4  14 2417.88 173.835   7
   0   4  12 25346.5 569.552   7
   0  -4  12 24922.3 510.493   6
   0  -4  10 7701.06 265.832   6
   0  -4  10 7343.14 310.584   7
   0  -4  10 7757.50 233.077   5
   0  -4   8 16132.1 388.246   7
   0   4   8 17464.5 334.517   9
  -4   0  -6 23646.6 249.201   2
   0   4   6 24012.2 203.424   1
   0  -4   4 24406.2 219.906   1
  -4   0  -4 24147.2 197.050   2
   0  -4   2 182759. 476.501   1
  -4   0  -2 181367. 467.818   2
   0   4   2 180974. 588.726   2
   4   0   0 359380. 829.293   2
   0   4   0 364572. 838.238   2
   0  -4  -2 200436. 573.281   2
   0  -4  -4 30532.4 264.145   2
  -4   0   4 27280.4 250.979   1
   0  -4  -6 26434.3 297.747   2
   4   0   6 25838.8 368.926   5
   4   0   6 22746.7 356.069   6
  -4   0   6 22753.6 274.354   1
   4   0   8 17414.7 341.160   5
   4   0   8 14087.8 320.211   7
   4   0  10 8598.00 260.384   5
   4   0  10 7552.64 293.199   7
  -4   0  12 30507.7 616.941   7
   4   0  12 22745.7 521.557   7
   4   0  14 1643.06 130.909   7
   4   0  14 2196.52 173.315   9
  -4   0  16 1135.03 96.0896   7
   4   0  16 1413.28 94.8522   9
  -1  -4  17 816.651 64.7722   9
   1  -4  17 1335.80 75.7764   9
  -1  -4  15 2331.02 166.736   7
   1  -4  15 2662.22 180.947   7
  -1   4  13 10309.5 288.440   9
   1   4  13 10925.7 356.309   7
   1  -4  11 5140.63 275.183   7
   1   4  11 10496.9 365.993   7
   1  -4  11 5527.27 254.546   6
   1   4  11 11359.1 337.393   9
   1  -4  11 7162.61 255.783   5
  -1  -4  11 8489.52 353.586   7
  -1   4  11 7752.76 266.263   9
  -1  -4  11 8463.05 276.611   6
   1   4   9 5815.55 218.556   9
  -1  -4   9 6284.46 271.995   7
   1  -4   9 6411.91 235.903   6
  -1   4   9 8680.91 317.753   7
   1  -4   9 6578.35 268.679   7
  -1   4   9 7593.22 231.959   9
   1   4   9 4637.03 219.704   7
   1  -4   9 6253.84 209.767   5
  -1  -4   7 12184.9 310.962   7
   1   4   7 11187.4 276.746   7
  -4   1  -7 10686.0 177.771   2
  -1  -4   7 11967.1 212.745   1
  -1   4   7 10413.0 156.137   1
   1  -4   7 12257.1 225.293   1
  -1   4   7 12618.4 320.854   7
   4  -1  -7 12686.5 229.387   1
   1   4   7 12873.1 279.356   9
   4   1  -7 9518.95 180.554   1
   1  -4   7 10101.3 279.004   7
   1   4   7 11004.6 150.700   1
  -4  -1  -7 11372.6 189.373   2
   1  -4   5 5852.18 127.141   1
   1   4   5 5936.83 86.9913   1
  -1   4   5 5916.91 96.7221   1
   4  -1  -5 6009.30 135.786   1
  -4   1  -5 5775.91 106.317   2
   1  -4   3 25636.9 204.044   1
   4   1  -3 26231.7 248.108   1
   1   4   3 36400.6 126.904   1
   4  -1  -3 34744.4 278.875   1
  -4   1  -3 40477.2 211.304   2
  -1  -4   3 33860.5 222.413   1
  -4  -1  -3 20906.8 184.399   2
   1   4   1 106851. 482.211   2
  -1   4   1 119559. 403.015   2
  -4  -1  -1 93022.0 355.140   2
   4   1  -1 104824. 464.789   1
  -4   1  -1 110291. 280.535   2
  -1  -4   1 105056. 293.884   1
   1  -4  -1 107293. 362.188   2
   4  -1   1 119115. 348.141   2
   4   1   1 103259. 506.389   2
  -1  -4  -1 113598. 442.778   2
   1  -4  -3 27129.3 148.837   1
   1  -4  -3 22666.8 196.429   2
   1  -4  -5 6124.06 132.260   2
  -1  -4  -5 6826.14 136.329   2
   4  -1   7 8883.83 221.518   7
   4  -1   7 11484.1 270.528   5
   4   1   7 10040.7 264.160   7
   1  -4  -7 13044.1 242.185   2
  -4  -1   7 10645.0 193.597   1
   4  -1   7 11119.4 228.027   1
  -4   1   7 13033.2 301.234   7
   4   1   7 13031.2 273.343   5
   4   1   7 14175.2 265.418   1
  -4  -1   7 13918.3 314.067   7
  -1  -4  -7 14688.7 236.862   2
   4  -1   7 11459.2 284.976   6
   4   1   9 6744.16 275.166   9
  -4  -1   9 8957.99 305.400   7
   4  -1   9 4064.34 193.679   7
   4   1   9 6933.42 266.187   7
  -4   1   9 5817.98 244.209   7
   4   1   9 8619.26 240.497   5
   4  -1   9 4892.54 203.046   5
   4  -1  11 9979.17 355.358   7
  -4  -1  11 7160.15 324.258   7
   4   1  11 5370.98 282.049   9
  -4   1  11 12502.7 387.679   7
   4   1  11 5072.44 180.109   5
   4   1  11 5319.42 252.423   7
   4  -1  11 12801.1 337.314   5
   4   1  13 8494.49 334.482   9
   4  -1  13 9172.49 333.092   7
  -4  -1  13 9728.25 369.928   7
  -4   1  15 4666.85 171.118   9
   4   1  15 2764.34 151.453   9
   4  -1  15 2774.97 141.504   7
  -4   1  15 4511.66 213.959   7
  -4  -1  15 3012.70 196.212   7
  -4  -1  15 3327.08 181.048   9
   4  -1  17 1181.60 62.3293   9
  -2  -4  16 2267.64 151.431   9
   2   4  16 1982.36 74.0128   8
   2   4  16 2402.09 75.8985   9
  -2  -4  16 1798.10 123.860   7
  -2  -4  14 1446.35 149.363   7
   2  -4  14 4028.30 234.327   7
  -2   4  14 6167.18 256.785   7
   2  -4  14 4287.47 290.985   9
   2   4  14 1780.75 117.338   9
   2   4  14 1471.78 129.108   7
  -2  -4  12 2119.03 187.906   7
  -2   4  12 3229.44 219.745   7
  -2   4  12 3456.17 179.281   9
   2   4  12 3008.60 186.728   9
   2   4  12 2372.00 175.691   7
   2  -4  12 1924.18 173.392   7
   2  -4  12 2417.88 181.507   6
   2  -4  12 3946.50 199.776   5
   2  -4  10 9722.08 300.531   5
   2  -4  10 8280.92 318.502   7
   2  -4  10 9854.35 334.918   6
  -2   4  10 12974.2 411.082   7
   2   4  10 4788.40 238.317   7
  -2   4  10 11888.7 302.883   9
   2   4  10 4770.59 217.746   9
  -2  -4  10 5261.26 265.161   7
  -2   4   8 21459.0 447.048   7
  -2  -4   8 10795.7 315.575   7
   2  -4   8 16418.4 342.851   5
   2  -4   8 17023.7 366.399   6
   2   4   8 7567.54 260.552   7
   2   4   8 8974.06 257.176   9
   2  -4   8 15879.9 368.635   7
   2   4   6 15350.4 278.720   9
  -4  -2  -6 8497.97 163.542   2
   2  -4   6 12321.5 213.059   1
  -2  -4   6 13078.3 195.506   1
  -2   4   6 11432.0 274.337   7
   4  -2  -6 13792.0 216.714   1
   2   4   6 16821.9 166.089   1
  -2  -4   6 15292.2 312.609   7
  -4   2  -6 14631.4 183.594   2
   2   4   6 15393.2 321.504   7
  -2  -4   4 20872.2 200.434   1
   2   4   4 21689.1 145.146   1
   2   4   2 23768.4 87.6964   1
   2   4   2 26873.5 274.006   2
   4  -2  -2 27134.3 244.159   1
  -2  -4   2 25727.3 177.456   1
  -4  -2  -2 24992.4 191.155   2
  -4   2  -2 27241.7 139.167   2
   4   2  -2 25020.8 232.233   1
   2   4   0 103158. 268.232   1
   2   4   0 104565. 479.385   2
   4   2   2 26674.7 293.229   2
   2   4  -2 31572.3 232.409   1
  -2  -4  -2 29332.4 221.521   2
   2  -4  -2 31047.5 201.733   2
   2  -4  -2 27054.6 177.049   1
   2  -4  -4 26448.1 198.865   1
  -4  -2   4 25963.5 239.631   1
   4   2   6 9439.84 247.603   9
  -4   2   6 19906.3 334.174   7
  -4  -2   6 13230.5 275.399   7
   4   2   6 9538.27 220.523   5
   4  -2   6 15050.1 289.271   5
   2  -4  -6 10701.0 190.655   2
   4  -2   6 15504.4 311.506   6
  -2  -4  -6 18268.8 247.642   2
   4   2   6 12229.4 196.276   1
  -4  -2   8 21760.1 440.124   7
  -4   2   8 10966.4 303.813   7
   4   2   8 14723.9 336.479   7
   4  -2   8 8141.86 260.684   6
   4  -2   8 7328.73 233.811   7
   4  -2   8 8967.56 275.021   5
   4   2   8 17205.6 395.745   9
   4   2   8 19629.9 328.162   5
   4   2   8 15589.4 259.912   1
   4  -2  10 5290.31 233.634   5
   4  -2  10 4418.40 220.746   7
  -4   2  10 6536.51 277.557   7
  -4  -2  10 11277.8 370.164   7
   4   2  10 8928.78 313.837   7
   4   2  10 10377.9 239.698   5
   4   2  10 9374.72 324.930   9
  -4   2  12 4015.73 250.642   7
  -4  -2  12 2633.98 213.234   7
   4  -2  12 3544.29 185.108   5
   4  -2  12 2405.78 189.214   7
   4   2  12 3498.43 207.992   7
   4  -2  12 2931.23 241.945   9
   4   2  12 3028.15 207.141   9
  -4   2  14 2421.37 184.414   7
  -4   2  14 2925.31 156.409   9
   4   2  14 4705.73 207.730   7
   4  -2  14 1157.30 113.809   7
   4   2  14 6415.44 241.381   9
  -4  -2  16 1044.54 91.1067   9
   4   2  16 1113.30 75.6522   9
  -3   4  15 559.849 81.6267   7
   3  -4  15 380.718 91.8678   9
   3  -4  13 2145.13 171.463   7
   3   4  13 2531.71 152.481   9
  -3  -4  13 2247.46 192.205   7
   3  -4  13 3310.06 170.925   5
   3   4  13 2201.33 161.002   7
  -3   4  13 3693.08 217.452   7
   3  -4  11 15218.0 462.644   6
   3  -4  11 13562.5 386.495   5
   3   4  11 24233.6 502.883   9
   3  -4  11 12022.1 389.496   7
  -3  -4  11 19003.8 379.826   6
  -3   4  11 18187.9 482.934   7
   3   4  11 18232.6 449.381   7
   3  -4   9 11970.5 348.684   7
   3  -4   9 12506.9 356.066   6
   3  -4   9 11426.1 319.696   5
   3   4   9 12468.4 335.716   9
   4   3  -7 11407.0 187.545   3
  -3   4   7 8154.62 246.519   7
   4  -3  -7 13265.7 229.796   1
   3   4   7 13539.7 214.878   5
  -4   3  -7 14340.6 213.491   2
   3   4   7 14030.8 303.874   9
   3  -4   7 7789.84 240.759   6
   3   4   7 12116.0 301.701   7
   3  -4   7 7294.33 225.193   5
   3  -4   7 7650.58 225.932   7
   4   3  -5 23013.0 287.614   1
  -4   3  -5 21527.0 198.942   2
   4  -3  -5 23219.6 263.063   1
  -4  -3  -5 22728.8 252.582   2
  -3  -4   5 21979.7 233.524   1
   3   4   5 22535.3 191.403   1
   4  -3  -3 49001.5 335.870   1
  -3  -4   3 49761.4 292.254   1
   3   4   1 17380.3 123.434   1
   4   3  -1 20513.2 198.819   1
   3  -4  -1 24952.0 144.346   2
   4   3   1 24133.3 289.285   2
  -4  -3   3 49223.8 309.366   1
   3  -4  -3 47971.4 289.037   1
  -4  -3   5 21367.7 231.702   1
   3  -4  -5 22454.5 228.360   1
   4   3   5 21494.9 339.379   9
   3   4  -5 24162.7 284.872   1
   4  -3   5 24736.9 356.447   5
   3  -4  -5 24055.0 259.294   2
   4   3   7 6454.82 177.002   5
   4   3   7 5904.69 207.335   7
   3   4  -7 13437.7 208.224   3
   4  -3   7 13809.3 312.007   5
   3  -4  -7 7489.83 169.267   2
   4   3   7 6798.24 229.008   9
   4  -3   7 13946.5 335.143   6
   3  -4  -7 8450.87 161.557   1
  -4   3   7 15700.9 321.889   7
   4   3   7 9343.21 174.293   1
  -4  -3   7 9781.49 271.456   7
   4   3   9 10536.7 315.598   7
   4   3   9 12125.1 243.498   5
   4  -3   9 10031.7 300.335   7
  -4   3   9 14442.0 377.265   7
  -4  -3   9 15903.5 420.618   7
   4  -3   9 12577.3 359.546   5
   4  -3   9 11955.0 358.187   6
   4   3   9 12717.1 359.722   9
   4   3  11 11838.2 360.028   7
  -4  -3  11 16947.6 483.922   7
   4  -3  11 17820.4 457.129   7
   4  -3  11 20880.0 478.115   5
   4   3  11 13997.0 399.436   9
   4  -3  13 2005.49 161.757   7
   4   3  13 3392.21 184.969   9
   4  -3  13 4318.34 189.889   5
  -4   3  13 4680.38 238.365   7
   4   3  13 2448.08 165.883   7
   4  -3  13 2389.00 217.967   9
  -4   3  15 1409.38 112.986   7
   4  -3  15 1110.76 121.484   9
   4   4   0 9326.89 122.122   1
   4   4   2 1648.16 83.8365   2
  -4   4  -2 1803.39 27.6118   2
  -4  -4  -2 2242.47 72.4271   2
   4  -4  -2 2031.46 70.9630   1
   4   4  -2 2240.92 72.6110   1
   4  -4  -4 37558.6 313.279   1
  -4  -4   4 37358.1 293.509   1
   4  -4  -4 37556.1 285.941   2
   4   4  -4 38407.7 354.429   1
   4   4  -6 28138.1 337.004   1
   4   4   6 30929.3 281.069   1
   4   4   6 27579.4 446.003   7
   4   4   6 29416.1 424.610   9
   4  -4  -6 28498.8 299.858   1
   4  -4   6 30744.9 452.012   5
  -4  -4  -6 27506.3 295.400   2
  -4  -4   6 31137.9 455.938   7
  -4  -4   6 27300.9 290.895   1
   4   4   6 26319.1 328.435   5
   4  -4  -6 36437.1 376.388   2
  -4   4   6 32728.7 431.920   7
   4   4  -6 30474.8 326.777   3
   4   4   8 16626.3 382.319   7
   4   4   8 21868.6 426.699   9
   4  -4   8 19971.9 457.735   6
   4   4   8 18140.1 273.658   5
  -4  -4   8 23242.6 467.604   7
   4   4  -8 22127.3 278.007   3
   4  -4   8 19836.1 424.554   5
   4  -4   8 15858.1 334.954   7
  -4   4   8 24199.3 457.139   7
   4  -4  10 6009.38 270.662   5
   4   4  10 4454.85 231.470   7
   4  -4  10 4106.13 209.371   7
   4  -4  10 5554.67 280.649   6
   4   4  10 5620.52 249.042   9
   4  -4  12 3882.78 214.525   5
   4   4  12 3452.71 199.048   7
   4  -4  12 3616.84 272.708   9
   4  -4  12 2888.95 194.250   7
   4   4  12 4603.29 212.227   9
  -4   4  12 4928.79 253.646   7
   4   4  14 4434.96 175.714   9
   4  -4  14 3699.34 238.609   9
  -4  -4  16 2168.04 129.116   9
   4   4  16 2270.03 84.4410   8
  -4  -4  16 1950.89 126.929   7
   0  -5  15 14590.8 397.930   7
   0  -5  13 28443.1 545.914   6
   0  -5  13 23458.3 598.588   7
   0  -5  11 63161.0 838.199   6
   0  -5  11 62123.1 957.389   7
   0  -5   9 68261.8 920.350   7
   0   5   9 80785.9 731.239   9
  -5   0  -7 159861. 719.899   2
   0  -5   7 159129. 1171.65   7
   5   0  -7 160555. 1082.58   3
  -5   0  -5 195405. 678.595   2
   5   0  -5 195846. 852.681   1
  -5   0  -3 252043. 644.247   2
   0  -5   3 278330. 707.997   1
   0  -5   1 999999. 1101.86   1
   0   5   1 972741. 1563.86   2
   0  -5  -1 744393. 1280.39   2
   5   0   1 742830. 1369.30   2
   0  -5  -3 325210. 864.917   2
   0  -5  -5 255442. 908.607   2
   5   0   5 226025. 1130.07   5
   5   0   7 162751. 935.255   1
   5   0   7 162050. 1174.35   9
   0  -5  -7 167621. 801.727   2
   5   0   7 165677. 1056.75   5
   5   0   9 69676.2 914.739   9
   5   0   9 76125.9 811.288   5
   5   0  11 62261.1 832.683   7
   5   0  11 70661.0 759.551   5
  -5   0  13 37900.4 699.134   7
   5   0  13 22978.5 495.772   7
   5   0  15 18596.0 373.345   9
  -5   0  15 21507.2 434.176   7
   1  -5  16 3037.18 124.776   7
  -1  -5  16 2949.14 166.744   9
   1  -5  14 16759.5 469.438   7
  -1  -5  14 19906.0 495.568   7
   1  -5  12 50258.5 672.812   5
  -1   5  12 64125.4 689.371   9
  -1  -5  12 41936.8 783.579   7
   1   5  12 64254.1 722.381   9
   1   5  12 54775.7 808.966   7
  -1  -5  12 50639.0 725.366   6
   1  -5  12 45018.0 752.273   6
  -1   5  12 49976.7 790.551   7
   1  -5  12 39407.1 778.864   7
  -1  -5  10 1310.45 144.250   7
   1  -5  10 1160.65 110.231   5
   1  -5  10 511.978 99.7557   7
  -1   5  10 1169.45 136.852   7
   1   5  10 2692.19 152.353   9
  -1   5  10 800.950 85.4757   9
  -1  -5  10 1533.41 110.289   5
   1  -5  10 1630.44 143.082   6
   1   5  10 2004.55 160.639   7
  -1   5   8 67860.1 793.738   7
  -1  -5   8 47442.0 686.302   7
   1   5   8 53697.0 581.610   9
   1  -5   8 54132.5 727.540   7
  -1   5   8 69101.9 623.736   9
  -1   5   6 76642.4 727.905   7
   1  -5   6 75301.0 514.326   1
  -5  -1  -6 67944.7 450.231   2
   1  -5   6 68142.9 694.478   7
   5  -1  -6 74557.5 525.036   1
   5   1  -6 62744.4 517.438   1
  -1  -5   6 78812.5 739.901   7
  -5   1  -6 76302.0 418.454   2
   1   5   6 79455.9 328.922   1
   1   5   6 90450.7 648.845   9
   5   1  -6 73719.5 756.171   3
  -1  -5   6 74277.7 474.173   1
  -1  -5   4 31463.7 257.254   1
  -5  -1  -4 33675.2 254.495   2
   1  -5   4 32965.5 276.738   1
  -5   1  -4 28616.4 220.490   2
   5  -1  -4 30116.9 295.316   1
   5   1  -2 16163.3 205.670   1
  -5  -1  -2 16460.0 149.418   2
   1   5   2 15988.3 227.118   2
   1  -5   2 15074.3 147.952   1
  -5   1  -2 13782.8 113.213   2
  -1  -5   2 13295.6 123.408   1
   5  -1  -2 14624.8 197.181   1
   5   1   0 2523.12 84.2930   2
   5  -1   0 6427.47 102.163   2
   1   5   0 6995.01 129.147   2
  -1  -5   0 4013.00 43.7597   1
  -1   5   0 2717.30 64.9124   2
  -1  -5  -2 19642.3 195.286   2
   5   1   2 20407.4 248.181   2
  -1  -5  -4 31896.2 277.498   2
   1  -5  -4 43931.9 328.423   2
   5  -1   6 83368.0 737.515   6
   5   1   6 74202.7 672.876   5
  -1  -5  -6 96684.6 570.678   2
  -5  -1   6 86330.3 670.989   7
   5  -1   6 86826.5 806.700   9
  -5   1   6 97574.9 715.538   7
   1  -5  -6 81264.4 544.176   2
   5   1   6 71953.0 712.604   9
  -5  -1   6 75249.1 503.122   1
   5  -1   6 85644.4 732.447   5
   1   5  -6 89129.2 522.925   3
  -5   1   8 63039.8 713.522   7
   5   1   8 66064.1 694.084   5
  -5  -1   8 71400.4 760.855   7
   5   1   8 52183.6 618.538   7
   5  -1   8 42213.1 545.499   7
   5  -1   8 49607.7 722.520   9
   5  -1   8 52429.3 662.052   5
   5  -1  10 2404.83 160.364   5
  -5   1  10 2792.29 183.420   7
  -5  -1  10 1899.73 158.217   7
   5  -1  10 1788.63 173.233   9
   5   1  10 328.042 71.8968   7
   5   1  10 565.595 75.4363   5
   5  -1  10 1699.48 138.804   7
  -5   1  12 71099.8 956.076   7
   5   1  12 43819.4 752.860   9
   5   1  12 49041.9 538.087   5
   5   1  12 37996.1 628.846   7
   5  -1  12 55887.6 677.942   5
  -5  -1  12 58961.9 883.763   7
   5  -1  12 47931.2 728.932   7
   5  -1  12 50563.8 852.779   9
  -5   1  14 38908.5 667.654   7
  -5  -1  14 31668.7 612.767   7
   5   1  14 25702.5 485.010   9
  -5   1  14 41851.8 575.577   9
   5   1  16 7199.72 182.797   9
  -5  -1  16 5779.99 196.957   7
   2  -5  15 6746.76 235.286   7
   2   5  15 11817.8 198.170   9
  -2  -5  15 6284.84 264.563   7
   2  -5  15 9241.98 343.442   9
   2   5  15 11628.2 206.427   8
   2   5  13 14795.4 392.472   7
   2  -5  13 15843.4 470.467   7
  -2  -5  13 14650.3 472.675   7
   2  -5  11 52094.1 737.570   5
   2  -5  11 48433.5 828.921   7
   2  -5  11 55149.7 872.881   6
   2   5  11 49768.5 763.325   7
  -2  -5  11 48165.5 834.731   7
   2   5  11 60386.4 733.973   9
  -2  -5  11 44489.8 642.417   6
   2  -5   9 72278.2 881.614   7
   2   5   9 77257.5 890.199   7
   2  -5   9 74133.4 811.598   5
   2  -5   9 79008.5 915.876   6
  -2  -5   9 74301.6 912.131   7
   5  -2  -7 188900. 888.399   1
   2   5   7 188871. 1243.73   7
  -2  -5   7 198705. 1306.81   7
   2  -5   7 191950. 1219.24   7
   2   5   7 203583. 1090.73   9
  -5   2  -7 190649. 767.231   2
   5   2  -7 197943. 858.334   3
   2   5   5 39574.1 192.872   1
   2  -5   5 46701.9 415.371   1
  -2   5   5 47334.6 512.488   7
  -5   2  -5 35597.5 255.699   2
  -2  -5   5 38891.2 313.419   1
   2   5   5 41465.0 517.294   7
   5   2  -5 38851.7 382.925   1
  -2  -5   5 41794.9 515.347   7
  -5  -2  -5 38074.8 307.245   2
   5  -2  -5 36676.4 350.335   1
   5  -2  -3 203278. 764.653   1
  -5   2  -3 205622. 505.759   2
   2   5   3 213513. 905.343   2
  -2  -5   3 213934. 600.763   1
   5   2  -3 211656. 815.887   1
  -5  -2  -3 207183. 621.499   2
   5   2  -1 15688.2 189.772   1
   2   5   1 15668.2 230.680   2
  -2  -5   1 15566.2 122.370   1
   5  -2  -1 16110.2 120.662   2
   5   2   1 13434.1 216.831   2
  -2   5  -1 12931.7 114.772   2
   5   2   3 246149. 1048.18   2
   2  -5  -3 239285. 548.090   1
  -2  -5  -5 43435.1 357.141   2
  -5  -2   5 41994.1 345.330   1
   5   2   5 44440.7 467.790   5
   5  -2   5 40975.6 482.525   5
  -5   2   7 211423. 1164.35   7
   5   2   7 162567. 770.005   1
   2   5  -7 197919. 825.895   3
   5  -2   7 186504. 1250.20   6
  -5  -2   7 228551. 1259.93   7
   5   2   7 194739. 1071.49   5
   5   2   7 157001. 1010.49   7
   5  -2   7 201711. 1274.41   5
   2  -5  -7 208299. 924.741   2
   5   2   9 77935.3 902.121   9
  -5   2   9 88133.7 886.192   7
  -5  -2   9 97058.7 992.097   7
   5  -2   9 77495.3 866.897   5
   5   2   9 67473.9 765.688   7
   5   2   9 79773.6 713.839   5
  -5   2  11 66193.3 892.126   7
   5   2  11 57822.3 589.284   5
   5  -2  11 48579.0 728.764   7
  -5  -2  11 69045.4 934.865   7
   5   2  11 57271.4 835.657   9
   5   2  11 48700.7 703.026   7
   5  -2  11 52678.8 751.318   5
   5  -2  11 53955.3 929.240   9
   5  -2  13 15985.9 493.636   9
   5   2  13 18695.2 434.123   9
   5   2  13 13732.0 353.700   7
  -5  -2  13 21846.5 531.947   7
  -5   2  13 22455.8 527.640   7
   5  -2  13 16384.6 346.141   5
  -5  -2  15 11841.0 357.451   7
   5   2  15 12357.7 277.197   9
   3  -5  16 19266.9 357.554   9
   3   5  16 20512.1 196.024   8
  -3   5  14 35959.6 571.799   7
  -3  -5  14 22975.9 544.265   7
   3   5  14 36669.5 449.564   9
   3  -5  14 19642.0 460.563   7
   3  -5  14 23476.5 612.833   9
   3  -5  12 50176.2 734.440   5
  -3   5  12 65186.2 865.542   7
   3  -5  12 39306.9 698.518   7
  -3  -5  12 53889.1 656.592   6
   3   5  12 65968.6 721.560   9
  -3  -5  12 56364.4 923.549   7
   3  -5  12 49230.2 840.890   6
   3   5  12 48560.6 717.774   7
   3   5  10 123967. 1210.40   7
   3  -5  10 124390. 1298.42   6
   3  -5  10 112465. 1123.79   5
   3   5  10 145927. 1122.99   9
  -3   5  10 147739. 1293.40   7
  -3  -5  10 130858. 1334.17   7
   3  -5  10 107166. 1151.93   7
   3  -5   8 144747. 1106.26   7
   3   5   8 136893. 1128.35   7
  -3   5   8 171629. 1188.34   7
   5   3  -8 162540. 767.265   3
   3   5   8 159504. 1076.46   9
   3  -5   8 153080. 1184.59   5
   3  -5   8 161651. 1282.58   6
  -3   5   6 206582. 1107.94   7
   3   5   6 192934. 1225.70   7
   5   3  -6 190452. 866.154   3
   5  -3  -6 185232. 828.429   1
   3   5   6 199869. 998.923   9
  -5  -3  -6 175390. 737.900   2
  -3  -5   6 195438. 770.444   1
   3  -5   6 197700. 935.721   1
   3   5   6 178031. 764.466   5
  -5   3  -6 207099. 739.355   2
   5   3  -6 179976. 904.118   1
  -3  -5   4 247643. 755.017   1
  -5   3  -4 219742. 558.322   2
   3   5   4 242809. 464.056   1
   5   3  -4 237127. 915.981   1
   5  -3  -4 227742. 838.831   1
   3   5   2 45009.6 415.702   2
   3   5   2 38226.8 123.248   1
  -5   3  -2 45214.8 135.772   2
   5  -3  -2 46135.5 359.279   1
   5   3  -2 41325.9 330.634   1
  -3  -5   2 42018.1 257.462   1
  -5  -3  -2 38491.4 281.070   2
   3   5   0 6653.08 149.769   2
   3   5   0 10052.9 97.6284   1
   5   3   0 11522.1 206.071   2
   5   3   0 8337.93 134.585   1
   5   3   2 43280.3 429.682   2
   3  -5  -2 43919.4 277.794   1
   3   5  -4 269535. 907.967   1
   3  -5  -4 275717. 752.273   1
   3   5  -4 277585. 1053.01   8
  -3  -5  -4 268311. 918.071   2
   5   3   6 185510. 1132.62   9
   5   3   6 189016. 984.790   5
  -3  -5  -6 202930. 833.640   2
   5   3   6 191915. 1113.75   7
  -5  -3   6 235800. 1175.54   7
   3  -5  -6 237956. 960.980   2
  -5  -3   6 197607. 824.635   1
   5   3   6 200656. 831.109   1
  -5   3   6 207287. 1014.70   7
   3   5  -6 207491. 872.553   3
   5  -3   6 192870. 1159.87   5
   3  -5  -6 166162. 593.583   1
   5   3   8 147487. 890.349   5
   3   5  -8 166903. 776.402   3
  -5   3   8 174029. 1181.76   7
   5  -3   8 160385. 1296.24   6
   5   3   8 133619. 1053.50   7
   5  -3   8 152420. 1213.54   5
  -5  -3   8 188311. 1315.97   7
   5   3   8 153532. 1160.85   9
   5  -3  10 131113. 1403.31   9
   5   3  10 110984. 1116.89   7
  -5  -3  10 148701. 1335.96   7
   5   3  10 126793. 1190.56   9
   5  -3  10 129968. 1217.47   5
   5   3  10 124757. 837.230   5
  -5   3  10 165689. 1309.40   7
  -5  -3  12 68655.1 988.932   7
   5   3  12 41664.7 626.113   7
   5   3  12 53001.9 729.732   9
   5  -3  12 65380.0 855.471   5
   5  -3  12 58627.9 982.771   9
  -5   3  12 80915.3 994.062   7
   5   3  14 30551.2 472.391   9
  -5  -3  14 30433.0 614.598   7
   5   3  16 22423.3 255.898   8
  -5  -3  16 15770.1 309.043   7
  -5  -3  16 16239.1 303.835   9
   5  -3  16 21735.8 329.954   9
  -4  -5  15 1145.38 119.426   7
   4  -5  15 1160.81 115.042   9
  -4   5  13 299.000 78.3710   7
   4  -5  13 416.856 121.478   9
   4   5  11 8299.09 271.147   9
  -4  -5  11 7673.85 249.012   6
   4  -5  11 7444.74 285.167   7
   4  -5  11 9990.29 398.457   6
   4  -5  11 9976.62 359.882   5
   5   4  -9 3932.16 122.676   3
  -4   5   9 3888.23 194.157   7
   4  -5   9 3093.55 172.278   7
   4   5   9 4724.37 196.472   9
   4   5   9 3997.07 203.484   7
   4  -5   9 4646.32 234.134   5
   4  -5   9 5305.44 269.986   6
   4   5   9 4581.01 131.488   5
   4   5   7 15847.4 348.575   7
   4  -5   7 20739.2 429.640   5
  -4   5   7 21308.2 374.740   7
  -4  -5   7 23665.2 462.924   7
   5  -4  -7 23738.0 305.592   1
   5   4  -7 21473.5 289.514   3
   4   5   7 17541.1 332.540   9
   4   5   7 17432.0 265.646   5
   4   5   5 13203.6 224.162   5
  -4  -5   5 16960.1 331.975   7
   4   5   5 15351.0 271.383   9
  -5   4  -5 13125.7 144.641   2
   5   4  -5 12798.9 223.924   3
   5   4  -5 13927.9 238.910   1
  -4  -5   5 13316.2 189.582   1
   5  -4  -5 12950.1 202.333   1
   5  -4  -5 17897.9 247.814   2
  -4   5   5 14494.5 270.367   7
  -5  -4  -5 14852.9 223.592   2
   4  -5   5 12105.6 288.130   6
   4   5   5 12147.4 127.843   1
  -4  -5   3 28289.7 237.809   1
   5   4  -3 27939.1 302.033   1
   4   5   1 7489.59 88.1112   1
   5   4  -1 8193.53 136.337   1
   5   4   1 6966.78 115.794   1
   5   4   1 5515.08 163.827   2
   4   5  -3 29322.7 282.788   1
   5   4   3 21642.3 319.515   2
   4  -5  -3 25537.4 235.107   1
   4  -5  -3 34324.4 255.645   2
   4   5  -5 14850.0 233.756   1
   4  -5  -5 12696.8 185.603   1
  -5  -4   5 13843.1 281.389   7
   4   5  -5 14817.6 232.424   3
   5   4   5 11029.4 220.323   5
   5   4   5 11305.7 242.854   9
   4  -5  -5 13181.0 200.720   2
   5  -4   5 14429.1 310.033   6
  -5  -4   5 12575.5 209.829   1
   5   4   7 16351.9 343.389   7
   5  -4   7 18458.9 397.067   5
   5   4   7 18110.1 300.204   5
   5   4   7 18412.1 358.621   9
  -5   4   7 20695.2 380.565   7
   4   5  -7 19417.4 278.082   3
   5   4   9 3172.98 172.566   9
   5   4   9 3080.87 173.519   7
   5  -4   9 4721.75 241.888   5
  -5  -4   9 4955.02 246.592   7
  -5   4   9 5742.43 244.952   7
   5   4   9 3255.40 125.534   5
   4   5  -9 4655.56 134.129   3
   5  -4   9 4910.00 260.015   6
  -5  -4  11 11741.9 412.027   7
  -5   4  11 9068.14 305.656   7
   5   4  11 10402.9 318.915   9
   5  -4  11 7699.18 325.204   5
   5  -4  11 8018.97 375.376   9
  -5  -4  13 476.909 107.428   7
   5   4  13 625.718 86.7895   9
   5  -4  13 901.236 106.167   5
   5  -4  13 685.979 125.732   9
  -5   4  13 1075.89 114.667   7
   5   4  15 1728.95 90.0040   9
   5   4  15 1157.91 83.1461   8
   5  -4  15 1935.18 135.619   9
  -5  -4  15 878.955 105.194   7
  -5   4  15 2027.40 114.262   7
   5   5   0 24515.6 211.696   1
   5   5   0 24787.1 341.712   2
   5   5  -2 54967.4 430.931   3
   5   5   2 52326.6 437.753   5
   5   5   2 54560.8 528.448   2
   5  -5  -2 55510.6 398.386   1
   5   5   2 56611.3 290.172   1
   5   5  -2 61368.8 405.047   1
   5   5  -2 55859.7 471.059   2
   5   5   2 50636.2 414.315   8
   5   5  -2 60085.8 467.885   4
   5   5   4 117890. 688.880   5
   5   5   4 111010. 840.170   2
  -5   5  -4 119623. 598.378   3
   5   5   4 122537. 748.322   9
   5  -5  -4 123517. 624.026   1
   5   5  -4 120482. 689.815   3
  -5  -5  -4 115362. 569.108   2
  -5  -5   4 139653. 901.049   7
   5  -5  -4 140433. 560.200   2
   5   5  -4 139065. 770.653   8
   5  -5   4 116727. 877.582   6
  -5   5  -4 121886. 381.647   2
   5   5  -4 120269. 661.320   1
   5  -5  -6 240156. 938.567   1
   5  -5   6 243370. 1455.60   6
   5   5  -6 238794. 1020.37   3
  -5  -5   6 262246. 1415.87   7
   5   5   6 223033. 1146.81   9
  -5   5   6 245559. 1147.03   7
   5   5   6 217638. 988.632   5
   5  -5   8 158535. 1310.62   5
   5   5   8 162369. 1121.22   9
   5  -5   8 157952. 1388.24   6
   5   5   8 159388. 882.354   5
  -5   5  10 97517.7 989.929   7
  -5  -5  10 102262. 1171.39   7
   5   5  10 87476.4 649.939   5
   5  -5  10 93199.7 1211.93   6
   5   5  10 91678.3 889.292   9
   5  -5  10 80682.9 1045.77   5
   5  -5  12 67796.9 1081.34   9
   5   5  12 85861.8 825.502   9
  -5   5  12 91753.6 964.575   7
   5  -5  12 68240.8 928.629   5
  -5  -5  12 79856.0 1081.52   7
   5   5  14 39863.6 464.756   8
   5   5  14 40388.6 445.329   9
   5  -5  16 9761.05 182.559   9
  -5  -5  16 5847.27 176.254   9
   0  -6  16 3461.25 130.267   7
   0  -6  16 5052.62 201.296   9
   0  -6  14 2193.57 171.910   7
   0   6  12 10801.4 249.665   9
   0  -6  12 8771.45 335.767   6
   0  -6  10 15800.8 476.961   7
   0  -6  10 15921.1 383.204   5
   0   6   8 54187.3 711.660   7
   6   0  -8 58950.2 550.320   3
  -6   0  -6 132050. 587.901   2
   0   6   6 170854. 1110.72   7
   0  -6   6 162493. 749.639   1
   0  -6   6 138461. 1042.72   7
   6   0  -6 145849. 798.461   1
   0  -6   4 238845. 754.113   1
  -6   0  -4 226421. 678.828   2
  -6   0  -2 645654. 1157.49   2
   0   6   2 708204. 1398.37   2
   0  -6   0 399166. 538.469   1
   0   6   0 385567. 954.275   2
   0  -6  -2 776097. 1489.18   2
   0   6  -2 791805. 1454.72   2
   0  -6  -4 286754. 944.835   2
   6   0   6 158132. 1061.81   5
   6   0   6 159793. 1107.68   9
  -6   0   6 179254. 975.637   7
   0  -6  -6 188873. 866.086   2
   0   6  -6 167242. 765.766   3
   6   0   8 50792.6 679.797   5
   6   0   8 44704.3 672.211   9
  -6   0  10 21351.7 487.633   7
   6   0  10 17855.6 411.107   5
   6   0  10 13692.4 345.966   7
   6   0  10 17187.5 483.085   9
   6   0  12 11402.3 296.659   5
   6   0  12 9838.27 374.184   9
  -6   0  14 3462.71 206.593   7
  -6   0  16 5365.03 160.812   7
   1  -6  15 7770.03 321.433   9
   1  -6  15 7157.18 265.004   7
  -1  -6  15 7782.17 281.312   7
   1   6  13 2969.73 127.486   9
   1  -6  13 3879.95 224.563   6
  -1   6  13 4224.50 215.593   7
   1  -6  13 2915.02 208.505   7
  -1  -6  13 2105.67 150.937   6
  -1  -6  13 2094.17 190.460   7
   1   6  11 5319.03 261.765   7
   1  -6  11 7890.56 283.862   5
  -1   6  11 10413.7 352.415   7
   1  -6  11 7214.40 335.872   7
   1   6  11 5519.36 192.015   9
   1  -6  11 7381.24 316.609   6
  -1  -6  11 4473.93 228.762   6
  -1  -6  11 4343.43 262.661   7
  -1  -6  11 4904.75 204.178   5
  -1  -6   9 789.909 108.361   7
   1   6   9 1059.38 87.5946   9
   1  -6   9 881.666 120.452   7
  -1   6   7 33713.0 526.513   7
   1  -6   7 28499.4 517.360   7
   6   1  -7 31409.1 428.710   3
  -6   1  -7 42483.3 361.626   2
  -1  -6   7 31442.4 543.350   7
   1   6   7 38462.4 420.855   9
   1  -6   5 56617.5 633.130   7
   6  -1  -5 65576.6 506.152   1
  -1   6   5 68636.2 670.309   7
  -6   1  -5 62098.8 350.846   2
  -1  -6   5 63894.7 674.299   7
  -1  -6   5 60060.9 394.357   1
  -6  -1  -5 56894.9 378.968   2
   1  -6   5 61129.3 437.667   1
  -1  -6   3 103767. 422.212   1
   1  -6   3 99153.8 449.519   1
   6   1  -3 97403.9 556.793   1
  -6  -1  -3 87526.1 392.641   2
  -6   1  -3 109481. 374.118   2
   6  -1  -3 94695.2 539.659   1
   6   1  -1 39849.5 346.799   1
  -1  -6   1 39244.1 185.327   1
   1   6  -1 43190.6 322.512   2
   6  -1   1 44664.1 279.423   2
   1  -6  -1 32638.8 140.564   1
   6   1   1 33963.6 355.536   2
  -1   6  -1 35839.6 247.834   2
   1  -6  -3 141526. 657.684   2
  -1  -6  -3 135507. 588.542   2
  -1   6  -5 61797.2 449.565   3
   6  -1   5 71830.2 690.925   9
   6  -1   5 62560.9 619.258   5
  -1  -6  -5 77637.6 500.444   2
   1   6  -5 70375.6 488.244   3
   6   1   5 62732.4 641.492   9
   1  -6  -5 64388.4 445.419   2
   6   1   5 61545.4 608.478   5
  -6  -1   5 69177.4 549.274   7
   6   1   7 28941.7 468.334   5
  -6  -1   7 34727.7 489.183   7
   6  -1   7 38670.0 573.132   5
  -6   1   7 38004.3 482.855   7
   6   1   7 27423.4 488.746   9
   6  -1   7 36889.1 597.397   9
   1   6  -7 37547.3 373.127   3
  -1   6  -7 31935.7 321.874   3
   6   1   9 517.839 77.0680   5
   6   1   9 358.358 85.5364   9
  -6   1   9 1191.94 112.321   7
  -6  -1   9 489.391 85.5923   7
   6  -1   9 1338.71 140.572   9
   6  -1   9 1258.95 128.090   5
   6   1   9 386.293 63.3111   7
   6   1  11 8577.68 261.151   5
   6   1  11 7719.16 285.453   7
  -6  -1  11 10211.2 361.237   7
   6  -1  11 5204.36 286.313   9
   6  -1  11 5974.23 259.108   5
  -6   1  11 6482.66 283.573   7
  -6   1  13 3600.43 216.177   7
   6  -1  13 3708.61 162.864   5
  -6   1  15 15608.5 339.319   7
  -6  -1  15 11225.9 314.835   7
  -6  -1  15 11161.4 264.264   9
   6  -1  15 14764.2 323.935   9
   6   1  15 12097.9 273.829   9
   2  -6  16 4782.33 174.845   9
  -2  -6  16 6801.42 205.474   7
   2   6  14 4735.63 144.216   8
   2   6  14 4908.09 138.063   9
   2  -6  14 4886.38 234.584   7
  -2  -6  12 5070.84 286.156   7
   2  -6  12 2290.94 193.743   6
   2  -6  12 4018.24 245.351   7
  -2  -6  12 5143.34 230.017   6
   2  -6  12 2577.63 173.658   5
  -2   6  12 3507.59 216.002   7
   2  -6  10 10757.2 382.604   7
  -2  -6  10 11716.6 414.964   7
   2  -6  10 11043.1 396.294   6
   2   6  10 11651.6 369.313   7
   2  -6  10 10924.6 357.016   5
   2   6   8 57682.7 781.290   7
   2  -6   8 52425.1 743.230   7
   6   2  -8 57479.6 473.542   3
  -2  -6   8 55321.2 775.916   7
  -2   6   8 59690.7 744.144   7
   2   6   8 62537.0 599.671   9
  -6   2  -6 108661. 514.686   2
  -2  -6   6 118433. 614.452   1
   2  -6   6 125554. 735.637   1
  -2  -6   6 111677. 952.703   7
  -2   6   6 129854. 953.378   7
   2  -6   6 112676. 903.956   7
   2   6   6 114657. 902.493   7
   6  -2  -6 107120. 674.910   1
   2   6   6 123358. 753.303   9
   6   2  -6 118599. 841.463   3
  -6  -2  -6 112877. 584.178   2
  -6   2  -4 72041.9 316.054   2
  -2  -6   4 80800.8 727.470   7
  -6  -2  -4 87772.4 434.465   2
   6   2  -4 91804.8 589.403   1
  -2  -6   4 85375.9 426.137   1
   2  -6   4 77697.0 429.561   1
   6   2  -4 81927.1 1068.82   3
   6  -2  -4 82013.7 517.347   1
  -6  -2  -2 157131. 547.718   2
  -2  -6   2 159654. 475.438   1
   6   2   0 71888.6 446.560   1
   6  -2   0 71133.6 232.550   2
   2  -6  -2 185238. 444.440   1
  -2   6  -2 181359. 513.712   2
   2   6  -2 179813. 775.364   2
   6   2   2 188261. 949.486   2
  -2  -6  -2 189066. 729.060   2
   6  -2   4 83204.2 704.676   6
   2  -6  -4 109593. 378.345   1
  -2  -6  -4 91581.3 503.838   2
   2   6  -4 118224. 729.506   8
   2  -6  -4 120126. 567.897   2
   6   2   4 92089.1 683.039   9
   6  -2   4 84236.1 713.298   5
   2   6  -4 96508.5 586.995   3
   6   2   4 100776. 698.882   5
   6   2   6 109300. 889.266   9
   6  -2   6 109693. 910.322   5
   2   6  -6 121723. 681.957   3
   2  -6  -6 136650. 737.919   2
  -6   2   6 118230. 784.521   7
  -2   6  -6 115351. 619.683   3
  -2  -6  -6 122790. 676.260   2
   6   2   6 110073. 815.635   5
   6  -2   6 118910. 1016.00   9
  -6  -2   6 128913. 864.568   7
   6   2   8 52657.0 607.894   5
   6  -2   8 55816.5 729.834   5
  -6   2   8 62292.6 674.330   7
   6  -2   8 60191.0 838.011   9
  -6  -2   8 61461.5 736.707   7
   2   6  -8 59243.9 473.049   3
   6  -2  10 12727.0 394.649   5
  -6   2  10 15128.0 402.543   7
   6   2  10 11212.1 335.215   7
   6  -2  10 12736.1 431.789   9
  -6  -2  10 16391.3 439.773   7
   6   2  10 12893.2 306.190   5
   6   2  12 3103.45 132.920   5
   6  -2  12 5681.17 299.559   9
  -6  -2  12 3537.48 226.993   7
   6  -2  12 6392.92 260.511   5
  -6   2  12 7012.63 297.418   7
   6   2  12 2338.44 172.708   9
  -6   2  14 5069.24 221.883   7
   6   2  14 11386.6 294.004   9
   6  -2  14 3960.14 213.012   9
  -6  -2  14 11047.6 358.375   7
   6  -2  16 10948.1 210.648   9
  -6   2  16 8658.80 174.998   7
  -6  -2  16 5597.46 176.535   7
   6   2  16 4727.54 121.068   8
   3   6  15 8065.71 154.522   8
   3  -6  15 6260.19 258.752   9
   3  -6  13 6983.58 260.027   5
   3   6  13 6762.15 206.856   8
  -3   6  13 9371.37 303.432   7
   3   6  13 7108.90 204.450   9
   3  -6  13 4990.08 249.751   7
  -3  -6  13 4478.14 262.414   7
   3  -6  11 9891.21 357.468   5
  -3  -6  11 7998.52 348.321   7
   3  -6  11 10663.6 413.188   6
   3   6  11 9855.42 267.965   9
   3  -6  11 8818.51 346.603   7
   3   6   9 22846.3 455.142   7
  -3  -6   9 26686.8 568.855   7
   3  -6   9 31328.0 641.862   6
   3  -6   9 29018.5 573.248   5
   6   3  -9 30960.9 338.843   3
  -3   6   9 35891.8 596.616   7
   3  -6   9 27640.4 547.464   7
   3   6   9 29488.1 451.397   9
  -3   6   7 125097. 968.974   7
  -3  -6   7 97973.5 931.811   7
   3  -6   7 100291. 862.127   7
   6   3  -7 111321. 707.991   3
   3   6   7 99634.5 572.161   5
   3   6   7 116088. 805.821   9
  -6   3  -5 197781. 605.133   2
   3   6   5 207217. 950.071   9
   6   3  -5 199297. 930.011   1
  -3   6   5 233319. 1141.37   7
   3  -6   5 209064. 888.243   1
  -6  -3  -5 241264. 928.927   2
   6   3  -5 202942. 1047.93   3
  -3  -6   5 203711. 775.200   1
   3   6   5 192689. 786.465   5
   6  -3  -5 194218. 858.655   1
  -6  -3  -3 239359. 773.674   2
   6  -3  -3 243293. 912.448   1
   6   3  -3 229717. 873.064   1
  -6   3  -3 233389. 446.761   2
  -3  -6   3 245905. 674.889   1
   6   3  -3 213107. 1282.40   3
   3   6   3 216183. 972.073   2
   3   6   1 79793.4 576.837   2
   6   3  -1 78755.5 468.516   1
   6   3   1 80156.6 615.526   2
  -3   6  -1 84535.4 265.685   2
   3  -6  -3 257324. 654.538   1
  -3  -6  -3 249890. 809.357   2
   6   3   3 216884. 1016.15   9
   6   3   3 235110. 1176.19   2
   3   6  -3 246398. 917.266   3
   3  -6  -3 282201. 792.771   2
   3  -6  -5 255787. 927.931   2
  -3  -6  -5 273887. 1063.52   2
   3   6  -5 219829. 954.967   3
   3  -6  -5 213470. 657.539   1
  -6  -3   5 238327. 1094.99   7
   6  -3   5 211569. 1269.92   6
  -3   6  -5 219402. 861.210   3
   6   3   5 206638. 1037.51   5
   6  -3   5 229764. 1294.52   9
   6   3   7 106859. 805.740   5
   3   6  -7 121998. 713.716   3
  -6  -3   7 128433. 983.626   7
   6  -3   7 115425. 1082.18   9
   6  -3   7 111947. 1064.76   5
  -6   3   7 120213. 874.571   7
   6   3   9 25372.0 409.538   5
   6  -3   9 25655.3 596.159   9
   6  -3   9 24217.5 532.892   5
   3   6  -9 26067.2 322.588   3
   6   3   9 25863.0 492.038   9
  -6   3  11 13766.1 403.258   7
   6  -3  11 10216.5 364.655   5
   6  -3  11 10320.2 411.085   9
   6   3  11 10737.3 244.448   5
  -6  -3  11 14914.7 456.439   7
   6   3  11 12012.5 352.338   9
  -6   3  13 7132.34 264.308   7
  -6  -3  13 8298.87 330.661   7
   6  -3  13 4910.82 267.264   9
   6   3  13 8019.49 262.764   9
   6  -3  13 5349.29 221.005   5
  -6   3  15 8448.22 226.799   7
   6   3  15 8685.63 200.275   9
   6   3  15 8790.59 216.241   8
  -6  -3  15 7979.87 276.112   7
  -4  -6  16 1442.22 97.4351   9
  -4  -6  16 1818.53 103.444   7
   4   6  14 4045.04 135.795   8
  -4  -6  14 2821.36 197.524   7
   4   6  12 2899.50 145.083   9
   4  -6  12 4056.72 263.385   6
  -4  -6  12 2226.97 141.244   6
   4  -6  12 4179.96 237.119   5
   6   4 -10 15924.7 251.869   3
  -4   6  10 16086.6 413.106   7
   4  -6  10 13408.3 468.106   6
   4  -6  10 13693.5 433.056   5
   4  -6   8 7299.51 304.530   6
   4  -6   8 7682.03 294.969   5
  -4   6   8 10217.9 293.200   7
   4   6   8 10374.0 262.735   9
   6   4  -8 9006.11 197.290   3
   4   6   8 8148.02 174.005   5
  -4   6   6 19641.3 342.888   7
  -4  -6   6 11497.9 317.844   7
   6   4  -6 16251.9 270.317   3
   6  -4  -6 12357.5 229.914   1
   4  -6   6 17855.6 399.463   6
   4   6   6 16010.7 246.318   5
   4   6   6 9708.11 227.229   9
  -6  -4  -4 1263.63 59.1295   2
   6  -4  -4 8566.55 137.747   2
   6   4  -4 2396.80 107.116   3
  -6   4  -4 6216.87 76.6319   2
   6   4  -4 7302.22 175.769   8
   4   6   4 5491.62 156.451   8
   6   4  -4 4572.22 136.601   1
   4   6   4 6321.63 149.216   9
   4   6   4 10340.6 255.640   2
   4   6   4 5554.92 137.479   5
  -4  -6   4 4617.80 110.515   1
  -4  -6   4 5864.44 200.063   7
   6  -4  -4 4354.46 124.445   1
   6   4  -2 11676.6 199.944   4
   4   6   2 7068.02 49.4041   1
   4   6   2 8992.41 172.495   8
   6   4  -2 11117.7 187.497   1
   6  -4  -2 9374.52 173.065   1
   6   4  -2 10061.4 213.599   3
   4   6   2 9027.28 211.616   2
   4   6   2 8368.97 162.737   5
   4   6   0 9880.61 208.580   2
   4   6   0 9887.79 110.112   1
   4   6  -2 8839.01 171.914   3
   4   6  -2 8753.31 184.133   2
  -4   6  -2 9528.64 58.8005   2
   6   4   2 10302.7 188.694   8
   4   6  -2 11253.8 168.355   1
   4  -6  -2 11105.2 160.294   1
   4   6  -2 10341.9 191.723   4
   6   4   2 13804.5 273.454   2
  -4   6  -2 12250.7 193.187   3
   6   4   4 3888.49 165.111   2
   4   6  -4 5960.02 142.825   1
   4   6  -4 7070.20 184.114   8
  -4  -6  -4 5992.97 129.477   2
  -6  -4   4 2574.54 115.671   7
   6   4   4 2033.84 107.822   9
  -4   6  -4 2100.35 85.7012   3
   4  -6  -4 2004.38 76.9331   2
   6  -4   4 6184.92 199.223   5
   4   6  -4 5580.33 146.183   3
   6  -4   4 6317.61 210.363   6
   6   4   4 2208.26 101.443   5
   4  -6  -4 4195.15 102.421   1
  -4   6  -6 17891.4 240.632   3
   6   4   6 15450.5 284.566   5
   4   6  -6 10909.0 219.965   3
   6  -4   6 11036.2 311.160   9
   6   4   6 16548.4 327.916   9
  -6  -4   6 18360.3 355.826   7
  -6   4   6 11244.3 252.629   7
   6  -4   6 10908.3 318.883   6
   6  -4   8 8718.68 334.072   9
  -6   4   8 11033.4 298.294   7
  -6  -4   8 10300.6 319.841   7
   6   4   8 7327.97 205.763   5
   6  -4   8 11450.7 379.159   5
   6  -4   8 9250.16 341.524   6
   6   4   8 7749.74 258.584   9
   4   6  -8 10453.1 216.740   3
  -6   4  10 9694.62 311.995   7
   6  -4  10 8367.16 371.227   9
   6   4  10 15305.2 381.839   9
   6   4  10 12605.3 269.956   5
  -6  -4  10 16317.5 455.357   7
   6  -4  10 7639.82 325.264   5
  -6  -4  12 5114.02 267.241   7
   6   4  12 5839.79 232.969   9
  -6   4  12 2824.76 178.115   7
   6  -4  12 2563.84 195.613   5
   6  -4  12 1794.77 188.445   9
   6  -4  14 3280.02 146.349   5
   6  -4  14 2898.95 186.304   9
  -6  -4  14 8046.91 302.519   7
   6   4  14 9048.63 221.606   9
  -6   4  14 4332.95 182.715   7
   6   4  14 9683.35 248.728   8
  -6  -4  16 667.715 59.5353   7
   6   4  16 519.594 39.3874   8
   5   6  15 6487.44 136.922   8
   5  -6  15 5697.20 184.328   9
  -5   6  13 12785.7 308.334   7
   5   6  13 12643.0 274.284   8
   5   6  11 7249.82 237.780   9
   5  -6  11 7339.12 351.071   6
   5  -6  11 6585.80 343.615   9
   5  -6  11 7375.45 339.539   5
   5   6   9 29119.4 473.495   9
   5  -6   9 28207.4 623.314   5
  -5  -6   9 29094.4 611.452   7
   5  -6   9 29427.7 664.679   6
   5   6   9 27070.8 347.257   5
  -5   6   9 31819.9 527.378   7
   6   5  -9 31599.7 380.293   3
  -5   6   7 120480. 886.334   7
   5  -6   7 119950. 1109.08   5
   6   5  -7 117365. 748.734   3
   5   6   7 116046. 839.806   9
  -5  -6   7 120600. 1062.99   7
   5  -6   7 115146. 1109.02   6
   6  -5  -5 273999. 1057.13   1
   5   6   5 263975. 1213.10   8
  -5   6   5 310219. 1218.86   7
   5   6   5 244903. 1065.44   9
   6   5  -5 270879. 1143.39   3
  -5  -6   5 286115. 1484.38   7
   5   6   5 262537. 1085.35   5
   5  -6   5 296272. 1570.17   6
   6  -5  -3 202234. 835.647   1
  -6  -5  -3 197164. 752.945   2
   6   5  -3 206386. 862.208   1
   5  -6   3 215478. 1150.75   6
   6   5  -3 222912. 975.001   8
   5   6   3 197442. 891.648   5
   6   5  -1 83776.0 625.734   2
   6   5  -1 80425.5 541.842   3
   6   5  -1 85833.9 466.482   1
   6   5  -1 86613.7 540.610   8
   6   5  -1 91367.2 561.288   5
   5   6   1 91632.5 346.881   1
   5   6  -1 89271.1 554.652   8
   5   6  -1 91010.0 434.482   1
   5   6  -1 84712.4 529.244   3
   6   5   1 87277.9 415.433   1
   6   5   1 84031.6 675.943   2
   5   6  -1 88945.1 532.314   4
   6   5   1 79969.5 512.844   8
   6   5   1 82638.4 543.268   5
   6   5   3 190417. 921.218   8
   6   5   3 186165. 865.692   5
   6  -5   3 218837. 1137.56   5
   5  -6  -3 233396. 588.590   2
   5  -6  -3 216373. 802.934   1
  -5   6  -3 215948. 864.089   3
  -6  -5   3 247700. 1145.39   7
   5   6  -3 210383. 956.924   8
   5   6  -3 209937. 816.299   1
   6  -5   3 225871. 1222.58   6
   6   5   3 202750. 1181.58   2
   5   6  -3 231761. 1005.18   4
   5   6  -5 277488. 1116.17   3
  -5   6  -5 290337. 994.907   3
   6   5   5 279373. 1257.07   9
  -6  -5   5 320545. 1440.86   7
   6  -5   5 277646. 1572.45   6
   5   6  -5 273359. 1093.51   1
   5   6  -5 337369. 1830.86   8
   6  -5   5 265379. 1495.76   5
   6   5   5 264406. 1131.48   5
   6  -5   7 102311. 1023.59   5
  -6   5   7 110600. 819.056   7
   5   6  -7 111890. 726.575   3
   6  -5   7 103847. 1034.67   9
   6  -5   7 102350. 1100.07   6
   6   5   7 112648. 900.145   9
   6   5   7 106965. 751.798   5
   6  -5   9 28903.1 642.093   5
   5   6  -9 29336.1 364.628   3
   6   5   9 26508.9 367.381   5
   6  -5   9 28668.3 660.222   6
   6  -5   9 26193.9 614.363   9
   6   5   9 31237.4 514.247   9
  -6   5   9 30313.9 499.433   7
   6  -5  11 6552.55 327.858   9
  -6  -5  11 9480.40 364.555   7
  -6   5  11 8056.04 272.980   7
   6  -5  11 7017.12 331.738   5
   6   5  11 10461.3 301.438   9
   6   5  11 8282.47 198.533   5
   6   5  13 15629.1 300.524   9
   6  -5  13 9082.08 341.273   9
   6   5  13 16273.7 336.657   8
  -6  -5  13 13323.5 424.130   7
  -6   5  13 13550.1 329.541   7
   6  -5  13 10462.9 336.342   5
  -6  -5  15 7251.28 242.172   7
   6   5  15 8996.41 177.077   8
   6   6   0 75341.1 517.331   4
   6   6   0 73741.8 496.667   8
   6   6   0 74127.7 632.715   2
   6   6  -2 90775.7 690.716   2
   6   6   2 75802.6 464.990   3
   6  -6  -2 85644.0 526.226   1
   6   6  -2 82958.3 560.266   4
   6  -6   2 93924.9 725.447   5
   6   6  -2 91794.4 517.797   1
   6   6   2 81418.3 552.123   8
   6   6   2 80518.3 690.965   2
   6  -6   2 102359. 783.697   6
   6   6  -2 80843.4 551.310   3
   6   6  -2 89579.7 571.527   8
   6   6   2 79105.9 545.892   5
   6   6  -4 185051. 918.621   3
   6  -6  -4 215069. 892.234   1
   6  -6   4 215212. 1310.73   6
  -6  -6   4 233767. 1223.48   7
   6   6  -4 225026. 1044.69   8
   6   6  -4 212830. 925.161   1
   6   6   4 193843. 934.286   5
   6  -6   4 228856. 1334.06   5
   6  -6   6 123016. 1144.00   5
  -6   6   6 136748. 823.851   7
   6   6  -6 137587. 831.264   3
   6   6   6 133493. 857.709   9
   6  -6   6 136317. 1227.85   6
   6   6   6 119960. 871.463   8
  -6  -6   6 149317. 1103.71   7
   6   6   6 127863. 782.963   5
  -6  -6   8 33425.4 610.997   7
  -6   6   8 31315.7 475.166   7
   6  -6   8 27841.1 589.811   9
   6  -6   8 31141.8 634.834   5
   6   6  -8 30742.6 394.044   3
   6   6   8 29242.3 392.636   5
  -6  -6  10 3237.53 224.947   7
   6   6 -10 3014.27 118.309   3
   6  -6  10 2748.28 222.665   6
   6   6  10 3202.91 168.672   9
   6   6  10 3386.92 175.841   8
   6  -6  10 2613.10 214.586   5
   6  -6  10 4000.87 259.889   9
  -6   6  10 3264.85 169.011   7
   6   6  10 2647.86 109.339   5
   6  -6  12 518.134 110.064   5
   6   6  12 278.321 71.0345   8
  -6  -6  12 365.283 105.520   7
   6  -6  12 478.273 109.887   9
  -6   6  12 515.896 75.4208   7
   6  -6  14 8991.69 238.918   5
   6   6  14 9520.45 194.905   8
  -6  -6  14 7283.12 272.611   7
   6  -6  14 7932.85 245.049   9
   0  -7  15 3484.30 212.700   9
   0  -7  15 2670.35 159.103   7
   0  -7  13 19133.7 476.825   6
   0  -7  13 15203.3 463.755   7
   0  -7  11 19313.6 447.468   5
   0  -7  11 19812.6 518.953   6
   0   7   9 18803.7 462.683   7
   7   0  -9 17652.1 265.273   3
   0  -7   7 29249.1 550.741   7
   7   0  -7 33572.8 667.907   3
   0  -7   5 163097. 688.769   1
  -7   0  -5 163203. 651.549   2
  -7   0  -3 154853. 525.558   2
   0  -7   3 167170. 589.107   1
   0   7   1 243727. 819.485   2
   0  -7   1 252584. 544.883   1
   7   0   1 280647. 1041.05   2
   0   7  -1 289692. 927.117   2
   0   7  -3 173370. 778.341   3
   0  -7  -3 174843. 686.400   2
   0   7  -5 174855. 831.205   3
  -7   0   5 178528. 890.180   7
   7   0   7 31854.9 545.195   5
   7   0   7 30841.9 538.967   9
  -7   0   7 33480.3 459.100   7
   0   7  -7 33219.9 362.255   3
   7   0   9 18453.0 441.878   5
   7   0   9 18590.6 471.754   9
   7   0  11 25873.0 585.432   9
   7   0  11 24694.1 485.848   5
   7   0  13 27582.5 417.673   5
   7   0  13 24980.3 502.919   9
  -7   0  15 4598.20 175.736   7
   7   0  15 4556.59 163.736   9
   1  -7  16 2273.17 119.764   9
  -1  -7  16 1016.96 88.5892   9
   1  -7  14 6434.24 279.522   7
  -1  -7  14 6538.17 279.558   7
  -1  -7  12 6007.06 318.181   7
   1  -7  12 6492.35 312.346   6
  -1  -7  12 6213.96 273.786   6
   1  -7  12 5749.44 301.859   7
   1  -7  12 6183.34 256.650   5
   1   7  10 13840.0 273.252   9
   1  -7  10 14125.2 404.955   5
   1  -7  10 12798.3 437.051   7
   1  -7  10 13286.3 431.440   6
   1  -7   8 7809.15 303.295   7
  -1  -7   8 4589.43 242.551   7
   7  -1  -8 6561.11 278.057   3
   7   1  -8 8957.82 208.599   3
   1   7   8 5651.44 165.798   9
   1   7   6 8754.92 196.522   8
  -1   7   6 3996.98 182.735   7
  -1  -7   6 5789.25 142.880   1
  -7  -1  -6 2332.19 82.9489   2
   1  -7   6 5278.14 214.567   7
  -1  -7   6 6349.55 236.765   7
   7  -1  -6 5220.00 316.041   3
   7   1  -6 4119.49 261.459   3
  -7  -1  -4 13825.5 163.999   2
  -1  -7   4 16085.1 194.451   1
   1   7   4 19767.5 248.228   8
   7  -1  -4 14576.8 234.096   1
   1  -7   4 14568.6 198.300   1
   1  -7   4 12223.7 297.566   7
  -1  -7   4 14571.3 332.092   7
  -7   1  -4 17470.6 170.124   2
   7   1  -4 15056.7 251.147   1
   7   1  -2 8202.37 172.290   1
  -1   7   2 5591.36 113.001   2
   1  -7   2 9126.33 131.958   1
   7   1  -2 5074.69 138.851   2
   1   7   2 15034.7 248.509   2
   7  -1  -2 16211.3 218.619   2
  -1  -7   2 9213.92 109.385   1
   1   7   0 7687.49 155.494   2
  -1   7   0 4429.98 100.424   2
   7   1   0 4153.12 128.234   2
   7  -1   0 6871.02 121.742   2
  -1   7  -2 4862.39 101.249   2
   7   1   2 5419.12 163.375   2
   7  -1   4 16113.7 314.150   5
  -1  -7  -4 20186.9 249.439   2
   7  -1   4 18500.6 317.058   9
   1  -7  -4 13903.0 204.304   2
   7   1   4 12100.8 260.359   9
   1   7  -4 17598.3 260.990   3
  -1   7  -4 13694.0 223.060   3
   7  -1   6 9740.17 288.205   9
   1   7  -6 7337.79 177.531   3
   7   1   6 2320.49 132.970   9
   1  -7  -6 2681.93 107.288   2
  -7   1   6 6837.14 185.915   7
   7   1   6 2172.53 134.691   5
   7  -1   6 7244.76 243.651   5
  -1   7  -6 3393.46 113.277   3
  -7  -1   6 3615.50 144.733   7
   7   1   8 11254.8 343.263   9
   1   7  -8 6283.74 162.279   3
  -7  -1   8 11070.6 302.974   7
   7  -1   8 4276.11 229.678   9
   7   1   8 11911.2 320.593   5
   7  -1   8 3844.17 208.907   5
  -1   7  -8 10425.1 198.184   3
  -7   1   8 5251.34 201.248   7
  -7   1  10 14051.7 369.250   7
   7  -1  10 12960.6 420.534   9
   7   1  10 16887.8 451.355   9
  -7  -1  10 20508.3 474.646   7
   7  -1  10 13361.9 397.443   5
   7   1  10 17154.0 392.194   5
   7   1  12 8507.68 248.867   5
  -7  -1  12 9047.39 325.028   7
   7  -1  12 8955.60 289.544   5
   7  -1  12 8110.89 333.630   9
  -7   1  12 9277.07 320.625   7
  -7   1  14 11407.4 309.271   7
   7  -1  14 10515.0 302.967   9
   7  -1  16 377.301 44.3677   8
  -7  -1  16 2480.65 93.0306   7
  -2  -7  15 1254.12 115.648   7
   2  -7  15 2008.27 149.775   9
   2  -7  13 10438.9 315.864   5
  -2  -7  13 15569.9 388.377   6
   2  -7  13 7562.03 310.192   7
  -2  -7  13 13066.0 442.115   7
   2  -7  13 10239.6 367.608   6
   2   7  11 20860.9 361.000   8
  -2  -7  11 12460.2 442.513   7
  -2   7  11 17647.9 446.546   7
   2  -7  11 10279.0 361.872   5
   2  -7  11 9195.33 366.939   7
   2  -7  11 11772.8 445.277   6
  -2  -7  11 13811.3 413.414   6
   2   7  11 20767.3 343.056   9
   7   2  -9 5757.01 155.382   3
  -2   7   9 7285.67 289.769   7
   2  -7   9 5204.15 251.865   5
   2  -7   9 4697.51 249.710   7
  -2  -7   9 2659.25 192.916   7
   2  -7   9 5600.42 282.151   6
   2   7   9 3187.19 137.359   9
   2  -7   7 22539.1 464.770   7
  -2   7   7 32499.9 541.763   7
   2   7   7 18780.8 296.155   9
  -2  -7   7 14664.9 386.065   7
   7  -2  -7 8759.83 397.565   3
   7   2  -7 23696.3 350.138   3
  -2  -7   5 36768.8 323.712   1
   2   7   5 32922.6 369.534   8
   7  -2  -5 30008.8 349.636   1
  -7  -2  -5 37887.5 312.898   2
  -2   7   5 42685.2 496.568   7
   7   2  -5 38644.3 682.810   3
  -2  -7   5 29105.9 494.647   7
   2  -7   5 37546.3 371.504   1
   2   7   5 33730.7 338.707   9
   7   2  -5 36524.5 418.238   1
   2   7   5 28830.1 278.469   5
   2  -7   5 33577.8 496.954   7
   7  -2  -3 150194. 767.218   1
   2  -7   3 160952. 628.403   1
  -7   2  -3 147486. 414.221   2
   7   2  -3 154802. 768.137   1
  -7  -2  -3 146979. 578.735   2
   2   7   3 156743. 707.489   8
  -2  -7   3 149364. 512.757   1
   2   7   3 152909. 844.613   2
   7   2  -1 72570.0 550.892   2
   7  -2  -1 65399.3 308.747   2
   2   7   1 64109.4 518.391   2
   7   2  -1 64753.6 449.852   1
  -2   7   1 70386.6 335.104   2
  -2   7  -1 64284.9 310.895   2
   7   2   1 64972.3 565.803   2
   2   7  -3 155685. 753.576   3
   7   2   3 151724. 950.160   2
   7   2   3 158692. 871.038   5
   2   7  -3 162001. 783.887   2
   2  -7  -3 146150. 315.104   1
   2  -7  -3 182667. 693.214   2
   2   7  -3 175288. 825.201   8
   7  -2   3 155676. 964.917   5
   7   2   3 146873. 838.957   9
  -2   7  -3 166775. 574.031   2
  -2   7  -3 159265. 746.681   3
  -2  -7  -3 172409. 730.232   2
   7   2   5 36597.2 468.357   5
   2  -7  -5 49436.5 414.847   2
   2   7  -5 32431.6 366.134   3
  -2  -7  -5 30422.2 319.011   2
   7  -2   5 26844.1 452.992   5
  -7  -2   5 42128.0 445.954   7
   7   2   5 38155.8 486.226   9
  -2   7  -5 36797.9 366.245   3
   7  -2   5 33008.8 482.912   9
   7   2   7 23454.4 408.618   5
   2   7  -7 18388.5 281.878   3
   7  -2   7 16074.7 405.785   9
  -7  -2   7 27360.7 443.060   7
  -7   2   7 16364.5 309.844   7
   7   2   7 22207.2 425.002   9
  -2   7  -7 23531.8 291.360   3
   7  -2   7 14901.5 391.916   5
   7  -2   9 2309.57 188.880   9
  -7   2   9 2896.39 162.903   7
  -7  -2   9 5822.91 244.283   7
   7   2   9 5815.90 223.633   5
   7  -2   9 2199.07 178.521   5
   2   7  -9 3499.20 126.243   3
   7  -2  11 19549.4 492.705   5
  -7   2  11 20456.0 461.290   7
  -7  -2  11 17678.2 476.673   7
   7  -2  11 18047.4 511.305   9
  -7   2  13 24206.0 455.731   7
   7  -2  13 22085.8 420.611   5
  -7  -2  15 1975.08 106.183   9
  -7   2  15 2606.86 119.724   7
  -7  -2  15 2151.54 132.528   7
   7   2  15 2364.25 105.134   9
   3  -7  14 8371.99 338.450   9
  -3  -7  14 7975.55 315.405   7
   3   7  12 45970.2 479.757   9
   3   7  12 47433.3 526.479   8
   3  -7  12 27423.9 580.010   7
  -3  -7  12 28975.8 665.484   7
   3  -7  12 39231.0 696.912   5
   3  -7  12 36039.3 783.866   6
  -3  -7  12 28832.7 538.726   6
   3  -7  10 12220.8 437.437   6
   3  -7  10 11535.7 396.856   5
   7   3 -10 12693.8 223.641   3
   3  -7  10 10614.4 373.853   7
   3   7  10 10404.6 255.940   9
   7  -3  -8 3922.42 265.250   3
  -3   7   8 4982.54 224.928   7
   3  -7   8 4444.69 218.704   7
   7   3  -8 5261.20 158.339   3
   3  -7   8 3826.98 227.261   6
  -3  -7   8 5624.92 252.716   7
   3   7   6 30258.9 375.480   9
   3   7   6 30144.5 404.432   8
   3  -7   6 19635.5 379.985   7
  -3   7   6 25695.2 424.509   7
  -3  -7   6 23236.2 466.539   7
   7   3  -6 23289.9 353.801   3
   3   7   6 20554.9 242.366   5
  -3  -7   4 119779. 532.823   1
   7   3  -4 150629. 807.033   8
   3  -7   4 126410. 653.794   1
   7   3  -4 138894. 850.807   4
   7  -3  -4 111372. 661.202   1
   3   7   4 119026. 684.654   8
   7   3  -4 112130. 673.311   1
   7   3  -4 110559. 883.655   3
  -7  -3  -4 114451. 576.921   2
   3   7   4 111642. 581.025   5
   3   7   4 121062. 836.393   2
   7  -3  -2 39826.4 172.266   2
   7   3  -2 45841.5 445.407   2
   7  -3  -2 46379.3 199.323   2
   7   3  -2 45925.3 388.843   1
  -3   7   2 45309.3 386.040   3
   3   7   2 47718.2 497.221   2
   7  -3  -2 45155.1 409.366   1
   7   3  -2 40349.5 696.450   3
   3   7   2 47567.4 399.285   8
   7   3  -2 47724.0 414.670   4
   7   3   0 63726.9 429.645   1
   3   7   0 61449.2 500.792   2
   7   3   0 61790.7 550.546   2
   3   7   0 63790.1 455.335   8
   3   7  -2 57798.3 482.260   8
   7   3   2 43664.7 412.927   8
   3   7  -2 55371.3 455.788   3
   3   7  -2 52635.7 442.357   2
   3   7  -2 51085.7 427.587   4
  -3   7  -2 46585.7 241.760   2
   7   3   2 41287.0 409.045   5
  -3   7  -2 46881.6 409.018   3
   7   3   2 49639.0 581.934   2
   7  -3   2 53699.0 533.059   5
   3  -7  -2 47493.8 260.019   1
  -7  -3   4 131801. 747.029   7
   3  -7  -4 148894. 662.127   2
   3   7  -4 140219. 802.087   8
   7  -3   4 126238. 957.829   5
  -3  -7  -4 123559. 618.094   2
   7   3   4 114712. 764.805   5
   7   3   4 124524. 852.036   9
  -3   7  -4 128024. 688.513   3
   3   7  -4 134694. 767.589   3
   7   3   6 19762.8 344.459   5
   7  -3   6 26357.6 474.235   9
  -7  -3   6 24310.1 394.983   7
  -3   7  -6 20987.4 276.670   3
   3   7  -6 26824.1 353.713   3
   3   7  -8 6578.49 179.534   3
  -7   3   8 6593.22 216.739   7
   7  -3   8 6354.67 272.184   5
   7  -3   8 6498.84 276.812   9
   7  -3  10 10091.1 390.459   9
  -7   3  10 14018.5 373.917   7
  -7  -3  10 17378.3 456.524   7
   7   3  10 14280.7 313.122   5
   7  -3  10 9736.69 371.080   5
   7   3  10 13161.4 368.734   9
   7  -3  12 38782.5 738.168   9
   7  -3  12 38445.3 681.331   5
  -7  -3  12 58610.1 863.674   7
   7   3  12 53040.9 703.291   9
  -7   3  12 43570.5 623.246   7
   7   3  12 45621.7 483.687   5
   7  -3  14 14238.8 281.469   5
  -7   3  14 13590.6 291.754   7
  -7  -3  14 13803.8 377.549   7
   7  -3  14 12081.0 318.904   9
   7   3  14 15540.2 292.105   9
   7   3  16 8124.37 136.039   8
   4   7  15 928.586 47.3184   8
  -4  -7  15 844.575 95.5123   7
   4  -7  13 1643.34 171.981   9
   4   7  13 1565.12 100.531   8
   4  -7  11 1706.62 179.200   5
   4   7  11 1507.77 117.299   8
   4   7  11 1255.28 93.5639   9
  -4  -7  11 870.592 136.710   7
   4  -7  11 1472.80 177.818   6
  -4   7  11 2094.14 154.409   7
   4  -7   9 1283.25 154.440   5
  -4   7   9 1506.89 135.115   7
   7   4  -9 1679.66 94.0981   3
   4  -7   9 1500.63 165.481   6
   4   7   7 14034.7 296.995   8
   4   7   7 14513.5 290.140   9
  -4   7   7 6443.69 227.043   7
   4   7   7 7671.98 158.813   5
   7   4  -7 7752.39 202.401   3
   4  -7   7 6001.57 265.486   6
  -4  -7   5 4211.46 114.420   1
   4   7   5 3992.94 117.044   5
   7   4  -3 9666.21 195.999   4
   7   4  -3 8671.40 218.144   2
   7  -4  -3 10525.3 199.051   1
   4   7   3 11035.2 204.429   8
   7   4  -3 9560.94 198.265   8
   4   7   3 8477.35 169.039   5
   7   4  -3 10236.7 198.870   1
   7   4  -1 14567.3 218.720   8
   7   4  -1 14487.3 208.789   1
   4   7   1 13074.5 206.009   3
   7   4  -1 15092.8 230.113   4
   4   7   1 16121.4 268.047   5
   7   4  -1 13119.8 263.150   3
   4   7   1 13116.3 270.385   2
   4   7   1 13256.7 198.220   4
  -4   7   1 15347.0 232.312   3
   4   7   1 13845.9 217.901   8
   7   4  -1 14058.0 210.695   5
   7   4   1 13830.2 218.609   8
   4   7  -1 13009.3 218.784   3
   7   4   1 15048.4 204.310   1
   4   7  -1 15362.0 288.789   2
  -4   7  -1 13764.8 217.671   3
   7   4   1 13215.8 219.604   5
   7   4   1 16107.7 317.756   2
   4   7  -1 14063.3 226.077   8
   4   7  -1 13742.4 206.251   4
   7  -4   3 12166.1 273.020   5
   7   4   3 6997.84 168.118   8
   4  -7  -3 11376.1 157.070   1
   4   7  -3 12351.7 265.017   4
   4   7  -3 13647.7 246.446   2
   7  -4   3 13254.9 297.723   6
  -7  -4   3 10403.9 218.559   7
  -4   7  -3 8710.91 179.455   3
   7   4   3 8712.73 269.839   2
   7  -4   5 3337.73 174.353   5
   4   7  -5 3783.46 137.001   3
  -7  -4   5 5766.28 183.166   7
   7  -4   5 3672.80 164.205   9
  -4   7  -5 6119.56 149.293   3
   7  -4   5 3549.69 184.467   6
   4   7  -5 5408.29 244.560   8
  -4   7  -7 5427.38 139.723   3
   4   7  -7 12607.1 250.570   3
  -7   4   7 14208.4 300.786   7
   7  -4   7 12456.6 376.084   6
   7   4   7 6138.49 195.365   5
   7  -4   7 13126.7 372.106   9
   7   4   7 5309.13 202.281   9
  -7  -4   7 7510.86 250.618   7
  -7  -4   9 1342.02 139.979   7
   7   4   9 1173.41 119.014   9
   7  -4   9 3121.56 214.658   9
  -7   4   9 3275.96 167.303   7
   7  -4   9 3338.55 223.956   5
   7   4   9 1581.78 107.475   5
   4   7  -9 3055.13 128.143   3
   7  -4  11 1061.71 143.732   5
   7   4  11 2112.76 151.342   9
  -7   4  11 1131.59 111.393   7
  -7  -4  11 1742.20 168.079   7
   7  -4  11 1477.30 160.357   9
   7   4  11 1921.78 108.783   5
   7  -4  13 1258.69 121.730   5
   7   4  13 2261.48 126.486   9
  -7   4  13 1285.19 103.417   7
  -7  -4  13 2241.66 178.960   7
   7  -4  13 1147.92 127.071   9
   7   4  13 1879.19 132.514   8
  -7  -4  15 2713.34 143.717   7
   7   4  15 2030.75 89.1364   8
   5  -7  14 7935.15 266.243   9
   5  -7  14 7868.24 229.703   5
   5  -7  12 22562.0 557.063   5
   5  -7  12 21995.2 571.824   9
   7   5 -10 7382.62 185.580   3
   5   7  10 6859.41 227.351   8
  -5   7  10 7899.08 265.715   7
   5   7  10 7441.25 223.637   9
   5  -7  10 6521.88 340.626   6
   5  -7  10 6308.85 318.766   5
   5  -7   8 8221.42 340.906   5
   7   5  -8 7679.43 200.730   3
   5   7   8 7915.76 243.915   8
  -5  -7   8 6678.22 277.515   7
   5   7   8 7089.80 214.626   9
   5   7   8 6195.82 154.982   5
  -5   7   8 8548.43 260.791   7
  -5  -7   6 42932.9 622.943   7
  -5   7   6 48206.8 505.143   7
   5   7   6 41944.7 465.287   8
   7   5  -6 47846.3 492.805   3
   5   7   6 40050.5 402.117   5
   7   5  -4 71274.6 580.930   8
   7  -5  -4 58234.0 480.378   1
   7   5  -4 55985.8 598.034   4
   7   5  -4 60481.3 516.350   1
   7   5  -4 54924.7 514.386   3
   5   7   4 60569.4 512.435   8
  -5  -7   4 63133.7 677.980   7
   5  -7   4 65920.5 725.440   6
   5   7   4 55895.0 450.060   5
   7   5  -2 82469.4 552.403   8
   5   7   2 78198.0 490.901   3
   5   7   2 80548.0 704.581   2
   5   7   2 76470.3 532.424   8
   7   5  -2 86411.7 690.741   2
   7   5  -2 81692.9 557.338   4
   7   5  -2 72829.3 563.777   3
   7  -5  -2 82018.6 546.864   1
   5  -7   2 90046.3 715.985   6
   5   7   2 74898.9 534.875   5
   7   5  -2 84909.9 540.177   1
   5   7   0 29266.3 310.581   4
   7   5   0 31313.4 287.847   1
   5   7   0 26527.7 301.588   3
   7   5   0 28420.9 318.785   3
   5   7   0 27359.5 383.792   2
   7   5   0 29566.7 313.120   8
   7   5   0 28323.8 319.121   5
   5   7  -2 80141.8 559.771   8
   7  -5   2 87166.2 711.736   5
   5   7  -2 93963.7 696.114   2
   5   7  -2 83499.4 574.387   3
   5   7  -2 86195.9 568.602   4
   7   5   2 72817.2 474.740   3
   7   5   2 70442.1 544.318   8
  -5   7  -2 81867.0 547.562   3
   7   5   2 85977.4 450.788   1
   7  -5   2 95989.9 748.627   6
   7   5   2 80633.1 741.918   2
   5  -7  -2 77557.2 455.341   1
   5   7  -2 82838.8 432.879   1
   7   5   4 54470.5 495.882   8
   5   7  -4 72319.3 597.821   8
  -7  -5   4 67161.3 619.128   7
  -5   7  -4 61767.1 485.160   3
   7  -5   4 68823.3 769.888   6
   5   7  -4 58329.5 507.212   3
   7  -5   4 61711.0 686.800   5
   7   5   4 60571.7 539.699   5
   7  -5   6 37640.7 545.535   9
   7   5   6 43945.0 530.814   8
   7  -5   6 36125.5 593.871   5
   5   7  -6 39529.8 452.453   3
  -7  -5   6 51590.4 620.471   7
  -5   7  -6 44758.9 401.235   3
   7  -5   6 39677.2 675.079   6
   7   5   6 43521.9 487.056   5
   7   5   6 42384.4 500.479   9
   7  -5   8 5434.74 259.892   9
  -7  -5   8 7289.09 276.753   7
   5   7  -8 5552.24 174.076   3
   7   5   8 6663.62 239.616   9
  -7   5   8 5679.52 195.488   7
   7   5   8 7988.45 221.261   5
   7  -5   8 8953.52 348.735   5
   5   7 -10 8836.09 203.174   3
  -7   5  10 7053.26 237.355   7
   7  -5  10 6396.69 316.195   5
   7   5  10 9608.13 302.825   9
  -7  -5  10 9093.01 345.192   7
   7   5  10 8098.88 223.277   5
   7  -5  10 6221.18 304.598   9
   7  -5  12 27236.2 595.224   9
   7   5  12 34574.4 513.597   8
  -7   5  12 35494.1 521.724   7
   7  -5  12 29423.3 635.615   5
  -7  -5  12 32857.8 640.287   7
   7   5  12 34856.1 496.042   9
   7  -5  14 14643.0 297.312   5
   7   5  14 11763.0 231.363   8
  -7  -5  14 10077.4 302.819   7
   7  -5  14 13595.5 307.580   9
   6   7  15 11264.7 148.748   8
   6   7  13 2072.73 104.551   8
  -6  -7  13 1599.85 151.229   7
   6  -7  13 4120.15 207.324   9
   6  -7  13 4722.20 236.072   5
   6  -7  11 6085.56 319.317   5
   6   7  11 6156.84 202.059   8
  -6  -7  11 5893.86 296.093   7
   6  -7  11 6547.03 309.452   9
   6   7   9 14598.1 312.069   8
   6  -7   9 13499.2 431.856   9
  -6   7   9 15190.8 322.812   7
   7   6  -9 15196.4 281.477   3
  -6  -7   9 14520.7 434.994   7
   6  -7   9 13699.9 461.799   5
   6   7   9 13172.0 237.098   5
  -6  -7   7 12691.5 361.262   7
  -6   7   7 6429.81 190.800   7
   7   6  -7 7668.74 204.531   3
   6  -7   7 6997.10 320.889   6
   6   7   7 9102.35 207.536   5
   6   7   7 13007.7 280.175   8
   6  -7   5 39874.4 633.240   5
   7   6  -5 50101.7 714.528   8
   6   7   5 40596.2 419.677   5
  -6  -7   5 50526.0 629.463   7
   6  -7   5 36695.2 605.560   6
   6   7   5 43936.5 458.926   8
   7   6  -5 37973.1 434.484   3
   7  -6  -3 93327.4 592.683   1
   6   7   3 92357.1 597.852   5
   7   6  -3 91590.3 628.597   8
   6   7   1 26658.6 301.668   4
   6   7   1 26003.3 291.762   3
   7   6  -1 26754.5 273.995   1
   6   7  -1 28985.1 333.718   3
   7   6   1 21522.3 270.031   3
   6   7  -1 27844.9 315.211   4
   6   7  -1 27169.0 323.492   8
   7   6   1 26266.9 330.030   4
   7   6   1 23137.9 299.082   8
   7   6   1 23940.7 299.074   5
   7  -6   1 31481.4 413.123   5
   7   6   3 81782.7 586.400   8
   7  -6   3 108429. 911.544   5
   6   7  -3 92474.2 641.765   3
   6   7  -3 101134. 701.589   4
   6   7  -3 102557. 684.485   8
  -7  -6   3 98066.6 733.947   7
   7  -6   3 108717. 917.062   6
   7   6   3 92398.6 638.555   5
   7  -6   5 50609.6 703.208   5
   7   6   5 32568.1 424.916   8
   6   7  -5 42802.1 470.211   3
  -7  -6   5 39953.1 521.331   7
   7  -6   5 49044.0 721.075   6
   7   6   5 43545.0 480.683   5
   7  -6   7 11003.5 321.217   9
  -7  -6   7 7553.73 273.951   7
   6   7  -7 12580.6 263.548   3
   7  -6   7 12709.6 423.116   6
   7   6   7 8545.52 226.316   5
   6   7  -9 14448.2 276.146   3
   7   6   9 14437.7 347.031   8
  -7   6   9 13941.0 310.926   7
   7  -6   9 14146.1 466.810   5
   7   6   9 15279.1 326.453   9
   7   6   9 14616.7 281.489   5
   7  -6  11 6726.34 300.718   9
  -7   6  11 6879.71 217.987   7
   7   6  11 8818.73 256.073   8
   7  -6  11 5449.82 294.248   5
   7   6  11 6839.59 166.115   5
  -7  -6  11 8150.20 330.555   7
   7   6  13 4694.20 158.768   8
   7  -6  13 1639.02 123.727   9
  -7  -6  13 5534.41 251.208   7
   7  -6  13 1839.70 150.055   5
   7   6  15 11319.8 159.296   8
  -7  -6  15 11401.7 239.394   7
   7   7   0 84119.8 574.933   8
   7   7   0 83196.8 571.229   3
   7   7  -2 58129.6 509.768   3
   7   7  -2 59297.2 491.027   4
   7   7   2 54129.9 425.505   3
   7   7   2 55259.3 480.977   8
   7   7  -2 59988.0 503.236   8
   7   7  -4 33399.4 407.300   8
   7  -7   4 36082.3 609.435   6
   7  -7   4 36684.0 598.478   5
  -7  -7   4 35048.7 500.286   7
   7   7   4 32928.1 380.269   5
   7  -7   6 7704.47 312.021   5
   7   7  -6 7733.01 210.948   3
  -7  -7   6 8205.87 266.172   7
   7  -7   6 7945.13 329.526   6
   7   7   6 7431.77 193.285   5
  -7  -7   8 644.225 100.707   7
   7   7   8 797.224 85.9402   8
   7  -7   8 765.628 133.433   6
   7   7   8 681.832 67.2516   5
   7   7 -10 20875.6 308.985   3
   7  -7  10 20281.2 588.585   5
   7   7  10 20065.0 288.677   5
   7  -7  12 1131.87 140.565   5
   7   7  12 1531.22 100.766   8
   7  -7  12 1317.51 120.074   9
  -7  -7  12 1238.15 133.661   7
  -7  -7  14 899.033 89.4379   7
   7   7  14 789.464 55.3466   8
   0  -8  14 19071.3 450.544   7
   0  -8  12 47770.2 805.521   6
   0  -8  12 47756.1 686.582   5
   0   8  10 94831.0 610.703   8
   0  -8  10 67270.9 1028.13   7
   0  -8   8 34501.7 672.261   7
   8   0  -8 41635.1 552.721   3
   0  -8   6 57136.1 758.762   7
   0   8   6 72464.2 474.609   8
  -8   0  -4 80437.3 429.884   2
   0   8   4 81943.6 467.463   8
   0   8   2 488249. 1313.37   3
   0   8   2 486758. 1282.97   2
   0   8   0 993966. 1888.04   2
   0   8   0 973900. 1945.18   3
   8   0   2 507578. 1687.89   5
   0   8  -2 502772. 1287.93   8
   0   8  -4 89120.4 546.706   2
   8   0   4 89967.7 781.256   5
   8   0   6 76947.3 771.849   9
  -8   0   6 81235.1 650.790   7
   8   0   6 73295.5 796.926   5
   0   8  -6 84976.7 612.753   3
  -8   0   8 45810.0 586.062   7
   0   8  -8 45967.5 446.725   3
   8   0  10 86777.5 946.530   5
   8   0  10 84110.8 983.529   9
   8   0  12 71438.6 866.085   9
   8   0  12 72041.1 774.486   5
  -8   0  14 29416.8 447.109   7
   8   0  14 37358.7 503.014   9
   1  -8  15 15031.9 373.872   9
  -1  -8  15 14058.8 323.357   7
  -1  -8  13 13210.3 438.756   7
   1  -8  13 15297.5 356.958   5
   1  -8  13 12254.4 400.662   7
  -1  -8  13 16147.5 430.040   6
   1  -8  13 16621.0 476.480   6
   1  -8  11 21552.2 584.647   7
   1  -8  11 24187.5 544.996   5
  -1  -8  11 24516.4 491.113   5
  -1  -8  11 23362.4 608.255   7
   1  -8  11 25716.1 645.330   6
  -1  -8  11 26259.0 603.786   6
   1  -8   9 12579.5 423.282   7
   1   8   9 12861.1 243.861   8
   8  -1  -9 12799.4 265.034   3
   1  -8   7 16318.7 436.864   7
  -1  -8   7 17539.3 439.560   7
   1   8   5 16072.7 229.476   8
   1  -8   5 18387.7 258.032   1
  -1  -8   5 16512.5 220.373   1
   8   1  -5 9366.77 436.575   3
   1  -8   5 14312.4 360.633   7
  -1  -8   5 12702.2 353.034   7
  -8  -1  -5 14172.1 180.929   2
   1   8   3 17340.0 265.159   2
  -1  -8   3 15688.4 168.899   1
   8  -1  -3 19736.6 263.994   2
   8   1  -3 21193.7 292.809   4
   1  -8   3 16206.9 191.695   1
   8   1  -3 16036.6 259.141   1
  -1   8   3 15419.5 231.287   3
   1   8   3 17144.4 225.133   8
   8  -1  -3 17831.8 269.539   1
   8   1  -3 17242.2 283.559   2
  -1   8   1 77323.3 515.645   3
   1   8   1 84179.9 496.582   8
  -1  -8   1 75890.2 263.729   1
   8   1  -1 79849.9 608.766   2
   8  -1  -1 84232.1 495.295   2
   1  -8   1 79214.0 320.494   1
   1   8   1 79375.2 552.046   2
   8   1  -1 80894.8 567.102   1
   1   8   1 80069.5 524.262   3
   8   1   1 65453.4 527.848   5
   1   8  -1 73787.7 531.251   3
   1   8  -1 79703.7 538.752   2
  -1   8  -1 63905.5 375.356   2
   8   1   1 66919.4 590.584   2
   1   8  -1 80911.1 517.309   8
  -1   8  -1 72149.0 504.236   3
   8   1   3 15470.8 292.043   5
   8  -1   3 20131.1 357.061   5
   1   8  -3 22592.1 295.777   2
   1   8  -3 18741.9 277.611   3
   8   1   3 14544.1 253.982   9
  -1   8  -3 15970.6 244.059   3
  -1   8  -3 17520.1 200.838   2
   8  -1   3 23250.5 344.252   9
   1   8  -3 22342.0 306.287   8
   1   8  -5 15892.1 266.384   3
  -8  -1   5 17317.1 281.667   7
  -1   8  -5 17053.0 269.639   3
   8   1   5 15318.3 321.474   9
   8  -1   5 15070.9 345.576   5
   8  -1   5 15827.1 328.461   9
   8   1   7 18451.6 399.181   5
  -8   1   7 25291.7 389.258   7
  -8  -1   7 20239.3 353.423   7
   8   1   7 18666.2 404.881   9
   8  -1   7 26129.0 526.788   5
  -1   8  -7 21307.0 303.706   3
   1   8  -7 26473.6 359.495   3
   8  -1   7 26766.9 509.522   9
   8   1   9 18353.0 420.613   5
  -8   1   9 14191.5 338.586   7
  -8  -1   9 19196.2 413.531   7
   8  -1   9 13469.5 406.855   5
   8  -1   9 13905.0 411.118   9
   1   8  -9 15468.4 263.710   3
   8   1   9 18640.8 442.280   9
   8   1  11 30875.5 519.093   5
   8   1  11 33055.3 596.374   9
   8  -1  11 31901.7 587.262   5
   8  -1  11 31958.4 613.435   9
  -8   1  13 22187.5 435.119   7
  -8  -1  13 23196.9 469.297   7
   8   1  13 21726.2 351.118   5
   8   1  13 23502.4 448.052   9
   8  -1  13 19876.0 426.349   9
   8  -1  13 19840.0 374.230   5
   8   1  15 17294.8 266.098   8
  -8   1  15 23767.0 297.235   7
  -8  -1  15 21882.7 324.308   7
   8  -1  15 28146.1 355.472   9
   2  -8  14 11251.8 375.109   9
  -2  -8  14 10321.4 341.262   7
   2  -8  12 27172.9 583.009   5
   2  -8  12 27333.4 676.439   6
  -2  -8  12 27229.8 572.114   6
  -2  -8  10 57271.0 960.885   7
   2   8  10 79391.9 632.640   8
   8   2 -10 77631.9 559.912   3
   2  -8  10 57426.9 907.640   7
   2  -8  10 59717.1 904.487   5
   2  -8  10 62381.2 1017.26   6
  -2  -8   8 42675.8 718.745   7
   8   2  -8 62554.3 574.392   3
   2   8   8 63252.4 553.206   8
   2  -8   8 52645.0 807.136   7
   2   8   8 65342.9 513.848   9
   8  -2  -8 46724.0 900.503   3
   2   8   6 69056.8 557.682   8
  -2  -8   6 45618.1 691.742   7
   2  -8   6 54118.0 709.437   7
   8   2  -6 65195.1 744.876   3
  -2  -8   4 59306.7 373.676   1
   2   8   4 62769.2 466.682   8
  -8  -2  -4 51472.3 360.072   2
   2  -8   4 56168.1 407.534   1
   2  -8   4 53590.8 677.812   7
  -2  -8   4 45223.9 631.099   7
   8   2  -4 50381.3 941.801   3
  -2  -8   2 92105.6 371.155   1
   2   8   2 94510.4 551.138   8
   2  -8   2 96306.4 451.093   1
   8  -2  -2 85355.5 421.260   2
   8   2  -2 102813. 629.792   4
  -2   8   2 89678.6 566.557   3
   8   2  -2 98350.7 693.560   2
   2   8   2 94501.1 714.077   2
   8   2  -2 91005.0 598.129   1
   8  -2  -2 85212.8 602.108   1
   2   8   2 84723.4 541.765   3
   2   8   0 301347. 1006.26   8
   2   8   0 276931. 1040.92   3
   2  -8   0 286768. 605.081   1
   8   2   0 269940. 1250.55   2
   8   2   0 278304. 1032.95   1
   8   2   0 280897. 1091.45   4
   2   8   0 282622. 1118.68   2
  -2   8   0 279801. 1035.66   3
  -2   8   0 302448. 768.626   2
   8   2   0 293037. 1055.30   5
   8   2   2 79890.3 618.627   5
   8   2   2 73213.1 641.324   2
   8   2   2 70934.8 488.856   8
   2   8  -2 75460.6 539.254   2
  -2   8  -2 87624.1 419.153   2
   2   8  -2 79480.0 580.306   3
   2   8  -2 93030.9 607.679   8
  -2   8  -2 82616.0 552.245   3
   8  -2   2 77470.7 677.141   5
   2   8  -4 64789.9 547.131   3
   2  -8  -4 77434.0 539.007   2
   2   8  -4 79828.4 728.985   8
   8  -2   4 60091.0 659.713   5
   2   8  -4 68237.9 548.060   2
   8   2   4 61226.8 590.354   9
   8  -2   4 61840.0 589.925   9
  -2   8  -4 58351.2 488.966   3
  -2  -8  -4 68660.2 501.029   2
   8   2   6 61593.8 671.514   5
   2   8  -6 61296.1 550.985   3
  -2   8  -6 62251.9 507.943   3
   8   2   8 61619.4 720.061   5
   8   2   8 61273.0 759.478   9
  -8   2   8 62125.0 651.372   7
  -8  -2   8 68535.1 744.228   7
   8  -2   8 62645.5 854.944   5
  -2   8  -8 64997.9 512.229   3
   8  -2   8 63084.5 862.549   9
   2   8  -8 68064.7 585.450   3
   8  -2  10 80313.6 1036.12   9
  -8   2  10 81810.4 847.410   7
   8  -2  10 80349.6 1042.46   5
   8   2  10 79194.0 910.630   9
   8  -2  12 34934.2 589.838   5
   8  -2  12 34888.2 623.195   9
   8   2  12 35040.5 479.307   5
  -8   2  14 17368.4 311.527   7
   8  -2  14 18333.3 291.094   5
  -8  -2  14 19085.7 395.091   7
   8   2  14 16380.5 313.236   8
   8  -2  14 19131.1 371.113   9
  -3  -8  15 18735.7 369.307   7
   3  -8  15 21735.9 357.294   9
   3  -8  13 34853.7 717.531   9
  -3  -8  13 34316.4 558.935   6
  -3  -8  11 67026.6 1024.68   7
   3  -8  11 75826.3 1050.56   5
   3  -8  11 65353.9 941.849   7
   3  -8  11 79356.4 1206.02   6
   3   8   9 95619.7 724.020   8
   3  -8   9 85786.9 1115.38   5
   8   3  -9 95474.6 672.909   3
   3  -8   9 72418.1 931.077   7
  -3  -8   9 65754.3 958.500   7
   3  -8   9 82574.4 1130.26   6
   3   8   7 126758. 803.195   8
  -3  -8   7 91401.2 1008.29   7
   3  -8   7 103676. 999.438   7
   8   3  -7 122346. 831.298   3
   3   8   5 117638. 706.358   8
   8   3  -5 107193. 896.102   3
   8   3  -3 79079.5 632.174   2
   8   3  -3 77852.2 580.811   1
   8   3  -3 85407.3 603.231   4
   8   3  -3 89414.4 610.035   8
  -3  -8   3 79505.3 397.398   1
   3   8   3 75103.7 524.611   8
   8  -3  -3 74281.9 555.954   1
   3  -8   3 77851.5 471.635   1
   3   8   3 76668.3 683.043   2
   3   8   1 120709. 667.760   3
   3   8   1 129719. 659.089   8
   8   3  -1 114173. 797.799   2
   3   8   1 117992. 568.664   4
   8   3  -1 120121. 676.599   4
   8   3  -1 123313. 664.326   1
   8   3  -1 115459. 617.010   8
   3   8   1 112491. 718.252   2
  -3   8   1 120073. 666.180   3
   8   3  -1 120327. 627.749   5
   3   8  -1 117860. 733.437   2
   3   8  -1 122630. 702.987   3
   8   3   1 122150. 652.505   1
   3   8  -1 126242. 687.970   8
   3   8  -1 115036. 613.001   4
   8  -3   1 121510. 771.069   5
   8   3   1 104296. 815.302   2
   8   3   1 91508.6 923.672   3
   3  -8  -1 119626. 439.289   1
   8   3   1 96362.6 575.251   8
   8   3   1 110947. 683.889   5
   8  -3   3 71794.3 692.868   5
   3   8  -3 69903.0 545.253   2
  -3   8  -3 71462.9 544.908   3
  -8  -3   3 74071.5 517.037   7
   8   3   3 67905.5 584.058   5
   8   3   3 71962.3 746.091   2
   8   3   5 104289. 800.557   5
   3   8  -5 119903. 770.747   3
   8  -3   5 109351. 971.026   5
   8  -3   5 108531. 838.006   9
  -8  -3   5 118082. 763.535   7
  -3   8  -5 119382. 705.624   3
   3   8  -5 120954. 2098.92   8
   8   3   5 111050. 855.410   9
   8  -3   7 129436. 1161.99   9
  -8  -3   7 147331. 1046.79   7
   8   3   7 120943. 995.668   9
   3   8  -7 148013. 901.120   3
  -3   8  -7 122527. 699.714   3
   8   3   7 127341. 948.626   5
   8   3   9 97513.2 872.639   5
   8  -3   9 92053.7 1102.52   5
  -8   3   9 99258.0 891.130   7
  -8  -3   9 108435. 1023.34   7
   8  -3   9 91172.8 1100.21   9
   3   8  -9 100880. 716.262   3
  -8   3  11 102618. 895.046   7
   8   3  11 106251. 852.126   5
   8  -3  13 46325.1 629.190   5
   8   3  13 49777.5 587.221   8
  -8   3  13 49101.8 560.480   7
  -8  -3  13 51969.7 707.330   7
   8   3  13 55025.9 602.232   9
   8  -3  13 45366.2 642.687   9
  -8  -3  15 31383.0 391.976   7
   8  -3  15 37256.4 365.710   9
   4  -8  14 727.682 86.5105   9
   4  -8  14 732.313 73.3503   5
  -4  -8  14 582.663 92.2768   7
   4   8  14 841.934 51.2309   8
   4  -8  12 2953.81 214.234   5
   4  -8  12 2848.99 216.198   9
   4  -8  12 2816.94 228.702   6
  -4  -8  12 3731.20 191.562   6
  -4  -8  12 3537.61 231.779   7
   4  -8  10 3790.86 252.690   5
  -4  -8  10 3798.64 246.549   7
   8   4 -10 4343.27 138.932   3
   4  -8  10 4660.44 298.446   6
   4  -8   8 10350.3 386.157   5
   8   4  -8 10626.0 232.783   3
   4   8   6 5559.01 170.214   8
   8   4  -6 6335.43 191.197   3
   4  -8   4 908.884 65.9895   1
   8   4  -4 726.982 77.9193   4
   8   4  -4 958.581 76.5817   8
   4   8   2 32741.0 342.569   3
   8   4  -2 31390.7 340.005   8
   8   4  -2 31363.2 341.329   1
   8   4  -2 33865.2 434.818   2
   8   4  -2 31891.0 355.397   4
   8   4  -2 28123.4 417.595   3
   8  -4  -2 31332.6 352.864   1
   4   8   2 31814.2 334.699   4
   4   8   2 35578.7 446.714   2
   8   4  -2 32986.6 342.791   5
   4   8   2 32682.2 345.952   8
   4   8   0 28482.2 327.821   3
   4   8   0 29451.3 329.287   8
   8   4   0 30571.7 320.850   1
   4   8   0 27401.4 288.485   4
   8   4   0 28127.4 414.971   2
  -4   8   0 29825.8 340.666   3
   8   4   0 25738.2 374.562   3
   4   8   0 31429.2 422.175   2
   8   4   0 27154.6 300.389   8
   8   4   0 30217.9 351.358   5
   4   8  -2 34063.8 406.026   2
   4   8  -2 31876.5 352.024   4
   8   4   2 32028.7 360.562   8
  -4   8  -2 29715.5 341.386   3
   8   4   2 26240.9 308.963   3
  -8  -4   2 32005.7 342.665   7
   8  -4   2 35459.1 467.248   5
   8   4   2 33608.3 331.822   1
   8   4   2 30279.6 472.143   2
   4   8  -2 33940.4 384.689   3
   8   4   2 32000.4 376.058   5
   4   8  -2 35544.0 383.442   8
   8   4   4 1128.31 77.2606   8
  -8  -4   4 1084.72 75.6849   7
   4   8  -4 1099.00 78.4144   3
   8  -4   6 5855.07 219.175   9
   4   8  -6 5721.56 174.623   3
  -4   8  -6 6211.42 158.985   3
   8  -4   6 5782.76 252.177   5
   8   4   6 5732.01 188.916   5
   8  -4   8 7499.15 294.269   9
   4   8  -8 9308.05 232.491   3
   8  -4   8 7993.07 324.925   5
   8   4   8 9369.45 249.514   5
   8  -4  10 4924.64 268.954   9
   8  -4  10 4921.66 274.375   5
  -8   4  10 4834.55 193.796   7
  -8  -4  10 5192.49 251.719   7
   4   8 -10 5437.51 165.486   3
   8   4  10 4316.87 178.160   5
   8   4  10 5249.51 236.009   9
  -8   4  12 4966.12 179.768   7
  -8  -4  12 4767.45 242.025   7
   8  -4  12 4861.35 229.516   9
   8   4  12 5165.08 196.641   9
   8   4  12 4537.44 150.951   5
   8  -4  12 4952.82 250.346   5
   8  -4  14 841.260 75.5743   5
  -8  -4  14 931.788 94.7443   7
  -5  -8  15 17038.8 303.523   7
   5  -8  13 45097.2 654.715   9
   5  -8  13 44642.6 687.756   5
   5  -8  11 75691.0 1119.93   5
   5  -8  11 76860.5 1194.03   6
   8   5  -9 125540. 785.259   3
   5  -8   9 120098. 1383.79   5
   5   8   7 89244.3 711.047   8
   8   5  -7 89823.6 703.894   3
  -5  -8   7 68692.5 852.283   7
   5  -8   7 86292.2 1102.26   6
   5   8   7 75014.8 543.597   5
   5   8   5 137449. 795.963   8
   8   5  -5 137548. 858.787   3
  -5  -8   5 134442. 1116.68   7
   5   8   5 134938. 727.985   5
   8   5  -3 65902.2 575.783   3
   8   5  -3 70232.1 579.101   4
   5   8   3 71979.2 540.351   8
   5  -8   3 80480.6 796.539   6
   5   8   3 76609.7 553.538   5
   8   5  -3 78472.6 593.897   8
   5   8   1 148600. 741.090   8
   8   5  -1 157914. 761.020   8
   8   5  -1 155505. 774.034   4
   5   8   1 155724. 721.406   4
   8   5  -1 143219. 799.413   3
   8   5  -1 166709. 748.746   1
   8   5  -1 141176. 727.159   5
   5   8   1 147845. 733.085   3
   8   5   1 143685. 737.677   3
   8   5   1 140218. 731.383   8
   5   8  -1 154980. 746.399   4
   8  -5   1 165501. 971.773   5
  -5   8  -1 149359. 781.102   3
   8   5   1 172046. 1109.58   2
   8   5   1 156636. 790.658   5
   5   8  -1 154597. 810.176   3
   8   5   1 157431. 661.380   1
   8   5   3 59732.0 499.121   8
   5   8  -3 58092.7 521.015   3
   5   8  -3 59907.7 618.907   4
  -5   8  -3 66544.3 533.887   3
  -8  -5   3 75162.4 602.263   7
   8  -5   3 73602.9 770.456   5
  -8  -5   5 150011. 975.122   7
  -5   8  -5 142211. 780.241   3
   5   8  -5 142445. 879.847   3
   8  -5   5 143651. 1227.26   5
   8   5   5 149217. 930.827   5
   8  -5   7 84379.0 894.664   9
   8   5   7 92168.7 831.815   8
   5   8  -7 85055.7 678.858   3
   8   5   7 89950.9 762.828   5
   8  -5   9 127156. 1383.52   5
   8   5   9 134880. 1054.63   8
   5   8  -9 126840. 816.586   3
   8   5   9 139861. 1064.57   9
   8  -5   9 121711. 1229.07   9
   8   5   9 125226. 868.276   5
  -8   5   9 126443. 900.258   7
   8  -5  11 88084.2 1147.75   5
  -8   5  11 101436. 821.579   7
  -8  -5  11 106714. 1117.40   7
   8  -5  11 85312.3 1002.42   9
   8   5  11 101020. 744.895   5
  -8  -5  13 58806.1 746.795   7
   8  -5  13 58160.5 661.366   9
   8   5  15 19168.7 217.825   8
  -8  -5  15 24106.1 327.199   7
   6  -8  14 15545.2 282.947   5
   6   8  14 17869.4 214.801   8
   6  -8  12 7620.05 274.056   9
   6  -8  12 7316.49 321.378   5
  -6  -8  12 6930.67 296.090   7
   6  -8  10 28778.8 608.920   9
   8   6 -10 30778.3 371.525   3
   6  -8  10 29343.4 728.846   5
  -6  -8  10 29920.1 649.685   7
   8   6  -8 31656.0 416.929   3
  -6  -8   8 32475.0 609.237   7
   6  -8   8 31523.4 714.891   6
   6   8   8 32179.3 370.311   5
   6   8   6 69263.8 599.553   8
   6  -8   6 64859.7 890.127   5
   8   6  -6 64901.4 596.573   3
  -6  -8   6 70400.7 803.853   7
   6  -8   6 63412.5 892.781   6
   6   8   6 58007.0 521.041   5
   8   6  -4 126310. 791.728   8
   6   8   4 113668. 721.592   8
  -6  -8   4 113037. 920.137   7
   6  -8   4 120644. 1083.60   6
   6   8   4 102199. 694.611   5
   6   8   2 127711. 735.341   8
   6   8   2 147793. 726.157   3
   8   6  -2 146884. 794.801   4
   8   6  -2 158364. 864.576   3
   8   6  -2 156314. 810.389   8
   6  -8   2 184455. 1118.20   6
   6   8   2 209674. 1004.56   5
   6   8   2 156867. 794.216   4
   8   6   0 72507.3 538.065   8
   8   6   0 74306.0 542.139   3
   6   8   0 75632.8 521.202   4
   6   8   0 77211.6 555.274   3
   8   6   2 144089. 775.655   8
   6   8  -2 150334. 822.600   3
   8   6   2 137778. 676.919   3
   6   8  -2 149403. 758.411   4
   6   8  -2 141358. 783.393   8
   8  -6   2 164894. 1054.67   5
  -8  -6   2 152146. 817.256   7
   8   6   2 135635. 780.844   5
   6   8  -4 110935. 757.515   8
  -8  -6   4 112297. 815.384   7
   8   6   4 110587. 741.536   5
   8   6   6 66819.9 656.556   8
   8  -6   6 81292.6 1010.83   5
  -8  -6   6 69969.1 733.887   7
   6   8  -6 75964.8 661.294   3
   8  -6   6 78504.7 984.881   6
   8   6   6 74102.4 683.922   5
   6   8  -8 37162.6 460.682   3
   8  -6   8 37554.3 620.943   9
   8   6   8 36544.6 461.907   5
   6   8 -10 35453.2 409.152   3
   8   6  10 34682.8 418.437   5
   8   6  12 9328.62 228.962   8
  -8  -6  12 8636.81 296.801   7
   8  -6  12 7201.39 308.497   5
   8  -6  12 7974.15 258.777   9
   8  -6  14 17550.3 289.548   5
  -8  -6  14 17446.3 339.536   7
   7  -8  13 18326.9 416.753   5
  -7  -8  13 18874.6 417.385   7
   8   7 -11 9064.87 182.984   3
   7  -8  11 9198.09 398.395   5
   7   8  11 9160.46 223.504   8
   7   8   9 5844.05 193.721   8
   7  -8   9 3593.99 267.497   5
  -7  -8   9 5552.82 258.484   7
   7  -8   9 3549.04 254.000   6
   8   7  -9 4144.61 152.957   3
   7   8   9 4686.18 143.447   5
   7   8   7 26413.7 386.168   8
   7  -8   7 28524.2 645.948   5
   8   7  -7 27768.8 391.614   3
  -7  -8   7 25151.1 495.358   7
   7  -8   7 28104.8 660.232   6
   7   8   7 24855.8 347.488   5
   8   7  -5 53186.6 969.164   8
   7  -8   5 58246.2 839.976   5
   8   7  -5 49755.6 528.420   3
   7   8   5 44371.9 488.416   8
  -7  -8   5 48545.2 627.617   7
   7  -8   5 54074.2 822.315   6
   7   8   5 48227.2 467.175   5
  -7  -8   3 45873.1 544.694   7
   7   8   3 46473.5 453.604   5
   8   7  -3 47640.7 491.885   8
   7   8   1 95754.1 613.386   3
   7   8   1 94978.7 618.721   8
   7   8   1 100330. 641.017   4
   8   7  -1 103321. 673.723   3
   8   7  -1 103203. 647.172   8
   8  -7   1 103936. 805.087   5
   7   8  -1 90840.4 633.140   3
   8   7   1 95952.0 597.986   3
   7   8  -1 102860. 646.755   4
   8   7   1 98837.0 626.880   8
   8   7   1 100879. 661.115   4
   7   8  -1 94718.8 625.177   8
   8   7   1 107462. 662.869   5
   8  -7   3 47720.5 659.814   5
   7   8  -3 42272.7 457.322   3
   7   8  -3 49731.8 544.284   4
   8   7   3 42853.5 439.299   8
   8  -7   3 49682.5 664.497   6
   7   8  -3 44997.0 464.561   8
   8   7   3 41937.6 440.265   5
  -8  -7   3 46599.1 513.605   7
   8   7   5 49501.4 510.564   8
   8  -7   5 56055.3 808.380   5
   7   8  -5 47400.5 518.683   3
  -8  -7   5 52685.1 609.780   7
   7   8  -5 45810.7 769.413   8
   8  -7   5 49960.6 764.407   6
   8   7   5 50020.6 517.475   5
   8  -7   7 28910.3 656.106   5
  -8  -7   7 30757.4 518.638   7
   8  -7   7 27055.0 631.012   6
   7   8  -7 27232.7 403.922   3
   8   7   7 29736.8 407.940   5
   7   8  -9 6048.25 178.712   3
   8   7   9 5608.56 169.005   5
   8   7  11 7847.87 212.585   8
  -8  -7  11 8099.52 299.926   7
   8   7  11 7460.54 168.175   5
  -8  -7  13 17809.0 372.289   7
   8  -7  13 16781.1 383.426   5
   8   8   0 173816. 862.643   8
   8   8   0 180941. 859.871   4
   8   8   2 145447. 790.147   8
   8   8   2 138778. 739.004   3
   8   8  -2 138448. 851.276   3
   8   8  -2 136015. 775.607   4
   8   8   2 152555. 837.905   4
   8   8  -2 144852. 811.149   8
   8  -8   4 42622.7 688.056   5
  -8  -8   4 39138.7 523.911   7
   8  -8   4 44226.7 706.228   6
   8   8  -4 39706.3 474.058   8
   8   8   4 39505.0 446.229   5
   8  -8   6 70219.0 973.476   5
   8   8  -6 69371.2 637.478   3
  -8  -8   6 72790.0 762.194   7
   8  -8   6 73821.6 1008.48   6
   8   8   6 73753.4 607.657   5
   8   8  -8 47526.5 514.453   3
   8   8   8 46449.8 528.727   8
  -8  -8   8 51112.3 719.246   7
   8  -8   8 45816.2 870.121   5
   8   8   8 49829.7 499.678   5
  -8  -8  10 96486.9 1023.92   7
   8   8 -10 89895.2 640.280   3
   8   8  12 70428.1 527.022   8
  -8  -8  12 65372.1 749.824   7
   8   8  14 47702.6 306.145   8
  -8  -8  14 48668.1 453.238   7
   0  -9  15 2571.77 141.100   9
   0  -9  13 6938.70 299.091   7
   0  -9  13 8908.50 336.190   6
   0  -9  11 17449.9 455.907   5
   0  -9  11 17038.2 523.843   6
   0  -9  11 15775.5 493.981   7
   0  -9   9 21631.9 577.010   7
   9   0  -9 27636.9 384.827   3
   0  -9   7 14750.8 427.553   7
   9   0  -7 20499.1 565.568   3
   0   9   5 15048.3 204.285   8
   0  -9   5 13197.6 381.820   7
   0   9   3 65212.9 501.151   3
   0   9   3 64969.0 406.288   8
   0   9   1 66989.3 429.203   8
   9   0  -1 66086.2 479.892   4
   9   0  -1 66770.2 560.263   1
   0   9   1 66734.4 496.189   2
   9   0   1 59975.2 537.292   5
   0   9  -1 59072.4 427.994   8
   0   9  -1 58540.2 491.611   3
   0   9  -3 69650.8 471.181   2
   0   9  -3 71266.7 572.534   3
   9   0   5 15673.1 357.689   5
   9   0   5 15803.5 331.128   9
   0   9  -5 15891.1 275.741   3
  -9   0   7 20699.4 350.419   7
   9   0   7 20725.3 454.964   5
   9   0   7 20920.2 429.638   9
   0   9  -7 20756.5 327.490   3
  -9   0   9 25953.5 460.184   7
   0   9  -9 26886.1 353.954   3
   9   0   9 26785.2 536.146   9
  -9   0  11 29427.9 514.579   7
   9   0  11 30022.4 552.178   9
  -9   0  13 12106.1 294.432   7
   9   0  13 13588.4 283.609   5
   9   0  15 1567.98 71.2961   8
   1  -9  14 2222.96 170.764   9
  -1  -9  14 1232.73 115.325   7
   1  -9  12 813.951 108.684   5
   1  -9  12 893.316 127.566   7
  -1  -9  12 2574.33 205.949   7
   1  -9  12 1059.88 150.021   6
  -1  -9  12 3123.38 212.837   6
  -1  -9  12 3141.04 172.993   5
   1  -9  10 9509.24 396.571   7
   1   9  10 9391.23 187.915   8
   1  -9  10 11264.9 407.094   5
   1  -9  10 10759.5 430.335   6
   1   9   8 934.823 64.2558   8
   1  -9   8 789.572 118.232   7
  -1  -9   8 703.425 112.735   7
   9   1  -8 1019.86 96.0064   3
  -1  -9   6 1225.88 128.801   7
   9   1  -6 1187.42 189.408   3
   9  -1  -6 797.177 211.868   3
   1   9   6 1276.62 71.2233   8
  -1   9   4 3057.02 110.377   3
   1  -9   4 2638.93 165.404   7
  -1  -9   4 2704.32 171.008   7
   9   1  -2 36658.5 815.321   3
   9   1  -2 59181.3 542.363   2
   9   1  -2 61837.9 499.226   4
   1   9   2 50362.0 390.548   8
  -1   9   2 54779.2 462.491   3
   1   9   2 49371.5 440.260   3
   1   9   2 46622.0 422.306   2
   9  -1   0 1016.64 70.2550   5
   9   1   0 598.401 53.2597   4
   1   9   0 1098.11 63.2374   8
   1   9   0 1851.30 88.7193   2
   9   1   0 533.813 57.0345   2
  -1   9   0 350.113 34.0454   2
  -1   9   0 336.409 46.8896   3
   9   1   0 735.369 64.5742   1
   1   9   0 1263.79 77.1948   3
   9   1   0 770.863 57.9106   5
   9   1   2 52812.5 517.267   5
   9   1   2 48102.5 507.676   2
   9  -1   2 51024.0 552.762   5
   9   1   2 43387.5 370.113   8
   1   9  -2 50795.6 442.907   2
  -1   9  -2 59664.4 409.186   2
  -1   9  -2 42171.9 526.369   8
   1   9  -2 49742.4 448.239   8
   1   9  -2 47760.5 466.522   3
   9   1   4 2827.72 139.244   5
   9  -1   4 4203.73 160.021   9
   9   1   4 2815.77 123.513   8
   9  -1   4 3733.38 177.306   5
  -1   9  -4 3583.54 128.724   3
   1   9  -4 3802.13 139.849   3
   1   9  -6 1917.11 104.651   3
   9  -1   6 1886.78 129.474   9
   9  -1   8 1383.55 130.621   9
  -9   1   8 1099.29 88.1132   7
  -9  -1   8 931.117 89.4764   7
   9   1   8 964.504 109.102   9
  -1   9  -8 1061.35 76.4827   3
   9  -1   8 1435.96 146.850   5
   1   9  -8 1226.10 84.6312   3
   9   1  10 12774.3 339.736   5
  -9  -1  10 13406.3 356.516   7
  -9   1  10 10316.9 288.773   7
   9   1  10 14148.3 386.585   9
   9  -1  10 9651.82 344.692   5
   9  -1  10 10187.4 343.852   9
   9  -1  12 4626.30 204.796   5
  -9   1  12 5169.04 204.418   7
  -9  -1  12 1413.09 123.567   7
   9   1  12 1356.79 123.879   9
   9   1  12 1734.56 118.895   5
   9  -1  12 5204.67 226.800   9
   9   1  14 2459.66 117.783   8
  -9   1  14 2161.32 93.8015   7
  -9  -1  14 2647.45 116.844   7
   9  -1  14 3012.31 132.279   9
   9  -1  14 2662.16 107.848   5
  -2  -9  15 813.375 90.0368   9
  -2  -9  15 773.458 67.4846   7
   2  -9  13 10818.8 316.309   5
   2  -9  13 11237.2 400.518   6
  -2  -9  13 10756.0 336.372   6
   2  -9  11 2396.94 196.703   5
  -2  -9  11 3227.07 182.347   5
   2  -9  11 1833.77 172.714   7
  -2  -9  11 2350.30 206.526   7
   2  -9  11 2199.31 209.237   6
  -2  -9  11 2816.31 213.232   6
   2   9   9 11496.5 230.910   8
   2  -9   9 6828.34 324.317   7
   9   2  -9 9228.78 217.915   3
  -2  -9   9 8030.78 348.799   7
   9  -2  -9 10425.5 278.787   3
   2  -9   9 7661.89 365.038   6
   9  -2  -7 14181.3 570.162   3
   2   9   7 35484.6 379.795   8
   2  -9   7 23751.2 526.291   7
  -2  -9   7 23892.7 538.654   7
   9   2  -7 30789.9 453.736   3
   2   9   5 25045.6 304.658   8
   2  -9   5 18803.5 442.320   7
  -2  -9   5 20275.6 483.506   7
   9   2  -5 23688.8 561.915   3
   9   2  -3 3116.83 122.669   4
  -2   9   3 3086.72 113.125   3
   2   9   3 2811.66 105.349   3
   9   2  -1 28778.8 349.442   1
   9   2  -1 27040.6 385.098   2
  -2   9   1 27368.2 335.566   3
   2   9   1 27934.4 301.278   8
   9   2  -1 26603.3 296.280   5
   9   2  -1 28319.9 332.516   4
   2   9   1 26357.6 331.168   3
   2   9  -1 27547.8 349.079   3
   9  -2   1 26966.0 386.161   5
   9   2   1 24637.2 281.890   8
   2   9  -1 29050.4 337.006   8
   9   2   1 29327.4 354.693   1
   2   9  -1 31767.4 334.280   4
   2   9  -1 25723.8 325.495   2
   9   2   1 26955.0 335.410   5
   9   2   1 27059.9 410.447   2
  -2   9  -1 27125.8 328.512   3
   9   2   3 2504.19 121.086   5
   9   2   3 2107.68 99.7977   8
   9  -2   3 2415.22 138.209   5
  -2   9  -3 2178.80 100.769   3
   2   9  -5 25466.0 368.971   3
   9  -2   5 26089.3 484.205   5
   9  -2   5 28830.2 430.876   9
   9   2   5 20565.2 357.978   9
  -2   9  -5 21540.3 316.133   3
   9   2   7 27696.4 474.995   5
  -2   9  -7 30869.0 388.823   3
  -9  -2   7 30156.0 444.575   7
   9   2   7 29335.6 498.869   9
   2   9  -7 38076.9 460.638   3
   9  -2   7 36413.7 573.736   9
  -9   2   9 10638.6 271.661   7
   9  -2   9 12512.2 408.960   5
  -9  -2   9 8350.49 281.024   7
   9   2   9 7866.42 278.518   9
   2   9  -9 11269.5 237.599   3
   9  -2   9 10950.8 351.319   9
   9   2   9 7894.24 270.093   5
   9  -2  11 3159.56 200.314   5
  -9   2  11 3235.15 161.671   7
  -9  -2  11 3624.95 199.008   7
   9   2  11 3284.49 160.320   5
   9  -2  11 3182.22 195.295   9
   9   2  13 18229.6 344.010   8
  -9   2  13 12107.0 250.762   7
  -9  -2  13 16467.8 350.668   7
   9   2  13 15885.2 281.319   5
   9  -2  13 14521.9 328.760   9
   9  -2  13 12871.5 308.901   5
   9   2  15 727.186 51.0090   8
   3  -9  14 7475.75 238.592   9
  -3  -9  14 5089.30 222.960   7
   3   9  12 10510.9 203.210   8
  -3  -9  12 5587.19 292.726   7
   3  -9  12 8669.59 396.379   6
  -3  -9  12 6273.85 269.986   6
   3  -9  12 8558.42 343.497   5
   3  -9  10 3537.29 254.629   5
   9   3 -10 3953.62 133.630   3
  -3  -9  10 4556.08 263.819   7
   3   9  10 2746.92 117.907   8
   3  -9  10 3614.29 261.467   6
   3   9   8 18190.6 299.656   8
   3  -9   8 14573.5 424.082   7
   9   3  -8 17617.8 316.269   3
  -3  -9   8 11382.6 398.094   7
   9  -3  -8 8752.07 445.302   3
   3   9   6 16492.7 272.651   8
   9   3  -6 15784.2 322.735   3
   9   3  -4 46919.2 593.337   8
   3   9   4 39148.1 385.416   8
   9   3  -2 31186.7 336.652   8
   3   9   2 27898.0 307.853   8
   9   3  -2 34661.0 462.784   2
   9   3  -2 30770.5 363.718   4
   3   9   2 26888.1 274.669   4
  -3   9   2 31318.4 361.050   3
   9   3  -2 29340.0 301.443   5
   9   3  -2 29223.4 614.556   3
   3   9   2 30941.1 355.251   3
   3   9   0 10689.5 220.973   3
   9   3   0 6894.94 149.711   8
   3   9   0 9188.41 187.367   8
   3   9   0 8681.04 158.973   4
   9   3   0 8220.90 178.374   1
   9   3   0 9061.87 193.355   4
   3   9   0 9554.06 222.453   2
   9   3   0 6407.92 208.419   2
  -3   9   0 7993.18 188.570   3
   9   3   0 6519.30 278.602   3
   9   3   0 8406.93 192.716   5
   3   9  -2 28445.4 374.764   3
   9   3   2 26347.6 325.222   8
   9  -3   2 25412.8 407.874   5
  -3   9  -2 29554.7 355.525   3
   9   3   2 23642.4 397.149   3
   3   9  -2 28897.3 358.164   8
   9   3   2 25507.3 403.432   2
   9   3   2 28769.7 367.035   5
   9  -3   4 32969.2 518.434   5
   3   9  -4 35899.8 443.601   3
   9   3   4 30083.2 379.758   8
  -3   9  -4 33325.7 391.206   3
   9   3   4 29749.2 421.935   5
  -9  -3   6 16536.0 310.276   7
   9   3   6 15032.6 324.926   8
   9  -3   6 14635.3 395.248   5
   9   3   6 16612.8 332.862   9
   3   9  -6 16847.7 313.702   3
  -3   9  -6 15922.5 275.057   3
   9  -3   6 15471.8 340.835   9
   9   3   6 16079.2 340.123   5
   9   3   8 17048.4 373.646   5
  -9  -3   8 17147.9 383.959   7
   9   3   8 18097.9 400.030   9
   3   9  -8 17610.1 326.623   3
  -9   3  10 1268.07 95.7859   7
  -9  -3  10 3219.03 186.613   7
   9  -3  10 1008.32 142.645   5
   9   3  10 4134.04 180.392   5
   3   9 -10 1660.84 93.9738   3
   9  -3  12 9305.23 309.308   5
   9   3  12 10646.9 288.910   8
  -9   3  12 9679.72 237.996   7
  -9  -3  12 9664.05 300.140   7
   9   3  12 10741.4 247.560   5
   9  -3  12 9985.60 300.171   9
   9   3  14 9034.72 192.691   8
   9  -3  14 8783.21 192.895   5
   4  -9  13 3992.23 198.107   9
   4   9  13 1736.10 76.2250   8
  -4  -9  13 1139.46 126.097   7
  -4  -9  13 1457.88 107.976   6
   4  -9  13 4185.23 208.679   5
   9   4 -11 6770.87 158.185   3
   4   9  11 2655.67 119.147   8
   4  -9  11 6321.90 323.056   5
  -4  -9  11 1537.20 177.366   7
   4  -9  11 6504.92 352.584   6
   4   9   9 5006.03 166.321   8
   4  -9   9 1697.93 187.644   5
   9   4  -9 2834.80 125.466   3
  -4  -9   9 3670.75 242.231   7
   9  -4  -9 4485.63 269.660   3
  -4  -9   7 10473.3 357.226   7
   4  -9   7 10687.8 392.638   6
   4   9   5 2070.36 101.376   8
   9   4  -5 2041.40 120.846   3
   9   4  -3 9290.29 202.454   8
   9   4  -3 8850.63 210.261   4
   4   9   3 9036.12 175.618   4
   4   9   3 9201.38 193.060   8
   4   9   1 570.422 53.2521   3
   9   4  -1 288.113 40.7192   4
   4   9   1 720.983 48.5444   4
  -4   9   1 344.659 48.0676   3
   9   4  -1 687.518 80.3146   3
   9   4  -1 386.228 43.8327   5
   9   4  -1 395.227 42.9509   8
   4   9   1 461.651 47.1424   8
   4   9  -1 532.186 54.9845   3
   4   9  -1 976.791 66.3992   8
   9  -4   1 685.499 68.3901   5
   9   4   1 245.429 37.2456   8
   4   9  -1 308.589 36.1468   4
   9   4   1 373.133 40.8726   1
   9   4   1 227.771 47.1354   3
   9   4   1 536.938 55.9787   5
   9   4   3 7690.24 184.007   8
   9  -4   3 10217.4 283.337   5
   4   9  -3 9653.14 224.762   8
  -9  -4   3 8075.02 178.806   7
  -4   9  -3 8617.00 197.010   3
   9   4   3 8726.17 216.692   5
   4   9  -5 872.460 318.505   8
   9  -4   5 1017.02 117.277   5
  -9  -4   5 2207.59 109.017   7
  -4   9  -5 2425.70 108.803   3
   9   4   5 1995.89 108.646   8
   4   9  -5 1241.29 89.1391   3
   9   4   5 2032.05 116.868   5
   4   9  -7 17287.1 314.572   3
   9   4   7 10960.2 292.302   8
   9   4   7 12107.6 294.321   5
   9  -4   7 15803.6 449.408   5
  -9  -4   7 12650.6 307.480   7
  -4   9  -7 10620.2 218.982   3
   9  -4   7 17944.6 386.811   9
   9  -4   9 6296.33 306.060   5
   9   4   9 1954.46 145.080   8
  -9  -4   9 2496.25 164.653   7
   9   4   9 3156.66 167.560   5
   4   9  -9 5607.25 181.460   3
   9  -4   9 5816.92 249.390   9
   9  -4  11 1347.92 165.552   5
   9   4  11 7738.84 250.632   8
  -9  -4  11 7895.64 285.856   7
   9   4  11 5773.50 197.221   5
   9  -4  11 2524.27 171.350   9
   9  -4  13 1661.36 129.182   5
   9   4  13 4232.68 157.684   8
  -9  -4  13 4722.31 193.505   7
   9  -4  13 1824.58 116.319   9
   9   4  15 921.939 46.4254   8
   5  -9  14 6592.48 177.924   5
   5   9  14 6528.51 109.372   8
   5  -9  12 10169.2 318.818   9
   5   9  12 12682.9 226.330   8
  -5  -9  12 6564.19 293.231   7
  -5  -9  12 6561.12 232.413   6
   5  -9  12 9829.57 375.442   5
   5  -9  10 1843.11 164.191   9
   5   9  10 1544.03 99.6006   8
   9   5 -10 2145.13 103.218   3
   5  -9  10 2059.50 202.427   5
   5   9   8 27799.8 391.230   8
   9   5  -8 25943.2 377.799   3
   5   9   6 18211.2 315.116   8
   9   5  -6 17430.1 326.802   3
   9   5  -4 46903.2 496.672   8
   5   9   4 38497.8 416.855   8
  -5  -9   4 35271.9 544.917   7
   5  -9   4 41928.4 655.001   6
   5   9   4 46405.3 467.435   5
   5   9   2 45413.6 421.852   3
   5   9   2 44503.5 416.856   8
   9   5  -2 48385.2 462.478   4
   5   9   2 45835.9 400.726   4
   9   5  -2 45039.0 488.634   3
   9   5  -2 47805.2 436.203   8
   5   9   0 5178.63 146.380   8
   5   9   0 4719.86 142.199   3
   5   9   0 5318.64 133.464   4
   9   5   0 5878.39 162.184   4
   9   5   0 5330.12 144.998   8
   9   5   0 5252.24 154.856   3
   9   5   0 4330.34 139.080   5
   5   9  -2 45710.1 464.919   3
   9  -5   2 48993.0 595.078   5
   5   9  -2 44081.6 444.841   4
   9   5   2 39896.5 381.089   3
   9   5   2 41024.9 417.954   8
  -9  -5   2 41669.0 401.159   7
   5   9  -2 44477.0 451.646   8
   9   5   2 43198.5 444.197   5
  -5   9  -2 46618.1 457.341   3
  -9  -5   4 37457.4 429.953   7
  -5   9  -4 37447.7 421.740   3
   5   9  -6 16755.3 306.486   3
   9   5   6 20265.4 366.301   8
  -9  -5   6 18689.0 367.514   7
  -5   9  -6 17729.4 281.321   3
   9  -5   6 15914.4 442.168   5
   9   5   6 16266.3 316.368   5
  -9  -5   8 28002.6 520.175   7
   5   9  -8 26214.7 385.565   3
   9  -5   8 25257.0 470.537   9
   9   5   8 27439.7 432.587   5
   9  -5  10 1101.17 162.853   5
   9   5  10 2342.73 136.956   8
  -9  -5  10 2161.95 157.330   7
   5   9 -10 1669.88 95.5827   3
   9   5  10 2157.21 119.597   5
   9  -5  10 1214.22 119.654   9
   9   5  12 13237.1 274.004   8
  -9  -5  12 13617.9 347.817   7
   9   5  12 11317.3 204.040   5
   9  -5  12 11415.1 292.565   9
  -9  -5  14 7559.57 191.790   7
   9  -5  14 7092.30 175.794   5
   6   9  13 5741.74 133.716   8
   6  -9  13 2611.70 169.953   5
   9   6 -11 2399.64 95.9826   3
   6  -9  11 1481.58 179.002   5
   6  -9   9 14133.9 502.147   5
  -6  -9   9 15018.9 430.305   7
   6  -9   9 14235.5 506.041   6
   6  -9   7 9617.98 399.045   5
   9   6  -7 9693.86 236.929   3
   6  -9   7 9595.66 396.896   6
   9   6  -5 12171.5 652.709   8
   6   9   5 13372.4 262.987   8
   6  -9   5 16247.5 452.187   5
   9   6  -5 13921.8 281.814   3
  -6  -9   5 11900.4 329.060   7
   6  -9   5 15207.0 428.549   6
   6   9   3 26603.8 347.335   8
   9   6  -3 27252.4 367.400   4
   9   6  -3 26869.1 385.512   3
   9   6  -1 9590.26 198.736   8
   9   6  -1 9188.60 194.397   4
   6   9   1 8337.28 174.803   4
   9   6  -1 9535.15 215.164   3
   6   9   1 7910.86 178.911   3
   6   9   1 9964.16 203.637   8
   9   6   1 9325.74 197.254   8
   6   9  -1 7692.32 176.304   4
   9   6   1 8751.66 182.636   3
   9  -6   1 9203.94 245.888   5
   6   9  -1 7925.42 195.264   3
   9   6   1 8667.61 191.157   5
   9  -6   3 24095.9 471.911   5
   6   9  -3 23664.2 362.022   3
   9   6   3 24541.0 332.352   8
   6   9  -5 11759.6 479.425   8
  -9  -6   5 13811.9 293.426   7
   6   9  -5 11862.6 260.734   3
   9   6   5 13219.1 263.798   8
   9  -6   5 12795.6 390.039   5
   9  -6   7 14290.1 460.815   5
  -9  -6   7 11902.2 316.825   7
   6   9  -7 13376.4 280.619   3
   9   6   7 12647.6 281.862   5
   6   9  -9 17784.7 311.036   3
  -9  -6   9 18262.5 424.150   7
   9   6   9 17221.8 318.412   5
   9  -6  11 5334.39 283.413   5
   9   6  11 4076.14 134.317   5
   6   9 -11 4169.01 124.566   3
   9  -6  11 5981.01 210.421   9
   9  -6  13 7934.01 247.438   5
  -9  -6  13 3059.41 144.211   7
  -7  -9  14 11425.7 226.876   7
   7   9  12 5082.47 141.133   8
  -7  -9  12 4728.52 217.671   7
   9   7 -10 7267.77 179.228   3
   7  -9  10 5677.81 327.197   5
   7   9  10 11047.6 244.563   8
  -7  -9  10 11557.5 373.967   7
   7   9   8 6067.67 190.704   8
   9   7  -8 3527.03 146.575   3
  -7  -9   8 6598.14 276.109   7
   7  -9   8 3201.68 246.599   6
   7   9   8 6815.28 205.123   5
   7  -9   6 4658.31 267.635   5
   9   7  -6 4193.70 160.547   3
   7   9   6 3207.64 138.978   8
  -7  -9   6 3023.33 174.236   7
   7  -9   6 4924.56 278.127   6
   7   9   6 4533.53 165.377   5
   7   9   4 784.997 71.8841   8
   7  -9   4 1751.82 152.056   5
   9   7  -4 1585.69 102.202   8
  -7  -9   4 744.794 89.7108   7
   7  -9   4 1712.88 147.958   6
   7  -9   2 8984.29 286.155   5
   9   7  -2 7570.33 199.654   3
   7   9   2 7844.13 176.535   3
   7   9   2 8303.84 187.370   4
   9   7  -2 9112.65 204.257   8
   7   9   0 2069.45 100.656   3
   9   7   0 2382.62 106.611   3
   7   9   0 1804.30 88.3997   4
   9   7   0 2555.24 127.306   5
   9  -7   2 8250.97 266.922   5
   7   9  -2 7690.04 203.764   3
   9   7   2 6668.08 156.914   3
   7   9  -2 6558.59 174.762   4
   9   7   2 7023.11 179.081   4
  -9  -7   2 7175.98 192.302   7
   7   9  -2 6877.62 183.183   8
   9   7   2 7188.69 184.064   5
   9   7   2 7128.55 178.684   8
   7   9  -4 839.744 81.6892   8
   9  -7   4 691.619 108.217   5
  -9  -7   4 1441.46 100.956   7
   9   7   4 1163.19 87.1264   5
   9   7   4 1223.66 84.2340   8
   9   7   6 4464.51 169.977   8
   7   9  -6 3350.42 145.676   3
  -9  -7   6 4939.51 197.165   7
   9   7   6 3977.78 157.018   5
   9  -7   6 2970.09 218.604   5
   9   7   8 3627.92 155.020   8
  -9  -7   8 2810.06 168.831   7
   7   9  -8 5690.96 181.678   3
   9  -7   8 6759.74 333.386   5
   9   7   8 4836.76 165.790   5
   7   9 -10 10294.5 217.507   3
   9   7  10 10334.7 219.317   5
  -9  -7  12 4320.07 189.400   7
   9  -7  12 4713.47 235.962   5
   9   7  14 8953.25 138.927   8
  -8  -9  13 10305.2 245.144   7
   8   9  13 10145.5 155.478   8
   9   8 -11 4286.14 117.224   3
   8   9  11 5334.92 154.754   8
  -8  -9  11 4876.34 215.428   7
   8  -9  11 3820.44 245.490   5
   8   9   9 22285.1 351.363   8
  -8  -9   9 21217.0 457.811   7
   8  -9   7 3442.09 246.723   5
   9   8  -7 3220.89 144.237   3
  -8  -9   7 2761.96 168.826   7
   8  -9   7 3419.17 240.037   6
   8   9   7 3975.08 157.593   5
   8   9   7 2978.66 134.232   8
  -8  -9   5 1425.20 116.734   7
   8  -9   5 1590.74 155.302   6
   8   9   5 1912.37 117.683   5
   9   8  -3 13732.6 263.388   8
   8  -9   3 17216.6 426.476   5
   9   8  -3 13863.0 280.669   3
   8   9   3 13122.4 247.970   4
  -8  -9   3 11947.7 288.686   7
   8  -9   3 18346.0 428.463   6
   9   8  -1 17908.7 284.973   8
   8   9   1 18470.4 290.623   8
   9   8  -1 18475.1 306.832   3
   9   8  -1 17735.8 287.066   4
   9   8   1 18545.4 288.650   8
   8   9  -1 16393.4 274.353   8
   8   9  -1 16229.9 294.305   3
   8   9  -1 15954.2 267.003   4
   9   8   1 18649.4 292.855   4
   9   8   1 17961.1 279.594   3
   9  -8   3 13159.1 377.997   5
   9   8   3 12158.3 241.817   4
  -9  -8   3 13532.0 295.676   7
   9   8   3 12178.6 238.622   8
   8   9  -3 12939.0 272.811   3
   9  -8   5 1298.26 157.351   5
  -9  -8   5 1207.19 99.3317   7
   9   8   5 1123.35 86.2680   5
   8   9  -7 2628.02 127.625   3
   9  -8   7 2662.77 223.996   5
  -9  -8   7 3009.29 168.359   7
   9   8   7 3015.16 132.973   5
   8   9  -9 18803.0 310.263   3
  -9  -8   9 19051.7 429.354   7
   9   8  11 5117.84 158.804   8
  -9  -8  11 5000.76 204.544   7
   9  -8  11 4777.28 263.642   5
   8   9 -11 4861.20 124.342   3
  -9  -8  13 7793.35 192.313   7
   9   8  13 8275.43 138.412   4
   9   9   0 18474.9 310.330   3
   9   9   0 17994.9 286.469   8
   9   9   2 4337.20 145.689   8
   9   9  -2 4000.91 144.359   4
   9   9  -2 4261.73 159.443   3
   9   9   2 4482.83 148.443   4
   9   9   2 4039.92 130.573   3
  -9  -9   2 3998.39 162.582   7
   9   9  -2 4079.63 146.939   8
   9   9  -4 1120.58 92.0590   3
   9   9   4 734.120 71.3169   4
   9   9   4 987.171 79.7868   8
  -9  -9   4 761.047 81.3442   7
   9   9  -4 659.308 79.6470   8
   9   9  -6 7178.49 213.310   3
   9  -9   6 6976.93 338.248   5
  -9  -9   6 6492.67 225.971   7
   9   9  -8 1037.30 85.7164   3
   9  -9   8 875.308 154.007   5
   9   9   8 1048.00 94.7075   5
   9   9  10 18437.4 291.959   8
  -9  -9  10 18226.2 387.674   7
   9   9  12 2110.16 83.3383   8
  -9  -9  12 2312.55 124.010   7
   0 -10  14 11526.4 325.207   9
   0 -10  12 18198.2 440.653   5
   0 -10  12 20117.8 562.636   6
   0 -10  10 39577.0 820.717   7
   0 -10  10 44795.4 902.126   6
   0 -10   8 53297.2 918.448   7
  10   0  -8 65362.4 748.416   3
   0 -10   6 25589.1 575.203   7
  10   0  -6 28842.3 838.720   3
   0  10   4 91167.1 623.943   3
   0 -10   4 71297.2 919.101   7
   0  10   2 260222. 879.550   8
   0  10   2 260317. 1107.52   3
  10   0   0 185373. 849.900   4
   0  10   0 172654. 723.530   8
   0  10   0 185547. 937.467   3
  10   0   0 173730. 847.197   5
  10   0   2 251208. 1241.03   5
   0  10  -2 258260. 1019.61   8
  10   0   4 85307.7 800.895   5
   0  10  -4 83175.4 651.471   3
   0  10  -6 35109.4 433.799   3
  10   0   6 32306.8 482.229   9
   0  10  -8 66097.0 591.623   3
  10   0   8 68278.5 816.166   9
  10   0  10 50202.0 705.902   5
 -10   0  10 53380.3 631.546   7
 -10   0  12 26042.1 395.008   7
  10   0  12 25791.4 430.705   5
  10   0  14 8320.36 185.865   8
  -1 -10  13 12661.8 394.320   7
   1 -10  13 13321.6 422.494   6
   1 -10  11 9923.75 376.260   5
  -1 -10  11 18545.7 457.086   5
   1 -10  11 8273.27 356.582   7
  -1 -10  11 15799.0 501.693   7
   1 -10  11 9628.68 416.013   6
  -1 -10  11 18148.9 531.787   6
   1 -10   9 3925.81 256.292   7
  -1 -10   9 2939.34 224.859   7
  10   1  -9 5786.83 182.017   3
  10  -1  -9 4719.70 173.154   3
   1  10   9 4664.30 130.870   8
   1  10   7 32266.5 333.790   8
   1 -10   7 25413.8 599.722   7
  -1 -10   7 23409.3 562.825   7
  10   1  -7 33439.3 571.247   3
  10  -1  -7 28671.7 842.716   3
  10  -1  -5 9002.97 503.660   3
   1  10   5 13715.5 208.295   8
   1 -10   5 9338.75 336.401   7
  -1 -10   5 12052.5 396.608   7
  10   1  -5 12081.0 555.525   3
   1  10   3 4643.88 117.378   8
  -1  10   3 4637.48 141.327   3
   1  10   1 8963.23 168.587   8
  10   1  -1 8076.41 180.487   4
  -1  10   1 8215.89 196.833   3
  10   1  -1 8740.99 183.596   5
  10  -1   1 8174.78 206.598   5
   1  10  -1 8671.11 188.438   8
   1  10  -1 8114.01 184.728   2
   1  10  -1 8307.08 201.378   3
  10   1   3 4721.50 171.058   5
   1  10  -3 5177.02 198.782   8
  -1  10  -3 5168.22 162.444   3
  10   1   5 10315.6 290.515   5
  10   1   5 11309.2 260.528   8
  10  -1   5 13708.6 290.152   9
  10  -1   5 14388.8 366.958   5
  -1  10  -5 11558.4 250.526   3
   1  10  -5 15247.7 294.854   3
  10   1   7 32321.9 546.849   5
  -1  10  -7 32914.2 416.746   3
   1  10  -7 34981.6 440.631   3
  10   1   7 32981.3 505.182   9
  10  -1   7 34103.7 554.423   9
  10   1   9 7006.06 271.422   5
  10  -1   9 4388.22 231.513   5
 -10  -1   9 6317.39 221.519   7
  -1  10  -9 6126.04 172.781   3
   1  10  -9 5558.04 172.149   3
  10   1   9 8356.07 295.641   9
  10  -1   9 4535.67 218.002   9
  10   1  11 15203.0 356.585   9
  10   1  11 14311.8 339.316   5
  10   1  13 14422.0 267.671   8
  10  -1  13 11814.8 272.712   8
 -10  -1  13 13322.9 241.290   7
  10   1  13 18114.4 293.686   5
  10  -1  13 18866.8 331.864   5
  -2 -10  14 4824.81 188.563   7
   2 -10  14 5576.74 179.703   9
   2 -10  12 16887.4 471.234   5
   2 -10  12 16054.5 523.564   6
   2  10  10 27563.1 323.946   8
   2 -10  10 23827.5 628.030   5
  10   2 -10 31994.9 368.332   3
   2 -10  10 21164.9 552.778   7
  -2 -10  10 16785.2 524.072   7
   2 -10  10 24540.6 678.065   6
   2  10   8 71834.6 530.760   8
  10  -2  -8 73739.7 1154.42   3
   2 -10   6 32428.2 617.897   7
  -2 -10   6 24308.9 571.808   7
   2  10   6 35238.6 366.898   8
  10  -2  -6 18303.2 698.148   3
  10   2  -6 40348.7 612.195   3
   2 -10   4 67353.4 879.887   7
  -2 -10   4 62266.0 803.210   7
  -2  10   2 63734.8 524.598   3
   2  10   2 61815.4 521.672   3
   2  10   0 674.033 55.0433   8
  10   2   0 339.005 45.0870   4
  10   2   0 277.495 145.722   3
  -2  10   0 280.428 48.2009   3
  10   2   0 739.807 61.6749   5
  10  -2   2 58375.2 612.009   5
   2  10  -2 63071.4 545.739   8
  10   2   2 54881.2 442.497   8
  10   2   2 57174.6 532.327   5
   2  10  -2 60776.4 574.782   3
   2  10  -4 96223.6 1467.72   8
  10  -2   4 84372.9 857.469   5
  10   2   4 75256.8 594.522   8
  -2  10  -4 79111.4 625.840   3
  10   2   4 77926.1 711.571   5
   2  10  -4 91245.5 724.404   3
  10  -2   6 28258.3 555.484   5
  10   2   6 38600.6 521.906   8
  10  -2   6 33582.6 521.920   9
  -2  10  -6 41793.5 475.051   3
   2  10  -6 34472.5 464.884   3
 -10  -2   8 79480.0 766.923   7
  10   2   8 82879.5 826.445   9
  -2  10  -8 82848.0 633.016   3
   2  10  -8 76572.4 673.610   3
  10  -2   8 76481.7 857.625   9
  10   2   8 80144.7 832.444   5
  10  -2  10 24250.0 531.267   5
  10  -2  10 27299.0 519.595   9
  10   2  10 31793.2 519.576   8
 -10  -2  10 31391.9 506.557   7
  10   2  10 33374.2 520.217   9
   2  10 -10 26615.6 349.094   3
  10   2  10 28421.0 474.315   5
  10  -2  12 19577.8 417.501   5
  10   2  12 19768.8 361.514   8
  10   2  12 19476.1 346.559   5
  10   2  14 5265.58 136.381   8
  10  -2  14 7580.74 160.315   5
   3 -10  13 14782.3 346.478   9
   3 -10  13 15338.6 393.540   5
  -3 -10  13 14630.3 409.596   7
   3  10  11 54300.0 441.613   8
  10   3 -11 48658.6 403.123   3
   3 -10  11 38064.5 788.429   5
  -3 -10  11 34266.0 548.409   5
  -3 -10  11 34153.7 733.275   7
   3 -10  11 38117.5 845.878   6
  10   3  -9 99757.2 723.679   3
  10  -3  -9 101174. 955.293   3
  10  -3  -7 27590.5 826.874   3
   3  10   7 65514.3 548.349   8
  10   3  -7 64339.8 632.090   3
  -3 -10   7 40641.8 725.470   7
  10   3  -5 39833.0 550.637   3
   3  10   5 42242.6 420.491   8
  10   3  -3 97146.0 709.471   4
   3  10   3 88157.6 563.587   8
   3  10   3 86305.3 494.601   4
  10   3  -3 81618.2 924.322   3
   3  10   3 94019.9 644.133   3
   3  10   1 26107.5 309.291   8
  10   3  -1 24646.1 292.432   8
   3  10   1 24575.3 264.192   4
  10   3  -1 26330.0 330.546   4
  -3  10   1 26924.0 354.469   3
  10   3  -1 22829.5 526.775   3
  10   3  -1 24535.3 294.128   5
   3  10   1 26319.7 357.210   3
   3  10  -1 28453.0 383.375   3
  10   3   1 24562.0 294.366   8
   3  10  -1 25866.6 329.609   4
   3  10  -1 26221.0 334.092   8
  10   3   1 28263.2 368.850   4
  -3  10  -1 26567.5 351.111   3
  10   3   1 24938.8 476.642   3
  10  -3   1 27598.6 390.777   5
  10   3   1 25064.7 338.966   5
  10   3   3 85787.8 618.274   8
  10   3   3 82514.9 678.320   5
   3  10  -5 43173.0 501.177   3
  10  -3   5 40845.4 652.200   5
  -3  10  -5 39291.0 450.874   3
  10   3   5 41840.4 502.717   8
  10  -3   7 64631.0 895.792   5
  10   3   7 65218.1 685.877   8
 -10  -3   7 68434.2 671.863   7
  10  -3   7 62269.7 707.621   9
  -3  10  -7 67931.2 576.284   3
  10   3   7 65918.5 699.325   5
   3  10  -7 71320.6 665.084   3
  10  -3   9 99366.3 1135.65   5
  10   3   9 99259.1 890.492   8
 -10  -3   9 102384. 918.149   7
  10  -3   9 103103. 997.113   9
  10   3   9 98610.3 871.281   5
 -10  -3  11 54388.5 652.766   7
  10   3  11 55281.2 596.144   5
  10   3  13 20559.1 300.809   8
  10   3  13 20547.2 260.306   5
  -4 -10  14 1151.08 91.3971   7
  -4 -10  12 1935.41 166.739   7
   4  10  12 2317.65 89.0192   8
   4 -10  12 2087.00 184.310   5
  -4 -10  12 2266.06 152.091   6
   4  10  10 1637.77 94.4622   8
   4 -10  10 2009.86 205.852   5
   4 -10   8 8093.34 373.426   5
  10   4  -8 9720.56 237.920   3
  -4 -10   8 7722.52 327.044   7
   4 -10   8 8801.91 392.182   6
   4  10   8 10505.7 225.282   8
  10   4  -6 3754.49 163.911   3
  -4 -10   6 3053.52 197.021   7
   4 -10   6 3607.05 238.729   6
   4  10   4 1339.70 82.2066   8
   4  10   4 1129.92 62.2856   4
   4  10   2 14506.1 237.011   8
  10   4  -2 15316.8 262.930   4
   4  10   2 14047.7 204.884   4
  10   4  -2 13715.5 235.504   8
   4  10   2 15274.3 256.763   3
   4  10   0 5114.66 156.737   3
  10   4   0 5156.81 138.370   8
   4  10   0 4758.72 124.482   4
  10   4   0 5609.82 162.060   4
  -4  10   0 5919.58 171.186   3
  10   4   0 4562.13 170.288   3
  10   4   0 5324.62 150.716   5
   4  10   0 5083.74 144.103   8
   4  10  -2 16816.0 290.932   8
  10   4   2 13271.7 232.895   8
   4  10  -2 14846.0 280.279   3
  10   4   2 11869.2 229.483   3
  -4  10  -2 13137.9 254.235   3
  10  -4   2 16406.6 341.896   5
  10   4   2 14533.9 273.004   5
   4  10  -4 1209.25 109.582   8
  10  -4   4 1237.63 121.754   5
  10   4   4 1650.14 95.5669   8
  -4  10  -4 1915.85 103.037   3
  10   4   4 2087.11 120.626   5
  10  -4   6 4422.01 243.184   5
   4  10  -6 4534.11 173.575   3
  10   4   6 3096.43 140.587   8
 -10  -4   6 3309.31 142.692   7
  -4  10  -6 4997.34 161.305   3
  10   4   6 3767.55 170.227   5
  10   4   8 8785.19 251.551   8
 -10  -4   8 8940.23 266.276   7
  10   4   8 10883.6 296.310   5
  10  -4   8 13132.1 336.998   9
   4  10  -8 11991.7 269.769   3
  10   4  10 2182.77 135.892   8
 -10  -4  10 2410.35 146.808   7
  10  -4  10 1998.56 186.320   5
   4  10 -10 2178.31 108.955   3
  10  -4  10 2053.74 141.545   9
  10  -4  12 3173.91 183.552   5
  10   4  12 1751.78 104.988   8
 -10  -4  12 1632.94 108.946   7
  10   4  12 2834.10 119.435   5
  10  -4  12 3686.36 152.070   9
  10   4  14 864.673 54.3191   8
  10  -4  14 1416.88 75.9570   5
   5 -10  13 29296.6 508.951   5
  -5 -10  13 31411.1 520.417   7
   5 -10  11 24690.2 647.457   5
  -5 -10  11 24648.9 557.911   7
  10   5  -9 82655.4 647.197   3
   5 -10   9 81368.7 1222.51   6
  10  -5  -9 81791.8 1129.67   3
   5  10   7 57950.1 541.211   8
  10   5  -7 55760.4 573.443   3
   5 -10   7 57485.5 950.187   6
   5  10   5 55422.8 514.391   8
  10   5  -5 52679.2 562.828   3
  10   5  -3 54071.7 526.331   4
  10   5  -3 55848.5 505.565   8
   5  10   3 53173.2 435.298   4
   5  10   3 55616.2 481.393   8
   5 -10   3 57285.3 744.445   6
   5  10   1 12173.3 233.227   3
   5  10   1 11773.3 198.437   4
  10   5  -1 12909.4 236.594   4
  10   5  -1 11669.7 252.553   3
  10   5  -1 12855.0 235.991   5
  10   5  -1 12761.8 223.623   8
   5  10  -1 14884.6 279.788   3
   5  10  -1 14665.2 241.614   4
  10   5   1 15331.7 267.206   4
  10   5   1 12901.0 241.692   3
  10  -5   1 16026.3 323.515   5
  10   5   1 13084.6 245.939   5
   5  10  -1 14330.4 254.787   8
  10   5   1 13359.5 235.082   8
   5  10  -3 55376.4 543.440   3
   5  10  -3 55126.5 532.629   8
  10   5   3 50023.9 480.781   8
 -10  -5   3 48701.1 453.334   7
  -5  10  -3 51003.5 502.997   3
  10  -5   3 56174.1 700.812   5
  10   5   3 57528.6 566.749   5
   5  10  -5 48729.2 538.862   3
 -10  -5   5 50433.7 516.165   7
  -5  10  -5 53393.2 516.531   3
  10   5   5 50261.1 519.383   8
  10  -5   5 46822.8 722.146   5
   5  10  -7 56030.1 584.584   3
  10   5   7 56670.1 601.950   8
 -10  -5   7 56473.9 627.023   7
  10   5   7 57482.2 617.459   5
  10   5   9 81069.9 727.862   8
 -10  -5   9 81361.7 801.931   7
   5  10  -9 81857.1 683.870   3
  10  -5  11 31518.7 608.126   5
  10   5  11 32568.6 424.526   8
 -10  -5  11 32263.7 506.228   7
   5  10 -11 30429.4 326.513   3
  10   5  11 34044.4 412.185   5
  10  -5  13 40160.6 490.914   5
  10   5  13 38432.5 381.664   8
  -6 -10  14 6893.54 169.953   7
   6  10  12 8281.56 163.863   8
  -6 -10  12 7414.44 206.874   6
   6 -10  10 8538.88 406.508   5
  10   6 -10 8603.50 191.302   3
  10   6  -8 16517.9 304.182   3
  -6 -10   8 15408.7 407.595   7
   6 -10   8 15680.4 534.076   6
   6  10   6 73289.1 618.755   8
   6 -10   6 71460.7 1020.43   5
   6 -10   6 74009.1 1069.26   6
  10   6  -4 63996.3 617.971   8
   6  10   4 65258.5 554.515   8
   6  10   4 61222.2 501.529   4
  -6 -10   4 60465.1 723.710   7
   6 -10   4 66984.4 874.453   6
   6  10   2 58075.5 496.929   3
  10   6  -2 60581.7 525.076   8
  10   6  -2 57722.3 518.579   4
   6  10   2 59355.5 467.810   4
  10   6  -2 59945.9 581.020   3
   6  10   0 43887.9 462.577   3
   6  10   0 43213.9 435.256   8
   6  10   0 43327.9 412.412   4
  10   6   0 46005.9 479.110   3
  10   6   0 46426.6 452.273   4
  10   6   0 45607.5 435.715   8
   6  10  -2 57164.4 575.381   4
  10   6   2 56555.7 519.487   4
 -10  -6   2 56405.3 495.256   7
  10   6   2 56633.6 503.661   8
  10   6   2 57548.7 530.097   5
  10   6   4 56042.6 527.551   8
 -10  -6   4 53999.1 521.662   7
  10  -6   6 74934.8 1002.42   5
  10   6   6 72803.7 670.669   8
   6  10  -6 72482.3 665.532   3
 -10  -6   6 73899.8 702.793   7
   6  10  -8 18989.9 327.581   3
  10  -6   8 20980.0 556.790   5
  10   6   8 15617.4 311.833   8
 -10  -6   8 17079.1 372.846   7
  10   6   8 19425.1 346.200   5
  10   6  10 8929.83 232.303   8
 -10  -6  10 8681.97 265.601   7
  10   6  10 10496.6 227.479   5
   6  10 -10 10347.7 216.543   3
  10   6  12 5470.23 153.811   8
 -10  -6  12 4622.06 172.506   7
  10  -6  12 7533.38 264.022   5
  10   6  12 8181.36 169.163   5
   7  10  13 3421.42 83.1051   8
  -7 -10  13 2767.00 130.839   7
   7 -10  11 8516.31 368.598   5
  10   7 -11 7858.10 154.023   3
  -7 -10  11 5010.14 220.873   7
   7  10  11 5807.35 137.286   4
   7  10  11 6503.70 160.136   8
  10   7  -9 1867.49 106.292   3
  -7 -10   9 1423.52 140.048   7
   7  10   9 1496.61 94.8386   8
   7 -10   9 1844.16 197.647   6
   7  10   7 6269.20 187.042   8
   7 -10   7 6681.17 338.060   5
  10   7  -7 5835.26 186.661   3
  -7 -10   7 5897.32 246.071   7
   7 -10   7 6621.94 343.942   6
  10   7  -5 6419.72 464.991   8
   7  10   5 13695.7 268.788   8
   7 -10   5 18407.8 522.245   5
   7  10   5 13304.6 247.183   4
  -7 -10   5 12020.8 329.983   7
   7 -10   5 18908.1 520.858   6
   7  10   3 51790.1 489.474   8
  10   7  -3 52736.4 593.881   4
  10   7  -3 51296.7 543.128   3
   7  10   3 51198.1 473.312   4
  10   7  -3 52502.7 510.338   8
  -7 -10   3 50774.1 629.822   7
   7  10   1 10842.6 227.974   3
   7 -10   1 14128.0 341.954   5
  10   7  -1 11669.1 245.869   3
  10   7  -1 13469.2 246.285   8
  10   7  -1 11218.8 229.304   4
   7  10   1 9953.72 212.331   8
   7  10   1 11090.0 210.185   4
  10   7   1 11565.7 227.276   8
  10   7   1 10975.4 224.322   3
   7  10  -1 10017.1 204.144   4
 -10  -7   1 10547.1 217.618   7
  10   7   1 12703.1 252.911   5
   7  10  -1 11675.9 249.906   3
   7  10  -3 48499.6 527.057   3
 -10  -7   3 48994.7 503.053   7
  10   7   5 13427.1 267.690   8
 -10  -7   5 13539.6 288.212   7
  10   7   5 13840.6 274.506   5
   7  10  -7 7457.00 215.445   3
  10  -7   7 7129.17 327.648   5
  10   7   7 6478.66 197.253   8
 -10  -7   7 6640.28 224.829   7
  10   7   7 7796.70 212.405   5
   7  10  -9 2071.08 110.998   3
  10   7   9 1374.75 101.679   8
 -10  -7   9 1683.00 128.732   7
  10   7   9 2329.39 116.285   5
  10   7  11 6796.89 178.732   8
 -10  -7  11 7781.48 231.433   7
  10  -7  11 3934.51 227.574   5
   7  10 -11 4449.10 117.621   3
  10  -7  13 3628.37 143.287   5
  10   7  13 3722.76 105.628   4
   8  10  12 32523.9 289.894   8
   8 -10  12 32678.6 563.464   5
  -8 -10  10 67654.1 781.653   7
   8  10  10 68308.7 512.472   4
   8  10   8 56757.7 537.882   8
  -8 -10   8 53387.2 706.922   7
  10   8  -8 52084.9 528.359   3
   8 -10   8 55883.7 970.819   5
   8  10   6 48460.7 508.435   8
   8 -10   6 48642.0 878.245   5
  10   8  -6 45028.0 518.081   3
   8  10   6 46166.6 476.489   4
  -8 -10   6 46890.1 634.192   7
   8 -10   6 46799.9 826.136   6
  10   8  -4 35355.1 486.022   8
   8  10   4 32907.6 399.788   8
   8 -10   4 38615.6 702.275   5
  10   8  -4 35541.2 458.199   3
   8  10   4 38410.3 418.195   4
  -8 -10   4 37114.9 542.156   7
   8 -10   4 41114.0 698.192   6
  10   8  -2 76476.9 657.638   3
   8  10   2 77655.2 576.264   4
  10   8  -2 77001.6 617.941   8
  10   8   0 45482.6 451.923   8
   8  10   0 43468.2 466.339   3
  10   8   0 42978.8 464.894   3
   8  10   0 44882.1 443.301   4
   8  10  -2 82115.6 676.136   3
  10   8   2 78626.0 580.059   3
   8  10  -2 83923.7 670.737   8
  10   8   2 84240.5 645.334   4
 -10  -8   2 80385.5 672.297   7
  10   8   2 84546.4 631.853   8
   8  10  -4 32101.5 435.456   3
  10  -8   4 35792.8 664.004   5
  10   8   4 30770.3 391.645   8
  10   8   4 33899.3 424.207   4
 -10  -8   4 30886.5 436.692   7
   8  10  -4 31992.8 487.901   8
  10   8   4 36528.8 433.293   5
  10  -8   6 46695.6 810.385   5
  10   8   6 46258.7 501.251   8
   8  10  -8 49216.7 507.036   3
  10   8   8 49983.5 524.095   8
 -10  -8   8 50404.9 605.406   7
 -10  -8  10 60726.3 653.695   7
   8  10 -10 62407.1 497.997   3
  10  -8  12 33703.0 505.414   5
  10   8  12 33459.4 311.984   4
  -9 -10  11 4335.18 167.380   7
   9  10  11 4172.22 115.873   8
   9  10  11 3960.51 104.085   4
   9  10   9 5629.16 160.587   8
  -9 -10   9 5254.97 216.862   7
   9  10   9 5403.22 147.001   4
   9  10   7 13541.8 260.502   8
  -9 -10   7 14096.4 335.733   7
   9  10   7 14237.2 254.137   4
  10   9  -7 14301.9 279.012   3
   9  10   5 16501.3 288.224   4
  -9 -10   5 15574.5 342.435   7
  10   9  -3 3025.25 141.104   3
  -9 -10   3 3167.33 156.476   7
  10   9  -3 3087.26 130.518   8
   9  10   1 15929.2 272.882   3
  10   9  -1 16637.2 301.306   3
  10   9  -1 15041.0 266.108   4
   9  10   1 17980.5 290.078   4
   9  10   1 16760.8 284.007   8
  10   9  -1 15578.6 276.316   8
   9  10  -1 16814.3 288.979   8
   9  10  -1 16901.0 301.697   3
  10   9   1 15421.5 267.184   3
   9  10  -1 15915.8 277.474   4
  10   9   1 16582.9 279.263   4
 -10  -9   1 14667.5 280.983   7
  10   9   1 16439.8 283.304   8
   9  10  -3 3161.09 133.889   8
   9  10  -3 3195.46 143.009   3
  10   9   3 3527.55 137.137   4
  10   9   3 3271.14 130.886   8
  10   9   5 17425.3 296.091   8
  10   9   5 18182.7 304.925   4
 -10  -9   5 17666.3 337.937   7
  10  -9   5 17997.6 496.883   5
  10  -9   7 16145.9 500.257   5
  10   9   7 13055.5 264.158   8
 -10  -9   7 14592.7 328.618   7
  10   9   7 16190.9 295.081   4
   9  10  -7 13347.6 270.715   3
   9  10  -9 5398.03 155.767   3
  10  -9   9 4194.18 256.920   5
 -10  -9   9 8228.09 248.225   7
  10   9   9 7344.41 187.379   4
  10   9  11 3620.34 106.815   4
   9  10 -11 3460.17 88.0312   3
  10  10   0 3948.06 141.289   8
  10  10   0 4119.87 142.946   4
  10  10   2 16047.2 262.546   3
  10  10  -2 17655.6 314.271   3
  10  10  -2 16751.3 291.433   8
  10  10  -2 16193.8 318.962   4
  10  10   2 18250.2 300.293   8
  10  10   2 18232.1 291.209   4
 -10 -10   2 18465.9 345.981   7
  10  10  -4 18834.0 490.796   8
  10  10   4 16182.4 284.088   8
  10  10  -4 15086.0 297.527   3
  10 -10   4 19131.8 492.459   5
  10  10   4 17798.6 293.757   4
 -10 -10   4 14669.9 307.099   7
  10  10   6 20097.0 308.270   4
 -10 -10   6 19686.6 369.168   7
  10  10  -8 24232.1 340.840   3
 -10 -10   8 24860.5 407.408   7
  10  10   8 27607.9 340.429   4
  10 -10   8 28130.1 620.773   5
 -10 -10  10 23902.2 367.970   7
  10  10  10 23895.5 280.498   8
  10 -10  12 19186.2 299.598   5
  10  10  12 13261.7 153.349   8
   0 -11  13 6910.66 239.822   7
   0 -11  13 10778.9 360.498   6
   0 -11  11 53669.4 849.692   5
   0 -11  11 54022.3 964.361   6
   0 -11   9 67686.6 1047.86   7
  11   0  -9 98704.5 740.217   3
   0 -11   7 15648.8 484.337   7
  11   0  -7 22582.9 533.696   3
   0 -11   5 41472.4 766.927   7
  11   0  -5 34490.3 944.145   3
   0  11   3 180653. 935.070   3
   0  11   1 412290. 1178.73   8
   0  11   1 433055. 1476.95   3
  11   0   1 405578. 1368.84   4
   0  11  -1 411706. 1267.23   8
  11   0   3 190261. 1128.12   5
  11   0   3 102453. 1356.76   3
  11   0   5 53557.7 680.094   5
  11   0   5 52580.9 500.115   8
  11   0   7 28232.7 453.702   8
   0  11  -7 28551.2 412.668   3
  11   0   9 92938.4 929.252   5
   0  11  -9 98270.4 705.481   3
  11   0  11 67671.1 698.882   8
  11   0  11 78404.8 788.615   5
  11   0  13 5811.51 147.167   8
  11   0  13 11248.3 222.938   5
   1 -11  12 5864.45 262.392   5
  -1 -11  12 6076.46 230.093   5
   1 -11  12 6563.96 327.785   6
  -1 -11  12 6282.11 295.619   6
   1 -11  10 16788.6 531.230   5
  -1 -11  10 16279.7 524.696   7
   1 -11  10 15231.9 523.915   6
  -1 -11   8 4497.01 271.175   7
  11   1  -8 4576.26 180.963   3
   1  11   6 16230.0 224.001   8
   1 -11   6 13397.1 432.595   7
  -1 -11   6 11853.6 406.089   7
  11   1  -6 18037.1 482.050   3
  11  -1  -6 10289.4 558.044   3
   1  11   4 20843.5 253.727   8
  11  -1  -4 15225.7 652.816   3
   1 -11   4 13826.3 423.503   7
  -1 -11   4 19139.7 493.516   7
  11   1  -2 32016.1 382.259   4
   1  11   2 31369.5 391.133   3
  11   1   0 14209.6 253.246   4
  -1  11   0 13739.5 274.062   3
   1  11   0 16129.3 241.730   8
   1  11   0 18104.9 312.652   3
  11   1   0 13914.1 244.963   5
  11  -1   0 16785.0 257.519   5
   1  11  -2 30287.0 373.883   8
  11   1   2 29873.3 413.502   5
  11   1   4 19575.5 378.549   5
  11  -1   4 25973.5 456.342   5
  11   1   4 17839.0 274.084   8
  -1  11  -4 20394.9 337.011   3
   1  11  -4 25124.3 381.038   3
  11   1   6 17606.6 400.400   5
  11  -1   6 16733.1 403.657   5
  11   1   6 17009.1 315.537   8
   1  11  -6 17784.0 330.632   3
  11   1   8 3552.59 168.262   8
  11   1   8 4408.97 214.615   5
  11  -1  10 22727.3 468.206   5
  11  -1  10 23299.6 438.897   8
   1  11 -10 23947.7 322.610   3
  11   1  12 7387.44 207.040   8
  11   1  12 7443.50 212.043   5
   2 -11  13 4951.74 199.390   5
  -2 -11  13 5105.95 225.510   7
   2 -11  13 5437.16 267.794   6
   2 -11  11 22177.2 576.407   5
  -2 -11  11 18729.3 433.688   5
  -2 -11  11 18192.7 526.835   7
   2 -11  11 20848.1 614.031   6
  -2 -11  11 21024.6 567.195   6
   2  11   9 69534.4 495.877   8
  11   2  -9 73970.8 637.453   3
   2 -11   9 49523.7 855.021   7
  -2 -11   9 44511.5 844.923   7
  11  -2  -9 67233.0 665.826   3
   2  11   7 10827.5 203.671   8
   2 -11   7 8553.88 353.885   7
  -2 -11   7 6559.49 307.037   7
  11   2  -7 11472.9 291.336   3
  11  -2  -7 6920.60 455.679   3
   2  11   5 97268.3 581.850   8
   2 -11   5 75510.5 961.224   7
  -2 -11   5 81642.1 1020.10   7
  11   2  -5 101904. 1040.41   3
   2  11   3 19459.5 261.103   8
  -2  11   3 21697.5 323.317   3
   2  11   3 20148.3 318.198   3
  11   2  -3 20923.3 653.401   3
  11   2  -1 96469.8 659.981   4
  -2  11   1 96285.8 695.936   3
   2  11   1 95209.7 700.933   3
  11   2  -1 95827.8 596.376   5
  11  -2   1 87909.5 684.229   5
  11   2   1 90921.3 668.556   4
   2  11  -1 89855.3 626.101   8
  -2  11  -1 92919.9 708.265   3
   2  11  -1 92666.3 729.125   3
  11   2   1 90129.9 652.803   5
   2  11  -3 26879.9 468.297   8
  11  -2   3 20949.1 394.556   5
  11   2   3 22508.4 304.996   8
  -2  11  -3 25101.5 375.210   3
  11   2   3 21815.9 359.263   5
  11  -2   5 97787.0 962.770   5
  11   2   5 97123.3 716.921   8
  -2  11  -5 104143. 770.601   3
   2  11  -5 112505. 844.279   3
  11   2   5 106433. 897.308   5
  11   2   7 11500.6 273.448   8
  -2  11  -7 11699.9 247.039   3
   2  11  -7 11435.1 266.976   3
  11   2   9 67302.8 684.262   8
  -2  11  -9 74508.0 576.439   3
   2  11  -9 75532.9 645.602   3
  11  -2   9 66107.9 718.063   9
  11   2   9 72508.4 756.277   5
  11  -2  11 26566.3 487.206   5
  11   2  11 28741.8 416.359   8
  11  -2  11 24115.6 398.430   8
  11   2  11 30915.6 468.794   5
  11   2  13 5423.99 152.084   8
  11   2  13 6256.63 150.804   5
   3 -11  12 23870.5 548.137   5
   3 -11  12 23586.9 610.463   6
   3  11  10 79533.0 529.817   8
   3 -11  10 59337.7 1023.53   5
  11   3 -10 76729.4 563.324   3
  -3 -11  10 51328.2 869.924   7
  11   3  -8 56981.8 581.932   3
   3  11   8 56689.5 480.201   8
  11  -3  -6 50374.8 1160.31   3
   3  11   6 71251.5 544.073   8
  -3 -11   6 53887.1 831.976   7
  11   3  -6 76539.0 738.905   3
   3  11   4 86793.1 575.422   8
  -3 -11   4 72488.2 886.493   7
   3  11   2 99703.0 616.324   8
  11   3  -2 95470.6 687.628   4
  -3  11   2 100411. 710.506   3
  11   3  -2 94248.0 1027.37   3
   3  11   2 104956. 727.254   3
   3  11   0 120152. 702.789   8
   3  11   0 108427. 646.699   4
  11   3   0 127760. 782.468   4
  -3  11   0 121845. 794.855   3
  11   3   0 110804. 1032.71   3
  11   3   0 119476. 721.730   5
   3  11   0 126011. 836.286   3
  11  -3   2 98881.3 806.374   5
   3  11  -2 99617.0 692.791   8
  11   3   2 90147.1 594.689   8
  11   3   2 85672.7 738.612   3
  11   3   2 107938. 756.675   5
   3  11  -2 106659. 788.840   3
  11  -3   4 91971.1 919.949   5
  11   3   4 79642.0 642.322   8
   3  11  -4 98433.1 1626.03   8
  -3  11  -4 83589.8 674.880   3
  11   3   4 88766.8 758.792   5
  11  -3   6 72319.7 922.614   5
  11   3   6 71416.4 654.966   8
  -3  11  -6 74068.9 635.745   3
  11   3   8 62610.3 673.675   8
   3  11  -8 62882.3 606.646   3
  11   3   8 62328.3 708.913   5
  11   3  10 80541.3 715.821   8
   3  11 -10 82728.9 613.094   3
  11   3  10 80484.9 744.363   5
  11   3  12 28274.2 356.110   8
  11   3  12 28168.7 362.961   5
  -4 -11  13 518.880 77.4988   7
  -4 -11  13 553.911 56.8016   6
  11   4 -11 6735.21 141.999   3
   4 -11  11 6907.63 341.435   5
   4  11   9 10126.0 206.460   8
   4 -11   9 8864.46 399.199   5
  11   4  -9 11680.5 245.447   3
  -4 -11   9 7101.31 315.435   7
   4 -11   9 8776.47 396.873   6
  11  -4  -9 10081.6 304.448   3
   4  11   7 4089.75 139.830   8
  11  -4  -7 1792.56 273.329   3
  11   4  -7 4683.82 176.392   3
  -4 -11   7 2796.42 191.245   7
   4 -11   7 4811.25 286.566   6
   4  11   5 3952.04 133.792   8
   4  11   5 3926.62 113.740   4
  11   4  -5 3898.61 167.771   3
   4  11   3 8044.91 184.362   8
  11   4  -3 7349.68 217.720   4
   4  11   3 6724.79 141.072   4
  11   4  -3 6314.86 215.821   3
   4  11   3 7965.72 193.680   3
  11   4  -1 3522.19 119.058   8
   4  11   1 3105.33 116.975   8
   4  11   1 2745.61 94.0751   4
  11   4  -1 3536.75 133.424   4
  11   4  -1 2709.11 143.046   3
  11   4  -1 3180.71 111.955   5
   4  11   1 2956.33 125.582   3
  11  -4   1 3122.93 134.500   5
   4  11  -1 3163.00 124.528   8
  11   4   1 3815.89 124.114   8
  11   4   1 3687.85 137.001   4
  11   4   1 3078.39 135.617   3
  11   4   1 3374.40 131.267   5
   4  11  -1 3332.59 140.368   3
   4  11  -3 8130.00 221.869   3
   4  11  -3 8959.15 234.821   8
  11  -4   3 9727.17 291.055   5
  11   4   3 6483.80 174.653   8
  -4  11  -3 6267.95 187.411   3
  11   4   3 7309.17 209.181   5
   4  11  -5 4277.24 167.143   3
  11   4   5 4254.84 157.636   8
  -4  11  -5 4386.99 160.770   3
  11   4   7 4275.55 163.724   8
 -11  -4   7 4194.61 161.569   7
  11  -4   7 4577.31 248.795   5
  11   4   7 4651.59 185.846   5
   4  11  -7 4759.52 179.303   3
  11   4   9 11264.5 269.353   8
 -11  -4   9 10265.7 259.642   7
   4  11  -9 10537.8 235.239   3
  11   4   9 11155.2 285.472   5
  11   4  11 7049.91 193.165   8
 -11  -4  11 7251.53 201.219   7
  11   4  11 6642.43 190.474   5
  11   4  13 703.243 52.7873   8
  11  -4  13 1021.29 80.4608   5
   5  11  12 27661.4 254.503   8
  -5 -11  12 21919.1 446.057   7
  -5 -11  12 23456.3 393.300   6
   5 -11  12 26236.9 565.160   5
   5  11  10 84800.3 580.651   8
  11   5 -10 78861.9 569.754   3
   5 -11  10 63434.5 1019.22   5
  -5 -11  10 60506.3 842.399   7
   5 -11  10 75363.4 1173.40   6
   5  11   8 63078.6 538.085   8
  11   5  -8 64621.6 581.478   3
  -5 -11   8 36501.0 652.422   7
   5  11   8 58844.1 456.491   4
   5 -11   8 64734.7 1067.25   6
  11  -5  -8 28900.2 791.621   3
   5  11   6 59416.3 527.785   8
  11   5  -6 58414.6 601.354   3
   5  11   4 114902. 636.425   4
  11   5  -4 112595. 844.284   3
   5  11   2 49971.1 465.209   8
  11   5  -2 52779.4 495.981   4
   5  11   2 47052.5 394.952   4
  11   5  -2 49681.0 546.374   3
   5 -11   2 60495.2 728.560   6
   5  11   2 51001.4 494.486   3
  11   5  -2 56993.8 512.490   8
   5  11   0 111891. 773.489   3
   5  11   0 113258. 717.551   8
  11   5   0 115453. 700.890   8
  11   5   0 112936. 726.582   4
  11   5   0 109058. 776.866   3
  11   5   0 116069. 723.711   5
   5  11  -2 48305.7 533.125   3
   5  11  -2 48812.0 508.437   8
  11   5   2 46392.0 448.043   8
  11   5   2 47486.4 461.625   3
  11  -5   2 52667.3 637.084   5
  11   5   2 49675.2 498.723   4
  -5  11  -2 45435.6 494.123   3
  11   5   2 48874.8 490.821   5
   5  11  -4 112040. 1067.42   8
  11  -5   4 121832. 1143.11   5
  11   5   4 116829. 761.486   8
  -5  11  -4 114720. 781.520   3
  11   5   4 118391. 839.572   5
  11  -5   6 58744.9 860.670   5
  11   5   6 60060.7 594.735   8
  11   5   8 68900.4 640.205   8
 -11  -5   8 60958.6 622.611   7
  11  -5   8 59567.1 899.490   5
  11   5   8 71013.4 681.332   5
   5  11  -8 63957.9 606.486   3
  11   5  10 89983.1 703.311   8
 -11  -5  10 80311.3 718.055   7
   5  11 -10 78068.3 578.147   3
  11   5  10 88788.1 689.279   5
  11  -5  12 29103.1 474.788   5
  11   5  12 28843.4 324.332   8
 -11  -5  12 26332.6 329.891   7
  11   5  12 27299.3 290.863   5
  -6 -11  13 8547.07 217.298   7
   6 -11  13 8501.67 228.642   5
  11   6 -11 12051.1 184.576   3
   6 -11  11 12368.0 437.466   5
   6  11   9 36543.5 406.062   8
  11   6  -9 28566.0 371.736   3
   6  11   9 30232.4 315.454   4
   6 -11   9 27875.2 705.565   6
  11  -6  -9 33798.7 618.927   3
   6  11   7 57807.4 530.850   8
   6 -11   7 60511.9 1012.74   5
  11   6  -7 58114.1 577.480   3
   6  11   7 55501.4 461.197   4
   6 -11   7 61297.2 1018.97   6
   6  11   5 47662.9 472.669   8
   6 -11   5 55781.4 904.797   5
   6  11   5 49287.8 441.036   4
  -6 -11   5 42681.2 636.511   7
   6 -11   5 54368.7 894.879   6
  11   6  -3 86964.6 650.201   8
  11   6  -3 94242.0 791.893   4
  11   6  -3 90171.6 733.800   3
   6  11   3 81434.1 555.654   4
  -6 -11   3 79602.1 830.829   7
   6 -11   3 104851. 1043.40   6
   6  11   3 91695.3 654.263   8
  11   6  -1 84065.6 613.243   8
   6  11   1 85095.3 626.035   8
  11   6  -1 86192.0 646.376   4
   6  11  -1 81814.2 668.669   3
   6  11  -1 80533.4 631.912   8
  11   6   1 88948.2 626.792   8
   6  11  -1 81895.1 643.144   4
  11   6   1 78020.3 603.862   3
  11   6   1 89582.8 667.930   4
  11   6   1 84930.4 637.376   5
  11  -6   3 91945.5 933.144   5
   6  11  -3 89526.6 730.730   3
  11   6   3 82031.0 618.103   8
  11   6   3 84475.7 684.999   4
   6  11  -3 83908.5 669.594   8
  11   6   3 86725.6 675.851   5
  11  -6   5 54097.2 800.720   5
  11   6   5 50760.9 516.689   8
   6  11  -7 55478.8 566.603   3
  11   6   7 53275.7 533.378   8
 -11  -6   7 54491.4 601.275   7
  11  -6   7 60968.5 917.686   5
  11   6   7 61980.5 610.793   5
  11   6   9 34739.0 434.791   8
  11  -6   9 42035.7 745.827   5
 -11  -6   9 30154.9 443.539   7
  11   6   9 39871.1 460.896   5
   6  11  -9 36414.9 423.675   3
  11  -6  11 12812.3 355.999   5
  11   6  11 12639.0 234.203   8
 -11  -6  11 10172.8 228.714   7
   6  11 -11 10922.0 172.876   3
  11   6  11 13933.6 228.061   5
  11   6  13 7168.93 134.882   8
  11   6  13 5933.89 128.009   4
   7 -11  12 8474.48 285.571   5
   7  11  12 10702.0 152.720   8
  -7 -11  10 4093.05 205.627   7
   7  11  10 4277.59 112.389   4
   7  11   8 13336.1 247.445   8
   7 -11   8 14868.3 491.820   5
  11   7  -8 14941.5 281.795   3
  -7 -11   8 11680.9 347.381   7
   7  11   8 13633.3 227.992   4
   7 -11   8 15927.1 520.195   6
   7  11   6 5448.26 167.799   8
   7 -11   6 7364.34 354.172   5
  11   7  -6 6375.38 198.415   3
   7  11   6 5887.80 159.159   4
  -7 -11   6 4539.58 209.378   7
   7 -11   6 7137.64 335.220   6
  11   7  -4 63587.1 755.430   8
   7 -11   4 75877.4 1008.59   5
  11   7  -4 65279.0 624.331   3
   7  11   4 62625.7 511.775   4
  -7 -11   4 57938.5 731.273   7
   7  11   4 62643.6 549.100   8
   7 -11   4 79072.8 1015.02   6
  11   7  -2 16667.2 285.306   8
   7  11   2 14524.9 261.253   8
  11   7  -2 15353.6 279.542   4
  11   7  -2 15907.8 303.659   3
   7  11   2 14031.5 237.092   4
   7  11   2 13537.9 253.337   3
   7  11   0 12652.3 258.742   3
   7  11   0 12526.1 248.101   8
  11   7   0 15454.8 261.824   8
  11   7   0 15238.3 277.286   3
   7  11   0 11236.5 215.888   4
  11   7   0 15791.7 276.683   4
   7  11  -2 14158.3 291.511   3
  11   7   2 15984.0 272.754   8
  11   7   2 14354.0 246.300   3
  11   7   2 14596.5 272.676   4
 -11  -7   2 14810.4 257.086   7
  11  -7   2 13970.8 343.595   5
  11   7   2 15343.3 275.539   5
   7  11  -4 60726.8 620.697   3
  11  -7   4 64423.4 862.291   5
  11   7   4 65675.3 564.673   8
 -11  -7   4 58688.9 537.192   7
  11  -7   6 5362.52 281.736   5
  11   7   6 7365.21 201.134   8
   7  11  -6 5790.52 187.322   3
 -11  -7   6 7057.24 208.429   7
  11   7   6 7077.57 201.007   5
   7  11  -8 13989.8 276.548   3
  11  -7   8 14745.7 458.842   5
  11   7   8 16448.0 295.382   8
 -11  -7   8 16225.0 328.205   7
  11   7   8 17246.2 302.057   5
  11   7  10 2395.80 109.273   8
 -11  -7  10 1873.44 110.988   7
  11   7  10 3305.79 120.732   5
   7  11 -10 3113.21 110.476   3
  11   7  12 8542.67 159.578   8
  11   7  12 8840.29 167.120   4
  -8 -11  11 63691.2 654.562   7
   8 -11  11 62935.5 838.512   5
  11   8  -9 37897.1 397.398   3
   8  11   9 41249.0 406.596   8
   8 -11   9 44129.8 837.819   5
  -8 -11   9 40114.6 574.940   7
   8  11   9 44244.9 386.807   4
   8  11   7 32879.8 389.906   8
  11   8  -7 32336.4 422.059   3
   8  11   7 33448.4 369.525   4
   8  11   5 29752.3 380.505   8
   8 -11   5 35634.1 726.049   5
   8  11   5 30385.2 363.317   4
  -8 -11   5 27247.8 470.347   7
   8 -11   5 33426.4 683.800   6
  11   8  -3 82483.1 697.647   3
   8  11   3 82177.6 589.123   4
  -8 -11   3 82425.9 805.413   7
  11   8  -1 108824. 723.500   8
   8  11   1 106681. 679.338   4
   8  11  -1 108573. 794.695   3
  11   8   1 112545. 734.857   8
  11   8   1 110741. 734.862   3
   8  11  -1 106282. 762.699   4
 -11  -8   1 107730. 725.609   7
   8  11  -3 81734.7 683.407   8
   8  11  -3 79219.3 684.252   3
  11  -8   3 96991.3 999.392   5
  11   8   3 84181.7 637.154   8
 -11  -8   3 77463.7 628.642   7
  11   8   3 93973.5 795.557   5
  11   8   5 30566.0 390.215   8
  11   8   5 31389.2 408.929   4
   8  11  -7 29801.9 408.657   3
  11  -8   7 32106.3 659.021   5
  11   8   7 31299.1 396.051   8
 -11  -8   7 30183.5 431.415   7
  11   8   7 34719.7 456.358   4
  11   8   7 34593.0 419.377   5
  11  -8   9 46175.6 755.898   5
  11   8   9 43392.8 440.096   8
 -11  -8   9 38109.1 471.869   7
  11   8   9 48399.1 499.349   4
   8  11  -9 41344.8 428.856   3
  11   8  11 63668.4 446.029   8
  11   8  11 64560.9 455.888   4
   9  11  10 9465.69 174.031   8
  -9 -11  10 9902.65 252.223   7
   9  11  10 9382.88 154.368   4
   9  11   8 8635.25 190.130   8
  -9 -11   8 8269.89 254.506   7
   9  11   8 8542.23 179.648   4
   9  11   6 7158.90 184.691   8
   9  11   6 7520.43 180.868   4
  11   9  -4 3353.71 148.702   3
   9  11   4 3049.03 116.448   4
  -9 -11   4 3231.58 162.331   7
  11   9  -2 33452.1 441.694   3
  -9 -11   2 34058.4 491.257   7
   9  11   2 33433.4 388.418   3
   9  11   0 18505.5 309.370   3
   9  11   0 17222.5 292.195   8
  11   9   0 18499.5 317.599   3
   9  11   0 17794.6 293.003   4
  11   9   0 17323.3 285.630   8
   9  11  -2 31919.4 403.527   8
  11   9   2 32255.4 394.737   8
  11   9   2 31200.6 386.167   4
   9  11  -2 32741.6 430.344   3
  11  -9   4 4993.20 245.976   5
  11   9   4 4120.71 145.156   8
  11   9   4 4130.98 148.857   4
 -11  -9   4 3366.75 137.510   7
   9  11  -4 2937.22 240.206   8
   9  11  -4 4172.96 160.007   3
  11  -9   6 8465.36 338.885   5
  11   9   6 7311.65 187.742   8
 -11  -9   6 7396.67 211.780   7
  11   9   6 8187.55 206.157   4
   9  11  -8 7404.88 189.593   3
  11   9   8 7704.23 184.637   8
 -11  -9   8 7325.04 215.656   7
  11   9  10 8505.73 168.529   8
 -11  -9  10 8402.21 202.861   7
   9  11 -10 8881.59 160.816   3
  10  11  11 26943.9 228.555   8
 -10 -11  11 24562.1 278.417   7
  11  10  -9 25697.9 295.777   3
  10  11   9 26113.4 298.591   8
 -10 -11   9 26405.7 389.444   7
  10  11   9 26743.3 277.108   4
 -10 -11   7 34754.7 479.434   7
  11  10  -7 34345.0 404.122   3
  11  10  -5 18680.3 316.346   3
 -10 -11   5 19185.3 348.058   7
  10  11   3 30526.4 385.202   8
  10  11   3 34370.5 392.056   4
 -10 -11   3 32032.5 452.479   7
  11  10  -3 33172.4 431.407   3
  10  11   1 26946.4 355.164   3
  11  10  -1 28066.8 368.299   8
  10  11   1 26527.2 354.363   8
  11  10  -1 27466.0 380.069   3
  10  11   1 26830.1 348.026   4
 -10 -11   1 24977.4 391.187   7
 -11 -10  -1 26206.3 346.051   7
  11  10   1 28822.6 365.554   3
  11  10   1 28039.2 361.683   8
  10  11  -1 28016.2 409.485   4
  11  10   1 28640.3 366.732   4
 -11 -10   1 28039.3 386.076   7
  10  11  -1 27632.1 392.135   3
  10  11  -3 34177.0 450.391   8
  10  11  -3 33349.8 433.015   3
  11  10   3 35546.8 410.383   8
  11  10   3 35828.2 403.600   4
 -11 -10   3 34015.5 421.068   7
  10  11  -5 18447.4 321.777   3
  11  10   5 19134.7 298.815   8
 -11 -10   5 18813.1 330.581   7
  10  11  -7 32680.6 390.481   3
  11 -10   7 39082.6 694.484   5
  11  10   7 34308.5 374.953   8
 -11 -10   7 34647.9 449.164   7
  11  10   7 38114.9 397.263   4
  11 -10   9 32412.5 582.455   5
  11  10   9 32801.1 329.396   4
  11 -10  11 32376.5 409.823   5
  11  11   0 89560.0 654.842   3
  11  11   0 87885.8 659.281   4
 -11 -11   0 88666.8 663.168   7
  11  11  -2 95592.6 694.518   8
  11  11   2 93447.0 647.982   8
  11  11   2 98772.1 660.660   4
 -11 -11   2 96631.1 714.744   7
  11  11  -2 99856.9 732.696   3
  11  11   4 4247.35 142.500   8
  11  11   4 4449.24 140.518   4
 -11 -11   4 4221.02 151.273   7
  11  11  -4 4320.17 159.304   3
  11  11   6 53769.1 451.656   4
 -11 -11   6 53440.0 539.135   7
  11  11  -8 21278.8 276.837   3
  11  11   8 21768.3 258.302   4
 -11 -11   8 22128.4 328.733   7
  11 -11  10 56737.8 577.740   5
  11  11  10 38015.6 288.308   8
   0 -12  12 723.313 90.1220   5
   0 -12  12 847.184 98.2869   7
   0 -12  12 1014.75 137.104   6
   0 -12  10 4369.55 268.383   5
   0 -12  10 3765.26 249.841   7
   0 -12  10 4180.99 277.408   6
   0 -12   8 2898.79 225.953   7
  12   0  -8 4013.79 172.678   3
   0 -12   6 21231.1 580.387   7
  12   0  -6 30811.4 720.793   3
   0  12   4 24697.2 349.285   3
   0 -12   4 17676.4 503.534   7
  12   0  -2 4738.94 412.946   3
   0  12   2 11715.8 253.702   3
   0  12   0 12175.8 270.455   3
  12   0   0 12468.2 227.552   5
  12   0   2 10865.9 229.262   4
   0  12  -2 11341.5 263.981   3
  12   0   2 11746.6 254.915   5
   0  12  -4 24628.5 390.120   3
  12   0   4 24197.1 426.047   5
  12   0   6 30206.3 519.047   5
   0  12  -6 29897.3 433.882   3
  12   0   8 6974.64 219.530   8
   0  12  -8 4265.32 161.510   3
  12   0  10 4969.38 172.492   8
   0  12 -10 5404.77 145.368   3
  12   0  10 5605.96 214.927   5
  12   0  12 809.776 58.0433   8
  12   0  12 1286.76 89.9720   5
   1 -12  13 442.174 79.4394   6
  -1 -12  13 1959.19 127.620   6
   1 -12  11 2676.94 206.964   5
  -1 -12  11 5090.60 241.109   5
  -1 -12  11 4864.06 267.500   7
   1 -12  11 2491.93 223.476   6
  -1 -12  11 5961.50 315.064   6
   1 -12   9 4559.72 273.317   7
  12  -1  -9 3617.92 146.834   3
  -1 -12   7 2695.85 214.366   7
  12   1  -7 2665.07 156.953   3
   1  12   5 1854.42 77.6294   8
   1 -12   5 1612.02 165.064   7
  -1 -12   5 1707.59 164.473   7
  12   1  -5 1914.75 218.845   3
   1  12   3 16070.5 225.937   8
  -1  12   3 18231.0 309.720   3
   1 -12   3 13337.6 434.670   7
   1  12   3 20033.9 332.284   3
  12   1  -3 15892.8 668.843   3
   1  12   1 9692.99 185.803   8
  12   1  -1 9208.38 207.698   4
   1  12  -1 10898.8 224.692   8
  12   1   1 9945.61 222.736   4
  -1  12  -1 8837.80 231.858   3
  12   1   1 8931.00 208.732   5
  12  -1   1 10318.9 226.172   5
  12  -1   3 17426.6 338.381   5
  12   1   3 17786.7 534.541   3
  12   1   3 17122.9 325.520   5
  12  -1   5 2224.00 147.708   5
  12   1   5 1920.78 102.307   8
  -1  12  -5 2321.14 127.781   3
   1  12  -5 2484.31 133.464   3
  12   1   5 2048.22 139.536   5
  12  -1   7 3863.06 202.104   5
  12   1   7 2306.27 123.694   8
  -1  12  -7 2813.15 133.591   3
   1  12  -7 3947.84 160.748   3
  12   1   9 5954.10 192.146   8
  12  -1   9 1997.43 113.835   8
  -1  12  -9 6926.47 179.202   3
   1  12  -9 2686.13 123.748   3
  12   1   9 6580.33 233.339   5
  12  -1  11 5050.74 149.771   8
  12   1  11 5458.01 197.379   5
  12   1  13 1093.91 61.7981   5
  12  -1  13 1214.83 76.1026   5
   2 -12  12 3445.68 213.124   5
  -2 -12  12 718.576 98.5073   7
   2 -12  12 3534.77 239.001   6
  -2 -12  12 950.449 115.775   6
  12   2 -10 9787.61 193.341   3
  12  -2 -10 10556.8 199.209   3
   2  12   8 6714.06 146.992   8
   2 -12   8 4453.46 249.449   7
  12   2  -8 6870.08 207.954   3
  -2 -12   8 4037.30 255.058   7
  12  -2  -8 6153.99 257.723   3
   2 -12   8 5951.18 332.952   6
   2  12   6 28482.2 314.516   8
   2 -12   6 22857.9 558.918   7
  -2 -12   6 22091.2 544.756   7
  12   2  -6 29495.8 486.610   3
  12  -2  -6 16063.7 700.102   3
   2  12   4 3700.89 116.573   8
   2 -12   4 3902.04 233.976   7
  12   2  -2 14650.6 272.949   4
   2  12   2 11261.9 205.566   8
  -2  12   2 14603.5 285.246   3
   2  12   2 12322.0 260.547   3
  12   2  -2 14326.0 522.091   3
  12   2   0 4168.20 140.954   4
   2  12   0 4113.92 161.786   3
  12   2   0 3927.43 283.979   3
  12   2   0 3482.46 128.469   5
  12  -2   2 13612.2 286.802   5
   2  12  -2 11783.5 248.889   8
  12   2   2 13934.5 266.710   4
  12   2   2 12120.5 347.896   3
   2  12  -2 12928.1 291.392   3
  12   2   2 13611.8 274.135   5
  12   2   4 4772.61 148.247   8
  -2  12  -4 4757.30 173.603   3
  12  -2   6 29948.3 534.261   5
  12   2   6 28950.9 400.991   8
  -2  12  -6 29756.9 403.527   3
  12   2   6 30385.7 479.858   5
  12  -2   8 5618.71 254.501   5
  12   2   8 6775.64 201.040   8
  -2  12  -8 6605.01 186.719   3
   2  12  -8 7176.44 211.924   3
  12   2   8 8186.73 263.215   5
  12  -2  10 11563.1 328.837   5
  12   2  10 9610.21 231.385   8
   2  12 -10 9959.27 207.006   3
  12   2  10 12616.2 307.447   5
  12   2  12 2699.76 104.166   8
  12   2  12 2512.09 116.781   5
  -3 -12  13 173.085 43.5906   7
   3 -12  11 7819.58 340.387   5
  -3 -12  11 8429.32 315.073   7
  -3 -12  11 8866.55 322.923   6
   3  12   9 7060.03 150.998   8
   3 -12   9 6527.95 345.618   5
  12   3  -9 7308.76 189.477   3
  -3 -12   9 4897.62 265.385   7
  12  -3  -9 6167.74 198.746   3
   3 -12   9 5349.09 312.688   6
   3  12   7 6617.21 157.548   8
  12   3  -7 4801.23 182.253   3
  -3 -12   7 2767.61 199.697   7
   3 -12   7 4528.44 279.950   6
  12  -3  -7 2611.56 323.471   3
   3  12   5 22804.4 298.812   8
  -3 -12   5 19532.8 488.955   7
   3  12   3 23043.4 307.641   8
  12   3  -3 27485.2 431.973   4
  12   3  -3 25849.6 499.542   3
   3  12   3 24677.8 363.533   3
   3  12   1 8264.29 187.404   8
  12   3  -1 9309.77 219.413   4
  -3  12   1 8930.46 224.085   3
  12   3  -1 8330.81 291.106   3
  12   3  -1 8757.04 184.144   5
   3  12   1 9242.70 232.365   3
  12  -3   1 9457.31 214.988   5
  12   3   1 10780.3 235.719   4
  -3  12  -1 8763.29 220.461   3
  12   3   1 10264.3 286.094   3
  12   3   1 9792.89 229.318   5
   3  12  -1 9455.62 239.436   3
   3  12  -1 9144.80 207.214   8
  12  -3   3 23187.4 417.328   5
   3  12  -3 26237.9 449.326   8
  12   3   3 23609.5 316.262   8
  12   3   3 27392.9 409.665   4
  -3  12  -3 24885.5 376.851   3
  12   3   3 25834.8 397.069   5
   3  12  -3 24247.8 395.321   3
  12  -3   5 23834.0 475.622   5
  12   3   5 21897.4 338.080   8
  -3  12  -5 21357.1 352.060   3
   3  12  -5 24902.5 412.203   3
  12   3   5 24594.2 428.275   5
  12  -3   7 2958.19 187.732   5
  12   3   7 4516.42 166.350   8
  -3  12  -7 5180.18 168.707   3
   3  12  -7 3694.34 159.035   3
  12   3   9 6032.76 188.600   8
   3  12  -9 6487.01 183.604   3
  12   3   9 6670.83 224.145   5
  12   3  11 11056.3 229.874   8
  12   3  11 11140.6 248.208   5
  12  -3  11 11682.8 309.521   5
  12   3  13 152.889 25.2347   8
  12  -3  13 246.775 43.0721   5
  -4 -12  12 667.639 88.8145   7
  -4 -12  12 769.910 80.1292   6
   4  12  10 1773.21 76.6940   8
   4 -12  10 2123.74 212.649   5
  12   4 -10 2308.60 99.6160   3
  -4 -12  10 1702.75 161.187   7
   4 -12  10 2214.65 215.343   6
   4  12   8 6556.39 159.158   8
  12   4  -8 8080.44 213.893   3
   4 -12   8 7480.81 361.371   6
  12  -4  -8 6001.37 346.662   3
   4  12   6 10312.2 208.069   8
  12   4  -6 10002.0 257.387   3
  -4 -12   6 9665.89 334.953   7
   4 -12   6 9237.56 378.288   6
   4  12   4 3434.67 125.535   8
  -4 -12   4 2206.25 159.860   7
   4  12   2 2954.88 114.581   8
  12   4  -2 3317.76 138.301   4
  12   4  -2 2915.01 155.033   3
   4  12   2 3006.22 127.534   3
   4  12   0 2694.29 115.325   8
  12   4   0 4035.72 126.831   8
  12   4   0 4122.12 143.858   4
  -4  12   0 4710.04 167.338   3
  12   4   0 3708.87 158.596   3
  12   4   0 3474.57 124.349   5
   4  12   0 2503.11 124.728   3
  12  -4   2 3176.62 148.149   5
   4  12  -2 2888.94 126.373   8
  12   4   2 2849.01 110.947   8
  12   4   2 3115.45 133.360   4
  12   4   2 3188.60 130.584   3
  12   4   2 3022.48 131.493   5
   4  12  -2 3172.66 146.751   3
   4  12  -4 1690.14 308.305   8
  12  -4   4 2208.59 151.901   5
  12   4   4 4488.12 149.660   8
  -4  12  -4 5795.50 186.998   3
  12   4   4 4993.13 188.640   5
  12  -4   6 12151.7 366.250   5
  12   4   6 9130.96 219.474   8
  -4  12  -6 9458.38 226.555   3
   4  12  -6 11237.8 271.348   3
  12   4   8 7966.44 218.863   8
   4  12  -8 6850.39 200.615   3
  12   4   8 8368.92 255.847   5
  12  -4   8 6356.42 273.525   5
   4  12 -10 2261.08 99.4274   3
  12   4  10 2717.20 143.024   5
  12   4  12 1328.22 70.0804   8
  12   4  12 1282.38 68.9731   5
  12  -4  12 1377.46 105.344   5
  12   5 -11 4787.12 106.208   3
   5  12  11 6107.41 122.898   8
   5 -12  11 4723.84 268.136   5
  -5 -12  11 6009.68 235.922   7
  -5 -12  11 6327.48 226.513   6
   5  12   9 3486.25 115.074   8
  12   5  -9 4190.36 139.490   3
   5 -12   9 4196.60 279.829   6
  12  -5  -9 3659.69 168.022   3
   5  12   7 4547.75 141.301   8
   5 -12   7 4831.81 294.768   5
  12   5  -7 4628.43 167.885   3
   5 -12   7 4726.34 293.253   6
   5  12   5 11371.0 189.466   4
   5 -12   5 10589.5 395.038   6
   5  12   3 40735.3 422.279   8
  12   5  -3 52504.7 528.580   8
  12   5  -3 39947.9 538.316   4
   5  12   3 38133.2 361.646   4
  12   5  -3 43434.4 535.025   3
   5 -12   3 52746.6 782.108   6
   5  12   1 2938.91 121.016   8
   5  12   1 2700.28 99.9729   4
  12   5  -1 3189.26 130.054   4
  12   5  -1 3090.67 120.026   8
   5  12   1 3121.11 130.826   3
   5  12  -1 3374.55 136.582   8
  12   5   1 3183.18 119.312   8
  12   5   1 3172.05 131.541   4
  12   5   1 3063.38 130.469   3
  12   5   1 3374.18 129.375   5
   5  12  -3 44916.8 528.703   8
  12  -5   3 41881.0 599.237   5
  12   5   3 41365.2 433.127   8
  12   5   3 44165.3 490.736   4
  12   5   3 46158.1 506.990   5
   5  12  -3 42445.5 519.757   3
  12  -5   5 14312.4 395.938   5
  12   5   5 12493.0 289.885   5
  12  -5   7 4782.46 243.040   5
  12   5   7 5557.00 173.860   8
  12   5   7 5358.49 199.441   5
   5  12  -7 4368.74 165.504   3
  12  -5   9 3497.95 205.540   5
  12   5   9 4044.47 148.324   8
   5  12  -9 3392.36 130.388   3
  12   5   9 3980.77 154.303   5
  12  -5  11 6657.64 229.836   5
  12   5  11 6739.72 160.330   5
   6 -12  12 2508.48 158.570   5
  -6 -12  12 6106.87 189.043   7
  12   6 -10 464.725 47.6656   3
   6  12  10 829.603 57.1427   8
   6  12   8 3301.98 120.721   8
   6 -12   8 3127.06 243.524   5
  12   6  -8 3272.26 132.876   3
   6 -12   8 3388.80 254.182   6
   6  12   6 7056.18 181.793   8
   6 -12   6 9053.72 382.914   5
  12   6  -6 8376.85 224.603   3
   6  12   6 7233.96 158.155   4
   6 -12   6 8688.47 382.177   6
   6  12   4 7776.68 194.305   8
   6 -12   4 11282.4 405.540   5
  12   6  -4 8936.49 237.851   3
   6  12   4 7067.76 157.040   4
  -6 -12   4 5631.26 243.324   7
   6 -12   4 14329.3 440.698   6
  12   6  -4 618.503 221.388   8
  12   6  -2 3559.80 131.354   8
   6  12   2 3992.82 140.811   8
   6  12   2 3492.86 115.813   4
  12   6  -2 3675.80 153.501   3
   6  12   2 3786.71 138.100   3
   6  12   0 191.868 46.5338   8
   6  12   0 158.345 47.3241   3
   6  12   0 336.278 53.4036   4
  12   6   0 221.985 49.8539   3
  12   6   0 110.324 39.0484   4
  12   6   0 319.326 60.7679   5
   6  12  -2 4148.55 161.375   3
  12  -6   2 4697.63 186.656   5
  12   6   2 3799.29 133.609   8
  12   6   2 3335.99 121.474   3
  12   6   2 4004.80 148.721   4
   6  12  -2 3628.66 142.547   8
  12   6   2 4243.62 152.965   5
   6  12  -4 6848.39 210.982   3
  12  -6   4 7071.96 272.448   5
   6  12  -4 10168.6 488.021   8
  12   6   4 8599.52 205.560   8
  12   6   4 8935.99 221.758   4
  12   6   4 8718.26 219.846   5
  12  -6   6 6814.25 290.354   5
   6  12  -6 6454.68 202.752   3
  12  -6   8 3153.77 202.702   5
  12   6   8 3242.43 132.539   8
 -12  -6   8 2928.62 125.475   7
  12   6   8 3369.34 141.350   5
   6  12  -8 3262.64 139.544   3
  12  -6  10 1226.58 119.215   5
  12   6  10 486.057 55.7975   8
   6  12 -10 751.635 58.0489   3
  12   6  10 967.051 71.4178   5
  12   6  12 3613.32 93.7926   8
  12  -6  12 5857.29 176.373   5
  12   7 -11 606.732 36.0801   3
   7  12  11 657.347 43.3622   8
  -7 -12  11 748.971 60.5226   6
   7  12   9 2244.94 94.8203   8
  12   7  -9 1564.05 86.0451   3
   7 -12   9 1088.27 163.225   5
  -7 -12   9 2563.20 156.845   7
  12  -7  -7 3514.96 322.985   3
   7  12   7 7086.25 178.218   8
   7 -12   7 9895.36 408.826   5
  12   7  -7 8537.74 212.968   3
   7  12   7 7237.66 156.438   4
  -7 -12   7 5693.71 237.775   7
   7 -12   7 9731.26 396.272   6
   7  12   5 5242.07 161.114   8
   7 -12   5 4146.22 261.735   5
   7  12   5 4855.82 134.206   4
  -7 -12   5 5818.09 238.627   7
   7 -12   5 3512.08 235.292   6
  12   7  -3 3700.36 145.940   8
   7  12   3 2765.60 122.470   8
   7 -12   3 4586.86 248.239   5
  12   7  -3 3529.97 150.721   3
   7  12   3 2576.70 104.604   4
  -7 -12   3 2030.89 141.340   7
   7  12   1 2996.30 126.514   8
  12   7  -1 1907.99 97.6294   8
   7 -12   1 3381.37 191.821   5
  12   7  -1 2008.45 111.193   3
   7  12   1 2368.18 100.092   4
  12   7  -1 2207.30 108.947   4
   7  12   1 3122.74 130.009   3
   7  12  -1 3102.59 141.467   3
   7  12  -1 2812.15 127.732   8
  12   7   1 2405.61 108.186   8
  12   7   1 2069.11 105.346   3
  12   7   1 2348.07 114.354   4
   7  12  -3 2485.40 130.701   3
  12  -7   3 2220.14 149.460   5
  12   7   3 3180.20 126.317   8
  12   7   3 3549.81 142.266   4
  12   7   3 4221.33 151.538   5
  12  -7   5 7584.51 295.368   5
  12   7   5 3888.03 139.735   8
  12  -7   7 6147.75 279.777   5
  12   7   7 8964.38 212.157   8
 -12  -7   7 8534.43 209.952   7
  12   7   7 8365.07 211.067   5
   7  12  -7 6761.59 197.279   3
  12  -7   9 4014.17 212.883   5
  12   7   9 1514.12 89.5336   8
 -12  -7   9 1168.75 78.8938   7
  12   7   9 2971.77 121.595   5
   7  12  -9 2977.24 115.413   3
  12   7  11 543.138 47.1694   8
  12   7  11 685.404 54.1350   4
  12   8 -10 2219.89 80.6964   3
   8 -12  10 2257.48 175.925   5
   8  12  10 2650.11 90.8916   8
  -8 -12  10 2640.19 139.472   7
   8  12   8 9953.24 199.396   8
  12   8  -8 9010.49 198.916   3
   8 -12   8 9934.89 392.520   5
   8  12   8 9330.57 166.770   4
  -8 -12   8 10114.5 286.923   7
   8  12   6 2798.08 117.319   8
   8 -12   6 2236.83 195.239   5
   8  12   6 2452.35 97.1698   4
  -8 -12   6 2877.77 160.305   7
   8  12   4 7755.06 193.819   8
  12   8  -4 7811.49 218.665   3
   8  12   4 7403.28 172.314   4
  12   8  -2 11359.8 231.350   8
   8  12   2 10314.6 222.431   8
  12   8  -2 11550.2 258.617   3
  12   8  -2 12038.0 282.276   4
   8  12   2 9938.55 203.003   4
  -8 -12   2 10240.8 286.916   7
   8  12   2 9946.02 212.068   3
   8  12   0 500.941 61.4423   8
   8  12   0 331.744 52.7891   4
  12   8   0 329.332 51.1836   8
  12   8   0 797.161 76.3528   4
   8  12   0 713.648 70.5519   3
   8  12  -2 11961.1 264.354   3
  12   8   2 11667.3 236.438   8
   8  12  -4 8392.02 226.746   3
  12  -8   4 8700.62 303.606   5
  12   8   4 8143.81 197.365   8
   8  12  -6 2552.82 125.469   3
  12   8   6 2278.94 106.578   8
  12   8   8 9465.17 198.857   8
  12   8   8 10028.5 214.324   4
   8  12  -8 9784.99 211.887   3
  12   8  10 2354.49 89.2529   8
  12   8  10 2619.12 98.6804   4
   8  12 -10 2418.79 84.5401   3
  -9 -12  11 2016.52 84.0475   7
   9  12   9 11009.7 185.304   8
   9  12   9 10715.6 155.313   4
  12   9  -7 16458.9 273.094   3
   9  12   7 16264.4 257.830   8
   9  12   7 15742.6 227.359   4
  -9 -12   7 15338.7 335.425   7
   9  12   5 767.476 68.7980   8
   9 -12   5 702.306 120.322   5
  12   9  -5 495.283 69.6266   3
   9  12   5 639.272 56.1125   4
  -9 -12   5 839.149 89.6417   7
  12   9  -3 1312.63 114.016   8
   9  12   3 1231.62 83.1312   8
  12   9  -3 1545.85 104.008   3
   9  12   3 1531.68 85.8602   4
  -9 -12   3 1428.34 110.366   7
  12   9  -1 3821.90 138.129   8
  12   9  -1 4233.29 156.476   3
   9  12   1 4617.72 143.792   4
  -9 -12   1 5405.54 197.680   7
   9  12   1 6028.37 174.037   3
  12   9   1 4028.71 137.269   8
  12   9   1 4084.46 136.759   3
   9  12  -3 1600.89 104.760   3
   9  12  -3 970.550 112.770   8
  12  -9   3 1736.90 130.854   5
  12   9   3 1506.97 89.2026   8
  12   9   3 1283.02 86.7578   4
 -12  -9   3 1330.01 78.6957   7
   9  12  -5 829.784 80.4177   3
  12  -9   5 897.512 114.513   5
  12   9   5 373.357 53.3866   8
  12   9   5 408.624 59.3712   4
 -12  -9   5 272.405 44.5087   7
  12  -9   7 16357.1 427.340   5
  12   9   7 16666.4 258.586   8
   9  12  -7 15891.1 274.463   3
  12  -9   9 8114.53 266.985   5
  12   9   9 13201.0 205.563   8
 -12  -9   9 15469.3 239.340   7
  12   9   9 14816.3 225.594   4
   9  12  -9 9181.91 174.332   3
  12   9  11 1234.81 49.3937   8
  12   9  11 1260.75 49.0021   4
  10  12  10 1833.37 62.9121   8
 -10 -12  10 1960.22 85.0987   7
  12  10  -8 1207.03 70.7165   3
  10 -12   8 1308.23 135.982   5
  10  12   8 1402.50 73.1700   8
  10  12   8 1429.20 65.0454   4
  10  12   6 498.451 56.4223   8
  10  12   6 605.937 52.5802   4
  10  12   4 20317.8 283.180   4
 -10 -12   4 19474.1 340.919   7
  12  10  -2 13941.3 253.616   8
 -10 -12   2 12872.6 283.242   7
  10  12   0 5884.18 169.832   8
  12  10   0 8803.94 205.760   8
  12  10   0 7589.70 187.938   3
  10  12   0 6456.05 193.669   4
  12  10   0 6835.19 183.198   4
 -12 -10   0 7299.98 173.420   7
 -10 -12   0 6110.52 193.169   7
  10  12   0 7074.21 188.067   3
  10  12  -2 14147.2 278.438   3
  12  10   2 13897.4 248.007   8
  12  10   2 13674.2 251.080   4
 -12 -10   2 13793.2 242.081   7
  10  12  -4 20141.1 333.232   3
  12  10   4 19534.6 288.635   4
  12  10   6 670.152 61.3709   8
  12  10   6 689.156 59.8415   4
 -12 -10   6 768.537 63.9510   7
  12  10   8 1193.94 68.5696   8
 -12 -10   8 1010.32 65.0048   7
  12  10   8 1249.92 68.2949   4
  10  12  -8 1211.73 72.0071   3
  12  10  10 1756.38 64.2389   8
  12  10  10 1802.17 59.7996   4
  11 -12   9 1453.12 95.9330   5
  11  12   9 2728.57 78.3526   8
 -11 -12   9 3334.30 98.0352   7
  12  11  -9 1916.46 65.0936   3
  12  11  -7 4969.79 134.736   3
  12 -11  -7 1851.59 189.460   3
  11 -12   7 7226.82 264.417   5
  11  12   7 4594.25 116.811   4
 -11 -12   7 4081.34 137.302   7
  12  11  -5 215.355 50.8207   3
  11  12   5 224.592 38.5955   4
 -11 -12   5 171.187 42.9815   7
  12  11  -3 2617.40 120.827   3
  11  12   3 2437.90 104.985   8
 -11 -12   3 2351.99 111.260   7
  12  11  -1 15368.6 263.918   3
  12  11  -1 13510.1 238.612   8
  11  12   1 14009.3 247.979   8
  11  12   1 15553.5 275.404   4
 -11 -12   1 14988.9 274.532   7
 -12 -11  -1 13646.7 232.808   7
  11  12   1 15286.3 243.136   3
  11  12  -1 15652.5 272.093   3
  11  12  -1 13535.5 241.124   8
  12  11   1 14020.8 245.302   8
  12  11   1 14323.1 249.712   4
 -12 -11   1 13858.7 232.901   7
 -11 -12  -1 14225.0 258.399   7
  12  11   1 15125.2 241.996   3
  12  11   3 2391.16 102.335   8
  12  11   3 2326.14 101.468   4
 -12 -11   3 2398.05 101.992   7
  11  12  -5 398.490 56.0277   3
  12 -11   5 333.423 68.1018   5
  12  11   5 161.328 39.6508   8
 -12 -11   5 152.525 35.8925   7
  12  11   5 119.844 35.3036   4
  12 -11   7 4433.59 192.377   5
  12  11   7 5054.26 130.652   8
  12  11   7 5685.24 134.750   4
 -12 -11   7 5522.85 146.075   7
  11  12  -7 4434.44 130.582   3
  12  11   9 2391.54 68.5776   4
  11  12  -9 2694.67 75.0021   3
  12  12   0 1353.09 76.5317   8
 -12 -12   0 1201.39 71.9333   7
  12  12  -2 4259.71 136.871   3
  12  12   2 3645.14 121.156   8
  12  12   2 4057.29 135.199   4
 -12 -12   2 3644.93 117.941   7
  12  12  -4 1039.48 73.4773   3
  12  12   4 907.260 62.0107   8
  12  12   4 847.769 58.1416   4
 -12 -12   4 971.975 66.3578   7
  12  12   6 2783.93 94.4991   8
  12  12   6 2767.62 86.9421   4
 -12 -12   6 2981.00 105.346   7
  12  12  -6 2633.80 100.036   3
  12  12   8 904.470 40.9614   4
  12  12  -8 844.446 46.0573   3
   0 -13  11 10210.8 342.578   5
   0 -13  11 10219.2 382.359   6
   0 -13   9 21834.9 597.945   7
  13   0  -9 31774.8 387.766   3
   0 -13   7 47514.4 888.606   7
  13   0  -7 69411.7 762.166   3
   0 -13   5 20477.3 573.462   7
  13   0  -5 29158.1 767.788   3
   0 -13   3 135948. 1404.46   7
  13   0  -3 106632. 1736.19   3
   0  13   1 316223. 1376.97   3
  13   0  -1 147534. 2016.42   3
   0  13  -1 337575. 1499.42   3
  13   0   1 324420. 1242.44   5
  13   0   3 167406. 937.147   4
  13   0   3 168594. 1006.24   5
   0  13  -5 30385.9 435.709   3
  13   0   5 31021.1 483.896   5
   0  13  -7 73927.3 660.367   3
  13   0   7 76798.4 787.209   5
   0  13  -9 26025.1 338.268   3
  13   0  11 15275.6 288.557   5
   1 -13  12 4154.27 177.117   5
   1 -13  12 5369.06 258.826   6
  -1 -13  10 7779.19 322.407   5
  13   1 -10 6962.13 152.460   3
  -1 -13  10 6925.11 315.308   7
  -1 -13  10 7195.25 337.057   6
   1 -13   8 7420.66 338.994   7
  -1 -13   8 5544.98 300.223   7
  13   1  -8 10198.3 249.352   3
  13  -1  -8 8560.49 241.466   3
  -1 -13   6 9224.79 371.169   7
  13   1  -6 9901.86 300.201   3
   1 -13   4 2573.53 210.362   7
  -1 -13   4 4355.53 259.152   7
   1  13   2 31990.2 344.443   8
  -1  13   2 29893.1 417.746   3
  13   1  -2 31155.6 885.116   3
   1  13   0 3517.01 128.423   8
  13  -1   0 2459.56 333.510   3
  13   1   0 2398.57 112.532   4
  -1  13   0 1803.32 114.258   3
   1  13   0 5086.82 180.952   3
  13   1   0 4089.61 133.498   5
  13   1   0 2413.69 308.828   3
  13   1   2 32664.4 414.447   4
  -1  13  -2 27091.9 418.774   3
   1  13  -2 37003.2 499.238   3
  13   1   2 29262.2 690.817   3
  13   1   2 30257.8 403.521   5
  13  -1   2 34359.0 428.115   5
  -1  13  -4 4290.67 171.975   3
  13   1   4 4317.91 174.641   5
  -1  13  -6 9172.70 239.862   3
   1  13  -6 12939.9 290.473   3
  13   1   6 9900.84 270.169   5
  13  -1   6 12923.2 335.939   5
  13   1   8 10694.4 229.740   8
  -1  13  -8 10750.0 233.960   3
  13  -1   8 10116.7 301.136   5
  13   1  10 7200.48 177.319   8
  13   1  10 7443.88 220.575   5
  13  -1  10 7742.25 233.099   5
  13   1  12 7464.40 167.850   5
  13  -1  12 7354.86 178.857   5
   2 -13  11 3569.51 222.091   5
  -2 -13  11 2579.85 144.719   5
  -2 -13  11 2957.22 179.350   7
  -2 -13  11 3748.53 214.801   6
   2 -13   9 23411.4 646.791   5
  13   2  -9 29216.6 365.024   3
  -2 -13   9 23742.3 574.660   7
  13  -2  -9 29169.9 373.171   3
   2 -13   9 26204.1 666.373   6
  13   2  -7 64446.3 642.583   3
  13  -2  -7 69470.4 1032.05   3
   2 -13   5 10044.1 373.828   7
  -2 -13   5 10011.8 363.291   7
   2  13   3 65678.7 483.755   8
   2 -13   3 61139.1 929.565   7
  -2 -13   3 66002.6 897.354   7
   2  13   3 73679.3 627.802   3
  13   2  -3 76785.1 940.471   3
   2  13   1 92589.9 626.093   8
  13   2  -1 106668. 720.505   4
  -2  13   1 114865. 834.188   3
   2  13   1 97150.0 761.326   3
  13   2  -1 95795.3 1097.13   3
  13   2  -1 104910. 615.357   5
   2  13  -1 88673.1 672.781   8
  13   2   1 103253. 719.983   4
  -2  13  -1 103949. 817.920   3
  13   2   1 91915.8 957.374   3
   2  13  -1 100362. 819.811   3
  13   2   1 109027. 751.546   5
  13  -2   1 98814.3 672.442   5
  13   2   3 80926.7 675.833   4
  13   2   3 79271.0 692.557   5
  13  -2   5 13674.4 331.930   5
  13   2   5 14532.4 258.686   8
  -2  13  -5 14980.1 308.526   3
   2  13  -5 13187.0 298.722   3
  13   2   5 15925.9 343.686   5
  13  -2   7 64538.0 739.339   5
  13   2   7 66086.7 585.042   8
  -2  13  -7 65162.7 592.944   3
   2  13  -7 65271.7 624.369   3
  13   2   9 31523.5 378.265   8
   2  13  -9 30958.2 380.311   3
  13   2  11 3756.15 139.903   5
  13  -2  11 3719.07 151.134   5
   3 -13  12 12568.3 321.512   5
  -3 -13  12 14356.3 301.473   7
  13   3 -10 28120.1 299.833   3
   3 -13  10 27131.1 654.499   6
   3 -13   8 66990.8 1057.04   6
  13  -3  -8 68200.9 783.842   3
   3  13   6 74668.7 520.812   8
  -3 -13   6 71490.7 956.761   7
   3  13   4 33864.5 357.540   8
  -3 -13   4 32821.3 610.819   7
  13   3  -4 34090.8 513.220   3
   3  13   2 103394. 652.105   8
  13   3  -2 126109. 885.246   4
  13   3  -2 106026. 950.279   3
   3  13   2 119035. 827.578   3
  13   3   0 103918. 731.095   4
  -3  13   0 97040.8 759.605   3
  13   3   0 93191.6 860.431   3
   3  13   0 105169. 803.981   3
  13   3   0 100293. 657.132   5
   3  13   0 95689.1 667.763   8
   3  13  -2 106139. 837.875   8
  13   3   2 115158. 799.243   4
  13   3   2 101143. 770.250   3
   3  13  -2 119584. 878.662   3
  13   3   2 125449. 848.145   5
  13  -3   2 123521. 858.455   5
  13  -3   4 36998.4 549.029   5
  13   3   4 35270.0 392.663   8
  13   3   4 37768.3 481.925   4
  -3  13  -4 34242.9 457.134   3
  13   3   4 37818.3 496.140   5
   3  13  -6 87897.3 730.885   3
  13   3   6 87497.5 758.076   5
  13  -3   8 73331.0 799.836   5
  13   3   8 74092.4 598.982   8
  13   3  10 31762.8 354.932   8
   3  13 -10 31876.8 330.517   3
  13   3  12 14446.0 199.572   5
  13  -3  12 22082.2 318.422   5
   4 -13  11 498.392 105.005   5
  -4 -13  11 758.035 88.0097   7
   4 -13  11 504.019 99.2848   6
   4  13   9 506.832 43.2722   8
  -4 -13   9 367.964 86.0290   7
  13  -4  -9 350.992 53.6331   3
   4 -13   9 441.576 113.844   6
   4  13   7 2288.44 94.7359   8
   4 -13   7 4035.59 274.141   5
  13   4  -7 3840.79 153.723   3
  -4 -13   7 1655.16 149.212   7
   4 -13   7 3603.36 248.378   6
  13  -4  -7 1999.91 286.886   3
  -4 -13   5 2205.21 166.797   7
   4 -13   5 2320.61 190.122   6
   4  13   3 1209.68 77.8511   8
  13   4  -3 1590.54 119.832   3
  -4 -13   3 789.976 107.078   7
   4  13   3 1918.70 100.835   3
   4 -13   3 1900.89 157.363   6
   4  13   1 1318.87 85.0340   8
  13   4  -1 1057.86 80.6164   4
  13   4  -1 1083.25 98.9944   3
  13   4  -1 1903.22 103.124   5
   4  13   1 1786.93 108.356   3
   4  13  -1 1518.99 93.4876   8
  13   4   1 1073.95 81.3122   4
  13   4   1 1275.69 95.1473   3
  -4  13  -1 853.671 83.4542   3
  13   4   1 1287.86 84.6572   5
   4  13  -1 1482.00 107.624   3
  13  -4   3 744.440 86.2477   5
   4  13  -3 288.335 135.212   8
  13   4   3 1395.17 83.0217   8
  13   4   3 1437.98 97.9407   4
  -4  13  -3 1788.46 113.332   3
  13   4   3 1410.99 99.5058   5
   4  13  -3 829.783 85.7133   3
  13   4   5 2378.04 110.367   8
  13   4   5 2135.87 128.082   4
  -4  13  -5 2260.25 117.357   3
  13   4   5 2342.09 130.273   5
   4  13  -5 2050.75 125.233   3
  13  -4   7 1693.22 147.134   5
   4  13  -7 2135.79 118.806   3
  13  -4   9 503.527 91.3075   5
   4  13  -9 354.014 50.6780   3
  13   4   9 612.494 76.0540   5
  13   4  11 721.341 50.1311   8
  13   4  11 900.620 62.8534   5
   5 -13  12 19028.5 370.132   5
  -5 -13  12 17378.7 285.283   7
   5  13  10 22644.8 232.525   8
  13   5 -10 21605.9 255.053   3
   5 -13  10 22698.3 587.636   5
  -5 -13  10 22656.3 455.702   7
   5 -13  10 21951.8 547.085   6
   5  13   8 72066.5 502.578   8
   5 -13   8 78221.2 1130.30   5
  13   5  -8 75304.9 594.858   3
   5 -13   8 69305.8 1071.46   6
  13  -5  -8 76826.9 1018.64   3
   5  13   6 46017.9 428.958   8
   5 -13   6 48807.0 898.588   5
  13   5  -6 46161.9 514.450   3
  -5 -13   6 42813.0 669.129   7
   5 -13   6 40382.3 813.126   6
  13   5  -4 53345.4 599.520   3
   5 -13   4 56597.2 856.815   6
   5  13   2 91876.3 646.800   8
   5  13   2 91772.4 682.580   3
   5  13   0 96586.8 712.709   8
  13   5   0 104347. 667.859   8
  13   5   0 107597. 740.859   4
  13   5   0 98920.0 769.803   3
   5  13   0 99451.2 763.077   3
  13  -5   2 102058. 793.508   5
   5  13  -2 94080.6 740.775   8
  13   5   2 92711.3 635.857   8
  13   5   2 88229.5 647.197   3
  13   5   2 94923.5 704.284   4
  13   5   2 95152.7 685.238   5
   5  13  -2 97062.4 789.230   3
  13  -5   4 48226.5 631.167   5
  13   5   4 48063.5 467.630   8
  13   5   4 52670.3 546.756   4
  13   5   4 51507.9 532.775   5
  13  -5   6 54966.9 710.463   5
  13   5   6 49808.3 483.343   8
  13   5   6 55709.5 592.052   4
   5  13  -6 49693.5 538.198   3
  13  -5   8 75029.8 832.961   5
  13   5   8 77964.7 586.335   8
  13  -5  10 26095.8 426.620   5
  13   5  10 26680.2 326.232   5
  13   5  12 7820.03 134.752   4
  13  -5  12 24488.3 305.854   5
   6 -13  11 2145.03 157.475   5
  -6 -13  11 2094.26 119.196   7
  -6 -13  11 2230.53 103.526   6
   6  13   9 16862.3 226.687   8
  13   6  -9 16775.6 255.161   3
   6 -13   9 17805.0 531.907   5
  -6 -13   9 14428.4 349.146   7
   6 -13   9 15826.8 476.518   6
  13  -6  -9 18216.3 275.087   3
   6  13   7 28133.0 328.878   8
   6 -13   7 27301.2 672.020   5
   6  13   5 47966.9 460.084   8
   6 -13   5 46467.6 837.113   5
   6  13   3 50202.2 474.286   8
   6 -13   3 60227.4 908.237   5
   6  13   3 42750.9 375.544   4
  13   6  -3 52729.5 564.761   3
  13   6  -1 55228.0 504.838   8
   6  13   1 60104.8 538.749   8
   6  13   1 50214.8 481.535   4
  13   6  -1 54623.5 540.944   4
  13   6  -1 57675.5 580.621   3
   6  13   1 60798.4 573.560   3
   6  13  -1 59732.8 557.223   8
  13   6   1 55722.6 493.509   8
  13   6   1 55180.9 523.439   3
  13   6   1 59187.9 545.728   4
   6  13  -1 62975.8 613.679   3
  13  -6   3 59412.8 651.490   5
   6  13  -3 51145.7 747.368   8
  13   6   3 48802.4 473.420   8
  13   6   3 51479.4 525.469   4
  13   6   3 56670.5 541.000   5
   6  13  -3 52394.3 572.079   3
  13   6   5 51077.6 528.447   4
  13   6   5 52244.0 519.272   5
  13   6   7 31671.8 417.527   4
   6  13  -7 31508.3 405.337   3
  13  -6   9 22474.8 434.492   5
  13   6   9 17777.4 255.957   8
  13   6   9 18379.1 290.556   4
  13   6   9 21203.4 302.258   5
   6  13  -9 16667.1 255.763   3
  13   6  11 1723.65 63.8938   8
  13   6  11 1593.02 72.6554   4
   7  13  10 6817.07 123.728   8
  13   7 -10 6582.30 127.293   3
   7  13   8 3743.25 115.987   8
  13   7  -8 3952.04 134.675   3
  13  -7  -8 3854.27 244.453   3
   7  13   6 19435.6 284.600   8
   7 -13   6 19645.1 557.310   5
   7  13   6 18508.6 234.383   4
  -7 -13   6 16914.9 379.756   7
   7 -13   6 16956.8 480.674   6
   7  13   4 16194.1 232.891   4
  -7 -13   4 15085.6 362.166   7
  13   7  -2 75965.8 611.498   8
   7  13   2 66597.1 558.673   8
  13   7  -2 73068.7 694.492   4
  13   7  -2 73991.4 654.899   3
   7  13   2 58757.9 467.482   4
  -7 -13   2 62490.7 731.526   7
   7  13   2 65821.1 558.205   3
   7  13   0 47477.1 499.831   8
  13   7   0 54804.3 497.705   8
  13   7   0 56270.0 536.698   3
  13   7   0 53874.8 515.869   4
   7  13   0 45404.0 514.265   3
   7  13  -2 65486.5 613.837   8
  13   7   2 69810.1 550.459   8
  13   7   2 70578.1 597.118   4
   7  13  -2 65791.2 628.836   3
  13  -7   4 18445.0 393.461   5
  13   7   4 20256.8 300.265   8
  13   7   4 20872.6 334.384   4
  13   7   4 22295.3 339.986   5
   7  13  -4 18397.9 337.827   3
  13   7   6 20453.5 296.073   8
  13   7   6 21177.6 334.911   4
  13  -7   8 5512.27 223.731   5
  13   7   8 4567.26 132.276   8
  13   7   8 5743.72 171.731   5
   7  13  -8 4131.95 137.637   3
  13   7  10 6757.98 135.246   8
   7  13 -10 6040.49 119.379   3
   8  13   9 51535.4 379.935   8
  -8 -13   9 52140.5 578.092   7
   8  13   7 44213.6 408.190   8
   8  13   7 43661.7 339.760   4
  -8 -13   7 43336.7 578.568   7
  13   8  -5 33149.7 423.945   3
   8  13   5 31736.4 320.639   4
  -8 -13   5 32946.7 505.587   7
  13   8  -3 32549.0 760.725   8
   8  13   3 53964.9 495.696   8
   8 -13   3 69216.5 903.389   5
  13   8  -3 55847.2 547.035   3
   8  13   3 45508.8 403.437   4
  -8 -13   3 57132.6 681.799   7
  13   8  -1 123860. 742.108   8
   8  13   1 129427. 790.865   8
  13   8  -1 133917. 842.458   3
   8  13   1 123026. 787.853   4
  13   8  -1 123634. 820.099   4
  -8 -13   1 129705. 1005.10   7
   8  13   1 126986. 766.307   3
   8  13  -1 122260. 772.472   8
  13   8   1 123904. 734.682   8
  13   8   1 134528. 792.078   3
  13   8   1 127755. 786.227   4
   8  13  -1 134241. 855.990   3
  13   8   3 55970.0 496.959   8
  13   8   3 55778.8 515.955   4
   8  13  -3 56501.3 567.087   3
  13  -8   5 41088.8 592.921   5
  13   8   5 34373.4 381.315   8
  13   8   7 45759.0 415.025   8
   8  13  -7 45938.1 463.341   3
  13   8   9 47801.2 373.437   8
  13   8   9 51493.2 415.397   4
   9 -13  10 15697.4 319.252   5
  -9 -13  10 9536.34 183.707   7
  13   9  -8 8576.64 173.704   3
   9  13   8 8725.84 161.274   8
  -9 -13   8 8247.67 215.750   7
   9  13   6 3337.54 115.301   8
   9  13   6 3324.42 99.8062   4
   9  13   4 5193.84 148.797   8
   9 -13   4 4871.39 252.843   5
  13   9  -4 4575.87 160.736   3
   9  13   4 4782.10 128.994   4
   9  13   2 5584.79 162.157   8
  13   9  -2 5318.84 173.155   3
   9  13   2 5020.88 146.252   4
  13   9   0 6215.84 170.092   3
  13   9   0 5192.73 163.028   4
  13   9   0 5272.07 153.795   8
  -9 -13   0 8935.62 241.229   7
   9  13   0 8998.96 211.568   3
  13   9   2 4610.39 140.482   8
   9  13  -2 6210.99 185.407   3
  13   9   4 4681.14 140.191   8
   9  13  -4 6207.91 185.711   3
  13   9   6 3992.60 122.989   8
  13   9   6 3948.29 127.148   4
  13   9   8 9535.56 169.325   8
   9  13  -8 8926.85 172.170   3
  13   9  10 10260.3 134.735   8
  13   9  10 10775.5 142.519   4
  10  13   9 13418.8 161.661   8
  13  10  -9 13167.4 154.915   3
  13  10  -7 27170.6 300.285   3
  10 -13   7 26888.1 515.345   5
  10  13   7 27869.5 244.434   4
  13  10  -5 18554.1 279.957   3
  10  13   5 18360.2 259.614   8
  10 -13   5 20966.3 464.330   5
  10  13   5 16781.5 221.621   4
 -10 -13   5 19343.8 331.403   7
  10  13   3 27320.1 311.562   4
 -10 -13   3 28969.5 401.485   7
  13  10  -1 46282.6 446.597   8
  13  10  -1 47337.0 455.388   3
 -10 -13   1 47953.9 533.324   7
  10  13   1 45590.2 421.356   3
  13  10   1 43334.3 428.723   8
 -10 -13  -1 43310.8 485.137   7
  13  10   3 29540.2 333.492   8
  13  10   3 30185.6 350.547   4
  10  13  -3 30459.4 383.546   3
  13  10   5 19313.8 270.146   4
  10  13  -5 18344.8 293.651   3
  13  10   7 32492.3 321.236   4
  10  13  -7 33059.3 344.801   3
  13  10   9 13329.5 156.141   8
  10  13  -9 12624.0 153.686   3
  11  13   8 16309.7 179.476   8
  13  11  -8 14925.7 177.265   3
  13  11  -6 24208.8 285.812   3
  11 -13   6 24276.3 416.482   5
  11  13   6 23380.0 234.195   4
  13  11  -4 25887.6 317.845   3
  11  13   4 26152.7 290.047   4
  13  11  -2 56819.0 477.659   3
  11  13   2 47300.4 433.030   8
  11  13   2 48230.3 449.210   4
 -11 -13   2 55471.8 501.138   7
  13  11   0 42762.9 395.035   3
  11  13   0 43234.6 407.958   8
 -11 -13   0 48637.2 469.001   7
  11  13   0 47206.6 416.651   3
  13  11   2 55452.6 456.859   8
  13  11   2 55574.6 459.199   4
  13  11   4 22142.4 268.336   8
  13  11   4 22398.6 270.413   4
  13  11   6 25091.9 267.312   8
  13  11   6 27335.0 280.200   4
  13  11   8 15180.2 169.683   8
  13  11   8 15272.7 164.839   4
  11  13  -8 15680.5 180.656   3
  12  13   5 1308.64 63.5372   8
 -12 -13   5 1500.75 68.0757   7
  12  13   3 6640.07 147.812   8
 -12 -13   3 6788.13 147.418   7
  13  12  -1 1561.93 120.445   8
  12  13   1 1641.37 78.0390   8
 -12 -13   1 1471.76 71.9047   7
  12  13  -1 1478.51 123.918   8
 -12 -13  -1 1607.67 73.1061   7
  12  13  -1 1759.69 79.6582   3
  13  12   3 6282.78 139.710   8
  13  12   3 6934.08 163.505   4
  13  12   5 2178.41 77.2851   8
  13  12   5 2334.41 79.9918   4
  12  13  -5 2053.10 83.7929   3
  13  12   7 1459.10 53.4745   8
  13  13   0 53716.4 699.577   8
  13  13   2 59241.0 401.722   8
  13  13  -2 63741.5 399.766   3
  13  13   4 28022.2 246.450   8
  13  13  -4 33358.0 287.584   3
   0 -14  12 25666.3 414.093   6
   0 -14  10 32560.9 626.894   5
  14   0 -10 33119.6 290.453   3
   0 -14   8 28772.9 646.407   7
  14   0  -8 39914.3 466.647   3
   0 -14   6 32877.1 696.921   7
  14   0  -6 45711.4 661.314   3
   0 -14   4 122394. 1347.48   7
   0 -14   2 29285.0 625.670   7
  14   0  -2 28812.0 892.854   3
   0  14   0 37333.3 492.237   3
  14   0   0 30140.4 926.553   3
   0  14  -2 39630.8 524.139   3
  14   0   2 40067.8 897.741   3
  14   0   2 41286.9 457.208   5
  14   0   4 163840. 933.907   4
  14   0   4 172582. 1055.15   5
  14   0   6 47112.7 522.942   4
   0  14  -6 45770.7 522.614   3
   0  14  -8 33778.0 399.672   3
  14   0   8 39927.9 531.569   5
  14   0  10 8310.58 189.112   4
  14   0  12 14939.2 197.404   5
   1 -14  11 1983.50 145.451   5
  -1 -14  11 2723.61 135.937   5
   1 -14   9 9008.14 400.804   5
  14   1  -9 10402.8 205.058   3
  -1 -14   9 8332.30 332.280   7
  14  -1  -9 10175.5 204.284   3
   1 -14   9 9258.10 385.058   6
   1 -14   7 2128.49 180.719   7
  -1 -14   7 1943.45 174.525   7
  14   1  -7 2129.71 127.189   3
  14  -1  -7 2144.25 143.784   3
  -1 -14   5 17928.8 495.114   7
  14  -1  -5 20651.2 654.409   3
   1  14   3 14297.9 279.662   3
  -1 -14   3 13216.6 421.879   7
  14   1  -3 13913.0 450.330   3
   1  14   1 377.839 45.6557   8
  14  -1  -1 311.175 264.620   3
  -1  14   1 761.975 83.0740   3
   1  14   1 640.592 76.6257   3
  14   1  -1 940.169 193.722   3
  14  -1   1 242.579 209.598   3
   1  14  -1 24.9571 108.248   8
  14   1   1 880.308 73.2154   4
  -1  14  -1 882.455 89.3059   3
   1  14  -1 557.939 80.3926   3
  14   1   1 841.911 148.309   3
  14   1   1 870.579 70.4343   5
  14   1   3 16151.7 294.301   4
   1  14  -3 14482.4 307.641   3
  14   1   3 15130.1 292.072   5
  14  -1   3 16564.1 317.823   5
  14   1   5 21265.4 381.913   5
  14  -1   5 21761.4 377.840   5
  14  -1   7 1551.99 99.3938   4
  -1  14  -7 1775.99 103.201   3
   1  14  -7 2199.72 117.253   3
  14   1   7 2171.91 133.251   5
   1  14  -9 8540.63 180.809   3
  14  -1   9 10751.0 268.539   5
  14   1  11 4045.84 129.938   5
  14  -1  11 4068.93 140.536   5
   2 -14  10 6763.43 316.666   5
  14   2 -10 7912.60 144.257   3
  -2 -14  10 8876.55 288.465   5
  14  -2 -10 8965.85 144.882   3
  -2 -14  10 8873.10 298.043   7
   2 -14  10 7328.98 332.735   6
  -2 -14  10 9734.25 332.489   6
  14   2  -8 31612.2 394.424   3
  14  -2  -8 29958.4 414.958   3
  14   2  -6 45369.6 550.749   3
  14  -2  -6 44569.6 846.056   3
   2  14   4 10257.0 187.281   8
   2 -14   4 12383.9 417.327   7
  -2 -14   4 10682.7 377.768   7
  14   2  -4 13123.6 333.230   3
   2 -14   2 14444.6 458.656   7
   2  14   2 13792.1 288.933   3
  14   2  -2 15121.5 405.668   3
  14   2   0 21649.5 333.969   4
  -2  14   0 23453.1 385.760   3
  14   2   0 21466.4 463.627   3
   2  14   0 22988.2 397.300   3
  14   2   0 23147.8 307.447   5
  14   2   2 18941.2 313.546   4
  -2  14  -2 18521.0 350.959   3
  14   2   2 16647.1 332.424   3
   2  14  -2 17198.1 343.077   3
  14   2   2 18848.7 310.219   5
  14  -2   2 20594.1 336.048   5
  -2  14  -4 15819.8 311.398   3
  14  -2   4 14928.4 317.908   5
  14   2   6 49758.3 554.308   4
  -2  14  -6 45803.0 499.798   3
   2  14  -6 43144.6 504.642   3
  14   2   6 47630.3 548.713   5
  14  -2   6 51199.2 630.745   5
   2  14  -8 29322.8 374.085   3
  14  -2   8 35007.2 501.339   5
   2  14 -10 8749.82 149.180   3
  14   2  10 10442.1 233.045   5
   3 -14  11 10577.3 336.207   5
   3 -14  11 10796.4 336.757   6
  -3 -14  11 11154.1 282.205   6
   3 -14   9 11072.6 436.538   5
  14   3  -9 12308.6 215.191   3
  -3 -14   9 11683.7 345.683   7
  14  -3  -9 13083.0 219.435   3
   3 -14   9 13006.6 445.999   6
  14   3  -7 63938.4 584.201   3
  14  -3  -7 67922.2 920.680   3
   3  14   5 83142.5 533.953   8
  -3 -14   5 90393.4 1043.65   7
   3 -14   5 62642.7 952.864   6
  14  -3  -5 55431.9 1233.32   3
  14   3  -3 15982.7 353.198   3
  -3 -14   3 15878.2 426.085   7
   3  14   3 16299.9 284.768   3
   3  14   1 1923.80 95.0532   8
  14   3  -1 2165.22 112.277   4
  14   3  -1 1912.03 130.762   3
   3  14  -1 3549.93 143.712   8
  14   3   1 3912.42 146.276   4
  14   3   1 3490.90 153.534   3
  -3  14  -1 3688.39 156.467   3
  14   3   1 3852.19 132.127   5
  14   3   3 20934.8 339.749   4
  14   3   3 20950.1 334.715   5
  14   3   5 101293. 746.925   4
  -3  14  -5 94597.7 720.540   3
   3  14  -5 90512.4 759.749   3
  14   3   5 107318. 799.793   5
  14  -3   5 110602. 898.885   5
  14   3   7 64259.1 501.568   8
  14   3   7 66309.0 624.723   4
   3  14  -7 61096.6 569.927   3
  14   3   7 69136.3 643.475   5
  14  -3   7 72702.9 736.845   5
  14   3   9 13069.2 203.285   8
  14   3   9 11559.8 250.244   4
   3  14  -9 12540.4 220.804   3
  14   3   9 15197.5 280.162   5
  14  -3   9 16340.5 337.376   5
  14   3  11 4418.68 112.763   4
  14   3  11 11673.7 187.272   5
  14   4 -10 3146.26 90.1950   3
   4 -14  10 2888.48 208.775   5
  -4 -14  10 2690.78 130.760   5
  -4 -14  10 4072.60 187.660   7
   4 -14  10 2887.67 197.898   6
  -4 -14  10 4218.19 191.685   6
   4  14   8 2639.95 84.3099   8
   4 -14   8 2166.70 208.349   5
  14   4  -8 3361.04 128.486   3
  -4 -14   8 2960.09 180.346   7
   4 -14   8 2415.75 204.353   6
  14  -4  -8 3029.77 154.896   3
   4  14   6 1249.02 69.6049   8
   4 -14   6 707.288 136.847   5
  14   4  -6 904.008 83.6365   3
  -4 -14   6 1469.21 137.485   7
   4 -14   6 929.008 129.823   6
  14  -4  -6 945.438 265.681   3
   4  14   4 642.861 56.3831   8
  -4 -14   4 485.039 94.3768   7
  14   4  -2 1360.63 109.294   3
   4  14   2 1164.48 85.6048   3
   4  14   0 4659.19 149.061   8
  14   4   0 4682.11 156.206   4
  14   4   0 4644.17 175.561   3
  14   4   2 1109.52 80.1686   3
  14   4   2 1021.92 79.2388   4
  14   4   2 1203.56 80.7249   5
   4  14  -2 1186.94 97.2301   3
  14  -4   4 374.819 186.995   3
  14   4   4 1144.61 73.4853   8
  14   4   4 1540.56 100.516   4
   4  14  -4 542.208 80.6011   3
  14   4   4 920.377 84.6819   5
  14  -4   4 881.657 90.6835   5
  14   4   6 1118.00 72.6568   8
  14   4   6 975.062 82.1410   4
  14   4   6 1090.65 91.5915   5
  14   4   8 2754.09 100.909   8
  14   4   8 2818.38 122.553   4
  14   4  10 3265.74 88.0624   8
  14   4  10 2757.09 104.027   4
   4  14 -10 3274.82 89.2961   3
  14   4  10 3829.27 121.691   5
  14  -4  10 3778.25 151.073   5
  -5 -14  11 18444.5 299.775   7
  -5 -14  11 19425.4 282.484   6
  14   5  -9 23266.7 281.538   3
  14  -5  -9 23197.1 269.447   3
   5  14   7 53302.3 408.393   8
   5 -14   7 60939.7 992.457   5
  14   5  -7 60019.7 531.519   3
  -5 -14   7 54490.7 721.905   7
  14  -5  -7 58971.5 1002.20   3
   5  14   5 80673.3 548.453   8
   5 -14   5 82653.2 1140.71   5
  -5 -14   5 76922.5 850.343   7
   5 -14   5 77099.2 1047.04   6
   5  14   3 20146.2 291.192   8
  -5 -14   3 20442.4 454.399   7
   5  14   1 1207.84 81.6518   8
  14   5  -1 1041.93 82.1230   4
  14   5  -1 1069.73 89.6204   3
   5  14  -1 568.508 67.4117   8
  14   5   1 611.569 66.7419   4
  14   5   1 999.742 81.4659   5
   5  14  -1 1170.55 94.1744   3
  14   5   3 27399.3 337.528   8
  14   5   3 27431.9 368.755   4
  14   5   3 26581.7 357.556   5
  14  -5   5 103138. 859.284   5
  14   5   5 95521.6 624.827   8
  14   5   5 101581. 732.040   4
  14   5   5 97626.6 703.850   5
  14  -5   7 63283.9 680.812   5
  14   5   7 65239.1 568.806   4
  14   5   9 23619.1 260.596   8
  14   5   9 25353.7 317.774   4
   5  14  -9 21180.2 272.050   3
  14   5   9 28091.0 338.616   5
  14  -5   9 30038.6 437.317   5
  14   5  11 9700.06 147.067   4
  14  -5  11 23643.0 301.515   5
  -6 -14  10 7497.07 207.780   7
  -6 -14  10 7942.95 205.324   6
   6  14   8 16866.5 215.187   8
   6 -14   8 16422.7 486.806   5
  14   6  -8 16355.6 250.751   3
   6  14   6 41178.1 380.371   8
   6 -14   6 39741.1 790.836   5
   6  14   4 31856.0 362.597   8
   6 -14   4 31211.7 669.369   5
  14   6  -4 32739.7 425.857   3
  14   6  -2 8727.73 225.816   3
   6  14   2 8301.90 200.087   3
  14   6   0 4368.63 136.383   8
  14   6   0 4070.77 146.681   3
  14   6   0 4222.06 145.790   4
   6  14  -2 8812.28 268.533   8
  14   6   2 9574.49 198.902   8
  14   6   2 9437.04 216.446   4
   6  14  -2 8876.53 233.515   3
  14  -6   4 42540.3 520.118   5
  14   6   4 35038.3 376.990   8
  14   6   4 36892.7 425.104   4
  14   6   4 41092.2 444.480   5
   6  14  -4 34983.1 441.207   3
  14   6   6 45248.0 415.709   8
  14   6   6 45814.7 468.398   5
  14   6   8 18896.0 244.520   8
   6  14  -8 18339.9 268.637   3
  14   6  10 7228.14 118.885   8
  14   6  10 7259.07 143.342   4
  14   7  -9 1371.31 62.3425   3
   7 -14   9 1485.98 144.588   5
   7  14   7 4095.25 117.100   8
   7 -14   7 6548.09 317.141   5
  14   7  -7 5722.14 157.220   3
  14  -7  -7 4208.95 313.189   3
  14  -7  -5 13111.8 617.408   3
   7  14   5 21504.3 288.308   8
   7 -14   5 26360.8 615.864   5
  14   7  -5 25514.8 356.714   3
  -7 -14   5 17912.6 380.284   7
   7  14   3 3426.55 125.458   8
  -7 -14   3 3236.31 174.804   7
  14   7  -1 3144.27 119.685   8
   7  14   1 3534.99 132.429   8
  14   7  -1 3233.42 133.608   3
  14   7  -1 3935.06 156.915   4
  -7 -14   1 3612.94 181.974   7
   7  14   1 3658.93 137.001   3
   7  14  -1 3046.77 133.868   8
  14   7   1 2631.12 104.864   8
  14   7   1 2742.61 114.420   3
  14   7   1 2692.18 117.471   4
   7  14  -1 3164.32 136.832   3
  14   7   3 4791.91 138.560   8
   7  14  -3 4406.59 160.114   3
  14  -7   5 26264.4 429.366   5
  14   7   5 26549.9 318.402   8
  14   7   5 27514.0 351.730   4
  14   7   7 5947.33 142.509   8
  14   7   7 6269.75 164.011   4
  14   7   9 1381.46 58.2167   8
  14   7   9 1500.66 70.8519   4
  14   8  -8 19820.6 240.787   3
   8  14   8 21350.9 228.692   8
   8 -14   8 23620.1 506.806   5
  -8 -14   8 20998.4 339.846   7
  14  -8  -8 23760.1 316.927   3
   8  14   6 38564.0 361.013   8
  -8 -14   6 38067.9 513.187   7
   8  14   4 50589.9 416.531   4
  -8 -14   4 50124.6 595.409   7
  14   8  -2 17364.8 518.947   8
   8  14   2 14920.6 256.910   8
  14   8  -2 17553.5 299.210   3
  -8 -14   2 15790.3 357.755   7
   8  14   0 750.463 69.4172   8
  14   8   0 927.476 64.8428   8
  14   8   0 889.665 76.2711   4
  -8 -14   0 816.905 87.7666   7
  14   8   2 18599.7 268.443   8
  14   8   2 19078.4 293.333   4
  14   8   4 56680.6 451.760   8
   8  14  -4 58579.3 544.918   3
  14   8   6 41234.6 371.165   8
  14   8   6 40970.0 389.912   4
  14   8   8 20260.5 225.890   8
   8  14  -8 18838.5 241.112   3
  -9 -14   9 2977.95 99.2861   7
  14   9  -7 3712.32 111.590   3
   9  14   7 3458.00 98.3473   8
   9 -14   7 3473.14 190.074   5
  -9 -14   7 3537.12 138.005   7
   9  14   5 2605.57 97.7360   8
  14   9  -5 1861.80 93.0775   3
   9 -14   5 1623.14 141.974   5
   9  14   5 2644.13 90.2955   4
  -9 -14   5 3122.87 138.615   7
   9  14   3 12115.2 216.562   8
  14   9  -3 12111.2 232.972   3
  14   9  -1 2399.81 108.447   8
   9  14   1 3025.77 116.355   8
  14   9  -1 2659.92 109.978   3
  -9 -14   1 3516.10 158.371   7
   9  14   1 3269.54 113.036   3
   9  14  -1 3417.67 135.823   8
  14   9   1 2840.09 106.844   8
  14   9   1 3121.75 120.818   4
  -9 -14  -1 3940.63 155.079   7
   9  14  -1 4124.85 140.519   3
  14   9   3 11263.0 202.474   8
  14   9   3 11061.6 212.158   4
  14   9   5 2350.11 88.7712   8
   9  14  -5 3392.43 124.123   3
  14   9   7 3067.78 88.6279   8
   9  14  -7 2905.05 100.171   3
  14   9   9 3068.02 76.6670   4
  10  14   8 18631.8 179.906   8
 -10 -14   8 19060.6 234.516   7
  14  10  -8 19336.9 189.757   3
  14  10  -6 31141.2 308.668   3
  10  14   6 30557.5 288.781   8
  10  14   4 8365.83 166.116   8
 -10 -14   4 8360.65 202.458   7
  10  14   2 5886.43 148.566   8
 -10 -14   2 6795.35 190.661   7
  14  10   0 7454.35 160.341   3
  14  10   0 6993.30 159.579   8
 -10 -14   0 7480.38 203.833   7
  10  14   0 7600.10 167.769   3
  14  10   2 7854.57 163.052   8
 -10 -14  -2 7573.03 191.387   7
  10  14  -2 7677.94 176.798   3
  14  10   4 11086.3 183.369   8
  10  14  -4 10214.7 201.996   3
  14  10   6 29606.3 267.192   8
  14  10   6 30977.2 304.417   4
  14  10   8 19989.6 192.507   4
  10  14  -8 18075.7 183.338   3
  11  14   7 23798.4 203.621   8
  14  11  -5 30147.2 293.851   3
 -11 -14   5 29493.5 313.863   7
  14  11  -3 21809.3 268.096   3
 -11 -14   3 20839.1 281.859   7
  14  11  -1 18420.0 242.054   3
 -11 -14   1 16673.4 256.294   7
 -11 -14  -1 20374.0 278.916   7
  11  14  -1 20840.0 258.768   3
  14  11   3 21674.2 248.162   8
  14  11   3 26011.5 305.258   4
 -11 -14  -3 20360.5 262.584   7
  11  14  -3 24456.4 284.431   3
  14  11   5 25976.6 248.146   8
  14  11   5 28753.1 272.343   4
  14  11   7 22596.8 200.946   4
  14 -12  -4 1063.55 197.536   3
  14  12  -4 1126.30 55.5723   3
  12  14   2 5613.96 129.566   8
 -12 -14   2 5867.08 124.513   7
  14  12   0 68.4216 74.5025   8
  12  14   0 63.8693 55.2659   8
  14  12   2 3772.50 96.7437   8
  12  14  -2 6299.10 127.678   3
  14  12   4 742.999 41.3694   8
  12  14  -4 1124.78 55.2619   3
  13  14   3 6892.72 140.843   8
  13  14   1 21.8054 72.5391   8
  14  13   1 37.2502 59.6422   8
  14  13   3 12388.1 163.204   8
   0 -15   9 778.307 116.594   5
  15   0  -9 660.659 51.4041   3
   0 -15   9 551.213 99.7031   6
   0 -15   7 6662.16 287.759   7
  15   0  -7 7501.27 206.405   3
   0 -15   5 16318.9 469.147   7
   0 -15   3 32648.8 686.507   7
  15   0  -3 31088.7 642.686   3
   0  15   1 53862.8 575.253   3
  15   0  -1 55458.3 970.576   3
   0  15  -1 55092.1 593.439   3
  15   0   1 56960.5 902.260   3
  15   0   1 57167.3 475.651   5
   0  15  -3 29473.6 431.779   3
  15   0   3 36610.1 448.866   5
   0  15  -5 17656.7 325.455   3
  15   0   5 19819.4 340.945   5
   0  15  -7 7773.33 194.128   3
  15   0   7 10015.3 244.343   5
  15   0   9 738.772 77.3625   5
  15   0  11 7030.34 140.622   5
   1 -15  10 1582.68 139.483   5
  15   1 -10 1686.89 57.8633   3
  -1 -15  10 2042.00 141.454   5
   1 -15  10 2035.83 153.964   6
   1 -15   8 3274.20 226.563   5
  15   1  -8 3137.91 120.556   3
  -1 -15   8 985.481 112.767   7
  15  -1  -8 2047.81 102.656   3
   1 -15   8 3786.88 234.562   6
  -1 -15   8 1300.78 142.646   6
  -1 -15   6 11285.6 383.639   7
  15  -1  -6 12046.5 325.216   3
   1 -15   4 697.283 111.413   7
  -1 -15   4 882.969 124.913   7
  15   1  -4 591.569 100.693   3
   1  15   2 3452.75 142.785   3
   1 -15   2 1151.98 140.005   7
  -1 -15   2 2750.96 197.296   7
  15   1  -2 1577.42 160.099   3
  15  -1  -2 2266.82 316.903   3
  -1  15   0 1021.74 95.0627   3
   1  15   0 892.126 87.7345   3
  15   1   0 857.627 120.946   3
  15  -1   0 1202.82 285.840   3
   1  15  -2 2481.79 139.429   3
  15  -1   2 2165.40 232.614   3
  15   1   2 2399.12 110.895   5
  15  -1   2 2073.30 106.313   5
  15   1   4 868.719 70.2887   4
  -1  15  -4 651.097 77.3581   3
  15   1   4 764.537 78.8736   5
  15  -1   4 888.216 80.4703   5
  15   1   6 10355.6 223.162   4
  -1  15  -6 8953.28 219.882   3
   1  15  -6 10265.6 232.314   3
  15   1   6 12390.9 281.925   5
  15  -1   6 12913.1 291.090   5
  15   1   8 1963.86 92.0723   4
   1  15  -8 1458.04 82.6116   3
  15   1   8 3262.20 142.558   5
  15  -1   8 2984.31 134.167   5
  15  -1  10 1716.28 94.6965   5
  -2 -15  11 6178.96 183.561   6
   2 -15   9 5625.68 281.732   5
  15   2  -9 5821.67 133.494   3
  15  -2  -9 7991.57 157.808   3
  -2 -15   9 8219.44 271.453   7
   2 -15   9 5952.03 281.364   6
  -2 -15   7 4092.86 224.219   7
  15  -2  -7 4035.98 165.421   3
  -2 -15   5 24449.7 548.379   7
  15  -2  -5 25509.5 642.594   3
  -2 -15   3 22942.8 542.577   7
  15   2  -3 23437.9 429.050   3
   2  15   1 3538.70 132.565   8
   2 -15   1 8377.32 345.456   7
  15   2  -1 6009.40 224.294   3
   2  15   1 5896.82 189.027   3
  15  -2  -1 3143.47 385.259   3
  15   2   1 6881.57 186.131   4
  -2  15  -1 7270.62 214.064   3
  15   2   1 6516.00 214.196   3
  15   2   1 6817.45 174.067   5
  15   2   3 25109.6 347.912   4
  15   2   3 23846.6 347.571   5
  15  -2   3 23098.2 710.134   3
  15  -2   3 25082.8 355.191   5
  15   2   5 28336.9 374.349   4
  -2  15  -5 24167.3 357.974   3
   2  15  -5 23485.5 370.303   3
  15   2   5 27309.8 390.608   5
  15  -2   5 29306.5 427.046   5
  15   2   7 4224.28 144.463   4
  15   2   7 4729.70 165.632   5
  15  -2   7 4563.80 173.970   5
   2  15  -9 8122.40 155.609   3
  15  -2   9 10070.3 229.796   5
  15   3 -10 19043.7 178.212   3
   3 -15  10 26458.1 530.590   5
  -3 -15  10 16066.1 281.732   5
  -3 -15  10 23885.9 371.260   7
   3 -15  10 24822.2 468.059   6
  -3 -15  10 27659.3 453.268   6
  -3 -15   8 3688.78 191.894   7
  15  -3  -8 4128.76 140.548   3
   3 -15   8 4200.63 247.816   6
  -3 -15   6 14730.6 392.724   7
  15  -3  -6 15894.2 460.238   3
  15   3  -4 11938.9 282.326   3
  -3 -15   4 11830.4 363.004   7
   3  15   2 25225.5 306.087   8
  15   3  -2 27711.2 426.827   3
  15  -3   0 6098.80 477.280   3
   3  15   0 8437.78 224.932   8
  15   3   0 14340.1 269.163   4
  15   3   0 13439.0 291.020   3
   3  15   0 13295.5 283.247   3
  15   3   2 30966.0 393.786   4
   3  15  -2 30310.7 426.919   3
  15   3   2 31293.6 370.567   5
  15   3   4 12508.0 245.968   4
  15   3   4 12641.2 249.300   5
  15   3   6 16573.9 295.342   5
  15  -3   6 17314.9 320.806   5
  15   3   8 5202.40 148.891   4
  15  -3   8 5649.27 180.755   5
  15   3  10 23912.3 272.222   5
  15  -3  10 29305.2 337.102   5
  15   4  -9 1186.87 60.7929   3
  -4 -15   9 2232.21 136.332   7
  15  -4  -9 1878.16 70.4733   3
   4 -15   9 773.461 102.703   6
   4 -15   7 785.574 134.777   5
  15   4  -7 818.444 69.8666   3
  -4 -15   7 1186.77 115.385   7
  15  -4  -7 1160.40 111.484   3
   4  15   5 3098.02 102.187   8
   4 -15   5 1202.99 153.503   5
  -4 -15   5 3830.68 205.519   7
   4 -15   5 1184.48 133.475   6
  15  -4  -5 2746.20 335.731   3
   4  15   3 4140.52 127.809   8
  -4 -15   3 4690.75 234.578   7
  15   4  -1 11001.0 251.648   4
  15   4  -1 10888.0 258.835   3
   4  15   1 10974.3 243.238   3
  15   4   1 9947.98 219.386   4
  15   4   1 10137.9 225.840   3
   4  15  -1 10574.0 248.460   3
  15   4   3 4884.53 154.612   4
  15   4   3 5028.17 157.472   5
  15   4   5 3444.06 132.110   5
  15  -4   5 3926.81 152.842   5
   4  15  -7 1143.27 79.4059   3
  15   4   7 1170.67 80.5855   5
   4  15  -9 2056.38 76.1493   3
  15   4   9 1975.76 88.8058   5
  -5 -15  10 13813.6 243.914   7
  -5 -15  10 15995.7 268.249   6
  15   5  -8 2837.95 101.753   3
  -5 -15   8 2690.04 145.308   7
  15  -5  -8 2694.42 107.283   3
   5  15   6 6323.85 137.857   8
  -5 -15   6 6776.05 244.392   7
   5  15   4 6034.64 148.979   8
   5 -15   4 5520.26 289.566   5
  15   5  -4 7702.33 206.865   3
  -5 -15   4 6958.40 260.588   7
   5 -15   2 11499.3 377.692   5
  15   5  -2 10808.3 248.748   3
  -5 -15   2 11623.6 331.356   7
   5  15   2 11280.9 230.629   3
   5  15   0 12179.4 235.966   8
  15   5   0 16586.3 285.058   4
  15   5   0 17185.2 296.928   3
   5  15   0 13498.0 269.140   3
  15   5   2 11503.9 236.824   4
   5  15  -2 11691.1 258.442   3
  15   5   4 7637.77 187.927   5
  15  -5   4 7888.83 199.655   5
  15   5   6 7252.52 176.141   4
   5  15  -6 6138.37 173.446   3
  15   5   6 7584.64 185.429   5
  15  -5   6 8735.38 228.637   5
  15   5   8 2582.28 98.8734   4
  15  -5   8 2730.18 122.114   5
  15  -5  10 15288.9 216.578   5
   6 -15   9 1970.23 149.205   5
  -6 -15   9 1951.18 104.949   7
   6  15   7 979.901 53.4151   8
  -6 -15   7 1139.62 102.252   7
  15  -6  -7 1096.79 113.129   3
   6  15   5 9599.82 179.288   8
   6 -15   5 6362.48 297.961   5
  15   6  -5 8885.59 208.533   3
  15  -6  -5 5596.62 412.072   3
   6  15   3 11572.5 211.805   8
   6 -15   3 10515.3 367.167   5
  15   6  -3 10927.9 240.028   3
  15   6  -1 21870.8 332.012   3
   6  15   1 23419.3 329.974   3
   6  15  -1 18427.1 366.699   8
  15   6   1 20853.4 293.429   3
  15   6   1 17528.7 280.710   4
   6  15  -1 21704.4 338.569   3
  15   6   3 10926.0 226.826   4
   6  15  -3 12711.1 264.859   3
  15   6   5 8198.12 157.120   8
  15   6   5 9316.32 196.262   4
  15   6   5 13178.9 260.790   5
  15  -6   5 13395.9 263.793   5
  15   6   7 968.417 51.5271   8
  15   6   7 756.192 58.2236   4
   6  15  -7 864.404 64.9820   3
  15   6   9 1650.78 64.3356   4
   6  15  -9 1631.34 60.2756   3
   7  15   8 3768.22 83.8359   8
  15  -7  -8 3948.74 102.672   3
   7  15   6 5286.72 126.517   8
  15  -7  -6 5906.55 367.121   3
   7  15   4 7844.94 169.160   8
   7 -15   4 7704.92 307.062   5
  15   7  -2 13702.7 253.975   3
  -7 -15   2 14709.7 342.314   7
   7  15   0 1937.31 99.0375   8
  15   7   0 3440.53 124.922   3
  15   7   0 3455.73 139.809   4
  -7 -15   0 2174.25 134.389   7
   7  15   0 2331.91 107.402   3
  15   7   2 12534.4 202.806   8
  15   7   2 12955.6 229.885   4
  15   7   4 8021.94 156.481   8
   7  15  -4 8410.15 204.188   3
  15   7   6 5031.35 114.407   8
  15   7   6 5705.75 142.625   4
  15   7   8 3672.97 98.9083   4
   7  15  -8 4506.47 113.399   3
   8  15   7 4947.74 106.933   8
  -8 -15   7 5485.92 167.379   7
  15  -8  -7 5305.82 170.811   3
   8  15   5 12482.7 197.489   8
  15   8  -5 13369.2 227.423   3
  -8 -15   5 13092.5 282.529   7
   8  15   3 13148.9 219.899   8
  15   8  -3 13658.9 245.246   3
  15   8  -1 21415.9 299.314   3
  -8 -15   1 21383.7 375.673   7
  -8 -15  -1 21114.5 362.627   7
   8  15  -1 21682.5 310.932   3
  15   8   3 11414.8 186.306   8
  15   8   3 12677.9 220.555   4
  15   8   5 12310.2 206.049   4
   8  15  -5 12602.7 224.623   3
  15   8   7 5111.52 120.102   4
   8  15  -7 5126.90 124.225   3
  15   9  -6 2855.64 92.6036   3
   9  15   6 2136.92 73.8773   8
   9 -15   6 1630.88 108.215   5
  -9 -15   6 2319.70 105.432   7
  15  -9  -6 2950.44 216.993   3
   9  15   4 5692.69 134.994   8
  -9 -15   4 6009.41 176.803   7
   9  15   2 4148.96 121.168   8
  15   9  -2 4303.51 127.863   3
  -9 -15   2 4578.20 165.743   7
  15   9   0 2530.31 115.458   8
   9  15   0 3613.96 132.485   8
  15   9   0 3066.73 101.778   3
  -9 -15   0 4340.67 163.013   7
   9  15   0 3799.17 115.120   3
  -9 -15  -2 4323.19 155.554   7
   9  15  -2 4307.22 132.321   3
  15   9   4 3679.50 98.8304   8
  15   9   4 4289.18 117.192   4
  15   9   6 2463.53 70.1891   8
  15   9   6 2426.69 81.0845   4
  15  10  -5 4411.60 111.098   3
 -10 -15   5 4347.25 126.873   7
  15  10  -3 9193.44 166.618   3
  10  15   3 8632.38 156.097   8
 -10 -15   3 9008.56 194.229   7
  10  15   1 3175.29 111.310   8
 -10 -15   1 3583.33 129.673   7
  15  10   1 3197.00 99.1363   8
 -10 -15  -1 2855.68 114.689   7
  10  15  -1 2888.45 95.6607   3
 -10 -15  -3 9668.25 192.198   7
  10  15  -3 10332.2 183.896   3
  15  10   5 3415.15 80.0698   8
 -10 -15  -5 3602.28 99.0327   7
  11  15   4 4612.27 104.904   8
  15  11  -4 4613.72 101.358   3
  11  15   2 8312.26 158.679   8
 -11 -15   2 8838.93 161.719   7
 -11 -15   0 5984.82 136.307   7
  15  11   2 8390.31 150.786   8
  11  15  -2 8866.98 145.057   3
  11  15  -4 4713.28 104.612   3
  15 -12  -3 58.3101 124.657   3
   0 -16  10 57184.7 583.027   6
   0 -16   8 40391.1 679.069   5
  16   0  -8 37576.1 349.093   3
   0 -16   6 31671.0 560.459   7
  16   0  -6 32004.5 403.453   3
   0 -16   4 62641.0 852.172   7
  16   0  -4 61287.2 658.858   3
   0 -16   2 155538. 1429.53   7
  16   0  -2 138241. 1171.10   3
   0  16   0 126081. 837.333   3
  16   0   0 132819. 1123.55   3
   0  16  -2 134987. 902.198   3
  16   0   2 137125. 932.997   3
  16   0   4 73599.6 575.100   5
   0  16  -6 31980.6 373.025   3
  16   0   6 39744.5 434.594   5
  16   0   8 40705.5 402.106   5
   1 -16   9 7099.07 264.954   5
  -1 -16   9 6700.71 240.517   5
  16   1  -9 6528.84 117.381   3
  16  -1  -9 7510.82 122.074   3
   1 -16   9 9155.91 277.445   6
  -1 -16   9 9885.97 274.759   6
  16   1  -7 6438.35 167.973   3
  -1 -16   7 8962.95 287.587   7
  16  -1  -7 8233.04 196.945   3
   1 -16   7 4943.19 238.993   6
  -1 -16   7 9433.97 324.755   6
  -1 -16   5 12568.6 371.144   7
   1 -16   5 5746.76 261.950   6
   1 -16   3 17303.3 448.339   7
  16   1  -3 17991.5 364.721   3
   1  16   1 2596.59 123.388   3
   1 -16   1 3231.04 208.764   7
  16   1  -1 2321.57 142.378   3
  -1 -16   1 2953.95 195.411   7
  16  -1  -1 2988.79 242.805   3
  -1  16  -1 2336.97 124.058   3
  16   1   1 2464.34 133.149   3
   1  16  -1 2358.36 125.291   3
  16  -1   1 2423.05 191.741   3
  16   1   3 20902.8 292.905   5
  16  -1   3 21036.9 295.842   5
  -1  16  -5 10269.4 221.118   3
   1  16  -5 11791.4 244.109   3
  16   1   5 13223.9 245.312   5
  16  -1   5 14713.8 272.527   5
  16   1   7 7877.31 182.830   5
  16  -1   7 8036.83 199.615   5
  16   1   9 7386.27 152.849   5
  16  -1   9 7065.98 154.963   5
  16   2  -8 36318.5 338.007   3
  -2 -16   8 38365.4 533.300   7
  16  -2  -8 36361.3 345.045   3
   2 -16   8 40648.6 644.293   6
  -2 -16   8 40749.9 592.028   6
  16   2  -6 40112.3 431.176   3
  -2 -16   6 41084.6 624.039   7
  16   2  -4 30995.0 430.766   3
  -2 -16   4 26175.4 526.063   7
  16   2  -2 45474.6 545.995   3
   2  16   2 41684.1 432.293   3
  -2 -16   2 47847.5 727.901   7
  16  -2  -2 43414.0 921.769   3
  16   2   0 13470.0 282.751   3
  16  -2   0 12981.0 550.330   3
  16  -2   2 49109.0 794.659   3
  16   2   2 48220.0 430.428   5
  16   2   4 30249.7 342.865   4
  16   2   4 28029.5 344.460   5
  16   2   6 42548.2 378.616   4
  16   2   6 44578.9 429.406   5
  16   2   8 41551.6 379.120   5
  16  -2   8 46352.1 452.858   5
  16   3  -9 32218.7 254.171   3
  -3 -16   9 31418.1 392.455   5
   3 -16   9 44192.8 545.108   6
  -3 -16   9 42894.5 509.463   6
   3 -16   7 53799.1 850.259   5
  16   3  -7 52156.8 435.685   3
  -3 -16   7 65057.3 732.016   7
  16  -3  -7 60623.6 531.277   3
  -3 -16   5 72709.3 821.575   7
  16  -3  -5 76289.9 895.679   3
  16   3  -3 58380.9 577.728   3
  16  -3  -3 59788.8 1197.68   3
  16   3  -1 51933.3 546.590   3
   3  16   1 50880.0 503.140   3
  16   3   1 53064.2 493.311   4
  16   3   1 53262.8 506.892   3
   3  16  -1 48048.0 503.881   3
  16  -3   1 46353.0 1098.10   3
  16   3   3 55210.4 475.435   4
   3  16  -3 56115.7 549.889   3
  16   3   5 75153.4 531.690   4
  16   3   5 76327.2 555.693   5
  16   3   7 57172.7 418.986   4
   3  16  -7 54977.7 460.155   3
  16  -3   9 32408.0 314.565   5
   4 -16   8 1514.52 144.556   5
  16   4  -8 1285.44 62.2550   3
  -4 -16   8 900.074 85.1257   7
  16  -4  -8 867.115 53.6842   3
   4 -16   6 300.394 93.5203   5
   4 -16   6 243.904 63.2248   6
  16  -4  -6 496.649 90.8455   3
   4  16   4 2832.19 94.0534   8
  16   4  -4 3469.24 137.623   3
   4  16   2 300.614 45.0347   8
  16  -4  -2 290.248 242.496   3
   4  16   2 462.569 50.2143   3
  -4 -16   2 509.501 85.7831   7
  16   4   0 2027.18 104.349   3
   4  16   0 2249.13 112.392   3
  16  -4   2 570.508 214.575   3
  16   4   2 737.518 62.5703   4
   4  16  -2 416.017 63.3002   3
   4  16  -4 3501.20 140.918   3
  16   4   4 3805.88 128.286   5
  16   4   6 467.410 47.3460   4
   4  16  -6 392.637 53.4080   3
  16   4   6 474.836 54.0590   5
  16   4   8 1218.58 68.6511   5
  16  -4   8 1372.38 72.6534   5
  -5 -16   9 42726.0 408.051   6
  -5 -16   7 59050.7 618.061   7
  16  -5  -7 59605.0 500.810   3
  16   5  -5 47946.8 449.228   3
  -5 -16   5 45275.5 580.003   7
   5  16   3 49179.0 404.652   8
   5 -16   3 39762.6 705.406   5
  16   5  -3 55146.4 506.785   3
  -5 -16   3 57002.9 683.325   7
  16  -5  -3 33828.1 947.839   3
  16  -5  -1 14218.0 657.278   3
   5  16   1 19682.3 327.914   8
  16   5  -1 29465.8 364.713   3
  -5 -16   1 31287.8 517.597   7
   5  16   1 26884.7 335.327   3
  16   5   1 28652.4 329.369   3
   5  16  -1 27673.6 369.235   3
  16   5   3 47198.1 429.840   4
  16  -5   3 48203.9 1026.51   3
  16   5   5 48830.7 419.502   4
  16  -5   5 60752.6 474.260   5
  16   5   7 59819.5 408.235   4
   5  16  -7 50377.5 405.235   3
  16   5   7 85771.5 603.265   5
  16  -5   7 77607.4 518.192   5
  16   6  -8 15534.3 174.568   3
   6 -16   8 17297.2 368.805   5
  -6 -16   6 41755.7 498.047   7
  16  -6  -6 45898.0 606.658   3
  16   6  -4 52973.5 465.049   3
  -6 -16   4 55156.4 620.415   7
   6  16   2 21482.9 272.190   8
  16   6  -2 25028.3 327.602   3
   6  16   0 16090.7 489.692   8
  16  -6   0 17114.5 712.221   3
  16   6   0 30785.6 348.057   3
   6  16   0 28265.8 345.866   3
  16   6   2 22808.4 297.104   4
   6  16  -2 24725.5 339.172   3
  16   6   4 49676.9 417.221   4
   6  16  -4 50995.0 460.835   3
  16   6   6 37814.3 332.537   4
  16   6   8 17804.2 184.205   4
   6  16  -8 17328.0 182.803   3
  16   7  -7 3004.59 85.2913   3
  16  -7  -7 3560.79 103.106   3
  16   7  -5 9827.16 186.735   3
  16  -7  -5 10679.6 439.800   3
   7  16   3 18766.1 246.661   8
  16   7  -3 22438.1 294.874   3
   7  16   1 10389.3 222.561   8
  -7 -16   1 11144.8 281.607   7
  -7 -16  -1 11083.3 274.678   7
   7  16  -1 10920.6 213.115   3
  16   7   3 20261.2 269.473   4
   7  16  -3 19746.7 278.704   3
  16   7   5 9931.64 172.207   4
   7  16  -5 8491.36 172.685   3
  16   7   7 4043.15 94.1630   4
   7  16  -7 3780.30 97.5627   3
  -8 -16   6 28126.2 336.331   7
  16  -8  -6 29922.6 394.202   3
  16   8  -4 50115.3 392.923   3
  -8 -16   4 48480.5 490.025   7
  16   8  -2 44940.0 380.151   3
  -8 -16   2 45405.4 511.147   7
  -8 -16   0 73076.6 662.568   7
   8  16   0 66026.1 443.558   3
  16   8   2 47027.1 427.749   4
  -8 -16  -2 47640.2 504.119   7
  16   8   4 47157.1 366.499   4
   8  16  -4 47308.2 393.499   3
  16   8   6 23154.0 230.520   4
  16   9  -5 10707.5 154.291   3
   9  16   5 8246.33 124.754   8
  -9 -16   5 12266.3 209.713   7
  16  -9  -5 14403.0 382.954   3
  16   9  -3 17252.6 220.250   3
  -9 -16   3 18265.8 274.169   7
  16   9  -1 6757.17 125.489   3
  -9 -16   1 7824.45 193.523   7
  16  -9   1 5990.06 417.538   3
   9  16  -1 6735.87 135.199   3
  -9 -16  -3 19250.2 274.095   7
   9  16  -3 18938.9 234.765   3
  16   9   5 11175.1 164.650   4
  -9 -16  -5 10711.6 177.208   7
 -10 -16   4 12778.1 185.327   7
  16 -10  -4 16889.9 478.877   3
  16 -10  -2 6179.59 392.389   3
 -10 -16   2 10523.5 178.931   7
  16 -10   0 12234.0 545.743   3
 -10 -16   0 14953.3 217.189   7
  16 -10   2 8245.21 404.712   3
 -10 -16  -2 9302.95 161.690   7
  10  16  -4 11579.8 149.480   3
  16 -11  -1 26020.8 698.717   3
  17   0  -7 4910.73 123.121   3
   0 -17   7 5513.39 199.894   6
   0 -17   5 6674.74 241.980   6
   0 -17   3 17608.6 406.814   7
  17   0  -3 16930.4 319.208   3
   0 -17   1 34730.0 616.642   7
  17   0  -1 28397.6 430.077   3
  17   0   1 30599.4 402.388   3
   0 -17  -1 36396.0 620.747   7
   0  17  -3 14622.6 264.666   3
   0  17  -5 7388.28 171.740   3
  17   0   5 9277.98 172.541   5
  17   0   7 4370.40 110.360   5
  17  -1  -8 2756.31 75.4622   3
  -1 -17   8 2962.85 134.786   6
   1 -17   6 636.450 106.487   5
  17   1  -6 1177.13 72.8206   3
  -1 -17   6 2445.41 131.210   7
  17  -1  -6 2073.40 99.8337   3
   1 -17   6 671.742 81.8096   6
  -1 -17   6 2722.56 152.392   6
  17   1  -4 8954.81 214.466   3
  -1 -17   4 9728.11 295.824   7
  17  -1  -4 9173.34 238.168   3
  17   1  -2 3899.95 150.576   3
  17  -1  -2 4302.08 190.376   3
  17   1   0 6338.10 188.102   3
   1 -17   0 6939.48 265.421   7
  17  -1   0 6927.81 231.460   3
   1  17  -2 4659.19 156.259   3
  17   1   4 10137.0 182.053   5
  17  -1   4 10020.7 172.569   5
   1  17  -6 2276.64 93.1074   3
  17   1   6 2167.03 85.0816   5
  17   1   8 2385.51 77.0628   5
  17  -1   8 2732.96 78.7937   5
   2 -17   7 10506.4 321.967   5
  17   2  -7 8575.85 155.841   3
  -2 -17   7 9097.53 220.900   7
  17  -2  -7 9045.68 168.458   3
   2 -17   7 9895.59 256.452   6
  -2 -17   7 10557.2 264.416   6
   2 -17   5 604.666 103.057   5
  17   2  -5 961.577 70.7389   3
  17   2  -3 4586.22 155.373   3
  17  -2  -3 4565.18 206.889   3
  17   2  -1 11243.5 240.900   3
  -2 -17   1 11282.5 332.463   7
  17  -2  -1 10387.5 318.356   3
  17   2   1 11779.9 218.471   3
  17  -2   1 12788.6 325.663   3
   2  17  -3 3401.41 131.521   3
  17   2   3 11867.1 317.705   5
  17   2   5 1052.80 63.8166   5
  17  -2   5 940.541 58.0465   5
  17   2   7 8159.76 147.274   5
  17  -2   7 8582.57 153.004   5
  17   3  -8 3093.61 76.4607   3
   3 -17   8 4119.57 183.156   5
  -3 -17   8 3129.16 123.051   5
  -3 -17   8 3872.72 136.180   6
   3 -17   6 8120.19 300.619   5
  -3 -17   6 8226.79 239.396   7
  17  -3  -6 8228.13 186.715   3
  17   3  -4 16537.7 267.966   3
  -3 -17   4 17197.4 374.371   7
  -3 -17   2 11681.8 328.493   7
  17  -3  -2 11664.2 400.606   3
  17   3   0 14269.3 247.123   3
   3  17   0 14253.1 247.428   3
  -3 -17   0 18014.0 411.690   7
  17  -3   0 17015.0 474.200   3
   3  17  -2 8805.41 201.539   3
  17  -3   2 11432.4 292.415   3
   3  17  -4 13962.1 244.239   3
  17   3   4 43857.6 603.211   5
  17   3   6 9762.46 184.383   5
  17  -3   6 8638.49 150.789   5
   4 -17   7 1145.20 110.666   5
  17   4  -7 1271.50 58.6661   3
  -4 -17   7 1692.21 93.0613   7
  17  -4  -7 1444.49 66.0582   3
  -4 -17   7 1867.64 104.133   6
  -4 -17   5 2120.94 128.389   7
  17  -4  -5 1986.39 125.320   3
  17   4  -3 794.782 64.1101   3
  -4 -17   3 979.673 96.5538   7
  17  -4  -3 781.899 138.393   3
  17   4  -1 657.821 58.0711   3
   4  17   1 469.681 46.7124   3
  -4 -17   1 562.708 85.9992   7
   4  17  -1 497.906 55.2734   3
  -4 -17  -1 463.217 74.1517   7
  17  -4   1 680.584 140.155   3
  17   4   3 862.188 60.2604   4
   4  17  -3 492.867 56.8825   3
  17   4   5 946.361 54.6425   4
   4  17  -7 1279.00 58.1548   3
  -5 -17   6 11976.5 249.508   7
  17  -5  -6 12766.9 221.473   3
  17   5  -4 13727.1 218.857   3
  -5 -17   4 13851.1 294.392   7
  -5 -17   2 13441.9 311.547   7
  17  -5  -2 14242.3 528.112   3
  17   5   0 2944.36 101.072   3
   5  17   0 2380.69 97.0101   3
  -5 -17   0 2838.21 149.552   7
  17  -5   0 3401.28 309.658   3
   5  17  -2 11916.1 220.653   3
  17  -5   2 15876.7 442.123   3
  17   5   4 11532.8 181.739   4
   5  17  -4 12070.7 209.963   3
  17   5   6 10188.4 146.168   4
  17   6  -5 8973.94 161.915   3
  -6 -17   5 8859.36 210.129   7
  17   6  -3 5081.63 132.219   3
  -6 -17   3 4836.20 172.888   7
  17   6  -1 3512.47 109.375   3
  -6 -17   1 3103.79 146.979   7
  17  -6  -1 3691.79 340.021   3
   6  17  -1 2980.54 102.019   3
  17  -6   1 4210.73 336.349   3
  17   6   3 4619.58 127.439   4
   6  17  -3 4296.22 121.568   3
  17   6   5 7021.21 126.799   4
   6  17  -5 7559.45 147.938   3
  -7 -17   6 1948.11 80.7099   7
  17   7  -4 2667.19 84.2475   3
   7  17   4 11.3257 52.0143   8
  17   7  -2 669.234 47.3004   3
  17  -7  -2 836.935 216.618   3
  17  -7   0 327.972 193.556   3
  -7 -17   0 283.734 54.6665   7
  -7 -17  -2 420.111 57.6226   7
   7  17  -2 504.668 43.6833   3
  17   7   4 2369.74 83.0943   4
  -7 -17  -4 2227.80 101.809   7
  17   8  -3 9750.52 146.050   3
  -8 -17   3 9030.21 187.489   7
  -8 -17   1 8751.58 190.959   7
  17  -8  -1 9973.61 469.139   3
  -8 -17  -1 9198.39 200.218   7
  17  -8   1 11648.0 479.691   3
  -8 -17  -3 9290.99 188.264   7
   8  17  -3 8927.54 144.603   3
  -9 -17   2 3289.73 99.9056   7
  17  -9  -2 4850.01 287.979   3
  -9 -17   0 5125.78 129.167   7
  17  -9   0 6596.49 354.845   3
  -9 -17  -2 2795.82 91.1189   7
   0 -18   6 12326.7 294.177   5
  18   0  -6 11312.0 173.338   3
  18   0  -4 41697.5 402.757   3
  18   0  -2 34205.0 386.326   3
  18   0   0 17932.1 271.789   3
   0 -18   0 19710.8 378.104   7
   0 -18  -2 45165.3 572.684   7
   0 -18  -4 45646.9 515.583   7
   1 -18   5 1711.12 124.011   5
  18   1  -5 1962.16 81.9760   3
  18   1  -3 4917.54 142.225   3
  18  -1  -3 5258.32 155.409   3
  18   1  -1 997.133 69.6970   3
  18  -1  -1 984.836 76.5401   3
  -1 -18   1 1078.07 102.719   7
  18  -1   1 655.906 55.8659   3
  -1 -18  -1 667.179 82.6411   7
  -1 -18  -3 6433.23 216.540   7
   2 -18   6 13155.7 292.341   5
  18  -2  -6 12684.6 182.718   3
  18   2  -4 19338.1 252.880   3
  -2 -18   4 18581.4 318.915   7
  18  -2  -4 19150.4 278.381   3
  18   2  -2 11921.5 212.191   3
  18  -2  -2 12978.6 259.931   3
  18   2   0 2777.70 97.8303   3
  18  -2   0 3006.84 125.719   3
  -2 -18  -2 15916.5 347.417   7
   2  18  -4 15016.9 215.312   3
   3 -18   5 21305.2 384.283   5
  18   3  -5 22729.3 244.032   3
  -3 -18   3 20737.2 353.380   7
  18  -3  -3 20691.3 319.021   3
  18   3  -1 10854.1 186.758   3
  18  -3  -1 11526.8 254.847   3
  18  -3   1 14969.9 255.376   3
  -3 -18  -1 15402.0 330.923   7
   3  18  -3 17894.4 241.486   3
  -3 -18  -3 25287.1 400.657   7
  -4 -18   4 305.457 49.4375   7
  18  -4  -4 316.566 52.1609   3
  18   4  -2 1277.11 64.4817   3
  -4 -18   2 1196.73 93.6861   7
  -4 -18   0 1793.42 116.089   7
  18  -4   0 1905.19 119.200   3
   4  18  -2 960.883 57.1956   3
  -4 -18  -2 1396.89 99.3573   7
   4  18  -4 385.219 39.8923   3
  -4 -18  -4 280.880 48.4514   7
  18   5  -5 10522.0 142.536   3
  18  -5  -5 12710.7 191.981   3
  -5 -18   3 19387.2 301.811   7
  18  -5  -3 21332.2 334.673   3
  -5 -18   1 6313.07 190.834   7
  18  -5  -1 6912.61 226.840   3
  -5 -18  -1 7499.50 211.282   7
  18  -5   1 8380.17 200.963   3
   5  18  -3 18011.3 215.131   3
  -5 -18  -3 22014.0 332.081   7
   5  18  -5 8704.15 129.844   3
  -5 -18  -5 11523.2 202.356   7
  -6 -18   4 15469.9 234.771   7
  -6 -18   2 11640.5 222.218   7
  18  -6  -2 14354.4 303.053   3
  -6 -18   0 2815.20 116.778   7
  18  -6   0 3553.06 155.220   3
   6  18  -2 9967.83 144.260   3
  18  -7  -1 12842.5 269.232   3
  19   0  -3 60013.5 386.339   3
  19   1  -2 11411.2 166.423   3
  19  -1  -2 14405.6 194.888   3
  19  -2  -3 21557.3 242.381   3
   0   0   0    0.00    0.00   0

TITL 170329f in I-4m2
REM I-4m2 (#119 in standard setting)
CELL 1.54184  15.638875  15.638875  13.942942  90.0000  90.0000  90.0000
ZERR    8.00   0.000292   0.000292   0.000407   0.0000   0.0000   0.0000
LATT -2
SYMM -x,-y, z
SYMM  y,-x,-z
SYMM -y, x,-z
SYMM  x,-y, z
SYMM -x, y, z
SYMM  y, x,-z
SYMM -y,-x,-z
SFAC C H N O Zn
UNIT 100.00 84.00 44.00 44.00 8.00
TREF
HKLF 4
END
;
_shelx_hkl_checksum              55133
_shelx_fab_file
;
    0    2    0    156.82     -0.24
    1    3    0      2.37      0.23
    3    3    0     -7.87      0.11
    0    4    0     54.55     -0.03
    4    4    0     18.79      0.03
    1    5    0     -6.60      0.01
    3    5    0    -11.60      0.04
    5    5    0    -10.28     -0.06
    0    6    0     14.72      0.22
    2    6    0     11.25      0.07
    4    6    0      7.16      0.00
    6    6    0      2.29     -0.01
    1    7    0    -11.69     -0.10
    3    7    0     -9.81     -0.01
    5    7    0     -8.11     -0.03
    7    7    0     -7.06     -0.04
    0    8    0     -9.38      0.05
    2    8    0     -3.38     -0.01
    4    8    0      2.62     -0.04
    6    8    0      0.94     -0.01
    8    8    0      1.91      0.01
    1    9    0     -4.48      0.06
    5    9    0     -3.59      0.03
    7    9    0     -3.38     -0.05
    9    9    0     -4.95     -0.02
    0   10    0     -1.73     -0.16
    2   10    0      3.81     -0.15
    4   10    0      6.09     -0.02
    6   10    0      1.63      0.11
    8   10    0      1.44      0.07
   10   10    0     -1.24     -0.10
    1   11    0     -3.81      0.07
    3   11    0     -3.13      0.07
    5   11    0     -2.55      0.03
    7   11    0     -3.93     -0.05
    9   11    0     -5.99      0.02
   11   11    0     -3.53      0.11
    2   12    0      9.68     -0.07
    4   12    0      5.44      0.00
    6   12    0      1.82      0.11
    8   12    0      0.78      0.09
   10   12    0     -1.61     -0.03
   12   12    0     -1.03     -0.04
    1   13    0      2.60     -0.08
    3   13    0      1.41      0.03
    5   13    0     -1.41     -0.01
    7   13    0     -3.60     -0.04
    9   13    0     -4.58     -0.02
   11   13    0     -0.11      0.00
   13   13    0      5.08      0.01
    0   14    0     10.93      0.14
    2   14    0      8.42      0.05
    4   14    0      4.57      0.01
    6   14    0      1.57      0.03
    8   14    0     -0.66      0.03
   10   14    0     -0.32      0.06
   12   14    0      0.53      0.02
    1   15    0      1.55     -0.08
    3   15    0     -0.17     -0.01
    5   15    0     -1.43      0.00
    7   15    0     -1.18      0.01
    9   15    0     -2.57     -0.03
   11   15    0     -1.53     -0.05
    0   16    0      9.30     -0.01
    2   16    0      6.47      0.07
    4   16    0      3.30      0.02
    6   16    0     -0.61     -0.05
    8   16    0     -4.26     -0.01
   10   16    0     -1.56      0.06
    1   17    0     -0.55      0.02
    3   17    0     -1.07     -0.04
    5   17    0     -1.11      0.07
    7   17    0      0.10      0.09
    9   17    0     -0.15      0.00
    0   18    0      5.17     -0.16
    2   18    0      3.07      0.01
    4   18    0      1.86      0.02
    6   18    0     -0.01     -0.06
    0    1    1    -44.68    -20.97
    0    3    1     -7.67     16.34
    0    5    1      7.67     15.27
    0    7    1      6.82     14.75
    0    9    1      8.03     15.35
    0   11    1     -0.12      3.71
    0   13    1     -2.65      0.42
    0   15    1     -2.11      3.73
    0   17    1     -1.75      4.43
    1    2    1    -44.69     19.61
    1    4    1    -26.43     15.22
    1    6    1     -8.01     12.21
    1    8    1     -4.97      4.41
    1   10    1     -1.21      0.80
    1   12    1     -1.28      2.49
    1   14    1      1.10      2.32
    1   16    1      3.91      5.29
    1   18    1      1.05      1.60
    2    3    1    -11.72      5.37
    2    5    1      6.26      9.39
    2    7    1      8.72     14.41
    2    9    1      9.02     13.59
    2   11    1      0.72      4.35
    2   13    1     -2.10      1.43
    2   15    1     -1.99      2.99
    2   17    1     -1.70      3.38
    3    4    1     -9.61      4.62
    3    6    1     -7.48      6.37
    3    8    1     -8.15      6.05
    3   10    1     -3.43      4.02
    3   12    1     -1.50      1.81
    3   14    1      1.14     -0.25
    3   16    1      2.37      1.16
    3   18    1      0.77     -0.47
    4    5    1      5.36      3.47
    4    7    1     10.03     10.85
    4    9    1      8.07      8.99
    4   11    1      0.63      4.44
    4   13    1     -1.72      1.78
    4   15    1     -1.61      1.13
    4   17    1     -1.20      0.96
    5    6    1      0.23      1.20
    5    8    1     -3.11      2.53
    5   10    1     -2.15      0.60
    5   12    1     -1.45      0.10
    5   14    1      0.25     -1.20
    5   16    1      0.14     -0.88
    5   18    1      0.56     -0.79
    6    7    1      5.68      3.43
    6    9    1      4.50      4.47
    6   11    1     -0.16      3.93
    6   13    1     -1.95      1.43
    6   15    1     -1.66      0.55
    6   17    1     -0.85     -0.20
    7    8    1      2.01     -1.23
    7   10    1     -0.88     -0.61
    7   12    1     -1.28      0.81
    7   14    1     -0.24     -0.68
    7   16    1     -1.26     -2.10
    8    9    1      2.81      1.60
    8   11    1      1.16      1.97
    8   13    1     -0.12      0.11
    8   15    1     -0.14      0.39
    8   17    1      0.30      0.47
    9   10    1     -0.02      1.10
    9   12    1     -0.80      0.71
    9   14    1     -0.40      0.13
    9   16    1     -1.18     -0.26
   10   11    1      0.51     -0.78
   10   13    1      0.76     -1.98
   10   15    1      0.76     -0.80
   11   12    1     -0.62     -0.20
   11   14    1     -0.63      1.27
   12   13    1     -0.51      0.21
   11   16    1     -0.22      3.27
    7   18    1     -0.26     -1.93
    0    0    2     45.14     -0.08
    0    2    2     36.34     -8.05
    0    4    2     11.71    -19.38
    0    6    2     -2.69    -15.43
    0    8    2      0.92    -13.76
    0   10    2      1.62     -8.56
    0   12    2     -1.09      2.81
    0   14    2     -1.79      0.00
    0   16    2     -1.47     -2.01
    0   18    2     -1.40     -1.09
    1    5    2     -7.54    -10.97
    1    7    2     -5.88     -8.74
    1    9    2     -6.29     -9.68
    1   11    2     -5.72     -6.07
    1   13    2     -2.31     -1.83
    1   15    2     -1.90     -3.57
    1   17    2     -3.39     -4.28
    2    2    2     27.06     -0.26
    2    4    2      7.42    -14.50
    2    6    2     -0.72    -15.77
    2    8    2      1.21    -14.80
    2   10    2      0.53     -8.51
    2   12    2     -0.94      2.69
    2   14    2     -0.82      1.17
    2   16    2     -0.04     -0.84
    2   18    2     -0.38     -1.07
    3    5    2     -6.49     -6.29
    3    7    2     -7.09     -5.17
    3    9    2     -5.20     -6.48
    3   11    2     -4.25     -3.73
    3   13    2     -1.79     -1.83
    3   15    2     -1.77     -2.65
    3   17    2     -3.18     -2.15
    4    4    2      1.55     -0.02
    4    6    2      1.83     -8.79
    4    8    2      2.78    -10.45
    4   10    2      2.01     -5.39
    4   12    2      1.23      2.17
    4   14    2      1.12      2.08
    4   16    2      1.01      1.50
    4   18    2     -0.33      0.59
    5    5    2     -6.23      0.01
    5    7    2     -2.91     -1.29
    5    9    2     -1.66     -3.57
    5   11    2     -0.92     -2.88
    5   13    2      0.39     -3.55
    5   15    2      0.13     -2.53
    5   17    2     -0.70     -0.53
    6    6    2      2.51     -0.01
    6    8    2      3.19     -3.09
    6   10    2      3.36     -0.96
    6   12    2      1.75      1.49
    6   14    2      0.89      1.59
    6   16    2      0.47      2.18
    6   18    2     -0.37      1.25
    7    7    2     -0.18     -0.05
    7    9    2     -0.99     -1.15
    7   11    2     -0.39     -1.12
    7   13    2      0.35     -3.48
    7   15    2      0.74     -2.25
    7   17    2      0.17     -0.09
    8    8    2      1.70     -0.07
    8   10    2      1.19      0.89
    8   12    2      0.42      1.09
    8   14    2      0.08      1.23
    8   16    2      0.84      1.36
    9    9    2      0.16      0.00
    9   11    2      0.96      1.09
    9   13    2      0.77     -0.26
    9   15    2      1.08     -0.27
    9   17    2     -0.26      0.20
   10   10    2      0.78      0.03
   10   12    2      0.02     -0.33
   10   14    2     -0.95     -0.05
   10   16    2     -0.36      0.36
   11   11    2      1.27      0.09
   11   13    2      0.79      0.70
   11   15    2      1.32      0.25
   12   12    2     -1.76      0.00
   12   14    2     -2.34     -0.13
   13   13    2      0.23      0.00
    1   19    2     -4.00     -2.27
    0    1    3     16.61      3.47
    0    3    3     11.59      9.42
    0    5    3      0.66     14.92
    0    7    3     -0.06     11.98
    0    9    3     -2.74      6.52
    0   11    3      0.96      1.28
    0   13    3      4.44     -2.50
    0   15    3      2.97      1.21
    0   17    3      3.86      3.41
    1    2    3     12.62      1.18
    1    4    3      6.23      6.90
    1    6    3      5.80      5.93
    1    8    3      0.42     -0.10
    1   10    3     -1.37     -1.89
    1   12    3      3.24     -1.22
    1   14    3      1.88     -1.78
    1   16    3      1.65      0.76
    1   18    3      1.31      1.06
    2    3    3      9.63      6.68
    2    5    3      0.58     11.77
    2    7    3     -0.15      9.71
    2    9    3     -2.86      5.38
    2   11    3     -0.44      0.86
    2   13    3      2.59     -2.29
    2   15    3      2.14      0.22
    2   17    3      3.21      1.32
    3    4    3      5.33     -0.55
    3    6    3      4.31      2.79
    3    8    3     -0.50     -0.38
    3   10    3     -1.23     -1.33
    3   12    3      2.56     -0.90
    3   14    3      1.24     -2.17
    3   16    3      1.90     -0.59
    3   18    3      1.40      0.46
    4    5    3     -1.39      5.46
    4    7    3     -2.45      6.62
    4    9    3     -3.00      4.72
    4   11    3     -0.78      2.53
    4   13    3      0.71      0.51
    4   15    3      0.83      0.60
    4   17    3      1.50      0.44
    5    6    3     -1.91     -0.15
    5    8    3     -3.23      0.91
    5   10    3     -1.35      1.24
    5   12    3      1.62      1.03
    5   14    3      1.01     -1.27
    5   16    3      1.67     -2.33
    5   18    3      0.36     -1.68
    6    7    3     -4.48      3.14
    6    9    3     -3.42      3.00
    6   11    3     -0.59      3.26
    6   13    3     -0.32      2.37
    6   15    3      0.08      0.89
    6   17    3      0.18      0.54
    7    8    3     -4.60     -1.19
    7   10    3     -1.76     -0.60
    7   12    3     -0.59      0.07
    7   14    3     -1.01     -0.89
    7   16    3      0.22     -1.64
    8    9    3     -3.89      1.86
    8   11    3     -2.81      2.16
    8   13    3     -2.55      1.87
    8   15    3     -0.49     -0.06
    8   17    3     -0.29     -0.65
    9   10    3     -2.00     -1.02
    9   12    3     -2.30      0.45
    9   14    3     -2.98      0.37
    9   16    3     -1.14      0.63
   10   11    3     -2.96      0.57
   10   13    3     -2.67      1.02
   10   15    3      0.04     -0.08
   11   12    3     -3.39      0.51
   11   14    3     -3.14     -0.11
   12   13    3     -2.25      0.80
   13   14    3     -1.56     -1.84
   12   15    3      0.18      1.00
    0   19    3      2.50      1.82
    2   19    3      2.22     -0.10
    0    0    4    -33.10     -0.02
    0    2    4    -25.83     -2.40
    0    4    4    -10.41     -3.26
    0    6    4      2.60     -5.32
    0    8    4      4.97     -3.02
    0   10    4      2.83      3.88
    0   12    4     -3.25      3.08
    0   14    4     -7.48     -1.21
    0   16    4     -4.28     -3.46
    0   18    4     -1.81     -1.33
    1    1    4    -18.66      0.17
    1    3    4     -5.28     -2.23
    1    5    4      2.59     -2.69
    1    7    4      4.93     -0.46
    1    9    4      1.77      3.05
    1   11    4      0.74     -0.05
    1   13    4     -0.50      1.21
    1   15    4     -0.62      3.17
    1   17    4     -1.15     -0.26
    2    2    4    -20.43      0.05
    2    4    4     -8.58     -0.45
    2    6    4      2.87     -1.77
    2    8    4      5.02     -1.07
    2   10    4      2.60      3.76
    2   12    4     -2.16      3.43
    2   14    4     -5.47     -0.21
    2   16    4     -2.91     -2.36
    2   18    4     -1.40     -1.05
    3    3    4      1.27     -0.11
    3    5    4      3.58     -2.36
    3    7    4      3.98     -1.03
    3    9    4      2.30      2.98
    3   11    4      3.04      0.00
    3   13    4      2.05     -0.30
    3   15    4      0.75      1.08
    3   17    4     -0.21     -0.33
    4    4    4     -4.81     -0.04
    4    6    4      1.15      1.63
    4    8    4      1.66      2.07
    4   10    4     -0.62      3.30
    4   12    4     -2.24      3.78
    4   14    4     -3.12      2.43
    4   16    4     -0.92      0.36
    4   18    4     -0.45     -0.08
    5    5    4      3.83      0.08
    5    7    4      4.67     -0.15
    5    9    4      3.12      3.10
    5   11    4      4.05      2.11
    5   13    4      3.75      0.44
    5   15    4      1.62     -0.39
    5   17    4      0.00     -0.53
    6    6    4      1.11      0.03
    6    8    4     -0.20      2.00
    6   10    4     -1.93      1.88
    6   12    4     -1.77      2.39
    6   14    4     -1.21      2.66
    6   16    4      0.44      1.07
    7    7    4      6.02      0.06
    7    9    4      3.97     -0.10
    7   11    4      4.85     -0.56
    7   13    4      5.33     -0.83
    7   15    4      3.17     -1.30
    7   17    4      0.92      0.08
    8    8    4     -0.23     -0.09
    8   10    4     -0.22      0.97
    8   12    4      0.60      1.55
    8   14    4      0.51      1.07
    8   16    4      0.61      0.19
    9    9    4      2.66     -0.02
    9   11    4      3.63     -1.05
    9   13    4      4.36     -0.21
    9   15    4      3.18     -0.52
   10   10    4      2.04      0.07
   10   12    4      3.08      0.54
   10   14    4      1.23     -0.81
   10   16    4      0.16     -0.23
   11   11    4      2.88      0.04
   11   13    4      2.88      1.25
   11   15    4      2.23      0.53
   12   12    4      2.81     -0.02
   12   14    4      0.52     -1.79
   13   13    4      1.73      0.02
    6   18    4      0.26      0.25
    0    1    5      6.33      0.26
    0    3    5      1.09     -5.47
    0    5    5     -5.16     -9.30
    0    7    5     -7.32    -10.80
    0    9    5     -2.33     -8.62
    0   11    5     -0.01     -9.91
    0   13    5     -1.68     -6.39
    0   15    5     -1.10     -1.72
    0   17    5     -0.99     -0.86
    1    2    5      4.70      1.71
    1    4    5      2.44      5.17
    1    6    5      1.44      1.23
    1    8    5      0.56     -3.09
    1   10    5     -1.40     -3.69
    1   12    5     -1.35     -2.44
    1   14    5      0.20     -2.19
    1   16    5     -1.63     -2.73
    2    3    5      1.04     -3.24
    2    5    5     -3.55     -6.53
    2    7    5     -5.30    -10.05
    2    9    5     -1.52     -8.15
    2   11    5      1.09     -8.56
    2   13    5     -0.18     -4.84
    2   15    5     -0.25     -0.40
    2   17    5     -0.45     -0.02
    3    4    5     -0.52      1.23
    3    6    5     -2.09     -1.91
    3    8    5     -1.52     -3.41
    3   10    5     -1.46     -2.98
    3   12    5     -1.64     -1.78
    3   14    5     -0.26     -1.28
    3   16    5     -1.02     -1.29
    4    5    5     -3.28     -2.40
    4    7    5     -3.52     -7.51
    4    9    5     -2.44     -6.62
    4   11    5     -1.00     -5.95
    4   13    5     -0.61     -2.70
    4   15    5     -0.30      0.87
    4   17    5     -0.45      1.51
    5    6    5     -5.23     -1.78
    5    8    5     -4.16     -2.68
    5   10    5     -0.58     -2.49
    5   12    5      0.48     -2.18
    5   14    5      0.13     -0.59
    5   16    5      0.23     -0.03
    5   18    5     -0.03      0.08
    6    7    5     -2.83     -2.41
    6    9    5     -1.51     -2.76
    6   11    5     -1.40     -1.81
    6   13    5     -0.41     -0.47
    6   15    5     -0.39      0.69
    6   17    5     -1.01      2.00
    7    8    5     -1.66      0.09
    7   10    5      1.53     -1.32
    7   12    5      2.81     -2.21
    7   14    5      1.15     -0.07
    7   16    5      1.67      0.99
    8    9    5      0.15     -0.98
    8   11    5      0.58     -0.33
    8   13    5      1.07      0.15
    8   15    5      0.22     -0.28
    9   10    5      0.50      1.31
    9   12    5      0.73      1.19
    9   14    5     -0.61      1.22
    9   16    5      0.32      1.05
   10   11    5      0.23     -2.64
   10   13    5      0.15     -1.24
   10   15    5     -0.05     -0.62
   11   12    5      0.11      3.16
   11   14    5     -0.50      1.18
   12   13    5     -0.31     -1.09
    1   18    5     -1.39      0.10
    3   18    5     -0.92      0.61
    0    0    6     -6.33      0.06
    0    2    6     -5.62     -1.05
    0    4    6     -3.48     -2.03
    0    6    6     -1.87     -0.19
    0    8    6      1.68      1.11
    0   10    6      1.21      1.73
    0   12    6     -1.50      4.37
    0   14    6     -0.11      0.03
    0   16    6      0.68     -2.40
    1    1    6     12.92      0.07
    1    3    6     14.77     -0.86
    1    5    6     12.47      1.28
    1    7    6      5.74      2.23
    1    9    6      3.71      4.02
    1   11    6      3.33      2.01
    1   13    6      4.01     -0.75
    1   15    6      3.48     -0.72
    1   17    6      2.04     -1.19
    2    2    6     -4.56     -0.01
    2    4    6     -2.16     -0.01
    2    6    6     -1.83      2.64
    2    8    6      0.11      3.15
    2   10    6     -0.44      1.69
    2   12    6     -2.22      3.33
    2   14    6     -0.11      0.51
    2   16    6      1.08     -1.80
    3    3    6     14.00     -0.04
    3    5    6     10.29      1.11
    3    7    6      4.81      1.23
    3    9    6      3.02      2.92
    3   11    6      2.15      2.48
    3   13    6      2.36      0.13
    3   15    6      1.67     -1.06
    3   17    6      0.70     -0.99
    4    4    6      0.06     -0.03
    4    6    6     -1.51      2.52
    4    8    6     -3.01      2.49
    4   10    6     -3.69      0.99
    4   12    6     -3.95      2.12
    4   14    6     -1.79      0.92
    4   16    6      0.71     -1.13
    5    5    6      5.40      0.02
    5    7    6      1.88      0.15
    5    9    6      0.62      0.29
    5   11    6     -0.82     -0.71
    5   13    6      0.25     -1.04
    5   15    6      0.50     -2.02
    5   17    6     -0.36     -1.89
    6    6    6     -3.93     -0.05
    6    8    6     -6.40      0.83
    6   10    6     -4.94      2.39
    6   12    6     -3.39      3.57
    6   14    6     -2.82      2.28
    6   16    6     -0.11      0.47
    7    7    6      0.70      0.02
    7    9    6     -0.77     -0.30
    7   11    6     -2.52     -1.57
    7   13    6     -0.87     -0.37
    7   15    6      0.29     -1.13
    8    8    6     -7.93     -0.03
    8   10    6     -5.22      1.77
    8   12    6     -2.72      1.76
    8   14    6     -2.57      1.34
    8   16    6     -0.59      0.80
    9    9    6     -1.88     -0.02
    9   11    6     -1.83     -1.11
    9   13    6     -0.54     -0.21
    9   15    6      0.16     -0.53
   10   10    6     -4.49      0.08
   10   12    6     -2.61     -0.48
   10   14    6     -2.32      0.00
   11   11    6      0.06     -0.04
   11   13    6      0.76     -0.26
   12   12    6     -0.54      0.03
    7   17    6      0.20     -1.36
    0   18    6      2.18      1.28
    2   18    6      2.14      0.87
    0    1    7     -2.36     -2.65
    0    3    7     -3.25     -4.05
    0    5    7     -0.78     -3.04
    0    7    7     -1.62     -3.31
    0    9    7     -2.85     -4.18
    0   11    7      0.93     -4.05
    0   13    7      2.06     -3.29
    0   15    7     -1.53      0.85
    0   17    7     -0.74      1.77
    1    2    7     -2.61      5.00
    1    4    7     -1.43      7.78
    1    6    7     -1.05     10.05
    1    8    7      0.79      8.55
    1   10    7      2.02      4.90
    1   12    7      1.38      4.44
    1   14    7     -1.53      2.07
    1   16    7     -4.29      1.36
    2    3    7     -3.82     -3.53
    2    5    7     -1.16     -1.95
    2    7    7     -0.61     -2.59
    2    9    7     -2.00     -2.65
    2   11    7     -0.04     -2.57
    2   13    7      1.24     -2.47
    2   15    7     -1.63      0.97
    2   17    7     -1.03      1.58
    3    4    7     -3.87      3.47
    3    6    7     -4.11      5.98
    3    8    7     -1.94      5.77
    3   10    7      1.54      3.58
    3   12    7      2.38      4.11
    3   14    7     -0.98      2.81
    3   16    7     -3.36      2.18
    4    5    7     -0.97     -2.17
    4    7    7      2.17     -2.69
    4    9    7      1.83     -1.47
    4   11    7      1.46     -2.13
    4   13    7      1.70     -2.07
    4   15    7     -1.09      0.57
    4   17    7     -0.90      0.48
    5    6    7     -1.46      3.85
    5    8    7     -1.10      3.34
    5   10    7      0.45      2.73
    5   12    7      1.50      2.83
    5   14    7     -0.12      1.66
    5   16    7     -1.32      1.51
    6    7    7      3.02     -1.87
    6    9    7      4.30     -0.57
    6   11    7      3.38     -2.71
    6   13    7      2.16     -2.09
    6   15    7     -0.58     -0.32
    7    8    7      1.93      1.89
    7   10    7      0.85      3.39
    7   12    7      1.08      2.98
    7   14    7      0.47      2.57
    7   16    7     -0.48      1.75
    8    9    7      3.53     -1.71
    8   11    7      2.70     -3.42
    8   13    7      1.54     -2.34
    8   15    7      0.01     -1.41
    9   10    7      2.26      2.68
    9   12    7      2.01      1.60
    9   14    7      1.22      2.32
   10   11    7      1.99     -2.71
   10   13    7      1.56     -1.55
   11   12    7      1.33      1.52
   11   14    7      0.40      1.85
   12   13    7      1.09     -0.87
    0    0    8     -7.52     -0.09
    0    2    8     -7.26      2.20
    0    4    8     -7.67      0.91
    0    6    8     -6.23     -0.98
    0    8    8     -2.51      0.69
    0   10    8     -1.49     -0.19
    0   12    8     -1.35     -0.94
    0   14    8      0.42     -0.25
    0   16    8      2.67     -0.29
    1    1    8     -1.34     -0.02
    1    3    8      1.89     -2.39
    1    5    8      4.09     -1.72
    1    7    8      3.31     -0.24
    1    9    8      1.02      1.32
    1   11    8      0.21      0.61
    1   13    8      0.61     -1.76
    1   15    8      1.71      0.84
    1   17    8      2.24      0.52
    2    2    8     -5.56      0.02
    2    4    8     -4.18     -0.77
    2    6    8     -4.03     -2.41
    2    8    8     -1.33     -0.57
    2   10    8     -0.43      0.06
    2   12    8     -1.93      0.01
    2   14    8     -1.35      0.13
    2   16    8      1.04     -0.25
    3    3    8      5.19      0.05
    3    5    8      7.52     -1.32
    3    7    8      5.74     -2.43
    3    9    8      0.37     -2.73
    3   11    8     -2.28     -3.80
    3   13    8     -0.87     -3.75
    3   15    8      0.76      0.37
    4    4    8     -0.35     -0.02
    4    6    8     -0.62     -2.87
    4    8    8      1.30     -2.82
    4   10    8      1.97     -0.94
    4   12    8     -0.70      0.16
    4   14    8     -0.84      0.74
    4   16    8      0.46      0.80
    5    5    8      7.34     -0.03
    5    7    8      3.42     -2.13
    5    9    8     -0.69     -2.85
    5   11    8     -2.34     -3.85
    5   13    8     -0.80     -3.05
    5   15    8      0.60      0.28
    6    6    8      0.24     -0.01
    6    8    8      1.50     -2.01
    6   10    8      1.09     -0.98
    6   12    8     -0.34     -0.05
    6   14    8      0.49      1.06
    6   16    8      0.41      1.11
    7    7    8     -0.07     -0.09
    7    9    8      0.09     -0.41
    7   11    8     -0.59     -1.24
    7   13    8      0.15     -1.28
    7   15    8      0.79      0.65
    8    8    8      1.21      0.02
    8   10    8      0.41      0.11
    8   12    8     -0.15      0.23
    8   14    8      0.50      1.25
    9    9    8      1.94     -0.07
    9   11    8     -0.04     -0.33
    9   13    8      0.47     -0.51
   10   10    8      0.40      0.10
   10   12    8     -0.26     -0.29
   10   14    8      0.47      0.92
   11   11    8     -2.02     -0.05
   11   13    8     -0.84      0.20
   12   12    8     -1.04      0.02
    3   17    8      1.36      0.60
    0    1    9      7.68      4.45
    0    3    9      5.77     -0.80
    0    5    9      0.45     -0.96
    0    7    9     -3.87     -1.66
    0    9    9     -6.13     -1.15
    0   11    9     -4.90     -0.41
    0   13    9     -0.53     -1.44
    0   15    9      1.95     -0.67
    1    2    9      3.77     -4.24
    1    4    9     -2.09     -3.78
    1    6    9     -3.52     -1.73
    1    8    9     -0.63      0.11
    1   10    9      3.31      1.38
    1   12    9      2.64      2.96
    1   14    9     -0.58      2.98
    1   16    9     -0.49      1.08
    2    3    9      2.79      0.20
    2    5    9     -1.06      2.22
    2    7    9     -2.15      3.14
    2    9    9     -1.31      1.83
    2   11    9     -0.52      0.41
    2   13    9      1.25     -1.24
    2   15    9      1.76     -1.00
    3    4    9     -0.51     -0.83
    3    6    9     -1.43      0.30
    3    8    9     -1.60      1.23
    3   10    9      0.15      2.44
    3   12    9      0.45      2.00
    3   14    9     -0.43      0.02
    3   16    9      0.08     -1.42
    4    5    9     -1.32      3.06
    4    7    9      0.92      5.05
    4    9    9      4.87      3.38
    4   11    9      4.35      1.25
    4   13    9      2.24     -0.54
    4   15    9      0.98     -0.74
    5    6    9     -0.66      1.46
    5    8    9     -1.21      3.06
    5   10    9     -0.78      3.94
    5   12    9     -0.53      3.57
    5   14    9      0.14      1.10
    6    7    9      0.42     -1.36
    6    9    9      3.06     -0.26
    6   11    9      2.21      0.60
    6   13    9      0.09     -0.31
    6   15    9     -0.39     -0.33
    7    8    9     -0.93      3.27
    7   10    9     -1.34      3.85
    7   12    9     -2.45      4.37
    7   14    9     -0.71      2.08
    8    9    9      0.57     -1.41
    8   11    9      0.43      0.66
    8   13    9     -0.07      0.26
    9   10    9     -0.18      2.92
    9   12    9     -1.81      3.53
    9   14    9     -0.42      1.51
   10   11    9      0.03     -0.60
   10   13    9     -0.02     -0.14
   11   12    9     -0.73      0.82
    5   16    9      0.09     -0.68
    0    0   10     -1.30     -0.15
    0    2   10     -2.44      2.63
    0    4   10     -0.87      5.75
    0    6   10      0.49      4.18
    0    8   10     -1.08      1.80
    0   10   10     -0.75      0.80
    0   12   10     -2.36     -0.22
    0   14   10     -4.71     -0.23
    1    3   10     -4.01     -0.35
    1    5   10     -1.70      0.54
    1    7   10     -1.68      0.02
    1    9   10     -1.51     -0.90
    1   11   10     -1.19     -1.94
    1   13   10     -0.45      0.11
    1   15   10      0.25      2.26
    2    2   10     -4.20      0.17
    2    4   10     -2.83      4.77
    2    6   10      0.41      4.66
    2    8   10      0.81      1.10
    2   10   10      1.75      0.15
    2   12   10      0.70      0.26
    2   14   10     -1.77      0.03
    3    3   10     -3.59      0.01
    3    5   10     -3.53     -1.43
    3    7   10     -6.37     -0.22
    3    9   10     -6.60      1.92
    3   11   10     -4.27      0.51
    3   13   10     -1.90      0.89
    3   15   10      0.06      2.10
    4    4   10     -2.35      0.03
    4    6   10      1.83      3.49
    4    8   10      3.65      0.87
    4   12   10      2.06      2.70
    4   14   10     -0.03      1.93
    5    5   10     -1.86     -0.07
    5    7   10     -2.75      0.45
    5    9   10     -2.99      2.60
    5   11   10     -0.53      1.21
    5   13   10      0.00     -0.40
    5   15   10     -0.46      0.58
    6    6   10      3.68      0.06
    6    8   10      3.66     -0.30
    6   10   10      2.56     -0.64
    6   12   10      0.31      1.51
    6   14   10     -0.35      1.35
    7    7   10      0.86     -0.02
    7    9   10      1.14      0.71
    7   11   10      2.55      0.97
    7   13   10      1.11     -0.63
    8    8   10      2.83      0.01
    8   10   10      2.59     -1.41
    8   12   10      0.96     -1.00
    9    9   10      1.12     -0.01
    9   11   10      2.15      1.62
    9   13   10      0.62      0.82
    4   10   10      3.72      0.62
   10   10   10      2.89     -0.02
   10   12   10      1.43     -0.22
   11   11   10      2.76      0.02
    0   16   10     -4.37     -1.27
    0    1   11      1.20     11.04
    0    3   11     -0.04      6.72
    0    5   11     -0.97      3.28
    0    7   11     -1.37      3.83
    0    9   11     -0.54      2.51
    0   11   11     -2.39      0.67
    0   13   11     -0.39      0.84
    0   15   11      3.17      1.20
    1    2   11     -0.51    -10.49
    1    4   11     -0.98     -9.15
    1    6   11      0.13     -5.98
    1    8   11      1.47     -2.90
    1   10   11      1.98     -2.41
    1   12   11      0.37     -2.68
    1   14   11      0.83     -2.52
    2    3   11     -0.22      5.67
    2    5   11      0.80      1.34
    2    7   11      0.22      0.51
    2    9   11      0.87     -1.06
    2   11   11      0.06     -2.66
    2   13   11      0.13     -1.46
    3    4   11     -1.34     -5.77
    3    6   11     -1.53     -4.57
    3    8   11      0.19     -2.30
    3   10   11     -0.26     -2.00
    3   12   11     -1.70     -0.84
    3   14   11      0.63     -0.52
    4    5   11      1.15      1.20
    4    7   11      1.20     -1.28
    4    9   11      1.22     -1.87
    4   11   11      1.78     -2.06
    4   13   11      0.55     -1.46
    5    6   11     -1.10     -1.11
    5    8   11     -1.09     -0.72
    5   10   11     -0.76     -3.39
    5   12   11     -2.10     -2.81
    5   14   11     -0.59     -0.98
    6    7   11     -0.30     -0.37
    6    9   11     -0.26      1.11
    6   11   11      0.86      2.27
    6   13   11      0.94      0.98
    7    8   11     -0.80     -0.33
    7   10   11      0.71     -2.62
    7   12   11      0.11     -1.73
    8    9   11     -0.91      0.33
    8   11   11      0.24      1.10
    9   10   11      0.13      0.17
    9   12   11     -0.06      0.90
   10   11   11      0.60      0.56
    2   15   11      2.04      0.85
    0    0   12      3.89      0.01
    0    2   12      3.34      3.91
    0    4   12      1.94      6.66
    0    6   12      0.75      4.67
    0    8   12     -0.68      1.65
    0   10   12     -0.25      1.91
    0   12   12      2.10      3.63
    0   14   12      2.37      0.03
    1    1   12     -1.16     -0.21
    1    3   12     -1.54     -1.04
    1    5   12     -0.62     -2.06
    1    7   12      0.56     -1.99
    1    9   12      2.13     -3.66
    1   11   12      2.04     -1.72
    1   13   12      0.45      0.64
    2    2   12      2.03      0.00
    2    4   12      0.73      3.19
    2    6   12      1.09      3.70
    2    8   12      0.69      3.09
    2   10   12      0.31      2.00
    3    3   12     -0.43      0.11
    3    5   12     -0.80      0.70
    3    7   12     -0.10      1.18
    3    9   12      1.23      0.43
    3   11   12      2.02      2.38
    3   13   12      1.71      1.53
    4    6   12      1.09      1.98
    4    8   12      1.30      3.48
    4   10   12      1.21      1.86
    4   12   12      0.33      1.93
    5    5   12     -2.89     -0.02
    5    7   12     -1.78      2.53
    5    9   12     -1.48      2.20
    5   11   12     -1.38      1.90
    5   13   12      0.58      0.78
    6    6   12      1.12     -0.04
    6    8   12      1.77      1.38
    6   10   12      2.46      1.27
    6   12   12      1.33      1.60
    7    7   12     -0.77     -0.04
    7    9   12     -1.37      0.93
    7   11   12     -1.60     -0.06
    8    8   12      2.38      0.08
    8   10   12      1.41     -0.47
    9    9   12     -0.89      0.03
   10   10   12     -0.10     -0.05
    2   12   12      0.78      3.01
    0    1   13     -1.17      4.61
    0    3   13     -0.52      4.60
    0    5   13     -0.01      5.11
    0    7   13      0.61      4.53
    0    9   13     -0.06      1.98
    0   11   13      1.05      1.17
    1    2   13      0.38     -4.49
    1    4   13      1.93     -6.17
    1    6   13      3.36     -3.84
    1    8   13      2.21      1.65
    1   10   13     -0.98      1.49
    1   12   13     -0.90      0.26
    2    3   13     -0.05      4.50
    2    5   13     -0.64      4.33
    2    7   13      0.86      3.36
    2    9   13      0.23      1.10
    2   11   13     -0.10      1.09
    3    4   13      0.97     -4.31
    3    6   13      1.69     -2.52
    3    8   13     -0.28     -0.15
    3   10   13     -1.17     -0.55
    3   12   13      0.11     -1.18
    4    5   13     -1.18      1.23
    4    7   13     -0.16     -0.46
    4    9   13     -0.31     -1.61
    4   11   13     -0.97     -0.65
    5    6   13      0.27     -0.24
    5    8   13      0.13     -1.91
    5   10   13     -0.53     -1.90
    6    7   13     -0.34     -1.51
    6    9   13     -1.06     -1.84
    6   11   13     -0.45     -1.00
    7    8   13      0.73     -0.61
    7   10   13      0.08     -0.53
    8    9   13     -0.40      0.12
    0    0   14     -8.82     -0.02
    0    2   14     -6.71      2.96
    0    4   14     -3.75      4.26
    0    6   14     -2.02      1.47
    0    8   14     -2.53      2.13
    0   10   14     -2.48      1.33
    1    1   14     -0.14     -0.13
    1    3   14     -1.03     -0.89
    1    5   14     -1.67     -0.85
    1    7   14      1.82     -4.52
    1    9   14      1.70     -5.64
    2    2   14     -5.37      0.10
    2    4   14     -3.36      2.50
    2    6   14     -1.32      0.68
    2    8   14     -2.13      1.13
    2   10   14     -2.71      1.49
    3    3   14     -0.22      0.05
    3    5   14      0.04     -0.17
    3    7   14      1.24     -1.35
    3    9   14      0.94     -1.52
    4    4   14     -2.71      0.01
    4    6   14     -0.82     -0.02
    4    8   14     -1.01      0.51
    4   10   14     -1.95      1.46
    5    5   14      2.98      0.06
    5    7   14      3.01     -0.17
    5    9   14      1.24      0.54
    6    6   14     -0.88      0.05
    6    8   14     -1.29      0.91
    7    7   14      2.29      0.01
    7    9   14      0.04      0.49
    8    8   14     -1.58      0.02
    6   10   14     -1.59      0.84
    0    1   15     -1.51      0.54
    0    3   15      0.29      0.00
    0    5   15     -2.04      1.78
    0    7   15     -0.52      0.49
    0    9   15      2.20     -0.30
    1    2   15     -0.97     -2.08
    1    4   15      0.74     -3.97
    1    6   15      1.39     -2.92
    1    8   15     -0.23      2.76
    2    3   15      0.25      1.61
    2    5   15     -2.06      1.03
    2    7   15     -1.37     -1.40
    2    9   15      1.01     -0.51
    3    4   15      0.76     -3.36
    3    6   15      0.97     -1.83
    3    8   15      0.24      1.34
    4    5   15     -1.44      1.20
    4    7   15     -1.53     -1.40
    4    9   15      0.05      0.38
    5    6   15     -0.76     -1.59
    5    8   15      0.07      0.09
    6    7   15     -0.78      1.21
    0    0   16      2.43      0.18
    0    2   16      1.15     -0.39
    0    4   16      1.81      1.03
    0    6   16      1.88      2.35
    1    1   16     -2.09     -0.01
    1    3   16     -0.33     -0.22
    1    5   16      0.31      0.11
    1    7   16      1.51     -1.20
    2    2   16      1.76      0.08
    2    4   16      2.79      1.29
    2    6   16      1.18      2.33
    3    3   16     -0.75     -0.02
    3    5   16      0.93      0.44
    3    7   16      2.73     -0.57
    4    4   16      3.35     -0.01
    4    6   16      0.59      1.09
    5    5   16      0.64      0.04
    0    1   17     -1.99     -4.98
    0    3   17     -2.08     -2.16
    1    2   17     -3.07      2.86
    1    4   17     -2.56     -0.12
    2    3   17     -2.88     -2.77
    1    1    0     -4.45      0.27
    2    2    0    103.13     -0.26
    2    4    0     38.07     -0.04
    3    9    0     -5.02      0.04
    0   12    0     10.63     -0.01
    8   18    0     -2.33     -0.03
    1   19    0      2.58      0.10
    3   19    0      1.24      0.00
    5   19    0      0.21      0.03
   13   14    1     -0.57     -0.11
   12   15    1     -0.75      0.91
    0   19    1      0.87      3.42
    2   19    1      0.37      2.41
    4   19    1     -0.06      0.74
    1    1    2    -19.72      0.28
    1    3    2     -9.54     -3.68
    3    3    2     -2.36     -0.06
    3   19    2     -3.25     -1.35
   11   16    3     -1.02      0.35
    7   18    3     -0.21     -1.12
    4   19    3      0.70     -0.64
    1   19    4     -2.54     -0.36
    8   17    5     -0.70      0.64
   13   13    6      1.01      0.06
   12   14    6     -0.60      0.29
    4   18    6      1.88      0.12
   10   15    7      0.43     -0.88
    6   17    7     -0.44     -0.42
    1   18    7     -1.98      1.32
    9   15    8      0.82      0.34
    1    1   10     -6.36     -0.14
    8   14   10      0.70     -0.75
    2   16   10     -2.36     -0.70
    8   13   11      0.33      0.59
    4    4   12      0.09      0.05
    9   11   12     -0.44     -0.21
    8   12   12     -0.08     -0.27
    2   14   12      1.11      0.91
    5   12   13      0.36     -0.92
    0   13   13      0.32      0.76
    2   13   13     -0.12      0.96
    1   11   14      0.25     -1.65
    3   11   14      0.02     -0.47
    1   10   15      0.26      4.54
    0    8   16     -0.59      0.70
    3    4   17     -2.54      1.79
    0    5   17     -0.69     -0.94
    0    0    0      0.00      0.00
# SQUEEZE RESULTS (Version = 160117)
# Note: Data are Listed for all Voids in the P1 Unit Cell
# i.e. Centre of Gravity, Solvent Accessible Volume,
# Recovered number of Electrons in the Void and
# Details about the Squeezed Material
loop_
  _platon_squeeze_void_nr
  _platon_squeeze_void_average_x
  _platon_squeeze_void_average_y
  _platon_squeeze_void_average_z
  _platon_squeeze_void_volume
  _platon_squeeze_void_count_electrons
  _platon_squeeze_void_content
   1  0.000  0.000 -0.010       256        52 ' '
   2  0.000  0.500  0.250       322        56 ' '
   3  0.500  0.000 -0.250       322        56 ' '
   4  0.500  0.500 -0.006       256        52 ' '
# Missing Reflections Below sin(th)/lambda = 0.25
loop_
  _platon_missing_refln_index_h
  _platon_missing_refln_index_k
  _platon_missing_refln_index_l
  _platon_missing_refln_theta
    1    1    0     3.998
    2    2    0     8.015
    2    4    0    12.736
    1    1    2     7.511
    1    3    2    11.018
    3    3    2    13.685
_platon_squeeze_void_probe_radius                  1.20
_platon_squeeze_details
)
TITL zn        I -4 m 2     R = 0.09
CELL   15.6390   15.6390   13.9429     90.00     90.00     90.00
SPGR I-4m2
# Solvent Accessible Volume =      1155
# Electrons Found in S.A.V. =       212
# Note: Atoms in Void as Cxxx and Qxxx all others
C101 0.500 1.006 0.094 !       4.36 eA-3
C102 0.949 1.002 0.344 !       4.05 eA-3
C103 1.000 0.502 0.437 !       2.72 eA-3
C104 1.000 0.561 0.062 !       1.81 eA-3
C105 0.543 0.994 0.031 !       1.59 eA-3
C106 1.000 1.006 0.250 !       1.17 eA-3
C107 0.500 0.501 0.000 !       1.14 eA-3
Q108 0.313 0.239 0.281 !       1.06 eA-3
Q109 0.314 0.858 0.217 !       1.06 eA-3
C110 0.029 0.438 0.119 !       1.04 eA-3
C111 1.000 0.558 0.148 !       1.03 eA-3
Q112 0.314 0.862 0.280 !       1.00 eA-3
C113 0.963 1.008 0.438 !       1.00 eA-3
C114 1.000 0.490 0.313 !       0.96 eA-3
Q115 0.297 0.504 0.250 !       0.88 eA-3
Q116 0.500 0.951 0.050 !       0.78 eA-3
C117 0.500 0.451 0.345 !       0.75 eA-3
Q118 0.688 0.230 0.216 !       0.71 eA-3
C119 0.077 1.004 0.172 !       0.70 eA-3
C120 0.032 0.469 0.249 !       0.67 eA-3
Q121 0.500 0.659 0.215 !       0.65 eA-3
Q122 0.070 0.059 0.109 !       0.64 eA-3
Q123 1.000 0.609 0.483 !       0.63 eA-3
Q124 0.937 0.398 0.010 !       0.62 eA-3
Q125 0.180 0.796 0.252 !       0.62 eA-3
Q126 0.313 0.312 0.286 !       0.61 eA-3
C127 0.061 0.563 0.248 !       0.59 eA-3
C128 0.545 0.487 0.125 !       0.57 eA-3
Q129 0.302 0.896 0.359 !       0.57 eA-3
Q130 0.802 0.584 0.859 !       0.57 eA-3
Q131 0.535 1.000 0.172 !       0.56 eA-3
Q132 0.168 0.543 0.296 !       0.56 eA-3
Q133 1.000 0.043 0.063 !       0.54 eA-3
Q134 0.500 0.339 0.095 !       0.53 eA-3
Q135 0.871 0.420 0.338 !       0.52 eA-3
C136 0.386 0.021 0.031 !       0.51 eA-3
Q137 0.221 0.995 0.125 !       0.50 eA-3
)
;
_shelx_fab_checksum              34503
loop_
_space_group_symop_operation_xyz
'x, y, z'
'-x, -y, z'
'-y, -x, -z'
'y, x, -z'
'-x, y, z'
'x, -y, z'
'-y, x, -z'
'y, -x, -z'
'x+1/2, y+1/2, z+1/2'
'-x+1/2, -y+1/2, z+1/2'
'-y+1/2, -x+1/2, -z+1/2'
'y+1/2, x+1/2, -z+1/2'
'-x+1/2, y+1/2, z+1/2'
'x+1/2, -y+1/2, z+1/2'
'-y+1/2, x+1/2, -z+1/2'
'y+1/2, -x+1/2, -z+1/2'
loop_
_atom_site_label
_atom_site_type_symbol
_atom_site_fract_x
_atom_site_fract_y
_atom_site_fract_z
_atom_site_U_iso_or_equiv
_atom_site_adp_type
_atom_site_occupancy
_atom_site_site_symmetry_order
_atom_site_calc_flag
_atom_site_refinement_flags_posn
_atom_site_refinement_flags_adp
_atom_site_refinement_flags_occupancy
_atom_site_disorder_assembly
_atom_site_disorder_group
Zn1 Zn 0.31218(4) 0.18782(4) 0.2500 0.0156(4) Uani 1 2 d S T P . .
O1 O 0.2195(3) 0.1782(2) 0.1473(4) 0.0237(9) Uani 1 1 d . . . . .
O2 O 0.1567(4) 0.1984(4) 0.2885(4) 0.0362(13) Uani 1 1 d . . . . .
O3 O 0.0000 0.1930(4) 0.2077(4) 0.0258(14) Uani 1 2 d S T P . .
N1 N 0.4271(3) 0.1844(3) 0.1858(4) 0.0173(10) Uani 1 1 d . . . . .
N2 N 0.4575(4) 0.2611(5) -0.0559(4) 0.0348(14) Uani 0.5 1 d . . P A 1
H2 H 0.4314 0.2783 -0.1084 0.042 Uiso 0.5 1 calc R U P A 1
N3 N 0.3257(5) 0.2362(6) -0.0013(6) 0.0167(17) Uani 0.5 1 d . . P A 1
H32 H 0.3082 0.2510 -0.0589 0.020 Uiso 0.5 1 calc R U P A 1
H31 H 0.2884 0.2211 0.0427 0.020 Uiso 0.5 1 calc R U P A 1
C2' C 0.4575(4) 0.2611(5) -0.0559(4) 0.0348(14) Uani 0.5 1 d . . P B 2
H2' H 0.4299 0.2793 -0.1114 0.042 Uiso 0.5 1 calc R U P B 2
C1 C 0.1535(5) 0.1904(4) 0.1988(5) 0.0264(17) Uani 1 1 d . . . . .
C2 C 0.0700(4) 0.1940(3) 0.1508(4) 0.0187(12) Uani 1 1 d . . . . .
C3 C 0.0456(4) 0.1962(4) 0.0560(5) 0.0254(13) Uani 1 1 d . . . . .
H3 H 0.0813 0.1975 0.0027 0.031 Uiso 1 1 calc R U . . .
C4 C 0.5000 0.1673(5) 0.2328(4) 0.0153(15) Uani 1 2 d S T P . .
H4 H 0.5000 0.1450 0.2946 0.018 Uiso 1 2 calc R U P . .
C5 C 0.4556(3) 0.2132(3) 0.0979(3) 0.0171(10) Uani 1 1 d . . . . .
C6 C 0.4084(3) 0.2365(4) 0.0191(4) 0.0266(11) Uani 0.5 1 d . . P A 1
N6' N 0.4084(3) 0.2365(4) 0.0191(4) 0.0266(11) Uani 0.5 1 d . . P B 2
loop_
_atom_site_aniso_label
_atom_site_aniso_U_11
_atom_site_aniso_U_22
_atom_site_aniso_U_33
_atom_site_aniso_U_23
_atom_site_aniso_U_13
_atom_site_aniso_U_12
Zn1 0.0100(4) 0.0100(4) 0.0267(6) -0.0035(4) -0.0035(4) 0.0002(2)
O1 0.008(2) 0.023(2) 0.040(2) 0.0049(17) -0.0092(17) -0.0037(13)
O2 0.029(3) 0.048(3) 0.031(2) 0.000(2) -0.027(2) 0.000(2)
O3 0.031(4) 0.032(3) 0.015(2) -0.010(2) 0.000 0.000
N1 0.019(3) 0.014(2) 0.019(2) 0.0030(15) -0.0009(19) 0.0018(14)
N2 0.033(3) 0.055(4) 0.016(2) 0.012(3) -0.011(2) 0.000(3)
N3 0.010(4) 0.026(5) 0.014(4) 0.003(4) 0.000(3) -0.003(3)
C2' 0.033(3) 0.055(4) 0.016(2) 0.012(3) -0.011(2) 0.000(3)
C1 0.025(4) 0.017(3) 0.037(4) 0.008(2) -0.021(3) 0.0021(19)
C2 0.011(3) 0.029(3) 0.016(2) -0.005(2) 0.002(2) 0.0000(18)
C3 0.012(3) 0.037(3) 0.028(3) 0.000(2) -0.003(2) 0.001(2)
C4 0.015(3) 0.022(3) 0.010(4) 0.012(3) 0.000 0.000
C5 0.022(3) 0.014(2) 0.016(2) 0.0065(19) 0.004(2) 0.002(2)
C6 0.020(2) 0.029(3) 0.030(2) 0.006(2) 0.000(2) -0.001(2)
N6' 0.020(2) 0.029(3) 0.030(2) 0.006(2) 0.000(2) -0.001(2)
loop_
_atom_type_symbol
_atom_type_description
_atom_type_scat_dispersion_real
_atom_type_scat_dispersion_imag
_atom_type_scat_source
C C 0.0181 0.0091 'International Tables Vol C Tables 4.2.6.8 and 6.1.1.4'
H H 0.0000 0.0000 'International Tables Vol C Tables 4.2.6.8 and 6.1.1.4'
N N 0.0311 0.0180 'International Tables Vol C Tables 4.2.6.8 and 6.1.1.4'
O O 0.0492 0.0322 'International Tables Vol C Tables 4.2.6.8 and 6.1.1.4'
Zn Zn -1.5491 0.6778 'International Tables Vol C Tables 4.2.6.8 and 6.1.1.4'
loop_
_geom_angle_atom_site_label_1
_geom_angle_atom_site_label_2
_geom_angle_atom_site_label_3
_geom_angle
_geom_angle_site_symmetry_1
_geom_angle_site_symmetry_3
N1 Zn1 N1 98.7(2) . 11
N1 Zn1 O1 105.41(17) . 11
N1 Zn1 O1 108.7(2) 11 11
N1 Zn1 O1 108.7(2) . .
N1 Zn1 O1 105.41(17) 11 .
O1 Zn1 O1 126.5(2) 11 .
C1 O1 Zn1 99.7(4) . .
C2 O3 C2 108.1(6) 5 .
C4 N1 C5 103.0(5) . .
C4 N1 Zn1 123.2(4) . .
C5 N1 Zn1 132.6(4) . .
N2 N2 C6 124.6(3) 5_655 .
C2' C2' N6' 124.6(3) 5_655 .
O2 C1 O1 123.0(8) . .
O2 C1 C2 119.1(8) . .
O1 C1 C2 117.9(6) . .
O3 C2 C3 109.8(5) . .
O3 C2 C1 116.8(5) . .
C3 C2 C1 133.3(6) . .
C2 C3 C3 106.1(4) . 5
N1 C4 N1 116.3(6) 5_655 .
N6' C5 N1 128.6(5) . .
C6 C5 N1 128.6(5) . .
N6' C5 C5 122.5(3) . 5_655
C6 C5 C5 122.5(3) . 5_655
N1 C5 C5 108.8(3) . 5_655
N3 C6 N2 112.9(6) . .
N3 C6 C5 134.1(6) . .
N2 C6 C5 112.9(5) . .
C2' N6' C5 112.9(5) . .
loop_
_geom_bond_atom_site_label_1
_geom_bond_atom_site_label_2
_geom_bond_distance
_geom_bond_site_symmetry_2
Zn1 N1 2.009(5) .
Zn1 N1 2.009(5) 11
Zn1 O1 2.044(4) 11
Zn1 O1 2.044(4) .
O1 C1 1.272(10) .
O2 C1 1.258(8) .
O3 C2 1.352(6) 5
O3 C2 1.352(6) .
N1 C4 1.342(6) .
N1 C5 1.379(7) .
N2 N2 1.328(13) 5_655
N2 C6 1.354(8) .
N3 C6 1.324(10) .
C2' C2' 1.328(13) 5_655
C2' N6' 1.354(8) .
C1 C2 1.469(9) .
C2 C3 1.375(9) .
C3 C3 1.426(12) 5
C4 N1 1.342(6) 5_655
C5 N6' 1.373(7) .
C5 C6 1.373(7) .
C5 C5 1.389(11) 5_655
loop_
_geom_hbond_atom_site_label_D
_geom_hbond_atom_site_label_H
_geom_hbond_atom_site_label_A
_geom_hbond_distance_DH
_geom_hbond_distance_HA
_geom_hbond_distance_DA
_geom_hbond_angle_DHA
_geom_hbond_site_symmetry_A
N2 H2 O2 0.88 2.02 2.880(8) 164 10_554
N3 H31 O1 0.88 1.93 2.806(10) 172 .
