#------------------------------------------------------------------------------
#$Date: 2019-11-26 04:16:34 +0200 (Tue, 26 Nov 2019) $
#$Revision: 242587 $
#$URL: file:///home/coder/svn-repositories/cod/cif/4/13/26/4132640.cif $
#------------------------------------------------------------------------------
#
# This file is available in the Crystallography Open Database (COD),
# http://www.crystallography.net/
#
# All data on this site have been placed in the public domain by the
# contributors.
#
data_4132640
loop_
_publ_author_name
'Lee, Seungkyu'
'B\"urgi, Hans-Beat'
'Alshmimri, Sultan A.'
'Yaghi, Omar M.'
_publ_section_title
;
 Impact of Disordered Guest-Framework Interactions on the Crystallography
 of Metal-Organic Frameworks.
;
_journal_issue                   28
_journal_name_full               'Journal of the American Chemical Society'
_journal_page_first              8958
_journal_page_last               8964
_journal_paper_doi               10.1021/jacs.8b05271
_journal_volume                  140
_journal_year                    2018
_chemical_formula_moiety         '0.25(C322.56 H184.32 O112 Zr24), 4(H1 O1)'
_chemical_formula_sum            'C84 H52 O32 Zr6'
_chemical_formula_weight         2120.57
_chemical_name_systematic        UiO-67
_space_group_crystal_system      cubic
_space_group_IT_number           225
_space_group_name_Hall           '-F 4 2 3'
_space_group_name_H-M_alt        'F m -3 m'
_atom_sites_solution_hydrogens   mixed
_audit_creation_date             2018-04-24
_audit_creation_method
;
Olex2 1.2
(compiled 2017.08.10 svn.r3458 for OlexSys, GUI svn.r5381)
;
_cell_angle_alpha                90
_cell_angle_beta                 90
_cell_angle_gamma                90
_cell_formula_units_Z            4
_cell_length_a                   26.8341(17)
_cell_length_b                   26.8341(17)
_cell_length_c                   26.8341(17)
_cell_measurement_reflns_used    9963
_cell_measurement_temperature    260
_cell_measurement_theta_max      28.82
_cell_measurement_theta_min      2.74
_cell_volume                     19322(2)
_computing_cell_refinement       'SAINT V8.38A (?, 2016)'
_computing_data_reduction        'SAINT V8.38A (?, 2016)'
_computing_molecular_graphics    'Olex2 (Dolomanov et al., 2009)'
_computing_publication_material  'Olex2 (Dolomanov et al., 2009)'
_computing_structure_refinement  'ShelXL (Sheldrick, 2015)'
_computing_structure_solution    'SHELXT 2014/5 (Sheldrick, 2014)'
_diffrn_ambient_temperature      260.15
_diffrn_detector_area_resol_mean 10.42
_diffrn_measured_fraction_theta_full 0.998
_diffrn_measured_fraction_theta_max 0.984
_diffrn_measurement_device_type  'Bruker D8 with PHOTON 100 detector'
_diffrn_measurement_method       '\f and \w shutterless scans'
_diffrn_radiation_monochromator  'silicon 111'
_diffrn_radiation_type           synchrotron
_diffrn_radiation_wavelength     0.7749
_diffrn_reflns_av_R_equivalents  0.1323
_diffrn_reflns_av_unetI/netI     0.0519
_diffrn_reflns_Laue_measured_fraction_full 0.998
_diffrn_reflns_Laue_measured_fraction_max 0.984
_diffrn_reflns_limit_h_max       32
_diffrn_reflns_limit_h_min       -32
_diffrn_reflns_limit_k_max       28
_diffrn_reflns_limit_k_min       -33
_diffrn_reflns_limit_l_max       33
_diffrn_reflns_limit_l_min       -33
_diffrn_reflns_number            24149
_diffrn_reflns_point_group_measured_fraction_full 0.998
_diffrn_reflns_point_group_measured_fraction_max 0.984
_diffrn_reflns_theta_full        27.706
_diffrn_reflns_theta_max         28.825
_diffrn_reflns_theta_min         1.655
_diffrn_source
;
Advanced Light Source, station 11.3.1
;
_diffrn_standards_number         0
_exptl_absorpt_coefficient_mu    0.443
_exptl_absorpt_correction_T_max  0.3985
_exptl_absorpt_correction_T_min  0.2849
_exptl_absorpt_correction_type   multi-scan
_exptl_absorpt_process_details
'SADABS-2016/2 (Bruker,2016/2) was used for absorption correction. wR2(int) was 0.1670 before and 0.1411 after correction. The Ratio of minimum to maximum transmission is 0.7149. The \l/2 correction factor is Not present.'
_exptl_crystal_colour            clear
_exptl_crystal_colour_lustre     clear
_exptl_crystal_density_diffrn    0.729
_exptl_crystal_description       'truncated octahedron'
_exptl_crystal_F_000             4208
_exptl_crystal_size_max          0.08
_exptl_crystal_size_mid          0.08
_exptl_crystal_size_min          0.08
_platon_squeeze_details
;
TITL 260k1_a.res in Fm-3m
CELL   26.8341   26.8341   26.8341     90.00     90.00     90.00
SPGR Fm-3m
# Solvent Accessible Volume =     13253
# Electrons Found in S.A.V. =      6848
# Note: Atoms in Void are Labelled as Cxxx and Qxxx for all Others
Q101 0.388 0.107 0.393 !       3.32 eA-3
C102 0.381 0.119 0.119 !       1.73 eA-3
C103 0.845 0.154 0.171 !       1.69 eA-3
C104 0.500 0.203-0.004 !       1.59 eA-3
C105 0.402 0.099 0.099 !       1.51 eA-3
C106 0.525 0.477 0.319 !       1.40 eA-3
C107 0.588 0.117 0.117 !       1.39 eA-3
C108 1.000 0.336 0.000 !       1.38 eA-3
C109 0.312 0.313 0.187 !       1.37 eA-3
C110 0.956 0.334 0.046 !       1.32 eA-3
C111 0.385 0.120 0.334 !       1.29 eA-3
C112 0.937 0.398 0.002 !       1.25 eA-3
C113 0.577 0.467 0.477 !       1.19 eA-3
C114 0.141 0.142 0.234 !       1.19 eA-3
C115 1.000 0.367 0.064 !       1.17 eA-3
C116 0.594 0.094 0.148 !       1.16 eA-3
C117 0.140 0.142 0.358 !       1.15 eA-3
C118 0.500 0.503 0.258 !       1.14 eA-3
C119 0.717 0.844 0.651 !       1.11 eA-3
C120 0.217 0.344 0.651 !       1.11 eA-3
C121 0.717 0.344 0.151 !       1.11 eA-3
C122 0.783 0.156 0.849 !       1.11 eA-3
C123 0.202 0.354 0.664 !       1.10 eA-3
C124 0.544 0.456 0.456 !       1.09 eA-3
C125 0.219 0.337 0.318 !       1.07 eA-3
C126 0.071 0.500 0.000 !       1.07 eA-3
C127 0.617 0.022 0.038 !       1.06 eA-3
C128 0.547 0.492 0.334 !       1.06 eA-3
C129 0.374 0.373 0.203 !       1.05 eA-3
C130 0.195 0.076 0.424 !       1.05 eA-3
C131 0.596 0.135 0.146 !       1.05 eA-3
C132 1.000 0.366 0.030 !       1.03 eA-3
C133 0.154 0.348 0.237 !       1.02 eA-3
C134 0.322 0.421 0.457 !       1.00 eA-3
C135 0.750 0.249 0.344 !       1.00 eA-3
C136 0.587 0.025 0.085 !       1.00 eA-3
C137 0.822 0.067 0.393 !       0.99 eA-3
C138 0.627 0.028 0.134 !       0.99 eA-3
C139 0.977 0.455 0.014 !       0.98 eA-3
C140 0.800 0.141 0.195 !       0.98 eA-3
Q141 0.702 0.024 0.355 !       0.98 eA-3
C142 0.589 0.025 0.117 !       0.98 eA-3
C143 0.156 0.341 0.164 !       0.97 eA-3
C144 0.166 0.071 0.429 !       0.96 eA-3
Q145 0.468 0.183 0.259 !       0.96 eA-3
C146 0.555 0.140 0.105 !       0.96 eA-3
C147 0.235 0.123 0.180 !       0.95 eA-3
C148 0.944 0.024 0.303 !       0.95 eA-3
C149 0.837 0.279 0.189 !       0.95 eA-3
C150 0.311 0.309 0.397 !       0.94 eA-3
C151 1.000 0.461 0.061 !       0.94 eA-3
C152 0.633 0.022 0.072 !       0.94 eA-3
C153 0.366 0.204 0.135 !       0.93 eA-3
C154 0.134 0.296 0.865 !       0.93 eA-3
C155 0.866 0.296 0.865 !       0.93 eA-3
C156 0.500 0.114 0.103 !       0.93 eA-3
C157 0.485 0.485 0.274 !       0.92 eA-3
C158 0.215 0.031 0.469 !       0.92 eA-3
C159 1.000 0.367-0.006 !       0.91 eA-3
C160 0.691 0.309 0.309 !       0.90 eA-3
C161 0.618 0.112 0.171 !       0.90 eA-3
C162 0.763 0.263 0.263 !       0.89 eA-3
C163 0.837 0.310 0.190 !       0.89 eA-3
C164 0.371 0.172 0.171 !       0.88 eA-3
C165 0.250 0.316 0.316 !       0.88 eA-3
C166 0.402 0.502 0.313 !       0.88 eA-3
C167 0.297 0.367 0.773 !       0.87 eA-3
C168 0.797 0.367 0.273 !       0.87 eA-3
C169 0.797 0.867 0.773 !       0.87 eA-3
C170 0.703 0.367 0.773 !       0.87 eA-3
C171 0.133 0.774 0.797 !       0.87 eA-3
C172 1.000 0.351 0.080 !       0.87 eA-3
C173 0.707 0.136 0.201 !       0.86 eA-3
C174 0.265 0.848 0.702 !       0.85 eA-3
C175 0.713 0.282 0.273 !       0.85 eA-3
C176 0.281 0.282 0.109 !       0.84 eA-3
C177 0.500 0.163 0.124 !       0.84 eA-3
C178 0.464 0.166 0.128 !       0.83 eA-3
C179 0.119 0.386 0.232 !       0.82 eA-3
C180 0.763 0.381 0.148 !       0.82 eA-3
Q181 0.663 0.247 0.399 !       0.81 eA-3
C182 0.540 0.108 0.108 !       0.81 eA-3
C183 0.770 0.366 0.178 !       0.80 eA-3
C184 0.803 0.275 0.197 !       0.79 eA-3
C185 0.389 0.260 0.238 !       0.78 eA-3
C186 0.181 0.095 0.095 !       0.78 eA-3
Q187 0.696 0.034 0.135 !       0.78 eA-3
C188 0.708 0.102 0.102 !       0.78 eA-3
C189 0.162 0.280 0.220 !       0.77 eA-3
C190 0.542 0.061 0.102 !       0.77 eA-3
C191 0.701 0.090 0.119 !       0.77 eA-3
C192 0.674 0.277 0.777 !       0.76 eA-3
C193 0.674 0.777 0.277 !       0.76 eA-3
C194 0.174 0.277 0.277 !       0.76 eA-3
C195 0.243 0.183 0.778 !       0.75 eA-3
Q196 0.523 0.158 0.158 !       0.75 eA-3
C197 0.364 0.134 0.065 !       0.74 eA-3
C198 0.619 0.078 0.071 !       0.74 eA-3
C199 0.740 0.256 0.299 !       0.73 eA-3
;
_refine_diff_density_max         0.788
_refine_diff_density_min         -1.409
_refine_diff_density_rms         0.160
_refine_ls_extinction_method     none
_refine_ls_goodness_of_fit_ref   1.201
_refine_ls_hydrogen_treatment    constr
_refine_ls_matrix_type           full
_refine_ls_number_parameters     48
_refine_ls_number_reflns         1025
_refine_ls_number_restraints     13
_refine_ls_restrained_S_all      1.205
_refine_ls_R_factor_all          0.0563
_refine_ls_R_factor_gt           0.0527
_refine_ls_shift/su_max          0.001
_refine_ls_shift/su_mean         0.000
_refine_ls_structure_factor_coef Fsqd
_refine_ls_weighting_details
'w=1/[\s^2^(Fo^2^)+(0.0976P)^2^+46.6941P] where P=(Fo^2^+2Fc^2^)/3'
_refine_ls_weighting_scheme      calc
_refine_ls_wR_factor_gt          0.1512
_refine_ls_wR_factor_ref         0.1549
_reflns_Friedel_coverage         0.000
_reflns_number_gt                915
_reflns_number_total             1025
_reflns_threshold_expression     'I > 2\s(I)'
_iucr_refine_instructions_details
;
TITL 260k1_a.res in Fm-3m
    platon_sq.res
    created by SHELXL-2017/1 at 11:12:32 on 24-Apr-2018
REM Old TITL 260K1 in Fm-3m
REM SHELXT solution in Fm-3m
REM R1 0.158, Rweak 0.008, Alpha 0.029, Orientation as input
REM Formula found by SHELXT: C46 O12 Zr3
CELL 0.7749 26.8341 26.8341 26.8341 90 90 90
ZERR 4 0.0017 0.0017 0.0017 0 0 0
LATT 4
SYMM -X,-Y,+Z
SYMM -X,+Y,-Z
SYMM +X,-Y,-Z
SYMM +Z,+X,+Y
SYMM +Z,-X,-Y
SYMM -Z,-X,+Y
SYMM -Z,+X,-Y
SYMM +Y,+Z,+X
SYMM -Y,+Z,-X
SYMM +Y,-Z,-X
SYMM -Y,-Z,+X
SYMM +Y,+X,-Z
SYMM -Y,-X,-Z
SYMM +Y,-X,+Z
SYMM -Y,+X,+Z
SYMM +X,+Z,-Y
SYMM -X,+Z,+Y
SYMM -X,-Z,-Y
SYMM +X,-Z,+Y
SYMM +Z,+Y,-X
SYMM +Z,-Y,+X
SYMM -Z,+Y,+X
SYMM -Z,-Y,-X
SFAC C H O Zr
DISP C 0.004 0.002 13.872
DISP H -0 0 0.627
DISP O 0.014 0.007 40.889
DISP Zr -1.823 0.68 3152.254
UNIT 336 208 128 24
DELU O1 O2
DELU C0AA C1AA
ISOR 0.05 0.1 C5
ISOR 0.02 0.04 C1AA

L.S. 5 0 40
PLAN  300
TEMP -13
BOND $H
list 4
ABIN
fmap 2 53
acta
OMIT 1 1 1
OMIT 0 2 4
REM <olex2.extras>
REM <HklSrc "%.\\platon_sq.hkl">
REM </olex2.extras>

WGHT    0.097600   46.694099
FVAR       0.07448
ZR1   4    1.000000    0.500000    0.592147    10.12500    0.01139    0.01139 =
         0.00555    0.00000    0.00000    0.00000
O3    3    1.072664    0.500000    0.632088    10.48000    0.02298    0.04422 =
         0.01875    0.00000   -0.00869    0.00000
C1    1    1.117498    0.500000    0.617498    10.24000    0.02253    0.03897 =
         0.02253    0.00000   -0.01030    0.00000
C2    1    1.156487    0.500000    0.656487    10.24000    0.02571    0.08087 =
         0.02571    0.00000   -0.01746    0.00000
C5    1    1.229900    0.500000    0.729900    10.24000    0.03393    0.13970 =
         0.03393    0.00000   -0.01881    0.00000
PART 1
O1    3    1.038594    0.538594    0.538594    10.08333    0.01162    0.01162 =
         0.01162   -0.00366   -0.00366   -0.00366
PART 0
PART 2
O2    3    1.051746    0.551746    0.551746    10.08333    0.01105    0.01105 =
         0.01105   -0.00433   -0.00433   -0.00433
H2    2   11.069201   10.569201   10.569201    10.08333   10.05000
O41   3    1.061485    0.500000    0.647154    10.02000   10.03000
PART 0
PART -1
C1AA  1    1.180250    0.486275    0.741594    10.48000    0.05087    0.13449 =
         0.02628    0.02208   -0.02509   -0.00644
AFIX  43
H1AA  2    1.172158    0.476039    0.773701    10.48000   -1.20000
AFIX   0
C0AA  1    1.144351    0.488122    0.705612    10.48000    0.02981    0.13082 =
         0.03184    0.01275   -0.01355   -0.01448
AFIX  43
H0AA  2    1.111395    0.481378    0.713950    10.48000   -1.20000
AFIX   0
HKLF 4




REM  260k1_a.res in Fm-3m
REM R1 =  0.0527 for     915 Fo > 4sig(Fo)  and  0.0563 for all    1025 data
REM     48 parameters refined using     13 restraints

END  
     
WGHT      0.0976     46.7604 

REM Highest difference peak  0.788,  deepest hole -1.409,  1-sigma level  0.160
Q1    1   1.0990  0.5000  0.7252  10.50000  0.05    0.55
Q2    1   1.1605  0.4816  0.7878  11.00000  0.05    0.51
Q3    1   1.0000  0.5000  0.6844  10.12500  0.05    0.49
Q4    1   1.1113  0.4816  0.7359  11.00000  0.05    0.48
Q5    1   1.1594  0.5000  0.8003  10.50000  0.05    0.47
Q6    1   1.1992  0.5000  0.7352  10.50000  0.05    0.41
Q7    1   1.1848  0.4534  0.7452  11.00000  0.05    0.34
Q8    1   1.1585  0.5000  0.7027  10.50000  0.05    0.32
Q9    1   1.2046  0.4654  0.7046  10.50000  0.05    0.32
Q10   1   1.1540  0.4630  0.7047  11.00000  0.05    0.28
Q11   1   1.0346  0.4807  0.6945  11.00000  0.05    0.26
Q12   1   1.1688  0.5000  0.7141  10.50000  0.05    0.26
Q13   1   1.1046  0.6046  0.6245  10.50000  0.05    0.25
Q14   1   1.1538  0.4789  0.7016  11.00000  0.05    0.24
Q15   1   1.2167  0.4482  0.7167  10.50000  0.05    0.21
Q16   1   1.0000  0.5000  0.5000  10.02083  0.05    0.20
Q17   1   1.0000  0.5000  0.7617  10.12500  0.05    0.18
Q18   1   1.1548  0.3585  0.6784  11.00000  0.05    0.17
Q19   1   1.1145  0.3989  0.7056  11.00000  0.05    0.16
Q20   1   1.1240  0.4440  0.6240  10.50000  0.05    0.16
Q21   1   1.1672  0.3579  0.6672  10.50000  0.05    0.15
Q22   1   1.1167  0.5163  0.5986  11.00000  0.05    0.14
Q23   1   1.1973  0.3995  0.6973  10.50000  0.05    0.14
Q24   1   1.1623  0.3789  0.7399  11.00000  0.05    0.14
Q25   1   1.1162  0.4017  0.7354  11.00000  0.05    0.13
Q26   1   1.1449  0.3551  0.7670  10.50000  0.05    0.13
Q27   1   1.1578  0.3536  0.7905  11.00000  0.05    0.13
Q28   1   1.1014  0.5000  0.6175  10.50000  0.05    0.12
Q29   1   1.0361  0.5000  0.7542  10.50000  0.05    0.12
Q30   1   1.0387  0.4613  0.6232  10.50000  0.05    0.12
Q31   1   1.1099  0.3988  0.6991  11.00000  0.05    0.10
Q32   1   1.1677  0.3323  0.8185  10.50000  0.05    0.10
Q33   1   1.1756  0.3244  0.7419  10.50000  0.05    0.10
Q34   1   1.1804  0.3196  0.7791  10.50000  0.05    0.10
Q35   1   1.1220  0.3780  0.7175  10.50000  0.05    0.10
Q36   1   1.1341  0.3964  0.7203  11.00000  0.05    0.09
Q37   1   1.1220  0.3872  0.7054  11.00000  0.05    0.09
Q38   1   1.1934  0.3977  0.7392  11.00000  0.05    0.09
Q39   1   1.1032  0.4063  0.6867  11.00000  0.05    0.09
Q40   1   1.1626  0.3565  0.7580  11.00000  0.05    0.09
Q41   1   1.1197  0.4132  0.7789  11.00000  0.05    0.08
Q42   1   1.1789  0.3211  0.7629  10.50000  0.05    0.08
Q43   1   1.1666  0.4181  0.7990  11.00000  0.05    0.08
Q44   1   1.0794  0.4331  0.7932  11.00000  0.05    0.08
Q45   1   1.0000  0.5000  0.7499  10.12500  0.05    0.08
Q46   1   1.0433  0.5544  0.5433  10.50000  0.05    0.08
Q47   1   1.1962  0.3441  0.7380  11.00000  0.05    0.07
Q48   1   1.0398  0.5000  0.7440  10.50000  0.05    0.07
Q49   1   1.2101  0.3971  0.7899  10.50000  0.05    0.07
Q50   1   1.0274  0.5000  0.7396  10.50000  0.05    0.07
Q51   1   1.0106  0.5000  0.7965  10.50000  0.05    0.06
Q52   1   1.0564  0.5000  0.6351  10.50000  0.05    0.06
Q53   1   1.2176  0.3370  0.7348  11.00000  0.05    0.05
Q54   1   1.1195  0.4161  0.7560  11.00000  0.05    0.05
Q55   1   1.2173  0.3013  0.7617  11.00000  0.05    0.04
Q56   1   1.0822  0.5000  0.7908  10.50000  0.05    0.03
Q57   1   1.1011  0.4196  0.7956  11.00000  0.05    0.03

  REM The information below was added by Olex2.
  REM
  REM R1 = 0.0527 for 915 Fo > 4sig(Fo) and 0.0563 for all 24171 data
  REM n/a parameters refined using n/a restraints
  REM Highest difference peak 0.79, deepest hole -1.41
  REM Mean Shift 0, Max Shift -0.001.

  REM +++ Tabular Listing of Refinement Information +++
  REM R1_all = 0.0563
  REM R1_gt = 0.0527
  REM wR_ref = 0.1549
  REM GOOF = 1.201
  REM Shift_max = -0.001
  REM Shift_mean = 0
  REM Reflections_all = 24171
  REM Reflections_gt = 915
  REM Parameters = n/a
  REM Hole = -1.41
  REM Peak = 0.79
  REM Flack = n/a

  
;
_cod_data_source_file            Uio-67_4defect_DMF_260K1.cif
_cod_data_source_block           UiO-67_4defect_dmf_260K1
_cod_original_cell_volume        19322(4)
_cod_database_code               4132640
_shelx_shelxl_version_number     2017/1
_shelx_space_group_comment
;
The symmetry employed for this shelxl refinement is uniquely defined
by the following loop, which should always be used as a source of
symmetry information in preference to the above space-group names.
They are only intended as comments.
;
_olex2_refinement_description
;
1. Fixed Uiso
 At 1.2 times of:
  All C(H) groups
2. Rigid bond restraints
 O1, O2
 with sigma for 1-2 distances of 0.01 and sigma for 1-3 distances of 0.01
 C0AA, C1AA
 with sigma for 1-2 distances of 0.01 and sigma for 1-3 distances of 0.01
3. Uiso/Uaniso restraints and constraints
Uanis(C5) \\sim Ueq: with sigma of 0.05 and sigma for terminal atoms of 0.1
Uanis(C1AA) \\sim Ueq: with sigma of 0.02 and sigma for terminal atoms of 0.04
4. Others
 Fixed Sof: O3(0.48) C1(0.24) C2(0.24) C5(0.24) O1(0.08333) O2(0.08333)
 H2(0.08333) O41(0.02) C1AA(0.48) H1AA(0.48) C0AA(0.48) H0AA(0.48)
 Fixed Uiso: H2(0.05) O41(0.03)
 Fixed X: H2(1.069201)
 Fixed Y: H2(0.569201)
 Fixed Z: H2(0.569201)
5.a Aromatic/amide H refined with riding coordinates:
 C1AA(H1AA), C0AA(H0AA)
;
_shelx_fab_file
;
 1 1 1 -1345.50 0.00
 0 0 2 -397.74 0.00
 0 2 2 621.78 0.00
 2 2 2 -660.22 0.00
 1 1 3 87.62 0.00
 1 3 3 288.17 0.00
 3 3 3 -105.75 0.00
 0 0 4 -684.30 0.00
 0 2 4 248.04 0.00
 2 2 4 -184.06 0.00
 0 4 4 223.35 0.00
 2 4 4 -28.67 0.00
 4 4 4 66.46 0.00
 1 1 5 -96.35 0.00
 1 3 5 -93.59 0.00
 3 3 5 17.03 0.00
 1 5 5 42.42 0.00
 3 5 5 -1.84 0.00
 5 5 5 -20.72 0.00
 0 0 6 255.82 0.00
 0 2 6 -19.79 0.00
 2 2 6 86.68 0.00
 0 4 6 -5.83 0.00
 2 4 6 -5.88 0.00
 4 4 6 -54.28 0.00
 0 6 6 50.00 0.00
 2 6 6 -115.86 0.00
 4 6 6 44.39 0.00
 6 6 6 67.73 0.00
 1 1 7 -1.65 0.00
 1 3 7 -13.50 0.00
 3 3 7 69.84 0.00
 1 5 7 30.30 0.00
 3 5 7 -24.18 0.00
 5 5 7 -9.58 0.00
 1 7 7 -18.16 0.00
 3 7 7 -23.07 0.00
 5 7 7 26.62 0.00
 7 7 7 23.02 0.00
 0 0 8 138.87 0.00
 0 2 8 -47.05 0.00
 2 2 8 -3.74 0.00
 0 4 8 -79.39 0.00
 2 4 8 -20.31 0.00
 4 4 8 84.75 0.00
 0 6 8 -18.79 0.00
 2 6 8 -5.40 0.00
 4 6 8 13.20 0.00
 6 6 8 -35.69 0.00
 0 8 8 85.83 0.00
 2 8 8 -13.27 0.00
 4 8 8 -31.06 0.00
 6 8 8 -33.39 0.00
 8 8 8 -29.50 0.00
 1 1 9 53.30 0.00
 1 3 9 -26.00 0.00
 3 3 9 32.18 0.00
 1 5 9 30.92 0.00
 3 5 9 35.02 0.00
 5 5 9 -3.72 0.00
 1 7 9 18.05 0.00
 3 7 9 29.46 0.00
 5 7 9 -17.57 0.00
 7 7 9 21.68 0.00
 1 9 9 5.84 0.00
 3 9 9 -47.01 0.00
 5 9 9 -11.14 0.00
 7 9 9 35.40 0.00
 9 9 9 45.42 0.00
 0 0 10 12.03 0.00
 0 2 10 10.72 0.00
 2 2 10 -23.05 0.00
 0 4 10 -26.33 0.00
 2 4 10 -23.72 0.00
 4 4 10 61.03 0.00
 0 6 10 -73.60 0.00
 2 6 10 9.16 0.00
 4 6 10 6.03 0.00
 6 6 10 -46.06 0.00
 0 8 10 23.33 0.00
 2 8 10 2.32 0.00
 4 8 10 -18.57 0.00
 6 8 10 14.62 0.00
 8 8 10 23.83 0.00
 0 10 10 45.25 0.00
 2 10 10 -27.26 0.00
 4 10 10 -11.65 0.00
 6 10 10 -9.04 0.00
 8 10 10 -30.53 0.00
 10 10 10 37.65 0.00
 1 1 11 8.01 0.00
 1 3 11 -13.97 0.00
 3 3 11 -21.29 0.00
 1 5 11 6.54 0.00
 3 5 11 -9.57 0.00
 5 5 11 -5.42 0.00
 1 7 11 3.32 0.00
 3 7 11 -3.80 0.00
 5 7 11 -5.42 0.00
 7 7 11 -13.59 0.00
 1 9 11 -5.31 0.00
 3 9 11 11.33 0.00
 5 9 11 1.35 0.00
 7 9 11 9.63 0.00
 9 9 11 -16.02 0.00
 1 11 11 12.79 0.00
 3 11 11 30.33 0.00
 5 11 11 3.99 0.00
 7 11 11 9.26 0.00
 9 11 11 -13.54 0.00
 11 11 11 18.11 0.00
 0 0 12 -80.78 0.00
 0 2 12 6.13 0.00
 2 2 12 24.57 0.00
 0 4 12 43.02 0.00
 2 4 12 -5.93 0.00
 4 4 12 -10.11 0.00
 0 6 12 -10.45 0.00
 2 6 12 -6.80 0.00
 4 6 12 -4.70 0.00
 6 6 12 -11.60 0.00
 0 8 12 -3.09 0.00
 2 8 12 -11.10 0.00
 4 8 12 20.64 0.00
 6 8 12 40.43 0.00
 8 8 12 -18.18 0.00
 0 10 12 -12.10 0.00
 2 10 12 -7.05 0.00
 4 10 12 7.89 0.00
 6 10 12 -14.18 0.00
 8 10 12 -18.00 0.00
 10 10 12 9.59 0.00
 0 12 12 -4.36 0.00
 2 12 12 -14.27 0.00
 4 12 12 10.47 0.00
 6 12 12 13.03 0.00
 8 12 12 29.86 0.00
 10 12 12 19.30 0.00
 12 12 12 -28.01 0.00
 1 1 13 19.65 0.00
 1 3 13 -19.17 0.00
 3 3 13 21.60 0.00
 1 5 13 39.76 0.00
 3 5 13 -14.16 0.00
 5 5 13 -15.87 0.00
 1 7 13 -7.00 0.00
 3 7 13 -5.30 0.00
 5 7 13 17.31 0.00
 7 7 13 -20.62 0.00
 1 9 13 -20.53 0.00
 3 9 13 16.33 0.00
 5 9 13 -7.62 0.00
 7 9 13 -9.19 0.00
 9 9 13 -0.29 0.00
 1 11 13 -1.02 0.00
 3 11 13 -8.75 0.00
 5 11 13 -10.30 0.00
 7 11 13 -0.47 0.00
 9 11 13 -6.07 0.00
 11 11 13 -17.73 0.00
 1 13 13 18.34 0.00
 3 13 13 -6.63 0.00
 5 13 13 -14.83 0.00
 7 13 13 2.08 0.00
 9 13 13 1.30 0.00
 11 13 13 -4.99 0.00
 13 13 13 -45.69 0.00
 0 0 14 -121.39 0.00
 0 2 14 -21.99 0.00
 2 2 14 21.02 0.00
 0 4 14 50.69 0.00
 2 4 14 -2.11 0.00
 4 4 14 -41.42 0.00
 0 6 14 18.69 0.00
 2 6 14 -3.01 0.00
 4 6 14 5.61 0.00
 6 6 14 -24.22 0.00
 0 8 14 -23.95 0.00
 2 8 14 1.97 0.00
 4 8 14 35.86 0.00
 6 8 14 3.76 0.00
 8 8 14 -9.21 0.00
 0 10 14 -0.22 0.00
 2 10 14 3.28 0.00
 4 10 14 9.38 0.00
 6 10 14 8.44 0.00
 8 10 14 -7.71 0.00
 10 10 14 5.28 0.00
 0 12 14 17.60 0.00
 2 12 14 -4.15 0.00
 4 12 14 -10.78 0.00
 6 12 14 -0.57 0.00
 8 12 14 5.32 0.00
 10 12 14 6.66 0.00
 12 12 14 25.54 0.00
 0 14 14 22.46 0.00
 2 14 14 -9.31 0.00
 4 14 14 -11.86 0.00
 6 14 14 -9.63 0.00
 8 14 14 4.01 0.00
 10 14 14 1.35 0.00
 12 14 14 3.07 0.00
 14 14 14 0.08 0.00
 1 1 15 19.44 0.00
 1 3 15 1.86 0.00
 3 3 15 -4.15 0.00
 1 5 15 3.31 0.00
 3 5 15 -22.25 0.00
 5 5 15 17.42 0.00
 1 7 15 -2.95 0.00
 3 7 15 -4.66 0.00
 5 7 15 -0.39 0.00
 7 7 15 8.17 0.00
 1 9 15 -3.95 0.00
 3 9 15 11.01 0.00
 5 9 15 1.95 0.00
 7 9 15 -6.71 0.00
 9 9 15 -3.30 0.00
 1 11 15 2.40 0.00
 3 11 15 -0.42 0.00
 5 11 15 -1.01 0.00
 7 11 15 2.79 0.00
 9 11 15 -4.25 0.00
 11 11 15 -16.63 0.00
 1 13 15 8.07 0.00
 3 13 15 2.08 0.00
 5 13 15 -1.07 0.00
 7 13 15 2.22 0.00
 9 13 15 5.59 0.00
 11 13 15 6.80 0.00
 13 13 15 -11.27 0.00
 1 15 15 -11.40 0.00
 3 15 15 -10.00 0.00
 5 15 15 6.47 0.00
 7 15 15 -15.26 0.00
 9 15 15 3.77 0.00
 11 15 15 0.24 0.00
 13 15 15 2.44 0.00
 15 15 15 11.73 0.00
 0 0 16 -16.82 0.00
 0 2 16 -2.91 0.00
 2 2 16 6.18 0.00
 0 4 16 -7.32 0.00
 2 4 16 0.41 0.00
 4 4 16 3.29 0.00
 0 6 16 -1.79 0.00
 2 6 16 -8.05 0.00
 4 6 16 13.10 0.00
 6 6 16 -7.42 0.00
 0 8 16 4.93 0.00
 2 8 16 -2.72 0.00
 4 8 16 -4.17 0.00
 6 8 16 9.16 0.00
 8 8 16 0.27 0.00
 0 10 16 6.02 0.00
 2 10 16 -6.98 0.00
 4 10 16 -0.85 0.00
 6 10 16 11.91 0.00
 8 10 16 -3.93 0.00
 10 10 16 2.44 0.00
 0 12 16 -8.74 0.00
 2 12 16 -0.42 0.00
 4 12 16 4.58 0.00
 6 12 16 -12.06 0.00
 8 12 16 7.95 0.00
 10 12 16 6.33 0.00
 12 12 16 -14.22 0.00
 0 14 16 -9.71 0.00
 2 14 16 12.10 0.00
 4 14 16 2.43 0.00
 6 14 16 -2.26 0.00
 8 14 16 11.53 0.00
 10 14 16 -10.50 0.00
 12 14 16 -0.67 0.00
 14 14 16 -7.03 0.00
 0 16 16 9.09 0.00
 2 16 16 0.66 0.00
 4 16 16 -4.94 0.00
 6 16 16 -19.78 0.00
 8 16 16 -9.26 0.00
 10 16 16 4.87 0.00
 12 16 16 9.61 0.00
 14 16 16 -19.87 0.00
 16 16 16 -32.37 0.00
 1 1 17 2.96 0.00
 1 3 17 -8.85 0.00
 3 3 17 -2.32 0.00
 1 5 17 -15.01 0.00
 3 5 17 17.88 0.00
 5 5 17 0.89 0.00
 1 7 17 12.34 0.00
 3 7 17 -12.54 0.00
 5 7 17 -6.29 0.00
 7 7 17 -12.69 0.00
 1 9 17 2.52 0.00
 3 9 17 -9.25 0.00
 5 9 17 -9.69 0.00
 7 9 17 -1.00 0.00
 9 9 17 14.44 0.00
 1 11 17 -1.34 0.00
 3 11 17 3.98 0.00
 5 11 17 -8.31 0.00
 7 11 17 0.67 0.00
 9 11 17 -2.17 0.00
 11 11 17 -15.34 0.00
 1 13 17 -12.15 0.00
 3 13 17 9.66 0.00
 5 13 17 2.96 0.00
 7 13 17 -1.22 0.00
 9 13 17 -4.12 0.00
 11 13 17 18.81 0.00
 13 13 17 5.48 0.00
 1 15 17 -1.15 0.00
 3 15 17 1.91 0.00
 5 15 17 -1.50 0.00
 7 15 17 29.32 0.00
 9 15 17 -13.88 0.00
 11 15 17 -1.05 0.00
 13 15 17 -3.18 0.00
 15 15 17 40.11 0.00
 1 17 17 -4.05 0.00
 3 17 17 -6.58 0.00
 5 17 17 64.63 0.00
 7 17 17 -12.93 0.00
 9 17 17 20.33 0.00
 11 17 17 0.71 0.00
 13 17 17 3.53 0.00
 15 17 17 -5.54 0.00
 17 17 17 37.50 0.00
 0 0 18 33.06 0.00
 0 2 18 8.88 0.00
 2 2 18 -6.25 0.00
 0 4 18 -23.68 0.00
 2 4 18 -0.47 0.00
 4 4 18 25.82 0.00
 0 6 18 -7.74 0.00
 2 6 18 0.14 0.00
 4 6 18 1.34 0.00
 6 6 18 9.28 0.00
 0 8 18 15.10 0.00
 2 8 18 7.68 0.00
 4 8 18 -11.20 0.00
 6 8 18 -11.66 0.00
 8 8 18 11.06 0.00
 0 10 18 20.19 0.00
 2 10 18 -6.68 0.00
 4 10 18 -10.09 0.00
 6 10 18 1.12 0.00
 8 10 18 7.97 0.00
 10 10 18 13.98 0.00
 0 12 18 -4.02 0.00
 2 12 18 1.42 0.00
 4 12 18 5.54 0.00
 6 12 18 4.41 0.00
 8 12 18 -4.18 0.00
 10 12 18 -6.69 0.00
 12 12 18 -9.61 0.00
 0 14 18 -11.21 0.00
 2 14 18 0.88 0.00
 4 14 18 12.18 0.00
 6 14 18 4.53 0.00
 8 14 18 -13.12 0.00
 10 14 18 -11.56 0.00
 12 14 18 14.99 0.00
 14 14 18 2.99 0.00
 0 16 18 3.03 0.00
 2 16 18 4.70 0.00
 4 16 18 -13.48 0.00
 6 16 18 -6.16 0.00
 8 16 18 -14.32 0.00
 10 16 18 -5.04 0.00
 12 16 18 0.26 0.00
 14 16 18 -10.83 0.00
 16 16 18 17.62 0.00
 0 18 18 8.91 0.00
 2 18 18 3.59 0.00
 4 18 18 -30.85 0.00
 6 18 18 -6.74 0.00
 8 18 18 20.82 0.00
 10 18 18 6.53 0.00
 12 18 18 -4.90 0.00
 14 18 18 -8.95 0.00
 16 18 18 -15.86 0.00
 18 18 18 -11.94 0.00
 1 1 19 20.72 0.00
 1 3 19 -3.61 0.00
 3 3 19 -0.15 0.00
 1 5 19 -10.88 0.00
 3 5 19 21.02 0.00
 5 5 19 -0.73 0.00
 1 7 19 6.81 0.00
 3 7 19 -3.45 0.00
 5 7 19 -0.09 0.00
 7 7 19 7.31 0.00
 1 9 19 5.72 0.00
 3 9 19 -4.45 0.00
 5 9 19 -8.94 0.00
 7 9 19 3.84 0.00
 9 9 19 23.10 0.00
 1 11 19 8.96 0.00
 3 11 19 -5.48 0.00
 5 11 19 -1.73 0.00
 7 11 19 -0.52 0.00
 9 11 19 -11.11 0.00
 11 11 19 5.34 0.00
 1 13 19 -16.24 0.00
 3 13 19 4.17 0.00
 5 13 19 9.13 0.00
 7 13 19 1.38 0.00
 9 13 19 -14.46 0.00
 11 13 19 1.08 0.00
 13 13 19 -1.77 0.00
 1 15 19 -15.29 0.00
 3 15 19 8.66 0.00
 5 15 19 4.42 0.00
 7 15 19 -13.23 0.00
 9 15 19 5.38 0.00
 11 15 19 -10.10 0.00
 13 15 19 1.72 0.00
 15 15 19 -4.71 0.00
 1 17 19 14.97 0.00
 3 17 19 -2.71 0.00
 5 17 19 -26.06 0.00
 7 17 19 1.66 0.00
 9 17 19 6.32 0.00
 11 17 19 2.83 0.00
 13 17 19 -8.94 0.00
 15 17 19 -8.16 0.00
 17 17 19 6.22 0.00
 1 19 19 0.11 0.00
 3 19 19 -1.95 0.00
 5 19 19 6.66 0.00
 7 19 19 9.80 0.00
 9 19 19 6.63 0.00
 11 19 19 9.58 0.00
 13 19 19 -4.27 0.00
 15 19 19 -1.20 0.00
 17 19 19 10.03 0.00
 19 19 19 -3.55 0.00
 0 0 20 -4.33 0.00
 0 2 20 0.60 0.00
 2 2 20 -8.43 0.00
 0 4 20 -8.76 0.00
 2 4 20 3.28 0.00
 4 4 20 4.31 0.00
 0 6 20 -1.61 0.00
 2 6 20 0.08 0.00
 4 6 20 3.53 0.00
 6 6 20 -5.04 0.00
 0 8 20 -0.81 0.00
 2 8 20 0.11 0.00
 4 8 20 2.05 0.00
 6 8 20 -5.98 0.00
 8 8 20 16.10 0.00
 0 10 20 4.77 0.00
 2 10 20 2.53 0.00
 4 10 20 -2.76 0.00
 6 10 20 1.97 0.00
 8 10 20 -9.05 0.00
 10 10 20 22.35 0.00
 0 12 20 4.63 0.00
 2 12 20 2.61 0.00
 4 12 20 3.47 0.00
 6 12 20 0.07 0.00
 8 12 20 -4.81 0.00
 10 12 20 -5.41 0.00
 12 12 20 7.89 0.00
 0 14 20 -0.57 0.00
 2 14 20 0.99 0.00
 4 14 20 3.35 0.00
 6 14 20 3.78 0.00
 8 14 20 3.93 0.00
 10 14 20 7.68 0.00
 12 14 20 6.21 0.00
 14 14 20 -0.95 0.00
 0 16 20 0.40 0.00
 2 16 20 6.75 0.00
 4 16 20 -6.65 0.00
 6 16 20 22.14 0.00
 8 16 20 -0.18 0.00
 10 16 20 2.44 0.00
 12 16 20 8.78 0.00
 14 16 20 2.90 0.00
 16 16 20 10.91 0.00
 0 18 20 2.37 0.00
 2 18 20 1.41 0.00
 4 18 20 0.12 0.00
 6 18 20 -3.25 0.00
 8 18 20 -3.89 0.00
 10 18 20 -1.28 0.00
 12 18 20 6.61 0.00
 14 18 20 3.25 0.00
 16 18 20 -1.64 0.00
 18 18 20 -15.02 0.00
 0 20 20 27.74 0.00
 2 20 20 1.65 0.00
 4 20 20 10.40 0.00
 6 20 20 6.78 0.00
 8 20 20 -10.46 0.00
 10 20 20 -30.29 0.00
 12 20 20 -4.73 0.00
 14 20 20 -6.63 0.00
 16 20 20 3.40 0.00
 1 1 21 -14.16 0.00
 1 3 21 5.82 0.00
 3 3 21 -15.90 0.00
 1 5 21 1.97 0.00
 3 5 21 -4.25 0.00
 5 5 21 -9.07 0.00
 1 7 21 -3.88 0.00
 3 7 21 1.37 0.00
 5 7 21 4.76 0.00
 7 7 21 7.43 0.00
 1 9 21 -7.43 0.00
 3 9 21 5.73 0.00
 5 9 21 3.49 0.00
 7 9 21 -12.77 0.00
 9 9 21 -3.02 0.00
 1 11 21 -7.24 0.00
 3 11 21 2.97 0.00
 5 11 21 2.61 0.00
 7 11 21 6.35 0.00
 9 11 21 -10.35 0.00
 11 11 21 3.08 0.00
 1 13 21 3.67 0.00
 3 13 21 -2.14 0.00
 5 13 21 -5.51 0.00
 7 13 21 6.54 0.00
 9 13 21 4.48 0.00
 11 13 21 -8.45 0.00
 13 13 21 0.07 0.00
 1 15 21 6.62 0.00
 3 15 21 -7.53 0.00
 5 15 21 -4.29 0.00
 7 15 21 -1.73 0.00
 9 15 21 2.28 0.00
 11 15 21 1.59 0.00
 13 15 21 -6.85 0.00
 15 15 21 6.49 0.00
 1 17 21 -5.02 0.00
 3 17 21 7.33 0.00
 5 17 21 -9.90 0.00
 7 17 21 -0.95 0.00
 9 17 21 -3.40 0.00
 11 17 21 -6.78 0.00
 13 17 21 2.89 0.00
 15 17 21 -1.92 0.00
 17 17 21 -5.73 0.00
 1 19 21 -27.22 0.00
 3 19 21 5.38 0.00
 5 19 21 11.58 0.00
 7 19 21 -1.26 0.00
 9 19 21 4.29 0.00
 11 19 21 5.39 0.00
 13 19 21 4.74 0.00
 15 19 21 7.17 0.00
 17 19 21 8.92 0.00
 1 21 21 -16.10 0.00
 3 21 21 -18.18 0.00
 5 21 21 -11.12 0.00
 7 21 21 -0.30 0.00
 9 21 21 3.33 0.00
 11 21 21 -8.09 0.00
 13 21 21 -18.22 0.00
 15 21 21 15.38 0.00
 0 0 22 -36.88 0.00
 0 2 22 13.84 0.00
 2 2 22 0.15 0.00
 0 4 22 18.90 0.00
 2 4 22 4.28 0.00
 4 4 22 -22.92 0.00
 0 6 22 8.95 0.00
 2 6 22 -6.30 0.00
 4 6 22 -9.39 0.00
 6 6 22 -0.04 0.00
 0 8 22 -12.12 0.00
 2 8 22 -4.00 0.00
 4 8 22 8.67 0.00
 6 8 22 4.91 0.00
 8 8 22 -7.00 0.00
 0 10 22 -3.11 0.00
 2 10 22 -7.84 0.00
 4 10 22 11.07 0.00
 6 10 22 3.65 0.00
 8 10 22 -6.50 0.00
 10 10 22 -0.95 0.00
 0 12 22 -0.47 0.00
 2 12 22 3.74 0.00
 4 12 22 -6.54 0.00
 6 12 22 -5.63 0.00
 8 12 22 -2.15 0.00
 10 12 22 21.28 0.00
 12 12 22 -7.08 0.00
 0 14 22 12.19 0.00
 2 14 22 1.29 0.00
 4 14 22 -17.53 0.00
 6 14 22 0.00 0.00
 8 14 22 6.17 0.00
 10 14 22 6.18 0.00
 12 14 22 -0.36 0.00
 14 14 22 -5.55 0.00
 0 16 22 3.11 0.00
 2 16 22 -3.07 0.00
 4 16 22 -3.56 0.00
 6 16 22 -3.54 0.00
 8 16 22 8.88 0.00
 10 16 22 0.27 0.00
 12 16 22 3.99 0.00
 14 16 22 -15.70 0.00
 16 16 22 1.05 0.00
 0 18 22 -7.43 0.00
 2 18 22 1.22 0.00
 4 18 22 11.84 0.00
 6 18 22 -3.66 0.00
 8 18 22 -4.55 0.00
 10 18 22 -2.45 0.00
 12 18 22 0.91 0.00
 14 18 22 4.16 0.00
 16 18 22 -3.77 0.00
 0 20 22 16.10 0.00
 2 20 22 12.11 0.00
 4 20 22 0.64 0.00
 6 20 22 -0.90 0.00
 8 20 22 4.17 0.00
 10 20 22 3.81 0.00
 12 20 22 -11.29 0.00
 14 20 22 11.76 0.00
 0 22 22 0.76 0.00
 2 22 22 9.92 0.00
 4 22 22 -14.71 0.00
 6 22 22 -1.64 0.00
 8 22 22 -4.71 0.00
 10 22 22 -31.97 0.00
 1 1 23 -12.97 0.00
 1 3 23 8.09 0.00
 3 3 23 -1.71 0.00
 1 5 23 6.01 0.00
 3 5 23 -3.55 0.00
 5 5 23 -7.84 0.00
 1 7 23 -0.07 0.00
 3 7 23 2.92 0.00
 5 7 23 3.83 0.00
 7 7 23 1.89 0.00
 1 9 23 -3.64 0.00
 3 9 23 8.45 0.00
 5 9 23 -2.14 0.00
 7 9 23 -2.06 0.00
 9 9 23 -4.37 0.00
 1 11 23 -1.99 0.00
 3 11 23 7.08 0.00
 5 11 23 -3.10 0.00
 7 11 23 0.59 0.00
 9 11 23 3.45 0.00
 11 11 23 -3.92 0.00
 1 13 23 8.06 0.00
 3 13 23 -9.14 0.00
 5 13 23 -2.84 0.00
 7 13 23 9.58 0.00
 9 13 23 -16.60 0.00
 11 13 23 -7.53 0.00
 13 13 23 -7.96 0.00
 1 15 23 2.34 0.00
 3 15 23 9.13 0.00
 5 15 23 -1.17 0.00
 7 15 23 -6.55 0.00
 9 15 23 3.29 0.00
 11 15 23 -4.09 0.00
 13 15 23 -2.60 0.00
 15 15 23 10.14 0.00
 1 17 23 -0.10 0.00
 3 17 23 4.93 0.00
 5 17 23 3.91 0.00
 7 17 23 -2.56 0.00
 9 17 23 -3.40 0.00
 11 17 23 -10.17 0.00
 13 17 23 8.16 0.00
 15 17 23 1.66 0.00
 17 17 23 -16.85 0.00
 1 19 23 -2.71 0.00
 3 19 23 -2.33 0.00
 5 19 23 11.71 0.00
 7 19 23 -6.06 0.00
 9 19 23 -2.46 0.00
 11 19 23 -2.14 0.00
 13 19 23 0.09 0.00
 15 19 23 -0.06 0.00
 1 21 23 7.61 0.00
 3 21 23 2.03 0.00
 5 21 23 -8.69 0.00
 7 21 23 11.19 0.00
 9 21 23 9.20 0.00
 11 21 23 21.49 0.00
 7 23 23 6.74 0.00
 0 0 24 -15.68 0.00
 0 2 24 2.26 0.00
 2 2 24 -0.27 0.00
 0 4 24 12.23 0.00
 2 4 24 2.88 0.00
 4 4 24 -7.80 0.00
 0 6 24 1.74 0.00
 2 6 24 5.26 0.00
 4 6 24 2.00 0.00
 6 6 24 1.15 0.00
 0 8 24 3.43 0.00
 2 8 24 -1.80 0.00
 4 8 24 7.61 0.00
 6 8 24 2.17 0.00
 8 8 24 -13.50 0.00
 0 10 24 -7.30 0.00
 2 10 24 -3.05 0.00
 4 10 24 2.17 0.00
 6 10 24 3.29 0.00
 8 10 24 2.48 0.00
 10 10 24 -16.90 0.00
 0 12 24 1.03 0.00
 2 12 24 -0.66 0.00
 4 12 24 2.17 0.00
 6 12 24 -4.18 0.00
 8 12 24 3.05 0.00
 10 12 24 13.05 0.00
 12 12 24 -0.40 0.00
 0 14 24 0.05 0.00
 2 14 24 -3.41 0.00
 4 14 24 2.62 0.00
 6 14 24 5.85 0.00
 8 14 24 -4.98 0.00
 10 14 24 6.71 0.00
 12 14 24 -0.68 0.00
 14 14 24 19.22 0.00
 0 16 24 -9.74 0.00
 2 16 24 -0.97 0.00
 4 16 24 0.11 0.00
 6 16 24 7.36 0.00
 8 16 24 -2.65 0.00
 10 16 24 -3.09 0.00
 12 16 24 1.05 0.00
 14 16 24 6.96 0.00
 16 16 24 -3.91 0.00
 0 18 24 -7.67 0.00
 2 18 24 8.64 0.00
 4 18 24 -0.22 0.00
 6 18 24 7.84 0.00
 8 18 24 -1.87 0.00
 10 18 24 8.17 0.00
 12 18 24 4.31 0.00
 14 18 24 -2.21 0.00
 0 20 24 -9.53 0.00
 2 20 24 3.66 0.00
 4 20 24 3.35 0.00
 6 20 24 -7.53 0.00
 8 20 24 -0.40 0.00
 10 20 24 -20.27 0.00
 4 22 24 34.50 0.00
 6 22 24 34.94 0.00
 1 1 25 6.96 0.00
 1 3 25 -5.91 0.00
 3 3 25 10.84 0.00
 1 5 25 -6.19 0.00
 3 5 25 -4.18 0.00
 5 5 25 7.89 0.00
 1 7 25 3.61 0.00
 3 7 25 -0.99 0.00
 5 7 25 -2.91 0.00
 7 7 25 -1.69 0.00
 1 9 25 2.00 0.00
 3 9 25 -5.66 0.00
 5 9 25 -0.28 0.00
 7 9 25 2.36 0.00
 9 9 25 -3.55 0.00
 1 11 25 0.50 0.00
 3 11 25 4.09 0.00
 5 11 25 -1.40 0.00
 7 11 25 8.18 0.00
 9 11 25 5.26 0.00
 11 11 25 -9.67 0.00
 1 13 25 0.93 0.00
 3 13 25 -5.38 0.00
 5 13 25 -4.79 0.00
 7 13 25 -3.24 0.00
 9 13 25 -1.74 0.00
 11 13 25 2.19 0.00
 13 13 25 -1.88 0.00
 1 15 25 2.38 0.00
 3 15 25 2.46 0.00
 5 15 25 -5.74 0.00
 7 15 25 6.82 0.00
 9 15 25 5.51 0.00
 11 15 25 -5.57 0.00
 13 15 25 -5.45 0.00
 15 15 25 -0.12 0.00
 1 17 25 -8.02 0.00
 3 17 25 0.29 0.00
 5 17 25 -5.51 0.00
 7 17 25 4.88 0.00
 9 17 25 2.82 0.00
 11 17 25 -3.31 0.00
 13 17 25 -1.96 0.00
 1 19 25 -0.87 0.00
 3 19 25 -10.20 0.00
 5 19 25 -7.50 0.00
 7 19 25 -0.94 0.00
 9 19 25 3.96 0.00
 11 19 25 -4.22 0.00
 5 21 25 -22.34 0.00
 7 21 25 -8.67 0.00
 0 0 26 21.05 0.00
 0 2 26 -13.43 0.00
 2 2 26 11.03 0.00
 0 4 26 -11.29 0.00
 2 4 26 -4.95 0.00
 4 4 26 13.98 0.00
 0 6 26 -9.15 0.00
 2 6 26 -3.31 0.00
 4 6 26 -4.10 0.00
 6 6 26 5.14 0.00
 0 8 26 9.02 0.00
 2 8 26 1.85 0.00
 4 8 26 -4.20 0.00
 6 8 26 3.46 0.00
 8 8 26 3.74 0.00
 0 10 26 -1.83 0.00
 2 10 26 -1.51 0.00
 4 10 26 -6.11 0.00
 6 10 26 -1.70 0.00
 8 10 26 5.54 0.00
 10 10 26 -1.91 0.00
 0 12 26 7.28 0.00
 2 12 26 0.59 0.00
 4 12 26 7.37 0.00
 6 12 26 2.11 0.00
 8 12 26 -13.80 0.00
 10 12 26 7.95 0.00
 12 12 26 -4.75 0.00
 0 14 26 -10.62 0.00
 2 14 26 1.53 0.00
 4 14 26 -3.38 0.00
 6 14 26 -4.06 0.00
 8 14 26 -3.99 0.00
 10 14 26 9.24 0.00
 12 14 26 -1.76 0.00
 14 14 26 4.43 0.00
 0 16 26 6.26 0.00
 2 16 26 -0.22 0.00
 4 16 26 -15.91 0.00
 6 16 26 -13.45 0.00
 8 16 26 -4.80 0.00
 10 16 26 2.59 0.00
 12 16 26 10.32 0.00
 0 18 26 -9.43 0.00
 2 18 26 -0.33 0.00
 4 18 26 -8.78 0.00
 6 18 26 10.75 0.00
 8 18 26 -0.09 0.00
 10 18 26 -19.56 0.00
 6 20 26 -16.38 0.00
 1 1 27 7.62 0.00
 1 3 27 -9.30 0.00
 3 3 27 2.10 0.00
 1 5 27 -3.55 0.00
 3 5 27 5.96 0.00
 5 5 27 5.50 0.00
 1 7 27 2.71 0.00
 3 7 27 0.69 0.00
 5 7 27 -12.13 0.00
 7 7 27 -0.32 0.00
 1 9 27 1.90 0.00
 3 9 27 -7.41 0.00
 5 9 27 -5.49 0.00
 7 9 27 3.04 0.00
 9 9 27 0.82 0.00
 1 11 27 3.02 0.00
 3 11 27 -0.72 0.00
 5 11 27 0.16 0.00
 7 11 27 1.02 0.00
 9 11 27 -0.43 0.00
 11 11 27 -3.73 0.00
 1 13 27 -0.93 0.00
 3 13 27 1.80 0.00
 5 13 27 4.99 0.00
 7 13 27 4.88 0.00
 9 13 27 0.16 0.00
 11 13 27 -0.43 0.00
 13 13 27 8.75 0.00
 1 15 27 -1.85 0.00
 3 15 27 29.24 0.00
 5 15 27 10.99 0.00
 7 15 27 -5.24 0.00
 9 15 27 -0.03 0.00
 11 15 27 -6.23 0.00
 1 17 27 -5.79 0.00
 3 17 27 13.68 0.00
 5 17 27 51.34 0.00
 7 17 27 4.35 0.00
 9 17 27 -1.56 0.00
 5 19 27 -24.80 0.00
 0 0 28 25.56 0.00
 0 2 28 -7.55 0.00
 2 2 28 9.29 0.00
 0 4 28 -7.63 0.00
 2 4 28 -3.94 0.00
 4 4 28 3.74 0.00
 0 6 28 1.28 0.00
 2 6 28 2.06 0.00
 4 6 28 7.11 0.00
 6 6 28 -3.62 0.00
 0 8 28 7.92 0.00
 2 8 28 2.65 0.00
 4 8 28 2.71 0.00
 6 8 28 -6.14 0.00
 8 8 28 -1.44 0.00
 0 10 28 -6.80 0.00
 2 10 28 9.09 0.00
 4 10 28 -6.34 0.00
 6 10 28 -0.12 0.00
 8 10 28 -4.84 0.00
 10 10 28 -9.01 0.00
 0 12 28 -2.24 0.00
 2 12 28 -5.38 0.00
 4 12 28 -2.20 0.00
 6 12 28 6.20 0.00
 8 12 28 -0.33 0.00
 10 12 28 -0.73 0.00
 12 12 28 -16.58 0.00
 0 14 28 -7.53 0.00
 2 14 28 -3.18 0.00
 4 14 28 -10.35 0.00
 6 14 28 2.62 0.00
 8 14 28 2.08 0.00
 10 14 28 -1.04 0.00
 0 16 28 2.33 0.00
 2 16 28 -3.10 0.00
 4 16 28 -7.05 0.00
 6 16 28 12.33 0.00
 8 16 28 -11.90 0.00
 1 1 29 -5.18 0.00
 1 3 29 14.49 0.00
 3 3 29 3.85 0.00
 1 5 29 -0.40 0.00
 3 5 29 -0.98 0.00
 5 5 29 6.23 0.00
 1 7 29 -6.92 0.00
 3 7 29 5.32 0.00
 5 7 29 2.27 0.00
 7 7 29 9.19 0.00
 1 9 29 1.98 0.00
 3 9 29 -4.73 0.00
 5 9 29 -3.04 0.00
 7 9 29 2.27 0.00
 9 9 29 15.50 0.00
 1 11 29 -0.87 0.00
 3 11 29 -1.37 0.00
 5 11 29 2.71 0.00
 7 11 29 -0.99 0.00
 9 11 29 4.30 0.00
 11 11 29 -1.19 0.00
 1 13 29 11.00 0.00
 3 13 29 -5.22 0.00
 5 13 29 -4.35 0.00
 7 13 29 -0.75 0.00
 9 13 29 6.13 0.00
 1 15 29 -26.93 0.00
 3 15 29 -13.58 0.00
 5 15 29 -6.48 0.00
 7 15 29 -18.63 0.00
 0 0 30 -1.90 0.00
 0 2 30 -0.50 0.00
 2 2 30 -0.21 0.00
 0 4 30 -2.47 0.00
 2 4 30 -4.31 0.00
 4 4 30 -10.44 0.00
 0 6 30 10.19 0.00
 2 6 30 -4.81 0.00
 4 6 30 -1.29 0.00
 6 6 30 9.70 0.00
 0 8 30 0.06 0.00
 2 8 30 -1.93 0.00
 4 8 30 -2.44 0.00
 6 8 30 5.55 0.00
 8 8 30 -8.95 0.00
 0 10 30 -1.28 0.00
 2 10 30 1.90 0.00
 4 10 30 12.09 0.00
 6 10 30 -5.33 0.00
 8 10 30 1.28 0.00
 10 10 30 6.96 0.00
 0 12 30 -25.38 0.00
 2 12 30 12.33 0.00
 4 12 30 1.54 0.00
 6 12 30 -20.05 0.00
 8 12 30 12.28 0.00
 0 14 30 16.94 0.00
 2 14 30 7.81 0.00
 4 14 30 15.39 0.00
 1 1 31 -13.06 0.00
 1 3 31 1.37 0.00
 3 3 31 -0.32 0.00
 1 5 31 4.93 0.00
 3 5 31 -7.93 0.00
 5 5 31 -0.89 0.00
 1 7 31 -1.13 0.00
 3 7 31 4.41 0.00
 5 7 31 -1.83 0.00
 7 7 31 -8.14 0.00
 1 9 31 -9.01 0.00
 3 9 31 5.76 0.00
 5 9 31 -12.91 0.00
 7 9 31 15.57 0.00
 1 11 31 -1.35 0.00
 3 11 31 6.89 0.00
 5 11 31 5.43 0.00
 0 0 32 -5.49 0.00
 0 2 32 -8.31 0.00
 2 2 32 6.08 0.00
 0 4 32 3.01 0.00
 2 4 32 6.36 0.00
 4 4 32 -14.88 0.00
 0 6 32 -3.87 0.00
 2 6 32 0.02 0.00
 4 6 32 -9.19 0.00
 6 6 32 -2.80 0.00
 0 8 32 1.47 0.00
 2 8 32 4.69 0.00
 4 8 32 -2.40 0.00
 1 1 33 5.34 0.00
 1 3 33 0.92 0.00
 3 3 33 -10.46 0.00
 1 5 33 24.84 0.00
 18 20 20 11.17 0.00
 20 20 20 -7.68 0.00
 19 19 21 1.47 0.00
 17 21 21 9.55 0.00
 18 18 22 -10.94 0.00
 16 20 22 -8.10 0.00
 18 20 22 -4.28 0.00
 12 22 22 50.30 0.00
 14 22 22 -10.26 0.00
 16 22 22 -7.19 0.00
 17 19 23 0.75 0.00
 13 21 23 -19.74 0.00
 15 21 23 -8.42 0.00
 1 23 23 28.47 0.00
 3 23 23 14.54 0.00
 5 23 23 -58.01 0.00
 9 23 23 53.75 0.00
 11 23 23 21.18 0.00
 13 23 23 -7.46 0.00
 16 18 24 23.13 0.00
 18 18 24 -4.35 0.00
 12 20 24 27.29 0.00
 14 20 24 -0.44 0.00
 0 22 24 -11.67 0.00
 2 22 24 -46.87 0.00
 8 22 24 -24.58 0.00
 10 22 24 -25.28 0.00
 12 22 24 -20.13 0.00
 0 24 24 10.86 0.00
 2 24 24 6.82 0.00
 4 24 24 3.87 0.00
 6 24 24 7.46 0.00
 8 24 24 2.37 0.00
 15 17 25 0.01 0.00
 17 17 25 -10.09 0.00
 13 19 25 -8.74 0.00
 15 19 25 -10.02 0.00
 1 21 25 18.03 0.00
 3 21 25 3.32 0.00
 9 21 25 14.89 0.00
 11 21 25 5.01 0.00
 1 23 25 -1.37 0.00
 3 23 25 -1.99 0.00
 5 23 25 -12.03 0.00
 7 23 25 -4.37 0.00
 14 16 26 -9.30 0.00
 16 16 26 -3.59 0.00
 12 18 26 5.05 0.00
 14 18 26 -5.27 0.00
 0 20 26 1.36 0.00
 2 20 26 -2.58 0.00
 4 20 26 7.91 0.00
 8 20 26 -3.63 0.00
 10 20 26 17.72 0.00
 12 20 26 -0.19 0.00
 0 22 26 -3.11 0.00
 2 22 26 -6.82 0.00
 4 22 26 12.97 0.00
 6 22 26 10.59 0.00
 8 22 26 -11.62 0.00
 13 15 27 -3.97 0.00
 15 15 27 3.92 0.00
 11 17 27 -0.27 0.00
 13 17 27 2.44 0.00
 1 19 27 36.58 0.00
 3 19 27 -7.67 0.00
 7 19 27 26.46 0.00
 9 19 27 10.24 0.00
 11 19 27 4.30 0.00
 1 21 27 -4.39 0.00
 3 21 27 3.89 0.00
 5 21 27 9.75 0.00
 7 21 27 2.43 0.00
 12 14 28 1.52 0.00
 14 14 28 -3.70 0.00
 10 16 28 -8.21 0.00
 12 16 28 7.85 0.00
 0 18 28 0.37 0.00
 2 18 28 -6.37 0.00
 4 18 28 -6.75 0.00
 6 18 28 -41.49 0.00
 8 18 28 -3.40 0.00
 10 18 28 3.15 0.00
 0 20 28 -17.25 0.00
 2 20 28 1.23 0.00
 4 20 28 -6.04 0.00
 6 20 28 11.17 0.00
 11 13 29 3.90 0.00
 13 13 29 2.39 0.00
 9 15 29 -1.67 0.00
 11 15 29 9.62 0.00
 1 17 29 4.67 0.00
 3 17 29 -3.50 0.00
 5 17 29 -33.88 0.00
 7 17 29 -0.88 0.00
 9 17 29 18.45 0.00
 1 19 29 -15.99 0.00
 3 19 29 -6.30 0.00
 5 19 29 34.46 0.00
 10 12 30 -9.02 0.00
 12 12 30 18.58 0.00
 6 14 30 17.40 0.00
 8 14 30 -9.15 0.00
 10 14 30 -7.23 0.00
 0 16 30 57.27 0.00
 2 16 30 22.60 0.00
 4 16 30 1.53 0.00
 6 16 30 26.25 0.00
 8 16 30 9.87 0.00
 0 18 30 -8.27 0.00
 2 18 30 3.71 0.00
 9 9 31 -7.54 0.00
 7 11 31 -5.24 0.00
 9 11 31 -13.94 0.00
 11 11 31 6.05 0.00
 1 13 31 0.49 0.00
 3 13 31 4.16 0.00
 5 13 31 15.33 0.00
 7 13 31 2.63 0.00
 9 13 31 -0.14 0.00
 1 15 31 -15.84 0.00
 3 15 31 -23.90 0.00
 5 15 31 -13.96 0.00
 6 8 32 -1.01 0.00
 8 8 32 -18.55 0.00
 0 10 32 26.54 0.00
 2 10 32 -15.19 0.00
 4 10 32 5.12 0.00
 6 10 32 3.62 0.00
 8 10 32 2.53 0.00
 10 10 32 7.60 0.00
 0 12 32 6.55 0.00
 2 12 32 -14.05 0.00
 4 12 32 -6.20 0.00
 6 12 32 -7.31 0.00
 0 14 32 -8.22 0.00
 2 14 32 4.56 0.00
 3 5 33 10.41 0.00
 5 5 33 -17.40 0.00
 1 7 33 -10.85 0.00
 3 7 33 22.06 0.00
 5 7 33 2.68 0.00
 7 7 33 19.95 0.00
 1 9 33 -18.89 0.00
 3 9 33 11.85 0.00
 5 9 33 0.77 0.00
 7 9 33 -4.48 0.00
 1 11 33 8.95 0.00
 3 11 33 -12.74 0.00
 0 0 34 -0.48 0.00
 0 2 34 21.36 0.00
 2 2 34 -1.49 0.00
 0 4 34 -49.31 0.00
 2 4 34 -0.43 0.00
 4 4 34 20.05 0.00
 0 6 34 -17.48 0.00
 2 6 34 -7.23 0.00
 4 6 34 -1.47 0.00
 6 6 34 3.94 0.00
 0 8 34 30.92 0.00
 2 8 34 -12.74 0.00
 0 0 0 0.00 0.00
# SQUEEZE RESULTS (Version = 91117)
# Note: Data are Listed for all Voids in the P1 Unit Cell
# i.e. Centre of Gravity, Solvent Accessible Volume,
# Recovered number of Electrons in the Void and
# Details about the Squeezed Material
;
_platon_squeeze_void_probe_radius 1.20
_olex2_submission_original_sample_id UiO-67_4defect_260K1
_olex2_submission_special_instructions 'No special instructions were received'
loop_
_space_group_symop_operation_xyz
'x, y, z'
'-x, -y, z'
'-x, y, -z'
'x, -y, -z'
'z, x, y'
'z, -x, -y'
'-z, -x, y'
'-z, x, -y'
'y, z, x'
'-y, z, -x'
'y, -z, -x'
'-y, -z, x'
'y, x, -z'
'-y, -x, -z'
'y, -x, z'
'-y, x, z'
'x, z, -y'
'-x, z, y'
'-x, -z, -y'
'x, -z, y'
'z, y, -x'
'z, -y, x'
'-z, y, x'
'-z, -y, -x'
'x, y+1/2, z+1/2'
'-x, -y+1/2, z+1/2'
'-x, y+1/2, -z+1/2'
'x, -y+1/2, -z+1/2'
'z, x+1/2, y+1/2'
'z, -x+1/2, -y+1/2'
'-z, -x+1/2, y+1/2'
'-z, x+1/2, -y+1/2'
'y, z+1/2, x+1/2'
'-y, z+1/2, -x+1/2'
'y, -z+1/2, -x+1/2'
'-y, -z+1/2, x+1/2'
'y, x+1/2, -z+1/2'
'-y, -x+1/2, -z+1/2'
'y, -x+1/2, z+1/2'
'-y, x+1/2, z+1/2'
'x, z+1/2, -y+1/2'
'-x, z+1/2, y+1/2'
'-x, -z+1/2, -y+1/2'
'x, -z+1/2, y+1/2'
'z, y+1/2, -x+1/2'
'z, -y+1/2, x+1/2'
'-z, y+1/2, x+1/2'
'-z, -y+1/2, -x+1/2'
'x+1/2, y, z+1/2'
'-x+1/2, -y, z+1/2'
'-x+1/2, y, -z+1/2'
'x+1/2, -y, -z+1/2'
'z+1/2, x, y+1/2'
'z+1/2, -x, -y+1/2'
'-z+1/2, -x, y+1/2'
'-z+1/2, x, -y+1/2'
'y+1/2, z, x+1/2'
'-y+1/2, z, -x+1/2'
'y+1/2, -z, -x+1/2'
'-y+1/2, -z, x+1/2'
'y+1/2, x, -z+1/2'
'-y+1/2, -x, -z+1/2'
'y+1/2, -x, z+1/2'
'-y+1/2, x, z+1/2'
'x+1/2, z, -y+1/2'
'-x+1/2, z, y+1/2'
'-x+1/2, -z, -y+1/2'
'x+1/2, -z, y+1/2'
'z+1/2, y, -x+1/2'
'z+1/2, -y, x+1/2'
'-z+1/2, y, x+1/2'
'-z+1/2, -y, -x+1/2'
'x+1/2, y+1/2, z'
'-x+1/2, -y+1/2, z'
'-x+1/2, y+1/2, -z'
'x+1/2, -y+1/2, -z'
'z+1/2, x+1/2, y'
'z+1/2, -x+1/2, -y'
'-z+1/2, -x+1/2, y'
'-z+1/2, x+1/2, -y'
'y+1/2, z+1/2, x'
'-y+1/2, z+1/2, -x'
'y+1/2, -z+1/2, -x'
'-y+1/2, -z+1/2, x'
'y+1/2, x+1/2, -z'
'-y+1/2, -x+1/2, -z'
'y+1/2, -x+1/2, z'
'-y+1/2, x+1/2, z'
'x+1/2, z+1/2, -y'
'-x+1/2, z+1/2, y'
'-x+1/2, -z+1/2, -y'
'x+1/2, -z+1/2, y'
'z+1/2, y+1/2, -x'
'z+1/2, -y+1/2, x'
'-z+1/2, y+1/2, x'
'-z+1/2, -y+1/2, -x'
'-x, -y, -z'
'x, y, -z'
'x, -y, z'
'-x, y, z'
'-z, -x, -y'
'-z, x, y'
'z, x, -y'
'z, -x, y'
'-y, -z, -x'
'y, -z, x'
'-y, z, x'
'y, z, -x'
'-y, -x, z'
'y, x, z'
'-y, x, -z'
'y, -x, -z'
'-x, -z, y'
'x, -z, -y'
'x, z, y'
'-x, z, -y'
'-z, -y, x'
'-z, y, -x'
'z, -y, -x'
'z, y, x'
'-x, -y+1/2, -z+1/2'
'x, y+1/2, -z+1/2'
'x, -y+1/2, z+1/2'
'-x, y+1/2, z+1/2'
'-z, -x+1/2, -y+1/2'
'-z, x+1/2, y+1/2'
'z, x+1/2, -y+1/2'
'z, -x+1/2, y+1/2'
'-y, -z+1/2, -x+1/2'
'y, -z+1/2, x+1/2'
'-y, z+1/2, x+1/2'
'y, z+1/2, -x+1/2'
'-y, -x+1/2, z+1/2'
'y, x+1/2, z+1/2'
'-y, x+1/2, -z+1/2'
'y, -x+1/2, -z+1/2'
'-x, -z+1/2, y+1/2'
'x, -z+1/2, -y+1/2'
'x, z+1/2, y+1/2'
'-x, z+1/2, -y+1/2'
'-z, -y+1/2, x+1/2'
'-z, y+1/2, -x+1/2'
'z, -y+1/2, -x+1/2'
'z, y+1/2, x+1/2'
'-x+1/2, -y, -z+1/2'
'x+1/2, y, -z+1/2'
'x+1/2, -y, z+1/2'
'-x+1/2, y, z+1/2'
'-z+1/2, -x, -y+1/2'
'-z+1/2, x, y+1/2'
'z+1/2, x, -y+1/2'
'z+1/2, -x, y+1/2'
'-y+1/2, -z, -x+1/2'
'y+1/2, -z, x+1/2'
'-y+1/2, z, x+1/2'
'y+1/2, z, -x+1/2'
'-y+1/2, -x, z+1/2'
'y+1/2, x, z+1/2'
'-y+1/2, x, -z+1/2'
'y+1/2, -x, -z+1/2'
'-x+1/2, -z, y+1/2'
'x+1/2, -z, -y+1/2'
'x+1/2, z, y+1/2'
'-x+1/2, z, -y+1/2'
'-z+1/2, -y, x+1/2'
'-z+1/2, y, -x+1/2'
'z+1/2, -y, -x+1/2'
'z+1/2, y, x+1/2'
'-x+1/2, -y+1/2, -z'
'x+1/2, y+1/2, -z'
'x+1/2, -y+1/2, z'
'-x+1/2, y+1/2, z'
'-z+1/2, -x+1/2, -y'
'-z+1/2, x+1/2, y'
'z+1/2, x+1/2, -y'
'z+1/2, -x+1/2, y'
'-y+1/2, -z+1/2, -x'
'y+1/2, -z+1/2, x'
'-y+1/2, z+1/2, x'
'y+1/2, z+1/2, -x'
'-y+1/2, -x+1/2, z'
'y+1/2, x+1/2, z'
'-y+1/2, x+1/2, -z'
'y+1/2, -x+1/2, -z'
'-x+1/2, -z+1/2, y'
'x+1/2, -z+1/2, -y'
'x+1/2, z+1/2, y'
'-x+1/2, z+1/2, -y'
'-z+1/2, -y+1/2, x'
'-z+1/2, y+1/2, -x'
'z+1/2, -y+1/2, -x'
'z+1/2, y+1/2, x'
loop_
_atom_site_label
_atom_site_type_symbol
_atom_site_fract_x
_atom_site_fract_y
_atom_site_fract_z
_atom_site_U_iso_or_equiv
_atom_site_adp_type
_atom_site_occupancy
_atom_site_site_symmetry_order
_atom_site_calc_flag
_atom_site_refinement_flags_posn
_atom_site_refinement_flags_adp
_atom_site_refinement_flags_occupancy
_atom_site_disorder_assembly
_atom_site_disorder_group
Zr1 Zr 1.000000 0.500000 0.59215(2) 0.0094(3) Uani 1 8 d S T P . .
O3 O 1.07266(14) 0.500000 0.63209(13) 0.0286(9) Uani 0.96 2 d S T P . .
C1 C 1.11750(15) 0.500000 0.61750(15) 0.0280(14) Uani 0.96 4 d S T P . .
C2 C 1.15649(16) 0.500000 0.65649(16) 0.0441(18) Uani 0.96 4 d S T P . .
C5 C 1.22990(19) 0.500000 0.72990(19) 0.069(3) Uani 0.96 4 d S TU P . .
O1 O 1.0386(2) 0.5386(2) 0.5386(2) 0.012(2) Uani 0.5 6 d S TU P . 1
O2 O 1.0517(2) 0.5517(2) 0.5517(2) 0.011(2) Uani 0.5 6 d S TU P . 2
H2 H 1.069201 0.569201 0.569201 0.050 Uiso 0.5 6 d S T P A 2
O41 O 1.061(4) 0.500000 0.647(4) 0.030 Uiso 0.04 2 d S T P . 2
C1AA C 1.1803(3) 0.4863(5) 0.7416(3) 0.071(5) Uani 0.48 1 d . U . . -1
H1AA H 1.172158 0.476039 0.773701 0.085 Uiso 0.48 1 calc R . . . -1
C0AA C 1.1444(3) 0.4881(8) 0.7056(3) 0.064(7) Uani 0.48 1 d . U . . -1
H0AA H 1.111395 0.481378 0.713950 0.077 Uiso 0.48 1 calc R . . . -1
loop_
_atom_site_aniso_label
_atom_site_aniso_U_11
_atom_site_aniso_U_22
_atom_site_aniso_U_33
_atom_site_aniso_U_23
_atom_site_aniso_U_13
_atom_site_aniso_U_12
Zr1 0.0114(3) 0.0114(3) 0.0056(4) 0.000 0.000 0.000
O3 0.023(2) 0.044(2) 0.0187(19) 0.000 -0.0087(13) 0.000
C1 0.023(2) 0.039(4) 0.023(2) 0.000 -0.010(3) 0.000
C2 0.026(2) 0.081(6) 0.026(2) 0.000 -0.017(3) 0.000
C5 0.034(3) 0.140(10) 0.034(3) 0.000 -0.019(4) 0.000
O1 0.012(2) 0.012(2) 0.012(2) -0.004(2) -0.004(2) -0.004(2)
O2 0.011(2) 0.011(2) 0.011(2) -0.004(2) -0.004(2) -0.004(2)
C1AA 0.051(4) 0.134(15) 0.026(3) 0.022(5) -0.025(3) -0.006(5)
C0AA 0.030(3) 0.13(2) 0.032(3) 0.013(5) -0.014(3) -0.014(5)
loop_
_atom_type_symbol
_atom_type_description
_atom_type_scat_dispersion_real
_atom_type_scat_dispersion_imag
_atom_type_scat_source
C C 0.0040 0.0020 'International Tables Vol C Tables 4.2.6.8 and 6.1.1.4'
H H 0.0000 0.0000 'International Tables Vol C Tables 4.2.6.8 and 6.1.1.4'
O O 0.0140 0.0070 'International Tables Vol C Tables 4.2.6.8 and 6.1.1.4'
Zr Zr -1.8230 0.6800 'International Tables Vol C Tables 4.2.6.8 and 6.1.1.4'
loop_
_geom_angle_atom_site_label_1
_geom_angle_atom_site_label_2
_geom_angle_atom_site_label_3
_geom_angle
_geom_angle_site_symmetry_1
_geom_angle_site_symmetry_3
O3 Zr1 O3 76.58(8) . 182_545
O3 Zr1 O3 76.59(8) 182_545 2_765
O3 Zr1 O3 122.41(18) . 2_765
O3 Zr1 O3 76.58(8) . 181_665
O3 Zr1 O3 76.59(8) 2_765 181_665
O3 Zr1 O3 122.41(18) 182_545 181_665
O1 Zr1 O3 84.0(3) . 182_545
O1 Zr1 O3 84.0(3) 2_765 181_665
O1 Zr1 O3 141.23(7) 99_565 182_545
O1 Zr1 O3 141.23(7) 2_765 .
O1 Zr1 O3 84.0(3) 99_565 181_665
O1 Zr1 O3 84.0(3) 2_765 2_765
O1 Zr1 O3 141.23(7) 2_765 182_545
O1 Zr1 O3 141.23(7) 100_755 .
O1 Zr1 O3 141.23(7) 100_755 181_665
O1 Zr1 O3 84.0(3) 99_565 .
O1 Zr1 O3 141.23(7) . 181_665
O1 Zr1 O3 141.23(7) . 2_765
O1 Zr1 O3 84.0(3) . .
O1 Zr1 O3 84.0(3) 100_755 2_765
O1 Zr1 O3 141.23(7) 99_565 2_765
O1 Zr1 O3 84.0(3) 100_755 182_545
O1 Zr1 O1 60.6(4) 2_765 100_755
O1 Zr1 O1 60.6(4) 100_755 .
O1 Zr1 O1 91.1(6) 2_765 .
O1 Zr1 O1 60.6(4) 2_765 99_565
O1 Zr1 O1 91.1(6) 100_755 99_565
O1 Zr1 O1 60.6(4) 99_565 .
O1 Zr1 O41 95(2) 99_565 181_665
O1 Zr1 O41 147.5(9) . 2_765
O1 Zr1 O41 95(2) . 182_545
O1 Zr1 O41 95(2) 2_765 2_765
O1 Zr1 O41 147.5(9) 100_755 181_665
O1 Zr1 O41 147.5(9) 99_565 2_765
O1 Zr1 O41 147.5(9) . 181_665
O1 Zr1 O41 147.5(9) 2_765 182_545
O1 Zr1 O41 95(2) 100_755 2_765
O1 Zr1 O41 95(2) 100_755 182_545
O1 Zr1 O41 147.5(9) 99_565 182_545
O1 Zr1 O41 95(2) 2_765 181_665
O41 Zr1 O3 13(3) 2_765 2_765
O41 Zr1 O3 71.3(10) 2_765 181_665
O41 Zr1 O3 109(3) 182_545 181_665
O41 Zr1 O3 71.3(10) 182_545 .
O41 Zr1 O3 71.3(10) 181_665 2_765
O41 Zr1 O3 71.3(10) 181_665 .
O41 Zr1 O3 13(3) 181_665 181_665
O41 Zr1 O3 109(3) 2_765 .
O41 Zr1 O3 71.3(10) . 181_665
O41 Zr1 O3 13(3) . .
O41 Zr1 O3 71.3(10) 182_545 2_765
O41 Zr1 O3 109(3) . 2_765
O41 Zr1 O41 96(5) 182_545 181_665
O41 Zr1 O41 64(3) 181_665 2_765
O41 Zr1 O41 64(3) 182_545 2_765
O41 Zr1 O41 96(5) 2_765 .
O41 Zr1 O41 64(3) 182_545 .
O41 Zr1 O41 64(3) 181_665 .
C1 O3 Zr1 133.2(3) . .
O41 O3 Zr1 82(10) . .
O41 O3 C1 145(10) . .
O3 C1 O3 126.0(6) 70_564 .
O3 C1 C2 117.0(3) 70_564 .
O3 C1 C2 117.0(3) . .
O3 C1 O41 136(4) 70_564 .
O3 C1 O41 136(4) . 70_564
O3 C1 O41 10(4) . .
O3 C1 O41 10(4) 70_564 70_564
C2 C1 O41 107(4) . .
C2 C1 O41 107(4) . 70_564
O41 C1 O41 146(8) . 70_564
C0AA C2 C1 120.2(4) . .
C1AA C5 C5 120.5(4) . 145_766
Zr1 O1 Zr1 116.89(18) 77_545 .
Zr1 O1 Zr1 116.89(18) 57_554 77_545
Zr1 O1 Zr1 116.89(18) 57_554 .
Zr1 O2 Zr1 102.4(3) 77_545 57_554
Zr1 O2 Zr1 102.4(3) 77_545 .
Zr1 O2 Zr1 102.4(3) 57_554 .
Zr1 O2 H2 115.8(2) 57_554 .
Zr1 O2 H2 115.8(2) . .
Zr1 O2 H2 115.8(2) 77_545 .
O3 O41 Zr1 85(10) . .
O3 O41 C1 26(10) . .
C1 O41 Zr1 110(5) . .
C5 C1AA H1AA 120.1 . .
C0AA C1AA C5 119.8(8) . .
C0AA C1AA H1AA 120.1 . .
C2 C0AA H0AA 119.6 . .
C1AA C0AA C2 120.8(8) . .
C1AA C0AA H0AA 119.6 . .
loop_
_geom_bond_atom_site_label_1
_geom_bond_atom_site_label_2
_geom_bond_distance
_geom_bond_site_symmetry_2
Zr1 O3 2.225(4) 182_545
Zr1 O3 2.225(4) 181_665
Zr1 O3 2.225(4) 2_765
Zr1 O3 2.225(4) .
Zr1 O1 2.052(2) 100_755
Zr1 O1 2.052(2) 2_765
Zr1 O1 2.052(2) 99_565
Zr1 O1 2.052(2) .
Zr1 O41 2.21(12) 2_765
Zr1 O41 2.21(12) 182_545
Zr1 O41 2.21(12) 181_665
Zr1 O41 2.21(12) .
O3 C1 1.265(5) .
O3 O41 0.50(10) .
C1 C2 1.480(8) .
C1 O41 1.70(10) .
C1 O41 1.70(10) 70_564
C2 C0AA 1.395(9) .
C5 C5 1.526(14) 145_766
C5 C1AA 1.417(9) .
O2 H2 0.811(11) .
C1AA H1AA 0.9300 .
C1AA C0AA 1.365(9) .
C0AA H0AA 0.9300 .
loop_
_platon_squeeze_void_nr
_platon_squeeze_void_average_x
_platon_squeeze_void_average_y
_platon_squeeze_void_average_z
_platon_squeeze_void_volume
_platon_squeeze_void_count_electrons
_platon_squeeze_void_content
1 0.325 -0.006 -0.004 13104 6881 ' '
loop_
_refln_index_h
_refln_index_k
_refln_index_l
_refln_F_squared_meas
_refln_F_squared_sigma
-1 1 1 3.9 2
0 0 -2 682.73 128.29
0 2 0 941.71 131.29
-2 0 -2 1553.84 257.07
-2 0 2 1872.71 273.57
-2 0 2 1804.82 272.37
-2 2 0 2069.59 280.77
0 2 -2 1714.33 281.47
2 0 2 1549.24 259.27
-2 2 -2 1139.09 210.78
-2 2 -2 1219.78 208.78
2 -2 2 1515.85 220.58
3 1 -1 450.75 61.89
1 -1 -3 439.36 61.99
-1 -1 -3 396.66 61.79
3 -1 -3 267.57 46
3 -1 3 318.27 44.9
3 1 3 278.57 45.4
-1 -3 3 253.97 45.8
-1 3 -3 288.87 45.2
-1 3 3 339.47 46.7
1 -3 3 289.07 45.2
1 3 -3 374.36 46.1
3 -3 -1 311.67 45.8
-3 3 -1 361.96 45.1
-3 3 1 312.27 45.8
-1 -3 -3 341.37 46.2
-3 -3 1 297.87 46.1
-3 -1 -3 376.16 45.9
-3 1 -3 295.77 44.9
-3 3 3 801.82 118.99
3 -3 -3 885.71 119.19
-3 -3 3 794.72 118.79
0 -4 0 570.04 81.79
-4 0 -2 55.99 8.4
-4 0 2 26.9 8.7
-2 4 0 40.9 9.3
0 -2 -4 55.59 10.1
0 -2 4 44.2 10.3
0 2 -4 45 9.5
0 2 4 51.29 11.9
2 -4 0 28.4 8.4
4 0 -2 42.3 9.8
4 0 2 52.09 8.4
-4 -2 0 55.79 9.3
-4 2 0 38.1 9.1
-2 0 -4 39.5 9.5
-2 0 4 78.89 12.8
0 -4 -2 53.89 11.2
0 -4 2 48.1 9.4
0 4 -2 33.7 9.1
0 4 2 45.8 10.5
2 0 -4 71.59 10.7
2 0 4 48 9.9
4 2 0 59.49 9.2
-2 4 2 0.8 5.9
-2 4 -2 4.7 3
-2 2 -4 6.9 3.8
-2 2 4 6.3 7.4
-4 -2 -2 3 3.3
-4 -2 2 -3.9 5.6
-4 2 -2 0.5 1.8
-4 2 2 8.5 6.3
-2 -4 -2 1.7 4.4
-2 -4 2 0.3 5.6
-2 -2 -4 3 4.3
-2 -2 4 -0.1 6.4
4 -2 -2 5.7 5.9
4 2 -2 0.5 4.3
4 2 2 3.8 4.3
2 -4 -2 8 6.4
2 -4 2 5.4 3.1
2 -2 -4 4 7.3
2 -2 4 1.4 3.9
2 2 -4 5 4.6
2 2 4 4.9 5.7
2 4 -2 7 5.4
0 -4 4 30.1 9.2
0 -4 -4 47.5 11.6
4 0 4 50.09 9.6
4 4 0 41 10.2
-4 0 -4 55.49 9.6
-4 0 4 46.1 11.6
-4 4 0 51.69 10.2
0 4 -4 41.8 10.1
0 4 4 59.09 11.3
4 -4 0 56.49 10.6
4 0 -4 56.49 11.5
-4 -4 -2 536.65 74.19
-4 -2 -4 537.95 74.09
-4 -2 4 593.44 74.79
-4 2 -4 494.85 72.59
-4 4 -2 445.56 72.59
-4 4 2 546.65 74.29
-2 -4 4 472.85 73.89
-2 4 -4 476.85 72.99
2 -4 -4 455.45 74.19
2 -4 4 493.25 73.09
4 -4 -2 495.65 73.89
4 -2 4 494.25 72.79
4 2 4 594.24 74.09
4 4 2 538.95 74.09
4 -4 -4 233.88 35.7
4 4 -4 258.57 34.8
-4 4 -4 207.08 32.3
5 -1 1 245.78 32.2
5 1 -1 270.77 33.4
5 1 1 191.58 32.5
1 -1 5 239.78 33.2
1 1 5 243.68 33.2
5 -1 -1 193.98 32.7
-1 1 -5 198.18 32.8
-1 5 1 255.87 33
1 -5 -1 195.78 33.2
1 -5 1 226.18 32.5
-5 -1 1 177.78 32.9
-5 1 -1 200.98 32
-5 1 1 228.08 33.1
-1 -5 -1 235.98 33
-5 -1 -1 190.38 32.4
1 -3 5 976.5 146.59
-5 1 3 980 147.19
-3 5 1 894.11 146.69
1 -5 -3 1180.68 147.49
5 3 1 1150.78 147.09
5 -3 -1 1149.39 146.99
-1 5 3 1025.2 147.29
1 -5 3 969.8 146.49
5 -3 1 895.81 146.39
3 -1 5 1055.39 146.39
-3 -5 -3 124.49 21.5
-3 -5 3 148.69 21.9
-3 -3 5 78.69 21
-3 3 5 126.49 21.2
-3 5 3 100.79 21.2
3 -5 -3 119.19 20.4
3 -5 3 137.09 18.7
3 -3 5 149.69 19.2
5 -3 -3 115.39 21.8
5 3 -3 113.09 21.3
-5 -3 -3 108.19 19.9
1 5 -5 373.56 58.39
1 5 5 481.15 59.49
5 -5 -1 450.55 59.89
5 -5 1 387.76 57.89
5 -1 -5 331.87 59.59
5 -1 5 410.56 57.59
-5 1 -5 421.96 57.79
-5 5 -1 378.56 57.79
-5 5 1 393.96 58.59
-1 5 -5 384.86 58.19
-5 -5 -1 380.06 59.09
-5 -1 -5 400.96 58.29
-5 -5 -3 831.52 119.99
-5 -3 -5 789.82 119.89
5 -3 -5 873.51 120.49
5 -5 -5 831.22 120.59
0 0 6 7531.75 1262.27
-6 0 0 8973.6 1260.17
-6 0 0 8830.92 1253.57
6 0 0 9023.3 1254.77
-6 0 2 254.77 38.7
-6 0 -2 289.77 38
0 -2 6 198.28 38.6
0 2 -6 294.97 39
2 -6 0 274.17 38.7
6 0 -2 263.37 38.9
6 0 2 272.57 37.7
0 -6 2 318.37 38.6
2 0 6 230.28 38.5
-2 6 0 267.07 38.3
-6 -2 0 203.88 38.5
-6 2 0 244.88 38.1
-2 0 -6 273.67 38.6
6 -2 0 234.58 38
6 2 0 223.28 38.5
-6 -2 -2 123.29 19.6
2 -6 -2 98.59 19.6
2 -2 6 148.29 20.5
2 2 6 86.89 20.5
-2 -6 -2 103.09 19.9
-2 -6 -2 166.88 22.3
-2 -6 2 157.18 20.2
6 2 2 120.69 19.8
-6 2 -2 115.69 18.2
-2 -2 6 89.29 19.9
-2 2 -6 136.09 19.6
2 6 -2 116.19 20.3
6 -2 -2 117.19 20.6
6 -2 2 122.19 18.2
6 2 -2 132.09 21
-6 2 2 141.39 20.9
-2 6 2 83.09 20.3
-6 -2 2 127.19 21
-6 0 -4 304.77 40.8
-6 0 -4 305.27 40.7
-4 -6 0 247.78 41.6
0 -4 6 256.57 41.6
0 4 6 321.47 42.4
-4 6 0 232.18 41
-6 4 0 270.97 42
-4 0 -6 283.07 41.3
0 -6 -4 222.18 42.6
0 -6 4 324.47 41.8
4 0 -6 223.38 41.9
4 0 6 309.57 41.3
6 -4 0 301.57 41.3
0 -4 -6 252.37 42.1
-6 4 -2 332.17 53.99
4 2 6 428.66 55.99
6 -4 -2 352.36 55.89
6 4 2 393.66 55.39
-6 2 4 446.36 56.99
-6 -2 -4 404.46 55.09
-4 2 -6 385.26 54.49
-2 6 -4 385.96 54.69
4 -6 2 404.96 54.69
2 -4 6 417.96 55.19
4 -6 2 369.36 54.29
-4 6 2 349.17 55.59
2 -6 4 368.26 54.79
-6 -2 4 322.07 55.89
-6 2 -4 354.76 53.89
-2 -4 6 312.97 55.19
2 -4 -6 439.36 56.69
4 -6 -2 398.56 55.99
-6 2 -4 413.16 53.89
-2 4 -6 329.57 54.69
6 -4 2 402.06 54.09
-6 4 2 338.67 55.59
4 -2 6 376.36 54.49
-6 -4 -2 316.77 55.19
-6 -4 -4 462.35 70.39
-6 4 4 572.14 71.79
-4 -6 4 461.85 70.99
-4 4 -6 459.75 69.09
-4 6 4 558.64 71.79
4 -6 4 455.55 69.09
4 -4 6 425.76 69.19
4 4 6 549.54 71.19
4 6 -4 448.16 70.79
6 -4 -4 484.65 71.29
0 -6 6 315.27 56.49
-6 6 0 396.26 56.39
-6 0 6 412.56 58.39
-6 0 -6 405.76 56.29
6 0 -6 484.45 58.99
6 0 6 358.76 55.99
6 -6 0 352.56 56.19
-6 6 -2 1594.54 226.18
-2 -6 -6 1506.05 228.08
6 -6 -2 1373.26 227.18
6 -2 -6 1771.82 228.28
6 2 -6 1712.03 227.98
6 6 -4 857.31 115.49
-6 4 6 837.32 115.89
-4 6 6 717.43 115.29
4 -6 -6 788.82 115.79
-6 -6 -4 768.22 115.29
6 6 6 2103.29 312.07
6 6 6 2440.46 313.07
6 -6 -6 1561.44 373.96
-6 6 6 1847.22 392.86
-6 -6 -6 2088.79 315.67
-7 -1 -1 993 144.99
-7 1 1 1042.5 145.29
-1 -7 1 1093.39 145.49
-1 -1 7 915.51 145.59
-1 7 1 837.92 144.99
1 -7 -1 1051.39 145.69
1 -7 1 1178.18 145.49
1 -1 7 1033 145.49
7 1 1 967.5 144.79
-3 1 -7 79.09 14.1
-3 -1 7 85.79 14.4
7 1 -3 61.19 12.9
-1 -3 -7 64.19 15.1
-7 -3 1 71.39 13.1
1 -3 7 80.49 14.7
-1 7 -3 66.49 13
7 -3 -1 88.19 14.1
3 -1 -7 32.5 13.5
7 -1 3 65.79 11.4
-7 3 -1 84.99 12.3
1 -7 -3 67.69 13.7
1 7 3 41 12.8
3 1 7 44.1 12.3
-7 1 3 42.2 12.7
3 -7 1 69.49 12.8
3 7 -1 67.19 14.2
-3 7 1 49.3 12.9
7 3 1 75.29 13.6
7 1 3 62.39 12.4
-1 3 -7 58.79 13.2
1 7 -3 58.59 13.4
-3 1 7 44.7 13.9
-1 -7 -3 108.59 16.4
-1 7 3 51.69 13.8
-7 -1 3 42.9 12.3
3 -7 -1 66.99 14
-7 1 -3 79.59 11.5
7 -1 -3 45.5 13
-3 -1 -7 55.89 13.3
-1 -3 7 44.1 12.7
-7 3 1 77.29 14.2
7 -3 1 67.49 11.6
-7 -3 -1 59.59 13.5
3 -1 7 56.29 13.4
3 1 -7 89.89 14.3
1 3 7 86.79 15.8
7 3 -1 83.19 12.9
-7 -3 -3 29.1 7.6
3 -7 3 28.7 7.3
7 3 -3 19.3 8.9
3 -7 -3 27.2 9.5
-3 -7 -3 26.6 7.4
-3 -7 3 25.9 8.7
-3 -3 -7 18.4 7.6
-3 -3 7 17.2 9.5
-3 3 -7 28.5 7
-3 3 7 33.3 11.5
-3 7 3 20.8 8.8
-7 -3 3 23.4 9.1
-7 3 -3 32.9 5.9
7 3 3 27.8 7.5
3 -7 3 19.6 6.5
3 -3 -7 9.3 7.5
3 -3 7 23 7.2
3 3 -7 38.8 9.3
3 3 7 28.9 7.8
3 7 -3 11.4 6.6
7 -3 -3 17.2 7.3
7 -3 3 30.2 5.3
-3 -7 -3 41.3 10.6
-7 3 3 24.7 8.1
-7 -1 -5 209.38 31.1
-1 5 7 188.08 32.3
-7 5 -1 216.18 30.9
-5 7 1 186.58 31.9
5 1 7 192.28 31.5
1 -5 7 222.18 32.1
5 -7 1 207.48 31.2
-5 1 -7 184.38 30.7
-1 7 -5 241.68 31.6
-1 -7 5 194.78 32
-7 -1 -5 194.58 31.2
7 -5 -1 185.08 31.6
5 -1 -7 204.18 32.7
1 -7 -5 248.68 33.2
-5 -1 -7 214.98 32
-7 1 -5 195.18 30.6
-7 1 -5 232.48 30.3
-5 7 -1 217.58 31.1
-1 -5 7 206.98 32.2
-1 5 -7 186.58 31.1
1 -5 -7 148.49 33.1
1 -7 5 201.68 31.4
7 -5 1 204.38 31
5 -1 7 195.68 30.9
5 1 -7 171.98 32.3
-1 -7 -5 233.98 33.9
5 7 1 235.78 32
7 -1 -5 193.68 32.4
1 5 7 233.18 33.6
5 -7 -1 151.68 31.5
-7 5 1 221.38 31.6
5 -7 3 599.64 89.09
-7 5 -3 622.64 88.49
3 -7 -5 509.05 90.69
-5 7 3 582.64 90.59
-5 3 -7 640.24 89.19
-7 3 5 667.23 91.49
-7 -5 3 718.83 91.09
3 -5 7 571.74 89.49
-3 7 -5 565.64 89.29
5 3 7 690.43 90.79
7 -5 -3 593.64 90.59
7 5 3 691.43 90.59
3 -5 -7 633.04 91.59
-7 3 -5 626.64 88.39
-3 5 -7 511.95 89.19
-7 3 -5 663.53 88.39
5 3 -7 736.63 91.59
7 5 -3 733.53 91.39
3 -7 5 540.95 89.39
-7 5 3 547.45 90.69
5 -3 7 584.14 89.09
5 -7 -3 629.24 92.29
7 -3 -5 720.53 91.89
-5 -7 5 1034 170.78
-5 5 7 1239.18 171.98
5 -7 -5 1117.59 171.38
5 -7 5 1244.58 169.28
5 -7 5 1126.39 169.08
5 -5 7 1182.38 169.18
7 -5 -5 1252.17 171.48
7 5 -5 1236.38 171.38
-7 -5 -5 1261.77 170.88
-7 1 7 141.79 25
-7 1 -7 168.98 23.3
-7 -1 -7 129.59 23.8
1 7 -7 99.89 23.6
1 7 7 181.48 26.4
7 -7 -1 129.39 23.9
7 -7 1 143.99 23.3
7 7 1 181.68 24.8
1 -7 7 149.49 24.2
-1 -7 7 110.09 24
-1 7 -7 145.19 23.8
-1 7 7 194.68 27
-7 7 1 155.98 24.1
-7 7 -1 148.09 23.2
-7 -7 -3 568.44 90.39
-7 3 -7 655.13 88.39
-7 3 7 762.02 91.79
-7 7 3 662.73 90.79
-3 7 -7 567.24 88.99
3 -7 -7 693.13 91.49
3 -7 7 536.75 89.09
3 7 -7 578.34 90.29
3 7 7 529.55 90.19
7 -7 -3 549.85 90.39
7 -7 3 660.83 88.59
7 -3 -7 681.43 91.39
7 -5 -7 1588.34 252.47
7 -7 -5 1931.81 252.87
-7 -7 7 2493.55 500.75
-7 -7 -7 3181.78 427.16
-7 7 -7 3444.26 517.45
7 7 7 2871.71 421.46
-7 7 7 2185.78 513.75
-7 7 -7 2758.32 513.45
-8 0 0 8643.33 1318.07
-8 0 0 8637.04 1327.97
0 -8 0 7375.96 1337.67
0 0 -8 9065.89 1342.47
0 0 8 9999 1348.27
8 0 0 9362.66 1320.67
8 0 0 9991.8 1336.97
0 -2 8 114.99 23
0 2 8 89.29 23.4
2 -8 0 143.79 22.9
2 8 0 174.58 23.3
8 0 -2 133.29 22.7
8 0 2 159.38 21.7
-8 0 -2 126.59 21.2
-8 0 2 123.09 22.7
0 -2 -8 170.68 24.3
-8 -2 0 152.88 21.9
-2 0 -8 119.69 22.3
-2 0 8 101.69 23.7
0 -8 -2 96.79 21.9
0 -8 2 135.39 21.5
0 8 -2 120.49 21
8 -2 0 172.18 21.8
8 2 0 125.09 22.3
2 -8 2 379.56 53.59
2 -8 -2 420.56 54.89
-8 -2 2 361.56 54.39
-8 2 -2 356.56 52.49
-8 2 2 301.47 53.69
8 -2 -2 362.16 53.79
8 -2 2 341.57 52.49
8 2 2 373.06 53.49
-2 -2 8 415.56 54.59
-2 2 -8 402.26 53.89
-2 8 2 324.87 53.49
2 -8 2 382.36 53.39
2 -2 8 369.86 53.79
-8 -2 -2 295.47 53.19
-8 0 -4 86.09 13.3
-8 0 4 57.29 14.4
-4 -8 0 111.99 16.5
-4 8 0 68.49 13.9
0 -4 -8 85.29 15.3
0 -4 8 68.99 15.3
0 4 8 49.4 15.2
4 -8 0 87.79 14.9
8 0 -4 87.69 16.3
8 0 4 75.39 12.8
0 -8 4 70.59 14.4
0 8 -4 103.69 14.8
0 8 4 85.59 14.9
4 0 -8 42.9 13.9
4 0 8 60.29 14.6
8 -4 0 65.39 14
8 4 0 74.19 15.2
-8 -4 0 46 14
-8 4 0 81.99 14.1
-4 0 -8 62.89 14.5
0 -8 -4 71.89 15.1
-4 -8 -2 88.09 19
-2 -8 4 71.69 19.6
2 -8 -4 82.49 19.3
4 2 8 110.09 19.6
-8 2 4 105.19 19.6
2 4 -8 93.39 19.9
4 -2 -8 128.09 20.6
8 -4 -2 103.39 19.8
-2 8 -4 116.59 18.6
-4 -8 -2 145.89 19.9
-8 4 -2 128.49 17.7
8 4 2 115.59 19.7
-4 8 2 120.59 20.1
4 -8 2 129.89 18.6
-8 -2 -4 106.79 18.8
-4 -2 8 91.69 19.5
-4 2 -8 115.59 18.8
4 -8 2 98.69 17.9
-2 -4 -8 136.39 20.4
2 -4 8 103.69 18.9
-8 -4 2 131.69 19.4
8 -4 2 109.09 17.3
-4 -8 2 74.69 19.9
4 2 -8 68.19 20.2
-2 4 -8 107.89 18.9
-2 -4 8 96.39 19.2
8 -2 -4 106.69 20.7
8 2 4 115.29 18.7
-8 2 -4 110.79 17
8 4 -2 144.39 19.7
-8 -4 -2 72.29 18.9
-8 4 2 130.19 20
-2 -8 -4 143.79 22
-2 8 4 95.69 20.3
2 -8 4 110.69 18.3
2 8 -4 124.19 19
4 -2 8 125.79 18.9
4 -8 -2 103.69 20
2 4 8 126.29 21.1
-8 4 4 106.89 21.6
-4 -8 4 98.69 21.1
-4 -4 -8 111.49 21.7
-8 -4 -4 90.79 19.6
-8 4 -4 115.09 17
4 -8 -4 93.69 21.6
4 -8 4 103.89 18.9
4 -8 4 118.79 18.6
4 4 -8 143.09 21
4 4 8 143.19 21.7
-4 -4 8 135.49 21.2
-4 4 -8 106.19 18.7
-4 4 8 153.68 23.1
-4 8 4 113.79 21.5
-8 -4 4 138.09 22.5
8 -4 -4 114.89 21.6
4 8 -4 146.39 21.5
4 -4 8 106.39 19.1
-6 -8 0 3 5.2
-8 -6 0 0.8 6.9
-8 6 0 2.1 5.5
-6 0 -8 -2.5 5.1
-6 0 8 -1.1 6
0 -8 -6 -0.8 7.9
0 -8 6 1.8 5.5
0 8 6 1.3 7.7
6 0 -8 1.9 6.3
6 0 8 -4 5.1
8 -6 0 2 6
8 6 0 2.8 6.9
0 -6 -8 1 6.3
0 -6 8 3.2 6.3
0 6 8 1.9 6.2
6 -8 0 -0.8 5.7
6 8 0 0.9 5.1
8 0 -6 0.1 5.6
0 6 -8 -4.3 4.9
-8 0 6 0.7 5.8
-6 8 0 -1.9 4.9
-8 0 -6 -2.5 4.4
-8 0 -6 2.4 4.2
0 8 -6 4.1 5.4
-8 -2 -6 145.49 22.6
-8 -2 -6 122.99 22.7
8 2 -6 158.68 24.5
6 8 -2 138.99 24.2
-8 2 6 177.18 25
-6 8 2 116.19 23.5
-2 -6 -8 101.19 23.5
-6 2 -8 125.69 22
2 -6 8 150.28 23.3
8 -6 -2 136.79 23.9
-2 8 -6 137.19 22.7
8 6 2 135.39 24
-8 6 -2 156.48 21.8
6 -8 2 156.38 22.5
2 -8 -6 97.79 24.8
6 2 8 140.59 23.2
6 -8 -2 147.79 23.9
-2 8 6 90.59 24.3
-8 -2 6 183.48 25.1
-8 2 -6 141.89 21.5
8 -6 2 150.48 21.9
-6 8 -2 145.09 22.1
-8 6 2 142.09 24.3
-6 -2 -8 106.69 22.7
-2 6 -8 133.69 22.5
8 6 -2 172.38 24.1
2 6 8 94.49 24.3
6 -2 8 132.29 22
6 2 -8 127.09 23.8
2 -8 6 131.49 22.4
-8 2 -6 148.69 21.2
-8 -6 -2 163.98 24.5
6 8 2 146.39 23.3
8 -2 -6 172.88 24.6
-2 -8 -6 180.38 26.3
-6 8 4 547.65 91.09
-8 4 6 693.13 92.19
-8 -4 -6 531.25 90.09
6 -8 4 670.53 89.29
6 -8 4 659.83 88.99
6 8 -4 666.23 91.39
6 -4 -8 584.54 91.39
6 4 8 741.13 91.49
8 -6 -4 700.73 91.69
-4 8 -6 626.64 89.39
4 -6 8 657.83 89.79
-6 4 -8 590.34 88.89
4 -8 -6 510.85 91.09
6 -8 -4 527.85 90.99
-4 6 -8 600.44 89.29
4 -8 6 618.84 89.49
-8 6 4 581.04 90.99
6 -4 8 624.94 88.99
6 4 -8 594.34 91.09
-4 -8 -6 672.73 91.89
-6 -8 -6 2319.77 318.87
8 -6 -6 2128.89 318.57
-8 0 -8 523.55 69.49
-8 8 0 396.76 69.09
0 -8 8 513.45 70.09
8 -8 0 545.85 69.99
8 8 0 389.66 69.79
-8 8 -2 -1.9 4.3
-8 2 -8 3.3 4.2
-8 -2 8 -3 8.5
-8 -2 -8 -2.4 5.8
-8 -8 2 -0.3 5.5
-2 8 8 -0.6 5.8
2 -8 -8 6.7 9
2 -8 8 -0.7 5.5
2 8 -8 -0.2 6.3
2 8 8 -3.5 5.7
8 -8 -2 3.8 7.4
8 -8 2 3.9 4.8
8 -2 -8 3.6 9
8 2 -8 -1 5.4
8 8 -2 2.3 7.1
8 8 2 2.7 4.7
-8 8 2 3.9 6.4
-2 -8 -8 -3.4 7.8
-2 -8 8 1.9 5.1
-2 8 -8 1.4 4.9
-8 4 8 693.63 85.79
-8 8 4 477.15 83.99
-8 4 -8 549.54 81.39
-8 4 -8 594.64 81.29
-8 -8 -4 650.93 86.19
-8 -8 4 673.93 85.29
-8 -4 -8 584.34 84.19
-8 -4 -8 533.75 83.39
8 -8 4 587.84 81.69
8 -8 4 537.65 81.39
8 8 -4 490.05 83.89
4 -8 8 508.15 82.59
4 8 -8 692.83 84.89
4 -8 -8 581.24 85.09
-4 8 -8 494.45 82.29
6 8 8 2186.38 284.47
8 -6 -8 1758.42 283.87
8 6 -8 2126.39 284.27
-8 -8 6 2033.6 284.37
-8 -6 -8 2165.48 284.27
-8 -6 8 2041.3 284.17
-6 8 -8 1917.91 281.37
-6 8 8 1625.34 283.67
-8 8 8 1383.36 190.08
-8 -8 -8 1238.98 188.48
-9 1 -1 2927.81 460.85
-9 -1 1 2906.11 459.35
9 1 1 2459.85 432.86
-1 -9 -1 2502.75 465.85
-1 -1 9 2755.62 479.45
-1 1 -9 2644.04 476.85
-1 9 -1 2858.41 469.55
-1 9 1 2433.76 466.65
1 -9 -1 3146.89 476.85
1 -9 1 2778.52 483.65
1 -1 9 3327.77 493.65
1 1 -9 2113.59 458.35
1 1 -9 3439.76 496.75
1 1 9 2887.81 465.55
1 9 -1 3004.6 476.75
1 9 1 3225.68 465.85
9 -1 1 2652.43 456.45
9 -1 1 2879.11 456.55
-9 1 1 2828.62 459.45
9 1 -3 26.4 9.3
-3 -9 -1 39.4 9.3
1 -9 -3 24.9 9.7
9 -1 3 26.3 6.7
3 1 9 29.8 9.7
9 -3 -1 36.4 8.6
9 3 1 6.1 8.8
-3 -1 9 38.7 11.7
-1 9 -3 32.3 7.8
-9 -1 -3 27.2 7.5
1 3 -9 27.7 8.6
3 -9 1 30 8.8
-3 1 -9 39.4 9.3
-1 -3 -9 19.8 8.5
-1 3 9 9.7 10
1 -3 9 41.2 10.2
3 -9 1 40.1 8.8
3 9 -1 42.9 9.3
-1 -9 3 32.2 8.5
1 9 3 7.5 7.1
-9 -3 1 22.9 7.7
-3 -9 -1 22.2 7.8
3 -1 -9 26.6 9
-9 3 -1 29.4 7.8
-9 1 3 29.3 10
9 1 3 25 7.4
-9 -3 -1 17.7 8.2
-1 -3 9 43.5 10.7
1 -3 -9 52.29 11.1
9 3 -1 23.6 8.6
-9 -1 3 33 8.6
-9 1 -3 27.3 7.1
-3 -9 1 19.2 9
-1 3 -9 27 8.9
3 1 -9 30.8 9.6
1 3 9 13.6 9.7
3 -9 -1 27.2 9.1
-9 3 1 40.3 9.5
9 -1 -3 33.4 11.6
9 -3 1 25.7 7.2
-1 9 3 25.2 8.2
1 -9 3 21.9 7.6
1 9 -3 44.2 8.9
3 -1 9 27.4 8.9
-3 1 9 48.9 11.5
-1 -9 -3 9.7 9.3
-3 -1 -9 32.3 9.4
-3 -3 -9 39.2 10.3
3 -3 9 25.9 8.1
-3 -3 9 12.5 8.8
-3 3 -9 30.6 8
-3 3 9 18.9 10.1
-9 -3 3 11.7 8.5
9 3 -3 18 8.9
9 3 3 24.7 7.7
-9 3 -3 23.8 5.8
-9 3 3 20.7 9.3
-3 -9 -3 15.6 7.6
-3 -9 -3 36.2 9.6
-3 -9 3 18.7 7.2
3 3 -9 6.3 6.7
3 3 9 31.7 8.8
3 9 -3 10.9 7.9
9 -3 -3 20.6 8.6
9 -3 3 27.1 6.1
-9 -3 -3 23.5 7.8
3 -9 3 24.5 6.7
3 -3 -9 27.1 10.9
3 -9 -3 17.5 9.1
3 -9 3 23.5 7.2
-3 9 3 19.9 9
-9 1 5 26.8 8.9
-9 -5 1 21.2 8.9
-9 5 -1 18.9 6.4
-9 -1 -5 24.3 6.9
-1 9 -5 17.8 6.7
9 5 1 29.9 9.2
-1 -9 5 11.3 7.6
1 -9 -5 18.5 8.1
1 -5 9 29.4 9
5 9 -1 9.5 8.1
9 1 -5 14.7 7.5
5 1 9 16.4 7.9
5 -1 -9 2.5 9.1
9 -5 -1 16.2 8.2
-9 -1 -5 19.2 6.6
-5 1 -9 13.6 6.7
-5 9 1 27.1 8.9
-1 -5 -9 25.8 10.7
5 -9 1 27.7 7.8
1 5 -9 21.7 8.6
1 -9 5 25.1 8
5 -1 9 20.9 7.3
5 1 -9 26 10.2
9 -5 1 19.9 6.8
9 5 -1 24.5 7.9
-9 -5 -1 15.2 7
-9 -1 5 31.1 10.5
-9 1 -5 19.8 5.6
-9 5 1 27.2 8.3
-5 -1 -9 27.1 8.2
-5 9 -1 26.9 7.2
1 9 -5 12.8 7.6
-1 -5 9 42.2 10.1
-1 5 -9 26.7 8.3
1 -5 -9 9.9 7.8
1 5 9 25.1 10.3
5 9 1 28.9 8.2
9 -1 -5 20.8 7.9
-1 9 5 14.7 9.8
-9 1 -5 23.3 5.8
5 -9 -1 20.4 8.1
-1 -9 -5 4.9 7.1
-3 -5 -9 95.89 15.6
-9 -3 -5 72.09 13.5
-3 -9 5 53.19 14.4
-3 9 -5 65.49 12.7
5 -3 -9 65.59 16.4
3 -5 9 59.79 13.9
-9 5 -3 65.79 11.3
9 3 -5 88.99 14.5
3 5 -9 73.49 15.6
5 -9 3 76.59 13.6
-9 3 5 64.59 15.8
5 3 9 42.5 13.3
9 -5 -3 70.59 15.6
5 9 -3 82.19 15.5
3 -9 -5 84.19 15.5
9 5 3 72.49 13.3
-9 -3 -5 59.89 13.6
-5 3 -9 63.39 12.9
-5 -9 -3 74.09 14.4
-5 9 3 47.5 13.1
5 -9 3 75.19 12.9
-9 -5 -3 44.8 12.8
-9 5 3 62.89 15.1
-5 -3 -9 42.6 13.5
-3 -9 -5 105.89 16
3 -9 5 73.19 13.3
3 5 9 34.6 13.8
5 -9 -3 75.49 16.1
-3 9 5 86.49 16.4
9 5 -3 38.3 13.5
5 3 -9 51.29 15.2
9 -5 3 67.99 11
9 -3 -5 86.09 17.3
-3 -5 9 94.29 16.7
-3 5 -9 67.99 13
3 -5 -9 85.89 17.7
-9 3 -5 71.39 10.9
5 -3 9 79.99 13.5
-9 3 -5 66.69 10.8
-9 -5 -5 409.96 62.39
-9 -5 -5 450.95 62.89
-5 -9 -5 377.46 62.99
5 -5 -9 446.86 64.29
5 -5 9 376.66 61.29
-5 -5 -9 462.65 63.49
-5 5 -9 368.26 60.89
-5 5 9 533.95 67.99
5 -9 5 428.46 61.39
9 -5 -5 436.66 63.99
5 -9 5 416.46 61.19
1 -9 -7 201.58 31
1 -7 9 203.88 30.1
1 7 -9 143.69 29.2
-7 -9 -1 211.58 30.6
-9 7 -1 192.28 28.8
7 -9 1 197.18 29.6
7 -1 -9 154.98 30.4
-1 7 9 203.18 31
-1 -9 7 146.49 29.7
-7 -1 9 236.38 31.8
-9 -1 -7 172.68 29.3
-9 -1 -7 192.98 28.7
-7 1 -9 172.88 28.7
7 1 9 180.98 29.2
9 -7 -1 186.98 30.2
9 7 1 230.58 30.5
-7 9 1 197.48 30.1
-1 9 -7 161.98 29
7 -9 -1 186.98 30.3
-1 7 -9 162.28 29.4
-9 7 1 158.68 29.6
-1 9 7 121.89 31.9
9 -1 -7 212.38 32.4
9 -7 1 198.98 29.2
1 -9 7 176.08 29.5
-7 -9 1 216.38 30.6
9 7 -1 174.68 29.8
7 -1 9 163.18 28.8
-1 -7 9 186.38 30.5
-9 1 -7 182.88 28.5
-9 1 -7 184.28 28.1
-7 1 9 232.98 32.1
-7 9 -1 218.88 29.6
-7 -1 -9 164.48 29.5
7 -9 3 13.1 4.9
3 -9 -7 9.2 9.9
7 -9 3 20.9 6.3
-3 -7 -9 2.1 8.7
9 3 -7 20.1 9.6
-9 7 -3 20.1 5
-3 7 9 17.5 10
7 -3 -9 4.7 7.4
-3 9 -7 15.6 5.9
-7 9 3 18.9 8.2
-7 -3 9 12.4 8
-7 3 -9 10.8 5.4
7 3 9 18.5 7.9
9 -7 -3 17.8 8.9
3 7 -9 18 7
9 7 3 17.5 6.9
3 9 7 17 9
-9 -3 -7 17.9 6.6
-9 -7 3 10.4 6.9
3 -7 9 16.8 7
-9 -3 -7 17.7 7.9
-7 -9 -3 21.4 7.5
7 9 -3 4.1 6.2
3 -7 -9 28.4 9.4
-7 3 9 0.8 7.1
9 -7 3 14.1 4.6
3 -9 7 20.8 7.1
-9 -3 7 26 8.8
-9 3 -7 18.3 4.1
7 -9 -3 18.6 8.9
-3 -9 -7 7.6 7.2
3 9 -7 26 8.7
-3 9 7 7.3 7.1
9 7 -3 13.2 7.1
7 3 -9 16.8 9.2
-3 7 -9 21.4 6.8
7 -3 9 14.2 5.3
3 7 9 26.4 8.9
9 -3 -7 26.1 9.3
-9 7 3 16.2 9.1
-7 -3 -9 15.8 7.4
-9 3 -7 15.1 4.2
-7 -9 3 -0.7 7.8
-7 -9 -5 945.61 121.39
-5 -7 -9 1002.2 122.59
5 9 7 896.81 121.59
5 -7 9 850.51 119.29
-5 9 -7 822.42 118.89
-9 -5 -7 935.91 121.29
-7 5 -9 796.02 118.39
7 -9 5 810.42 118.49
-5 -9 7 851.91 121.49
9 -7 -5 692.63 120.89
-9 -5 -7 685.73 119.89
7 -9 5 801.32 118.59
-9 -5 7 753.72 120.89
-9 -7 -5 701.43 120.49
5 -9 7 819.72 119.19
-5 -7 9 916.01 121.59
7 -5 9 847.32 118.49
7 5 -9 990.9 122.09
-5 7 -9 847.32 119.09
7 -9 -5 696.33 120.89
-7 -9 -7 994.3 167.28
-7 -9 -7 1165.28 167.18
-7 -7 -9 1093.29 167.38
7 -9 -7 1203.68 168.08
7 -9 7 1247.68 164.68
7 -9 7 1146.09 164.48
7 -7 9 1221.88 164.58
7 7 9 1122.09 167.28
9 -7 -7 1156.48 167.98
-1 9 9 2291.87 331.47
9 -9 -1 2201.48 330.27
9 1 -9 2425.66 331.67
-9 1 -9 2568.34 329.97
-9 9 -1 2164.08 329.67
-1 -9 9 2223.08 330.77
-9 -9 3 428.06 76.69
-9 -3 -9 501.75 76.79
-9 3 -9 502.85 74.59
-9 3 -9 517.45 74.29
-9 3 9 619.14 78.39
-9 9 -3 555.74 74.99
-3 -9 9 530.95 77.79
-3 9 -9 571.84 75.99
3 -9 -9 426.96 77.39
3 -9 9 510.65 75.99
9 -9 -3 416.66 76.39
9 -9 3 551.44 74.99
9 -3 -9 524.25 78.29
9 9 -3 571.94 77.29
9 9 3 423.86 76.59
3 9 9 626.14 78.09
-9 5 9 7.2 9.3
-5 -9 -9 0.1 6.2
-5 -9 9 0.1 5.7
-5 9 -9 7.1 4.6
-5 9 9 -2.3 8.4
5 -9 -9 3.8 7
5 -9 9 1.3 4.4
5 9 -9 0.4 7
5 9 9 5.3 7.8
9 -9 -5 1.7 7.9
9 -9 5 2.2 2.4
9 -9 5 7.1 3.6
9 -5 -9 -1.6 9
9 5 -9 -1.9 7.4
-9 -9 -5 4 7.6
-9 -9 -5 11.1 7.5
-9 -9 5 -4.9 7.2
-9 -5 -9 1.4 6.1
-9 -5 9 5.3 9
9 9 -5 2.6 7.2
-9 9 7 9.7 9.3
-7 -9 -9 6.1 8.5
-7 -9 9 7.6 8.7
-7 9 -9 8.8 3.2
-7 9 9 4.3 6.9
7 -9 -9 1.5 9.2
7 -9 9 8.6 3.9
7 9 -9 11.2 7
9 -9 -7 12.9 9.7
9 7 -9 14.9 9.5
9 9 -7 4.4 6
-9 -9 -7 -1.1 7.6
-9 -9 7 -0.5 8
-9 -7 -9 7.4 8.3
-9 -7 -9 8.5 7
-9 -7 9 9.3 8.6
-9 7 9 16.5 10.1
-9 -9 9 779.82 134.59
-9 9 9 943.51 136.09
9 9 -9 1006.3 135.49
-9 -9 -9 968.6 135.69
0 -10 0 3250.57 503.85
0 -10 0 2594.24 498.15
-10 0 0 2516.15 465.35
10 0 0 3032.1 471.15
0 0 -10 2843.72 500.75
0 0 10 3434.26 509.05
0 10 0 3262.07 495.65
10 0 0 2808.92 484.95
2 -10 0 407.16 67.99
2 -10 0 377.66 67.19
10 0 -2 403.56 67.59
10 0 2 476.25 67.19
-10 2 0 433.56 67.39
-2 0 -10 558.34 68.79
0 -10 -2 496.55 69.09
0 -10 2 445.06 67.79
-10 0 2 390.26 67.99
-2 -10 0 448.06 68.09
0 -2 10 543.25 68.89
-10 0 -2 497.85 67.49
10 -2 0 521.95 67.49
10 2 0 445.76 67.59
0 10 -2 410.26 67.59
2 0 -10 505.25 69.39
2 0 10 476.65 68.59
-10 -2 2 863.21 132.39
-10 2 -2 973.1 131.49
-10 2 2 1028.7 132.79
-2 -2 -10 758.72 132.39
-10 -2 -2 965 132.29
2 -10 -2 1020.4 133.09
2 -10 2 909.51 132.19
2 -10 2 937.31 132.09
2 -2 10 975.4 132.79
10 2 2 882.21 131.99
10 2 -2 998.6 132.79
-2 2 -10 769.12 131.99
10 -2 -2 786.12 131.99
10 -2 2 951.7 131.39
-4 0 -10 29.9 8.8
4 -10 0 13.2 7.7
-10 4 0 20.3 7.5
0 -10 -4 13.7 7.3
0 -10 4 17.8 7.5
0 10 -4 12 6.9
4 0 -10 5.5 7.3
4 10 0 9 7.6
-10 -4 0 13.8 8.5
4 0 10 16.8 8.4
10 -4 0 17.4 7
10 4 0 10.7 7.5
-10 0 -4 29.1 7
-10 0 4 25.5 9.3
-4 10 0 16.7 7.6
0 -4 -10 14.4 9.2
0 -4 10 17.2 8.6
0 4 -10 15.2 7.7
10 0 -4 21.6 9.2
10 0 4 20.8 6.4
10 4 2 13.1 7.5
4 -2 -10 3.7 7
4 2 10 6.2 6.9
10 -4 -2 7.1 7.3
4 10 -2 11.1 7.7
2 -10 -4 6.7 8.3
-4 2 -10 9.3 6.8
-2 10 -4 16.6 6
10 2 -4 12.3 7.9
10 -2 4 11.8 4.6
-10 -2 -4 11.7 6.1
-10 4 -2 9.9 5.5
-10 2 4 11 8.9
-4 -10 -2 20.2 7.7
-4 10 2 13.3 7.9
-2 -4 -10 8.6 8.4
4 -10 2 11.9 7.1
4 -10 2 9.8 5.5
2 -4 10 4.4 6.7
2 4 -10 11.2 8
-2 -10 -4 2 6.2
-10 2 -4 12.3 4.8
-10 4 2 6 7.1
2 10 -4 11.9 7.3
4 -10 -2 1.2 7.2
-2 -4 10 4.4 7.8
-2 4 -10 6.4 6.4
10 -2 -4 19 8.4
-10 -4 -2 7.9 6.8
10 2 4 12.3 5.6
2 -10 4 10.2 5.8
4 -2 10 11.8 7.4
4 2 -10 11 7.3
2 -4 -10 10.1 8.9
10 -4 2 13.2 5
10 4 -2 3.9 7
-4 -2 -10 9.5 5.8
2 4 10 6.9 6.6
4 -4 10 5.2 6.5
-10 -4 -4 -2.6 5.1
-10 4 4 1.2 7.4
-4 -10 -4 6 5.9
-4 -10 -4 3.1 5.2
4 4 -10 0.4 7.3
4 4 10 2 7.3
4 10 -4 2.6 5
10 -4 -4 5 7.8
10 -4 4 3 2.6
10 4 -4 -2.2 7
10 4 4 -0.5 4.2
-4 4 10 -0.6 6.2
4 -10 4 3.7 4.7
4 -4 -10 0.4 6.4
-4 -4 -10 2.7 10
-4 4 -10 4.3 5.6
-4 10 4 1.2 7
4 -10 -4 4.7 8.4
4 -10 4 4.1 4.9
-10 4 -4 5.1 3.7
0 -10 -6 11.4 9.2
-6 10 0 6.5 6.4
0 -6 -10 -0.1 6.4
0 -6 10 2.2 6.9
-6 0 -10 2.8 6.1
-6 0 10 3 6.7
0 10 -6 -1.6 5.4
0 10 6 11.7 7.3
-6 -10 0 6.3 5.8
-10 6 0 1.5 5.8
0 -10 6 0.1 5.9
0 6 -10 2.6 6
0 6 10 -2.4 5.6
6 -10 0 6.6 7.2
-10 0 -6 7.9 5.2
6 0 -10 1.6 8.5
6 0 10 8.6 6.3
10 -6 0 -2.4 5.4
10 6 0 6.3 5.6
-10 0 -6 2.7 4.6
6 10 0 -3.4 4.6
10 0 -6 3.9 6
-6 10 2 80.89 15.4
-2 -6 -10 81.29 15.7
6 -10 2 79.19 14.2
6 2 10 54.39 14.1
-10 -2 -6 60.79 13.9
-10 6 -2 71.29 12.9
2 -6 10 75.29 15.1
-6 2 -10 57.29 13.4
6 -10 2 68.69 13.1
6 10 -2 90.29 15.1
2 -10 -6 59.79 15.2
2 6 -10 44.6 14
-2 6 10 112.49 18.8
10 2 -6 47 15
10 -6 -2 51.69 14.2
-2 -10 6 53.59 14.3
-2 10 -6 78.49 14.4
-6 -10 -2 86.19 15
2 10 6 95.39 15.6
-10 -2 -6 83.69 13.7
2 -10 6 63.49 14.6
-6 2 10 76.89 16.2
-6 -10 2 71.49 14.3
2 6 10 83.39 17.2
6 -10 -2 75.49 15.9
-6 -2 -10 57.09 14.4
-10 2 -6 69.89 12
2 -6 -10 86.79 18.3
6 -2 10 51.89 13.7
6 2 -10 85.99 15.7
10 -6 2 58.39 12.2
-2 10 6 34.4 14.3
-10 6 2 52.29 14
10 6 -2 65.19 15.7
-10 2 -6 83.39 12.6
10 -2 -6 52.19 15.6
-2 -6 10 85.39 15
-2 6 -10 64.29 13.7
6 4 10 84.39 19.4
10 -6 -4 110.39 20.8
-10 -4 -6 109.99 18.3
-10 -4 -6 97.69 18.2
-6 -10 -4 88.89 18.7
-4 -6 -10 149.29 20.9
-6 -10 -4 108.49 20
6 -10 4 103.69 17
10 4 -6 85.39 20
-10 -6 4 88.29 19
-6 -4 10 112.29 20.1
10 6 4 101.09 19.2
-6 4 -10 101.79 17.4
-4 -10 6 63.79 19.1
6 -10 4 99.79 17.3
-4 10 -6 96.99 17.1
4 -10 -6 73.79 19
6 10 -4 96.89 19.8
-10 6 -4 102.89 15.3
4 -6 10 105.09 18.3
6 4 -10 125.99 19.9
10 -4 -6 104.59 19.8
4 6 10 99.79 20.8
-4 10 6 81.19 20
4 -10 6 96.39 17.8
6 -4 10 105.89 17.5
6 -10 -4 97.09 20.3
-10 6 4 90.19 19.9
-10 4 -6 117.79 14.9
-6 4 10 139.09 23.3
-6 -10 4 104.49 20.6
-4 -6 10 57.59 20.7
-4 6 -10 98.99 17.4
-10 -4 6 85.39 20.2
-10 4 -6 103.39 14.8
10 -6 -6 507.15 87.49
-10 -6 -6 688.23 87.79
-6 -10 6 685.23 88.19
-6 -6 -10 630.34 88.29
-6 6 -10 524.15 85.19
6 -10 6 564.04 85.39
6 6 -10 621.54 88.09
-6 -10 -6 590.64 87.19
6 -10 -6 499.45 87.79
6 -6 10 598.24 85.59
6 -10 6 624.04 85.59
-10 8 0 2041.5 318.97
10 -8 0 2484.35 319.57
10 8 0 2104.09 319.97
0 -8 10 2148.29 319.97
-8 0 -10 2292.97 319.47
0 -10 8 2094.69 319.67
8 -10 0 2364.16 319.77
8 0 10 2348.86 319.27
8 2 10 1499.35 225.18
2 8 -10 1637.54 225.98
8 -10 2 1661.23 224.88
10 2 -8 1350.16 225.98
10 8 2 1815.62 226.38
-10 -2 -8 1545.95 225.38
-10 -2 -8 1789.32 225.28
8 -2 -10 1823.82 227.48
-8 2 -10 1581.24 224.48
-10 8 2 1608.54 225.68
-8 -2 -10 1377.26 225.38
2 -10 8 1557.44 225.28
-2 8 -10 1419.26 224.78
8 -2 10 1698.93 224.48
10 -2 -8 1392.76 226.08
-10 2 -8 1484.35 223.98
2 8 10 1714.93 226.78
8 -10 -2 1584.34 225.88
10 -8 2 1483.35 224.08
-8 10 -2 1520.35 224.38
-10 2 -8 1480.35 223.68
8 -10 4 177.18 25.2
-10 -4 -8 175.78 27.4
-8 4 -10 168.18 24.8
-4 -8 -10 125.39 28.4
8 -10 4 159.38 24.4
8 -4 -10 161.88 29.9
4 -8 10 166.68 26.1
4 8 -10 172.68 28.1
-8 -4 10 186.78 29.7
8 4 10 139.39 28.7
-4 10 -8 153.48 25.4
-10 4 8 142.29 29
4 -10 -8 151.88 29.1
-8 -10 -4 136.79 26.8
10 -8 -4 177.18 28.5
8 -10 -4 181.88 28.7
-8 4 10 221.78 30.9
-10 -4 8 169.98 29.2
-10 4 -8 155.68 23.2
-10 4 -8 175.58 23.2
-8 -4 -10 170.08 27.6
-8 -10 4 161.98 28.5
8 -4 10 165.08 24.6
8 4 -10 131.79 27.1
4 -10 8 135.29 25.7
-4 -8 10 120.49 26.4
-4 8 -10 150.18 25.5
4 -8 -10 188.08 28.7
10 -4 -8 143.49 29.3
-4 -10 -8 115.09 28
10 -8 4 162.58 23.7
10 -8 4 155.28 23.4
4 10 -8 210.48 28.5
-6 -8 -10 7.5 8.9
-8 10 6 9.3 8.3
10 6 -8 10.1 7.3
-10 -8 6 4.5 6.7
-8 -10 -6 14.7 8.1
-6 10 -8 6.5 4
8 -10 6 14.6 4
8 -6 -10 1.4 7.1
6 -8 10 9.7 4.9
8 6 10 10.2 7.8
10 -8 -6 6.1 8.9
8 -10 6 8 3.3
8 10 -6 6.8 7.5
-10 -6 -8 2.8 6.8
-6 8 10 8.9 7.8
-10 6 8 12.4 9.7
-8 -10 -6 9.9 6.7
-6 -10 8 2.8 6.2
-8 6 -10 11.5 3.4
-10 -6 -8 6.3 6
-8 -6 10 2.5 9.1
6 8 -10 12.8 8.8
6 -10 -8 6.7 9.5
-10 -8 -6 4.8 6.9
-10 -8 -6 4 7.5
10 8 -6 13.6 8.5
8 -6 10 8.8 3
-10 8 6 8.7 8.9
-6 10 8 0.6 6.3
6 10 -8 6.5 6
8 6 -10 -7.4 6.5
6 -10 8 13 4.8
-8 6 10 6.8 9.8
-6 -10 -8 9.7 9.2
-8 -6 -10 16.1 7.5
-10 -6 8 4.6 8.7
-8 -10 6 5.2 6.1
-6 -8 10 4 8
-6 8 -10 7.9 4.3
6 -8 -10 11.3 7.8
6 8 10 14.7 8.8
8 -10 -6 8.4 8.9
10 -6 -8 12.8 10.6
10 -8 -8 206.38 31.4
-10 -8 -8 170.68 28.7
-10 -8 -8 195.28 29
-10 8 8 139.49 29.7
-8 -10 -8 232.08 31.1
-8 -10 -8 183.88 28.6
-8 -10 8 117.09 28.5
-8 -8 10 202.48 30.3
-8 8 -10 162.98 24.3
-8 8 10 145.39 29
-8 10 8 118.19 29.1
8 -10 -8 145.89 30
8 -10 8 173.88 24.6
8 -8 -10 189.48 31
10 8 -8 135.39 28.7
10 10 0 1953.4 257.47
0 10 -10 1510.65 256.07
0 10 10 1926.61 257.87
10 0 -10 1908.21 257.97
-10 0 -10 1699.93 256.07
-10 0 -10 1695.73 255.37
-10 0 10 1916.41 258.27
-10 10 0 1830.32 256.27
-10 -10 0 1702.13 256.97
-10 -2 -10 1699.23 219.48
-10 2 -10 1630.24 217.68
-10 10 -2 1629.24 217.98
-2 -10 10 1339.77 219.18
-2 10 -10 1585.34 218.68
-2 10 10 1400.36 219.68
2 -10 10 1373.76 218.38
10 -10 -2 1415.06 218.88
10 -2 -10 1462.95 220.18
10 2 -10 1664.83 220.38
10 -10 -4 282.87 45.9
10 -10 4 297.67 42.5
10 -10 4 290.07 42
10 -4 -10 319.97 46.6
10 4 -10 359.56 47.1
-4 10 10 298.57 46.7
4 -10 10 259.87 43.7
4 10 10 286.27 45.3
-10 4 10 295.47 47.2
-4 -10 -10 235.08 45.1
-10 -4 10 246.38 45.2
-10 4 -10 284.97 42
-10 4 -10 302.27 41.8
-4 10 -10 293.17 43.6
-4 -10 10 260.07 45.7
6 -10 -10 38.8 13.1
-6 10 10 37.3 11.8
-6 -10 10 57.89 14.4
-6 10 -10 51.69 9.6
10 10 -6 56.39 12.8
-10 -10 -6 56.89 13.9
-10 -10 -6 33.5 11.1
-10 -10 6 37.4 11.2
-10 -6 -10 47.2 12.5
-10 -6 10 37.1 13.1
-10 6 10 23.9 12.4
-10 10 6 51.79 13.4
-6 -10 -10 38.4 13
6 -10 10 37.3 9.2
6 10 -10 33 10.5
6 10 10 17 10.8
10 -10 -6 54.49 14.5
10 -6 -10 57.29 14.5
10 6 -10 30.1 11.5
-10 8 10 659.23 99.29
-10 10 8 741.53 99.59
-8 -10 -10 648.44 97.79
-8 10 10 759.22 100.19
8 -10 -10 726.23 99.09
10 -10 -8 658.73 98.99
10 -8 -10 559.24 98.49
-10 -10 -8 562.94 97.29
-10 -10 -10 1159.78 170.18
-10 -10 10 1157.58 171.18
-10 10 10 1016.3 170.98
10 10 -10 1347.07 171.08
1 -11 1 821.72 120.49
-1 -11 1 831.92 120.39
-1 1 -11 970.7 121.09
-1 -11 1 710.43 119.99
-11 1 -1 692.23 119.29
-11 1 1 828.82 120.19
-1 -11 -1 746.43 120.29
-11 -1 -1 759.72 119.89
-11 -1 1 962.3 120.79
11 1 -1 816.32 120.19
11 1 1 914.01 120.09
11 -1 -1 909.51 120.19
-11 3 -1 103.19 16.7
-3 1 -11 99.29 17.6
11 -3 -1 85.49 17.1
11 3 1 90.29 17.1
1 -3 11 105.09 18.4
-1 -11 3 58.79 16.6
1 -11 -3 111.09 19.1
11 -1 3 97.39 15.6
11 1 -3 74.99 17.2
3 -1 -11 85.59 17.8
3 -11 1 94.99 16.4
3 1 11 94.79 18.2
3 -11 1 86.59 17.4
-11 1 3 73.39 17.9
-3 11 1 98.39 17.6
-1 -3 -11 66.29 16.6
-11 -1 -3 84.09 15.9
-1 -11 -3 115.89 19.6
-11 -3 -1 82.49 17.3
1 -11 3 73.39 16.4
-3 -1 -11 79.79 17.6
-1 -3 11 109.19 19.2
-1 3 -11 70.59 17.8
1 -3 -11 82.29 19
3 -11 -1 87.79 17.8
11 3 -1 99.69 17.4
3 -1 11 99.79 18
-11 1 -3 75.89 15.3
11 -1 -3 71.99 17.5
1 11 -3 63.99 16.5
11 1 3 81.89 15.9
11 -3 1 99.19 15.9
-11 3 1 96.79 18.3
3 11 -3 198.48 36.4
11 -3 3 240.88 34.6
3 -3 11 253.07 37.1
11 -3 -3 209.98 36.5
3 3 11 231.08 37.4
11 3 -3 173.28 36.3
11 3 3 224.28 36
3 -11 -3 264.17 37.9
3 -11 3 253.67 36.7
3 -11 3 250.07 36.1
-11 -3 -3 178.78 35.6
-11 3 -3 233.38 34.9
-11 3 3 279.67 37.8
3 3 -11 196.28 37.1
-3 -11 -3 271.57 37.3
-3 -3 -11 225.88 37.4
-3 3 -11 266.07 36.6
1 5 -11 3.7 7.1
1 -5 11 -0.9 6.7
-11 -1 -5 3.4 4.9
-5 -11 -1 0.1 5.2
-11 5 -1 -1.3 5.1
-5 11 1 -0.1 6.4
-1 -5 -11 5.8 8.5
-5 1 -11 5.9 6
-1 5 11 8.8 8.7
5 -1 -11 -3.2 8.5
5 1 11 -4.4 6
11 -5 -1 0.6 5.7
1 11 5 -7.5 6.6
11 5 1 4 5.5
5 11 -1 2.2 5.3
5 -11 1 2.2 5.9
-5 -1 11 -3 8.2
-1 -11 5 2.8 6.2
-1 11 -5 -3.4 4.9
1 -11 -5 5.6 6.5
11 1 -5 0.5 5.6
-5 -1 -11 6.3 6.9
11 5 -1 -3 6.6
-5 1 11 4.2 7
-1 -5 11 -0.7 7.1
1 11 -5 2.7 6.1
-5 -11 1 2.7 7.3
-1 -11 -5 0.6 5.9
1 5 11 -1.1 7.9
-11 1 -5 -2.5 4
1 -5 -11 13.3 10
-1 5 -11 -3.3 6
5 1 -11 -1 6.2
-1 11 5 11.8 8
5 -11 -1 -1.2 6.3
1 -11 5 2.2 5.8
11 -5 1 2.9 4.7
-11 5 1 -2.4 6.6
11 -1 -5 -1.6 7.4
5 -1 11 3.6 6.8
5 3 11 -2.4 6.6
11 -5 -3 5.3 7.3
3 -5 11 4.8 6.3
-11 5 -3 4.9 4.3
5 11 -3 1.7 5.3
11 5 3 -0.2 6
-5 -3 11 4.3 7.1
-5 3 -11 2.4 6
3 -11 -5 5.6 8.7
-5 -11 -3 1.9 5.6
-5 -11 -3 3 7.1
5 -3 -11 -0.9 9
-11 -3 -5 -6.7 4
11 3 -5 -7.9 6.2
-3 -5 -11 -1 5.8
-3 5 11 1.9 8.9
5 -11 3 -4.6 5.1
5 -11 3 0.5 5.2
-11 -5 3 -4.3 7.3
-3 11 -5 -0.5 4.4
-5 -11 3 -2 6.6
5 3 -11 -1.1 5.5
-5 -3 -11 7.4 7.4
3 -5 -11 -0.9 8.9
3 -11 5 -2.7 4.9
3 11 -5 7 7
-11 5 3 1.8 7.1
11 -5 3 -1.4 3
11 -3 -5 -3.5 7.3
-11 -3 5 1.7 5.8
5 -3 11 -4 5.5
-5 3 11 1.1 6.8
-3 -11 -5 1.2 6.1
-3 5 -11 -2.3 5.5
5 -11 -3 -4.5 7.1
-3 11 5 0.8 5.5
-11 3 -5 -5.8 2.9
11 5 -3 -3.3 6.7
-5 -11 -5 117.29 22.3
-5 -11 5 93.29 22.5
-5 -5 -11 137.99 24
5 11 -5 176.18 23.9
-5 -5 11 146.89 25.7
5 5 11 164.18 25.6
-11 -5 5 91.49 23.6
11 -5 -5 125.49 24.9
5 -5 11 136.09 22.4
-11 5 -5 147.99 19.5
5 -11 -5 144.99 25.6
5 -11 5 126.19 21.9
5 -11 5 114.49 21.4
5 -5 -11 169.88 25
-5 11 5 103.19 23.6
-5 5 -11 129.59 22
1 -7 11 881.41 141.49
1 7 -11 1003.2 141.79
7 1 11 992.6 141.69
11 -7 -1 841.82 140.99
1 -11 -7 1135.89 143.39
-11 -1 -7 936.91 140.59
1 11 7 1104.79 142.69
-7 1 -11 912.01 140.79
7 -11 1 900.01 141.19
-1 11 -7 887.61 140.99
11 1 -7 974.7 142.49
7 -1 -11 1149.39 143.69
-11 7 -1 960.8 140.69
-11 -1 -7 898.91 140.69
-1 7 11 1132.69 143.09
-7 11 -1 1077.79 141.19
-7 1 11 1054.29 143.49
1 11 -7 803.82 140.99
-11 -7 -1 902.61 141.79
11 -1 -7 1031.4 142.69
1 -11 7 842.22 140.99
-11 1 -7 984.4 140.39
-11 1 -7 969.5 140.19
7 -1 11 864.71 140.69
11 -7 1 1028.9 140.69
-11 7 1 992.7 141.39
-7 -1 -11 1065.99 142.09
7 -11 -1 995.6 141.89
7 11 1 1091.39 142.29
11 7 -1 1015.2 141.99
7 -11 3 472.55 67.09
-3 7 11 369.86 69.29
11 -7 -3 389.86 68.39
3 -7 11 500.85 68.39
7 3 11 494.95 68.99
-11 7 -3 470.55 66.39
7 -11 3 547.85 67.99
3 11 7 383.56 68.79
7 -3 -11 484.05 69.69
-11 -3 -7 370.66 67.49
-11 -7 3 474.35 68.89
11 7 3 406.86 68.09
-3 11 -7 467.55 67.69
-3 -11 7 429.66 68.69
-7 3 -11 458.05 67.29
3 -7 -11 544.35 70.09
-11 -7 -3 420.26 68.39
3 -11 7 380.66 67.29
11 -7 3 472.05 66.19
-7 -11 3 462.15 68.79
-11 -3 7 380.76 68.49
-7 -3 -11 542.75 69.59
7 -3 11 453.55 67.19
-11 3 -7 470.85 66.09
-11 3 -7 484.85 65.99
-3 7 -11 441.46 67.49
7 3 -11 483.25 69.49
7 -11 -3 473.55 69.19
-7 3 11 571.34 71.29
-7 -11 -5 1.2 7.4
11 -7 -5 9.7 8.6
-11 -7 5 -0.8 5.6
7 5 11 7.3 7.5
7 -5 -11 1.4 9.5
-7 5 -11 0.7 3.9
7 11 -5 1.1 6.8
-7 -5 11 1.4 6.5
5 -7 11 2.3 5.3
5 7 -11 8 7.8
-5 -11 7 -3.2 9
11 5 -7 -1.6 7.4
5 -11 -7 3.7 10.2
-11 -5 -7 1.3 5.7
-11 5 7 2.7 6.7
-7 -11 -5 3 5.3
7 -11 5 -0.2 3.4
-5 7 11 14.3 10.1
-7 11 5 -7.1 6.5
7 -11 5 1.2 4.2
5 -7 -11 -1.9 6.4
-5 -11 -7 3 6.4
7 5 -11 -3.4 5.3
-5 11 7 3.5 6.4
7 -5 11 5.1 4.4
5 7 11 5.1 6.4
7 -11 -5 -1.3 8.3
-11 -5 7 1 5.8
-5 7 -11 1.5 4.3
-7 5 11 5.4 7.6
11 -5 -7 -0.6 8.6
11 7 -5 8.4 7.9
-7 -5 -11 -3.2 6.9
-11 -7 -5 0.5 5
-11 -7 -5 2.1 6.6
5 11 -7 5.7 7.2
5 -11 7 1.3 4.4
-7 -11 5 0.4 7.7
-5 -7 11 3.2 6.7
7 -11 7 12.7 4.6
-7 7 -11 8.8 4.4
7 -11 -7 9.5 9.6
-11 -7 -7 12.2 6.6
-7 -11 -7 14.2 9.6
-7 -11 -7 6.8 5.9
-7 -11 7 12.4 7.3
-7 -7 -11 3.3 7.7
-7 -7 11 16.6 8.2
-7 7 11 6.2 7.7
-7 11 7 9.5 9
7 -7 11 9.6 4.6
7 7 -11 7.2 8.1
7 7 11 1 7.2
7 11 -7 8.1 7.7
11 -7 -7 7.1 7.7
11 7 -7 9 8.6
-11 -7 7 7.8 9
-11 7 7 7.1 7.4
-11 -7 -7 6.3 6.8
7 -7 -11 13.4 8.3
7 -11 7 7.3 4.2
-9 -1 11 1367.06 230.78
11 -9 -1 1758.12 230.48
1 -9 11 1592.94 230.48
-11 -1 -9 1712.23 230.08
-11 -1 -9 1449.46 229.18
-1 11 -9 1561.94 229.88
-1 -9 -11 1823.12 232.08
-9 1 -11 1474.75 229.38
9 1 11 1606.34 229.98
11 9 1 1607.84 230.78
1 -11 -9 1336.67 231.08
9 -11 1 1772.32 230.08
-11 9 -1 1645.84 229.58
-11 9 1 1438.96 229.78
-9 -1 -11 1675.93 230.58
-1 -11 -9 1333.17 230.88
-11 1 -9 1545.55 229.08
-1 11 9 1476.15 230.98
1 -11 9 1645.04 230.58
1 11 -9 1872.41 230.78
9 -1 11 1555.64 229.18
-9 11 -1 1781.22 229.88
-1 9 -11 1829.72 230.58
9 -11 -1 1580.34 230.38
-3 -9 -11 953 129.89
9 -11 3 889.51 126.39
-11 9 -3 831.12 126.19
-3 11 -9 837.52 127.19
-9 3 -11 798.22 126.29
3 -11 -9 796.82 129.09
9 -11 3 814.62 126.79
3 11 9 910.51 128.99
3 -9 11 997.6 128.29
9 3 11 811.62 127.89
11 -9 -3 783.42 128.19
9 -3 -11 1025.7 130.39
3 -11 9 922.11 127.69
-3 11 9 979.4 129.39
-11 3 -9 800.82 125.69
11 -9 3 889.31 126.19
11 -3 -9 760.22 128.89
-3 -9 11 868.91 128.79
-3 9 -11 840.32 127.29
-11 3 -9 871.51 125.69
-9 -3 -11 1002.2 129.09
9 -3 11 847.42 126.29
-11 -3 9 971.6 129.89
-11 -9 -3 1012.6 129.09
-5 11 -9 57.39 12.4
-5 -11 9 46.7 15.3
5 11 9 74.49 15
9 -5 -11 42.8 14.3
-11 -5 -9 89.09 15.6
-9 -11 -5 29.8 13.2
-5 -9 -11 49.5 14.6
5 -11 -9 73.59 15.9
9 -11 5 60.89 10.8
5 -9 11 82.99 13.8
-11 -9 5 63.79 14.7
9 -11 5 65.29 11.5
9 11 -5 29.8 13.2
-5 9 11 68.69 17
-9 5 -11 58.39 10.8
-9 -5 11 104.19 16.9
5 9 -11 74.69 16.2
11 -9 -5 66.39 15.9
-9 5 11 60.19 17
-5 -9 11 93.59 17.6
-11 -5 9 63.69 15.7
11 -5 -9 54.09 15.9
9 -5 11 63.49 10.5
9 5 -11 54.19 15.9
-5 9 -11 65.39 12.3
-11 -9 -5 58.89 14.7
-5 11 9 92.69 18.1
5 -11 9 64.79 12.7
5 11 -9 37.1 13.4
11 9 -5 38 13.3
-5 -11 -9 84.09 18.1
-11 -9 -5 53.09 14.2
5 -9 -11 64.09 16.3
5 9 11 80.69 16.8
9 -11 -5 58.89 15.7
-9 -5 -11 84.19 16.1
11 7 -9 157.78 29.4
11 -9 -7 154.68 31
9 11 -7 148.09 28.6
-11 -9 7 173.68 30.1
-7 9 11 108.69 30.2
9 -7 -11 115.29 30.6
7 -9 11 180.68 26.7
-9 -7 11 187.08 31.5
-9 7 -11 162.48 25
-9 -11 -7 132.09 29.9
-9 -11 -7 166.88 29.1
-7 -11 9 235.08 32.3
-9 11 7 186.18 31.1
-11 7 9 136.79 31
-7 -9 -11 221.38 32.5
-11 -7 -9 185.98 29.5
7 9 -11 220.58 30.4
-9 7 11 218.08 32.8
7 -11 9 187.48 26.8
-11 -9 -7 183.08 30.3
9 -11 -7 188.88 30.6
11 -7 -9 163.78 30.4
-11 9 7 180.28 31.5
-7 -11 -9 163.68 29.8
-9 -11 7 207.78 30.6
-7 11 9 206.88 31.1
-7 -9 11 199.68 30.6
-7 9 -11 164.18 26.3
7 -9 -11 126.99 29
9 7 -11 201.68 30.1
-11 -9 9 767.12 104.19
-11 9 9 598.54 103.59
-9 -11 -9 665.53 103.99
-9 -9 11 757.52 103.99
-9 9 11 789.42 105.29
-9 11 9 628.54 103.89
9 -11 -9 722.93 103.99
11 -9 -9 640.14 104.09
11 9 -9 704.53 103.29
-11 11 -1 1672.73 222.68
-1 -11 11 1481.65 223.58
-1 11 -11 1741.63 223.48
-11 1 -11 1468.05 221.48
-11 -11 -1 1569.44 223.88
-11 -1 -11 1600.24 223.28
-11 -1 -11 1475.25 221.98
-11 1 -11 1402.66 222.08
1 -11 -11 1301.37 224.08
1 11 -11 1729.03 223.58
11 -11 -1 1700.43 223.58
11 -11 1 1651.43 222.58
11 1 -11 1510.65 224.18
11 11 -1 1388.46 223.48
-11 -11 -3 1281.87 170.08
-11 -3 11 1134.39 170.08
-11 3 -11 1072.29 166.58
-11 3 11 1268.27 170.58
11 3 -11 1005.8 169.68
-11 11 -3 1055.79 167.08
-3 -11 -11 1259.37 170.98
-3 -11 11 1226.58 170.28
-3 11 -11 963.2 167.78
-3 11 11 1285.17 170.58
3 -11 -11 1261.77 170.48
11 -11 -3 1019.6 168.98
11 -3 -11 1312.87 170.88
11 11 -3 1240.18 169.78
11 11 3 1233.18 169.68
-11 -5 11 287.67 39.9
-11 5 -11 213.48 33.9
-11 5 -11 255.47 34
-5 -11 -11 255.97 39.3
-5 -11 11 193.88 38.2
-5 11 -11 223.58 36.3
-5 11 11 160.68 38.7
5 -11 -11 207.98 39.9
5 -11 11 226.58 36.9
5 11 -11 297.67 39.7
11 -11 -5 246.68 39.8
-11 -11 -5 267.67 39.5
-11 -11 -5 279.77 39
-11 -5 -11 198.88 38.2
11 11 -5 270.17 38.7
7 11 -11 814.32 106.39
7 11 11 869.21 106.89
11 -11 -7 665.53 106.19
11 -7 -11 839.72 107.99
-11 -7 11 810.92 106.89
-11 11 7 582.44 105.59
-7 -11 11 577.94 105.29
-7 11 -11 694.93 102.79
7 -11 -11 733.73 106.99
-11 -7 -11 566.74 105.09
-11 -7 -11 711.63 105.09
-11 -11 -7 840.92 106.69
-11 -11 -7 640.54 105.19
9 -11 -11 725.03 119.79
11 -11 -9 816.12 120.79
11 -9 -11 789.52 120.69
11 9 -11 799.42 119.79
-11 -11 -9 898.41 119.79
-11 -11 9 873.31 120.49
-11 -9 -11 639.94 118.39
-11 -9 11 951.2 120.99
-11 11 9 898.71 121.19
-9 -11 -11 745.03 119.99
-11 -11 -11 886.81 147.99
11 -11 -11 1004.7 149.88
11 11 -11 1165.18 149.59
-12 0 0 2377.86 369.16
0 0 -12 2227.58 384.46
0 -12 0 1518.35 358.16
12 0 0 1864.71 365.26
12 0 0 2228.88 356.36
-12 0 2 232.48 40.5
-2 -12 0 196.58 40.2
0 -2 -12 257.77 41.4
0 -2 12 232.78 41.1
-12 0 -2 295.47 40.1
2 -12 0 260.47 40.9
2 -12 0 195.08 39.1
12 0 -2 240.38 40
12 0 2 285.57 39.5
0 -12 -2 255.57 40.6
0 -12 -2 246.18 41.4
0 -12 2 258.77 40.6
0 -12 2 318.67 42.5
2 0 -12 336.97 42.7
2 0 12 302.17 41.6
12 -2 0 287.67 39.7
12 2 0 246.78 40.1
-12 2 0 242.58 39.6
-12 -2 0 234.88 40
12 -2 2 73.39 13.6
12 -2 -2 66.29 15
-2 2 12 110.09 19.4
2 -12 -2 41.2 14.5
-12 -2 -2 85.79 15.1
-12 2 -2 76.19 14.8
-12 2 2 55.89 14.6
-2 -12 -2 85.99 17.5
-2 -12 -2 48.4 14.8
-2 -2 -12 87.09 17.6
-2 2 -12 80.69 16.2
2 2 -12 55.39 14.7
2 -12 2 59.39 15.3
2 -12 2 70.29 14.8
2 -2 -12 71.79 15.8
2 -2 12 96.49 17.4
2 12 -2 84.59 15.8
12 2 2 70.69 14.8
12 2 -2 68.89 15.9
-4 0 -12 104.59 17.8
-4 0 12 142.79 21.9
12 4 0 78.09 17.6
0 12 -4 67.09 16.2
-12 4 0 103.19 17.9
0 -4 -12 63.09 17.7
0 -4 12 101.39 19.4
0 4 -12 110.09 18.8
4 -12 0 85.99 18
4 0 -12 94.69 20.2
4 0 12 91.69 18.2
12 -4 0 88.59 16.8
-12 0 -4 83.29 16
0 -12 -4 106.69 19.9
0 -12 4 70.39 16.8
12 0 4 91.29 16.1
0 12 4 81.89 18.6
12 0 -4 79.59 18.6
2 4 -12 7.1 6
-4 -12 -2 8.6 6.1
2 -12 -4 16.2 9.6
12 4 2 4.6 6.7
-4 -12 -2 0.6 7.6
4 -12 2 7.9 7.5
-2 -4 -12 2.2 6.4
2 -4 12 0.6 7.2
12 -2 4 3.7 4.2
-12 -4 2 1.3 7.3
-12 4 -2 6.8 6
-4 -2 12 -0.9 8.5
-4 2 -12 2.9 6.4
-2 4 12 -7.7 8.8
4 -2 -12 20.6 10.5
4 2 12 5.1 7.9
12 2 -4 -0.2 7.1
-12 -2 -4 0 4.9
4 12 -2 9.1 6
12 -4 -2 3.1 6.4
4 -12 2 1.7 5.8
2 12 -4 7.5 7.1
-4 -2 -12 11.4 8.2
2 4 12 6.2 6.6
-12 2 -4 -2 4.2
-2 -12 -4 4.4 7.4
-2 -12 -4 6.4 6.9
2 -12 4 4.2 6.1
12 -2 -4 3.1 7.2
-12 4 2 3.9 7.2
-4 2 12 -2 9.2
-12 -2 4 4.7 7.6
4 -2 12 6.4 7.9
4 2 -12 5.6 6.8
2 -4 -12 -0.3 8.3
4 -12 -2 9.2 8
-2 12 4 8.5 7.8
-4 -12 2 6.8 7.7
12 2 4 2.4 5.3
-2 4 -12 8 7
12 4 -2 4.5 7.1
12 -4 2 8.9 4.9
12 -4 -4 7.5 7.7
12 -4 4 2 3.1
4 4 -12 4.2 6.1
4 4 12 1.2 7.2
-4 4 -12 1.3 5.5
-4 4 12 1.6 6.8
4 -4 -12 2.5 6.8
4 -4 12 9.5 7.4
4 12 -4 1.3 6.8
-4 -4 -12 1.2 7.6
-4 12 4 -1 5.4
4 -12 -4 0.6 8.5
4 -12 4 1 5.8
4 -12 4 -0.3 5.4
-12 4 -4 -2 4.4
12 4 4 0.7 5.6
12 4 -4 4 7.8
-4 -12 -4 -1.1 5.8
-12 -4 4 1.5 7
-4 -12 -4 0.2 5.2
-4 -12 4 -0.5 5
6 0 12 292.47 43.4
12 -6 0 334.47 42.7
-12 6 0 349.67 43.3
0 -12 -6 223.58 43.5
-12 0 -6 273.37 41.9
0 12 6 232.48 43.1
0 -6 12 300.77 44.3
0 6 -12 308.27 43.7
-12 0 6 253.07 43.5
6 12 0 245.28 42.8
12 0 -6 227.78 43.8
6 -2 -12 34.3 12.8
2 -6 12 36.8 11.3
2 6 -12 37.1 11.7
6 -12 2 34.1 9.6
-12 -6 2 45.2 11.4
-12 6 -2 34.1 8.4
-2 12 -6 30 9.2
-6 -2 12 16.3 11.2
-6 2 -12 37.1 9.9
-6 -12 -2 25.8 10.5
-2 -12 6 34.8 10
12 -6 -2 39.3 10.6
2 -12 -6 20.8 11.6
12 6 2 34.6 10.5
-12 -2 -6 26 8.8
6 -12 2 35.3 8.8
6 12 -2 25.7 9.1
12 2 -6 33.9 10.3
6 2 12 32.1 10.3
-2 6 12 10.7 10.7
-12 2 6 31 10.6
-2 -6 -12 28.4 11.5
-6 -12 -2 36.5 10.7
12 6 -2 22.2 9.8
2 12 -6 41.3 10.4
6 -2 12 29.1 9.2
-12 2 -6 38.3 8.2
12 -2 -6 23.7 9.7
-6 -2 -12 38.7 10.8
-2 12 6 15.8 10.3
12 -6 2 36.6 8.1
2 -12 6 36.7 9.9
-2 6 -12 45.9 11
-6 -12 2 34.9 11.5
-2 -6 12 21.2 10.5
6 2 -12 54.19 13.6
2 -6 -12 36 12.5
2 6 12 57.09 12.3
6 -12 -2 35.9 11.3
-12 -2 6 21.6 11.1
-6 2 12 17.8 11.6
-2 -12 -6 15.6 8.9
-12 -6 -2 21 9
-12 2 -6 43.1 8.3
-6 4 -12 9.2 6.5
-6 -4 12 -0.4 8.6
-6 12 4 8.2 8.1
-12 4 6 3.6 8.7
4 6 -12 0 7
6 -12 4 3.9 4.9
12 4 -6 9.1 6.7
-4 -12 6 -0.6 5.5
-12 -4 -6 1.9 5.4
12 6 4 3.7 6.5
4 -6 12 6 6.7
-6 -12 -4 2.5 7.9
-6 -12 -4 3.9 7.1
-12 6 -4 8.1 4
4 -12 -6 8.1 9.6
6 -4 -12 8.3 10.1
12 -6 -4 9.1 8.4
-12 -6 4 6.4 8.5
-4 -6 -12 3.3 8.5
-4 6 12 7.4 9.7
6 12 -4 4.9 5.6
6 4 12 7.5 7.5
6 -12 4 4.8 5.2
-6 4 12 6.4 10.2
6 -4 12 10.2 6.2
-6 -4 -12 9.5 8.3
12 -4 -6 12.4 9.5
-4 -12 -6 -2.3 5.8
-4 -12 -6 1 5.2
-4 12 6 6 6.2
-4 6 -12 4.1 5.6
4 -12 6 7.4 5.7
4 -6 -12 9.5 7.9
4 6 12 8.1 8.4
6 -12 -4 8.2 8.7
-4 -6 12 2.7 8.4
4 12 -6 6.5 5.9
-12 -4 6 4.3 8.2
6 4 -12 1 8.1
-6 -12 4 -0.5 5.5
-12 -6 -4 8.4 7.4
12 6 -4 4.2 5.6
-12 4 -6 4.9 3.4
-12 4 -6 3.5 3.1
12 -6 4 4.8 2.5
-6 -12 -6 36.9 13
-6 -6 -12 17.6 11
-6 6 -12 35.6 8.6
6 6 12 22.9 9.8
6 12 -6 14.2 8
-12 -6 -6 30.4 9.7
-12 -6 6 45.9 12.7
-6 -6 12 46.7 13.1
-6 -12 6 29.2 10
6 -6 -12 54.89 12.7
-6 6 12 15.7 9.7
-6 12 6 40.8 11.6
-6 -12 -6 51.39 10.9
-12 6 6 42.3 12.8
6 -12 -6 50.19 13.3
6 -12 6 36.6 9.1
6 -12 6 28.7 7.9
6 -6 12 34.4 8.8
6 6 -12 29.9 11.3
12 -6 -6 29.2 11.6
12 6 -6 33 11.5
-12 8 0 1137.29 185.38
12 8 0 1300.47 186.68
12 -8 0 1419.66 185.98
-12 0 -8 1273.17 185.38
0 12 -8 1452.95 186.58
0 12 8 1388.66 187.68
8 0 12 1277.27 185.98
-12 0 -8 1335.27 185.18
-8 -12 0 1332.57 186.78
0 -8 -12 1193.28 187.08
8 -12 0 1129.89 185.88
8 12 0 1374.06 186.68
-12 -8 0 1389.96 187.28
-8 0 -12 1283.37 186.28
-8 0 12 1085.69 186.78
0 -12 -8 1280.27 187.48
8 2 12 374.26 62.09
2 12 8 459.35 63.49
-2 12 -8 391.56 61.79
8 12 -2 501.35 63.89
12 -8 -2 482.35 63.09
-12 2 8 386.66 63.79
-8 2 -12 410.46 61.69
8 -12 2 433.46 61.99
12 2 -8 342.27 62.99
12 8 2 338.37 62.29
-2 -8 -12 418.86 63.89
2 -8 12 391.86 62.59
-12 -2 -8 394.46 62.19
-12 -8 2 400.56 63.39
-12 8 -2 417.66 61.09
-2 -8 12 353.66 62.79
2 12 -8 500.45 63.39
8 -12 -2 330.77 62.39
8 -2 12 432.66 61.59
8 2 -12 466.55 63.89
-12 -2 8 392.56 63.69
-8 -12 2 438.06 63.09
-2 8 -12 386.76 61.89
-12 2 -8 392.86 60.69
-12 2 -8 428.56 60.49
-8 -2 -12 504.75 63.79
-2 12 8 460.65 63.69
-2 -12 -8 522.15 65.39
-8 2 12 360.86 63.29
2 -12 8 409.36 62.09
12 8 -2 399.86 62.59
12 -8 2 391.96 60.59
8 12 -4 97.69 18
-8 -12 -4 48.3 14.8
-8 4 -12 85.69 14.5
4 8 -12 56.49 16.1
4 12 8 52.79 16
8 -4 -12 100.09 18.2
8 4 12 90.89 17
12 -8 -4 79.49 17.7
-12 4 8 95.09 19.3
12 8 4 82.59 15.6
4 -12 -8 68.79 18.6
-8 -4 12 103.89 17.9
4 -8 12 82.89 15.8
8 -12 4 74.29 14.4
8 -12 4 85.59 13.8
-4 -8 -12 54.99 17.3
-4 -12 8 89.19 17.9
-4 12 -8 79.49 14.6
12 4 -8 90.99 18
-12 -4 -8 74.49 16.2
-12 8 -4 78.89 12.4
-8 4 12 74.49 19.1
4 12 -8 82.09 15.6
8 4 -12 55.39 16.5
12 -8 4 83.49 11.9
-8 -12 4 54.29 15.4
-12 4 -8 78.09 11.6
-4 -12 -8 44.3 16.3
-4 -8 12 102.89 19.3
-4 8 -12 58.89 14.6
4 -12 8 52.69 14.5
8 -12 -4 96.29 19
-4 12 8 82.39 16.5
-12 -8 -4 46.7 15.2
-12 -4 8 80.49 16.8
-8 -4 -12 44.6 15.6
-12 4 -8 78.29 11.5
4 -8 -12 79.69 17.2
8 -4 12 79.89 13.7
12 8 -4 84.59 17.4
12 -4 -8 43.6 16.7
-8 6 -12 -1.3 3.4
6 -12 -8 6.1 7.2
-6 -12 8 -0.8 7.4
12 6 -8 -0.2 5.6
8 6 12 -1.6 4.7
-12 6 8 -5.6 8.2
-12 -8 6 -0.7 5.7
6 -8 12 3 4.9
-6 8 12 7.9 9.8
-8 -6 12 -5.3 8.4
-8 -12 -6 -0.4 7.1
12 -8 -6 3.3 9.2
-12 -6 -8 2.4 5.2
-8 12 6 -3.8 6.9
8 -12 6 -1.5 2.9
8 -6 -12 1.4 7
8 12 -6 0.8 6.8
-6 -8 -12 -0.2 8.3
-8 -12 -6 -1.3 7.2
8 -12 6 1.4 3.3
-12 -8 -6 -1.8 6.8
6 -8 -12 1.8 6.6
6 8 12 -0.7 7.2
-12 -6 8 0.2 7.7
-6 -12 -8 0.5 5.1
-12 8 6 -0.8 9
12 8 -6 0.2 6.9
8 -12 -6 4.7 8.3
-6 12 8 3.9 8.4
-8 -6 -12 -1 5.6
-6 8 -12 -0.4 4.2
6 -12 8 3.2 4.5
6 12 -8 -1.4 6.7
-6 -8 12 1.9 6.3
12 -6 -8 3.7 7
8 -6 12 1.3 3.6
8 6 -12 -0.6 7.7
6 -12 8 2.8 4.3
-8 6 12 2.9 8.5
-8 -12 6 -1.7 4.9
-12 -8 -6 7 7.4
-6 -12 -8 -2 6
-12 -8 8 16.1 8.9
-12 -8 -8 17.3 7.4
-12 -8 -8 19.1 8.1
-8 8 -12 13.5 4.5
-8 8 12 16.1 9.4
-8 12 8 3.3 8.6
8 -12 -8 14 10.5
-8 -8 -12 20.8 8.8
12 -8 -8 24.7 11.7
12 8 -8 5.2 7.7
8 8 12 23.8 10.1
8 12 -8 8.3 8.1
-12 8 8 19.1 10.1
-8 -12 -8 12.2 9.7
-8 -12 -8 10.1 8.2
-8 -8 12 2.6 8.7
8 8 -12 5.5 8.2
-8 -12 8 11.6 7.7
8 -8 -12 23.8 11.9
-12 -10 0 1570.84 223.88
-12 10 0 1558.94 222.78
-10 0 -12 1301.77 222.48
0 -10 12 1496.25 223.68
0 10 -12 1292.97 222.68
10 -12 0 1601.64 223.18
-12 0 -10 1562.64 221.88
-10 12 0 1476.25 222.98
10 12 0 1799.22 224.18
12 0 -10 1598.84 224.68
-12 0 -10 1350.86 222.08
12 -10 0 1561.64 222.88
0 -12 -10 1798.52 225.28
0 -12 10 1450.35 223.28
0 12 -10 1773.82 223.68
0 12 10 1420.76 223.88
10 0 -12 1808.42 224.88
2 10 -12 935.11 152.58
2 -10 12 1152.88 153.08
-2 -10 -12 950.5 153.78
-10 -12 -2 1238.68 153.88
-2 12 -10 919.11 151.88
12 -10 -2 991.1 152.78
-12 -2 -10 985.5 152.38
-10 -2 12 1185.68 154.48
-10 2 -12 1090.89 151.58
10 -12 2 1149.78 152.08
12 10 2 1206.38 153.48
-12 -10 2 934.71 152.98
-12 10 -2 966.8 151.18
2 -12 -10 1263.37 155.38
2 10 12 939.91 153.08
-10 12 -2 1081.29 151.78
-2 -10 12 968.5 153.38
10 -12 -2 921.61 152.58
12 10 -2 1050.49 153.38
-10 -2 -12 1028.1 152.88
12 -2 -10 1230.28 154.58
2 -12 10 948.71 152.28
-12 2 -10 959.6 150.88
10 2 -12 1078.69 154.18
-10 -12 2 1130.99 153.78
-2 10 -12 977.2 151.98
-2 -12 -10 1069.79 154.08
-12 2 -10 1163.88 150.88
10 -12 4 316.77 48.2
-4 -12 10 369.16 52.29
10 12 -4 386.76 51.59
-12 -4 -10 246.18 49.9
-4 -10 -12 329.97 51.99
4 12 10 387.06 52.19
4 -10 12 292.17 49.8
-10 4 -12 334.27 48.5
-10 -12 -4 289.97 50.49
-10 -12 -4 343.17 51.29
4 -12 -10 368.16 53.09
12 -10 -4 382.96 52.39
-4 12 -10 296.17 49.3
-12 4 10 345.17 52.99
10 -12 -4 373.86 52.69
-12 4 -10 343.17 47.3
-4 10 -12 301.07 49.4
-10 -12 4 257.87 50.39
-4 -10 12 283.97 50.89
4 -12 10 310.67 49.99
4 10 12 304.47 50.99
-10 4 12 393.36 53.79
-12 -4 10 333.37 51.69
-4 -12 -10 373.06 53.19
-10 -4 -12 315.57 51.29
10 4 -12 379.46 52.29
12 10 -4 359.96 51.29
-12 4 -10 294.77 47.2
4 -10 -12 383.26 52.69
4 12 -10 288.67 50.29
-12 6 10 112.79 25.4
-10 -12 -6 128.69 25.4
6 -10 12 163.98 23.6
6 10 -12 133.49 25.8
6 12 10 143.59 25.2
-12 -6 -10 107.19 24.4
10 12 -6 160.58 25.2
12 6 -10 139.19 25.2
-6 10 12 179.28 27.1
-10 12 6 143.79 26.4
-12 -10 6 110.29 25.6
10 -6 -12 125.89 27.7
12 -10 -6 130.89 26.7
-6 12 -10 139.09 22.6
-10 -6 12 114.29 25
-12 -6 10 149.79 25.9
-10 -6 -12 171.48 26.8
12 -6 -10 126.99 27.4
-10 6 12 195.78 29.5
-6 -12 -10 169.18 27.8
-6 12 10 95.19 25.6
6 -12 10 160.38 23.3
12 10 -6 186.18 26.7
10 -12 -6 106.89 26.2
6 -10 -12 105.69 26.6
6 10 12 173.28 26
-12 10 6 125.09 26.2
-12 -10 -6 120.49 24.3
-6 10 -12 138.19 22.8
-12 -8 -10 449.86 68.19
-12 -10 8 343.27 67.99
8 -12 -10 501.35 70.29
10 12 -8 493.95 69.19
-10 12 8 475.35 69.59
12 -10 -8 440.56 70.09
-12 10 8 474.45 70.39
10 -12 -8 498.25 70.39
-8 -12 -10 454.45 68.79
-10 -8 -12 407.56 68.29
-8 10 -12 477.75 65.49
8 -10 -12 452.55 69.59
12 -8 -10 549.25 71.69
-12 -10 -8 347.07 67.59
10 12 -10 872.91 110.69
12 -10 -10 779.42 110.89
12 10 -10 612.54 108.89
-10 -12 10 834.12 110.79
-10 -10 -12 808.12 110.99
-10 -10 -12 800.92 109.79
-10 10 12 729.43 111.19
10 -12 -10 688.53 110.09
10 -10 -12 645.54 110.19
-12 -10 -10 598.44 108.59
-12 10 10 792.12 111.19
-12 0 -12 1649.63 224.08
-12 0 -12 1607.94 224.88
0 -12 12 1642.24 225.88
0 12 -12 1393.56 224.98
0 12 12 1679.43 226.68
12 -12 0 1708.03 225.18
-12 0 12 1425.66 225.98
-12 -12 0 1376.46 225.28
-12 12 2 657.33 90.39
-2 -12 -12 572.34 91.19
-12 2 -12 704.53 87.89
-12 2 12 476.15 89.99
-12 12 -2 650.03 88.59
12 -12 -2 628.54 90.09
12 2 -12 472.15 89.89
12 12 2 519.05 89.29
-12 2 -12 719.53 88.69
-2 -12 12 555.14 90.09
-2 12 -12 645.84 89.59
2 -12 -12 511.55 90.29
-12 -12 -2 494.05 89.59
-12 -12 2 688.83 91.09
-12 -2 -12 697.53 90.59
4 -12 12 265.07 40.6
4 12 -12 301.17 42.1
12 -12 -4 265.97 42.2
12 -4 -12 309.47 44
-12 -4 -12 197.98 40.7
-12 -4 -12 239.68 40.1
-12 -4 12 310.27 43.7
-12 4 -12 268.27 38
-12 4 -12 268.07 37.7
-12 4 12 251.37 43.3
-12 12 4 246.48 41.6
-4 -12 -12 195.58 41.2
-4 12 -12 243.08 39.9
4 -12 -12 255.97 42.5
-12 -12 -4 226.28 40.7
-6 12 -12 264.67 44
-6 -12 12 269.67 47.2
-12 -12 -6 329.17 47.5
-12 -12 -6 334.17 47
-12 -12 6 323.07 48
-12 -6 -12 266.87 45.7
-12 -6 12 313.07 47.5
-12 12 6 283.87 47.6
-6 -12 -12 376.06 49.2
12 -6 -12 235.58 47.4
12 6 -12 360.36 48.1
6 -12 12 267.97 44.3
12 -12 -6 295.97 47.9
12 12 -6 235.68 45.4
-12 -12 -8 409.06 72.19
-12 -12 -8 493.45 72.89
-12 -12 8 454.95 72.79
-12 -8 12 538.45 74.29
-12 8 12 526.85 74.89
-12 12 8 484.95 73.49
-8 -12 -12 400.56 72.59
8 -12 -12 441.86 73.59
12 -12 -8 387.66 72.39
12 -8 -12 488.65 73.69
12 8 -12 582.24 73.99
12 12 -8 527.15 73.19
12 -10 -12 624.84 86.39
12 10 -12 573.84 84.89
12 12 -10 539.45 84.09
-12 -12 -10 554.74 84.29
-12 -12 10 472.95 84.09
-12 -10 -12 572.04 85.19
-12 -10 -12 615.54 84.69
-12 -10 12 602.74 85.59
-12 10 12 459.45 84.29
-10 -12 -12 628.74 85.69
-10 -12 -12 478.55 83.29
10 -12 -12 497.95 84.59
12 -12 -10 549.35 85.09
-12 -12 -10 658.43 85.89
-12 -12 -12 302.97 57.89
12 -12 -12 400.76 61.19
12 12 -12 425.96 58.89
13 -1 -1 1363.56 193.28
13 1 -1 1484.35 193.68
13 1 1 1466.45 193.18
1 -13 1 1207.88 193.28
-13 1 -1 1392.86 192.98
-1 -13 -1 1419.46 193.68
-1 -13 1 1306.77 193.78
-1 -1 -13 1328.07 193.88
-1 -1 13 1180.18 193.78
-1 1 -13 1263.47 193.78
1 -13 -1 1527.55 194.68
13 -1 1 1168.08 192.38
13 -3 -1 0.9 6.2
-3 -13 -1 -4.2 4.7
1 -13 -3 -3.7 7.5
3 -13 1 -6.1 6.4
3 -13 1 4 6
1 3 -13 -1 5.6
-13 3 -1 2.6 6.3
-3 -1 13 3.3 8.7
13 3 1 -1.6 6.1
3 -1 -13 2 9.3
-1 3 13 2 6.9
-3 -13 -1 2.3 7.3
-3 1 -13 2.8 7.1
-1 -13 3 0.7 6.3
13 -1 3 -0.5 4.4
13 1 -3 4.8 7.1
-1 -3 -13 -1 10.1
-1 13 3 2.4 5.4
1 -13 3 4.8 7
-3 -1 -13 1 6.8
13 3 -1 2.8 5.2
13 -3 1 0.2 5
-1 -13 -3 7.7 7.1
-1 -13 -3 1.7 6.8
1 3 13 -0.1 8.5
1 -3 -13 7.9 8.8
-3 1 13 3.1 7.1
-1 -3 13 1.3 9
1 13 -3 3 6.3
13 1 3 1.1 5.6
-13 1 -3 -5 4.5
-1 3 -13 -2.3 7.2
3 -1 13 9.3 8.1
3 1 -13 -3.8 8.6
-3 -13 1 -1.2 5
3 -13 -1 1.4 7.3
13 -1 -3 5.5 6.9
-13 -3 3 130.99 32.3
3 -13 3 196.08 31.7
3 -3 -13 265.37 34.4
3 -3 13 204.98 33.1
13 3 3 204.08 32.4
3 3 13 263.47 34.5
3 -13 3 197.58 32.4
-3 -3 13 156.78 33.5
-3 3 -13 197.08 33
13 -3 3 200.88 30.6
13 3 -3 198.98 33.1
3 13 -3 168.58 32.1
13 -3 -3 194.18 32.7
3 3 -13 239.88 35.5
-3 13 3 222.08 33.2
3 -13 -3 152.98 33.1
-3 -13 3 172.18 32.4
-13 3 -3 237.88 31.6
-13 1 5 33.1 11.8
-5 -13 -1 49.1 12.1
-5 -13 -1 71.29 14.4
13 -5 -1 49.8 11.2
-13 -1 -5 46.9 10.6
13 5 1 47.1 12.4
1 5 -13 84.19 14.8
-1 13 -5 37 10.4
-5 -1 13 72.29 15.5
-5 1 -13 41.7 11.3
13 -1 5 34.5 8.7
1 13 5 22.4 11
5 -1 -13 46.3 12.3
5 -13 1 34.8 11.2
-13 -5 1 44.5 12
5 1 13 39.2 14
5 13 -1 33.3 10.4
1 -5 13 42.1 12.4
1 -13 -5 58.39 15
-1 5 13 38.5 12.1
-1 -5 -13 34.2 11.8
5 -13 1 51.29 10.9
-13 5 -1 57.09 12
-1 -13 5 33.7 10.9
13 1 -5 50.09 12.8
-13 -1 5 17.2 11.4
-13 1 -5 50.69 10.4
13 1 5 51.19 10.1
13 -1 -5 37.3 12.4
-5 -1 -13 41.1 11.4
-5 1 13 36.8 12.3
-1 -13 -5 17.5 11.2
-1 13 5 31.1 10.9
1 13 -5 41.8 11.6
5 -1 13 41.7 11.4
5 1 -13 14.5 11.5
13 -5 1 45.3 10.3
13 5 -1 48.5 11.8
-13 -5 -1 41.2 12.1
1 5 13 40.5 11.9
5 -13 -1 25.3 11.1
1 -5 -13 61.09 14.6
-5 -13 1 42.1 11.3
-1 -5 13 38.2 12.3
-1 5 -13 33.8 11.4
13 3 -5 184.28 37.8
13 -3 5 236.78 34.7
-13 -5 3 186.28 37
5 -13 3 261.67 37.5
5 -13 3 265.37 36.7
13 5 3 241.58 37.6
-3 5 13 179.58 38.9
-5 3 -13 243.48 37.3
-13 3 5 259.17 39.2
-5 -13 -3 206.58 38.1
3 -13 -5 210.68 38.7
3 -5 13 228.98 37.5
-3 -13 5 259.37 38.2
-5 13 3 196.98 37.4
-13 5 -3 266.47 36.1
5 3 13 180.58 37.2
13 -5 -3 197.58 37
-3 -5 13 217.48 37.8
3 -13 5 218.28 36.9
3 13 -5 232.98 37.6
5 -3 13 285.47 38.1
5 3 -13 222.98 38.4
5 -13 -3 242.78 38.1
13 -5 3 253.77 35.3
-13 3 -5 228.38 35.4
-13 -3 5 208.98 38
3 -5 -13 244.48 39.4
13 -3 -5 199.58 38
3 5 13 309.07 39.2
-3 -13 -5 259.37 38.5
3 -13 5 249.18 37.5
-3 13 5 191.38 37.7
-13 -5 -3 275.97 38.1
13 5 -3 232.48 37.8
-5 -3 -13 277.77 39.1
-3 5 -13 241.38 37.2
13 3 5 239.38 36.9
-5 -5 -13 177.08 28.4
-13 -5 5 170.48 27.7
-13 5 -5 145.59 22.6
-5 -13 -5 172.58 28.3
13 -5 -5 129.59 26.9
13 -5 5 155.18 22.1
13 5 -5 124.59 26.3
13 5 5 136.99 25.6
5 -13 5 167.28 25.5
5 -13 5 161.38 24.8
5 -5 13 180.88 25.7
-5 -5 13 168.38 28.5
5 5 13 155.78 27.3
-5 5 13 136.59 27
-5 13 5 105.49 26.3
5 -13 -5 164.48 28.3
-5 5 -13 120.49 24.5
5 13 -5 117.49 25.8
1 13 7 245.48 36.9
1 -13 -7 246.28 38
-13 7 -1 223.88 34.3
-7 1 -13 208.08 35
-13 -1 -7 190.58 34
1 7 -13 182.38 35.2
7 -1 -13 244.18 38.1
13 7 1 174.88 35.5
-13 -1 -7 209.88 34.4
-1 -13 7 270.37 36.8
-1 13 -7 188.98 34.7
-7 -1 13 223.78 36.6
13 -7 -1 236.58 35.6
-13 -7 1 150.48 35.2
7 -13 1 186.78 35.1
7 1 13 209.88 35.3
13 7 -1 283.57 36.5
1 7 13 287.17 38.3
-13 1 -7 224.58 33.9
1 -7 -13 236.68 37.8
-1 -13 -7 249.38 38.2
-7 -1 -13 206.18 35.6
7 -1 13 228.18 35.2
13 -7 1 207.88 33.9
-1 -7 13 207.58 36.5
-1 7 -13 276.07 36.2
-13 -7 -1 179.48 35.5
-13 7 1 228.78 36.1
-7 1 13 285.97 38.9
-13 -1 7 174.58 36.3
-13 1 -7 207.88 33.7
1 13 -7 246.28 35.9
7 -13 -1 246.48 36.6
-13 3 7 26.7 13.1
-3 -7 -13 30.4 12.3
-13 -7 3 60.79 13.6
7 3 13 44.4 15.3
-7 -13 -3 34.4 11.9
7 -13 3 61.59 12.7
3 -7 13 43.3 12.3
3 7 -13 24.7 12
-13 -3 -7 45.7 11.9
3 13 7 26.1 12.2
7 -3 -13 37.3 13
-7 -3 13 70.79 16.1
-7 -13 -3 83.19 14.2
3 -13 -7 61.19 15.7
-13 7 -3 70.79 11.3
7 -13 3 58.69 11.8
7 13 -3 63.19 14.4
-3 -13 7 48.8 12.6
13 3 -7 58.19 13.9
13 7 3 71.59 14.6
13 -7 -3 49.9 13.8
-3 7 13 70.29 15.2
-3 13 -7 55.49 12.1
-7 3 -13 74.09 14
13 -3 -7 36.3 13.6
-3 13 7 40.3 12.6
3 -13 7 49.1 12.6
3 13 -7 26.3 11.4
-13 -3 7 93.99 17.4
13 7 -3 65.39 14.4
-7 3 13 19.4 12.9
3 -7 -13 35.6 14.5
-7 -13 3 76.89 14
3 7 13 49.7 13
7 -13 -3 58.89 14.8
7 -3 13 64.29 12.8
-7 -3 -13 33.2 12.6
-3 -13 -7 68.39 16.1
13 -7 3 57.59 9.9
-13 3 -7 55.09 9.9
-13 -7 -3 40.1 12.5
-3 -7 13 34.2 13.3
-3 7 -13 53.19 12.3
-13 3 -7 63.29 10.5
5 -7 13 148.89 26.4
7 13 -5 107.29 26.9
-7 -5 13 178.88 29.8
-7 5 -13 162.98 26.3
-5 -13 7 153.28 28.2
5 -13 -7 173.88 29.9
7 -13 5 164.48 26.2
7 5 13 152.18 28
13 -7 -5 172.68 29.3
-13 5 7 156.78 29.3
-5 7 13 183.08 31
-13 -7 5 170.08 29.2
-5 -7 -13 201.48 30.6
7 -13 5 167.58 25.7
-7 13 5 129.49 26.8
5 7 -13 204.08 29.6
-13 -7 -5 179.38 27.3
-5 -13 -7 178.48 28.5
-5 -13 -7 159.78 27.9
5 -13 7 159.68 26.2
-5 7 -13 157.88 26.2
5 -7 -13 147.69 29.3
7 5 -13 195.98 30.1
5 13 -7 149.19 26.9
5 7 13 185.78 29.6
-7 5 13 188.18 29.3
-7 -5 -13 133.79 28.5
-5 13 7 146.89 28.4
7 -13 -5 163.48 29.2
5 -13 7 159.58 26.3
7 -5 13 135.09 25.6
13 -5 -7 99.79 28.1
-13 -7 -7 232.48 44
-13 -7 7 274.17 45
-13 7 7 252.37 45.7
-7 7 -13 283.77 42.5
-7 7 13 319.37 47.5
-7 13 7 293.07 45.6
7 -13 -7 328.07 46.3
7 -7 13 252.97 42.4
7 7 -13 278.97 44.9
-7 -13 -7 255.17 44.8
-7 -13 7 354.56 46.4
-7 -7 -13 305.77 46.4
7 -13 7 323.67 42.9
7 -7 -13 280.67 45.4
-13 -7 -7 328.47 45.1
7 13 -7 218.38 44.1
13 -7 -7 238.08 45.5
-1 -13 9 745.33 124.19
-1 13 -9 952.8 124.39
9 -1 -13 944.01 126.19
9 1 13 683.73 123.29
-9 1 -13 800.82 123.39
-13 -9 1 872.91 125.19
-1 9 13 887.91 125.69
9 -13 1 870.51 123.89
9 13 -1 870.31 124.69
-13 -1 -9 751.72 123.19
-13 -1 -9 890.41 123.29
13 9 1 919.81 124.89
-1 -9 -13 823.12 125.69
1 13 9 955 125.59
-13 9 -1 853.91 123.19
-9 -1 13 769.92 125.19
-9 -13 -1 844.32 124.79
13 -9 -1 838.52 123.89
1 13 -9 990.9 124.89
9 -13 -1 813.02 124.19
9 -1 13 957 123.69
9 1 -13 787.12 124.59
-9 1 13 892.51 125.69
-13 -1 9 1013.5 125.99
-13 1 -9 757.32 122.69
-13 1 -9 796.62 122.39
-13 9 1 754.82 123.69
13 -9 1 790.92 122.79
13 9 -1 931.71 125.19
-9 13 -1 835.72 123.59
-1 -9 13 782.12 124.69
-1 9 -13 891.01 124.29
1 9 13 849.12 124.99
-9 -1 -13 833.12 124.19
13 -9 -3 95.89 18.6
3 -13 -9 78.99 18.6
9 -3 -13 115.19 22.1
-3 9 13 131.69 20.1
13 9 3 81.29 18
9 -13 3 91.59 15.3
-3 -9 -13 112.79 21.7
3 -9 13 77.29 18.3
-13 -9 3 67.59 18
-13 -3 -9 83.99 17.7
-9 3 -13 106.89 17
9 -13 3 91.79 16.8
9 3 13 92.79 17.9
-3 -13 9 53.89 17.4
-3 13 -9 85.79 16.8
-13 3 9 104.19 19.4
-9 -3 13 56.29 18.7
-13 9 -3 91.89 15.1
13 9 -3 58.29 17.3
-3 -9 13 59.19 17.7
13 -3 -9 90.39 20.6
-3 9 -13 94.39 17.5
-13 -9 -3 56.19 16.4
-9 -3 -13 98.29 18.8
-13 3 -9 82.49 14.6
-9 3 13 57.29 19
-3 -13 -9 74.79 19.4
3 -9 -13 89.39 18.9
3 -13 9 80.09 16.8
3 13 -9 113.49 19
-13 3 -9 87.09 14.3
-3 13 9 106.39 20.2
-13 -3 9 64.89 18.3
9 -13 -3 111.69 20.2
3 9 13 122.79 20.7
9 3 -13 75.49 19.3
-9 -13 3 73.19 18.6
9 -3 13 83.19 15.8
13 -9 -5 5.7 8.6
-5 -13 9 4.9 6.4
9 -5 -13 2 7.5
-13 -5 -9 0.2 6.6
-13 5 9 -5.7 8.6
-9 -13 -5 -2.1 7.4
-9 -13 -5 4.7 5.9
-9 5 -13 3.2 4.9
-9 13 5 -0.1 7.2
-5 -9 -13 1.9 6.7
-5 9 13 2.4 8.9
-9 -5 13 3.5 7
5 -9 13 -0.3 5.6
9 -13 5 2.8 4
9 -13 5 1.6 3.5
9 13 -5 -0.7 7.1
13 5 -9 1 5.9
9 5 13 4.6 7
5 9 -13 -1.4 5.3
-13 -9 5 -4.9 7.4
5 -13 -9 1.9 6.7
-5 13 -9 -0.6 4.4
-9 -5 -13 3.8 7.7
13 -5 -9 2.6 8.9
-5 -13 -9 6 7.3
-9 -13 5 1 7.8
-9 5 13 -4 6.2
-13 -5 9 4.9 6.8
9 5 -13 -6.6 5
5 13 -9 3.1 5.5
5 -13 9 3 5.4
-5 -9 13 2 6.5
-5 9 -13 2.1 5
5 -9 -13 1.1 9
13 9 -5 6.1 6
5 9 13 -0.1 7.4
9 -13 -5 5.6 8.8
-13 -9 -5 -2.6 4.5
-5 13 9 5.5 8
-13 7 9 2.7 7.2
9 7 13 5.4 7.8
7 -13 -9 1.1 7.3
-9 -7 13 4 7.2
-9 13 7 0 8.3
-7 -9 -13 5 7.4
-9 7 -13 7.6 3.8
9 13 -7 5.6 8
-13 -7 -9 5.9 7.3
-13 -7 -9 4 6
-7 -13 9 0.2 5.8
-9 -13 -7 3.6 6.9
-9 -13 -7 6.4 7.3
-7 9 13 5.7 7.7
7 -9 13 -3.6 3.8
7 9 -13 3.3 8.4
13 -9 -7 7.9 9.1
13 7 -9 7.5 8.9
-13 -9 7 5.3 6.5
9 -7 -13 12.2 8.8
7 -13 9 6.2 4
-13 9 7 11.4 9.8
7 -9 -13 -1.7 9
9 -13 -7 0.5 6.7
7 13 -9 1.7 7.3
9 7 -13 -0.6 7.4
7 9 13 1.4 6.1
-9 7 13 8.6 10.5
-9 -7 -13 4 8.4
13 -7 -9 5.3 9.9
-13 -9 -7 13.8 8.2
-13 -7 9 11.9 8.8
-7 -9 13 0.8 8.8
13 9 -7 -0.1 5.6
-9 -13 7 3.6 6.2
-7 -13 -9 4.9 8.7
-7 13 9 -0.9 8.2
-13 -9 -7 1.5 6.9
-7 -13 -9 2.2 7.3
13 9 -9 234.88 36.1
13 -9 -9 214.38 37.4
9 9 -13 275.07 37.4
-9 -13 -9 224.08 36.8
-13 -9 -9 177.58 35.6
-13 -9 -9 253.57 36.1
-13 9 9 218.48 37.5
-9 9 13 197.28 36
-9 9 -13 195.28 30.8
9 -13 -9 216.88 37.4
-9 13 9 147.79 34.4
-13 11 -1 940.61 146.69
-13 -1 -11 1004.8 146.79
-11 13 1 1079.29 148.19
13 -11 -1 972.7 147.79
-11 1 -13 1031.7 147.19
-1 -13 11 944.61 148.19
13 1 -11 1128.39 149.49
-13 -1 -11 1016.5 147.59
1 -11 13 1010.6 148.19
1 11 13 1022.4 149.09
-1 -11 13 891.31 148.29
11 -13 -1 874.61 147.49
11 1 -13 1022.9 149.19
11 13 1 1164.98 148.59
13 -1 -11 1057.09 149.39
-1 11 -13 1067.19 147.99
-11 1 13 964.9 149.19
-13 1 -11 1009.2 146.19
-11 -13 1 1161.38 149.29
-11 13 -1 1104.79 147.49
13 11 -1 941.61 148.29
-13 11 1 1030.3 147.89
-11 -1 -13 1028 148.19
1 -13 11 909.71 147.79
11 13 -3 159.48 31.4
-3 11 13 220.98 33.8
-3 13 -11 195.98 30.4
3 -11 13 230.28 32.5
3 11 -13 248.08 33.1
13 -11 -3 191.58 32.2
13 11 3 185.28 31.5
-3 -11 -13 201.98 33
13 3 -11 130.29 30.5
-13 -3 -11 194.08 30.4
-11 -13 -3 148.49 30.3
-13 -11 3 218.48 33.2
-3 -13 11 125.69 30.8
-11 3 -13 173.48 32.3
-11 13 3 213.28 34.7
3 13 11 225.38 32.2
-13 11 -3 169.68 31.7
11 -13 3 173.68 28.3
-13 -3 -11 184.18 31.7
-3 -13 -11 134.49 31
-11 3 13 212.58 34.3
3 13 -11 222.08 31.9
13 -3 -11 175.88 32.3
-11 -3 -13 152.78 30.9
-3 11 -13 179.58 29.8
13 11 -3 203.08 31.3
-13 3 -11 185.48 28.3
-13 3 -11 193.58 28
-11 -13 3 120.99 31
-3 -11 13 174.88 32.5
11 -13 -3 225.48 32.8
-13 -3 11 157.38 31.2
-13 11 3 200.08 32.2
-13 -11 -3 266.47 35.9
3 11 13 125.89 31.4
5 13 11 36.3 13
-13 5 11 22.7 12.4
-11 -13 -5 59.89 13.5
-11 -13 -5 36.7 11.1
-11 13 5 39 12.8
-5 -11 -13 19.5 12.2
-5 13 -11 43.3 10.1
-13 -11 5 34.8 11.8
5 11 -13 40.6 12.6
-11 -5 13 39.7 13.5
11 13 -5 12.5 10.1
13 5 -11 44.7 12
-11 5 -13 41.2 7.4
-13 -5 -11 36.8 10.8
13 -11 -5 30.2 12.6
-5 -13 11 28.8 12
-11 5 -13 44.5 8.1
-13 -5 -11 20.4 10.5
5 -11 13 48.1 11.2
11 -5 -13 30.7 13.5
-5 11 13 33.9 12.9
5 -13 -11 37.9 14.4
-13 11 5 44.2 13.1
-11 -5 -13 56.99 13.8
-11 -5 -13 46 11.8
-11 5 13 32 13.7
13 -5 -11 36.5 13.4
-5 13 11 48.6 12.8
5 -13 11 37.1 10.1
5 13 -11 20.4 10.5
11 5 -13 15.6 11.3
13 11 -5 35.5 10.9
11 -13 -5 37 13.1
-13 -11 -5 58.19 13.6
-5 -11 13 39.3 13.7
-5 -13 -11 44.8 13
-13 -5 11 19.6 10.5
-11 -13 5 15.1 10.3
-13 -11 -5 53.99 12.7
5 -11 -13 19.9 10.9
-5 11 -13 28.7 9.1
-13 -7 -11 137.29 23.4
-13 7 11 168.48 26.5
7 -13 -11 86.99 23.4
-13 -7 -11 128.09 24.1
-11 13 7 115.29 23.7
13 -11 -7 129.29 26.1
7 11 -13 80.19 23.2
11 13 -7 161.28 24
13 7 -11 92.19 24.2
-11 -13 -7 91.39 23.7
-7 -11 -13 124.59 24.4
-7 -13 11 126.99 25.1
11 -7 -13 116.99 24.5
-13 -11 7 153.98 26.2
-13 -11 -7 137.19 24.5
-13 -11 -7 107.89 23.7
-13 11 7 109.59 24.9
-11 -7 -13 173.68 26.2
-11 -7 -13 131.69 23.2
-7 13 11 165.58 26.9
7 13 -11 155.88 25
11 7 -13 122.89 24.5
-7 11 -13 128.89 20.8
7 -11 -13 93.19 23.5
-11 7 13 162.88 25.8
11 -13 -7 117.29 25
13 -7 -11 159.58 27.5
-11 -13 7 133.79 24.2
-7 -13 -11 73.09 23.6
-13 -7 11 153.48 26.5
-9 11 13 262.27 45.1
11 13 -9 202.28 41.9
13 -11 -9 329.97 46.7
-9 -11 -13 260.57 43.8
11 -9 -13 224.98 44.5
-13 -9 -11 269.57 43.2
-13 9 11 214.08 44.2
-11 -13 -9 213.18 42
-11 13 9 227.38 43
9 -13 -11 337.97 46.6
9 11 -13 348.37 50.29
-9 -13 11 277.77 44.5
-11 -9 13 344.97 45.3
-13 -11 -9 291.87 44.7
-13 -11 -9 305.57 44
-13 11 9 180.58 43.4
-11 -9 -13 222.08 44.1
-11 -9 -13 262.77 43
-9 -13 -11 287.07 44.7
-9 -13 -11 255.67 42.8
-9 13 11 294.57 45.3
11 9 -13 254.27 43.1
13 11 -9 341.97 45
11 -13 -9 235.88 44.8
13 -9 -11 267.77 44.3
-9 -11 13 321.07 44.9
13 -11 -11 241.88 43.2
13 11 -11 194.68 39.8
-13 11 11 286.87 44.1
-11 -13 -11 229.78 41.9
-11 -13 -11 249.48 41.4
-11 -11 -13 245.68 40.9
-11 13 11 238.38 42.5
11 -13 -11 305.77 44.5
11 -11 -13 279.27 42.9
-13 13 1 836.32 122.99
-1 -13 -13 834.32 124.39
-1 -13 13 733.43 123.29
-1 13 -13 680.03 122.19
1 -13 13 744.63 123.29
1 13 13 936.51 124.79
13 -1 -13 993.6 125.09
13 13 -1 892.01 123.89
13 13 1 787.22 122.69
-13 -1 -13 770.62 122.79
-13 -1 -13 845.02 121.99
-13 -1 13 837.32 124.59
-13 1 -13 760.72 121.69
-13 1 -13 837.22 121.29
-13 -13 1 855.11 123.89
-13 13 -1 958.8 122.99
-13 1 13 991.8 125.29
-13 -13 -3 0.6 7.3
-13 -13 3 3.3 8.5
-13 -3 -13 4.7 7.8
-13 -3 -13 12.8 7.1
-13 -3 13 5.7 8.1
-13 3 -13 11.9 5.5
-13 3 -13 3.9 4.2
-13 3 13 15.9 9.1
-13 13 3 12.2 8.1
-3 -13 -13 -0.4 6.6
-3 -13 13 9.5 8.7
-3 13 -13 11.8 7.1
-3 13 13 -0.9 7.7
3 -13 -13 11.8 8.9
3 13 -13 6 7.9
3 13 13 -2.6 7.4
13 -13 -3 13 8.6
13 -3 -13 15.1 9.1
13 3 -13 -0.5 6.3
13 13 -3 5.6 6.7
13 13 -5 3.1 7.8
5 13 13 0.3 8.1
13 -13 -5 -0.3 8.7
13 -5 -13 0.7 9
13 5 -13 0.7 8.6
5 13 -13 -5.1 6.1
-5 -13 13 2.7 6.4
-5 13 -13 0.1 5.4
-5 13 13 -0.3 8.3
5 -13 -13 -1 7
5 -13 13 4.7 6.4
-13 5 -13 3.5 1.8
-13 5 13 -1 6.7
-13 13 5 9.1 8.7
-5 -13 -13 0.5 9.5
-13 -13 -5 4.1 8.1
-13 -13 -5 -2.9 7.4
-13 -13 5 -1.4 6.9
-13 -5 -13 -6.9 6.3
-13 -5 -13 1.9 5.9
-13 -5 13 9.6 10.1
-13 5 -13 2.3 1.4
-13 -13 -7 20.6 10.8
-13 -13 -7 27.4 10.7
-13 -13 7 24.2 9.8
-13 -7 -13 16.5 10.4
-13 -7 -13 14.9 7.9
-13 -7 13 14.3 9.2
-13 7 13 17.7 10.1
-13 13 7 16.9 10.3
-7 -13 13 8.6 9.5
-7 13 -13 18.3 6.4
-7 13 13 6.3 10
7 -13 -13 16.3 10.1
7 13 -13 36.1 11.1
7 13 13 4.9 8.7
13 7 -13 3.7 7
13 13 -7 19.6 8.7
13 -13 -7 11.6 10.6
13 -7 -13 19.7 12
-13 9 13 70.69 23.9
-13 -9 13 81.99 24.8
-9 -13 -13 162.28 24.7
-9 -13 13 84.39 23.1
-9 13 13 159.08 27.5
9 -13 -13 94.29 24
9 13 -13 169.18 26.1
13 -13 -9 136.49 27.8
13 -9 -13 188.28 29.4
13 9 -13 120.49 25.5
13 13 -9 120.99 24.8
-13 13 9 146.19 27.2
-9 -13 -13 85.59 23.8
-13 -13 -9 192.58 27.9
-13 -13 -9 128.99 24.9
-13 -13 9 188.18 27.5
-13 -9 -13 125.89 24
-13 -13 11 130.69 25.4
-13 -11 -13 124.79 25.8
-13 -13 -11 170.18 26.8
13 -13 -11 167.88 29
13 -11 -13 111.99 24.8
13 11 -13 95.89 23.5
13 13 -11 105.19 22.3
11 13 -13 66.39 21.7
-11 -13 13 77.59 23.3
-11 13 13 173.08 26.2
11 -13 -13 134.69 25.3
-11 -13 -13 59.79 22.7
-11 -13 -13 115.19 23.3
-13 -11 -13 133.99 24.2
-13 -11 13 155.78 25.4
-13 11 13 100.99 24
-13 13 11 164.88 27.5
-13 -13 -13 102.59 24
-13 13 13 146.89 27.6
0 0 -14 1512.45 237.48
0 0 14 1790.52 238.38
0 -14 2 395.96 57.19
14 -2 0 432.86 56.19
-2 0 -14 321.67 56.49
14 0 -2 436.86 57.19
14 2 0 342.77 55.99
14 0 2 356.56 55.39
0 -2 14 297.17 56.79
2 -14 0 399.76 57.39
2 -14 0 344.97 55.99
-2 -2 -14 64.49 19.2
-14 -2 2 89.39 20
-2 -14 -2 58.39 19
-2 -14 -2 142.69 21.2
-2 -14 2 100.79 18.8
14 2 -2 119.49 20.2
14 2 2 103.79 19.3
-14 2 -2 121.09 19.4
-2 2 14 92.29 21.5
2 -14 -2 91.29 20.7
2 -14 2 105.59 20
2 -2 -14 91.69 19.9
2 2 -14 113.99 20
2 2 14 103.49 21.2
14 -2 -2 111.69 19.7
14 -2 2 102.19 18.2
2 -14 -2 80.19 18.2
-2 -2 14 147.79 21.7
-2 2 -14 99.69 20.3
-4 0 -14 38.9 11.8
-4 0 14 62.79 15.3
-14 0 -4 42.5 10.6
-14 -4 0 32.7 11.5
-14 4 0 43.4 11.9
14 -4 0 48.4 11
14 4 0 45.4 11.8
4 -14 0 38 12.2
0 -14 -4 21.7 11.5
0 -14 4 32.9 10.2
0 -4 14 56.49 12.9
0 4 -14 32.9 11.8
0 4 14 10.4 13.7
-4 -14 0 32.9 10.9
-4 -14 0 58.09 12.8
14 0 -4 18 10
14 0 4 47.3 10.6
0 -4 -14 23.1 11.7
0 14 -4 47.7 11.7
-14 0 4 42.5 12.8
4 0 -14 61.19 14.5
4 -2 -14 366.26 60.49
4 2 14 397.66 59.79
14 -4 -2 428.06 59.29
14 4 2 377.56 58.89
-14 -4 2 440.66 60.39
-4 -14 -2 471.55 60.79
-4 -14 -2 441.36 60.09
4 -14 2 385.06 59.19
2 -14 -4 384.26 60.49
-14 4 -2 414.06 58.29
-4 14 2 306.07 58.59
14 -2 4 409.66 57.39
-4 2 -14 379.96 59.39
2 -14 4 358.06 58.89
14 -2 -4 360.46 59.29
-14 -2 4 291.87 58.89
14 -4 2 435.86 57.79
14 4 -2 359.96 59.09
14 2 4 399.66 58.59
2 -4 -14 303.07 59.49
-14 2 -4 351.46 57.39
4 -2 14 411.76 59.59
2 14 -4 444.16 59.19
4 -14 -2 333.07 59.39
-2 14 4 342.87 59.29
-2 -14 -4 464.05 59.99
-2 -14 -4 417.06 60.59
-14 4 -4 1405.66 197.38
-4 -14 -4 1276.47 199.48
-4 -14 -4 1563.84 199.78
-4 -4 -14 1261.87 199.58
4 -14 -4 1395.76 200.08
4 -14 4 1499.65 198.98
4 -14 4 1358.96 198.28
4 -4 -14 1166.18 199.28
4 -4 14 1258.47 198.48
4 4 14 1599.24 200.48
4 14 -4 1332.27 199.38
14 -4 -4 1459.85 199.58
14 -4 4 1346.27 196.78
14 4 4 1355.16 198.58
-4 4 -14 1395.56 198.68
0 -6 14 27.4 10.9
0 6 -14 20.6 9.1
-14 0 -6 31.8 8.5
0 14 6 7 7.4
-14 -6 0 31.8 10.7
-14 6 0 21.9 8.8
-6 0 -14 21.5 8.8
-6 0 14 28.4 12
0 -14 -6 16.7 9.1
0 -14 6 16.8 8.5
0 14 -6 9.8 7.6
-6 -14 0 24.1 10
0 -6 -14 30.9 10.6
14 6 0 26.6 9.8
6 -14 0 23.5 9.9
6 0 -14 6.1 9.2
0 6 14 14.5 10.6
-14 0 6 27 10.8
14 0 -6 25.7 11
14 -6 0 16.3 7.3
6 2 14 66.39 15.8
14 2 -6 54.89 14.8
-14 -6 2 82.79 15.9
14 -6 -2 58.09 14.2
-2 14 -6 72.39 14.5
-6 -14 -2 38.9 13.9
-14 6 -2 70.69 14.2
-6 2 -14 77.29 16.1
-2 -14 6 85.99 16.7
6 -14 2 82.69 14.6
6 14 -2 39.8 13.3
-6 -14 -2 77.89 17.4
2 6 -14 99.89 17.3
14 6 2 77.69 16.6
-6 -2 14 68.29 16.1
6 -14 2 60.99 15.1
-14 2 6 81.19 17.8
14 -2 -6 60.49 14.9
-2 6 -14 67.59 15.2
2 14 -6 40.2 13.2
6 2 -14 85.09 18.6
-6 -14 2 88.89 17.1
-2 -6 14 56.49 16.1
-2 14 6 35.2 14.3
2 -6 -14 45.9 14.9
14 6 -2 80.69 16.7
6 -2 14 79.09 15.3
6 -14 -2 81.89 17.4
-14 -6 -2 100.29 17.4
-6 -2 -14 98.69 17.4
-2 -14 -6 38.7 14.1
14 -6 2 62.99 12.6
-14 -2 6 84.49 16.2
-14 2 -6 71.49 13.2
2 6 14 62.89 16.6
-6 14 4 715.43 122.19
-4 -6 -14 702.43 122.59
14 6 4 867.61 121.99
6 4 14 654.43 121.79
-6 -4 14 775.62 123.09
-6 4 -14 906.71 121.69
6 -14 4 784.12 121.29
6 -14 4 982.3 121.59
4 -14 -6 967.7 124.19
-14 4 6 652.43 122.19
-14 6 -4 919.71 119.99
-4 6 14 999.9 124.79
4 -6 14 744.03 121.59
-4 14 6 754.52 122.59
4 -14 6 985.4 122.19
6 -14 -4 726.83 122.69
4 -14 6 847.92 121.39
-6 -14 4 823.82 122.59
-4 6 -14 905.41 121.89
-14 4 -6 797.62 119.29
14 -4 -6 744.03 122.29
4 6 14 921.11 123.39
-14 -6 -4 714.13 121.69
6 -4 14 981.9 122.19
-14 4 -6 942.61 119.79
-6 -14 -6 935.61 131.19
14 -6 -6 884.01 130.59
14 6 -6 840.22 129.79
-6 14 6 914.71 130.49
6 -14 6 823.32 128.79
6 -6 14 887.61 128.89
6 6 -14 1014 133.89
6 6 14 788.42 130.19
-6 -6 -14 899.71 130.89
-6 6 -14 780.92 128.29
6 -14 6 878.11 128.29
-6 -14 -6 1005.8 130.39
-6 -14 6 925.91 130.69
14 8 0 290.47 50.69
-14 -8 0 239.68 50.49
-14 8 0 363.56 50.59
14 -8 0 350.26 49.8
-14 0 -8 308.37 49.5
-14 0 -8 365.36 49.6
-14 0 8 379.96 52.89
-8 -14 0 268.97 50.69
0 -8 -14 299.07 52.29
0 -8 14 385.66 52.49
0 8 -14 280.77 50.39
8 -14 0 328.07 50.79
8 14 0 299.47 50.59
14 0 -8 281.77 50.89
0 -14 8 366.56 51.19
8 0 -14 309.37 52.19
8 0 14 401.16 51.29
-8 0 -14 360.76 51.09
-14 -2 -8 19.8 8.2
-14 -2 -8 19.3 8
8 14 -2 31.7 10.6
-8 -14 -2 10.7 9.4
-8 -14 -2 16.4 9.5
-2 8 14 4.9 7.8
2 8 -14 28.7 10.2
2 14 8 19.9 10.4
-14 2 8 33 12.4
-2 14 -8 40.5 9.9
-14 8 -2 17.4 7.3
2 -14 -8 19.6 9.5
-2 -8 -14 29.9 10.9
8 -2 -14 5.5 10.6
8 2 14 26.6 11.9
14 -8 -2 22.5 9.2
8 -14 2 20.6 8.6
14 8 2 24.2 10
-14 -8 2 26.1 10.9
8 -14 2 23 7.9
-8 -2 14 46.4 14
-8 2 -14 27.3 9.1
-2 -14 8 17.8 9.4
8 -14 -2 27.6 10.5
-8 -14 2 17.7 8.1
-14 2 -8 28.7 6.9
2 8 14 25.5 10.8
2 -8 -14 30.2 12.2
-2 14 8 11 8
-8 -2 -14 32.2 10.8
-8 2 14 27 10.8
-14 -2 8 23.3 11.8
-2 -8 14 32.6 11.4
-14 -8 -2 35.1 11
2 14 -8 9.8 7.9
8 -2 14 18.6 8.2
8 2 -14 19.6 9.4
14 8 -2 23.1 8.9
14 -2 -8 40.1 12.4
-14 2 -8 17.5 6.8
-2 -14 -8 40.2 13
-2 8 -14 30.9 9.8
4 8 -14 241.88 38.5
4 -8 14 270.77 37.9
8 -14 4 243.98 36
-14 -4 -8 180.78 36.3
-8 -4 14 183.88 37.6
-14 4 8 228.48 38.4
-8 -14 -4 250.47 38.8
-8 14 4 172.68 39.1
-4 -8 -14 276.57 40.6
-14 -8 4 211.68 38.5
14 4 -8 169.08 36.7
-4 -14 8 293.67 39.3
-4 14 -8 247.58 36.5
4 -14 -8 159.68 38.2
8 4 14 229.58 37.8
14 -8 -4 214.88 37.7
14 8 4 195.08 37.2
8 14 -4 260.77 38
-8 4 -14 247.28 36.7
-14 8 -4 257.77 34.5
-14 -8 -4 292.17 39
8 -14 -4 201.68 38.4
-4 8 -14 240.78 36.7
-14 4 -8 272.67 34.1
-14 4 -8 271.47 34.1
-14 -4 8 186.78 38.3
4 -14 8 266.77 37.1
-4 -8 14 172.98 38.1
14 -4 -8 235.48 38.9
4 8 14 165.88 37.6
8 -4 14 232.08 36
4 14 -8 230.58 37.8
-8 -4 -14 165.98 37.5
-8 -14 4 256.07 39
8 -14 6 422.16 68.59
-14 -6 -8 558.74 70.69
8 14 -6 454.15 69.89
-14 -8 6 548.05 71.29
-8 6 -14 481.55 67.99
-8 -6 14 541.45 71.99
14 -8 -6 483.85 71.29
-14 -6 -8 352.66 68.79
8 6 14 440.06 70.29
-8 -14 -6 464.05 70.19
-8 -14 -6 352.46 69.39
-14 6 8 364.06 70.29
6 -14 -8 436.56 70.59
-14 -8 -6 435.16 69.89
6 -14 8 476.65 68.49
6 8 14 505.55 71.09
8 -14 -6 461.85 71.49
8 6 -14 543.75 71.59
-14 -6 8 507.35 71.19
-6 -8 14 539.85 71.59
-6 8 -14 448.76 68.09
-14 8 6 428.46 70.69
-8 6 14 450.55 71.49
6 14 -8 451.85 70.19
8 -6 14 479.75 67.89
14 -6 -8 403.06 70.19
-14 -8 8 143.19 28.6
-8 -8 14 129.09 27.3
-14 8 8 143.39 29
-8 -14 -8 180.58 28.4
-8 -14 8 177.48 29
-8 8 -14 138.19 24.2
-8 8 14 159.18 30.2
-14 -8 -8 150.68 27.3
-14 -8 -8 156.38 27.5
14 -8 -8 126.49 28.7
-8 14 8 128.69 26.8
8 8 14 181.38 28.9
8 14 -8 183.48 28.3
8 -14 -8 155.98 30
8 -8 -14 117.39 27.2
-8 -14 -8 199.98 28.7
-10 14 0 621.04 99.29
10 0 14 565.94 98.59
14 10 0 755.92 101.09
10 -14 0 678.13 99.99
0 -10 -14 681.43 101.19
-14 -10 0 620.74 100.09
-14 10 0 735.53 99.49
-10 0 -14 612.54 99.29
-10 0 14 795.52 102.39
0 -14 10 670.03 100.39
-14 0 -10 628.84 98.79
-14 0 10 751.92 101.39
-10 -14 0 761.62 101.09
-14 0 -10 586.04 97.99
0 -10 14 655.13 100.39
0 10 -14 749.62 100.59
-10 2 -14 293.67 46.2
-10 -2 14 331.87 48.8
-14 10 -2 314.07 46.7
-10 14 2 261.07 47.6
2 10 -14 239.98 46.9
-2 -14 10 315.77 48.3
-2 14 -10 294.17 46.6
-10 -14 -2 357.76 48.6
14 -10 -2 281.47 47.2
14 2 -10 364.66 48.8
14 10 2 355.16 47.9
-14 -2 -10 317.77 46.4
-2 10 14 327.57 49.4
10 -14 2 290.97 45.5
10 14 -2 305.37 47.3
-14 -2 -10 261.67 46.5
-14 2 10 246.88 48.2
-2 10 -14 261.27 46.3
14 10 -2 321.97 48.2
-2 -10 14 313.17 48.7
-14 -10 -2 302.77 48
-10 -2 -14 279.17 47.8
2 -14 10 292.97 47.7
-2 14 10 292.07 47.9
2 14 -10 368.36 48.3
2 -10 -14 382.16 49.7
-14 10 2 253.47 46.9
10 -14 -2 299.47 48.1
14 -2 -10 213.08 47.3
-10 -4 14 3 10.3
4 14 10 8.4 7.3
-10 -14 -4 18.1 9.5
-4 14 -10 19.9 7.5
-14 10 -4 12.6 4.5
-10 14 4 13.7 9.2
14 4 -10 20 10
14 10 4 17.2 9.3
-14 4 10 18.2 9.2
-4 10 14 25.7 9.9
-4 -10 -14 34.2 13.1
-14 -4 -10 15.7 7.8
4 -10 14 16.6 8.7
4 10 -14 1.8 7.5
-10 4 -14 14.8 6.7
-4 -14 10 5.9 7.1
10 14 -4 5.8 8.3
4 -14 -10 10.2 8.6
-10 -14 -4 24.6 9.2
14 -10 -4 26.2 10.4
10 -14 4 13.8 5.5
10 4 14 18.6 8.7
-14 -4 -10 13.7 8.8
10 -4 -14 8.9 8.6
-14 -10 4 2.8 6.8
-14 -10 -4 14.2 7.5
-14 4 -10 12.9 3.5
-4 10 -14 14.3 7.5
-10 -14 4 16.8 8.3
-4 -10 14 17.4 10.4
-14 10 4 20.8 10.5
-10 -4 -14 11 9.1
14 -4 -10 24.3 10.3
4 -14 10 16.8 8.3
-10 4 14 13.8 11.1
-14 -4 10 22.4 11
-14 4 -10 11.9 3.6
4 14 -10 4.2 7.9
-4 -14 -10 12.2 10.3
4 10 14 9.5 9.3
10 -14 -4 4.1 8.7
10 4 -14 14.2 9.7
-4 14 10 16.8 8.4
14 10 -4 13.1 7.5
4 -10 -14 1.7 9.7
-6 10 14 29.7 12.9
6 -10 14 37.5 9.5
6 10 -14 52.19 13.9
-6 -10 -14 37.9 13.5
-10 -14 -6 17.9 9.4
-14 -6 -10 44.4 11.7
-14 6 10 24.4 11.1
-10 -6 14 11 11.1
-10 6 -14 32.4 7.6
10 6 14 35.2 11.8
-14 -10 6 28.8 11.8
6 -14 -10 40.6 14.4
-10 14 6 34.8 11.9
-14 -6 -10 24.9 10.4
14 6 -10 32.7 12.3
10 -6 -14 30 13.2
14 -10 -6 33.1 12.8
-6 -14 10 12.4 10.5
-10 -14 -6 28 10.9
6 10 14 21.9 9.8
-6 10 -14 29.4 8.6
-6 -10 14 38.9 13.3
-6 -14 -10 32.9 11.7
-10 6 14 45.4 14.4
-10 -14 6 14.9 9
-14 -6 10 10 10.3
10 6 -14 33.4 12.5
-6 14 10 38.4 11.5
-14 10 6 35.2 13
14 10 -6 17.6 10
-14 -10 -6 31.1 11.4
-10 -6 -14 78.09 15.9
6 -10 -14 36.7 13.3
10 -14 -6 37.8 13.4
14 -6 -10 28.2 12.5
6 14 -10 40 11.1
-14 -10 -6 14.5 10.3
6 -14 10 38.1 9.5
-10 8 -14 30.3 5.8
-8 10 14 39.6 13.8
10 14 -8 18.8 10.2
8 10 -14 14.6 8.8
14 -10 -8 42.8 14.8
-10 -14 -8 25.2 10.2
10 -8 -14 21.7 10.8
-14 -8 -10 52.99 13.8
-14 -10 8 37.9 12.7
8 -14 -10 31.3 11.8
-14 8 10 32.2 11.3
-10 -14 -8 30.9 10.6
-8 -14 10 23.3 11.2
-10 -8 14 19.6 12
-14 -8 -10 36.2 11.5
-10 14 8 29.5 12.1
-8 -10 -14 45.7 14.6
14 8 -10 24.6 11.3
14 -8 -10 26.5 11.4
14 10 -8 13.3 8.7
-14 -10 -8 20 10.2
-14 10 8 30 12.6
-10 -8 -14 51.49 14.4
-14 -10 -8 36 11.8
-8 -14 -10 3.6 9.6
-8 -14 -10 13.4 8.8
8 14 -10 20.8 10.5
10 8 -14 29.9 11.5
-8 14 10 19.8 11.6
8 -10 -14 20.6 13
-14 -8 10 19.1 11.2
-8 -10 14 12.5 11.4
-8 10 -14 38.2 7.9
-10 -14 8 17.7 9.2
8 10 14 19.3 9.7
10 -14 -8 29.8 13
-10 8 14 15.7 12
-14 -10 10 189.38 32.4
10 14 -10 210.88 31.2
14 -10 -10 124.39 31.9
14 10 -10 174.08 31.4
-10 -14 -10 211.48 32
-10 -10 -14 213.88 33.5
10 -10 -14 113.79 32
-14 -10 -10 173.78 31.8
10 10 -14 215.28 31.8
-14 -10 -10 168.38 30.9
10 -14 -10 145.49 31.2
-10 14 10 152.88 32
-12 -14 0 814.22 108.29
-14 0 12 777.92 109.19
0 14 12 621.44 107.49
-14 12 0 667.83 111.39
-14 0 -12 770.42 106.89
-14 0 -12 656.03 105.39
14 0 -12 775.72 108.99
0 12 -14 721.03 107.29
14 12 0 589.64 106.69
0 14 -12 659.53 106.89
0 -12 14 710.13 107.99
0 -14 -12 880.11 109.89
0 -14 12 667.23 107.69
0 -12 -14 811.92 109.89
0 12 14 726.63 108.59
-12 14 0 808.82 107.29
-2 12 14 90.89 22.2
-12 -14 -2 136.09 21.5
2 12 -14 129.39 22
12 14 -2 123.09 21.1
-14 2 12 100.79 21.8
14 2 -12 126.79 22.3
-12 2 -14 91.99 17.8
2 -12 14 124.89 22.8
-2 -12 -14 60.19 21.3
-14 -12 2 92.19 21.9
-14 12 -2 118.89 19.8
-14 -2 -12 106.99 19.7
2 14 12 130.09 22.9
14 12 2 111.19 20.3
-14 -2 -12 100.09 20.9
12 -2 -14 58.79 21.4
-12 2 -14 109.09 19.4
-2 -14 12 109.29 22.4
-2 14 -12 83.89 19.9
-12 14 2 85.09 21
-12 -2 14 74.79 20.4
-2 12 -14 103.09 20.6
-12 2 14 117.59 22.1
2 14 -12 72.19 20.2
12 -14 -2 89.99 20.5
-12 -14 2 101.59 22
12 2 -14 117.49 23.2
-2 14 12 114.39 23
-14 -2 12 74.79 21.7
-14 2 -12 116.49 19.1
-14 2 -12 121.99 18.3
2 12 14 105.89 22.8
-2 -12 14 131.29 23.4
-14 12 2 122.89 22.1
-12 -2 -14 107.09 21.5
-12 14 -2 110.69 19.7
2 -14 12 103.69 21.5
14 12 -2 75.09 20.7
-12 -2 -14 105.39 19.4
2 -12 -14 144.49 23.6
-2 -14 -12 101.69 21.9
-4 -14 12 41.9 13.4
-14 -4 -12 34.8 10.7
14 4 -12 52.59 14.5
4 14 12 25.3 10.8
-4 12 14 16 11.8
4 12 -14 55.29 13.8
12 14 -4 28.5 10.4
-12 -14 -4 45.5 13
-4 -12 -14 14 12.3
-12 -14 -4 28.3 11.5
-14 -12 4 45.8 13.8
4 -14 -12 42.3 14.8
-12 14 4 35.6 12.5
14 -12 -4 53.19 14.5
-12 4 -14 50.59 9.7
-12 4 -14 38.2 8.1
-12 -4 14 12.1 9.9
12 -4 -14 29.7 13.5
-14 -4 -12 35.5 12.7
-14 4 12 52.29 15.6
4 -12 -14 56.69 16.5
14 12 -4 38.6 12.5
-14 4 -12 29.6 7.1
-14 4 -12 42.5 7.2
-14 12 4 42.4 12.9
-14 -4 12 46.2 14.5
4 12 14 17.2 9.8
14 -4 -12 21.7 11.4
12 4 -14 18.8 10.4
-14 -12 -4 24 11
-12 -4 -14 33.9 12.9
-12 -4 -14 44.8 11.6
-4 -12 14 35.9 13.6
12 -14 -4 48.6 13.5
-4 14 12 57.09 15.1
4 14 -12 56.69 13.7
-4 -14 -12 64.29 15.1
-12 4 14 50.89 15.1
-12 -14 4 20.5 10
-12 -14 -6 6 6.6
-12 14 6 1.2 8.3
-12 -14 -6 4.3 7
-14 -12 6 0.9 8.2
6 12 -14 9.2 7.3
-12 -6 14 21 11.3
12 14 -6 12.9 9.1
-6 -12 -14 19.7 11.5
-6 -14 12 12.5 8.1
6 -14 -12 24.2 12.9
6 14 12 17.2 9.9
12 -6 -14 20.1 10.5
-14 -6 -12 9.5 7.5
-14 -6 -12 22 10
14 -12 -6 28.3 12.5
-12 6 -14 15.8 3.3
-14 6 12 12.6 11.4
14 6 -12 4.1 8.9
-6 14 -12 13.1 6.2
-6 12 14 10.1 8.8
-12 6 -14 16.5 3.6
6 -12 -14 7 8.7
-14 -6 12 12.9 8.7
-12 6 14 14.6 11.9
-14 12 6 13.2 10.2
14 -6 -12 14.8 11.2
-12 -6 -14 9.6 7
6 12 14 10.6 9.6
14 12 -6 21.8 8.8
6 14 -12 6.2 8.4
12 -14 -6 10.1 10.3
-12 -14 6 19.8 10
-6 -12 14 5.2 9.5
-6 12 -14 8.8 5.9
-6 -14 -12 10 10.6
-14 -12 -6 0.4 7.9
-14 -12 -6 9.2 7.3
12 6 -14 16.2 10.5
-6 14 12 12.5 9.7
-12 -6 -14 12.1 10
8 12 -14 28.5 10.4
12 -8 -14 13.2 11.7
8 -14 -12 13.3 11.6
14 -12 -8 21.3 13.1
-12 -14 -8 6.7 8.4
-12 -14 -8 6 6.9
-14 -12 8 14.8 8.5
-12 -8 14 30.1 12.6
-8 12 14 16.1 9.7
-14 -8 -12 15.1 9.3
12 14 -8 2 8
-12 14 8 17.1 10.4
-8 -12 -14 18.1 11.9
14 8 -12 14.1 8.4
-8 -14 12 10.7 9.8
-14 -8 -12 8.2 7.7
-14 8 12 15.7 10.7
-14 -12 -8 25.9 9.7
-14 -12 -8 11.5 9.1
-8 -12 14 19.5 10.1
-8 12 -14 16.3 5.5
-12 8 14 4.5 12.2
8 -12 -14 14.6 9.4
8 12 14 14.3 9.7
12 -14 -8 8.2 11.3
-8 14 12 7.8 8.2
-8 -14 -12 19.4 11.5
12 8 -14 35.7 11.2
-8 -14 -12 2.3 7.2
14 12 -8 11.9 7.9
-14 12 8 22.2 11.5
-12 -8 -14 9.9 9.2
-12 -8 -14 18.7 8.1
-14 -8 12 10 8.5
8 14 -12 16.5 9.8
-12 -14 8 25 11.4
14 -8 -12 13.8 10.2
-14 -10 -12 100.29 19.6
-14 10 12 53.79 18.3
10 12 -14 55.39 17.8
-14 -12 10 46.9 16.6
14 10 -12 100.59 18.7
-14 -10 -12 56.99 17.8
12 14 -10 60.19 17.1
-12 -14 -10 42.7 17.2
-12 -14 -10 87.99 19.3
-10 -12 -14 107.29 19.5
-10 -14 12 46.3 16.4
-12 -10 14 99.89 21.2
-12 14 10 96.49 19.4
14 -12 -10 91.79 22.3
12 -10 -14 97.09 20.5
10 -14 -12 66.49 18.6
-10 -12 14 71.59 19.7
-14 12 10 63.99 19.5
-10 -14 -12 93.49 21.5
-14 -12 -10 101.39 19.8
12 10 -14 47 16.6
-12 -10 -14 81.09 18
-14 -10 12 125.59 22.4
-10 -14 -12 98.39 17.7
12 -14 -10 90.79 21.7
-14 -12 -10 63.09 18.7
14 -10 -12 86.09 20.6
-12 10 14 94.39 21.9
10 14 -12 88.39 19.2
-10 14 12 113.59 22.3
10 -12 -14 115.39 23.2
-14 -12 -12 80.49 22.4
-14 -12 12 114.69 24.5
-14 12 12 128.89 25.9
-12 -14 -12 129.19 25.5
-12 12 14 120.59 24.3
12 -14 -12 105.19 26.3
12 -12 -14 104.29 26.1
12 12 -14 134.19 24.5
12 14 -12 88.39 21.3
14 -12 -12 118.89 27.6
-14 -12 -12 115.09 25
-12 14 12 114.99 23.7
-12 -12 -14 111.89 23.2
-12 -12 14 121.59 25.5
-12 -12 -14 137.99 26.7
14 0 -14 986.5 123.19
14 14 0 809.22 120.79
0 14 -14 734.03 120.19
-14 14 0 743.93 119.99
0 -14 -14 931.21 123.29
0 -14 14 762.72 121.39
-14 0 14 866.81 122.39
-14 0 -14 714.03 119.79
-14 0 -14 745.93 118.79
-14 -14 0 966 122.39
-14 -14 -2 86.19 19.8
2 14 14 140.79 22.3
14 -2 -14 148.79 24.5
14 14 -2 69.19 20.3
14 14 2 86.79 21
-2 -14 14 114.29 22.8
-2 14 14 138.49 22.5
2 -14 -14 94.79 23.6
2 -14 14 103.39 21.7
2 14 -14 102.49 21.4
-14 14 2 100.19 21.3
-14 -2 -14 138.89 23.4
-14 -2 -14 87.69 19.1
-14 -2 14 125.19 24.3
-14 2 -14 103.79 19.2
-14 2 -14 108.19 18
-14 2 14 56.89 20
-14 14 -2 120.59 19.4
-2 -14 -14 66.29 21.8
-14 -14 -4 70.39 19.5
-14 -14 4 109.89 22.6
-14 -4 -14 93.09 23.2
-14 -4 14 145.69 25.4
-14 4 -14 116.49 17.4
-14 4 -14 107.99 17
-14 4 14 95.29 23.9
-14 14 4 108.19 23.2
-4 -14 -14 100.49 22.3
-4 -14 14 73.59 21.7
-4 14 -14 135.99 21.1
4 14 -14 134.79 22.2
4 14 14 116.89 23.1
14 -14 -4 111.89 24.5
14 -4 -14 77.69 24.4
14 4 -14 58.19 20.9
14 14 -4 134.49 23.2
-14 -6 14 134.59 25.4
-14 -14 -6 127.69 24
-14 -14 -6 102.29 22.6
-14 -14 6 122.79 24.3
-14 -6 -14 108.09 23.1
-14 -6 -14 111.39 21.9
14 6 -14 64.59 21.8
14 14 -6 69.39 21.4
6 14 -14 105.39 23.1
14 -14 -6 105.29 25
14 -6 -14 113.49 24.8
6 -14 -14 156.38 27.2
-6 -14 14 120.09 24.4
-6 14 -14 112.69 20.4
-6 14 14 118.69 23.2
-14 14 6 120.19 24.7
-6 -14 -14 182.38 28.1
-14 6 14 112.99 23.8
-14 -14 8 6.2 9.3
-14 -8 -14 3.4 8.5
-14 -8 -14 5.9 6.8
-14 -8 14 1.2 9.3
-14 8 14 -2.1 9.4
-14 14 8 2.5 8.8
-8 -14 -14 -1.2 9.6
-8 -14 14 -2.3 8.3
-8 14 -14 1 3.8
-8 14 14 1.8 6.7
8 -14 -14 -2.8 10
8 14 -14 -1.1 5.6
14 -14 -8 6.7 11.3
14 -8 -14 2.8 10.8
14 8 -14 5.5 9.5
14 14 -8 1 7.6
-14 -14 -8 -1.3 7.5
-14 -14 -8 2.3 6.3
14 10 -14 2.7 9.2
14 14 -10 18.6 10.8
14 -10 -14 22.7 13.8
-14 -14 -10 15.5 11.3
-10 -14 -14 18.5 10.2
-10 -14 14 5.6 9.5
-10 14 14 15.8 11.4
10 -14 -14 20.4 11.5
10 14 -14 15.4 8.6
14 -14 -10 17.6 13.8
-10 -14 -14 10.6 9.2
-14 10 14 27.5 13.6
-14 14 10 11 10.5
-14 -10 -14 24.8 10.6
-14 -14 -10 16.5 8.7
-14 -14 10 12.9 10.5
-14 -10 -14 39.9 14.5
-14 -10 14 11.8 9
-14 -14 12 9.4 7.7
-14 -12 -14 25.6 13
-14 -12 -14 10.5 8.6
-14 -12 14 21.1 10
14 -14 -12 17.5 13.9
-14 12 14 16.6 9.7
-14 14 12 20.6 10.4
-12 -14 -14 22.2 12.7
-12 -14 -14 9.2 8.8
-12 -14 14 16.4 9.3
-12 14 14 18.5 11.9
12 -14 -14 15.6 13.1
12 14 -14 8.1 10.3
-14 -14 -12 17.6 12.2
-14 -14 -12 3.2 6.8
14 -12 -14 9.5 13.3
14 12 -14 7.7 9.8
14 14 -12 3.6 8.9
-14 14 14 1.1 10.2
14 14 -14 1.1 6.9
-14 -14 -14 5.5 10.6
-14 -14 -14 0.5 7.1
-14 -14 14 10.6 9.8
14 -14 -14 -2.6 12.7
15 1 -1 1016.3 139.49
15 1 1 1019.7 139.29
15 -1 1 839.12 138.29
1 -15 1 858.21 138.99
1 -1 15 1037.2 140.39
1 1 -15 1051.99 140.49
1 1 15 998.8 140.79
15 -1 -1 861.61 138.69
-1 -15 -1 994 139.39
-1 -15 1 779.02 138.89
-1 -15 1 1104.19 139.99
-1 -1 -15 1044.8 140.39
-1 -1 15 801.62 139.79
-1 1 -15 1012.8 140.19
1 -15 -1 959.6 140.09
-1 3 15 18.6 9.3
-3 1 -15 10.1 8.8
-15 -3 1 15.2 8.3
-15 3 -1 12.8 7.9
-3 -1 15 5.6 7.4
3 1 15 16.5 9.5
15 -3 -1 7.9 6.4
3 -15 1 11.9 8.6
3 -15 1 17.4 8.3
1 -15 -3 8.4 8.9
-3 -15 -1 10.7 9.2
-3 -15 -1 11.2 8.3
-1 -3 -15 7.4 8.8
1 -3 15 13.4 9.5
1 3 -15 13.3 9.5
-1 -15 3 3.6 6.9
15 -1 3 11 6
15 1 -3 8.6 8.2
1 -15 -3 5.3 5.8
15 3 1 14.1 8.4
3 -1 -15 10.3 10
1 -15 3 3.7 7.7
3 1 -15 1.3 6.6
-3 -15 1 9.8 8.9
15 3 -1 14.9 8.7
-1 -3 15 4.6 7
-1 3 -15 6.2 7.9
1 -3 -15 6 9.3
3 -15 -1 13.2 9
3 -15 -1 11.2 7.8
15 1 3 10.4 6.5
-3 1 15 16.2 12.7
-15 -1 3 16.7 9.4
-15 1 -3 13.7 7.2
-3 -15 1 14.9 8.3
15 -3 1 6.7 5.9
1 -15 3 7.9 7.2
3 -1 15 6.5 8.4
-1 -15 -3 3 9
1 3 15 15.5 10
-1 -15 -3 0 6.8
-3 -1 -15 12.1 7.5
15 -1 -3 12.4 7.6
-15 -3 3 276.47 53.09
15 3 3 403.86 53.59
3 -15 -3 394.36 54.59
3 -15 3 371.76 53.89
3 -15 3 340.27 52.69
3 3 -15 250.07 53.39
3 15 -3 421.86 53.59
15 -3 -3 276.67 52.49
15 -3 3 367.66 51.59
15 3 -3 345.37 53.49
-3 15 3 292.77 53.09
-3 -3 15 312.67 54.49
-3 3 -15 396.26 54.29
-15 3 -3 367.26 52.29
-15 1 5 336.07 57.79
-5 -15 -1 398.76 58.49
1 -5 15 387.56 58.29
1 5 -15 407.96 58.19
5 -15 1 372.06 57.69
5 -15 1 356.26 56.99
15 -1 5 362.06 55.39
15 1 -5 342.87 57.39
5 1 15 337.17 57.49
15 -5 -1 419.36 56.99
15 5 1 340.57 57.19
-1 -15 5 290.37 56.49
-1 5 15 466.15 59.49
-5 1 -15 285.17 56.89
-15 -5 1 432.06 58.29
-15 5 -1 352.36 56.49
15 -5 1 325.27 55.69
5 -15 -1 293.67 57.19
15 5 -1 432.86 58.19
1 -15 5 368.56 57.19
-15 1 -5 350.56 55.99
-15 -5 -1 353.06 57.39
-15 -1 5 457.65 58.99
-5 1 15 439.66 59.99
1 -5 -15 374.26 57.89
-1 -5 15 430.76 59.09
5 1 -15 426.46 59.19
15 -1 -5 421.46 58.59
15 1 5 389.06 55.99
1 15 -5 366.06 56.89
-15 3 5 1286.37 194.58
15 5 3 1497.45 194.38
15 3 -5 1187.68 193.78
-15 -5 3 1535.55 195.18
3 5 -15 1198.18 194.18
-3 5 15 1417.76 195.48
5 -3 -15 1157.98 194.48
15 -5 -3 1219.38 193.58
5 -15 3 1397.56 193.98
-5 -15 -3 1415.46 194.68
-15 5 -3 1273.07 192.28
5 3 15 1405.96 194.68
-5 3 -15 1119.59 193.08
-3 -15 -5 1175.88 194.28
-3 -15 -5 1475.75 194.38
3 -15 5 1447.96 194.18
3 15 -5 1181.08 193.48
5 -3 15 1428.06 194.28
15 5 -3 1405.06 194.38
15 3 5 1393.86 193.28
15 -3 -5 1152.48 193.78
-3 -5 15 1543.55 195.68
-3 5 -15 1443.76 193.98
3 5 15 1261.77 194.58
5 -15 -3 1224.78 194.48
-15 -3 5 1373.16 194.58
5 3 -15 1440.06 195.28
3 -5 -15 1453.45 195.38
-15 3 -5 1400.86 192.38
-5 -5 15 1891.11 283.37
-15 5 -5 2244.78 280.27
5 -15 5 1921.01 281.37
15 -5 -5 2147.29 283.27
15 5 5 1907.21 281.97
5 -5 -15 1620.34 282.37
5 -5 15 1963.2 282.17
-5 -15 5 1944.71 282.97
-5 5 -15 2211.38 282.37
5 -15 -5 1771.42 283.07
-5 -5 -15 1938.81 283.37
-15 -7 1 3.1 7.6
15 1 -7 -2 7.5
7 -15 1 0.2 5.9
-15 1 7 0.3 6.5
-15 -1 -7 3.8 5.6
7 15 -1 3.2 7.6
-7 -15 -1 3.3 7.7
-7 1 -15 3.2 7.4
-15 7 -1 -3.1 5.7
-1 -15 7 -4.1 6.6
-1 15 -7 -3.3 5.3
-1 -7 -15 -4.1 8.7
-1 7 15 3.1 8.9
1 -7 15 -0.6 7.3
1 7 -15 -7.2 6.4
-7 -1 15 1.7 9.2
15 7 1 1.3 7.1
-15 -1 -7 -2.3 4.6
7 -1 -15 -2 8.9
-7 -15 -1 0.8 7.5
1 15 7 5 6.6
1 -15 -7 1 6.3
15 -7 -1 -5.3 4
7 1 15 -6.1 5.3
-15 -1 7 -0.8 6.2
15 -1 -7 -0.6 7.4
-7 1 15 1.4 9.3
-1 -15 -7 1.6 6.5
-1 15 7 1.9 7.8
1 15 -7 1.3 6.6
-15 1 -7 1.2 4.7
7 1 -15 0.7 6.2
15 -7 1 1 4
-1 7 -15 2.8 7.6
-7 -1 -15 -3.5 6.3
1 -7 -15 2.5 6.7
-7 -15 1 -5.9 6.2
-15 1 -7 0.4 4.5
-1 -7 15 -3.1 7.4
15 7 -1 -6.3 6.4
7 -15 -1 0.4 7.2
-15 7 1 0.9 7.1
-15 -7 -1 -3.7 6.8
1 -15 7 -1.2 5.7
7 3 15 368.16 59.69
15 -7 -3 427.96 59.59
-15 3 7 470.25 61.89
15 7 3 328.97 58.99
7 -15 3 408.46 59.19
7 -15 3 408.56 58.69
-7 -3 15 404.06 61.19
-15 -3 -7 377.96 58.69
-3 7 15 465.55 61.49
-7 3 -15 361.06 58.69
3 -15 -7 441.16 61.09
-15 7 -3 363.76 57.19
-7 15 3 341.17 59.49
-3 -7 -15 458.75 61.69
-7 -15 -3 414.56 60.19
15 3 -7 478.05 61.19
-3 -7 15 340.67 60.39
15 -3 -7 458.75 61.39
-3 7 -15 369.56 59.19
7 -3 15 347.07 58.49
3 7 15 420.96 60.89
-3 15 7 355.06 59.29
7 3 -15 294.97 59.49
-15 -3 7 303.77 59.69
-15 3 -7 411.16 56.89
-15 3 -7 396.86 56.89
15 7 -3 358.36 59.19
7 -15 -3 433.76 60.99
-15 -7 -3 292.17 58.89
7 -15 5 1517.45 212.88
5 -7 15 1353.46 213.38
5 7 -15 1406.76 214.58
15 7 5 1257.67 213.58
-15 5 7 1364.56 214.68
-7 -15 -5 1726.73 215.48
-7 5 -15 1349.47 212.88
5 -15 -7 1409.66 215.08
7 5 15 1453.45 214.88
15 -7 -5 1451.35 214.78
-15 -5 -7 1393.96 214.18
-7 -15 -5 1619.34 214.98
-5 -7 -15 1496.15 215.48
-15 7 -5 1528.45 210.78
15 5 -7 1646.64 215.28
-15 5 -7 1515.95 210.48
5 -15 7 1490.95 213.28
-15 5 -7 1455.95 210.48
-5 -15 -7 1714.83 214.78
-15 -7 -5 1323.27 213.68
-5 15 7 1666.43 215.68
7 -5 15 1486.55 213.18
-5 7 -15 1460.95 213.38
-15 -5 7 1728.63 215.68
5 -7 -15 1451.45 215.08
7 -15 -5 1380.96 214.88
-5 -15 -7 1658.13 215.68
5 -15 7 1389.26 213.28
-15 7 5 1303.47 214.48
-7 -15 7 929.21 135.09
7 -15 -7 971.9 136.09
7 -15 7 916.41 132.89
7 -7 -15 831.52 134.79
7 -7 15 959.6 133.19
7 15 -7 921.71 134.69
-7 7 -15 1025.6 136.39
-7 -15 -7 754.82 134.09
15 -7 -7 959.9 135.79
-7 -7 -15 781.52 134.89
-7 -7 15 991.8 135.89
-15 -7 -7 755.72 133.59
7 7 15 1096.19 135.99
-7 7 15 822.92 135.59
15 7 -7 1067.59 135.59
15 9 1 180.28 29.4
15 1 -9 104.29 28.6
-1 9 15 112.79 29.2
-1 -15 9 164.18 28.9
9 -15 1 169.88 28.8
-15 -1 -9 181.58 28.2
-1 15 -9 144.99 27.7
1 -9 15 192.68 30.5
1 9 -15 228.48 30.1
9 15 -1 137.19 28.1
-15 9 -1 183.58 28
-15 -1 -9 162.18 27.1
-9 15 1 132.19 28.2
-9 -1 15 171.68 30.9
-9 1 -15 167.38 28.1
-15 1 9 169.38 30.7
-9 -15 -1 179.68 29.7
1 -15 -9 108.59 28.1
15 -1 -9 186.38 30.6
-9 -15 1 142.29 28
-15 9 1 162.48 28.6
1 9 15 239.08 31.9
9 -15 -1 186.68 29.9
15 9 -1 117.99 28.4
9 -1 15 202.78 29
1 -15 9 157.28 28.6
-1 15 9 206.68 29.7
-9 -1 -15 160.18 29.3
-15 -1 9 114.49 27.9
-15 1 -9 189.58 27.6
-15 1 -9 179.28 27.9
-9 1 15 168.88 29.8
-1 -9 15 160.98 29.8
1 15 -9 116.39 27.5
1 -9 -15 174.68 29.9
-15 -9 -1 213.48 30.8
-1 9 -15 157.88 28.7
3 9 -15 32.8 10.8
-15 9 -3 18.1 6.4
3 -15 -9 9.3 8.9
3 15 9 12.6 7.7
-3 -15 9 18.2 10.3
-3 15 -9 18.9 8
9 3 15 25.2 10.8
15 -9 -3 21 9.5
9 15 -3 23.8 8.9
-15 -9 3 25.6 10.5
-15 -3 -9 27.4 8.8
-9 3 -15 25.5 9.2
-9 -3 15 8.7 8.5
9 -3 -15 35.9 11.4
-15 -3 -9 19 9.4
-9 -15 -3 7.8 7.1
15 9 3 22.1 9.5
15 3 -9 7.1 8.8
-15 3 9 24 10.1
-3 9 15 5.9 9.3
-9 15 3 21.1 10.4
-9 -15 -3 31.7 11.8
-3 -15 -9 26.4 10.4
-3 9 -15 27.3 9.6
15 -3 -9 21 9.8
-9 3 15 39.8 12
9 -3 15 18.2 7.5
9 3 -15 26.6 11.4
-15 9 3 27 10.1
3 -9 -15 21.2 12.4
-15 -3 9 6.9 8.4
-15 3 -9 25.1 6.7
-15 3 -9 17.7 5.8
-15 -9 -3 25 9.3
-9 -15 3 7.6 7.2
-9 -3 -15 25.8 11
-3 15 9 15.9 10.8
3 9 15 31.5 10.9
-3 -9 15 26.1 9.7
3 15 -9 24.5 9.2
9 -15 -3 26.4 11.2
-15 -9 5 583.84 80.19
5 9 -15 484.25 78.89
9 5 15 540.05 79.29
15 -9 -5 555.34 79.69
-15 -5 -9 425.46 77.49
-15 5 9 540.05 80.39
-9 -15 -5 479.45 78.99
-9 15 5 410.96 78.39
9 15 -5 483.95 78.39
-9 -15 -5 538.75 78.89
15 5 -9 568.94 79.89
-9 5 -15 519.45 76.99
5 -9 15 567.84 78.29
9 -15 5 489.65 76.39
5 -15 -9 594.94 80.69
-15 -9 -5 435.36 78.39
-15 9 5 579.54 80.19
-5 9 -15 557.14 77.79
5 -9 -15 592.84 79.99
5 -15 9 582.64 78.19
-15 -5 9 418.36 78.49
-5 -9 15 587.04 80.29
9 5 -15 445.56 79.29
-9 5 15 433.46 79.69
-5 -15 -9 625.64 80.49
-9 -15 5 506.65 78.99
15 -5 -9 557.94 80.49
9 -15 -5 560.14 80.69
7 -15 -9 191.58 41.7
9 7 15 266.77 41.2
15 -9 -7 256.57 42.3
-9 -7 15 283.97 41.8
-9 7 -15 231.68 37.4
-15 -7 -9 247.28 40.4
-7 -15 9 332.27 43.1
-15 -7 -9 253.77 40.2
-9 15 7 188.58 40.5
-7 9 15 296.07 42.5
-15 7 9 256.37 42.6
7 9 -15 178.08 39.8
9 15 -7 187.08 39.7
-9 -15 -7 300.67 41.7
9 -7 -15 254.37 42.6
-9 -15 -7 318.37 42.3
-7 -9 -15 274.37 42.3
-9 -7 -15 248.48 42.5
15 -7 -9 257.77 42.5
-15 -9 -7 233.88 40.5
-7 -9 15 286.77 43
-7 -15 -9 268.27 42
9 -15 -7 228.78 41.1
7 -9 -15 254.17 41.4
15 9 -7 267.57 40.7
-15 -9 -7 178.08 39.3
-7 9 -15 238.88 38.1
-9 -15 7 306.27 41.6
-15 9 7 217.08 41.5
7 9 15 194.38 40.4
-9 -15 -9 1.1 8.9
-9 -15 -9 0.8 7.6
-9 9 -15 3.3 3.8
-9 9 15 3 9.7
-9 15 9 6.2 6.8
-15 9 9 9.3 10.1
-15 -9 9 1.5 7.9
9 9 -15 -3.6 7.6
-15 -9 -9 2.8 6.9
-9 -9 -15 2.3 9.4
-9 -9 15 3 7.4
-9 -15 9 7.1 7.2
9 -9 -15 9.6 11.1
9 -15 -9 3.1 9.8
9 9 15 1.7 8.2
-15 -9 -9 2 7.6
15 -9 -9 8.4 10.7
15 9 -9 2.1 8.5
-11 1 -15 255.17 39.6
1 15 11 188.18 39.9
1 -11 15 232.28 40.4
-11 -1 15 211.28 40.3
1 11 -15 292.87 41
-11 15 1 217.28 39.6
-1 -11 -15 318.47 42.6
-1 -15 11 264.17 41.5
-1 15 -11 268.07 39.9
-15 11 -1 253.37 38.9
-15 -1 -11 250.47 38.5
-15 1 11 253.97 42.1
-1 11 15 204.58 40.6
-15 -1 -11 223.88 41.3
15 1 -11 249.78 41.6
-11 1 15 297.57 42.7
-11 -1 -15 190.18 39.4
-1 -15 -11 328.67 42.8
-1 -11 15 247.98 41.4
-15 -1 11 285.07 42.7
-15 1 -11 258.77 38.8
-15 1 -11 266.07 37.8
15 -1 -11 165.88 40
1 -15 11 253.67 40.5
1 15 -11 263.87 40.2
11 -1 15 266.47 39.1
-15 11 1 190.98 42.7
1 -11 -15 225.68 41
11 15 1 242.28 39.7
-1 15 11 195.98 39.6
1 11 15 263.67 40.9
15 11 -1 220.78 40.5
-3 11 15 10.4 9.7
-15 -11 3 1.1 7.8
-15 11 -3 0.8 4.6
15 3 -11 2.8 6.4
-3 15 -11 1.6 6.3
11 3 15 -1.7 6.7
15 -11 -3 -0.9 7
-3 -15 11 1.1 7.3
-15 -3 -11 0.2 5.8
-11 -15 -3 3.5 8.3
-3 -11 -15 1.2 7.3
15 11 3 -2 6.4
-11 15 3 0.3 7
11 -3 -15 3 7
-11 -3 15 2.8 9.1
-15 3 11 -3.5 8.9
3 -11 15 -1.4 7.4
3 11 -15 0.1 7.7
-11 -15 -3 -4.2 4.6
11 -15 3 0.1 3.9
3 15 11 -2.6 7.3
3 -15 -11 -5 9.1
-15 -3 -11 -0.5 7
-11 3 -15 -1.9 5.4
11 15 -3 4.4 7.9
-11 -15 3 0.9 5.8
-3 11 -15 -2.1 5.9
3 11 15 -6 5.6
3 15 -11 -5.4 6.4
-11 3 15 4 7.3
-3 -15 -11 -2.8 6.1
15 11 -3 -2.4 5.2
11 3 -15 1.5 6.5
-15 -11 -3 -4.5 4.7
-15 3 -11 -0.7 3.7
-15 3 -11 1.8 3.4
-15 11 3 -1.8 6.4
-15 -3 11 4 8.2
3 -11 -15 -1.7 9.1
-3 15 11 -2.1 5.7
15 -3 -11 -0.1 8.6
-3 -11 15 3.4 8.9
11 -15 -3 1.4 7.5
-11 -3 -15 -9.9 6.9
11 15 -5 215.28 33.2
15 5 -11 212.88 34.4
-11 -5 15 187.68 33.8
-11 5 -15 185.28 30.1
-15 -11 5 188.18 34.2
-5 -15 11 213.78 35.1
-5 15 -11 178.88 31
-15 -5 -11 210.58 32.7
5 -15 -11 122.09 33.5
-11 -15 -5 227.68 34.5
5 -11 15 174.28 32
-11 15 5 191.48 34.4
-11 -15 -5 184.08 32.7
15 -11 -5 174.08 33.5
5 15 11 241.98 34.1
5 -11 -15 211.38 34.5
-5 -15 -11 254.17 36.4
15 -5 -11 212.88 35.8
5 -15 11 215.88 32.5
5 15 -11 136.19 32.1
5 11 15 191.88 33.2
-15 -11 -5 136.19 32.2
11 -15 -5 221.68 35.5
-15 11 5 194.48 34.7
15 11 -5 230.58 33.6
-15 -11 -5 208.38 33
11 5 -15 152.88 33.5
-5 -11 15 172.48 34.1
-5 11 -15 194.88 31.6
-7 -15 11 4.2 6.7
-15 -11 7 6.2 8.9
7 -15 -11 7.1 11
-7 11 15 11.9 11
11 -7 -15 1.4 7.5
-15 -7 -11 4.1 7.8
-15 -7 -11 12.3 7.4
-15 7 11 4.1 10.4
-11 -15 -7 7.2 9.7
-11 -15 -7 5.9 6.7
-11 15 7 8.8 8.9
-7 -11 -15 2.1 9.8
15 -11 -7 2 8.9
7 11 -15 -0.5 7.7
11 15 -7 1.1 5.9
-11 -7 15 3.5 9.9
15 7 -11 6 9
-11 7 -15 9.8 3.7
-7 -15 -11 10.4 8.7
-15 -11 -7 7.4 8.4
-7 11 -15 15.3 6.2
-15 -11 -7 6.8 8.7
-11 -15 7 2 5.9
7 15 -11 1.5 7.6
-7 -15 -11 5.5 7.2
11 7 -15 9.8 9.5
-15 11 7 0.4 8.8
-7 15 11 3.5 6.8
-11 7 15 10.5 8.5
7 -11 -15 -4.5 9.3
-11 -7 -15 9.9 10.3
7 11 15 4.1 8.3
15 11 -7 11.2 7.8
-15 -7 11 1.1 6.8
-7 -11 15 10.6 9.9
15 -7 -11 4.7 10.2
11 -15 -7 29.2 12.8
11 -9 -15 48.7 15.3
-15 9 11 40.5 14.9
11 15 -9 25.2 10.7
-11 -9 15 11.5 11.9
-15 -9 -11 31.9 12.4
-15 -9 -11 51.59 13.4
-11 -15 -9 52.09 14.1
-11 15 9 30.6 13
-9 -11 -15 58.69 17
15 -11 -9 50.59 16.3
-15 -11 9 40.8 14.4
9 11 -15 73.49 17
-9 11 15 62.89 17
-9 -15 11 55.89 15.5
9 -15 -11 47.3 15
15 9 -11 44.9 14.1
11 9 -15 49.6 14
-15 -9 11 17.5 12.4
-15 -11 -9 62.19 15
-15 11 9 55.69 16.7
9 11 15 61.89 15.2
-11 -9 -15 32.5 14.4
-11 -15 9 24.7 12.8
-9 -15 -11 10.5 9.9
-9 -15 -11 47.3 12.6
9 -11 -15 27.4 12.7
-9 15 11 35.7 12.7
9 15 -11 31.5 11.4
-11 -9 -15 61.39 13.2
15 -9 -11 28.6 14.4
-11 9 15 33.9 13.1
-15 -11 -9 60.79 15.1
11 -15 -9 44.8 15.4
15 11 -9 21.1 12.2
-9 -11 15 34 14.3
-9 11 -15 35.9 8.2
-11 15 11 93.79 21.5
-11 -11 15 68.09 19.8
-15 -11 -11 88.19 19.8
-15 -11 -11 103.29 21.6
15 -11 -11 127.89 24.5
11 -15 -11 75.59 21.2
11 -11 -15 67.89 21.1
11 11 -15 65.99 23
11 15 -11 106.19 20.6
-11 -15 11 58.09 18.5
-11 -11 -15 53.49 18.6
-15 11 11 127.09 23.8
-1 -15 13 250.07 38.6
-1 15 -13 239.98 37.5
15 13 1 174.18 35.8
-13 1 -15 185.68 34.2
-15 1 13 250.77 39.7
-15 -1 -13 246.98 37.4
-15 -1 -13 222.78 35.4
-1 13 15 266.77 38.6
15 1 -13 181.08 36.8
1 -15 -13 227.78 38.5
-1 -13 -15 168.58 38.4
1 15 13 156.08 35.8
1 13 -15 273.17 38
-15 13 -1 225.38 36
13 15 -1 255.47 38.1
-13 -1 15 230.58 38.1
-13 1 -15 174.88 35.4
-13 15 1 180.18 36.6
-13 -1 -15 198.28 35.1
-13 -15 1 178.98 36.3
-13 1 15 224.98 38.2
1 -13 -15 299.87 40.9
-13 -1 -15 237.58 37.3
15 -1 -13 206.78 38.1
-15 1 -13 264.17 36.4
-15 1 -13 217.48 34.6
-1 -15 -13 255.17 40.5
15 13 -1 208.98 37.4
-1 13 -15 223.38 37.3
-1 -13 15 257.37 39.2
13 1 -15 176.18 37.8
-13 15 -1 224.18 36.1
13 15 1 263.17 37.5
-15 -13 -1 286.27 39.4
-1 15 13 199.08 37.2
1 15 -13 269.07 38.1
3 13 -15 23.6 12.3
15 3 -13 65.29 16.1
3 -13 15 44.5 13.8
3 15 13 26.5 12
-13 3 -15 46.9 11.6
-13 3 -15 45.4 10.4
15 13 3 47.5 14.4
-13 -3 15 39.5 13.7
13 -3 -15 25.3 12.7
-15 3 13 73.99 16.2
-13 -15 -3 41.7 13
-13 -15 -3 20.6 12
-13 15 3 54.49 14.8
-15 13 -3 54.09 11.5
13 15 -3 71.29 14.4
-15 -13 3 55.09 15.5
-3 -13 -15 84.09 18.7
-15 -3 -13 44.9 13.9
-15 -3 -13 51.29 13.1
-3 -15 13 61.69 16.8
3 -15 -13 66.59 16.1
-3 15 -13 41.4 12.4
15 -3 -13 44.7 15.1
-3 -15 -13 80.39 18.4
3 15 -13 34 13.1
3 13 15 69.19 16.9
3 -13 -15 79.69 19.3
-3 13 -15 59.29 14
-15 3 -13 57.09 10.2
15 13 -3 69.49 14.6
13 3 -15 28.6 12.9
-13 -15 3 55.39 14.8
-15 13 3 46.5 14.3
-13 -3 -15 61.49 15.5
-13 -3 -15 66.89 13.8
3 -15 13 45.4 13.8
-3 -13 15 46.3 15.5
-15 -13 -3 29.3 11.9
-15 3 -13 55.99 11
-13 3 15 43.8 15.7
-15 -3 13 58.29 15.7
-15 5 13 242.68 46.8
-13 15 5 254.27 46
5 15 13 282.97 46.4
-15 -13 5 340.97 47.5
5 -15 -13 193.38 46.1
-13 5 -15 290.67 41.2
-13 5 -15 290.47 41.2
-5 -15 13 234.68 46.1
-5 15 -13 315.07 44.3
-15 -5 -13 342.57 47.4
-5 -13 -15 270.37 47.7
15 5 -13 223.48 44.5
5 15 -13 317.97 46.5
-5 -15 -13 325.17 48.4
-5 -13 15 292.17 47.2
5 13 15 321.77 47.2
-15 13 5 313.67 46.8
-5 15 13 288.97 46.9
13 -15 -5 232.18 46
15 -5 -13 217.68 46.4
-15 -5 13 279.17 46.8
-5 13 -15 314.27 44.4
-13 -15 5 287.07 45.6
-13 -5 -15 272.97 46.8
-13 -5 -15 291.87 44.7
15 13 -5 218.48 44.8
13 -7 -15 92.59 23.6
-15 -7 -13 96.09 20.6
15 -13 -7 106.99 25
-13 -15 -7 125.99 23
-13 -15 -7 104.59 22.1
-7 -13 -15 111.39 22.9
-15 -13 7 140.69 22.8
7 13 -15 102.49 22.3
-15 -7 -13 92.69 21.9
7 -15 -13 94.89 23.7
15 7 -13 128.59 22.4
-15 7 13 71.99 23.1
-13 15 7 95.19 22.3
-7 -15 13 114.79 22.5
-13 -7 -15 94.19 20.2
-7 -15 -13 132.99 23.2
-7 13 -15 104.59 18.6
7 15 -13 94.59 21.6
7 13 15 86.39 20.4
-15 -7 13 134.59 24.7
15 13 -7 63.49 20.4
-13 -15 7 101.89 21.3
13 -15 -7 111.29 24.9
-15 -13 -7 126.69 21.5
7 -13 -15 118.59 25.4
-15 13 7 94.59 22.7
-13 -7 -15 87.49 22.5
15 -7 -13 69.19 21.8
-7 -13 15 87.69 23.4
-13 -15 -9 -0.2 5.9
9 -15 -13 12.9 11.6
-13 -9 15 0.4 9.2
-15 -13 9 -3.5 5
-15 -9 -13 2.4 7.5
-15 -9 -13 -4.4 5.3
-13 -15 -9 3.7 9.1
-9 -13 -15 -0.9 10
15 -13 -9 5.7 11.3
9 13 -15 -5.7 5.2
13 15 -9 -3.4 5.2
15 9 -13 3.6 7.2
-9 -15 13 -5.2 7.7
-13 15 9 0.1 9.1
-15 9 13 -1.5 9.8
13 -9 -15 -5.9 10.1
9 -13 -15 2.9 8.4
-15 13 9 -10.1 7.4
9 15 -13 5.4 6.8
-9 15 13 11 9.7
-9 13 -15 -0.2 3
-13 9 15 -3.5 9
-9 -15 -13 -3 9.5
-9 -15 -13 -2 6.4
-15 -13 -9 -3.8 8.5
-15 -13 -9 3.7 7.6
-13 -15 9 -1.8 5.7
-13 -9 -15 6.8 9.8
13 9 -15 0.8 9.2
-13 -9 -15 0 6.1
15 13 -9 0.7 6.2
15 -9 -13 -4.3 10.5
13 -15 -9 -0.5 10.2
-15 -9 13 1.2 6.8
-9 -13 15 0.7 8.9
-13 -15 -11 3.9 9.9
-15 11 13 9.2 11.2
-11 -13 -15 13.2 11.3
-11 -13 -15 -1.7 7.2
-11 13 15 4.8 10.4
11 13 -15 4.3 9.2
13 15 -11 8.1 7.4
-13 -11 15 5.3 10.3
-15 -11 -13 15.4 10.8
-15 -11 -13 4.1 6.3
-11 -15 13 4.1 6.9
11 -15 -13 8.1 11.5
13 -11 -15 0.6 9.2
15 -13 -11 3.9 12.1
15 11 -13 15.5 10.4
-13 -15 -11 3.4 8
-15 -13 11 4.7 9.3
-13 15 11 3.2 9
15 -11 -13 7.1 9.1
13 -15 -11 2.3 11.3
-11 -15 -13 -0.6 6.8
-15 -13 -11 0.1 9.4
-11 -13 15 6.2 9.8
-13 -11 -15 2.8 7.8
-13 11 15 -0.3 10.5
-11 -15 -13 2.8 6.2
-11 15 13 0.5 9.7
11 15 -13 2.3 6.3
13 11 -15 1.1 9.1
-15 -11 13 4.2 9.6
-15 -13 -11 -0.1 8.2
-15 13 11 3.4 9.3
11 -13 -15 6.1 11.2
-13 -15 11 1.2 6.2
15 13 -11 6.7 7.1
-13 -11 -15 6.6 10.6
-13 -13 15 6 7.7
-15 13 13 7.9 8.5
-13 -15 -13 0 7.1
-13 -15 -13 2.5 7.8
-13 -15 13 0.4 6.4
-13 -13 -15 5.9 10.7
-13 -13 -15 -5.7 6.1
-15 -13 -13 1.3 9.3
-15 -13 -13 -0.1 7.3
-15 -13 13 2.4 6.8
-13 13 15 0.1 9.9
-13 15 13 1 9.5
13 -15 -13 4.2 11.4
13 -13 -15 -3.3 11.4
13 13 -15 0.6 6.8
13 15 -13 -2.6 5.9
15 -13 -13 8.6 10.5
15 13 -13 3.4 9.2
15 -1 -15 50.29 17.2
15 1 -15 73.59 17.9
15 15 -1 39.6 14
15 15 1 40.6 14.2
-15 -15 -1 71.59 17
-15 -1 -15 64.59 16.6
-15 -1 -15 71.59 14.7
-15 -1 15 70.59 18.7
-15 1 -15 54.79 14.4
-15 1 -15 66.59 13.7
-15 1 15 83.89 17.9
-15 15 -1 78.59 16
-15 15 1 82.09 17.5
-1 -15 -15 31.8 14.5
-1 15 -15 63.69 16.1
-1 15 15 95.49 19.7
1 -15 -15 36.2 16.4
1 -15 15 69.99 17.8
1 15 -15 72.69 17.7
3 15 15 133.29 26.8
3 15 -15 183.58 28.9
15 3 -15 95.19 27.6
15 15 -3 181.58 28.7
-15 -15 3 152.78 27.6
-15 -3 -15 133.79 28.4
-15 -3 -15 150.38 26.6
-15 -3 15 133.49 29
-15 3 -15 156.08 24.5
-15 3 -15 143.39 23.4
-15 15 3 118.49 27.3
-3 -15 -15 122.59 29.5
-3 -15 15 154.68 29.6
-3 15 -15 162.48 27.1
3 -15 15 174.68 28.9
-5 -15 15 620.44 107.79
-5 15 -15 778.02 106.09
-5 15 15 557.74 106.79
5 15 -15 603.34 106.79
5 15 15 874.21 108.79
15 -5 -15 722.73 108.69
15 5 -15 563.64 106.79
15 15 -5 868.61 108.29
-15 -5 15 637.14 107.79
-15 5 15 615.74 108.09
-15 -15 -5 836.02 108.29
-15 15 5 772.12 108.49
-5 -15 -15 721.93 108.39
-15 -5 -15 753.12 106.89
-15 -5 -15 806.42 108.99
-15 -15 5 769.32 107.79
-15 -15 -7 460.65 57.59
-15 -15 7 390.86 56.99
-15 -7 -15 322.37 56.59
-15 -7 -15 406.86 56.49
-15 -7 15 383.56 57.89
-15 7 15 409.86 58.49
-7 -15 15 347.67 57.59
-7 15 -15 357.56 53.39
-7 15 15 262.27 55.99
7 -15 -15 240.48 57.49
15 -15 -7 418.16 59.29
15 -7 -15 274.07 56.59
15 7 -15 298.07 55.39
15 15 -7 383.56 56.59
-9 15 15 64.69 16.6
15 -15 -9 71.49 19.6
15 -9 -15 34.4 14.5
15 9 -15 34.8 13.3
15 15 -9 37.1 13.9
9 -15 -15 73.79 19.8
9 15 -15 39.8 15.1
-9 -15 -15 87.79 20.5
-9 -15 -15 25.1 11.6
-9 -15 15 77.49 18.7
-15 -9 15 44.9 14.8
-15 9 15 86.59 21.1
-15 15 9 57.99 17.3
-15 -15 -9 21.6 14.1
-15 -15 -9 72.49 17.4
-15 -15 9 55.29 15.5
-15 -9 -15 41.4 15.4
-15 -9 -15 47.8 16.2
-15 -15 -11 2.9 7.5
-15 -11 -15 5.4 11.1
-15 -11 -15 18.6 9.6
-15 -11 15 -0.5 7.1
-15 11 15 -0.9 9.8
-15 15 11 5.9 10.2
-11 -15 -15 6.3 10.9
-11 -15 -15 11.8 9.1
-11 -15 15 16.5 10.1
-11 15 15 2.6 9.9
11 -15 -15 8.3 9.9
11 15 -15 21.7 11.6
15 -15 -11 18.9 14.1
15 -11 -15 16.7 13.4
15 11 -15 10.2 10.1
15 15 -11 8.2 9.4
-15 -15 -11 8.2 8.7
-15 -15 11 3.5 9.6
15 15 -13 70.09 18.7
13 15 -15 87.79 18.2
15 -15 -13 91.69 23.5
15 -13 -15 84.99 22.8
-13 -15 -15 32.8 16.9
-13 -15 -15 64.29 17.9
-13 -15 15 41.2 17.3
-13 15 15 40.1 17.6
13 -15 -15 100.79 23.7
-15 -15 13 43.9 15.6
-15 -13 -15 38.2 16.5
-15 -13 -15 85.79 19
-15 -13 15 66.09 18.5
-15 13 15 116.39 21.2
-15 15 13 45.6 17.9
-15 -15 -13 100.69 21.6
-15 -15 -13 86.29 19
-15 -15 -15 86.59 24.6
-15 -15 15 151.98 27.4
-15 15 15 61.89 22.1
15 -15 -15 161.58 30.1
15 15 -15 88.89 22.4
0 -16 0 1047.6 158.08
0 0 16 1002.3 158.48
0 0 -16 1126.29 159.08
0 -16 0 1166.38 159.18
-2 0 16 147.09 25.6
0 -16 -2 101.59 21.8
0 -16 -2 147.69 22.9
0 -16 2 96.69 21.2
0 -16 2 96.89 21.6
2 0 -16 162.48 23.5
2 0 16 143.59 24.7
16 -2 0 96.89 20.5
16 2 0 151.48 22.5
-2 -16 0 139.29 22.6
-2 -16 0 81.29 21.5
0 -2 -16 64.19 21.2
0 -2 16 129.29 24.6
0 2 -16 161.18 24.7
0 2 16 71.89 22
2 -16 0 102.89 21.6
2 -16 0 115.29 23.2
16 0 -2 107.99 22
16 0 2 129.39 20.9
2 -2 -16 -4 9
2 -2 16 2.7 8.1
2 2 -16 -6 7.7
2 -16 -2 -3.4 5.4
2 -16 -2 0.9 6.6
2 -16 2 6.6 8.7
2 -16 2 0.6 6.2
-16 2 -2 3 6.9
-2 -16 -2 4.5 6.8
-2 -16 -2 5.6 5.8
-2 -16 2 6.3 6.5
-2 -16 2 -0.9 6.6
-2 -2 -16 -0.1 7.4
-2 -2 16 0.4 9.2
-2 2 -16 1.9 7.7
-2 2 16 2.2 7.1
-16 -2 2 1.8 7.2
2 2 16 2 8.8
16 -2 -2 2.6 6.3
16 -2 2 1.3 4.6
16 2 -2 -1.9 6.4
16 2 2 2.9 6.5
0 -4 16 174.48 38.9
0 -4 -16 270.87 39.9
-16 0 4 244.98 39.9
-4 -16 0 211.38 38.1
0 4 16 296.47 40.7
4 -16 0 247.98 39.8
4 -16 0 246.38 38.4
-16 -4 0 203.58 38.7
-16 4 0 245.38 38.6
-4 0 -16 178.98 38.3
-4 0 16 287.97 41.6
0 -16 -4 278.57 40.7
0 -16 4 248.58 39.5
0 -16 4 184.48 37.7
4 0 -16 227.98 40.1
4 0 16 227.98 39.4
16 -4 0 257.07 38
16 4 0 242.78 38.9
-16 0 -4 235.38 37.8
16 0 4 251.87 37.5
0 4 -16 255.77 39.9
16 0 -4 251.07 39.2
16 4 2 415.06 73.49
-16 -4 2 390.26 73.69
2 -16 -4 582.94 76.39
-4 -16 -2 532.15 74.59
4 2 16 407.46 74.19
-4 -16 -2 589.54 75.99
16 2 -4 456.65 74.09
2 -4 16 472.55 74.89
2 4 -16 437.76 74.39
-4 -2 16 555.24 76.39
-4 2 -16 441.36 74.19
-2 4 16 519.75 75.69
16 -4 -2 533.05 74.19
4 -16 2 578.74 75.29
4 -16 2 511.65 73.99
-16 4 -2 496.35 73.39
-16 2 4 475.15 75.49
-2 -16 4 426.56 73.99
4 -2 -16 513.95 75.79
-16 -4 -2 430.26 76.99
16 -2 -4 419.16 73.89
-2 -4 16 619.84 76.89
16 4 -2 505.65 74.79
16 2 4 474.65 73.29
2 -16 4 410.16 73.79
2 -16 4 481.65 73.79
-16 -2 4 615.54 76.49
-16 2 -4 569.74 73.59
4 -2 16 495.75 74.79
4 -16 -2 496.25 75.39
-2 -16 -4 431.26 73.49
-2 -16 -4 501.65 75.49
-4 -16 2 531.15 74.59
16 4 4 1188.38 157.98
-16 -4 4 1192.68 159.08
-16 4 -4 1065.19 156.48
-4 4 -16 1002.1 157.58
-4 4 16 1269.17 160.48
16 4 -4 1174.48 158.78
-4 16 4 894.71 157.78
16 -4 -4 1202.58 158.98
4 -16 4 1073.89 157.38
4 -4 -16 1083.89 159.08
4 4 16 875.21 157.98
4 -16 4 1194.28 158.78
-4 -4 16 1136.49 159.38
4 -16 -4 880.41 158.18
0 -16 -6 348.87 49.9
0 -16 6 283.97 48.1
-16 0 -6 272.67 46.8
-16 0 6 305.67 49.5
16 -6 0 282.97 46.9
0 6 -16 331.07 49.4
-16 -6 0 342.37 49.4
-16 6 0 269.97 47.5
0 16 -6 295.87 47.9
-6 0 16 348.27 50.99
6 -16 0 308.27 47.8
6 0 16 277.97 48.5
-6 0 -16 288.77 48.7
-6 -16 0 286.77 48.7
0 -6 -16 257.87 48.5
0 -6 16 318.17 49.6
0 6 16 395.96 51.29
6 -16 0 355.46 49.4
16 0 -6 315.77 49.2
-16 6 -2 623.24 94.79
-6 2 -16 684.13 96.29
-2 -16 6 749.33 97.29
-2 6 16 628.54 97.49
-6 -16 -2 634.54 96.29
-6 -16 -2 771.42 96.99
-16 2 6 535.95 95.89
6 -2 -16 776.12 97.79
6 2 16 593.94 96.19
16 -6 -2 670.83 95.79
16 6 2 583.64 95.99
6 -16 2 614.04 95.09
-6 16 2 633.64 96.39
16 2 -6 707.43 96.89
6 -16 2 520.55 95.39
-16 -2 -6 732.03 96.09
2 -6 16 619.04 96.39
16 -2 -6 589.24 96.49
-6 -16 2 587.44 95.79
-2 -16 -6 713.63 97.29
6 2 -16 547.55 96.59
6 -16 -2 737.63 97.79
-16 2 -6 628.24 94.39
16 6 -2 519.65 95.59
2 -16 6 715.23 96.69
-16 -6 -2 749.92 97.29
2 -16 6 650.43 95.89
-16 6 2 634.94 96.19
-6 4 -16 1657.43 232.78
-4 6 16 1365.86 233.88
4 -16 -6 1648.83 234.38
-6 -16 -4 1519.55 233.48
-6 16 4 1461.15 233.28
-16 -4 -6 1617.84 233.08
-16 -6 4 1730.63 234.08
6 -16 4 1868.91 233.48
16 6 4 1660.33 233.08
6 4 16 1701.53 234.08
-16 6 -4 1485.85 230.78
4 -16 6 1831.22 233.58
-16 4 -6 1626.64 230.78
-4 -16 -6 1335.07 233.08
4 6 16 1617.54 233.98
6 -16 -4 1479.85 233.98
-4 6 -16 1617.74 232.98
-6 -16 4 1742.83 233.98
-16 6 4 1735.83 234.28
6 -4 16 1475.35 232.58
6 4 -16 1595.04 233.88
4 -6 -16 1779.12 234.68
-4 16 6 1424.56 233.18
16 -4 -6 1827.02 234.38
-16 -6 -4 1592.64 233.38
6 6 16 2497.85 330.67
6 16 -6 2353.66 329.57
16 -6 -6 2259.97 329.67
-16 -6 6 1989.9 329.77
-16 6 -6 2131.69 325.57
-16 6 6 2281.47 330.37
-6 -16 6 2315.17 329.97
-16 -6 -6 2416.86 329.57
6 -16 -6 2201.88 330.57
-16 6 -6 2146.59 325.67
-6 6 -16 2319.37 328.57
-6 6 16 2225.28 330.77
-6 -16 -6 2120.79 329.17
-6 -6 16 2617.54 331.07
6 -6 -16 2656.23 331.07
6 -6 16 2237.38 328.77
-16 -8 0 25.3 11.1
-8 0 -16 30.2 10.7
0 8 16 17.3 11.5
0 -8 -16 10.1 11
0 -8 16 32.6 12.5
-16 0 -8 36.8 9.8
-16 0 8 30 13.2
-8 -16 0 33.1 11.3
-16 8 0 41.5 11
16 8 0 34.6 11.9
8 -16 0 38.9 12.4
8 0 -16 49.99 14.5
8 0 16 39.3 11.9
-16 0 -8 24 8.9
0 -16 -8 26.3 11.1
0 8 -16 41.8 12.4
16 0 -8 26 12.1
0 16 -8 43.8 11.7
0 16 8 20.4 11
-8 0 16 37.9 13.8
0 -16 8 40.7 12.1
8 -16 2 54.69 12.4
2 8 -16 12.9 9.7
16 2 -8 24.5 9.9
8 2 16 42.8 11.6
16 -8 -2 15.5 8.2
8 16 -2 47.8 12.3
2 16 8 7.3 7.7
16 8 2 24.6 10.9
-2 8 16 27.4 12.5
2 -8 16 43.1 12.7
-8 16 2 38.1 11.6
-2 -8 -16 30.3 13.2
-8 -16 -2 19.8 9.5
-16 8 -2 24.5 8.6
-2 -16 8 38.2 12
-2 16 -8 40.9 10.9
-16 -8 2 34 11.2
-8 -2 16 18.2 11.6
8 -2 -16 32.6 11.5
-8 2 -16 38.1 11.2
2 -16 -8 24.3 12.7
-16 2 8 15.4 9.7
-16 -2 -8 29.8 9.7
-8 -16 -2 17.6 8.9
-16 -2 -8 39.7 10.5
2 -8 -16 29.4 11.8
-2 16 8 20.9 10.6
-8 -2 -16 27.9 11.1
8 2 -16 35.2 12.6
-16 2 -8 34.6 8.5
-16 -8 -2 27.1 11.5
-8 -16 2 31.5 11
-16 8 2 28.9 11.3
2 16 -8 47.2 12.2
16 -2 -8 41.1 13.1
-16 2 -8 29 8.3
2 8 16 11 10.4
8 -16 -2 21.4 11.3
2 -16 8 26.5 10.6
-2 -16 -8 31 12.8
-2 -8 16 49.8 13.9
-2 8 -16 31.8 11.2
-8 2 16 35.6 13.3
16 8 -2 11.4 9.7
8 -2 16 24.9 11.5
-16 -2 8 20.3 11.7
4 8 -16 467.05 88.89
-8 -4 16 601.14 90.19
-16 -4 -8 683.73 89.39
8 4 16 608.04 89.99
8 -16 4 563.34 87.49
16 4 -8 571.44 89.79
16 -8 -4 553.94 89.19
16 8 4 537.85 88.79
-16 -8 4 642.34 90.19
-16 8 -4 604.14 86.29
-8 -16 -4 693.43 90.59
-16 4 8 627.04 90.89
-16 -4 -8 516.75 87.99
-8 16 4 544.85 89.19
-4 -16 8 515.45 89.09
16 8 -4 607.74 89.69
-4 -16 -8 685.23 89.89
-16 4 -8 627.44 85.89
-16 4 -8 594.04 85.89
8 -4 16 590.34 88.19
4 -8 -16 679.63 90.79
-16 8 4 617.24 90.49
-8 -16 4 535.25 89.29
8 -16 -4 629.24 90.89
-16 -8 -4 524.85 88.99
16 -4 -8 506.85 89.49
-4 -8 16 745.13 92.09
-4 8 -16 632.24 88.79
6 -8 16 1034.5 146.49
8 6 16 1012.8 147.89
16 -8 -6 1018.5 148.19
6 -16 -8 1158.78 149.59
-16 -6 -8 851.91 146.49
-8 6 -16 1032.1 145.89
6 8 -16 960.7 147.79
-6 8 16 946.21 148.29
-8 16 6 855.21 147.39
8 -16 6 928.81 145.19
16 6 -8 982.5 147.79
-16 -6 -8 1131.49 147.69
-16 6 8 1111.49 149.29
8 -16 -6 993.8 148.29
16 -6 -8 917.21 147.89
16 8 -6 1186.58 148.69
6 -16 8 960.6 145.99
-16 8 6 1060.49 148.99
6 8 16 1041.3 148.59
-6 8 -16 978 145.99
-8 -8 -16 335.47 46.7
-8 8 -16 254.17 40.2
8 8 -16 317.37 43.9
-8 -16 8 288.57 43.8
-16 -8 -8 308.87 43.5
-16 -8 -8 235.38 42.3
8 8 16 275.07 43.3
16 -8 -8 236.68 44.1
-16 8 8 203.08 42.9
-16 -8 8 261.47 43.1
-8 16 8 232.78 43.4
8 -16 -8 273.17 44.5
-8 -16 -8 193.48 41.2
8 -8 -16 305.27 44.4
-16 0 -10 178.08 27.4
0 16 10 185.98 30.2
0 -16 -10 114.69 29.7
-16 10 0 168.08 28.1
16 0 -10 133.09 28.5
-10 16 0 166.88 28.7
-10 0 -16 168.08 29.1
-10 0 16 102.89 27.6
0 -16 10 156.58 29.6
0 -10 16 178.68 30.5
10 0 -16 201.58 30.3
16 10 0 146.99 29.2
0 10 -16 120.29 28.5
0 16 -10 211.88 29.7
0 -10 -16 181.18 32
-16 0 -10 160.78 26.7
-16 0 10 176.28 31
16 10 2 64.29 14.3
2 16 10 48 14.1
16 2 -10 20 11.6
10 2 16 47.9 12.6
-10 -2 16 69.09 16.4
-2 -16 10 33.7 11.6
-2 16 -10 43.6 12
-16 -10 2 33 11.2
-10 -16 -2 13.6 9.3
-10 -16 -2 53.89 13.8
-10 16 2 44.4 12.7
2 -16 -10 29.4 12.3
2 -10 16 41.8 13.5
2 10 -16 52.79 13.7
-16 2 10 35.3 13.8
10 -2 -16 16.7 12.2
10 16 -2 13.8 10
-2 -10 -16 17.9 12.2
-16 10 -2 52.29 11.5
-10 2 -16 43.6 11.9
-10 -2 -16 48.8 13.6
-10 -16 2 24.5 11.2
-2 16 10 38.7 12.8
-2 -10 16 34.5 13.1
2 -16 10 47.7 12.6
10 -2 16 48.6 11.4
16 10 -2 37.2 12.9
2 -10 -16 6.6 11.5
10 -16 -2 43.6 13
16 -2 -10 31.7 13.1
-2 10 -16 34.8 12
2 16 -10 37.2 12
10 2 -16 51.89 15.1
-16 -2 10 21.2 12.1
-16 10 2 52.69 13.4
-16 2 -10 35 9.2
-16 2 -10 37.1 8.8
-10 2 16 19.7 11.2
-2 -16 -10 29.4 11.6
-16 -10 -2 27 11.9
-4 16 -10 90.99 24.4
4 -16 -10 127.39 26.7
10 -4 -16 85.79 23.4
-4 -10 -16 148.59 27.8
-10 -4 16 157.28 27
-16 -4 -10 153.48 25.3
-4 10 16 77.99 22.7
16 10 4 142.59 24.5
-16 10 -4 128.99 19.9
-16 4 10 163.38 27
-10 16 4 91.89 24.6
-10 4 -16 130.19 22.6
10 4 16 115.99 23.9
10 16 -4 85.39 22.1
-10 -16 -4 137.99 23.8
-4 -16 10 137.59 25.8
16 -10 -4 126.69 24.1
-16 -4 -10 139.69 23.3
-16 -10 4 118.29 23.9
-10 -16 -4 85.29 23.4
16 4 -10 161.48 26
-4 -16 -10 133.99 26.5
4 16 -10 118.69 24.1
-16 -10 -4 133.79 24.6
-10 -16 4 87.59 22.5
-4 -10 16 143.19 26.6
-4 10 -16 127.29 23.2
4 -10 -16 166.18 27.6
10 4 -16 94.99 23
10 -16 -4 153.58 26.9
4 -16 10 172.18 24.8
-16 4 -10 128.69 18.9
16 -4 -10 139.29 26.3
-10 4 16 153.08 27.5
-16 4 -10 126.79 18.9
-4 16 10 96.39 24.5
-16 10 4 139.59 25.6
4 10 16 87.89 24.4
10 -6 -16 237.98 38
10 6 16 230.58 36.4
16 -10 -6 290.57 38.2
-10 -6 16 150.78 35.9
-10 16 6 225.98 36.7
-6 -10 -16 181.78 35.9
-16 -6 -10 158.58 35.2
-16 -6 -10 226.78 35
-16 6 10 141.49 35.5
-10 6 -16 232.38 32.7
-10 -16 -6 146.69 34.6
-16 -10 6 284.27 37.8
-6 -16 10 138.09 34.9
6 -16 -10 178.58 36.6
6 10 16 283.57 37
-10 -16 6 257.87 37.2
10 6 -16 178.38 34.9
10 -16 -6 206.88 37
6 -10 -16 193.28 35.7
16 -6 -10 206.68 36.3
-6 -16 -10 181.88 35.3
-16 10 6 235.28 37.8
-6 10 -16 244.18 34.1
-6 16 10 141.29 35
6 16 -10 276.07 36.9
-16 8 10 1.1 9.8
-10 8 -16 1.2 3.6
-16 -10 8 9.3 9.5
-10 -16 -8 0.7 6.8
10 16 -8 6 8.3
-10 16 8 -0.9 8.2
-8 -10 -16 9 10.6
10 8 16 0.6 7.8
10 -8 -16 1.8 10.6
-8 10 16 -10.1 8.2
-8 -16 10 3.3 8.3
8 -16 -10 -4.9 9.7
-10 -16 -8 6.1 7.6
-16 -8 -10 1.7 7.2
8 10 -16 1.2 6.6
-16 -8 -10 -4.5 5.8
16 -10 -8 2.9 10.1
16 8 -10 2.4 8.2
-10 -8 16 0.6 7
-8 -16 -10 -2.3 6.6
-8 10 -16 4.8 4.8
-10 -8 -16 2.6 9.9
8 10 16 7.7 8.6
8 16 -10 -2.8 7.1
-16 -10 -8 4.6 7.7
-10 8 16 8.6 10.2
10 -16 -8 -3.4 9.4
-16 10 8 -2.8 8.7
-8 -10 16 5 7.4
16 10 -8 -6.2 7.4
16 -8 -10 9.5 10.5
10 8 -16 -4 7.7
-8 -16 -10 1 7.1
-16 -10 -8 2.4 7.8
-8 16 10 -2.5 5.5
8 -10 -16 13.2 11.2
-16 -8 10 3.4 9.1
-10 -16 10 163.08 29.6
-10 -10 -16 226.48 31.3
-16 -10 -10 124.29 27
-16 10 10 154.38 30.3
-10 -16 -10 168.18 30.1
-10 16 10 98.59 27.5
-10 -10 16 112.59 28.9
10 10 -16 219.18 30
-10 -16 -10 176.38 27.9
10 -16 -10 174.48 31.7
10 -10 -16 116.69 29.6
-16 -10 10 158.78 27.9
-10 10 -16 153.68 22.9
16 10 -10 98.79 25.6
16 -10 -10 178.48 31.5
10 16 -10 127.69 26.6
0 12 -16 174.58 31.4
0 -12 16 170.48 32.3
12 0 -16 173.28 32.5
-16 0 -12 184.58 29.3
-16 0 12 244.08 34.6
-12 -16 0 200.28 32.2
-12 16 0 147.99 30.2
0 -12 -16 220.08 34.9
0 12 16 132.49 31.8
12 16 0 222.18 32.7
-16 0 -12 211.78 31.2
-16 12 0 185.48 30.6
16 12 0 133.79 30.9
0 16 -12 163.58 30.9
0 16 12 186.88 31.4
0 -16 -12 199.48 33.2
-16 -12 0 227.18 33.5
-12 0 -16 190.18 31.6
16 0 -12 117.69 30.3
0 -16 12 142.99 31
-16 -2 -12 10.6 6.8
2 16 12 7.8 7.1
-12 16 2 11.2 10.7
-2 12 16 8.4 9.8
2 -16 -12 16.7 10.2
-12 -16 -2 9.2 8.4
-16 2 12 11.7 11
2 12 -16 6.8 8.4
-2 -12 -16 6.6 8.7
2 -12 16 10.2 9.7
-12 -2 16 -0.9 8.6
-12 2 -16 9.5 7.4
-16 -2 -12 14.2 9
-16 -12 2 4.5 8.3
16 2 -12 13.3 8.9
12 -2 -16 9.4 11
16 -12 -2 -1.9 4.6
16 12 2 9.1 8.2
12 -16 2 3.8 4.8
-16 12 -2 4.1 5.9
-2 -16 12 2.6 8.9
12 16 -2 13 9.2
-12 -16 2 8.3 8.9
2 -12 -16 22.9 12.7
-16 12 2 13.9 8.9
-16 2 -12 8 4.9
-12 2 16 16.2 11.6
-2 -16 -12 16 9.5
12 2 -16 29 12.2
-16 -2 12 14.4 11.1
-16 2 -12 11.7 6.7
-2 16 12 5.2 7.6
-16 -12 -2 9.1 7.1
-12 -2 -16 7 8.5
2 -16 12 11.1 9.2
-2 -12 16 12.1 10.5
16 -2 -12 7.1 9.9
2 16 -12 13.7 9.1
2 12 16 10.8 10.1
12 -16 -2 1.5 6.3
-12 -4 16 121.89 25.3
-16 -4 -12 121.59 24.8
-12 16 4 109.59 25.7
-16 -12 4 130.29 26
4 -12 16 105.39 24.4
4 12 -16 76.19 24.1
-16 -4 -12 140.39 24.4
-4 -16 12 110.19 25.7
-4 16 -12 138.49 23.9
-16 4 12 158.28 28.5
-12 -16 -4 140.49 24.6
12 -4 -16 156.88 27.8
-12 4 -16 137.89 22.7
4 -16 -12 93.49 24.7
12 16 -4 111.99 23.6
16 4 -12 94.69 23.5
16 -4 -12 130.69 26.8
-16 4 -12 129.39 19.4
12 4 -16 97.39 25.7
-4 12 -16 128.49 23.6
4 -12 -16 75.99 24.8
-16 -4 12 130.39 25.3
16 12 -4 98.59 24.6
-12 -16 4 139.19 26.4
12 -16 -4 160.28 27.5
-4 -16 -12 153.78 28
-4 -12 16 107.29 26.4
-12 4 16 176.48 27.5
-16 4 -12 153.58 19.5
-16 -12 -4 114.59 24.7
-16 12 4 198.18 31.3
-12 -4 -16 183.08 28
4 16 -12 178.68 26.8
4 -16 12 164.98 25.9
-4 16 12 136.89 26.9
-6 -12 -16 232.28 33.5
-6 12 16 145.99 31.7
-16 6 12 197.98 33.4
-12 -16 -6 224.38 32.5
-12 -16 -6 218.38 31.9
-12 16 6 189.78 31.8
-6 -16 12 122.59 30.3
6 12 -16 221.18 32.7
12 -6 -16 145.19 32.3
16 -12 -6 161.98 31.6
-16 -6 -12 210.88 31.7
6 -16 -12 115.99 32
-16 -12 6 130.89 29.4
16 6 -12 166.98 31.4
-16 -6 -12 150.88 29.8
12 16 -6 122.99 29.6
-12 6 -16 161.78 26
-16 12 6 165.18 32.1
-6 -12 16 219.28 33.7
-12 -6 -16 107.59 30.1
-16 -12 -6 204.98 31.9
-6 12 -16 161.08 28.1
-6 16 12 190.28 32.2
-12 -16 6 201.58 31.8
16 -6 -12 120.49 30
16 12 -6 179.88 31.1
12 6 -16 233.98 32.4
6 16 -12 153.88 29.4
-16 -12 -6 144.99 30
-16 -6 12 150.68 31.4
12 -16 -6 161.88 33.2
-6 -16 -12 178.08 31.2
6 -12 -16 190.28 31.9
-8 -12 -16 0.2 7.5
8 -16 -12 -1 10.5
-16 8 12 8.7 11
-12 16 8 4.6 7
-16 -8 -12 -4.4 5.1
12 16 -8 -3 5.2
16 8 -12 1.9 9.1
-8 12 16 -3.3 8.8
12 -8 -16 1.4 10.7
-16 -8 -12 -2.5 6.4
16 -12 -8 4.7 10.7
-12 -16 -8 7.5 7.5
-8 -16 12 3.8 6.7
8 12 -16 -3.1 6.1
-16 -12 8 0.4 8
-12 -8 16 0.8 9.2
12 -16 -8 0.1 9.7
8 12 16 -4.2 7.8
8 16 -12 -0.7 7.4
12 8 -16 4.9 6.7
-16 -8 12 -1.6 6.1
16 12 -8 4.8 6.8
-12 -16 8 -0.2 5.6
16 -8 -12 -2 9.1
-8 16 12 0.7 8.9
-16 -12 -8 -2.3 8.1
-8 -12 16 2 9.3
-16 12 8 -0.8 9.5
-12 -8 -16 1.1 9.4
-12 -8 -16 1.5 5.7
-12 8 16 3.1 10.3
-8 -16 -12 1.5 7.5
-8 -16 -12 0 7
-8 12 -16 2.9 4.7
8 -12 -16 -2 10.1
-16 -12 -8 1.6 8.1
-10 -16 12 21.1 10.5
10 -16 -12 33.1 15.5
12 -10 -16 24.5 12.7
-12 -10 16 50.49 23.5
16 -12 -10 47.1 16.8
-10 12 16 47.4 14.1
-16 -12 10 27.4 12.8
-16 -10 -12 47.3 14.5
-16 -10 -12 50.29 13.9
-16 10 12 14.3 12.8
-12 -16 -10 6.4 10.9
-12 -16 -10 55.79 14.4
16 10 -12 32.4 12.8
12 16 -10 35.8 13.1
-10 -12 -16 49.9 16.7
-12 16 10 49.2 15.1
10 12 -16 40.1 14.3
10 -12 -16 48.7 16.8
-16 -10 12 46.3 15.3
-16 12 10 47.7 16.1
-12 10 16 17.6 11.3
-10 -16 -12 63.69 17
-10 -16 -12 20.3 10
16 -10 -12 28.6 13.2
12 10 -16 25.1 12.8
-12 -10 -16 65.69 17.4
12 -16 -10 44.1 16.1
-16 -12 -10 54.69 16.1
-16 -12 -10 30.8 12.1
10 16 -12 10.4 10.3
-10 -12 16 28.7 13.2
-10 16 12 48.2 15.3
-12 -16 10 24.8 10.9
-12 -10 -16 39.1 12.4
16 12 -10 15.8 11.2
12 -16 -12 6.5 11.9
-12 -12 16 2.9 9.6
-12 16 12 -2.4 9.1
-12 -16 -12 1 9.1
-12 -12 -16 3.2 7.6
16 12 -12 8.3 9.6
-12 -12 -16 7.9 9.1
16 -12 -12 15.1 13.5
12 -12 -16 1.2 9
12 12 -16 3.7 9.4
-16 -12 -12 0.9 9.8
-16 -12 -12 8.7 9
-16 -12 12 6.5 9
-16 12 12 1.9 10.9
-12 -16 -12 2 6.8
-12 -16 12 6.2 7.1
-12 12 16 12.2 9.3
12 16 -12 5 8.8
-16 14 0 19.8 9.5
14 16 0 16.3 10.5
-14 16 0 19.8 9.1
-16 0 14 6.4 8.5
-14 0 -16 33.2 11.1
-14 0 -16 15.1 7.5
-16 0 -14 17.7 7.5
-14 -16 0 17.6 9.8
16 0 -14 24.8 12.1
0 16 14 5.6 7.5
14 0 -16 22.2 12.3
16 14 0 15.8 10.2
0 -14 -16 27.6 13.2
0 14 16 1.3 9.5
0 16 -14 15.1 9.8
-16 -14 0 28.6 10.3
-16 0 -14 27.4 10.6
0 -14 16 19.9 11.7
-14 0 16 18.3 11.8
0 -16 -14 15.5 10.5
0 -16 14 20.4 10.5
2 14 -16 19.4 11.2
-16 14 -2 59.29 12.4
-16 -14 2 51.19 15.3
2 -16 -14 54.39 15.5
-2 -14 -16 43 14.5
14 16 -2 31.6 12.6
-2 -16 14 51.19 15.1
-16 2 14 36 13.1
16 14 2 42.5 12.9
-14 16 2 36.6 12.7
-2 16 -14 47.3 13.7
-14 -2 16 17.3 10.9
-14 2 -16 43.4 11.4
-14 2 -16 41.5 10.1
-16 -2 -14 42.1 13.6
2 16 14 17.7 11.4
-2 14 16 58.99 16.3
16 2 -14 22.7 12.9
2 -14 16 55.09 14.8
-16 -2 -14 46.3 12.2
-14 -16 -2 40.2 13
14 -2 -16 52.39 14.3
-2 -16 -14 16.6 13.7
-14 2 16 16.8 13.2
-16 2 -14 46.9 10.2
-16 -14 -2 27 12.3
16 -2 -14 32.2 12.9
-14 -2 -16 48.5 12.5
-16 2 -14 47.1 11
-2 -14 16 43.6 14.7
-2 14 -16 33.1 12
2 -14 -16 32.5 15.2
2 -16 14 34.1 13.1
2 16 -14 35 13.5
2 14 16 35.8 14.2
-14 -2 -16 52.79 15.1
-16 -2 14 19.5 13
14 2 -16 56.79 16
-16 14 2 41.8 13.3
-2 16 14 50.39 14
-14 -16 2 44.7 13.8
16 14 -2 43.5 12.9
4 -14 16 723.33 99.29
4 16 14 602.94 98.79
-16 -4 -14 646.74 99.19
-16 -4 -14 578.54 97.59
-16 4 14 797.52 101.79
-14 -16 -4 598.84 98.19
-14 -16 -4 790.22 99.69
-14 16 4 620.84 98.89
-14 4 -16 658.13 94.99
-16 -14 4 786.82 99.89
14 16 -4 529.65 97.79
-4 16 -14 672.83 97.89
4 -16 -14 744.03 101.29
-4 -16 14 691.93 100.19
-14 4 -16 621.24 95.29
-16 -4 14 623.64 99.69
-14 -16 4 599.74 98.49
-16 4 -14 683.43 93.99
-4 -14 16 697.63 100.69
4 -16 14 707.53 98.89
-16 14 4 638.14 99.09
-14 -4 -16 553.94 97.19
-16 4 -14 601.84 93.79
16 14 -4 778.32 99.79
-14 -4 -16 561.14 98.69
-4 14 -16 686.03 97.69
-16 -14 6 770.42 109.09
-14 -16 -6 854.11 108.99
16 6 -14 617.14 107.89
6 14 -16 753.32 108.69
-14 -6 16 718.13 109.29
14 -6 -16 863.61 110.49
-16 -6 -14 664.93 107.49
-6 -14 -16 584.04 108.69
-16 6 14 881.01 111.09
16 -14 -6 676.13 109.19
-6 -16 14 843.82 110.39
-16 -6 -14 742.43 109.39
-14 16 6 675.33 110.59
-6 16 -14 680.03 105.69
-14 -16 -6 854.41 109.19
14 -16 -6 786.02 110.39
-14 -6 -16 626.34 108.49
-14 -6 -16 803.12 108.39
-6 14 -16 759.42 106.29
-16 -6 14 771.32 109.59
-16 14 6 592.14 107.99
16 -6 -14 545.35 108.29
-6 -14 16 831.42 110.49
-16 -14 -6 565.94 107.09
6 -14 -16 827.32 110.69
-6 16 14 614.74 108.49
14 -8 -16 131.89 32
-16 -8 -14 203.78 34.2
-8 -16 14 234.48 35.3
16 -14 -8 237.08 37
-14 16 8 205.48 34.5
16 8 -14 125.79 32.1
8 14 -16 132.29 31.7
-8 -14 -16 241.08 36.5
8 -16 -14 200.38 34.3
-8 -14 16 224.08 35.8
8 16 -14 148.69 32.2
-14 8 16 144.19 32.3
-16 -14 -8 182.18 32.6
-16 14 8 178.18 33.9
8 -14 -16 165.18 34.4
14 -16 -8 228.58 36.8
-16 -8 14 177.08 32.7
-8 -16 -14 150.28 32
-8 -16 -14 206.08 32.1
16 14 -8 237.68 33.1
-8 16 14 131.69 31.1
10 -16 -14 48.1 16.9
-14 16 10 29.3 13.9
-10 -14 -16 18.4 9.9
-10 14 16 54.39 15.2
14 16 -10 22.4 12.2
-14 -10 16 50.49 15.9
10 14 -16 44.1 14.4
-16 -10 -14 58.39 16.6
-16 -10 -14 28.4 11.4
-10 -14 -16 55.99 16.8
-16 10 14 59.29 17.3
-14 -16 -10 21.8 10.5
-16 -14 10 30.4 12.1
-10 -16 14 37.9 13
-14 -16 -10 45.1 15.4
14 -10 -16 26.7 15.3
16 -14 -10 40 16.8
16 10 -14 43.9 13.2
16 -10 -14 48.8 16.8
14 -16 -10 40.4 16.5
10 -14 -16 25.4 13.1
-16 -14 -10 54.39 14.4
-16 14 10 47.8 16.1
-14 -10 -16 41.4 15.1
-10 -14 16 31.6 14.7
-14 -10 -16 36.2 12.6
-14 10 16 32.4 14.5
-16 -10 14 12.5 10.2
-10 -16 -14 17.9 10.5
-10 16 14 31.6 13.7
-14 -16 10 44.4 14.6
10 16 -14 27.3 11.8
14 10 -16 58.39 16.1
-16 -14 -10 79.09 18.8
16 14 -10 22.4 10.9
-10 -16 -14 7 12.2
-12 -16 14 63.69 17.3
-16 12 14 47.3 17.7
-14 16 12 59.19 18
-12 -14 -16 44.6 14.3
-16 -12 -14 56.19 17.7
-16 -12 -14 44.2 14.5
12 -16 -14 64.99 19.9
-14 -16 -12 94.39 20.4
-14 -16 -12 31.2 12.7
12 14 -16 56.69 16.2
16 12 -14 58.59 16.3
-12 14 16 28 13.5
14 16 -12 59.99 15.6
16 -14 -12 76.49 21.1
-16 -14 12 60.89 16.6
-14 -12 16 26.6 14.3
14 -12 -16 46.6 18.9
-16 14 12 49.5 17.3
-14 12 16 72.09 19.7
-16 -14 -12 79.69 19.1
-12 -16 -14 69.49 17.3
-12 16 14 32 14.5
12 16 -14 27.7 12.9
-16 -14 -12 48 15
-16 -12 14 42.8 14.4
-14 -12 -16 79.39 18.9
-14 -12 -16 31.3 13.7
-14 -16 12 58.79 16.1
-12 -16 -14 24.3 14.8
-12 -14 16 59.69 17.9
12 -14 -16 45 17.9
14 -16 -12 54.79 19
16 -12 -14 39.9 17.5
16 14 -12 23.2 11.7
14 12 -16 72.49 18
-16 -14 -14 158.28 30
-16 -14 -14 155.08 27.1
-16 -14 14 172.38 30
-16 14 14 141.29 28.4
-14 -16 -14 184.38 31.2
-14 -16 -14 87.19 25.6
-14 -16 14 117.19 27.3
-14 -14 -16 81.79 27.4
-14 -14 -16 120.89 26.8
-14 -14 16 145.19 27.8
-14 14 16 87.59 27.6
-14 16 14 134.99 29.5
14 -16 -14 177.98 32.9
14 -14 -16 114.59 30.1
14 14 -16 154.58 26.7
14 16 -14 200.28 31.6
16 -14 -14 139.89 31.6
16 16 0 -0.5 7.3
16 0 -16 -7.6 8.2
-16 0 16 1.1 6.7
-16 16 0 6.8 7.3
0 -16 -16 1.1 7.8
0 -16 16 4.3 8.8
0 16 -16 1.1 8.1
0 16 16 -1 8.1
-16 -16 0 1 6
-16 0 -16 -4.3 7.3
-16 0 -16 1.8 5.2
2 16 -16 30.8 17.5
-2 16 -16 82.29 18
2 -16 -16 87.19 22.5
2 -16 16 81.69 19.8
-16 -16 -2 58.79 17.6
-16 -16 2 61.49 18.4
-16 -2 -16 102.69 21.2
-16 -2 -16 75.99 16.8
-16 -2 16 78.49 20.2
-16 2 -16 83.29 16.3
-16 2 -16 84.09 15.3
-16 2 16 124.19 22.9
-16 16 2 78.49 19.1
-2 -16 -16 68.39 21.2
-2 -16 16 64.49 19.9
16 2 -16 116.99 20.9
16 16 -2 93.99 20.1
16 -2 -16 64.09 19.9
-16 -16 -4 963.1 123.19
-16 -16 -4 856.51 122.29
-16 -4 -16 744.73 122.69
-16 -4 -16 819.42 121.59
-16 4 -16 716.13 117.59
-16 4 -16 744.63 117.49
-16 4 16 953.9 124.69
-16 16 4 719.93 121.99
-4 -16 16 949.21 125.09
-4 16 -16 853.31 121.39
4 -16 16 744.43 121.39
16 4 -16 944.21 123.99
4 16 16 819.82 122.39
-16 -6 -16 988.7 151.78
-16 -6 16 1056.39 153.28
-16 16 6 1035.6 153.28
-6 -16 16 829.02 152.78
-6 16 -16 1031 150.08
-6 16 16 998 152.68
6 -16 -16 973.8 153.18
6 16 -16 923.81 151.88
6 16 16 1230.78 153.68
16 -6 -16 1196.78 154.68
16 6 -16 1033 152.38
-16 -16 -6 1235.98 153.28
-16 -16 6 939.21 152.18
-16 -6 -16 991.1 153.18
-16 -16 -8 322.17 59.19
-16 -16 -8 424.66 61.19
-16 -16 8 443.66 61.99
-16 -8 -16 476.75 63.39
-16 -8 -16 443.66 61.19
-16 16 8 352.36 61.09
-8 -16 -16 447.56 63.29
-8 -16 16 298.57 60.79
8 -16 -16 342.87 61.79
16 -16 -8 294.67 60.79
16 -8 -16 350.76 60.59
-16 10 16 41.6 16
-16 16 10 60.49 18.6
-10 -16 -16 68.09 20
-10 -16 -16 38.7 13.8
-10 -16 16 94.99 21.6
-10 16 16 68.29 17.7
-16 -10 -16 61.99 16.6
-16 -10 16 20 13.2
-16 -16 -10 39.7 16.5
-16 -16 -10 34.9 15.1
-16 -16 10 94.19 17.7
-16 -10 -16 89.39 20.6
16 -10 -16 42.2 18.2
16 10 -16 76.09 16.9
16 16 -10 75.69 17.3
10 16 -16 43.9 15.8
16 -16 -10 65.39 20.3
10 -16 -16 73.39 19.5
-16 16 12 118.79 28.3
-12 -16 -16 198.48 31.9
-12 -16 -16 160.48 28
-12 -16 16 101.29 28.3
-12 16 16 183.18 29.9
12 -16 -16 144.49 30.7
12 16 -16 107.59 25.3
16 -16 -12 151.88 32.1
16 -12 -16 146.09 31.1
16 12 -16 179.88 29.5
-16 -16 -12 167.08 30.4
-16 -16 -12 79.19 25.7
-16 -12 -16 170.28 31
-16 -12 -16 99.69 25.8
-16 -12 16 137.69 28.4
16 -14 -16 285.27 58.19
16 14 -16 256.67 54.69
14 -16 -16 373.96 60.29
14 16 -16 312.67 56.29
-16 16 14 394.16 59.69
-14 -16 -16 431.06 59.99
-14 -16 -16 432.56 57.79
-14 -16 16 397.06 58.49
-14 16 16 240.38 56.39
16 16 -14 314.37 55.49
16 -16 -14 303.97 57.99
-16 -16 -14 423.36 59.59
-16 -16 -14 438.66 58.89
-16 -16 14 388.66 57.99
-16 -14 16 324.27 56.79
-16 -16 16 476.45 67.39
-16 16 16 362.76 66.69
16 -16 -16 497.85 69.49
-16 -16 -16 336.87 64.79
-17 -1 1 324.77 45.6
-17 1 -1 302.57 44.7
-1 -17 -1 242.18 45.2
-1 -17 -1 260.97 44
-1 -17 1 302.37 45.7
-1 -17 1 224.28 43.7
1 -17 -1 309.27 46.2
1 -17 -1 234.88 43.9
1 -17 1 291.47 45.7
1 -17 1 281.07 44.5
1 -1 -17 250.17 45.5
1 -1 17 257.27 45.5
1 1 17 220.28 44.9
17 1 -1 308.57 44.6
17 1 1 346.47 44.6
-1 -1 17 273.07 46.4
-1 1 -17 369.76 46.7
-1 1 17 208.28 45.1
-17 3 -1 73.59 15.7
-17 -3 1 53.99 14.7
-1 -17 3 41.9 14.3
-17 -1 -3 60.79 14
-3 -1 17 55.59 15.1
-3 1 -17 50.49 15.4
-17 1 3 36.8 14
-3 -17 -1 41.3 13.4
1 -17 -3 31.7 12.8
1 -17 -3 38.5 13
1 3 -17 99.59 18.4
3 1 17 67.89 16.2
17 3 1 52.99 13.9
17 -1 3 72.39 13.4
17 1 -3 66.09 15.8
-1 -3 -17 54.69 16.3
3 -17 1 71.19 16.6
3 -1 -17 29.2 14.2
-3 -17 -1 60.39 15.1
-1 3 17 79.69 16.5
1 -3 17 46 15.3
3 -17 1 45.4 13.4
-1 -17 3 61.79 13.8
17 -3 -1 62.49 14.6
-3 -17 1 40 12.7
-1 -3 17 51.49 16.1
3 -17 -1 47.8 14
17 -1 -3 61.59 14.6
-3 -17 1 59.29 15.8
17 1 3 71.59 13.8
-3 -1 -17 44.7 14.9
-1 3 -17 51.89 14.8
-17 -1 3 46.3 15.1
-1 -17 -3 36.6 14.4
-1 -17 -3 43.1 13.3
3 -17 -1 54.39 15.5
1 -17 3 68.29 16.1
1 -17 3 66.09 15.1
3 -1 17 61.99 16
17 -3 1 67.59 13.6
17 3 -1 68.49 15.3
-17 1 -3 58.29 13.9
1 3 17 37 14.6
3 1 -17 53.19 16.2
-17 3 1 64.99 16.2
-17 -3 -1 60.79 15.3
-3 1 17 40.2 15.4
1 -3 -17 91.99 19
17 3 3 243.28 39.8
-17 -3 -3 190.58 39.5
-17 3 -3 249.18 39.3
-17 3 3 288.07 42
-3 -17 3 243.28 39.7
-3 -3 -17 285.77 41.9
-3 -3 17 211.78 41.4
-3 3 -17 244.18 40.6
3 -17 -3 224.68 41.4
3 -17 -3 280.57 41
3 -17 3 209.18 40.6
3 -17 3 237.58 39.8
3 3 17 264.67 41.7
17 -3 -3 287.27 40.9
17 3 -3 215.38 40
3 -3 17 232.08 41.1
3 3 -17 297.67 42.7
-1 5 17 477.15 71.29
17 1 -5 466.25 70.09
-5 1 -17 438.86 69.79
-17 1 5 340.27 69.09
-5 -17 -1 500.55 70.19
-5 -17 -1 381.16 68.99
-1 -5 -17 448.56 70.59
5 1 17 427.46 69.89
17 -5 -1 522.75 68.99
1 -17 -5 523.95 71.09
1 -5 17 438.96 70.19
5 -1 -17 535.15 71.59
5 -17 1 384.56 69.49
5 -17 1 499.85 69.49
-17 -5 1 373.06 69.19
-17 -1 -5 453.15 68.79
17 5 1 418.76 69.39
-17 5 -1 402.76 68.39
-1 -17 5 462.25 69.39
-17 -1 5 457.65 70.39
-1 -5 17 475.95 70.69
5 -17 -1 449.66 70.29
-17 1 -5 511.55 68.69
1 -17 5 489.55 70.39
1 -17 5 417.36 68.99
1 5 17 441.96 70.79
5 -1 17 472.45 70.19
5 -17 -1 459.05 69.19
17 1 5 528.45 68.59
-5 1 17 438.66 70.49
5 1 -17 540.25 75.29
17 -1 -5 425.26 69.29
17 5 -1 478.55 69.69
-17 -5 -1 500.55 69.99
-17 5 1 393.86 68.99
-3 5 17 804.82 116.19
5 3 17 828.22 115.79
-17 3 5 724.33 115.29
-5 -17 -3 853.51 115.19
-17 -3 -5 786.62 114.39
17 -5 -3 662.63 113.89
-17 5 -3 768.22 113.19
5 -17 3 710.63 113.79
-5 17 3 727.73 114.79
17 3 -5 825.42 115.39
5 -3 -17 887.41 116.29
3 5 -17 840.42 115.89
5 17 -3 907.71 115.29
-5 3 -17 804.32 114.79
17 5 3 754.62 114.49
5 -17 3 831.52 115.19
3 -5 17 690.73 114.69
17 5 -3 859.51 115.39
3 -17 5 710.83 113.89
-3 -17 -5 747.93 114.29
3 -17 5 690.43 114.29
3 17 -5 918.61 115.19
5 -3 17 840.92 115.39
-17 -5 -3 790.62 114.89
-5 -17 3 687.73 114.49
17 -3 -5 810.72 115.29
3 5 17 891.11 116.29
5 -17 -3 619.84 114.79
-3 -5 17 599.84 114.69
-3 5 -17 660.23 113.99
-17 3 -5 790.12 112.99
-3 17 5 821.22 115.29
-17 5 3 757.92 115.09
-17 -3 5 824.02 115.99
17 5 5 1498.95 199.38
17 -5 -5 1109.29 198.68
17 5 -5 1469.55 200.08
5 17 -5 1612.04 200.08
5 5 17 1422.66 200.38
-17 -5 -5 1276.67 199.18
-17 -5 5 1389.26 200.08
-17 5 -5 1411.66 197.18
-17 5 5 1305.37 200.18
-5 -5 17 1615.94 201.58
-5 5 -17 1213.18 198.68
-5 5 17 1569.84 201.68
-5 17 5 1313.67 199.68
5 -17 5 1449.55 199.78
5 -17 5 1337.67 198.48
5 -5 -17 1147.29 199.28
-5 -5 -17 1280.47 200.28
-17 -1 -7 102.19 19.7
7 -1 -17 129.69 24.3
7 -17 1 113.29 21.7
7 -17 1 88.29 19.7
17 1 -7 79.39 20.1
-1 7 17 120.19 24.3
1 7 -17 79.89 21.3
1 -7 17 115.89 22.8
-17 -7 1 118.19 21.6
-17 7 -1 96.49 20.5
-17 -1 -7 86.99 19.5
-1 -7 -17 61.39 21.5
-17 1 7 86.99 22.8
7 1 17 123.69 22.1
-7 -17 -1 140.59 21.8
17 7 1 120.09 22.6
1 -17 -7 87.39 22.8
-1 -17 7 112.89 21.9
-1 17 -7 133.09 21.6
-7 1 -17 104.19 22.2
-7 1 17 123.19 22.8
1 17 -7 148.29 22
7 1 -17 97.49 21.6
-1 -7 17 97.09 22.6
17 7 -1 78.59 19.9
-17 1 -7 115.99 19.6
-17 1 -7 87.59 19
1 -7 -17 133.89 24.6
7 -17 -1 90.19 21.8
7 -1 17 116.69 21.8
-1 7 -17 104.69 21.5
-17 7 1 130.29 22.3
-7 -1 -17 92.59 21.4
-17 -1 7 128.19 24
-7 -17 1 127.49 22.4
17 -1 -7 138.79 23.9
1 -17 7 102.09 21.2
1 7 17 78.99 22.4
-17 -7 -1 115.09 22.4
17 -7 -3 658.23 87.09
-7 3 -17 579.14 86.29
7 3 17 586.44 87.49
-17 7 -3 579.24 84.99
-17 3 7 591.34 88.29
17 7 3 640.14 87.49
7 -17 3 660.33 86.39
-7 -17 -3 644.14 88.09
-17 -3 -7 545.85 85.89
-17 -3 -7 541.25 86.19
3 -7 17 519.05 86.89
-7 -17 -3 588.24 86.89
-7 17 3 457.85 86.29
-3 -17 7 462.85 86.29
-17 -3 7 648.64 87.99
7 -17 -3 475.35 87.19
17 -3 -7 664.33 88.39
17 7 -3 573.24 87.09
-3 -17 -7 513.15 86.99
-3 -17 -7 438.86 85.79
3 -17 7 526.85 86.49
-17 7 3 654.13 87.89
-3 7 -17 669.93 87.39
-3 17 7 679.83 88.29
-7 -3 -17 547.65 87.49
3 -17 7 584.84 86.69
3 17 -7 676.83 87.69
-17 3 -7 552.94 84.49
-17 -7 -3 470.45 86.49
-3 -7 17 665.53 88.99
-17 3 -7 585.54 84.09
17 -7 -5 1167.58 198.98
-7 17 5 1402.16 200.18
-7 5 -17 1248.48 198.38
-17 5 7 1383.86 200.48
7 5 17 1496.05 200.78
7 17 -5 1602.34 200.18
-7 -17 -5 1194.28 198.98
-17 7 -5 1352.26 196.18
17 7 5 1459.35 199.68
5 -17 -7 1151.08 199.88
17 5 -7 1360.06 199.78
-17 -5 -7 1444.16 199.48
7 -17 -5 1520.85 201.58
17 -5 -7 1273.87 199.98
-5 17 7 1508.85 200.48
-17 -7 -5 1426.06 200.08
5 -17 7 1359.26 198.78
-17 7 5 1428.96 200.58
-5 -17 -7 1533.75 200.78
-5 -7 17 1526.55 201.18
-17 5 -7 1382.36 195.88
-17 5 -7 1291.27 195.88
7 -5 17 1178.18 198.28
-17 -7 -7 1216.58 161.78
-17 7 7 1134.09 162.78
-7 -17 -7 1322.27 163.08
-17 -7 -7 981 160.68
17 7 -7 1138.29 161.68
17 -7 -7 885.81 160.88
-7 -17 -7 984.4 160.78
-7 -17 7 1205.58 162.58
-7 7 -17 1082.59 159.88
7 -17 -7 957.4 162.08
7 -17 7 1202.48 160.78
7 7 17 1182.88 162.88
7 17 -7 910.71 160.68
-7 -7 17 1312.77 163.48
9 1 17 106.49 21.3
1 -17 -9 48.2 17.5
-9 17 1 91.79 18.5
-1 -9 -17 42.2 16.8
1 17 9 82.09 17.8
-9 -1 17 52.79 17.9
9 -17 1 82.19 16.5
9 17 -1 107.59 19.3
-17 -9 1 56.19 17.4
-17 9 -1 87.99 16.9
17 9 1 91.19 19.1
-17 1 9 85.49 20.8
-9 -17 -1 92.79 19.6
17 1 -9 52.59 17.6
1 9 -17 82.69 18.5
-1 9 17 118.49 22.3
-1 -17 9 51.09 16.8
-1 17 -9 67.99 17.3
-17 -1 -9 105.09 17.2
-17 -1 -9 79.49 17.2
1 -9 17 96.39 20.7
-17 1 -9 71.49 15.4
-9 1 17 81.39 19
-17 -9 -1 63.69 18.5
-17 9 1 72.89 18
-17 -1 9 44.5 17.7
-17 1 -9 93.29 16.7
9 -17 -1 78.89 18.5
-1 -9 17 80.39 19.7
9 1 -17 105.89 19.1
-1 17 9 82.89 17.7
-9 -17 1 112.49 18.7
1 -17 9 82.49 18
1 17 -9 46.7 16.3
-1 9 -17 83.99 18.1
9 -1 17 83.89 17.7
1 -9 -17 62.49 18
17 9 -1 97.59 19.6
1 9 17 107.69 21
-1 -17 -9 95.09 21.2
17 -1 -9 70.09 19.2
-9 -1 -17 87.79 20.1
3 -9 17 11.9 9.7
3 9 -17 28.6 10.3
-17 -3 -9 26.5 10
-9 3 -17 23.8 9.5
-9 -17 -3 28.6 10.4
-9 -17 -3 27.2 10.8
17 3 -9 26.5 11.6
-3 -17 9 16.8 9.9
3 -17 -9 15 9.9
9 -3 -17 9.5 10.9
17 -9 -3 4.4 6
17 9 3 7.2 7.1
-9 -3 17 23.2 11.8
-3 9 17 8.2 9.7
-17 3 9 20.5 12.1
-17 -9 3 10 9.7
-17 9 -3 27.8 7.6
9 17 -3 23.2 8.8
-3 -9 -17 6.1 10.5
-9 17 3 22.8 10.4
-17 9 3 24.9 10.8
-9 -17 3 12.8 9.6
-3 9 -17 21.2 9.4
9 3 -17 20.6 11.4
-17 -9 -3 21.2 10.7
3 9 17 24.2 11.5
-17 3 -9 23.3 6.7
9 -17 -3 26.6 11.8
-17 3 -9 15.7 6
3 17 -9 16.9 9.8
-9 3 17 5.9 8.1
-3 -17 -9 24.4 12.7
-9 -3 -17 30.2 12.6
3 -9 -17 12.1 9.2
9 -3 17 17.2 8.3
17 9 -3 17.4 10.4
17 -3 -9 24.4 11.6
-3 17 9 18.5 10
-17 -3 9 14.4 9.3
3 -17 9 23.4 10
-3 -9 17 14.6 11.2
-9 17 5 267.17 47
-17 -5 -9 292.47 46.1
-17 -9 5 244.58 47.4
-9 -17 -5 224.48 45.2
5 9 -17 235.48 45.9
17 -9 -5 281.07 47.5
-17 9 -5 304.37 41.4
-17 -5 -9 209.18 45
-5 -9 -17 360.56 49.6
9 -5 -17 306.67 47.3
-9 -5 17 316.87 51.49
-9 5 -17 311.57 45.2
-17 5 9 350.16 49.3
9 5 17 274.17 46.6
-5 -17 9 244.68 46.1
5 -17 -9 257.07 47.9
-9 -17 5 317.17 46.8
17 -5 -9 270.57 47.2
9 5 -17 331.47 48.2
5 9 17 340.87 48.2
17 9 -5 291.77 46.8
-5 17 9 331.77 48.2
9 -17 -5 303.67 48.3
-17 9 5 288.87 47.3
-9 -5 -17 210.38 46.2
-5 -9 17 357.86 49.5
-5 9 -17 307.87 45.4
5 -17 9 247.58 46
7 -17 -9 123.39 26.5
-17 -7 -9 89.49 22.4
7 9 -17 164.88 26.2
-9 17 7 155.78 26.6
-7 -17 9 112.69 23.2
17 -9 -7 153.28 26.7
9 -7 -17 78.59 23.8
-17 -9 7 102.99 23.1
-9 -7 17 145.09 27.1
-9 7 -17 127.39 21.3
17 7 -9 109.89 24.4
-17 7 9 153.18 27.5
9 7 17 158.38 25.8
-7 -9 -17 149.39 27.8
-17 -7 -9 127.89 23.3
-7 -9 17 145.89 25.3
-17 -9 -7 159.38 24.3
17 9 -7 74.19 22.5
-9 -17 7 96.99 23.6
-17 -7 9 75.29 22.9
-7 17 9 124.89 25.3
-17 -9 -7 172.88 25.4
7 9 17 92.49 24
9 -17 -7 104.99 26.5
17 -7 -9 156.88 27.3
9 7 -17 119.49 23.8
-7 9 -17 119.49 21.8
-17 9 7 123.79 25.2
-9 -7 -17 78.99 24
7 -9 -17 107.59 24
9 9 17 114.99 23.6
9 17 -9 130.29 23.9
17 -9 -9 97.59 24.7
17 9 -9 72.19 20.4
9 9 -17 143.39 23.4
-9 -9 17 145.89 24.5
-17 9 9 112.69 24.4
-9 -17 -9 125.79 23.2
-9 17 9 97.79 23.7
9 -17 -9 103.79 25.5
-17 -9 -9 115.59 22.5
-17 -9 -9 113.19 22.4
-17 -9 9 87.39 22.6
-9 -17 9 110.79 23.7
-9 9 17 126.19 24.3
-9 9 -17 108.59 19.2
9 -9 -17 72.39 23.5
-17 11 -1 83.49 16.3
-1 -11 -17 76.49 19.5
11 17 -1 80.09 16.4
1 -17 -11 69.19 19.6
17 11 1 85.59 18.7
17 1 -11 53.79 16.8
-1 17 -11 66.79 17.4
1 17 11 103.69 17.8
-17 -1 -11 66.19 16.4
-17 -1 -11 86.29 15.8
1 -11 17 91.49 20.2
-11 1 -17 89.59 17.8
11 1 17 91.69 16.8
-17 -11 1 90.79 18.9
1 11 -17 54.09 17
-17 1 11 43.9 17.1
11 -17 1 92.89 16.2
-11 17 1 103.49 18.4
-1 11 17 62.79 17.3
-11 -1 17 61.29 17.9
-1 -17 11 92.49 19
-1 -11 17 70.89 19.3
-11 -1 -17 76.69 18.3
-11 -17 1 42.1 14.9
-17 -1 11 66.39 18.6
1 17 -11 47.3 15.9
-17 11 1 48.2 15.6
17 -1 -11 65.19 18.5
-1 11 -17 70.39 17.3
1 11 17 39 15.2
-17 1 -11 78.79 15.9
-17 1 -11 76.49 14.7
17 11 -1 53.49 16.7
-1 -17 -11 47.9 18.1
-17 -11 -1 50.29 16
-11 1 17 100.39 19.3
-3 -17 11 0.3 8
-11 3 -17 5.2 7.3
-11 -17 -3 1.1 8
-17 3 11 2.3 7.3
-11 -17 -3 -2.8 7.5
-11 17 3 2.6 8.2
-3 -11 -17 3.6 10.4
-11 -3 17 5.6 10
-17 -3 -11 9.6 7.4
3 11 -17 1.3 8.4
-3 11 17 2.7 7.2
-17 -3 -11 1.7 7.4
11 3 17 -1 7.2
17 -11 -3 -4.3 5
11 -17 3 -4.7 4.7
-17 -11 3 1.1 8.3
-17 11 -3 -0.1 4.9
3 17 11 7.5 7.2
11 -3 -17 4.1 10.3
3 -11 17 1.9 7.7
17 3 -11 5.6 7.1
17 11 3 -1.6 7.3
11 17 -3 -4.7 6.8
-3 17 -11 -3.2 5.1
17 -3 -11 -0.7 9.6
-3 17 11 7.3 9.6
3 -17 11 3.1 6.9
3 -11 -17 2 10.1
11 -3 17 -4.6 3.6
-11 -17 3 -3 5.1
-17 3 -11 2 3.4
-11 3 17 8.4 8.1
17 11 -3 3.7 8.6
-17 -11 -3 5 8.5
-17 11 3 -0.7 8
11 3 -17 -7.1 8
3 17 -11 10.7 8.5
-3 -11 17 -2.1 8.8
-3 -17 -11 0.6 9.9
-17 3 -11 3.1 4.6
3 11 17 8.4 9.6
-3 11 -17 7.4 7.8
-5 -17 11 102.39 25.7
-11 -17 -5 153.18 25.7
11 17 -5 148.89 24.9
-17 -5 -11 134.99 24.9
17 5 -11 141.59 27
11 5 17 128.89 25.7
-11 17 5 147.39 27.3
-17 -11 5 143.99 25.8
-11 5 -17 130.89 23
5 11 -17 76.59 24.5
-17 -5 -11 118.49 25.8
-11 -17 -5 109.09 24
17 -11 -5 111.49 25.8
11 -5 -17 126.69 25.9
5 -17 -11 163.38 29.2
11 -17 -5 131.79 27.4
-17 -5 11 156.28 26.5
-17 -11 -5 136.29 24.9
5 -17 11 146.99 24.9
17 -5 -11 128.09 25.5
-11 -5 -17 157.88 28.2
11 5 -17 94.49 25.9
-5 11 -17 123.69 24
-5 -17 -11 162.18 27.1
5 -11 -17 142.89 28.2
11 -7 -17 11.1 9.1
-11 -17 -7 17.7 8.1
-11 -7 17 3.4 8
11 7 17 6.4 8.1
7 11 -17 10.5 10.2
17 -11 -7 7.7 10.4
7 -17 -11 9.9 11.9
-17 -7 -11 6 7.5
-17 -7 -11 21.8 10.3
-11 7 -17 4.8 4.4
-11 -17 -7 -0.9 6.5
-11 17 7 15.8 10.1
-7 -11 -17 5.3 8.6
-7 -17 11 3 7
-17 7 11 10.3 11.3
-17 -11 7 10.1 8.7
17 7 -11 16.3 11.4
-7 11 17 -0.8 9.6
11 17 -7 -1 7.6
11 7 -17 -3.8 6.1
7 -17 11 -3.1 4
-7 -17 -11 1.9 5.5
-17 -11 -7 6.8 8.5
-11 7 17 8.5 10.8
-7 -11 17 5.9 9.8
-7 17 11 2.9 7.1
-17 11 7 7.8 10.1
-17 -7 11 5.6 7.6
-7 -17 -11 9.5 8.2
-11 -7 -17 9.6 10.7
-11 -17 7 18.3 10
11 -17 -7 15.8 12.6
-17 -11 -7 16.1 9.9
17 11 -7 18.3 8.8
7 -11 -17 1.4 8.5
-7 11 -17 7.7 5.7
17 -7 -11 15.6 12.7
7 11 17 7.6 9.5
7 17 -11 7.4 8.6
-17 -9 -11 84.09 20.9
11 -9 -17 107.79 25.9
-9 11 17 135.69 24.1
-17 -11 9 107.89 23.6
-11 -9 17 82.59 23.1
-11 9 -17 99.19 16.3
-9 -17 11 89.89 23.3
9 -17 -11 114.09 25.7
-17 -9 -11 160.58 24.4
17 9 -11 125.09 22.4
-17 9 11 76.49 23.4
17 -11 -9 109.29 25.6
-11 -17 -9 113.89 22.6
11 17 -9 79.59 22.1
9 11 -17 81.19 22.5
-11 -17 -9 148.89 23.8
-11 17 9 91.89 22.9
-9 -11 17 126.49 25.8
-9 -17 -11 139.19 25.3
9 11 17 90.49 22.7
17 11 -9 55.49 20.4
-9 11 -17 98.69 17.9
-17 11 9 121.59 25.2
-11 -9 -17 141.09 26.7
-11 9 17 58.59 21.7
-9 -17 -11 144.19 22.3
9 17 -11 101.09 21.2
17 -9 -11 129.19 26.3
-17 -11 -9 145.19 24
9 -11 -17 129.09 23.9
-9 17 11 115.39 24.1
11 -17 -9 105.99 25.3
-11 -17 9 57.89 20.7
-11 17 11 139.39 23.5
11 -17 -11 120.59 25.1
-11 -11 17 66.49 20.3
-17 -11 -11 90.59 20.4
-17 -11 11 66.19 20.1
-17 11 11 154.18 26.2
-11 -17 -11 43.7 17.9
-11 -17 -11 62.09 18.8
11 -11 -17 87.59 23.4
-11 11 17 134.39 24.6
-11 -17 11 112.49 21
17 11 -11 116.69 22.2
17 -11 -11 142.49 25.8
-11 -11 -17 84.89 23
11 17 -11 48.5 18.3
-17 1 13 5.9 7.8
17 13 1 3 8.2
-17 -13 1 3.3 8.5
-13 -1 17 14.8 9.6
-1 -13 -17 1.8 10.6
1 -17 -13 14.4 12.1
-13 17 1 4.6 8.4
1 17 13 4.3 8.6
-1 13 17 12.6 8.1
1 -13 17 8 10.5
13 -1 -17 8.2 9.9
-17 13 -1 4.1 7
13 17 -1 -0.4 5.9
17 1 -13 15 10.9
-13 -17 -1 4 7.9
-17 -1 -13 5.3 5.8
-13 1 -17 3.2 7.1
-1 17 -13 -5 6.3
1 13 -17 16.1 9.6
-17 -1 -13 7 8.1
1 13 17 8.3 7.8
13 1 -17 -1.2 7.1
-1 17 13 3.7 6.6
-17 -13 -1 16.3 9.6
1 -13 -17 -3.3 10.3
-17 1 -13 6.6 5.8
-1 13 -17 8.8 7.7
17 13 -1 5.1 9.4
1 -17 13 15 9.5
-13 -17 1 9.2 7.5
1 17 -13 12.1 8.9
-1 -17 -13 4.8 11.2
-17 13 1 1.5 7.4
-13 -1 -17 5.8 9.3
17 -1 -13 -6.1 8.6
-17 1 -13 7.4 7.2
-13 1 17 15 10.8
-17 -3 -13 124.29 25.5
-17 -3 -13 164.08 28.4
17 13 3 167.28 27.3
-17 -13 3 146.39 27.8
-13 -17 -3 166.08 28.6
-3 -17 13 132.49 28.4
-13 -3 17 152.08 29.6
17 3 -13 133.09 27
-3 13 17 195.68 30.4
-13 3 -17 149.39 25.2
-13 3 -17 155.18 24.1
13 17 -3 149.69 27.5
-3 17 -13 148.99 26.4
3 -17 -13 150.58 30.3
-17 13 -3 157.78 24
-3 -13 -17 130.29 29.8
3 13 -17 149.29 27.8
-17 3 13 153.48 29.4
13 -3 -17 109.99 26.9
3 -13 17 123.79 27.6
3 17 13 100.59 26.6
-13 17 3 151.68 28.4
-17 -3 13 89.19 27.2
-13 -3 -17 161.48 26.4
-13 3 17 161.38 30
3 -17 13 132.59 27.1
-3 13 -17 120.79 25.5
13 3 -17 188.48 28.9
-17 3 -13 154.78 22.9
-17 -13 -3 92.89 25.1
-17 13 3 130.49 27.1
-13 -3 -17 110.89 27.8
-3 -13 17 127.09 29.1
3 -13 -17 180.78 29.2
3 17 -13 198.18 29.2
17 -3 -13 197.38 31.4
-17 3 -13 137.29 23.1
-17 -5 -13 339.97 49.99
5 -17 -13 393.76 53.29
-13 17 5 262.37 50.39
-13 -17 -5 373.66 51.19
-13 -17 -5 320.17 50.09
-5 17 -13 293.97 48.2
-13 5 -17 313.47 46.2
-13 5 -17 316.97 46.7
13 17 -5 369.56 51.29
-17 -5 -13 324.77 51.19
-5 13 -17 327.97 49.2
-17 -13 -5 230.48 49.1
-5 -13 17 292.77 51.89
17 -5 -13 315.77 51.09
17 13 -5 304.67 49.8
-5 17 13 256.67 50.29
-13 5 17 272.87 51.69
-13 -5 -17 241.28 51.09
-13 -5 -17 342.87 50.19
13 -17 -5 369.96 52.49
-13 -17 5 290.07 50.59
-17 13 5 324.67 51.89
5 13 17 299.87 50.99
17 -13 -7 187.98 33.5
-17 -7 -13 150.98 29.7
-13 -7 17 212.48 34.2
7 13 -17 209.38 32.8
-13 -17 -7 167.38 31
17 7 -13 112.69 29.2
-13 7 -17 178.48 24.5
-7 -17 13 208.08 33.4
13 17 -7 139.09 30.1
-17 -7 -13 157.28 31.2
-13 7 -17 177.18 24.5
7 -17 -13 126.69 32.6
13 -7 -17 199.68 32.6
-13 17 7 113.79 30.4
-7 -13 -17 146.59 31.4
17 13 -7 130.19 29.1
7 -13 -17 192.18 32.1
-17 13 7 168.18 33.1
7 13 17 139.59 30.5
-7 -17 -13 129.19 29.4
-13 -7 -17 158.28 30
-13 7 17 197.58 33.8
-13 -7 -17 231.98 43
-7 13 -17 142.29 27.8
-17 -7 13 243.88 33.4
-7 -17 -13 156.18 31
-7 17 13 193.68 32.6
7 17 -13 175.78 31.5
-17 -13 -7 193.18 31.7
17 -7 -13 220.48 33.7
-13 -17 -9 -3.8 6.5
-9 -13 -17 -1.6 11.4
-13 -17 -9 3 9.7
9 -17 -13 1.7 11.4
-13 17 9 4.3 8.9
-17 -9 -13 3.2 11.7
17 -13 -9 2.5 11
-9 13 17 4.2 7.7
-17 -13 9 0.1 8.3
13 17 -9 -5.2 7.1
-17 -9 -13 -5.3 4.9
17 9 -13 0.8 9.1
-13 -9 17 -2.4 6.8
-9 -17 13 4.9 9
9 13 -17 4.8 7.3
-17 9 13 1 9.4
13 -9 -17 -5.8 10.2
-17 -13 -9 -5.4 8
-13 -9 -17 -1.7 6
-13 -9 -17 -4.3 8.6
-17 -9 13 -1.5 9
9 -13 -17 -7.7 9.4
-13 -17 9 -0.7 7.6
-17 13 9 -2.3 8.9
13 9 -17 2.2 8.6
-9 13 -17 0.8 3.6
17 13 -9 3.1 8.3
9 17 -13 2.3 6.1
-9 -13 17 -0.2 9.9
-17 -13 -9 0.7 5.6
-9 17 13 8.3 8.9
-13 9 17 0.4 8.1
17 -9 -13 -10.9 9.1
13 -17 -9 1 11
9 13 17 9.2 7.2
-11 -13 -17 -1.6 9.6
17 11 -13 2.4 6.8
-11 -17 13 -0.4 6.6
-17 -13 11 -4 5.4
11 13 -17 -2.4 8.4
11 -17 -13 -5.4 7.5
-13 -11 17 -4.6 6.7
13 17 -11 10.1 9.6
-13 -17 -11 -0.9 9
-17 11 13 6 9.3
-13 17 11 -1.8 8.7
-11 -13 -17 0.3 7
13 -11 -17 -3.9 11.5
-17 -11 -13 -4.9 7.4
-17 -11 -13 2.7 8.1
17 -13 -11 0.2 11
-11 13 17 -1.5 9.6
-13 -17 -11 0.5 7.4
-17 -11 13 0.8 7
-17 13 11 6.6 8.1
-11 -17 -13 -6.6 6.5
-17 -13 -11 1.2 8.2
17 -11 -13 11.2 12.3
-13 -17 11 5.9 8.6
17 13 -11 1.7 8.5
11 -13 -17 3.8 12.5
-11 -17 -13 0.7 7.2
13 11 -17 1.3 9.4
11 17 -13 0 8.7
-17 -13 -11 -2.9 9.1
-13 11 17 6.5 8.6
-13 -11 -17 -2.9 9.4
-11 17 13 12.1 10.3
-11 -13 17 -2.7 9.2
-13 -11 -17 2.1 5.7
13 -17 -11 15.3 13.7
-17 -13 13 17.6 11.7
-17 13 13 11.3 11.9
-13 -17 -13 9.7 11.1
-13 -17 -13 11.9 8.6
-13 -17 13 19.3 10.2
-13 -13 -17 18.8 10.3
13 17 -13 13.3 10
13 -17 -13 17.1 11.7
-13 -13 -17 13.1 12.7
-13 -13 17 -4.2 8.9
-13 13 17 18 11.7
-17 -13 -13 13.4 9.7
-17 -13 -13 8.1 9.3
13 13 -17 17.7 11.5
17 -13 -13 17.3 13.7
13 -13 -17 -2.4 12.4
17 13 -13 25.6 11.1
-13 17 13 9.6 10.6
1 -15 17 64.69 18.3
17 1 -15 76.49 18
1 17 15 58.09 16.2
1 -17 -15 61.19 18.6
-1 -15 -17 65.79 17.3
-15 1 -17 56.49 13.1
-15 -1 17 44.3 16.2
-15 1 -17 45.6 13.8
-17 15 -1 58.29 13.9
1 15 -17 56.39 15.9
-1 17 -15 49.4 14.6
-15 -17 -1 62.89 15.9
17 15 1 45.1 15.1
-17 -15 1 40.8 14.8
-1 15 17 22.2 12.6
15 17 -1 49.1 14.9
15 -1 -17 75.99 18.9
-15 17 1 59.89 15.7
-17 -1 -15 47.8 12.7
-17 -1 -15 51.19 15.4
-1 -17 15 76.09 18.8
-17 1 15 55.79 25.3
-17 -15 -1 46 14.6
-17 -1 15 49.6 15.7
-17 1 -15 76.99 15.8
-17 15 1 62.89 15.7
-15 -1 -17 72.69 17
-15 -1 -17 50.89 13.2
-15 1 17 34 13.9
-1 -17 -15 75.49 20.2
-17 1 -15 58.69 12.6
-1 17 15 45.8 14.8
1 -17 15 57.99 17
1 17 -15 79.39 17.3
1 -15 -17 18.6 14.9
15 1 -17 25.7 12.9
17 15 -1 24.3 15.9
-1 -15 17 58.09 17.6
-1 15 -17 75.19 16.3
-15 -17 1 62.69 16.8
1 15 17 74.49 18
-15 17 -1 51.79 13.9
15 17 1 50.19 15.5
17 -1 -15 46.3 16.6
-17 -3 -15 526.05 81.49
-3 17 -15 512.15 81.79
3 -17 -15 649.74 84.99
-17 -3 -15 495.65 82.59
15 -3 -17 591.04 84.19
-15 3 -17 467.45 78.89
3 -15 17 587.34 83.59
-15 -17 -3 570.64 82.69
-15 17 3 584.14 84.09
-3 -15 -17 646.44 85.69
-17 -15 3 534.25 82.89
15 17 -3 592.64 82.79
-15 3 -17 528.95 79.79
17 3 -15 652.13 84.99
-17 3 15 645.14 85.49
-3 15 17 526.05 83.39
17 -3 -15 610.14 84.69
3 -17 15 638.04 84.19
-15 -17 3 516.65 82.89
-17 3 -15 495.85 78.59
-17 3 -15 512.05 78.59
3 15 17 593.44 83.79
-17 15 3 429.16 81.59
-15 -3 -17 507.55 83.29
-3 -15 17 391.66 84.79
3 17 -15 423.56 81.79
-15 -3 -17 537.15 81.59
-3 15 -17 547.65 81.89
5 17 15 1328.07 174.68
-15 -17 -5 1311.97 175.98
-15 -17 -5 1281.37 173.78
-15 17 5 1147.69 174.08
-5 15 17 1355.86 175.08
-17 5 15 1407.86 176.28
-5 -15 -17 1326.07 180.88
-5 17 -15 1148.59 171.68
5 -17 -15 974.7 173.38
-15 -5 17 1152.68 173.98
-15 5 -17 1099.29 168.38
-15 5 -17 1157.28 168.48
-17 -5 -15 1274.77 173.18
-17 -15 -5 1160.68 173.28
-17 -5 15 1101.69 174.08
17 -5 -15 1107.99 173.98
-5 17 15 962.9 172.88
-5 -15 17 927.01 173.38
-15 5 17 1170.18 174.88
-5 -17 -15 1383.16 175.88
-15 -17 5 1268.17 173.88
-5 15 -17 1162.78 171.88
-17 15 5 1293.97 174.88
15 5 -17 1309.17 174.58
17 15 -5 982.9 172.38
-17 -15 -5 1387.56 174.58
-15 -5 -17 1074.99 173.88
-15 -5 -17 1062.49 172.48
15 17 -7 725.33 89.59
-7 -15 -17 544.15 90.09
17 7 -15 711.73 90.49
-7 -17 15 573.04 89.39
15 -7 -17 511.55 88.29
-17 -7 -15 695.13 90.69
7 -15 -17 497.25 88.49
-17 -15 -7 575.14 88.49
-7 -15 17 614.54 90.59
-7 17 15 472.25 87.79
17 15 -7 478.25 86.89
-15 -17 7 502.35 88.19
-17 15 7 723.83 91.79
-17 -9 -15 248.78 37.7
-17 -9 -15 205.18 34.6
17 -15 -9 208.58 37.9
-9 15 17 273.47 38.8
9 15 -17 263.07 37
-17 9 15 242.68 38.4
9 -17 -15 150.78 36.5
17 9 -15 215.08 36
-15 -17 -9 119.99 31.8
-9 -17 15 127.39 33.8
-15 17 9 150.38 34.6
-17 -15 9 226.08 35.9
15 -9 -17 220.08 38.1
-9 17 15 239.78 36.9
-15 9 17 157.18 35.8
-17 -9 15 237.58 37.3
-9 -17 -15 143.19 32.2
9 17 -15 173.98 34.7
-17 15 9 207.88 36.4
-15 -9 -17 242.78 38.2
-15 -9 -17 163.98 33.4
17 -9 -15 189.98 36.8
9 -15 -17 220.88 36.6
15 9 -17 259.07 37.6
-17 -15 -9 141.89 34.8
15 -17 -9 158.58 37.8
17 -15 -11 108.59 25.8
15 17 -11 102.99 21.6
-15 -11 17 109.99 23.7
-17 -15 11 99.19 20.6
11 -17 -15 109.49 23.3
17 11 -15 121.29 21.2
-15 17 11 36.7 20
-17 11 15 55.99 21
-11 -17 15 60.29 19.2
-11 15 17 80.29 22
-11 -15 -17 150.78 24.9
15 -11 -17 73.29 23
-17 -11 -15 66.69 20
11 15 -17 42.8 18.9
-15 -17 -11 49.1 17.7
-17 -11 -15 74.09 21.4
-11 -15 -17 102.69 21
-15 -17 -11 72.99 21.3
15 11 -17 56.09 19
11 -15 -17 63.89 20.6
-17 15 11 126.79 24.3
-15 11 17 100.29 24.1
-17 -15 -11 112.89 21.9
15 -17 -11 81.29 23.6
-11 -17 -15 83.99 19.9
-11 17 15 55.49 20
17 -11 -15 103.69 24.7
17 15 -11 92.39 19.3
-17 -11 15 103.59 20.7
-11 -17 -15 103.19 21.6
-11 -15 17 96.99 23.5
-15 -17 11 113.69 22.6
11 17 -15 101.89 22.1
-17 -15 -11 144.29 25
-15 -11 -17 73.29 19.9
17 13 -15 148.19 38.2
-17 13 15 167.98 40.6
-15 17 13 185.08 40.7
-13 -15 -17 288.37 44.1
-13 -15 -17 188.88 38.5
-13 15 17 196.68 40.9
15 17 -13 274.67 40.2
-15 -17 -13 279.07 42.9
-17 -13 -15 223.48 40
-15 -17 -13 221.08 40
17 -15 -13 298.97 45.6
15 -13 -17 179.38 41.5
-13 -17 15 316.67 43.2
13 -17 -15 273.57 44.5
17 -13 -15 197.48 42.7
-17 -13 15 298.67 43.1
13 -15 -17 155.18 41.3
-17 -15 -13 265.17 40.6
-17 15 13 246.58 42.7
-15 -13 -17 179.68 39.9
-15 13 17 182.48 40.7
-13 -17 -15 269.17 41.9
-13 -17 -15 254.47 40.5
-13 17 15 243.68 42.3
15 13 -17 245.28 40.9
17 15 -13 272.87 41.3
15 -17 -13 227.88 42.1
-17 -15 -15 168.88 40.8
15 -17 -15 319.57 46.6
15 17 -15 180.08 38.2
-15 -15 17 207.48 41
-15 17 15 254.87 43.1
-15 -17 15 249.38 41.6
-15 -15 -17 193.18 41.7
-15 -17 -15 267.17 40.8
-17 -15 15 263.07 42.1
-17 1 -17 6 5
-17 1 17 -1.1 9.3
-17 -1 17 0.2 7.3
-17 1 -17 10.1 8.2
-17 -1 -17 9.3 6.7
-17 -17 -1 3.5 8.6
-17 -17 1 12.9 9.5
-17 -1 -17 3.9 8.4
17 -1 -17 4 7.8
17 1 -17 3.4 8.4
17 17 -1 3.9 6.5
17 17 1 -0.6 8.5
1 17 -17 6.5 8.3
1 17 17 1 8.6
-17 17 1 9 8.2
-1 -17 -17 -3.9 11.2
-1 -17 17 14.5 10.5
-1 17 -17 9.9 9
-1 17 17 4.6 7.7
1 -17 -17 13 10.1
1 -17 17 7.7 9.8
-17 17 -1 -0.6 6.4
3 17 17 302.17 47.3
17 -3 -17 319.17 48.3
17 3 -17 375.26 50.29
17 17 -3 307.57 46.9
-17 3 17 296.37 48.3
-17 17 3 237.48 46.8
-17 3 -17 254.47 43
-17 3 -17 238.98 42.3
-17 -17 -3 310.67 47.8
-17 -17 -3 232.48 46.5
-17 -17 3 309.47 47.9
-17 -3 -17 243.68 47.3
-17 -3 -17 302.17 46.1
-17 -3 17 254.07 47
-3 -17 17 283.17 49.3
-3 17 -17 311.17 47.2
3 -17 17 350.46 49
-5 17 17 419.36 63.59
-17 -17 -5 366.16 61.89
-17 -5 17 440.76 64.59
17 5 -17 441.96 63.89
17 17 -5 337.07 61.29
5 -17 -17 381.06 63.49
-17 -17 -7 431.76 76.29
-17 -17 -7 531.75 77.19
-17 -17 7 570.24 77.69
-17 -7 -17 469.35 77.79
-17 -7 -17 515.85 76.79
-17 7 17 623.24 80.59
-17 17 7 506.15 78.09
-7 -17 -17 589.94 79.29
-7 -17 17 382.26 76.99
-7 17 -17 443.56 73.29
7 -17 -17 497.45 77.89
17 -7 -17 504.35 77.99
17 17 -7 423.56 75.69
-17 -17 -9 47.2 15.5
-17 -17 9 88.49 17.1
-17 -9 -17 48.8 17.6
-17 -9 -17 43.4 14.8
-17 -9 17 56.69 17.9
-17 9 17 43.1 16.9
-17 17 9 78.99 19.7
-9 -17 -17 27.7 15.9
-9 -17 -17 28.4 13.2
-9 -17 17 48 17.5
-9 17 17 47.7 15.7
9 -17 -17 54.49 17
9 17 -17 77.29 18.7
17 -17 -9 78.49 21.7
17 -9 -17 21.4 15.4
17 9 -17 50.39 15.6
17 17 -9 28.9 13.8
-17 -17 -9 52.39 17.7
-17 17 11 70.59 20.4
-17 11 17 31.4 16.8
-17 -11 17 45.6 16.7
-17 -17 -11 61.09 18.1
-17 -17 11 60.49 18.3
-17 -11 -17 46.4 18.4
-17 -11 -17 67.69 18.5
-11 -17 -17 76.19 18.2
-11 -17 17 50.39 18.5
-11 17 17 78.19 19.8
11 -17 -17 82.89 21.3
11 17 -17 35.1 16.3
17 -17 -11 85.19 23.8
17 -11 -17 80.69 22.4
17 11 -17 95.19 21.2
17 17 -11 74.69 18.3
-11 -17 -17 106.99 23.8
-17 -17 -13 282.87 45
-13 -17 17 300.17 44.7
13 -17 -17 168.98 44
13 17 -17 240.58 42.9
17 -17 -13 215.48 45.6
-17 -17 -13 202.68 42
17 13 -17 227.18 42.2
17 17 -13 194.28 41.2
-17 -13 -17 257.87 43
-17 -13 17 257.17 44.1
-17 13 17 282.57 45.5
-13 -17 -17 307.47 44
17 -13 -17 248.88 44.2
-17 -17 13 269.17 43.6
17 -15 -17 364.16 64.59
-15 -17 -17 396.46 64.29
-15 -17 -17 307.07 60.79
-15 17 17 489.35 66.19
-17 -17 -15 364.86 63.59
-17 -17 -15 369.46 62.19
-17 -17 15 495.25 78.39
-17 -15 -17 389.46 62.99
17 -17 -15 380.16 65.39
17 17 -17 169.48 39
-17 -17 -17 262.27 41.7
17 -17 -17 273.27 45.4
-18 0 0 839.52 110.99
0 -18 0 682.93 110.59
0 -18 0 731.33 110.09
0 0 18 594.54 110.19
18 0 0 866.91 110.69
0 -18 2 77.99 19.2
-2 -18 0 95.89 20.9
0 2 18 58.49 20
2 -18 0 84.69 20.9
2 -18 0 81.89 19.2
18 0 -2 110.99 20
18 0 2 97.69 18.3
-18 0 -2 70.89 18.5
-18 0 2 86.29 19.8
-2 0 18 79.79 21.5
-2 -18 0 114.99 20.5
0 -2 -18 74.29 19
0 -2 18 96.29 22.3
0 2 -18 116.99 21.7
-2 0 -18 90.59 21
18 2 0 107.29 19.8
0 -18 -2 71.19 19.9
0 -18 -2 75.19 19
0 -18 2 118.79 21.6
-18 -2 0 76.39 19.5
2 0 -18 83.79 21
2 0 18 98.39 21.6
18 -2 0 101.79 18.8
-18 2 0 81.39 19.9
-18 -2 -2 12 8.1
2 2 18 11 8.2
-18 2 2 8.7 9.1
-2 -18 -2 1.9 9
-2 2 -18 7.9 9
-2 2 18 12.5 11.2
-18 -2 2 11.6 8.1
-18 2 -2 10 8.3
2 -18 2 9.4 9.6
2 -18 2 5.4 7.4
2 -2 -18 11.4 10.8
2 -2 18 11.1 9.9
2 -18 -2 5.2 9.5
2 -18 -2 11 8.1
-2 -18 -2 4.1 6.2
-2 -18 2 7.7 8.6
-2 -18 2 8.4 7.9
-2 -2 -18 2.5 9.7
-2 -2 18 -0.9 9.1
18 -2 -2 9 7.5
18 -2 2 1.6 5.1
18 2 -2 10.4 8.2
18 2 2 5.1 7.2
2 2 -18 10.3 9.7
18 4 0 192.98 28.1
0 -4 18 150.98 28.6
0 -18 -4 111.09 27.3
0 -18 -4 172.08 26.5
0 -18 4 135.49 27.9
0 -18 4 169.48 26.6
18 0 -4 178.48 28.5
4 0 18 148.29 28.2
-18 0 4 113.99 27.2
-4 -18 0 117.79 27.2
-18 -4 0 161.58 27.7
-18 4 0 140.79 27.3
-4 0 -18 94.09 26.4
-4 0 18 110.29 28.5
-18 0 -4 155.78 26.5
0 -4 -18 188.48 30
0 4 18 184.68 30.4
4 -18 0 196.18 29.6
4 -18 0 161.78 27
0 4 -18 96.69 26.8
4 -18 2 204.28 33.2
-2 4 18 241.58 35.7
18 2 -4 205.08 34.3
18 -4 -2 152.28 31.7
4 -18 2 209.18 34.2
-18 -4 2 209.18 33.8
-18 4 -2 186.38 32.7
-4 -2 18 206.48 34.7
-18 -2 -4 187.68 33.2
-2 -18 4 208.78 33.8
-2 -18 4 143.19 32.7
2 -18 -4 168.68 34.7
2 -18 -4 146.59 32.4
-4 2 -18 197.68 33.8
4 2 18 161.08 33.7
-18 2 4 223.88 35.5
-4 -18 -2 211.98 36.5
-2 -4 -18 201.08 35.3
2 -4 18 170.88 34.3
18 4 2 182.38 33
2 -18 4 246.58 35.2
4 -2 18 212.88 34.9
4 -18 -2 214.38 35.5
18 2 4 183.78 32.1
-2 -18 -4 204.88 35
4 -18 -2 171.28 32.8
18 -2 -4 208.08 33.9
-4 2 18 156.48 34.4
-18 -4 -2 186.38 34
2 -18 4 177.68 32.7
18 4 -2 195.28 33.5
-2 -18 -4 201.58 33.8
-18 2 -4 187.48 32.2
-18 4 2 176.78 33.4
2 -4 -18 233.58 34.9
-4 -2 -18 215.58 35
-4 -18 2 250.67 35.6
-4 -18 2 240.18 34.8
-2 -4 18 157.28 34.4
-18 -2 4 213.68 35
-18 -4 4 384.36 53.89
18 -4 -4 347.47 52.89
-4 -18 -4 366.46 53.09
-4 -18 4 270.17 51.69
-18 4 -4 337.77 51.19
-18 4 4 337.27 53.59
4 18 -4 306.17 52.09
-4 4 -18 351.66 52.99
4 -18 -4 361.86 54.59
4 -18 4 413.56 54.39
4 -18 4 304.87 51.49
4 -4 -18 356.56 54.29
4 -4 18 311.07 52.79
-4 -4 -18 316.87 53.69
-4 -4 18 313.17 53.39
-18 -4 -4 276.37 51.39
18 4 -4 326.37 52.69
18 4 4 335.47 51.99
4 4 18 321.57 53.59
6 0 18 162.68 32.6
18 0 -6 199.58 31.8
0 -18 6 184.38 31.7
6 -18 0 171.38 31.2
0 -18 -6 170.88 31.7
-18 6 0 161.78 31
-6 0 -18 235.88 34.1
0 -6 -18 207.18 34
0 -6 18 194.18 33.4
0 6 -18 218.48 33.2
0 6 18 183.98 33.8
6 -18 0 180.58 32.2
-18 0 6 137.89 32
-6 -18 0 171.98 31.7
18 6 0 158.78 31.4
-18 -6 0 174.98 32.4
-18 0 -6 182.38 30.5
-18 -6 2 294.07 43.2
-18 6 -2 241.28 41
6 2 18 217.08 42.5
2 -6 18 257.67 43.3
2 6 -18 235.08 42.7
18 6 2 300.37 43.7
-2 -6 -18 207.68 43.1
18 2 -6 247.18 42.4
-18 -2 -6 268.37 41.6
6 -18 2 266.67 43.3
6 -18 2 264.97 42.3
-18 2 6 252.27 43.8
2 -18 -6 188.98 41.8
-2 -18 6 247.38 42.7
6 -2 -18 286.67 44.5
-6 2 -18 252.77 42.5
-18 -2 6 208.98 42.5
-18 2 -6 235.08 40.3
2 -6 -18 270.07 44.3
2 -18 6 308.97 43.4
6 -18 -2 242.88 43.8
6 -18 -2 252.27 42.2
2 6 18 252.17 44.2
18 -2 -6 310.77 44.2
-2 -6 18 237.98 43.7
-2 6 -18 228.48 42.3
-18 -6 -2 263.37 42.6
-18 6 2 253.57 43
-6 -2 -18 304.97 44
2 -18 6 255.27 42
-6 2 18 350.06 46.7
-2 -18 -6 293.57 42.3
-6 -18 2 301.87 43
-2 18 6 216.38 42.3
18 6 -2 265.77 42.9
6 -2 18 261.37 42.6
6 2 -18 312.57 44.8
6 -18 4 710.93 102.69
-4 6 18 571.64 103.89
-18 6 -4 648.44 101.19
-6 -4 18 762.22 105.19
-6 4 -18 741.13 110.29
-4 -18 6 739.73 104.39
-18 -4 -6 597.74 102.79
-18 -6 4 798.12 105.29
-18 4 6 754.22 105.19
-4 -6 -18 618.74 104.29
18 -6 -4 743.63 103.99
4 -6 18 722.13 104.19
18 6 4 581.44 102.49
6 -4 -18 646.44 104.49
6 4 18 535.05 103.09
-6 4 18 787.52 105.99
4 -18 6 742.53 103.89
-18 4 -6 734.33 101.39
-4 6 -18 761.82 103.69
-18 6 4 575.44 103.39
-18 -6 -4 717.53 104.09
4 6 18 774.42 104.79
4 -18 6 657.43 102.89
-4 -18 -6 740.53 104.59
6 -4 18 695.63 103.59
6 -18 -4 658.43 104.79
18 -4 -6 580.04 103.49
18 6 -4 631.74 103.09
4 -6 -18 810.32 105.19
4 18 -6 786.32 103.89
-4 18 6 795.42 104.79
-18 -6 6 991.7 134.59
-18 -6 -6 962 133.99
6 -18 -6 861.41 134.59
-6 18 6 925.31 134.29
-6 6 -18 890.41 132.59
6 18 -6 1037.3 133.99
18 -6 -6 846.72 133.69
18 6 -6 812.22 133.09
-18 6 -6 869.51 129.89
-18 6 6 698.93 133.39
-6 -18 6 865.51 133.89
-6 -6 18 1080.79 135.99
6 -18 6 898.71 132.29
6 -6 18 918.41 135.29
6 6 -18 962.8 134.39
-8 0 -18 45.3 15.7
8 -18 0 68.19 17.2
8 -18 0 61.89 15.6
-8 0 18 90.99 20.6
0 -18 -8 43.6 16.8
0 -18 8 71.39 17.7
0 18 -8 84.89 17
0 18 8 69.39 17.2
8 0 18 63.49 16.2
18 8 0 68.49 16.9
18 0 -8 67.79 17.9
8 0 -18 104.59 18.5
-18 -8 0 68.99 17
-18 8 0 80.09 16.9
-18 0 -8 60.79 14.4
-18 0 -8 62.29 14.5
-18 0 8 70.29 18.2
0 -8 18 52.89 17.2
0 8 -18 44.9 15.4
0 8 18 52.39 16.3
8 18 -2 0.6 5.5
8 -2 -18 -2.3 6.4
-18 -2 -8 -1.5 5.1
18 8 2 4.1 7.9
-8 18 2 -2.1 7.1
8 -18 2 -5.2 5.6
8 -18 2 0.7 5.9
18 -8 -2 0.5 4.3
-2 -18 8 -0.6 6.5
-18 2 8 -4.1 8
2 -18 -8 7.8 10.2
-8 -18 -2 3.6 8.6
-8 -18 -2 0.5 7.2
-2 -8 -18 0.5 7.1
-2 8 18 4.3 7.3
2 -8 18 0.4 9.5
2 8 -18 -1.5 7.3
18 2 -8 0.9 7.9
-18 8 -2 0.2 6
-8 -2 18 0.9 6.6
-8 2 -18 2.6 7.8
-18 -2 -8 -1.9 5.3
-18 -8 2 1.8 7.6
8 2 18 4.7 7.5
-18 8 2 0.8 7.2
-18 2 -8 -5 4.2
-8 -2 -18 8.1 9.3
8 -2 18 0.9 7.2
8 2 -18 -6.4 8.1
18 8 -2 -0.7 7
-2 -18 -8 7.4 10.1
-2 18 8 3.2 8
2 -18 8 -1.6 6.5
-18 2 -8 4.6 5.3
18 -2 -8 6.2 8.9
-2 -18 -8 -0.9 5.1
-18 -2 8 7.2 8.9
2 -8 -18 -2.2 8.8
-8 2 18 7.1 10.2
2 18 -8 -1.8 6.3
-2 -8 18 -4.9 8.5
-2 8 -18 4.7 7.4
2 8 18 4.8 8.8
-18 -8 -2 -3.5 6.7
8 -18 -2 -1.1 7.8
-8 -18 2 -4.6 4.6
-18 -8 4 126.49 28.2
-8 4 -18 163.48 28.1
-4 -18 8 117.69 27.6
-8 18 4 149.09 28.6
-18 4 8 116.09 28.8
4 8 -18 157.48 29.3
8 -18 4 194.38 27.6
18 8 4 131.29 27.2
18 4 -8 157.28 28.1
-18 -4 -8 144.29 32.3
-18 -4 -8 114.79 26.6
4 -18 -8 117.09 29.6
8 4 18 186.28 30.1
4 -8 18 175.98 29.5
4 -8 -18 210.88 30.4
-4 -18 -8 196.98 31.2
-4 -18 -8 100.09 25.5
-4 18 8 100.29 27.4
8 4 -18 190.38 33.7
-4 -8 18 152.78 30.1
4 18 -8 185.88 29.1
-18 -8 -4 204.68 29.9
18 8 -4 111.49 27.6
18 -4 -8 152.98 29.3
-18 8 4 170.88 29.9
-18 -4 8 114.69 27
8 -18 -4 144.29 29.8
-8 -4 -18 223.28 31.8
-4 8 -18 156.28 27.6
4 -18 8 172.88 28.3
-18 4 -8 163.18 24.3
-18 4 -8 167.38 24.6
18 6 -8 367.36 50.99
-18 -6 -8 364.96 49.9
-6 -18 8 256.57 49.3
6 -18 -8 306.97 51.59
-8 -6 18 366.06 52.29
-8 18 6 335.67 50.69
8 6 18 321.77 50.89
18 -8 -6 335.47 50.39
-18 6 8 220.68 49.6
-8 -18 -6 370.66 51.89
-8 -18 -6 318.27 49.9
-18 -6 -8 251.07 48.2
8 18 -6 311.17 49.1
-6 -8 -18 223.68 49.8
-8 6 -18 301.37 48
8 -6 -18 265.47 50.59
-18 -6 8 375.56 52.09
18 -6 -8 287.87 50.49
6 -18 8 340.87 48.9
6 -8 -18 346.47 50.79
6 8 18 312.87 51.19
8 -18 -6 295.37 51.19
-6 -18 -8 330.07 49.3
-6 8 -18 316.67 48.5
-18 -8 -6 310.07 49.6
-18 8 6 280.57 50.69
8 6 -18 302.07 49.9
-6 -18 -8 299.57 50.49
-6 -8 18 258.27 49.5
-8 -6 -18 269.07 50.79
8 -18 8 -1.9 4.3
-18 -8 -8 -1.9 6.3
-18 -8 -8 -0.6 6.4
-18 -8 8 -4.7 8
-18 8 8 -9.9 7.7
-8 -18 -8 12.5 10.3
-8 -18 -8 1.9 5.7
-8 -18 8 -0.3 6
-8 -8 -18 3.3 9.7
-8 -8 18 5.2 10.5
-8 8 -18 1.9 5.1
-8 8 18 5.5 8.3
-8 18 8 1.4 8
8 -8 -18 5.5 8
8 8 -18 -5.9 7.5
8 8 18 5.5 8.5
8 18 -8 1.6 6.3
18 -8 -8 2.7 8.8
18 8 -8 -4.6 7
8 -18 -8 1.3 9.7
0 18 -10 107.99 22.2
0 -10 18 116.09 24.6
0 -18 10 125.99 23.8
0 10 -18 85.19 21.2
-18 10 0 120.19 22
-18 0 -10 124.89 20.3
-18 0 10 78.29 21.2
-10 0 -18 111.29 22.7
0 10 18 145.29 25.3
-18 0 -10 98.69 20.1
10 -18 0 112.49 21.2
18 0 -10 94.99 23.5
0 18 10 113.09 22.7
10 0 -18 114.69 22.6
10 0 18 79.49 21.2
18 10 0 82.69 22.4
-10 -18 0 113.49 21.7
0 -18 -10 130.09 23.9
-18 -10 0 84.69 21.9
-10 18 2 34.8 12.7
-18 10 -2 41.6 10.5
-10 -18 -2 41.6 12
10 2 18 48.9 13.4
10 18 -2 32.8 10.9
-10 2 -18 40.8 12.5
-18 -10 2 22.1 10.5
10 -18 2 27.8 10.1
2 10 -18 28.8 11.5
-2 -10 -18 47.7 15.8
18 10 2 36.3 12.4
18 2 -10 26.9 12.5
-18 -2 -10 29 11.1
2 -10 18 30.2 13.1
2 -18 -10 20.6 13.5
-18 2 10 41.2 15.1
-10 -18 -2 20.2 11.2
-2 -18 10 36.7 12.6
-2 10 18 38.3 14.3
2 18 10 24.9 10
10 -2 -18 21.7 12.7
-18 -2 -10 30.5 10.5
-2 -18 -10 34.7 12.6
-2 18 10 7 10.6
2 -18 10 33.1 11.7
-18 -2 10 32 13.6
-10 -18 2 37.8 11.9
18 10 -2 23.5 12
2 -10 -18 12 10.1
10 2 -18 35.7 12.3
-18 2 -10 36.2 9.1
-18 -10 -2 35.5 13
18 -2 -10 22.9 12.8
-18 10 2 41 13.2
-10 -2 -18 39.8 13.5
2 18 -10 23.4 11.2
2 10 18 38.4 12.6
-18 2 -10 33.4 9.3
-10 2 18 18.4 11.7
10 -18 -2 32.9 12.5
-2 10 -18 19 10.5
-2 -10 18 31.4 13.6
-4 -18 10 20.3 11.6
-4 -10 -18 30 14.2
-10 18 4 26.5 11.7
-18 4 10 39 14.3
10 4 18 31.8 15.2
18 10 4 41.7 13
-10 -18 -4 4.6 9.7
-18 -10 4 31 12.8
-18 10 -4 36.8 8.3
-10 4 -18 33.4 10.8
4 -10 18 33 12.1
-18 -4 -10 27 10
18 4 -10 27.9 11.1
-18 -4 -10 36.6 12.3
4 -18 -10 20.9 11.6
-10 -18 -4 52.89 14
10 -4 -18 12 12.1
-10 -4 18 16.1 12.1
4 10 -18 21.2 10
-4 10 18 47.3 13.6
10 18 -4 31.7 12
-4 10 -18 46.2 12.6
-4 -10 18 40.5 13.5
18 10 -4 30.2 12.3
10 4 -18 36.8 13.4
-18 -10 -4 25.8 12
-18 -4 10 9.8 8.9
-10 -18 4 12.8 9.1
4 10 18 19.8 12.1
10 -18 -4 30.1 13.8
18 -4 -10 42.3 14
-4 -18 -10 30.6 11.6
-4 18 10 21.6 11.1
4 -10 -18 29.7 13.9
-10 4 18 29.8 14.3
-10 -4 -18 32.6 13.8
4 -18 10 28.2 11
-18 4 -10 31.1 7
-18 10 4 35.2 12.8
-4 -18 -10 22.2 13.1
-18 4 -10 34.6 6.9
4 18 -10 13.7 10.4
-10 -18 -6 42.3 13.7
18 6 -10 32.8 13.7
-6 -18 10 56.89 15.5
-10 18 6 48.8 15.2
-6 -10 -18 52.09 15.6
-18 -6 -10 22.3 11.7
-10 -18 -6 40.5 14.6
6 -18 -10 57.29 15.8
-18 6 10 51.99 16.4
10 6 18 44.9 14.2
6 10 -18 26.8 12.4
10 18 -6 57.49 14.7
10 -6 -18 70.69 18
-18 -6 -10 54.49 13.9
18 -10 -6 41.9 14.7
-10 -6 18 15.1 13.1
-10 6 -18 38.2 10.4
-6 10 18 44.4 15.5
6 18 -10 67.69 16.1
-6 18 10 55.99 14.5
-6 -18 -10 51.19 13.4
18 -6 -10 34.1 14.4
6 -10 -18 37 15.3
6 10 18 20.7 12.4
-10 6 18 32.8 15
-6 -18 -10 16.4 12.5
-18 10 6 35.1 15.5
-10 -6 -18 34.4 14.3
-18 -10 -6 47.9 13.6
-18 -6 10 49.99 15.3
-6 10 -18 49.6 12.2
18 10 -6 37.2 13.5
10 6 -18 15.5 10.4
10 -18 -6 36.2 15
-6 -10 18 32.6 14.9
-18 -10 -6 16.4 11
10 8 18 95.99 22.3
-10 -8 18 116.29 24.9
-10 8 -18 98.69 17.5
8 -18 -10 65.09 21.3
18 8 -10 122.79 21.5
8 10 -18 91.19 22.2
-18 -8 -10 129.49 23.4
-8 -18 10 88.79 21.7
-10 -18 -8 89.19 22.2
-18 8 10 83.59 23.2
10 18 -8 96.29 20.1
18 -10 -8 99.69 23.5
-8 -10 -18 108.39 25.2
10 -8 -18 51.99 20
-18 -8 -10 83.49 19.7
-10 -18 -8 109.79 20.5
-10 18 8 68.89 21.4
-8 10 -18 106.09 18.6
-10 8 18 141.59 26.2
-8 -10 18 128.09 23
-18 -8 10 79.99 20.3
18 -8 -10 104.89 24.2
-18 -10 -8 102.39 21.7
-8 18 10 91.99 22.3
-18 -10 -8 97.69 21.5
-10 -8 -18 86.69 23.3
-18 10 8 87.39 23
-8 -18 -10 84.09 22
18 10 -8 112.59 22.2
8 10 18 133.69 22.4
8 -10 -18 47.4 20.7
10 -18 -8 82.69 23
8 18 -10 115.59 22.5
10 10 -18 304.87 47.3
-10 18 10 307.27 47.8
-10 -18 -10 266.67 45.8
10 -18 -10 254.17 48.1
-18 -10 -10 359.76 48.2
-18 -10 -10 247.28 45.3
10 -10 -18 266.67 47.9
-10 -10 -18 277.47 48.7
10 10 18 204.48 45.4
10 18 -10 296.07 46.6
18 -10 -10 275.57 48.2
-10 10 18 307.67 48.6
-18 -10 10 321.17 47.5
-18 10 10 187.18 46.2
-10 -18 -10 323.57 46.6
-10 10 -18 269.67 41.7
-10 -10 18 267.37 46.3
-18 0 -12 106.19 20.2
-12 -18 0 116.89 20.9
12 0 18 83.99 20
18 12 0 118.39 22.9
0 -18 12 91.59 22.7
-18 0 -12 95.69 18.6
-18 0 12 89.99 21.6
-18 12 0 117.99 21
0 -12 18 99.89 23.1
0 12 -18 81.09 25.6
18 0 -12 121.09 24.4
0 18 12 67.49 20.4
0 18 -12 80.99 23.5
-12 0 18 74.09 21.7
12 0 -18 121.29 22.1
-12 0 -18 108.89 21.6
-18 -12 0 109.59 22.5
0 -18 -12 93.69 22.3
12 -18 2 0.6 4.7
-18 2 12 1.5 10.2
-2 18 -12 16.5 9.1
18 2 -12 6 7.8
-2 -18 12 2.1 9
2 -12 18 4 10.6
2 12 -18 16.7 11
2 18 12 1.5 7.9
-18 -2 -12 13.2 7.5
18 12 2 4.8 6.7
2 -18 -12 10.6 9.6
-18 12 -2 13.7 7.2
12 2 18 4.2 7.5
-12 -2 18 21 10.4
-12 2 -18 7 8.2
-2 12 18 7.7 8.1
-18 -12 2 23.3 10.8
-18 -2 -12 11.3 8.7
-2 -12 -18 6.6 8.8
12 18 -2 5.8 6.6
-12 18 2 11.9 8.9
-12 -18 -2 5.7 9.2
-12 -18 -2 9.6 8.5
12 -2 -18 5.8 10.9
2 18 -12 10 9.2
18 -2 -12 10.5 8.3
-18 -12 -2 9.1 9
-18 12 2 16.7 9
12 -18 -2 -6.9 4.8
2 12 18 7.5 10
-2 18 12 3.2 6.6
-12 -18 2 7.2 6.9
-2 -18 -12 15.6 11.9
2 -18 12 12.2 9.4
-18 2 -12 18.3 7.5
-18 2 -12 16.7 6
18 12 -2 10.5 9.7
-12 -2 -18 11.7 10.8
2 -12 -18 5.3 8.6
-12 2 18 -0.8 7
-2 -12 18 13.5 10.8
-2 12 -18 30 10.2
12 2 -18 6.6 8.2
-18 -2 12 5.6 8.2
-18 12 -4 18 5.6
-12 -4 18 18.8 11.8
12 4 18 9.2 8.7
-4 -18 12 33.5 13.5
12 -4 -18 12.8 11.7
-4 12 18 6.2 9.9
-18 4 12 22 10.9
4 12 -18 15.2 10.8
-12 4 -18 26.5 9.2
-12 -18 -4 35.5 12.2
-12 18 4 19.8 10.8
-4 -12 -18 34.4 13
-18 -4 -12 39.2 11.2
-18 -4 -12 20.5 10.2
-18 -12 4 14.6 10
18 -12 -4 4.1 6.7
-12 -18 -4 19.1 11.1
4 -12 18 21.5 10.7
12 18 -4 21.1 10.9
18 4 -12 10.3 10.9
4 -18 -12 26.8 14.7
-4 18 -12 32.5 10.2
12 4 -18 13.5 9.7
4 -18 12 35 11.9
18 -4 -12 25.3 13.4
-18 -4 12 8.7 10.4
-12 -4 -18 20.5 12.6
-4 -12 18 28.7 13.4
-4 12 -18 24.7 10.3
4 18 -12 26.9 11.4
18 12 -4 18.6 11.1
-18 12 4 22.3 11.4
-4 18 12 34.5 12.1
4 -12 -18 21.9 11.6
-18 -12 -4 10 9.8
4 12 18 19.3 10.5
12 -18 -4 17.6 12.1
-12 4 18 24.3 11.2
-4 -18 -12 38.4 13.3
-12 -18 4 28 11.5
-12 -6 18 -2.1 10.1
18 -12 -6 5.2 7.6
18 6 -12 5.9 8.1
-6 -18 12 6.1 10
6 12 -18 6.2 9.4
-18 -6 -12 18.6 10
-6 12 18 13.3 11.2
-18 -6 -12 17.7 9.1
12 18 -6 6.3 8.4
6 -18 -12 8 10
12 -6 -18 21.8 12.6
-18 6 12 14.8 11.8
-12 18 6 12.1 12.2
-12 6 -18 16.4 6.1
-12 -18 -6 12.3 9
-6 -12 -18 16.7 10.7
-18 -12 6 7 9.4
-12 -18 -6 18.3 10.8
12 -18 -6 19.3 13.2
-18 -6 12 14.4 11
-12 6 18 12.2 10.7
18 -6 -12 9.1 10.6
12 6 -18 2.6 7.5
-18 -12 -6 11.1 10
-18 -12 -6 10.3 9
-6 -12 18 14.1 11.9
-6 -18 -12 1.7 6.9
-6 18 12 7.7 8.3
6 -18 12 -1.8 4.3
6 18 -12 16 10.5
-6 12 -18 21.3 8
18 12 -6 21.7 10.9
-12 -6 -18 5 10.3
-12 -18 6 7.8 8.9
6 -12 -18 13.7 11.8
6 12 18 12.9 9.9
-18 12 6 10 10
-6 -18 -12 8.8 8.6
-18 -8 -12 41.1 13.2
-8 12 18 47.9 15.8
8 12 -18 69.79 17.6
18 -12 -8 43.2 15.9
8 -18 -12 42.9 16.6
12 18 -8 38.9 14.3
18 8 -12 56.79 16.4
-12 18 8 51.69 15.7
-8 -12 -18 28.9 14.4
-12 -18 -8 70.79 14.4
-8 -18 12 32.9 14.1
-12 -8 18 19.3 14.1
-18 -12 8 19 12.3
-18 -8 -12 42.8 14.2
-18 8 12 42.6 17
-12 8 -18 49.9 8.3
-12 -18 -8 89.39 18.9
12 -8 -18 34.2 15.5
-8 12 -18 50.69 11.5
-18 -8 12 33.3 13.1
-8 18 12 24.1 13.4
-18 -12 -8 31.6 13.4
-8 -12 18 47.3 17
-18 12 8 43.6 15.5
-12 -8 -18 62.69 18.6
-12 8 18 45.8 16.4
18 -8 -12 42.1 17
-12 -18 8 27.6 13.2
8 18 -12 61.39 15.8
12 -18 -8 50.99 17.7
18 12 -8 35.9 14.1
8 12 18 31.4 13.5
-8 -18 -12 15.4 11.1
-18 -12 -8 43.9 13.9
8 -12 -18 29.1 15.8
12 8 -18 49.2 14.3
-8 -18 -12 29.8 13
18 -12 -10 105.89 25.7
-18 10 12 90.39 24
-10 -18 12 52.89 19.5
-12 18 10 98.29 22.9
10 -18 -12 90.39 24.1
-18 -12 10 88.89 20.2
10 12 -18 100.49 20.7
-10 -12 -18 108.69 25.5
-12 -10 18 105.79 23.7
-18 -10 -12 69.19 19.8
12 18 -10 105.69 20.7
-12 -18 -10 125.99 22.2
-10 12 18 114.29 24.3
18 10 -12 115.79 22.8
12 -10 -18 91.39 27.9
-12 -18 -10 83.89 20.8
-10 18 12 119.99 23.5
12 -18 -10 101.49 22.7
-10 -18 -12 129.29 23
-12 10 18 50.79 21
-10 -12 18 95.59 21.8
-10 -18 -12 67.69 20.2
-12 -10 -18 96.09 21.2
-12 -10 -18 119.89 26
-18 -10 12 124.09 23.8
18 -10 -12 79.69 22.2
-18 12 10 80.19 22.9
12 10 -18 64.49 20.1
-10 12 -18 94.79 15.4
10 -12 -18 128.49 26.6
10 18 -12 107.39 22.4
-18 -12 -10 47.8 19.4
-18 -12 -10 64.29 19.4
-12 -12 -18 54.89 17.9
-12 -12 -18 76.89 22.5
18 -12 -12 63.99 21.9
-18 12 12 65.59 21.3
12 -18 -12 96.79 24.1
12 -12 -18 57.69 21.5
-18 -12 -12 88.19 20
-12 -18 12 112.89 22.2
-18 -12 12 94.29 19.7
12 12 -18 96.49 21.9
-12 -18 -12 102.59 20.6
-12 18 12 40.6 18
12 18 -12 87.79 20.4
18 12 -12 82.79 19
-12 -12 18 103.79 23.9
-12 12 18 59.39 20.3
0 18 14 -4 7.9
0 18 -14 -4.8 6.9
0 -14 -18 0.1 11.2
0 -18 14 2 8.2
-14 18 0 -0.8 6.8
-18 0 -14 -3.9 7.2
-14 -18 0 1.2 7.9
-18 -14 0 0.1 7.6
0 -14 18 -0.4 9.1
14 18 0 0.8 8
-18 0 -14 0.2 4.9
-18 0 14 -4.8 6.6
-14 0 -18 2 7.5
-18 14 0 0.4 6.8
0 14 18 2.2 9.1
-14 0 -18 -2.2 4.9
-14 0 18 -6.6 8.3
18 0 -14 2.3 8
0 14 -18 -0.6 7
0 -18 -14 -0.2 7.5
14 0 -18 -4.3 9.1
18 14 0 -1.9 7.6
2 -14 18 65.49 17.3
14 -2 -18 58.99 16.5
2 -18 -14 56.79 18
2 18 14 37.9 13.7
-18 -2 -14 81.69 18.1
-18 -14 2 33.7 14.6
-14 2 -18 67.89 15.2
-18 -2 -14 68.39 14.7
-2 18 -14 70.09 16.5
-14 2 -18 67.09 13.2
-2 -18 14 55.09 17.5
-14 -2 18 86.09 18.1
18 14 2 61.39 16.7
-18 14 -2 82.29 14.4
18 2 -14 75.59 19.4
-14 -18 -2 27.1 14.1
-18 2 14 31.2 15.6
-14 18 2 78.69 18
14 18 -2 34.8 13.3
-2 -14 -18 65.99 18.1
2 -14 -18 66.09 18.1
-14 -2 -18 51.99 14.2
-14 -2 -18 64.69 17.4
2 -18 14 79.39 18.2
-14 -18 2 38.5 14.8
18 -2 -14 65.79 18.3
-18 14 2 68.49 17
2 14 18 64.79 17.9
-2 -18 -14 75.69 20.7
-18 2 -14 51.29 13
-18 -2 14 45.6 17.2
-14 2 18 29.8 14.2
-18 -14 -2 85.49 19.2
14 2 -18 80.09 19.1
18 14 -2 59.49 15.9
-2 14 -18 74.99 16.6
-18 2 -14 58.09 12.4
-2 -14 18 77.89 19.8
-4 18 -14 347.27 56.19
18 4 -14 299.47 57.59
-14 4 -18 337.97 53.89
-14 4 -18 414.36 55.09
-14 -4 18 327.47 57.79
4 -14 18 294.87 56.59
4 14 -18 370.06 58.29
-18 -4 -14 356.36 58.19
-18 -4 -14 325.97 56.29
-4 -14 -18 343.57 58.99
-14 -18 -4 411.26 57.89
-14 18 4 416.16 59.89
-4 14 18 376.46 58.69
-4 -18 14 347.37 59.09
-18 -14 4 386.66 58.29
-18 4 14 404.36 59.69
14 -4 -18 331.97 57.99
4 -18 14 353.66 57.49
4 -14 -18 406.96 60.29
-18 -14 -4 451.75 59.59
18 14 -4 357.86 57.19
-4 18 14 389.06 58.69
4 18 -14 260.37 56.49
18 -4 -14 362.06 59.39
-14 -4 -18 369.56 58.99
-4 -14 18 355.66 59.69
-18 14 4 351.76 58.39
-4 14 -18 364.06 56.59
-14 -4 -18 347.57 56.39
14 4 -18 467.35 60.49
-4 -18 -14 274.77 57.99
4 14 18 447.36 59.79
-18 -6 -14 430.06 64.39
6 -18 -14 395.16 64.29
18 6 -14 364.86 62.89
-14 6 -18 411.26 57.89
-14 -18 -6 346.17 62.09
-6 -18 14 342.47 63.89
-14 6 -18 366.16 57.69
-14 18 6 428.16 64.59
-18 -14 6 485.75 65.09
-18 -6 -14 338.57 61.69
6 14 -18 411.66 63.99
14 18 -6 456.55 63.59
-18 6 14 359.66 64.39
-6 -14 -18 313.57 63.19
-6 14 -18 425.56 61.39
6 -14 -18 284.77 62.99
6 14 18 445.86 64.39
14 -18 -6 327.37 63.69
-18 14 6 429.76 64.69
-18 -6 14 509.05 65.89
18 14 -6 434.06 63.09
-6 -14 18 347.87 64.29
-14 6 18 437.06 65.59
-18 -14 -6 461.15 64.09
-14 -6 -18 508.25 67.09
-14 -6 -18 357.76 61.89
-14 -18 6 500.25 64.09
18 -6 -14 356.96 63.69
-14 -8 18 102.09 24.2
-14 -18 -8 132.49 25.3
14 -8 -18 80.89 23.7
18 8 -14 52.29 20.7
-8 -14 -18 81.99 24.3
-8 14 18 87.59 23.7
-18 -8 -14 91.29 22.5
-18 -8 -14 85.19 20.8
-8 -18 14 61.49 21.4
18 -14 -8 118.99 25.7
-14 18 8 79.99 22.6
8 -18 -14 115.29 26.6
-18 8 14 85.19 24.1
14 18 -8 116.39 21.5
-18 -14 8 122.09 23.6
8 14 -18 157.58 25.8
-14 -18 -8 107.59 21.3
8 14 18 91.19 21.2
18 14 -8 142.99 24.2
14 -18 -8 116.39 26.5
-8 -18 -14 70.39 22.6
18 -8 -14 145.49 27.1
-18 -14 -8 72.19 22
-8 14 -18 100.59 18.3
-18 14 8 117.09 25.6
-14 -8 -18 150.88 27.1
-8 -14 18 75.39 23.4
-8 -18 -14 112.99 22.1
-14 -8 -18 114.29 21.5
-18 -14 -8 96.89 21
-14 -18 8 125.59 24
8 -14 -18 65.09 21.6
14 8 -18 106.99 23.7
-18 -10 -14 26.4 12.2
-18 -10 -14 24.5 10.8
14 -10 -18 21.5 14.6
-14 -18 -10 19.1 12.6
-18 -14 10 26.7 12.8
18 -14 -10 17.8 13.9
-10 -14 -18 -0.8 8.4
10 -18 -14 28.8 13.5
10 14 -18 31.5 11.6
-14 -18 -10 24 11.3
14 18 -10 14.1 9.4
-14 -10 18 2.5 10.1
18 10 -14 30.1 12.9
-10 -18 14 14.4 11.6
-14 18 10 12.9 18.5
-18 10 14 21.9 11.3
-10 14 18 11.5 10.5
-18 -10 14 14.3 11.3
-14 -10 -18 18.5 9.9
-10 -18 -14 11.3 9.3
18 -10 -14 8.9 12.1
-14 10 18 4.4 8.4
10 18 -14 32.7 11.7
-10 -14 18 15.4 12.2
-10 18 14 20.9 12.5
14 10 -18 12.5 11.1
18 14 -10 29.3 12.3
14 -18 -10 30.7 15.9
-14 -18 10 21.7 10.6
-18 -14 -10 9.3 9.9
-14 -10 -18 33.1 14.7
-10 -18 -14 27.6 13.1
10 -14 -18 16.8 11.5
-18 -14 -10 33.2 12.8
-18 14 10 20.2 12.1
-14 -12 18 9.6 9
-14 -18 -12 18.2 8.8
14 -12 -18 1.9 12.6
-18 -12 -14 8.7 8.8
-18 -12 -14 -0.2 8.8
-18 -14 12 4.6 9
-18 12 14 12.4 12
-14 -18 -12 -2.5 9.7
14 18 -12 3.5 9.7
-14 18 12 6.2 9.7
-12 -14 -18 1.6 5.9
-12 14 18 8.3 8.5
12 14 -18 9.9 10.3
18 -14 -12 -2.3 11.4
18 12 -14 16.7 11.2
-12 -14 -18 -3.2 8.3
-12 -18 14 5.6 7.5
12 -18 -14 12.2 14
-18 -12 14 11 8.9
-18 -14 -12 6.1 9.3
18 14 -12 18.3 9.9
-14 -18 12 1.3 8
14 12 -18 6.3 8.7
12 -14 -18 4.9 9.8
-18 14 12 8.2 10.4
-12 18 14 8.1 10.4
-12 -18 -14 -3.3 7
14 -18 -12 13.4 13.9
-12 -18 -14 1.4 10.2
-12 -14 18 -0.6 9.5
12 18 -14 7.4 10
-18 -14 -12 14.3 11.6
-14 12 18 7.2 9
18 -12 -14 6.5 12.7
-14 -12 -18 2 7.6
-14 -14 18 129.19 27.7
14 -18 -14 132.19 30.9
-14 -14 -18 130.79 26
-14 14 18 115.49 27.2
-14 18 14 138.69 28.3
-18 -14 -14 137.39 25.4
-18 -14 -14 165.68 29
-14 -18 -14 74.69 23.8
-14 -18 14 123.99 25.1
-14 -14 -18 171.78 31.3
-18 -14 14 77.09 24.7
14 18 -14 112.29 24.2
18 -14 -14 128.99 31.2
18 14 -14 116.89 23.9
-18 14 14 65.99 24.8
-14 -18 -14 133.89 26.4
14 14 -18 156.18 27.6
14 -14 -18 127.19 30
18 16 0 16.4 10.2
0 16 -18 17.3 10.3
0 16 18 6.6 9.6
-18 16 0 22.1 9.3
-18 -16 0 17.2 11
-16 0 -18 11.2 7.1
-18 0 -16 17.6 10.1
-18 0 -16 19 7.5
-16 -18 0 22.1 11.1
-16 18 0 16.5 9.4
0 18 -16 11.2 9.3
-16 0 -18 5.6 8.3
0 -16 -18 29.4 14.9
16 18 0 16.3 10.8
0 -18 -16 -1.7 8.6
0 -18 16 25 12.4
0 18 16 24 10.4
18 0 -16 14.5 10.2
0 -16 18 19.8 12.6
16 0 -18 25.3 12.6
-16 0 18 15.1 11.3
-18 -2 -16 158.28 28.9
-2 18 -16 143.99 27.6
-18 -16 2 166.88 29.1
-18 16 -2 143.19 25
-16 -18 -2 101.69 26.6
16 -2 -18 156.28 29.9
18 16 2 197.28 29.1
-16 2 -18 125.69 25.3
-16 2 -18 154.68 24.6
-2 -18 16 141.89 29.7
2 -16 18 123.79 27.7
-18 -2 -16 147.19 25.9
-18 2 16 155.88 30.2
-2 -16 -18 196.18 32.7
-16 18 2 124.19 27.3
2 16 -18 105.69 26.8
16 18 -2 106.99 26.5
18 2 -16 126.09 27.5
18 -2 -16 128.59 27.6
-16 -2 -18 143.49 29.4
-18 16 2 147.39 28.1
2 16 18 174.38 28.4
2 18 -16 124.99 28.4
-18 -16 -2 142.89 28.5
16 2 -18 143.09 30.1
-18 2 -16 169.68 24.1
-2 -18 -16 147.49 31
-16 -2 -18 118.29 25.3
-2 -16 18 170.08 31.1
-16 -18 2 162.68 29.2
-2 16 -18 158.48 27.9
2 -16 -18 88.79 27.6
-16 2 18 120.49 27.4
-2 18 16 168.68 29.7
-18 -2 16 142.49 29.8
2 -18 16 174.78 30.1
-16 4 -18 704.33 102.69
16 18 -4 752.12 106.59
-4 16 18 751.92 107.29
-16 -18 -4 756.72 106.59
-4 18 -16 719.73 105.49
-18 -4 -16 773.62 107.89
-16 4 -18 676.93 101.99
-16 18 4 640.54 107.09
4 16 -18 759.02 110.89
-18 -4 -16 715.93 105.59
4 18 16 635.34 105.89
4 -16 18 626.24 105.59
-4 -18 16 566.64 106.69
-16 -18 4 862.91 107.59
-16 4 18 872.71 109.59
-16 -4 -18 683.33 105.39
4 16 18 597.34 108.59
4 -16 -18 804.22 108.89
-4 16 -18 726.83 105.69
18 16 -4 569.04 105.29
4 -18 16 649.93 105.99
-18 -16 -4 734.63 106.99
-16 -4 -18 664.23 107.09
-4 18 16 809.02 108.19
-18 16 4 661.03 106.49
-4 -16 18 712.03 108.59
-6 18 -16 693.03 106.99
-18 -16 6 695.43 109.69
-6 16 18 699.33 109.69
6 -18 -16 732.73 110.69
-18 6 16 817.22 111.89
-18 -6 -16 792.32 109.59
-16 18 6 782.42 111.39
-16 -6 -18 806.32 109.89
-16 -18 6 557.74 108.19
-18 16 6 827.92 111.99
18 -6 -16 703.43 110.39
6 18 -16 624.34 109.09
-6 -16 18 676.03 110.59
6 16 18 737.53 110.19
-6 16 -18 796.32 107.99
-16 18 8 272.07 48.9
16 -8 -18 259.67 48.7
-16 -18 -8 207.68 45.3
-8 -18 16 191.88 46.7
8 16 -18 357.16 49.2
-18 -8 -16 360.26 50.79
-18 -8 -16 267.97 46.6
16 18 -8 336.57 47.6
-18 8 16 308.07 49.6
-16 -18 -8 228.38 47.4
-8 -16 -18 242.28 49.3
8 18 -16 321.47 48.5
-8 -16 18 339.97 50.79
18 16 -8 330.87 48.2
-8 -18 -16 369.26 48.7
8 -16 -18 249.08 48.9
18 -8 -16 220.08 47.2
-18 16 8 270.87 49.1
-16 8 18 219.68 46.8
16 -18 -8 330.27 51.09
-8 16 -18 269.67 44
-18 -16 -8 341.57 48.7
-16 -8 -18 293.97 47.3
-18 -8 16 274.67 48.1
-8 18 16 316.37 49
-10 -16 -18 88.79 18.9
-10 -16 -18 79.29 21
-10 -18 16 87.39 21.1
16 18 -10 86.49 17.8
10 -18 -16 92.79 21.8
-16 -18 -10 53.69 16.3
-16 -10 18 70.09 18.7
18 10 -16 40.1 16.8
-18 -10 -16 73.19 18.1
-18 10 16 99.39 23.1
-16 18 10 48.6 17.5
16 -10 -18 46.9 19
-18 -16 10 34 14.8
-18 -10 -16 55.79 18.2
-10 16 18 66.29 19.7
18 -16 -10 81.19 22.1
10 16 -18 95.19 19
-18 -16 -10 44 16.6
-18 -16 -10 56.89 18.4
18 -10 -16 80.69 21.1
16 -18 -10 86.69 23
-16 -18 10 29.9 15.2
-16 -10 -18 45.9 15.9
10 -16 -18 43.1 17.2
-10 -16 18 35.5 15.8
-16 -10 -18 43.6 18.2
-10 18 16 74.79 19.7
-18 -10 16 83.89 20.9
10 18 -16 112.09 20.8
16 10 -18 76.39 20.2
-10 -18 -16 62.99 17.3
18 16 -10 81.59 19.5
-18 16 10 77.79 21.1
-10 -18 -16 48 17.4
-16 10 18 84.39 21.9
12 -18 -16 101.29 27.3
-16 -18 -12 116.09 24.1
12 16 -18 158.58 26.8
18 12 -16 77.89 21.4
18 -16 -12 129.59 29.1
-12 -16 -18 95.09 22.7
16 -12 -18 127.39 28.9
-16 18 12 97.09 25.8
-18 -12 -16 104.19 26
-18 -12 -16 105.09 23.5
-12 -16 -18 116.19 27.4
-16 -18 -12 66.39 21.6
16 18 -12 105.19 23.6
-12 16 18 129.09 26.7
-18 12 16 88.19 25
-18 -16 12 99.29 22.1
-12 -18 16 91.89 24.7
-18 -16 -12 103.69 23.6
-18 16 12 110.09 26
18 16 -12 58.09 20.7
-12 -18 -16 120.69 23.9
-18 -16 -12 119.09 25.6
-12 18 16 135.69 26.4
-12 -16 18 150.68 25.8
-12 -18 -16 95.89 25.5
12 -16 -18 110.59 25
-16 -12 -18 59.09 23.6
18 -12 -16 128.89 28
16 12 -18 138.69 23.8
-18 -12 16 95.69 22.8
-16 -18 12 127.99 23.9
-16 -12 -18 90.79 22.1
12 18 -16 141.39 25.3
16 -18 -12 113.99 28.4
18 14 -16 297.77 54.79
14 16 -18 295.37 55.49
18 -16 -14 291.87 57.69
-18 -16 14 406.26 57.19
-14 16 18 304.57 57.09
14 -18 -16 351.96 59.49
16 -14 -18 354.96 58.59
-18 -14 -16 317.67 55.79
-16 18 14 418.66 59.89
-18 14 16 434.26 59.79
-16 -18 -14 286.77 56.19
-14 -16 -18 275.47 54.79
-18 -14 -16 431.86 60.19
-14 -18 16 391.26 58.29
18 16 -14 262.97 53.79
14 -16 -18 423.36 59.09
14 18 -16 363.86 55.79
-14 18 16 406.76 58.39
-14 -18 -16 355.76 57.59
-16 -18 14 413.26 57.19
18 -14 -16 281.17 57.49
16 14 -18 271.97 58.89
-14 -16 18 368.56 57.89
-18 16 14 394.06 59.19
-16 -14 -18 274.27 57.09
16 -18 -14 306.97 57.19
-16 14 18 326.97 57.89
-16 18 16 432.66 69.79
-16 -16 18 347.57 54.49
-16 16 18 300.47 54.79
-16 -18 16 284.77 54.09
-16 -18 -16 381.26 57.09
-16 -18 -16 344.27 54.49
-18 -16 -16 318.77 54.09
16 18 -16 260.07 52.49
0 -18 18 8.1 11
0 18 -18 7.2 9.4
0 18 18 10.1 7.5
18 0 -18 9.3 11.4
18 18 0 0.7 8.5
-18 0 -18 10.3 11.7
-18 0 18 2.7 10.2
-18 18 0 -2 6.7
0 -18 -18 7.3 12.4
-18 -18 0 2.1 8.4
-2 -18 -18 47.1 16.9
-2 -18 18 31.3 14.9
-2 18 -18 37.6 13
-2 18 18 7.3 10.3
2 -18 -18 50.49 17.7
2 -18 18 45.4 15.4
2 18 -18 40.7 14.1
2 18 18 12.5 9.1
18 -2 -18 29.4 14.2
18 2 -18 32.4 13.9
18 18 -2 30.9 12.5
-18 2 -18 25 7.9
-18 2 18 23.5 15.2
-18 18 2 37.5 12.5
-18 -18 -2 14.9 9.6
-18 -18 2 37.3 12.8
-18 -2 -18 16.5 11.9
-18 -2 -18 26.1 10.7
-18 -2 18 25.7 13.7
-18 2 -18 20.8 8.9
-4 18 -18 279.37 49.8
-4 18 18 304.47 51.19
4 -18 18 248.88 50.39
-18 -18 -4 355.16 52.19
-18 -18 4 352.76 51.79
-18 -4 -18 306.97 52.59
-18 -4 -18 270.07 49.3
18 18 -4 296.97 50.69
-18 -4 18 347.17 52.99
-18 4 18 375.16 53.29
-18 18 4 331.47 52.29
-4 -18 -18 335.47 53.79
-4 -18 18 252.37 51.89
18 -6 -18 308.37 49.9
6 -18 -18 240.68 49.4
6 18 -18 256.47 48.2
-6 18 -18 292.87 46.6
-6 18 18 298.57 49.2
-18 6 18 253.67 49.5
-18 18 6 337.17 50.29
-6 -18 18 275.67 50.29
-18 -18 6 351.76 49.8
-18 -6 -18 371.36 49.3
18 18 -6 202.48 46.2
-18 -18 8 54.79 16.8
-18 -8 -18 29.5 15.1
-18 -8 -18 64.09 16.9
-18 -8 18 49.8 16.2
-18 8 18 27.7 14.7
-18 -18 -8 45.7 16.2
-18 -18 -8 68.69 16.8
18 -8 -18 46.3 17.8
18 8 -18 55.19 17.1
18 18 -8 28.6 12.5
8 18 -18 62.69 18
-18 18 8 31.3 15
-8 -18 -18 68.49 20.7
-8 -18 18 36.5 23
-8 18 18 35.9 14.2
8 -18 -18 41.3 17.8
10 18 -18 12 10.6
-10 -18 -18 4.2 8.8
-10 -18 18 -0.1 9.5
-10 18 18 5.9 8
10 -18 -18 -3.6 12.4
-18 -18 -10 14.6 11.7
-18 -18 -10 10.1 7.7
-18 -18 10 18.1 10.6
-18 -10 -18 6.3 11.4
-18 -10 -18 6.3 8.4
-18 -10 18 3.1 10
-18 10 18 7.9 9.7
-18 18 10 9.2 10.1
-10 -18 -18 4.2 11.6
18 18 -10 14.3 10.7
18 10 -18 11.7 10.8
18 -10 -18 11.7 13.3
18 -18 -10 -4.9 11.8
-12 -18 -18 18.4 10.6
-12 -18 -18 32.5 15.8
-18 18 12 26.9 14.3
-18 12 18 26.5 14.9
-18 -12 18 22.5 13.3
-18 -18 -12 40.8 14.6
-18 -18 -12 23.2 12.1
-18 -18 12 27 13
-18 -12 -18 23.7 13.9
-18 -12 -18 12 10.5
18 18 -12 29.9 12.1
-12 -18 18 44.8 17
-12 18 18 19.7 11
12 -18 -18 23.8 15.4
12 18 -18 18.3 11.1
18 -18 -12 26.1 16.5
18 -12 -18 23.8 15
18 12 -18 33.6 13.7
18 -18 -14 204.38 41.9
-18 -18 -14 225.08 37.7
-18 -14 -18 173.48 37.3
-18 -14 18 237.88 40.2
-18 14 18 150.98 38.3
-18 18 14 221.88 40.5
14 -18 -18 231.98 42.9
-14 18 18 151.88 37.4
18 -14 -18 224.18 41.6
18 14 -18 230.18 38.3
-14 -18 -18 205.88 37.7
-14 -18 18 256.97 41
-18 18 16 210.38 50.79
-18 -16 -18 297.37 51.39
-18 -16 18 349.67 53.19
-16 -18 18 352.86 53.49
-16 18 18 294.57 52.79
18 -18 -16 295.37 54.19
18 -16 -18 252.77 53.19
18 18 -16 375.56 52.09
-18 -18 -16 232.38 49.1
-16 -18 -18 368.86 53.79
-16 -18 -18 318.97 51.19
18 18 -18 62.99 20.6
-18 -18 -18 139.49 26.8
18 -18 -18 102.29 29
-18 18 18 121.39 26.5
-18 -18 -18 85.49 23.6
-18 -18 18 102.29 29.1
1 -19 -1 535.65 89.09
1 -1 19 635.94 90.29
1 1 19 727.43 91.89
19 -1 -1 583.84 88.59
19 1 -1 564.24 88.69
19 1 1 659.83 88.89
-19 -1 -1 561.94 88.69
-19 -1 1 635.04 89.99
-19 1 -1 683.03 89.49
-19 1 1 546.35 88.89
-1 -19 -1 449.86 88.89
-1 -19 -1 577.54 88.69
-1 -19 1 516.15 88.99
-1 -19 1 492.45 88.29
-1 -1 19 661.73 90.49
1 -19 1 659.83 89.79
1 -19 1 612.94 90.49
1 -19 -1 565.84 88.79
1 -19 -3 13.2 10.9
-19 -1 -3 2.3 7.3
19 1 -3 15.5 9.7
1 3 -19 17.8 10.4
-1 -3 -19 10 10.5
-19 3 -1 13 9.5
-3 -1 19 14.9 10
19 -3 -1 16.3 8.2
19 3 1 16.6 9
-1 -19 3 11.5 10.2
-19 -3 1 14.6 8.9
-3 -19 -1 12.4 8.7
3 1 19 11.1 9.3
-3 -19 -1 18.4 9.8
-1 -19 3 15.5 9.3
3 -19 1 16.6 9.3
1 -19 -3 14.8 9.3
-1 3 19 13.6 11
1 -3 19 7.1 9.8
3 -19 1 8.5 10
-19 1 3 23.4 11.5
-3 1 -19 10 9.6
3 -1 -19 29.9 10.8
3 -19 -1 12.6 8.8
3 -1 19 9.1 10
-1 -19 -3 15.2 9.3
-19 1 -3 11.1 8.1
-3 -1 -19 16.5 11
-3 -19 1 19.9 9.6
-3 -19 1 9.1 7.2
1 -3 -19 11 8.8
-1 -19 -3 8.4 8.6
1 3 19 20.1 10.9
3 -19 -1 13.6 10.7
-19 3 1 9.5 10.1
-3 1 19 9.1 8.6
-1 -3 19 7.5 10.2
19 -1 -3 15.1 9.5
-19 -3 -1 21.8 10.2
-19 -1 3 6.4 9.3
-1 3 -19 15.8 10.8
3 1 -19 3.3 8.8
1 -19 3 6.3 7.8
19 1 3 8.4 6.4
19 3 -1 7.5 8.3
1 -19 3 18.6 10.6
3 -19 -3 8.2 9.9
19 3 3 8.3 7.6
-19 -3 3 1.7 7.8
-19 3 -3 0.8 6.7
3 -19 -3 9.3 6.4
3 -19 3 8.9 9.5
-3 3 -19 -3.2 7.7
-3 3 19 4.7 8.4
3 -3 -19 -1.9 9.7
3 -3 19 8 9.2
3 3 -19 4.3 9.3
3 3 19 2.4 9
-3 -19 -3 15.5 9.1
-3 -19 -3 0.8 5.7
19 -3 -3 13.6 8
19 3 -3 -3.8 5
-3 -3 -19 7.9 10.1
-3 -3 19 7.2 9.7
-19 -3 -3 10.6 8.2
-3 -19 3 4.3 8.9
3 -19 3 10.7 8.1
-19 3 3 -4.6 7.7
-3 -19 3 7.1 8.4
19 5 1 69.19 16.8
5 -1 -19 40.1 15.2
1 -19 -5 71.99 16.6
5 -19 1 66.19 15.8
-19 -5 1 77.99 17.6
-5 -19 -1 54.59 16.2
5 -19 1 69.79 17.8
-1 -19 5 45.5 14.4
1 -19 -5 46.6 16.8
-5 -1 19 31.1 14.9
1 -5 19 51.09 16.9
5 1 19 65.29 17.4
-19 -1 -5 66.39 15.2
-5 1 -19 83.09 18.8
-19 1 5 60.89 17.5
-5 -19 -1 34.6 15
1 5 -19 102.79 19.1
-1 5 19 35.4 14.3
19 1 -5 64.19 17
-19 5 -1 54.19 15.3
-1 -5 -19 73.99 18.8
-1 -19 5 51.99 16.5
5 -19 -1 60.99 16.9
5 -1 19 57.69 17
1 -19 5 69.59 17
-19 1 -5 59.99 14.6
-1 5 -19 100.09 18.3
-1 -19 -5 84.29 15.7
1 5 19 71.59 18.4
-19 -1 5 80.49 19.3
-5 -19 1 64.09 17
19 5 -1 54.29 15.6
-5 -19 1 48.2 14.7
-1 -5 19 66.19 18.4
-19 5 1 75.69 19.8
-5 -1 -19 100.79 19.6
1 -5 -19 47 16.7
-5 1 19 24.2 15.8
-1 -19 -5 70.39 18.4
-19 -5 -1 102.59 18.6
5 -19 -1 73.89 16.4
19 -1 -5 47.5 15.8
1 -19 5 47.9 14.8
5 -3 -19 127.99 24.7
-5 3 -19 137.39 25.2
-3 5 19 159.48 26.7
-19 -3 -5 123.39 23.6
-5 -3 19 69.09 24.2
3 -19 -5 97.39 25.5
-19 3 5 102.09 26
5 -19 3 111.59 23.7
5 -19 3 145.99 24.6
3 5 -19 73.09 22.4
5 3 19 156.08 26.6
19 -5 -3 105.29 23.5
-19 -5 3 181.98 26.1
19 5 3 110.79 24.3
-3 -5 -19 186.68 28.2
19 3 -5 97.49 22.7
3 -5 19 102.89 24.4
-5 -19 -3 128.29 26.1
-3 -19 5 84.39 22
-19 5 -3 140.19 23.3
-5 -19 3 76.89 21.9
5 3 -19 164.28 26.6
-3 -19 -5 91.19 23.5
-19 -3 5 130.09 25.8
5 -19 -3 134.09 24.5
3 -19 5 135.89 23.9
3 -5 -19 176.48 28
3 -19 5 111.79 24
-3 -5 19 152.68 25.5
-3 5 -19 160.98 25.3
-3 -19 -5 71.09 23.7
-19 3 -5 125.89 22.9
3 5 19 162.38 26
5 -19 -3 128.39 26.4
5 -3 19 115.09 25.2
19 5 -3 125.19 24.4
19 -3 -5 139.69 25.3
-19 -5 -3 161.58 25.5
-19 5 3 109.29 24.7
-5 -3 -19 173.58 27.4
-19 5 5 336.87 54.19
-5 19 5 395.86 54.69
5 -19 -5 276.27 52.89
19 5 5 309.87 52.29
-19 -5 -5 300.27 52.29
-19 -5 5 360.36 54.09
-19 5 -5 345.17 50.69
5 5 -19 384.16 54.69
19 -5 -5 348.37 53.59
5 5 19 287.37 52.99
5 -5 -19 304.07 53.79
-5 -19 -5 392.76 53.49
-5 -19 5 411.16 53.89
-5 -5 19 267.67 52.79
-5 5 -19 389.86 53.89
5 -5 19 248.28 52.29
5 -19 5 311.67 51.89
-19 -1 -7 22.8 9.4
-7 -19 -1 26.2 10.2
-7 -1 19 34.9 12.7
-19 1 7 40.8 14.5
-7 -19 -1 39.2 13.5
-1 7 19 38.9 12.7
-19 7 -1 29.2 10.7
7 -1 -19 40.3 14
-19 -7 1 42.9 13.6
-19 -1 -7 32 10.9
7 1 19 30.5 12.2
7 -19 1 16.7 11.8
7 -19 1 35.8 12.6
1 -7 19 30 13
19 1 -7 36 13.1
-1 -7 -19 36.4 15
-1 -19 7 25.2 11.4
19 7 1 30.6 11.1
1 -19 -7 34.7 14.1
1 7 -19 26.1 11.8
7 -19 -1 28.4 11.1
-1 -19 -7 23.2 13
7 1 -19 16.8 13.7
-19 1 -7 34.5 10.1
1 -19 7 39.5 12.8
-7 1 19 34.3 14.4
-1 -19 -7 16.5 10
-19 7 1 22.2 11.3
7 -1 19 40.3 13.3
7 -19 -1 52.39 15.1
19 7 -1 26.5 10.6
-19 -7 -1 26.6 11.9
-7 -1 -19 37.1 13
-19 -1 7 17.7 12.3
-19 1 -7 30.7 9.6
1 7 19 16.1 11.7
1 19 -7 34.6 11.8
1 -7 -19 32.3 12.3
19 -1 -7 28.9 12.1
-1 -7 19 22.7 12.3
-1 7 -19 22.4 11
1 -19 7 19 11.2
3 -19 -7 24.3 13.3
-3 7 19 15.8 9.8
-19 3 7 14.7 11.1
7 -19 3 -3.1 5.3
7 -19 3 12.6 8.4
19 3 -7 6.2 9.5
-7 3 -19 14 10.1
3 -7 19 14.6 11
3 7 -19 13.5 10.4
7 -3 -19 9.2 10.6
7 3 19 15.8 10
19 -7 -3 -3.1 5.3
-19 -3 -7 12.4 8.2
-3 -7 -19 26.1 11
-7 -3 19 8.3 10.1
-3 -19 7 5.4 8.9
-19 -7 3 21.9 10.3
-19 7 -3 19.9 8
-7 -19 -3 6.2 6.8
-19 -3 -7 7.1 7.5
7 19 -3 6.9 8.9
19 7 3 15.9 9.6
-7 -19 -3 21.9 11.7
-19 -3 7 23.8 11.5
3 -19 7 14.6 9.3
-3 -7 19 10.9 10.8
-3 -19 -7 15.5 11.5
3 -7 -19 31.1 13.5
7 -3 19 24.2 10.3
-19 7 3 7.6 8.8
-7 -3 -19 14.7 11.1
-3 -19 -7 14.9 9
-3 19 7 19 10.3
-19 -7 -3 11.2 7.5
3 -19 7 -4.1 6.5
-19 3 -7 10.7 5.9
-7 3 19 11.1 11.3
19 -3 -7 23.1 11.5
3 19 -7 20.2 9.6
7 -19 -3 0.9 10
3 7 19 19.4 9.4
-19 3 -7 11.5 6.5
-7 -19 3 16.5 9.6
19 7 -3 8.8 9.3
7 3 -19 9.9 8.5
-5 -7 -19 196.08 33.8
-19 -7 5 177.38 32
5 -7 19 189.38 31.3
19 5 -7 153.08 30.9
7 -19 5 167.28 29
7 5 19 150.08 30.7
19 7 5 208.48 31.3
-7 -5 19 133.79 31.6
-19 -5 -7 163.18 30.7
-19 -5 -7 130.49 29
-7 19 5 158.48 31
5 -19 -7 142.59 32.6
-19 5 7 164.08 31.9
-5 -19 7 159.98 30.9
-7 5 -19 173.78 30.4
-19 7 -5 167.28 26.7
5 7 19 244.58 34
-5 7 -19 176.48 30
-7 -5 -19 202.68 33.1
-5 -19 -7 110.59 29
7 -19 -5 228.68 34.4
-19 7 5 159.38 32.3
-19 -5 7 99.09 30.2
-19 5 -7 149.09 26
-19 5 -7 171.48 26.6
19 7 -5 131.59 29.9
5 -19 7 198.38 30.5
5 19 -7 185.08 30
7 -5 19 220.18 31.4
7 5 -19 233.58 33.2
-19 -7 -5 205.58 32
-5 -7 19 120.29 31.1
19 -5 -7 194.68 32.1
-7 -7 19 16.2 12.6
-19 -7 -7 24.3 11
-19 -7 -7 48.6 13.9
-19 -7 7 55.79 14.8
-19 7 7 40.1 15.1
-7 -7 -19 30.1 14.9
7 -19 7 49.7 12
-7 -19 7 37.6 12.7
7 -19 -7 55.29 17
-7 7 -19 43 11.9
-7 7 19 49.9 16.3
-7 19 7 36.6 13.4
7 -7 -19 22.5 11.9
7 7 -19 20.6 12.4
7 7 19 23.1 12.7
7 19 -7 25.5 11
19 -7 -7 37.5 13.6
19 7 -7 38.2 13.4
-7 -19 -7 50.09 13.4
-7 -19 -7 8.3 9.6
9 -19 1 100.69 19.9
-9 1 -19 95.19 21.4
9 1 19 76.69 20.1
19 9 1 94.09 19.2
-19 -1 -9 85.79 18.4
-19 -1 -9 96.79 18.3
-19 1 9 55.49 20.1
-9 -19 -1 97.29 19.4
-1 -9 -19 106.49 21.6
-19 9 -1 96.89 19.3
-9 -1 19 105.99 21.4
1 -9 19 106.59 22.1
1 9 -19 85.09 20.7
-1 -19 9 64.69 19
-1 19 -9 63.39 18.8
1 -19 -9 98.79 21.5
-19 -9 1 66.69 19.8
19 1 -9 72.39 18.9
1 19 -9 124.89 20.7
-19 1 -9 100.99 18.1
19 9 -1 68.49 19.8
-19 -9 -1 62.99 19.6
1 -19 9 109.19 20.7
1 -9 -19 123.69 24.3
19 -1 -9 81.49 21.4
9 -1 19 90.59 20.3
9 1 -19 135.79 23.2
-19 1 -9 79.69 18.1
-19 9 1 92.59 20.2
-9 -1 -19 117.39 22.9
-19 -1 9 99.49 20.8
-1 9 -19 103.39 20.9
-1 -19 -9 83.79 22
-9 1 19 64.39 21.1
9 -19 -1 106.79 20.3
-1 19 9 95.29 21.1
-1 -9 19 115.69 24.1
-9 -19 1 69.59 18.2
-9 -19 -3 -1.9 7.2
-3 -19 9 -4.4 7.1
19 -9 -3 -0.8 4
-19 -3 -9 7.1 6.9
-3 9 19 8.6 10.2
3 -19 -9 5.9 11.6
-19 -9 3 0.3 8.4
-19 -3 -9 -1.4 6.1
9 3 19 8.5 9.4
9 -3 -19 -1.5 9.7
3 -9 19 -10.1 7.6
-19 9 -3 -0.4 5.2
-3 -9 -19 7.2 11.3
-9 3 -19 1.3 7.6
-19 3 9 -10.6 8
-9 -19 -3 1.5 6.5
3 9 -19 -2.2 7.3
-9 19 3 0 7.5
9 -19 3 1.8 6.6
-9 -3 19 -7.1 9.2
9 19 -3 0.4 7.4
19 3 -9 1.3 8.6
19 9 3 3.7 6.5
-3 -9 19 -1.1 8.9
3 19 -9 -7.3 6.6
3 -19 9 -2.2 5
-9 -19 3 -2.4 5.5
-3 9 -19 5.3 7.6
3 -9 -19 -2.4 7.1
3 9 19 -9.2 4.5
9 -19 -3 -1.1 9.4
19 -3 -9 -3.4 8.1
9 -3 19 1.7 6
-19 -3 9 3.4 7.8
-19 3 -9 0.5 4.6
3 -19 9 4.5 7.7
-19 3 -9 -3.8 3.8
-19 -9 -3 0.7 7.6
-19 9 3 -1.3 7.8
-9 -3 -19 5.6 9.4
-9 3 19 5.7 10.4
-3 -19 -9 1.4 7.7
-3 -19 -9 -5.4 6.2
-3 19 9 -2.7 8
19 9 -3 -2.9 7.9
9 3 -19 -6.3 8.9
-9 -5 19 69.39 17.2
-19 9 -5 55.09 9.3
-19 5 9 42.9 14.7
-19 -5 -9 44.7 13.6
9 19 -5 86.49 22.8
19 5 -9 47.8 14.7
-19 -5 -9 38.1 13.8
5 -19 -9 40.2 16.3
9 5 19 74.29 17.3
-9 19 5 64.49 16.9
-9 5 -19 56.29 14.5
-19 -9 5 22.4 12.8
-9 -19 -5 63.69 16.1
9 -5 -19 63.99 18.1
-5 -9 -19 42.1 17.2
5 -9 19 61.89 16.2
5 9 -19 58.09 16.2
-9 -19 -5 36.4 13.6
-5 -19 9 55.19 15.7
-9 5 19 69.29 17.5
-5 -19 -9 82.69 19.6
-5 -19 -9 31.8 13
19 -5 -9 73.09 17.6
-5 -9 19 50.29 17.1
-5 9 -19 59.99 14.6
9 -19 -5 64.99 18.4
19 9 -5 65.39 15.5
-5 19 9 30.8 13.9
-19 -5 9 17.1 13.6
-19 9 5 84.49 18
-9 -5 -19 87.89 19.5
5 -9 -19 36.6 16.1
-19 -9 -5 50.89 15.2
5 9 19 49 15.4
5 -19 9 49.5 13.5
5 19 -9 76.49 15.6
-9 -19 5 34.3 14.1
9 5 -19 22 12.3
-19 7 9 1.3 10.3
-9 -7 19 0.7 6.9
7 -19 -9 6.3 11.2
-19 -9 7 8.6 7.3
-9 -19 -7 7.6 8.3
-7 -19 9 3.1 8.1
9 19 -7 2.5 8.1
9 -7 -19 -1 10.8
19 7 -9 4.5 8.8
9 7 19 -5.6 7.8
19 -9 -7 4.6 9.2
-9 -19 -7 3 9.7
-19 -7 -9 -3.6 7.8
-9 19 7 3.3 7.6
-7 -9 -19 -2.2 9.7
-9 7 -19 2.2 5.5
-7 9 19 0.4 9.1
7 9 -19 0.3 8.5
-19 -7 -9 -5.1 5.8
7 -9 -19 -3.6 9.9
19 -7 -9 -0.5 8.3
-19 9 7 -2 11.1
-7 -9 19 10.8 11.2
-9 -19 7 3 8.2
-19 -9 -7 3.5 8
-7 -19 -9 -2.7 8.9
-7 -19 -9 9.9 8.4
-19 -7 9 0.5 9.2
-19 -9 -7 -3.3 6.4
7 -19 9 2.6 5.1
7 9 19 0.7 8.3
-9 -7 -19 -4.9 6.3
-9 7 19 3.5 8
7 19 -9 5.9 8.2
9 7 -19 0.1 9.2
19 9 -7 0 6.2
-7 9 -19 4.4 6
9 -19 -7 -2.9 10.7
-7 19 9 5.6 8.5
-19 -9 -9 196.78 31.5
19 9 -9 104.79 29.8
-19 -9 -9 148.89 29.8
-9 -9 -19 203.88 34.8
-9 -9 19 135.19 32.3
-9 9 -19 175.48 28.1
-19 -9 9 201.28 31.7
-9 19 9 188.18 32.8
-19 9 9 173.28 33.2
9 19 -9 134.89 30.2
19 -9 -9 150.58 31.8
-9 -19 9 204.28 31.7
9 -19 -9 158.98 34.1
9 -9 -19 153.18 31.1
9 9 19 207.28 33
-9 -19 -9 168.38 30
-1 11 19 266.97 39
1 -19 -11 245.08 38
-19 1 11 137.19 36
11 -19 1 184.78 34
-19 11 -1 169.38 33.5
19 1 -11 262.27 38.5
11 -1 -19 193.68 37.3
-19 -1 -11 236.78 34.8
1 -11 19 220.08 37.2
-19 -1 -11 219.58 34.8
11 1 19 218.38 36
1 11 -19 155.18 35
-1 19 -11 220.68 35.1
-11 -19 -1 224.58 36.9
-11 -19 -1 262.57 37.3
-11 1 -19 169.78 35
-11 -1 19 263.27 38.7
19 11 1 137.69 33.8
-1 -19 -11 241.58 37.7
19 -1 -11 216.28 36.6
19 11 -1 178.68 36
-11 1 19 185.38 37.1
-19 11 1 207.38 35.4
-11 -1 -19 185.68 35.7
11 -1 19 276.17 36.5
1 19 -11 172.38 35
-19 1 -11 214.78 33.3
-1 19 11 243.48 36.1
-19 -1 11 139.09 35.7
-19 1 -11 213.98 34.1
-1 -11 19 209.08 37.6
1 -19 11 229.38 36.7
-11 -19 1 182.98 34.7
-3 -19 11 58.59 16.2
-3 11 19 60.59 16.3
3 11 -19 55.19 16.1
-11 -19 -3 61.69 15.3
-11 3 -19 59.89 14.4
19 3 -11 45.1 15.6
-11 -19 -3 75.39 15.8
11 -3 -19 52.89 15.9
-19 3 11 39 15.1
3 -11 19 57.19 16.4
-11 19 3 49 15
-11 -3 19 54.29 16.1
3 -19 -11 63.89 18.2
-19 -11 3 42.4 15.2
-3 -11 -19 17.7 15.6
-19 -3 -11 59.49 15.4
-19 -3 -11 54.79 14.1
11 19 -3 30.5 12.2
19 11 3 58.59 15.7
-19 11 -3 49.8 12
11 3 19 56.19 15.9
-19 3 -11 64.49 11.7
3 11 19 23.6 14
-19 -11 -3 63.99 17.5
19 -3 -11 40.5 15.9
3 -11 -19 24.5 13.2
3 19 -11 64.79 16.6
-11 -19 3 36.5 14.3
-3 19 11 66.59 17
-19 -3 11 61.99 17.6
11 3 -19 75.99 16.5
-19 3 -11 56.79 10.7
-19 11 3 57.59 16.4
-3 -19 -11 27.3 15.1
19 11 -3 38.9 13.7
-11 -3 -19 46.6 16.7
-3 -11 19 57.19 17.9
-11 3 19 40.4 16.1
3 -19 11 58.49 15.8
-3 11 -19 48.1 14.8
-19 5 11 10.5 11.4
-11 -5 19 18.4 10.3
-19 -5 -11 10.6 8.6
-5 -19 11 15.5 10.1
11 5 19 9.2 9.2
5 -11 19 4.2 7
5 11 -19 17.9 11.2
11 -5 -19 0.1 8
19 5 -11 6.2 8.1
-11 -19 -5 5.6 6.6
-11 -19 -5 6.1 9.3
-5 -11 -19 17.9 11.9
-19 -5 -11 15.4 8.3
-19 -11 5 -1.1 8.7
-5 11 19 18.6 11
-11 5 -19 12.3 7.5
19 -11 -5 5.1 7
5 -19 -11 3.9 12
11 19 -5 2.9 6.4
-5 -19 -11 11.5 8.9
19 11 -5 4.2 8.4
5 19 -11 19.9 10.8
-11 5 19 1.8 7.7
-5 -19 -11 0.8 7.4
5 -11 -19 5.3 11.5
5 11 19 -4.6 7.9
-19 11 5 4.3 9.4
-11 -5 -19 6 10.4
-5 19 11 4.4 8.4
-11 -19 5 2.7 8.6
11 5 -19 9.2 8.6
-5 -11 19 -4.3 10.1
-5 11 -19 15.7 8.9
-19 -5 11 17.2 9.9
11 -19 -5 11.1 12.1
19 -5 -11 11.4 11.4
5 -19 11 7.5 8
-19 -11 -5 10.6 9.4
11 -7 -19 92.29 27
19 7 -11 90.89 26
-11 7 -19 150.08 23
-11 -7 19 202.08 29.3
-19 -7 -11 161.08 26.8
-19 7 11 112.99 28.2
-11 -19 -7 160.58 28.7
11 7 19 185.78 29.1
19 -11 -7 110.29 27
-11 19 7 124.99 27.2
-7 -11 -19 221.18 32.6
7 11 -19 104.29 26.5
-11 -19 -7 155.38 26.7
-7 -19 11 109.49 26.6
-7 11 19 139.59 26.9
-19 -7 -11 200.98 29.1
7 -19 -11 177.28 31.4
11 19 -7 96.89 24.9
19 -7 -11 132.49 28
7 19 -11 78.99 24.9
-7 11 -19 150.68 24.4
-11 -7 -19 141.79 29.3
-19 11 7 169.98 29.9
11 7 -19 77.29 24.1
-19 -7 11 121.59 27
7 -11 -19 99.69 27.8
-7 -19 -11 181.88 27.2
-11 -19 7 144.49 27.1
-7 -11 19 88.29 26.9
-11 7 19 72.99 25.1
-19 -11 -7 83.49 24.7
-19 -11 -7 164.38 27.7
-7 -19 -11 210.78 30.7
-7 19 11 167.08 28.6
19 11 -7 178.88 27
7 11 19 117.29 25.5
11 -19 -7 156.78 30.5
19 -11 -9 297.27 46.3
-19 -9 -11 166.18 41.7
-9 -19 11 208.48 42.6
11 9 19 323.87 46.1
-19 -9 -11 324.67 43.8
-19 9 11 230.88 44.1
-11 -19 -9 185.98 41.3
11 -9 -19 171.18 41.5
19 9 -11 332.47 44.7
-9 -11 -19 281.07 46.3
9 -19 -11 272.27 45.9
-9 11 19 296.07 45.7
-11 9 -19 295.47 38.5
-9 -19 -11 257.87 42
11 9 -19 301.07 43.4
9 -11 -19 191.38 42.1
9 11 19 220.78 42.9
-9 -19 -11 185.88 41.4
9 19 -11 319.07 44.4
-9 19 11 221.38 43.3
-9 -11 19 273.97 44
-19 -9 11 341.87 44.9
-11 -19 9 253.57 43.5
-11 9 19 194.98 43.3
19 -9 -11 322.17 46.3
19 11 -9 211.58 41.9
-19 -11 -9 235.88 42.6
19 11 -11 616.04 78.69
-11 -19 11 607.14 79.99
-11 19 11 376.46 76.49
-19 -11 -11 496.95 77.39
-19 -11 11 543.15 78.39
-19 11 11 493.45 79.69
-11 -19 -11 524.15 78.39
-11 -11 19 381.36 77.39
11 -19 -11 442.86 79.19
19 -11 -11 504.45 82.49
-19 -11 -11 481.45 87.89
11 19 -11 540.55 77.59
1 -19 -13 99.69 22.8
-1 19 -13 60.19 16.2
-13 -19 -1 69.79 16.1
-13 19 1 58.39 16.4
-1 -13 -19 47.1 19
-1 13 19 30 15.2
-13 -1 19 29.1 13.8
1 -13 19 61.69 17.9
-19 1 13 92.19 18.7
-13 -19 -1 53.89 15.5
-19 -13 1 77.29 16.6
1 13 -19 39.5 15.5
13 -1 -19 62.79 17.9
-19 -1 -13 76.29 14.9
-19 -1 -13 70.09 16.2
-1 -19 13 74.49 18.4
19 1 -13 74.59 19.6
1 19 13 76.99 16.4
19 13 1 52.09 16.2
-13 1 -19 55.59 15.7
-19 13 -1 61.19 14.5
-1 19 13 77.89 18.9
1 -13 -19 24.4 14.1
13 1 -19 39.5 14.9
-13 -19 1 61.89 16
-1 13 -19 74.99 17.3
-19 1 -13 74.79 15.6
19 -1 -13 42.3 16.5
-19 -13 -1 45 15
-19 13 1 53.79 15.5
-13 -1 -19 59.89 17
-13 1 19 74.09 19.4
-1 -19 -13 41.1 15.8
-19 -1 13 73.09 19.4
-19 1 -13 82.89 14
1 -19 13 76.49 18.5
1 19 -13 71.79 17.9
19 13 -1 47.5 15.5
-1 -13 19 58.09 18.4
1 13 19 31.5 14.9
3 19 13 1.7 7.5
-19 -13 3 10.4 9.1
-19 13 -3 -1.1 4.3
-19 3 13 5.6 9.9
-13 -19 -3 -2.8 8
-13 -19 -3 -2.6 6.5
-13 19 3 -3.7 7
-3 -13 -19 1.5 11.1
-13 -3 19 3.7 8
3 -19 -13 -5.6 10.4
13 19 -3 5.2 6.4
-13 3 -19 12.6 7.5
-19 -3 -13 -2.8 7.7
3 13 -19 1.9 8.6
19 3 -13 5.5 9
13 -3 -19 2.8 11.2
-19 -3 -13 2.8 6
19 13 3 4.9 8.6
-3 13 19 0.3 6.6
3 -13 19 0 8.5
-3 19 -13 2.8 6.3
-3 -13 19 3.7 10.3
13 3 -19 -1.2 8.9
-3 19 13 -10.7 6.7
19 -3 -13 -2 6.5
-19 -3 13 0 6.8
-19 -13 -3 -0.8 6
-3 13 -19 -2.6 5.7
-19 3 -13 3.4 4.2
3 -13 -19 0.9 10.9
-13 -3 -19 1.2 8.6
-13 3 19 2.8 8
3 -19 13 -0.2 8.3
-19 13 3 -4.6 7.1
13 -19 -3 2.7 8.8
-13 -19 3 -3.3 7.6
-19 3 -13 5.8 4
19 13 -3 2.7 9.2
3 19 -13 -2.6 6.4
-3 -19 -13 6.3 12
3 13 19 7.5 9.6
5 13 -19 6.3 9.2
-13 -5 19 14.2 9.6
13 19 -5 23 9.8
-13 -19 -5 18.9 11
-13 19 5 16 10.9
-5 -19 13 27.2 12.8
19 -13 -5 3.3 6.9
-5 -13 -19 14.1 13.6
19 5 -13 26.2 11.1
-19 5 13 19.1 12.8
-13 -19 -5 7.4 7.8
-13 5 -19 14.1 6.3
-5 13 19 15.5 9.7
-19 -5 -13 18.4 9.5
5 -13 19 -0.9 5.8
-19 -5 -13 6.9 9.7
13 -5 -19 23.2 12.9
5 -19 -13 6.9 11.6
-19 -13 -5 8.2 9.5
-19 13 5 14.6 10.4
-13 -5 -19 21.5 12.4
5 13 19 8.6 9.9
19 13 -5 35.4 13.4
5 19 -13 9.6 9.8
5 -19 13 1.9 5.4
5 -13 -19 14.6 10.1
19 -5 -13 25.4 12.6
-5 -19 -13 1.1 10.8
-5 -19 -13 14.6 8.3
13 -19 -5 -2.1 7.9
-13 5 19 4.5 11.2
-13 -19 5 12.8 8.6
-5 19 13 24.5 11.6
-19 -5 13 19.5 11.9
-19 -13 -5 11.2 7.9
13 5 -19 10.4 8.7
-5 13 -19 19 9.3
-5 -13 19 18.8 13.2
-13 7 -19 1.7 3
13 -7 -19 3.5 8.8
-7 13 19 -0.1 10
19 -13 -7 -5.2 5.5
7 13 -19 4.5 7.8
-13 -19 -7 -1.2 9.9
-7 -13 -19 1.9 8.9
-13 19 7 5.4 10.7
19 7 -13 -3.3 6.4
-7 -19 13 5.2 6.8
-13 -7 19 3.6 10.7
-19 -13 7 1.8 8.2
-13 7 -19 5.6 3.6
-19 7 13 4.5 8.1
-13 -19 -7 1.2 5.7
-19 -7 -13 4.6 8.8
-19 -7 -13 2.7 6.3
13 19 -7 6.6 9.2
7 -19 -13 4.2 11.9
-7 -13 19 -1.8 7.1
13 -19 -7 5.7 12
-13 7 19 5 8.3
7 13 19 2.4 6.7
19 13 -7 1.6 6.3
7 19 -13 4.1 9
-7 13 -19 3.8 6
13 7 -19 -0.3 7.3
7 -13 -19 -1.3 10.7
-13 -7 -19 5.8 7.8
-19 -13 -7 -3.4 6.8
19 -7 -13 3.3 10.1
-19 13 7 1.4 9.3
-13 -19 7 8.7 9.1
-7 -19 -13 -0.2 7.5
-7 -19 -13 3.2 7.4
-19 -7 13 -0.2 7.4
-7 19 13 1 6
-19 -13 -7 1.3 6.3
-13 -7 -19 -3.4 10.4
13 -9 -19 15.4 14
13 19 -9 6.7 10.3
-13 19 9 42.9 14.7
9 -19 -13 31.8 16.4
-13 -19 -9 22.2 10.3
-9 -19 13 42.3 14.6
-19 -9 -13 21.4 12.1
-19 -9 -13 15 10.2
19 9 -13 42.7 14.5
-9 13 19 31.3 12.9
-9 -13 -19 16.8 14.3
-13 -9 19 11.3 12.6
19 -13 -9 43.4 16
-19 9 13 46.7 16.3
-19 -13 9 12.5 11.2
9 13 -19 19.5 12.5
-9 -13 19 49.2 16.7
13 9 -19 11.4 14.2
-13 -19 9 30.7 12.8
19 13 -9 52.49 15
-19 -9 13 39.7 13.3
-13 -9 -19 58.69 17.9
-13 -9 -19 38.6 12.5
-13 9 19 16.2 11.3
13 -19 -9 46.5 16.5
-9 -19 -13 43.9 16.1
-9 -19 -13 29.4 12
-9 19 13 24.9 12.8
-19 -13 -9 39.9 13.9
-19 -13 -9 25.7 11.7
9 19 -13 48.3 14.5
19 -9 -13 38.1 16
-9 13 -19 26.1 8
9 -13 -19 34.7 16
-19 13 9 27.1 13.8
9 13 19 30.3 13.6
-13 -11 19 116.69 26.7
-19 -11 -13 59.79 22.7
19 11 -13 108.99 24.8
11 -19 -13 128.19 30
-13 19 11 142.29 26
-11 -13 -19 165.38 30.5
19 -13 -11 118.59 27.7
11 13 -19 101.59 23.7
13 19 -11 107.29 24.6
-13 -19 -11 80.29 22
-11 -19 13 175.78 28.3
-11 13 19 131.19 26.2
-19 -11 -13 100.89 23.7
-19 11 13 150.28 29.2
13 -11 -19 114.69 27.8
13 11 -19 86.49 25
-19 -11 13 62.99 22.3
-13 11 19 140.89 28.1
-13 -19 11 161.78 26
11 -13 -19 86.79 26.6
-13 -11 -19 101.19 27.6
-13 -11 -19 154.28 25.7
-11 -19 -13 160.08 26.1
19 -11 -13 111.39 28.2
-19 -13 -11 134.19 25.6
-19 13 11 95.09 26.3
-11 -13 19 112.89 26.9
-19 -13 -11 172.68 28.9
-11 19 13 131.29 26.7
-11 -19 -13 105.19 26.3
19 13 -11 162.18 25.4
13 -19 -13 56.09 20.4
-13 -19 -13 24 15.4
-13 -19 -13 66.29 17.2
-19 -13 -13 49.9 16
-13 13 19 73.09 20.1
-13 19 13 38 16.5
13 -13 -19 50.59 17.7
13 13 -19 78.89 18.5
13 19 -13 43 15.2
19 -13 -13 45.8 19
-19 -13 13 64.89 18.4
-13 -13 -19 70.79 18.2
-13 -13 19 45.3 17.7
19 13 -13 38.1 15.2
-19 -13 -13 71.19 18.6
-13 -19 13 55.49 17.3
-13 -13 -19 52.69 18.7
-19 13 13 27.2 16.1
-15 -1 19 3.3 9.7
-1 -15 -19 7.8 12.5
1 15 -19 -7.8 6.1
-15 19 1 -3.9 6.6
1 -15 19 5.4 10.3
-15 -19 -1 2.7 6.2
19 15 1 -0.9 8.6
-1 19 -15 -5.2 7.3
-19 -1 -15 3.8 5.7
-19 -15 1 -0.9 7.9
-19 15 -1 3.4 6.8
1 19 15 6.3 6.7
15 -1 -19 8.8 10.7
-19 -1 -15 -4.1 6.8
15 19 -1 -1.6 7.8
-15 1 -19 2.7 7.2
-15 1 -19 -0.3 5.5
-1 -19 15 2.2 9.1
-19 1 15 2.9 10.7
1 -19 -15 -4.8 11.3
-1 15 19 2.5 8.8
19 1 -15 -2.6 6.7
-19 -1 15 -2.5 9.1
-15 -19 1 -3.2 5.1
-1 -15 19 -6.9 8.5
1 -15 -19 6.1 9.6
19 15 -1 -1.8 5.3
19 -1 -15 -3.7 6.9
-1 19 15 -3.2 5.2
-15 -1 -19 -12.1 7.1
-15 -1 -19 0 6.2
-19 1 -15 4.1 6.3
1 -19 15 -1.1 8.2
-1 -19 -15 0.7 8.1
-1 15 -19 1.8 7.7
15 1 -19 -3.3 8.6
1 19 -15 0.5 7.6
-19 15 1 2.4 7.6
-19 -15 -1 -3.6 7.5
-15 1 19 6 10.5
1 15 19 5.5 7.5
-19 1 -15 -2.2 4.2
-19 -3 -15 102.39 21.8
-15 3 -19 125.59 20.2
-15 3 -19 117.09 21.4
-3 19 -15 114.59 22.9
-19 -3 -15 156.28 26.5
15 19 -3 152.48 25.1
-15 -19 -3 70.39 22.8
19 3 -15 83.39 22.6
-19 3 15 97.39 25.7
3 -19 -15 159.08 26.5
-3 -19 15 138.29 26.3
-3 15 19 103.29 23.2
15 -3 -19 72.49 23.7
3 15 -19 144.99 25.6
-3 -15 -19 97.89 25.8
3 -15 19 117.49 24.9
-15 -3 19 103.09 25.6
-15 19 3 102.69 23.6
3 15 19 98.99 24
19 15 -3 112.99 24.3
-15 -3 -19 133.69 22.7
-19 3 -15 135.09 21.7
3 -19 15 121.09 24.9
-3 19 15 110.59 23.3
19 -3 -15 81.69 23.6
-19 -15 -3 163.98 26.3
-3 15 -19 107.79 23.4
3 19 -15 122.79 24.8
3 -15 -19 98.79 26.3
-15 -3 -19 122.69 25.6
-3 -19 -15 71.19 24.6
-3 -15 19 129.59 27.8
-19 3 -15 138.39 22.3
-19 15 3 123.19 24.5
-19 -3 15 121.89 24.6
15 3 -19 62.69 22.2
-19 -15 5 298.07 59.69
-19 -5 -15 320.77 58.79
19 5 -15 267.37 59.19
-15 -5 19 436.56 62.49
5 15 -19 443.26 61.69
-5 15 19 449.76 62.29
-5 -19 15 424.36 62.49
-15 -19 -5 447.16 60.99
-15 -19 -5 352.66 59.69
-15 19 5 380.76 61.59
-5 -15 -19 344.07 61.09
-19 -5 -15 328.57 60.19
-5 19 -15 370.46 58.49
19 -5 -15 314.07 60.69
-15 -5 -19 329.87 60.79
-15 -19 5 352.46 59.99
-19 -15 -5 403.46 61.19
-5 -19 -15 386.16 61.19
-19 15 5 424.96 62.39
5 -15 -19 480.55 62.89
5 15 19 419.96 61.59
-5 -15 19 416.66 63.29
-15 -5 -19 341.17 58.89
19 15 -5 403.16 60.09
-5 15 -19 372.26 58.69
7 -19 -15 196.68 36.2
-19 -7 -15 125.39 34.9
-19 7 15 239.58 39
-7 -19 15 206.48 36.8
15 -7 -19 233.88 38.2
19 7 -15 251.17 37.5
-19 -15 7 245.28 36.9
-15 19 7 206.98 37.1
-15 -7 19 165.28 35.6
-15 -19 -7 128.09 32.3
-7 -15 -19 245.08 39.8
-7 15 19 241.18 37.6
7 15 -19 256.77 37.3
-19 -7 -15 223.28 35.2
-7 -19 -15 165.28 36.3
-7 15 -19 193.58 32.2
7 19 -15 248.48 37
19 -7 -15 201.48 35.7
-15 -7 -19 139.69 35.7
-7 19 15 162.28 35.2
-19 15 7 159.08 35.1
-7 -15 19 208.08 37.9
-19 -15 -7 132.59 33.9
-19 -15 -7 223.18 35.6
-7 -19 -15 131.59 32.7
-15 7 19 265.97 37.8
-15 -7 -19 210.18 35.2
19 15 -7 155.38 34.3
15 7 -19 212.88 36
-15 -9 19 12.7 11
15 -9 -19 25.7 15.2
-19 -9 -15 32.7 14.4
-19 -9 -15 36 12.8
9 15 -19 16.2 12.2
-15 -19 -9 37 13.7
-15 -19 -9 34.7 13.1
-15 19 9 35.2 15.1
-19 9 15 25.1 14.3
-9 -19 15 18.6 12.5
-9 -15 -19 41.2 15.3
19 9 -15 37.7 14.5
-19 -15 9 31.9 13.3
19 -15 -9 37.7 16.2
9 -19 -15 40.3 16.1
15 19 -9 29 13.4
-9 15 19 58.19 17.1
-9 15 -19 38.1 8.9
-19 -15 -9 21.9 13
-15 -9 -19 40.4 13.6
19 15 -9 38.1 14.1
-9 -15 19 23.5 14.8
15 9 -19 34.1 13.9
-19 15 9 35.3 15.4
-15 -9 -19 43.7 17
-15 -19 9 46.7 14.3
-9 -19 -15 33.9 12.3
-9 -19 -15 12.8 11.2
-19 -9 15 29.8 14.9
9 19 -15 31.8 13.8
19 -9 -15 47.7 18
-9 19 15 24.1 13.2
-15 9 19 43.6 16.7
-19 -15 -9 18.9 11.8
9 -15 -19 60.49 21.2
15 -19 -9 58.59 19.3
-15 19 11 5.8 9.5
15 19 -11 -3 8.4
19 -15 -11 -11.1 9.4
-11 -19 15 3.1 9.1
-19 -15 11 7.1 9
-11 -15 -19 4.2 8.9
-11 -15 -19 4.2 8
-11 15 19 -9.1 8.4
-19 -11 -15 0.4 7.2
11 15 -19 1.2 6.9
15 -11 -19 -7.8 10.4
19 11 -15 -2.7 8.5
-19 -11 -15 -6.4 7.4
11 -19 -15 6.3 12.4
-19 11 15 18.6 12.1
-15 -19 -11 5.2 10.4
-15 -19 -11 0.1 5.1
-15 -11 19 -2.6 9.6
-11 -15 19 4 10.3
11 -15 -19 -3.9 7.5
-19 -11 15 -0.6 6.9
15 -19 -11 -3.1 11.3
-11 -19 -15 -4.1 7.2
-19 -15 -11 -11.8 6
-19 -15 -11 0.5 7.4
-19 15 11 -2.7 8.4
-15 -11 -19 7.1 12
19 15 -11 0 6.6
-15 11 19 8.7 11
19 -11 -15 9.5 12.6
15 11 -19 0.4 8.5
-11 19 15 6.4 9.9
11 19 -15 -3.8 6
-15 -11 -19 -4.2 5.6
-11 -19 -15 -0.2 7.5
-13 15 19 39.1 15.6
15 19 -13 55.49 14.8
-15 19 13 30.6 14.1
-15 -19 -13 40.7 16.2
-19 -13 -15 70.79 19.9
-13 -19 15 29.3 12.5
19 13 -15 25.9 14
-15 -19 -13 58.09 16.4
19 -15 -13 38.2 17.3
13 -19 -15 49.9 18.6
-19 -15 13 32.3 13.4
-19 -13 -15 77.49 18.3
15 -13 -19 27.7 14.3
-19 13 15 38.7 16.5
-15 -13 19 13.4 13.3
-13 -15 -19 70.29 20.8
-13 -15 -19 28.9 13.2
13 15 -19 40.9 15.4
-13 -19 -15 44.5 16.4
-19 15 13 50.29 17.8
-19 -15 -13 19.6 12.9
19 -13 -15 45.2 23.2
-15 -13 -19 36.8 14.2
15 13 -19 30.4 13
-19 -15 -13 59.99 16.6
-13 -15 19 35.7 16
-13 -19 -15 48.1 15.2
19 15 -13 23.8 13.3
-15 -13 -19 11.2 14
15 -19 -13 41.5 18.2
-15 -19 13 52.69 15.9
13 19 -15 22.8 11.9
13 -15 -19 54.09 17.6
-15 13 19 37.5 16.1
-13 19 15 12.2 12.9
-19 -13 15 16.7 12
-15 15 19 206.18 41.8
-19 -15 -15 201.48 42.2
15 -15 -19 140.09 41.3
-15 -15 -19 253.87 41.3
-19 15 15 160.28 40
-19 -15 -15 264.87 42.2
-19 -15 15 259.57 42.4
-15 -15 19 223.48 42.2
15 -19 -15 247.38 45.8
-15 -19 -15 249.78 41.3
-15 -15 -19 330.07 46.4
15 19 -15 241.48 40.4
-15 -19 -15 249.28 43.3
19 -15 -15 228.38 44.4
-15 19 15 235.88 41.8
-1 17 19 8.6 8.4
-17 1 -19 12.4 7.6
-19 -1 -17 9.2 7.9
-19 17 -1 4.8 9.1
1 -19 -17 7.7 9.6
19 1 -17 7.5 8.8
-17 -1 19 8.9 8.7
19 17 1 8.5 7.8
1 17 -19 20.6 11.2
-19 -1 -17 15.1 10
17 19 -1 15.2 8.7
17 -1 -19 0.5 10.2
-17 -19 -1 3.4 7.3
-17 19 1 10.9 9.1
-1 -17 -19 9.9 12.6
1 19 17 4.7 8.9
-1 -19 17 17.4 11.6
-1 19 -17 16.6 10.2
1 -17 19 6.2 11.2
-19 1 17 3.1 9.6
-19 -17 1 3.8 8.8
-17 1 19 10.6 9.2
-1 -17 19 18.6 12.8
-1 17 -19 8.6 9.5
1 -17 -19 4.8 12.6
19 -1 -17 6.9 10.5
-19 1 -17 12.1 6
-17 -1 -19 11.1 7.2
1 19 -17 9.4 9.3
19 17 -1 11 8.3
-19 -1 17 14.1 10.2
17 1 -19 24.8 13.3
-19 1 -17 6.5 7.5
-19 17 1 13.6 9.5
1 17 19 29.2 12.2
-1 19 17 8.4 9.3
-19 -17 -1 22 11.6
-17 -1 -19 8.7 10
-1 -19 -17 11 12.7
-17 -19 1 17.6 9.9
1 -19 17 6.4 10.6
-17 -19 -3 124.09 43.3
-19 -3 -17 270.57 36.7
19 3 -17 220.98 37.6
3 17 -19 150.78 36.3
-3 19 -17 219.48 36.8
-3 17 19 142.09 35.1
17 19 -3 232.68 36.5
-19 -17 3 195.28 36.6
-17 19 3 284.87 39.3
-3 -17 -19 216.88 40.1
-19 -3 -17 237.48 39
3 19 17 230.28 37.2
-17 3 -19 186.18 33
-3 -19 17 243.08 40.3
3 -17 19 172.88 36.9
-17 -3 19 143.89 35.6
19 17 -3 228.18 37.8
-19 17 3 215.68 37.7
19 -3 -17 164.58 37.5
-19 3 -17 169.58 31.4
3 -19 17 281.67 39.9
-3 17 -19 248.18 37.6
-19 -17 -3 272.77 38.5
-3 -17 19 206.98 39.6
-19 3 -17 221.38 31.6
-19 -17 -3 224.18 36.7
-17 -19 3 259.37 38.7
-17 -3 -19 202.08 35.7
-3 -19 -17 267.37 41.3
-17 -3 -19 189.48 37.9
3 17 19 137.19 35.4
-19 -3 17 229.58 38.1
17 3 -19 256.77 39.6
17 -5 -19 391.16 75.39
-17 -19 -5 600.84 76.99
-5 -19 17 528.55 78.99
-17 -5 19 552.84 77.89
-19 -17 5 383.86 74.49
-5 19 -17 463.75 73.79
5 19 17 588.94 77.29
-19 -5 -17 585.34 78.49
-17 -19 -5 532.75 75.99
-17 19 5 495.35 77.69
-5 17 19 445.66 76.09
-19 5 17 625.04 79.19
17 19 -5 364.56 74.19
5 17 -19 399.46 75.29
-5 -17 -19 531.15 78.29
-19 -5 -17 471.95 74.79
-17 5 19 540.45 78.59
-5 17 -19 483.85 74.19
-17 -19 5 478.75 75.79
5 -17 -19 521.25 77.39
-17 -5 -19 460.65 75.19
17 5 -19 556.54 77.29
-5 -19 -17 376.66 75.39
5 19 -17 516.15 76.89
-19 17 5 473.55 76.59
-5 -17 19 444.16 77.49
-17 -5 -19 397.06 76.39
19 17 -5 534.75 76.29
-19 -7 -17 273.07 44.2
-19 -7 -17 231.78 40.4
-19 7 17 254.47 43.6
-17 19 7 221.08 41.6
-7 -19 17 227.88 42.9
-7 17 19 325.27 43
-7 -17 -19 219.08 43
7 17 -19 181.28 39.8
17 19 -7 200.48 39.6
7 -19 -17 289.77 44.7
17 -7 -19 150.88 40.4
-17 -19 -7 160.78 39.4
-17 -19 -7 294.67 42
-17 -7 19 228.78 42
7 17 19 299.07 42.8
-7 19 17 264.87 42.4
19 17 -7 173.78 38.4
-17 -19 7 277.77 42.2
-7 17 -19 258.37 38.2
-17 -7 -19 269.77 41.3
-19 -17 -7 283.07 41.7
-19 17 7 210.38 41.4
19 -7 -17 195.08 41.1
-17 7 19 159.58 39.1
-7 -17 19 243.88 42.6
17 7 -19 284.57 42.4
-17 -19 -9 47.2 15.8
19 9 -17 40.2 14
-17 -19 -9 49.99 15.3
-19 -9 -17 30.3 14.9
17 19 -9 52.89 15.9
-9 17 19 55.79 17.1
-17 -9 19 28.9 14.9
-19 9 17 20.3 14
-19 -17 9 27.4 11.4
-9 -17 -19 38.1 15.6
-9 -19 17 36.2 16.1
-19 -9 -17 45.2 14.9
17 -9 -19 39 16.3
-17 19 9 67.79 18.5
9 -19 -17 68.79 20.7
9 17 -19 43.2 15
-17 9 19 50.09 17.9
-19 17 9 47.8 17.6
-9 -17 19 38.1 16.4
-17 -9 -19 64.79 16.9
9 -17 -19 29.7 16.7
19 -9 -17 42.7 17.7
19 17 -9 57.99 15.4
-17 -19 9 18 11
-17 -9 -19 52.99 19.2
-19 -17 -9 16.8 11.8
17 9 -19 37.1 14.3
-19 -17 -9 37.1 14.5
-9 -19 -17 63.19 18.9
-9 -19 -17 20.7 11.6
17 -19 -9 50.59 19
9 19 -17 30.2 14
-19 -9 17 14.8 12.9
-9 19 17 31.6 14.6
-11 -19 17 23.6 11.5
-11 -17 -19 1.8 8.1
19 11 -17 0 7.2
-17 19 11 5 9.6
-11 -17 -19 1.1 9.3
-19 -11 -17 -2.9 9.3
-19 -11 -17 7.1 8.9
-11 17 19 0.4 9.6
-17 -19 -11 10.8 8
-17 -11 19 8.2 10.8
11 17 -19 4.6 9.5
11 -19 -17 16.6 14.1
17 19 -11 8.4 9.8
17 -11 -19 13.2 13
-19 11 17 7.1 11.3
-17 -19 -11 7.1 10.5
-19 -17 11 14.6 8.9
19 -17 -11 14.4 13.7
-17 -19 11 1.5 5.9
-19 -11 17 4.3 9.9
-11 -19 -17 4.1 8.4
-19 -17 -11 -1.4 10
-17 11 19 5.1 11.1
-19 -17 -11 17 10.7
-17 -11 -19 11.1 8.7
-19 17 11 4 10.9
-11 -17 19 -5.7 9.9
-17 -11 -19 12.2 11.9
11 -17 -19 7.3 9.8
11 19 -17 -1.2 6.1
17 -19 -11 5.6 12.9
17 11 -19 9 9.4
19 -11 -17 6.7 12.9
-11 -19 -17 4.5 12.2
19 17 -11 4.4 10.1
-11 19 17 2.9 9.8
19 13 -17 98.59 20.1
17 19 -13 53.09 19.4
-19 -13 -17 119.19 26.5
-19 -13 -17 84.89 22.2
-17 -19 -13 53.49 19.1
-19 13 17 54.09 21.8
-17 -19 -13 96.99 21.5
13 -19 -17 101.59 26.4
-19 -17 13 98.29 21.5
17 -13 -19 97.59 24.2
-13 -17 -19 53.99 21.8
19 -17 -13 127.79 27.9
-17 -13 19 54.29 21.1
-13 17 19 110.39 22.9
-13 -17 -19 58.19 19.2
-17 19 13 108.09 25.9
-13 -19 17 127.79 25.6
-19 17 13 60.39 21.2
-19 -13 17 96.99 23.9
-17 -19 13 102.69 22.5
-13 -19 -17 143.69 27.6
-17 -13 -19 77.49 24.2
13 19 -17 64.09 19.6
-13 -17 19 79.49 22.6
-19 -17 -13 104.79 23.1
13 -17 -19 105.29 24
19 17 -13 60.19 20
-19 -17 -13 111.59 24.5
-17 13 19 68.19 22.7
19 -13 -17 115.09 26.7
-13 -19 -17 105.89 21.4
17 13 -19 47.5 18.8
-13 19 17 61.59 20.6
17 -19 -13 139.69 29.6
-17 -13 -19 121.09 22.9
15 17 -19 325.57 47.9
17 19 -15 282.07 46.7
-17 -15 19 282.27 48.1
-19 -15 -17 298.27 47.8
-15 -17 -19 297.07 47.4
19 -17 -15 227.38 49.4
-19 -17 15 197.48 45.6
19 15 -17 292.77 46.5
17 -15 -19 267.87 49.3
-15 -19 17 257.67 47.4
-19 -15 -17 255.77 47.8
-17 -19 -15 320.87 48
-19 15 17 262.17 47.7
-17 19 15 331.77 50.19
-15 17 19 206.38 46.8
19 17 -15 312.87 46.9
-15 -19 -17 245.78 46.3
15 -17 -19 265.17 48.5
-17 -15 -19 387.46 52.69
17 -19 -15 274.37 49.4
-19 -17 -15 190.48 44.8
-15 19 17 258.47 47.8
15 19 -17 254.87 46.3
-17 -15 -19 212.28 45.5
-19 -15 17 275.97 46.6
-17 15 19 249.38 47.9
17 15 -19 284.57 47.3
-19 17 15 279.17 48.5
19 -15 -17 231.08 47.1
-15 -19 -17 342.47 49.8
-17 -19 -17 224.78 38.6
-19 17 17 140.79 36
19 17 -17 204.08 35.7
-17 19 17 116.89 35.7
17 -19 -17 188.88 39.8
17 17 -19 147.59 34.4
17 19 -17 227.78 36.8
19 -17 -17 179.18 38.6
-17 -17 -19 201.78 38.4
-17 -17 -19 231.08 36.8
-17 -17 19 173.58 36.3
-17 17 19 160.48 36.4
-19 -17 -17 245.18 39.6
-19 -17 -17 218.68 36.2
-17 -19 17 158.68 33.8
-17 -19 -17 172.38 35.3
1 19 -19 121.79 28.1
-19 -1 19 154.68 29.2
-1 19 -19 139.99 29.2
-1 19 19 187.58 30.1
-19 -19 1 114.69 27.7
-19 -1 -19 164.78 28.9
-19 -1 -19 157.08 26.2
-1 -19 19 163.68 32.3
-19 -19 -1 110.89 27.4
-1 -19 -19 110.19 29.7
1 -19 19 145.39 29.8
-19 1 -19 169.28 25.4
-19 19 1 169.48 28.3
19 -1 -19 157.18 30.4
19 19 -1 95.99 29.9
-19 1 -19 120.59 26
19 19 -3 15.8 9.6
-19 -19 3 22.6 11.4
-3 19 -19 18.3 10.9
-3 19 19 6.1 9.4
19 3 -19 17.4 10
-3 -19 19 25.3 13.2
19 -3 -19 15.3 12.1
-19 -19 -3 24 12
-19 -19 -3 19.7 11.1
-3 -19 -19 28.2 15.3
3 19 -19 26.4 12.4
3 19 19 25.4 10.8
-19 -3 -19 19.3 9.5
-19 -3 19 23.6 11.2
-19 3 -19 22.1 9.1
-19 3 -19 18 8
-19 3 19 10.9 11.3
3 -19 -19 18.3 13.6
3 -19 19 22.4 12.6
-19 19 3 13.4 12.1
-19 -3 -19 26.5 12.4
-5 -19 -19 5.6 8.5
-19 19 5 5 9.6
-19 5 19 4.4 8.9
19 5 -19 6.1 7.4
19 19 -5 4 9.2
-19 -19 5 -1.3 5.5
-19 -5 19 0.5 9.9
-5 -19 19 -3.1 9.7
-5 19 -19 0 6.4
-5 19 19 1.1 8.4
5 -19 -19 -4.8 9.8
5 19 -19 -0.1 8.6
5 19 19 11.1 9.5
19 -5 -19 -6.2 6.3
-19 -19 -5 -1.9 9.3
-19 -19 -5 8.9 8.6
-19 -19 -7 2.9 10
-19 -19 -7 4.5 7.9
-19 -19 7 5.7 6.5
-19 -7 -19 -9.2 8.1
-19 -7 -19 2 6.4
19 19 -7 0.9 7.9
19 -19 -7 -6.1 9.2
19 -7 -19 3.1 7.9
-19 -7 19 8.1 11.5
-19 7 19 -3.4 9.1
-19 19 7 5.5 9.4
-7 -19 -19 -1.5 11.6
-7 -19 19 8.1 11.1
-7 19 -19 1.4 5.6
-7 19 19 0.2 6.4
7 -19 -19 3.9 12.2
7 19 -19 0.6 9
19 7 -19 6.8 8.4
9 -19 -19 15.4 12.6
-9 19 19 11.3 11.4
19 19 -9 31.4 13.9
-19 -19 -9 15.5 12.6
-19 -19 -9 23 11.6
-19 -19 9 58.09 15.8
-19 -9 -19 44.1 17.5
-19 -9 -19 34.7 13.5
-19 -9 19 7.3 11.7
-19 9 19 16.8 13.3
-19 19 9 26.5 14.2
-9 -19 -19 49.6 17.9
-9 -19 -19 36.9 12.5
-9 -19 19 32.4 15.5
19 9 -19 47.6 15.4
19 -9 -19 38 15.1
-19 -19 -11 85.09 21.9
-19 -19 -11 128.89 27.9
-19 19 11 85.29 25.7
-11 -19 -19 80.59 26.5
-11 -19 -19 129.29 24
-11 -19 19 109.89 26.9
-11 19 19 138.49 25.8
11 -19 -19 123.69 30.1
19 -19 -11 105.09 28.3
19 -11 -19 117.79 27.7
19 11 -19 137.09 26.8
19 19 -11 140.49 26
-19 -11 19 112.39 24.8
-19 11 19 85.29 26.1
-19 -11 -19 123.79 24.9
-19 -19 11 108.29 25
-19 -11 -19 113.69 27.5
-19 -19 13 9.3 8.2
-19 -19 -13 12.9 12.2
-19 -19 -13 15.2 10.2
-13 -19 -19 14.2 11.5
-13 -19 -19 15.7 10.5
-13 -19 19 10.6 10.9
-13 19 19 14.5 11.6
13 -19 -19 21.8 15.3
19 -13 -19 10.8 10.2
19 13 -19 12.7 10.7
19 19 -13 16.2 9.6
13 19 -19 5.7 10.8
-19 -13 -19 15.4 13.9
-19 -13 -19 17.5 10.2
-19 -13 19 21.4 11
-19 13 19 7.5 9.8
-19 19 13 21.9 13.5
19 -19 -13 -0.5 13.8
-19 19 15 47.2 18.4
-19 -15 -19 30.1 13.8
-19 -15 19 65.29 28.2
-19 15 19 13.3 14.9
-19 -19 -15 70.19 20.6
-19 -19 -15 54.19 16.3
-19 -19 15 24.6 13
-19 -15 -19 60.89 21.4
19 -19 -15 38.7 18.3
19 -15 -19 53.79 20.1
19 15 -19 24.7 15.1
19 19 -15 16.3 10.6
15 19 -19 29.9 14.2
15 -19 -19 33.5 19.2
-15 -19 -19 35.5 14.2
-15 -19 19 51.69 17.5
-15 19 19 56.59 17.5
-19 -19 -17 30 13.1
-19 -19 -17 -5.3 11.2
17 -19 -19 13.6 16
17 19 -19 26 13.6
19 -19 -17 16.2 17.5
19 -17 -19 17.9 14.8
-19 19 17 7.7 12.3
-17 -19 -19 3.1 14.1
-17 -19 -19 25.9 11.3
-19 -17 -19 19.5 11.6
-19 17 19 23.4 13.7
-17 19 19 7.3 9.4
-19 -17 -19 4.7 13.3
19 -19 -19 56.69 24.9
-19 -19 -19 31.6 19.2
-19 -19 -19 90.59 19.2
20 0 0 1498.85 203.48
-20 0 0 1183.08 203.18
0 -20 0 1342.87 204.48
0 -20 0 1552.54 204.68
0 0 -20 1428.36 204.58
2 -20 0 564.34 86.19
-20 -2 0 446.56 84.09
0 -20 2 619.34 85.59
2 0 20 672.63 87.99
20 2 0 580.24 84.99
-2 0 20 696.83 88.19
0 -20 -2 430.16 84.99
0 -20 2 578.14 86.19
-20 0 2 463.05 84.99
-2 -20 0 432.36 84.89
0 -2 20 665.53 87.29
0 2 -20 519.15 85.29
0 2 20 607.74 86.99
20 0 -2 561.14 84.99
2 -20 0 654.73 86.19
-20 0 -2 568.64 85.59
-2 -2 20 223.88 49.99
-2 2 -20 399.56 51.99
2 -20 -2 320.77 50.89
2 -20 -2 365.86 50.49
2 -20 2 338.87 51.29
2 -20 2 291.17 49.1
2 -2 -20 230.48 49.4
2 -2 20 289.57 50.69
2 2 20 312.47 50.29
20 -2 -2 313.57 49.5
20 2 -2 364.56 50.59
20 2 2 278.27 49
-2 -20 -2 226.08 49.4
-2 -20 -2 285.97 48.7
-20 -2 -2 298.77 49.8
-2 -20 2 277.07 49.2
-2 -20 2 380.86 50.69
-20 -2 2 373.86 51.69
-20 2 -2 273.77 48.7
-20 2 2 316.37 50.29
4 -20 0 15.6 9.7
4 -20 0 21.1 11.7
0 -4 -20 24.5 13
-20 0 -4 32.3 10.3
0 -4 20 32.8 13.2
0 4 -20 36.8 13
0 4 20 13.4 11.7
-20 0 4 14.9 11.6
-4 -20 0 21.1 10
-4 -20 0 27.8 10.8
20 0 -4 12.5 9.1
-20 -4 0 29.7 11.4
-20 4 0 13.6 9.8
-4 0 -20 22.8 12.9
-4 0 20 11.3 9.7
0 -20 -4 14.5 11.3
0 -20 -4 13.7 8.1
0 -20 4 28.9 12.9
0 -20 4 12 9.2
4 0 -20 12.1 9.4
4 0 20 24.9 11.9
20 -4 0 0 5.2
20 4 0 24.9 10.9
-20 -4 2 19.8 10
-20 4 -2 8.4 8.9
-4 -2 20 3.7 10.6
4 -20 2 8.6 9.6
20 4 2 11.2 9
-2 4 20 5 10.8
2 -4 20 -0.1 8.8
2 4 -20 10.6 9.4
-2 -20 4 2.8 7.4
2 -20 -4 6.9 8.5
2 -20 -4 10.9 8.5
-4 2 -20 14.4 10.5
-20 2 4 4.6 9.1
-4 -20 -2 -2.5 9.3
-4 -20 -2 3 6.7
4 2 20 4.4 9.2
20 -4 -2 -5.3 5.5
-2 -4 -20 0.9 9.5
20 2 -4 6 8.8
-2 -20 4 6.6 9.8
-20 -2 -4 8.8 7.7
4 -2 -20 10.3 10.9
4 -20 2 4.2 8.2
-20 -2 4 7.8 9.4
-20 2 -4 1.1 6.6
-2 -20 -4 11.4 7.4
-2 4 -20 10.1 9.4
4 -2 20 14.1 10.1
4 2 -20 5.7 10.1
-4 -20 2 16.2 10.6
2 -20 4 5.6 9.5
20 4 -2 2.4 6.6
-2 -4 20 6.6 8.1
-2 -20 -4 5.9 8
2 -20 4 5.3 7.4
4 -20 -2 11.7 10.9
4 -20 -2 6.3 7.8
20 -2 -4 11 8.8
20 2 4 5.4 6.6
2 -4 -20 0.7 10.6
-4 -20 2 10.3 7.2
-20 -4 -2 9 9.5
-20 4 2 4.8 9.1
-4 -2 -20 12.7 11.3
-4 2 20 5.3 10.7
2 4 20 -3.2 9.1
-20 -4 4 2.8 8.8
-20 4 -4 16.3 8.6
-20 4 4 15.3 10.6
-4 -20 -4 11.4 11.2
4 -20 4 20.6 10.6
4 -20 4 18.2 9.5
4 -4 -20 -0.7 8
4 -4 20 32.3 13.2
-20 -4 -4 18.1 9.9
-4 -20 -4 3.3 10.6
4 -20 -4 10.9 8.7
4 4 -20 12.9 10.6
4 4 20 14.2 10.7
-4 4 -20 8.4 9.8
-4 -4 -20 19 11.9
-4 -4 20 12.4 11.3
-4 -20 4 13.7 9
-4 4 20 15.8 12.6
4 -20 -4 20.3 12
20 4 -4 18.6 10.4
20 -4 -4 7.7 8.8
-4 -20 4 17.5 8.7
-20 -6 0 64.89 18.1
-20 6 0 82.99 17.7
-6 0 -20 76.69 18.8
0 -20 -6 42.9 17.4
0 -20 -6 36.5 14.9
0 -20 6 73.89 18.8
0 -20 6 62.69 16.7
6 0 -20 73.99 19.2
6 0 20 66.69 17.9
20 6 0 83.09 18.5
0 6 20 69.39 18.1
6 -20 0 78.69 19.1
6 -20 0 75.29 17.3
20 0 -6 79.29 19
0 -6 -20 77.79 19.8
0 -6 20 53.99 18.2
0 6 -20 82.49 19
-20 0 6 40.2 16.8
-6 -20 0 82.79 17.5
-6 -20 0 61.79 17
-20 0 -6 65.39 15.9
-20 -6 2 34.8 12.9
-20 -2 -6 34.6 11.6
6 -2 -20 25.1 13.6
2 -20 -6 35.8 13
-6 2 -20 31.4 12.1
-6 -20 -2 24.2 11.7
-6 -20 -2 29.7 12.6
-2 -20 6 30.4 12.1
-2 -6 -20 14.3 12.5
-2 6 20 28.9 12.7
2 -6 20 43.1 14.8
2 6 -20 47 14.6
6 -20 2 24.6 11.8
6 -20 2 38.6 12.1
20 2 -6 27.2 11.3
-20 2 6 44.7 15
6 2 20 37.6 13.5
2 -20 -6 42.2 13.5
-6 -2 20 31 14.1
20 6 2 33.4 12.1
-20 6 -2 46.2 12.5
2 -20 6 36.6 13.2
-6 2 20 15.3 12.7
6 -20 -2 28.3 13.5
20 -2 -6 26.7 12.2
6 -20 -2 20 10
-20 6 2 32 12.7
2 -20 6 31.9 11.8
6 -2 20 27.7 12.4
-6 -20 2 35.3 13.6
-2 -6 20 43 14.8
20 6 -2 36.8 11.7
-20 -2 6 42.8 14.9
-20 2 -6 31.4 10.1
6 2 -20 38.6 13.5
-2 -20 -6 30.9 11
-20 -6 -2 40.6 13.3
2 6 20 38.2 14.6
-6 -2 -20 44.3 15
-2 -20 -6 46.5 15.8
2 -6 -20 8.6 10.1
-6 -20 2 15 10.5
-2 6 -20 25 12
4 -20 -6 22.6 11
-20 -6 4 20 11.4
20 6 4 23 10.1
-6 -4 20 9 9
-6 4 -20 14.6 9.5
20 4 -6 34.8 12.3
6 -20 4 16.9 8.6
4 -6 20 11.8 9.7
-4 -20 6 14 8.8
6 4 20 17.2 10.5
4 6 -20 5.4 7.6
6 -20 4 6.1 7.1
-20 4 6 1.2 10.3
-6 -20 -4 9.6 8.7
-6 -20 -4 11.9 7.9
6 20 -4 11.5 8.1
-4 -6 -20 3.9 11.3
-4 6 20 17.5 13.8
6 -4 -20 11.4 9.3
-20 -4 -6 14.9 9
20 -6 -4 5 5.9
-20 6 -4 15.4 7.6
4 -20 6 2.1 7.4
6 -20 -4 15.6 10.1
20 -4 -6 13.6 10
6 -4 20 17 10.5
6 4 -20 7.6 10.3
4 20 -6 21.5 10.2
4 6 20 15.7 11.1
20 6 -4 11.7 8.8
4 -6 -20 4.7 10.8
-4 -20 -6 17.5 9.5
-4 -20 -6 12.2 9.2
-6 -20 4 5.8 8.4
-4 -6 20 1.8 9.7
-4 6 -20 22 10.4
-20 -4 6 17.6 11.4
-20 4 -6 12.2 7.6
-6 4 20 16.5 12.5
-6 -4 -20 5.8 10.5
4 -20 6 11.4 8.3
-20 -6 -4 12.2 8.9
-20 6 4 12.6 11
-4 20 6 12.9 8.5
-6 -20 6 24.7 10.5
-6 -6 20 14.8 11.3
-6 -20 -6 16.5 8.7
6 6 -20 20.9 11.9
-6 -6 -20 28.4 13.9
-6 -20 -6 22.3 10.7
-20 -6 -6 27.8 12.8
6 -6 -20 18.5 10.7
6 -6 20 23 11.3
6 -20 -6 18.9 13.3
-6 6 -20 20.1 9.8
-6 6 20 16.1 10.8
-6 20 6 21.7 9.8
6 6 20 17.2 11.6
6 20 -6 12 8.2
20 6 -6 25.7 12.2
-20 -6 6 17.3 11.2
-20 6 -6 19.6 6.9
-20 6 6 11.6 11.4
6 -20 6 13.3 8.5
-20 -8 0 68.39 17.7
-20 0 -8 54.39 14.9
-20 0 -8 69.19 15.6
8 0 -20 32.5 16.5
8 0 20 79.69 18.6
20 8 0 90.59 17.8
-20 8 0 66.59 17.6
-8 0 -20 50.49 17.8
0 -20 -8 85.19 20.8
0 -20 8 80.29 18.7
-20 0 8 101.19 22
-8 -20 0 74.39 19.1
0 -8 -20 66.19 18.1
8 -20 0 70.79 17.6
0 8 -20 94.69 20.3
0 8 20 56.19 18.5
20 0 -8 72.09 18.5
8 -20 2 7.1 8
2 -20 -8 18.4 10.8
-20 8 -2 29 9.8
-2 -20 8 18.2 10.6
-8 -2 20 16 10
8 -2 -20 15.6 10
2 -8 20 -2.2 8.4
8 -20 2 9.8 8.2
-20 -2 -8 18 8.2
-20 -2 -8 11.6 8
-20 2 8 10.6 11.4
-8 -20 -2 14.2 9.1
-2 -8 -20 14.8 12.5
-2 8 20 3.9 10.2
2 8 -20 16.4 10.7
-8 -20 -2 11.7 9.4
8 2 20 12.3 9.7
-20 -8 2 9.6 10
20 2 -8 28 12.8
-8 2 -20 18.5 10.2
20 8 2 25.4 11.1
2 8 20 12.1 10.7
8 -2 20 8.2 8.6
-2 -8 20 20.2 12.3
-2 8 -20 11.1 9.4
2 20 -8 13.7 9.4
-8 2 20 7.7 9.1
-2 -20 -8 6 8.8
-20 -8 -2 16.7 10
-8 -20 2 13.3 9.5
-20 2 -8 22.3 7.6
8 -20 -2 12.1 11.4
2 -8 -20 12 12
-20 -2 8 0.4 10.1
-20 2 -8 14.1 6.9
8 2 -20 16.3 11.2
-8 -2 -20 13.4 11.8
2 -20 8 17.7 9.2
-2 -20 -8 21.9 8.8
20 8 -2 12.5 10
-20 8 2 21.7 10.6
8 -20 -2 20.9 9.6
20 -2 -8 12 10.8
-2 20 8 19.3 10
2 -20 8 4.6 8.1
8 -4 -20 37.9 15.2
-8 20 4 11.9 11
-20 -4 -8 28.5 10.7
20 -8 -4 10.1 8.3
-20 4 8 33.4 13.9
-8 -20 -4 30.2 13.8
-8 -20 -4 11.8 10.3
-20 -8 4 30.6 12.6
8 20 -4 17 9.4
4 -20 -8 22.3 15
-4 8 20 28.8 12.3
20 8 4 44.6 13.3
-8 -4 20 16.8 12.7
-8 4 -20 34.6 12.1
4 -8 20 61.89 16.3
4 8 -20 29.4 13.1
-4 -8 -20 30.2 15
-20 8 -4 53.09 11
-20 -4 -8 37.4 12.4
8 -20 4 30.1 11.2
-4 -20 8 38.9 13.4
20 4 -8 33.6 13.9
8 -20 -4 16.3 13
4 8 20 22.8 12.4
4 -8 -20 49.5 16
-8 -20 4 25 12.1
8 4 -20 48.9 14.3
-4 -8 20 40.3 15.2
-8 4 20 38.6 13.6
-4 20 8 21.2 11.7
4 -20 8 25 11
4 20 -8 32.6 12.1
-20 4 -8 36 8.8
-20 8 4 33.9 14
20 8 -4 34.8 12.7
20 -4 -8 36.5 13.7
-4 8 -20 45 13.4
-20 -8 -4 36.7 13.5
-20 -4 8 26.8 13.2
-8 -4 -20 52.89 16
-4 -20 -8 45.9 15.4
-4 -20 -8 20.9 10.9
8 -4 20 33.2 12.3
-20 4 -8 41.6 9.6
-8 -6 20 24 14.3
-8 6 -20 52.19 13
20 6 -8 32 12.6
-6 8 20 43.7 14.3
-8 -20 -6 37.6 12.9
8 20 -6 23.9 10.8
-6 -20 8 33.5 13.5
8 -6 -20 15.4 13.5
6 8 -20 38.2 14.9
6 -8 20 32.2 12.9
8 -20 6 36.2 11.4
-8 -20 -6 47 14
-20 -8 6 63.39 16.2
-20 8 -6 39.8 6.2
-20 8 -6 42.3 6.3
6 -20 -8 39.8 15.8
-8 20 6 38.7 14
-6 -8 -20 53.49 17.9
-20 6 8 36.9 15.2
8 6 20 34.9 14.2
20 -8 -6 38.4 14.1
-20 -6 -8 34.5 12.2
-20 -6 -8 42.2 13.6
-8 -6 -20 17.2 13.5
6 8 20 45.1 15.7
-20 -8 -6 28.1 12.5
6 -8 -20 57.59 17.4
-8 -20 6 53.29 15.1
6 -20 8 36.2 12.1
20 8 -6 24.7 12.5
-20 -6 8 35.8 14.2
-6 -8 20 19.6 13.8
8 -20 -6 41.3 16.4
20 -6 -8 43.5 14.9
-6 -20 -8 37.8 14.9
-6 -20 -8 28.5 11.4
-8 6 20 26.8 14.4
-6 20 8 34.4 13.9
-20 8 6 26.8 14.5
6 20 -8 48.9 13.5
8 6 -20 22.6 13.5
-6 8 -20 45.8 13
-20 -8 -8 5.4 8.6
-8 8 -20 12 8
-20 8 8 1.5 11.4
-8 -20 -8 13.5 11.2
-8 -20 -8 2 5.9
-8 -20 8 2 8
-8 -8 -20 11.4 12.1
-8 -8 20 -0.3 7.7
8 -20 8 4 4.9
8 -8 -20 0.9 8.4
8 8 -20 4.2 7.5
8 8 20 -2.2 7.3
8 20 -8 7.4 9.2
20 -8 -8 12.2 10.7
-20 -8 8 1.3 8.8
20 8 -8 0.7 6.7
-8 8 20 6.4 8.1
-8 20 8 8.6 9.4
8 -20 -8 8.2 11.8
-20 -8 -8 1.6 7.4
-20 10 0 493.25 66.59
-10 0 -20 465.25 67.89
0 -20 10 430.66 66.99
0 20 10 461.85 67.49
10 0 -20 317.17 66.29
10 0 20 504.05 67.99
20 10 0 417.66 66.69
-20 0 -10 410.96 65.19
-20 0 -10 467.75 65.39
-10 -20 0 329.37 65.69
0 -10 20 410.06 67.89
0 10 -20 449.06 67.19
10 -20 0 473.45 66.49
-20 -10 0 364.86 66.29
-20 10 -2 303.97 53.59
20 10 2 327.07 56.09
20 2 -10 278.47 55.79
-20 -10 2 281.67 55.79
-10 -20 -2 414.56 56.79
-2 10 20 394.06 58.49
2 -10 20 283.57 56.19
2 10 -20 335.87 56.39
-20 2 10 396.46 57.99
10 -20 2 332.97 54.99
10 2 20 277.27 55.39
-20 -2 -10 345.07 54.99
-20 -2 -10 319.17 55.19
2 -20 -10 406.26 58.39
-10 -2 20 374.76 57.99
-10 2 -20 350.36 56.19
-2 -20 10 304.57 55.79
10 -2 -20 323.47 56.19
-2 -10 20 388.16 58.49
-20 -10 -2 371.76 56.89
2 -20 10 367.66 56.49
2 20 -10 450.55 57.49
10 2 -20 443.06 58.39
20 -2 -10 274.47 56.39
-2 10 -20 379.36 56.59
-20 10 2 292.87 55.49
-10 2 20 450.25 58.89
-2 -20 -10 385.36 56.19
10 -2 20 372.26 56.19
-10 -20 2 409.86 56.79
-10 -2 -20 326.67 56.79
2 -10 -20 409.26 57.69
-20 2 -10 324.17 53.19
-20 2 -10 371.56 53.29
2 10 20 402.56 58.09
20 10 -2 298.37 55.19
10 4 20 102.79 22.1
-20 4 10 92.39 23.4
10 20 -4 83.19 20.7
20 10 4 101.89 22.1
-20 -4 -10 127.29 23.3
-20 -10 4 95.09 22.2
4 -20 -10 70.59 23.1
4 10 -20 162.28 25.2
-10 -4 20 72.59 22.2
-10 4 -20 94.29 20.4
-10 20 4 122.69 23.9
-4 -10 -20 120.39 26.2
4 -10 20 93.19 22.4
10 -4 -20 124.29 22.9
-20 -4 -10 92.19 19.9
20 4 -10 68.69 21.2
-10 -20 -4 105.29 22.7
-20 10 -4 101.29 16.9
-4 -20 10 83.59 21.9
-10 -20 -4 81.19 20.8
-4 -10 20 106.29 24.5
4 -20 10 117.29 21.4
-20 -10 -4 101.59 22.8
-20 -4 10 120.99 22.9
4 20 -10 93.59 21.9
-4 10 -20 90.59 20.6
-10 4 20 55.29 21.3
-20 4 -10 99.19 16
20 -4 -10 111.59 24.4
-4 -20 -10 147.49 26.2
4 10 20 88.39 20.7
4 -10 -20 45 20.7
-20 4 -10 106.39 16.3
-4 20 10 53.59 19.5
10 -20 -4 98.79 24.1
-10 -4 -20 119.39 25.6
20 10 -4 83.59 21.8
-4 -20 -10 103.59 21.1
-20 10 4 101.09 22.7
-10 -20 -6 124.09 23.6
10 -6 -20 65.89 23.1
-6 10 20 77.49 24.5
-10 20 6 147.89 26.8
-6 -10 -20 148.99 30
-6 -20 10 99.19 25.1
-10 -20 -6 96.09 23.9
-20 6 10 156.28 28.6
-20 -10 6 141.39 26.6
-10 -6 20 108.69 26.7
-10 6 -20 109.29 22.5
-20 -6 -10 112.09 23.5
10 20 -6 148.89 25.7
6 -20 -10 125.79 26.1
20 6 -10 91.29 25
-20 -6 -10 108.59 24.7
10 6 20 129.29 25.9
6 10 20 126.79 26.5
-10 -20 6 159.38 26.8
6 -10 -20 106.79 24.5
-10 -6 -20 154.48 29.3
20 10 -6 83.59 24
-20 10 6 130.89 27.1
-20 -10 -6 107.19 24.4
-20 -10 -6 113.39 25
-6 -20 -10 118.09 23.2
20 -6 -10 150.98 27.6
-6 -20 -10 182.58 28.9
-6 -10 20 81.99 24.7
-6 20 10 154.18 26.7
-6 10 -20 138.19 24.4
6 20 -10 160.98 26.3
10 6 -20 170.18 27.7
-20 -6 10 117.59 24.5
-8 -20 10 178.58 36.1
-20 -10 8 145.19 34.9
20 -10 -8 208.18 37
-20 -8 -10 204.78 36.3
-10 -8 20 257.47 39.6
-20 8 10 184.18 37.8
-10 8 -20 234.58 33.4
20 8 -10 266.47 37
8 10 -20 133.99 34.8
-8 -10 -20 168.98 37.2
-20 -8 -10 273.67 37.6
-10 -20 -8 185.98 36.7
-10 20 8 235.48 37.7
10 -8 -20 164.58 37.3
-8 10 20 228.48 38.7
-10 -20 -8 201.18 35.6
8 -20 -10 212.88 39.6
20 -8 -10 257.77 38.9
-8 20 10 144.79 34
-8 -20 -10 276.97 38
8 -10 -20 171.28 37.4
-10 -20 8 144.69 33.7
8 20 -10 198.08 35
20 10 -8 157.88 33.9
10 -20 -8 267.87 41.2
-20 -10 -8 271.57 37.5
-20 -10 -8 277.37 37.9
-8 -20 -10 153.28 34.5
-20 10 8 211.28 38.2
-10 -8 -20 127.89 36.2
-8 -10 20 266.17 39.9
-10 8 20 210.68 36.8
10 8 -20 224.88 37.5
8 10 20 199.28 36.5
-20 -10 -10 872.11 131.99
20 -10 -10 858.11 132.99
10 10 20 953.8 133.39
20 10 -10 860.61 131.99
-10 10 -20 766.22 128.19
10 20 -10 1030.6 132.99
-20 -10 -10 998.9 133.69
-10 20 10 809.12 132.89
-20 10 10 876.71 134.29
-10 -10 20 1045.1 135.29
10 -10 -20 939.91 133.69
-10 -20 10 722.83 131.39
20 12 0 326.57 63.19
12 0 20 431.26 63.89
-12 -20 0 394.46 63.99
0 -12 -20 448.36 65.99
12 0 -20 463.85 65.79
-20 12 0 433.46 63.39
-20 0 -12 402.26 63.09
-20 0 -12 391.86 61.99
0 -20 12 377.86 65.09
0 -12 20 339.27 65.09
0 12 -20 505.15 66.39
12 -20 0 344.27 62.49
-12 0 -20 387.06 64.19
-12 0 20 423.66 66.09
-20 0 12 388.26 65.79
20 0 -12 476.35 66.69
-12 -20 0 423.46 64.19
0 20 -12 441.16 64.39
2 12 -20 268.47 41.5
-2 12 20 192.08 40.2
-2 -20 12 224.78 40.7
2 -20 -12 182.88 41.4
-12 -20 -2 176.78 38
-12 20 2 256.27 40.8
-20 -12 2 318.57 42.5
12 2 20 310.17 41.4
-12 -2 20 244.88 40.4
2 -12 20 249.08 41.1
12 -2 -20 162.98 38.7
-20 -2 -12 230.68 39.2
-20 -2 -12 233.78 38.3
-12 2 -20 251.17 39.7
-20 2 12 237.88 42.1
20 2 -12 159.88 38.2
-2 20 -12 270.87 39.7
20 12 2 246.68 39.4
-12 -20 2 317.17 41.9
-2 12 -20 198.68 38.9
2 -12 -20 224.68 42.2
-20 2 -12 262.17 36.4
-20 -12 -2 158.58 39
-20 2 -12 211.78 36.5
20 -2 -12 277.27 42.4
-12 -2 -20 234.88 40.8
2 -20 12 268.87 41.8
12 2 -20 222.98 39.8
20 12 -2 161.88 39.1
-2 -12 20 255.47 42.6
-20 12 2 226.18 39.9
-2 -20 -12 190.08 39.5
-12 2 20 264.87 42.5
-20 -2 12 320.47 43.7
12 -4 -20 60.09 19.3
-4 -20 12 78.09 20.9
4 -12 20 87.19 20.8
-4 12 20 103.09 22.8
-20 4 12 79.69 21.8
-20 -4 -12 81.79 20.1
-20 -12 4 74.39 20.1
20 4 -12 80.09 19.5
-12 4 -20 86.09 18.6
12 4 20 92.49 21.3
-12 -20 -4 98.29 19.3
-12 20 4 82.39 20.9
-4 -12 -20 99.89 22.3
-12 -20 -4 48.1 18.2
-20 -4 -12 76.49 18.3
-20 12 -4 82.89 13.9
4 -20 -12 85.89 23.6
4 12 -20 99.29 22
4 20 -12 118.79 21.9
-20 12 4 65.09 20
-12 -4 -20 117.29 23.6
-4 -12 20 93.19 23.2
-12 4 20 45.6 18.6
-20 -12 -4 72.69 20
4 -20 12 98.09 20.2
12 4 -20 111.29 22.8
-20 -4 12 97.09 22.4
20 12 -4 119.49 20.8
-4 -20 -12 51.69 18.9
-4 -20 -12 94.99 19.9
4 12 20 61.19 20.1
-4 12 -20 90.39 19.8
20 -4 -12 100.79 23.2
4 -12 -20 92.89 20.6
-12 -20 4 41.1 17.5
-12 20 6 114.39 27.3
6 12 -20 171.68 30
-6 -12 -20 170.08 31.4
12 6 20 146.19 28.4
-20 -6 -12 165.38 28.5
6 -20 -12 91.79 27.5
-6 -20 12 147.29 29.2
-20 -12 6 136.29 28
12 20 -6 194.38 29.1
12 -6 -20 153.28 30.4
-12 6 -20 156.18 24.3
-20 -6 -12 128.59 26
-20 6 12 143.19 30.1
-6 12 20 84.89 27.3
-20 -6 12 94.99 27.8
12 -20 -6 145.09 30.5
-6 -12 20 157.38 31.4
20 -6 -12 156.68 30.1
-20 -12 -6 150.28 28.5
-20 -12 -6 104.49 25.6
12 6 -20 101.29 27.9
-6 20 12 177.18 29.3
-12 -6 -20 126.49 30.8
-20 12 6 99.49 27.7
-12 -20 6 195.98 28.7
-12 6 20 90.49 27.7
-6 -20 -12 136.69 27.7
20 12 -6 126.19 27.6
-6 12 -20 151.28 25.9
6 -12 -20 226.98 33
6 12 20 169.18 29.4
-12 -8 20 223.28 35.2
12 -8 -20 158.38 33.2
20 -12 -8 212.28 36.1
8 12 -20 233.28 35
-8 -20 12 135.09 32.4
-20 8 12 140.39 33.5
-12 -20 -8 228.18 33.7
-12 20 8 194.58 35
-8 -12 -20 170.58 36.1
8 -20 -12 207.58 37.6
-20 -8 -12 158.38 33.4
-20 -8 -12 146.69 32
-8 12 20 237.48 35.4
20 8 -12 126.49 32.5
-20 -12 -8 173.18 33.4
-20 -8 12 218.68 34.5
-12 -20 8 220.88 35.2
8 12 20 213.18 35.3
12 -20 -8 154.98 36.1
-12 8 20 230.48 35.9
-8 20 12 160.18 34
-8 12 -20 175.28 30.5
-8 -20 -12 107.49 33.2
-20 12 8 164.68 34.8
20 -8 -12 177.08 34.7
12 8 -20 157.48 32.2
-8 -20 -12 230.88 33.4
8 -12 -20 208.98 35
-12 -8 -20 214.38 37.6
20 12 -8 198.78 33.1
-8 -12 20 165.78 35.5
12 -10 -20 536.15 79.19
-10 12 20 521.35 79.39
-10 -20 12 409.16 77.49
-20 -10 -12 452.35 77.59
-12 10 -20 479.45 72.19
10 -20 -12 544.25 81.29
-12 -20 -10 417.26 77.29
20 -12 -10 531.75 80.29
-20 -12 10 595.84 79.79
20 12 -10 478.95 77.59
10 20 -12 547.25 78.39
10 -12 -20 410.96 78.69
12 -20 -10 454.15 80.09
20 -10 -12 625.94 86.59
-10 12 -20 540.75 74.09
12 10 -20 511.05 79.19
-20 -10 12 439.96 77.89
10 12 20 615.54 80.79
-20 -12 -10 541.45 78.99
12 20 -12 663.73 88.89
12 -20 -12 609.94 90.49
-12 -12 -20 699.73 93.19
-12 -12 20 667.93 89.99
-12 12 20 446.46 87.19
-12 20 12 631.44 89.99
-12 -20 -12 431.66 86.19
20 -12 -12 502.75 88.89
20 12 -12 614.94 88.29
-20 12 12 503.55 89.19
12 -12 -20 579.64 90.19
14 -20 0 160.68 27.6
20 0 -14 110.19 29.5
-14 0 -20 149.49 29.4
-14 0 -20 131.59 26.7
0 14 -20 154.08 29.2
-20 14 0 148.39 27.6
20 14 0 168.38 29.8
0 -14 20 152.88 31.3
-20 0 -14 136.79 27.8
-20 0 -14 146.19 26.4
0 20 -14 157.88 29.2
-20 0 14 121.49 29.9
-14 -20 0 191.68 30.3
0 -20 14 158.88 30.5
0 -20 -14 186.08 33.1
14 0 -20 135.29 30.1
-20 -14 0 172.88 29.2
20 2 -14 22.2 13.5
2 -14 20 31.3 14
2 14 -20 40.2 15.1
2 -20 -14 19.1 12.4
-2 -20 14 47.9 15.8
2 20 14 20.3 11.9
-14 2 -20 50.89 13.7
-14 2 -20 45.4 11.4
-2 14 20 34.2 14.4
20 14 2 24.3 12.7
-20 -2 -14 55.59 15.4
-20 -2 -14 38.5 11.7
-14 -2 20 33.5 13.5
-20 2 14 41.2 14.6
-14 -20 -2 62.39 15.7
-14 -20 -2 21.5 11.5
-14 20 2 49 15.1
-2 -14 -20 60.79 17.6
-2 20 -14 56.29 14.5
-20 14 -2 30.6 10.1
14 -2 -20 24.3 13
14 20 -2 38 12.6
-20 -14 2 56.39 16.2
-2 14 -20 28.5 12.3
-14 -20 2 38.4 14.1
-14 -2 -20 34.2 14.5
-14 -2 -20 39.3 12
-20 2 -14 39.6 10.2
-14 2 20 37.6 14.6
20 -2 -14 15.6 13.6
-2 -14 20 29.5 15.4
2 -14 -20 12.5 11.7
-2 20 14 26.1 11.5
2 -20 14 41.2 14.6
-20 2 -14 45.5 9.9
-20 -2 14 21.1 11.8
2 14 20 52.29 16
-2 -20 -14 37.6 15
14 2 -20 30.3 13.9
-20 14 2 42.4 13.9
-20 -14 -2 53.09 14.8
20 14 -2 51.39 15.3
2 20 -14 55.49 15.6
20 4 -14 11.9 11.4
-4 14 20 6.9 10.2
-20 -14 4 2 8.8
-14 -20 -4 8.9 10.2
-20 -4 -14 18.3 11
14 -4 -20 3.9 10.8
-14 20 4 18.2 10.5
-14 -20 -4 16.3 9.9
4 -20 -14 6.9 9.6
-20 4 14 11.4 11.2
4 14 -20 14.7 10.9
-14 4 -20 17.4 6.4
-14 -4 20 8.8 11.4
-14 4 -20 7.5 6.8
14 20 -4 3.8 8.7
-4 -20 14 20.4 11.3
-4 20 -14 14.5 8.8
-20 -4 -14 4.6 7.6
-4 -14 -20 3.7 9.1
4 -14 20 8.3 9.4
-4 20 14 15.3 10
4 20 -14 4.2 10.8
-14 -20 4 21.9 11.6
-14 4 20 9.4 11.5
4 14 20 14.4 10.9
14 -20 -4 -8.4 5.7
-20 -4 14 32.7 13.8
-4 -14 20 4.3 11.1
20 14 -4 13.3 11.1
4 -20 14 8.4 8.4
-4 -20 -14 12 10.4
-20 14 4 16.1 10.1
20 -4 -14 11.8 11.6
-4 14 -20 7.4 8.8
-20 -14 -4 10.7 10
-14 -4 -20 17.5 8.9
14 4 -20 12.5 11
-14 -4 -20 5.4 10.3
4 -14 -20 18.5 14
-14 -6 20 7.6 9
6 -20 -14 26.3 12.8
14 -6 -20 14 9.9
6 14 -20 6.2 9.3
-14 6 -20 20.6 5.6
-20 -6 -14 15.4 11.5
-6 -14 -20 8.7 12.5
-14 20 6 12 10.7
14 20 -6 9 8.3
-14 6 -20 13.3 5.2
-20 -14 6 7.2 12.1
-14 -20 -6 27.3 12.5
-20 -6 -14 19.9 10.4
-14 -20 -6 15.7 8.9
-20 6 14 16.5 12.5
20 6 -14 16.3 11.3
-6 14 20 6.4 8.4
20 -14 -6 9.6 8.1
-6 -20 14 14.6 8.8
20 14 -6 1.5 7.5
-6 -14 20 13.4 12.8
-14 -20 6 6.1 7.3
-20 14 6 13.9 10.2
-20 -6 14 6.9 8.7
6 -14 -20 3.9 9.6
-20 -14 -6 24.8 11.3
14 6 -20 -2.4 8.9
-14 6 20 10.8 9.4
-6 20 14 17.4 12
-20 -14 -6 8.3 8.3
6 14 20 23.2 12.2
20 -6 -14 10.3 9.6
-6 -20 -14 28.4 14.4
-6 -20 -14 14.7 8
-6 14 -20 15.2 8.8
-14 -6 -20 14.8 10.2
14 -20 -6 -8.3 8
-14 -6 -20 17.6 12.2
6 20 -14 15.8 11.1
8 -20 -14 4.4 11.2
-14 -20 -8 4 8.3
20 8 -14 1.3 8.5
14 -8 -20 0.2 11.3
-8 -20 14 -1.4 8.9
-8 -14 -20 9.6 10.8
8 14 -20 -10.9 7.9
-14 20 8 -0.7 8.6
-20 -14 8 5.8 9
20 -14 -8 1.7 6.4
-20 8 14 -2 7.4
-8 14 20 -1.1 9.6
-20 -8 -14 1.9 6.6
14 20 -8 3.5 8.2
-20 -8 -14 1.1 9
-20 -8 14 -6.3 8.7
-8 20 14 2.6 7.1
-20 -14 -8 3.8 8.5
-14 -8 -20 -1.3 6.4
-14 8 20 1.3 9.7
14 8 -20 -0.7 9
20 14 -8 -6.6 8.3
20 -8 -14 3 10.1
8 14 20 2.3 7.1
14 -20 -8 4.9 12.1
-14 -8 -20 -2.8 10.1
8 20 -14 -11.1 8.1
-8 14 -20 2.4 5.4
-14 -20 8 1.9 7.7
-8 -20 -14 3 7.5
-8 -20 -14 0.5 7.7
-20 14 8 4.2 10.6
-20 -14 -8 1.4 9.1
8 -14 -20 -2.9 11.9
-8 -14 20 -0.5 9.9
-10 -14 -20 100.19 26.8
14 20 -10 50.29 21.8
-10 -20 14 105.09 22.9
-14 20 10 116.09 25.1
-20 10 14 73.19 23.9
-20 -14 10 136.19 24.6
-14 -20 -10 126.39 25.6
-14 -20 -10 98.19 21.2
-10 14 20 113.79 25.2
20 -14 -10 143.79 27.5
-20 -10 -14 98.99 23.3
-20 -10 -14 91.09 21.8
14 -10 -20 80.99 24.3
-14 -10 20 54.69 22.1
10 -20 -14 129.19 28.4
20 10 -14 112.29 23.6
10 14 -20 110.89 24.4
-10 -20 -14 143.89 24.2
20 -10 -14 84.69 24.8
-20 -10 14 139.29 24
-14 10 20 112.49 23.7
-14 -10 -20 124.99 27.7
-10 -20 -14 100.39 28
-10 20 14 62.79 21.2
10 20 -14 142.09 25.4
14 10 -20 103.89 24.6
20 14 -10 127.59 23.5
-20 -14 -10 72.79 22.1
-10 14 -20 85.79 16.7
-20 -14 -10 51.89 21.4
10 -14 -20 123.99 27.3
14 -20 -10 120.39 28.4
-14 -10 -20 92.09 21.1
-20 14 10 107.29 25.3
-14 -20 10 99.09 22
14 -12 -20 145.49 27.2
-12 14 20 103.39 26.2
-12 -20 14 143.99 28
-14 -12 20 138.99 26.7
12 -20 -14 148.49 28.7
20 -14 -12 119.29 28.2
-12 -14 -20 131.59 25.7
12 14 -20 141.29 27.5
-20 12 14 80.39 26.7
-14 -20 -12 172.88 27.1
-20 -12 -14 84.79 24.5
14 20 -12 94.59 24.6
-14 20 12 143.89 27.9
20 12 -14 101.49 23.9
-12 -14 -20 181.98 31.4
-14 -20 -12 73.49 23.5
-20 -12 -14 61.39 23.9
20 -12 -14 96.79 27.5
-14 -12 -20 127.29 25.2
-20 -14 -12 125.19 25.7
-12 20 14 92.99 26.3
-20 14 12 75.19 26
-12 -14 20 63.89 24.7
-14 12 20 67.39 24.2
12 20 -14 164.28 26.1
-20 -14 -12 80.59 24.8
-14 -20 12 179.58 28
-20 -12 14 117.09 26.4
20 14 -12 122.29 25.8
14 12 -20 140.89 27.6
-12 -20 -14 176.68 28.2
12 -14 -20 124.69 26.6
14 -20 -12 140.69 30.4
-14 -12 -20 174.98 31.8
-12 -20 -14 172.48 26.1
-14 -20 -14 -0.1 10.7
14 -20 -14 -0.3 13.9
-14 -20 14 5.5 8.5
-14 -14 20 12.4 12
14 -14 -20 12.7 13.6
-20 -14 -14 1 9
20 14 -14 -4.9 5.9
-20 -14 14 -2.7 5.5
-20 14 14 -5 7.6
-14 -14 -20 0.8 11.2
-14 -14 -20 1.2 7.4
20 -14 -14 10.2 13.2
14 20 -14 -5.8 5.8
-14 14 20 5.5 8.6
-14 20 14 -5.3 7.8
-14 -20 -14 4.3 6.2
14 14 -20 -3.3 6.8
-20 -14 -14 1.8 8.3
-16 0 20 1 9.8
0 -20 -16 -7 6.8
-16 0 -20 5.9 6
0 20 -16 10.2 8.8
0 20 16 6.8 8.9
16 0 -20 2.7 7.6
20 16 0 11.3 9.3
0 16 -20 8.4 9.2
0 -20 16 6.1 9.5
-20 0 16 -2.3 6.8
-16 -20 0 3.3 8
-20 0 -16 6.6 6.3
0 16 20 -4.2 8.7
20 0 -16 3.9 8.1
0 -16 20 7.2 12
0 -16 -20 -1.2 11
-16 0 -20 -3.9 8
-20 0 -16 7.6 7.9
-20 -16 0 6 8.6
-20 2 16 3.5 9.8
2 -20 -16 2.1 11.8
-16 20 2 11.7 9.3
2 20 16 -0.9 8.6
-20 -2 -16 11.3 7.6
-20 16 -2 7.2 5.9
16 20 -2 4 9.2
-20 -16 2 5.4 9.1
-2 16 20 -6.9 7.7
-16 -20 -2 4.3 8.3
2 -16 20 7.2 11.2
2 16 -20 15.5 11.3
-16 -2 20 3.4 10.1
-16 2 -20 1.5 7.5
-16 2 -20 6.4 6.2
-2 20 -16 6.8 8.1
20 16 2 10.7 8.8
20 2 -16 8.3 8.8
-2 -20 16 16.8 10.5
-20 -2 -16 12.6 10.5
-16 -20 -2 10.9 8
16 -2 -20 11.6 11.5
-2 -16 -20 15.8 14.2
-20 2 -16 16.7 5.5
2 -16 -20 -0.4 11.4
-20 -2 16 11.1 11.1
-20 -16 -2 7.2 7.5
20 -2 -16 10.1 12
-20 2 -16 5 5.6
16 2 -20 10.3 8.9
20 16 -2 6.1 9.7
-2 16 -20 9.5 9.3
-16 -20 2 5.6 7.1
-20 16 2 2.5 8.2
-16 -2 -20 -2.4 8.5
-16 -2 -20 14.6 7.9
2 16 20 5.1 7.7
-2 -20 -16 5.1 9.5
-16 2 20 1.7 10.6
-2 20 16 8.1 9.7
2 -20 16 14.4 10.2
2 20 -16 4.4 8.1
-2 -16 20 8.6 11.8
-16 4 -20 188.28 31.6
4 16 -20 254.17 39.1
16 20 -4 189.98 35.1
-16 -20 -4 212.58 35.8
-4 16 20 253.17 38.9
20 4 -16 193.78 37
4 -16 20 223.28 37.7
-4 20 -16 172.88 34.5
16 -4 -20 138.29 35.7
-4 -16 -20 149.79 37.4
-4 -20 16 213.58 38.6
-20 -16 4 207.28 38.2
-16 -4 20 139.69 35
-16 4 -20 218.98 32.7
-20 4 16 304.57 41.5
-20 -4 -16 240.28 36
4 -20 -16 222.48 38.8
-16 -20 -4 187.78 36.5
-16 20 4 203.58 37.8
-20 -4 -16 195.88 37.5
-16 -4 -20 248.38 40.3
-20 -4 16 226.78 37.7
20 16 -4 174.68 35.8
-16 -4 -20 212.18 36
-20 16 4 223.58 38.1
-4 -16 20 194.78 38.8
-4 16 -20 209.48 35.8
-16 4 20 231.48 39.1
4 20 -16 157.68 36.2
16 4 -20 218.68 37.2
4 -16 -20 149.09 37.8
4 -20 16 213.78 37
4 16 20 258.47 38.8
20 -4 -16 237.98 39.2
-6 16 20 150.18 31.8
-16 -6 20 172.98 34.4
-6 -16 -20 122.59 32.4
-16 -20 -6 222.88 34.1
-16 -20 -6 219.38 34.6
16 20 -6 194.38 33.3
6 -20 -16 193.58 36.7
20 6 -16 161.28 33.8
-16 20 6 250.47 37.5
-20 6 16 158.58 34.7
16 -6 -20 214.38 36.5
6 -16 -20 116.79 31.7
-20 16 6 236.68 36.4
-6 -20 -16 143.89 34.3
-20 -16 -6 233.38 34.7
-16 -20 6 138.29 31.9
-6 -20 -16 171.78 31.6
16 6 -20 162.78 33
6 16 20 136.29 31.9
-6 -16 20 246.48 38.1
-20 -16 8 51.09 19
-16 -20 -8 46.8 19.2
-20 8 16 86.49 23.9
16 -8 -20 116.19 26
-20 -8 -16 102.19 21.9
-8 -16 -20 45.1 21
20 8 -16 78.19 22.1
-16 -20 -8 131.89 23.4
-16 -8 20 110.49 24.5
-16 20 8 64.79 21.8
8 -20 -16 68.89 23.7
16 20 -8 124.49 22.4
-20 -8 -16 89.29 23.9
-8 -20 16 100.19 28.2
-8 16 20 85.69 22.4
8 16 -20 142.99 25.1
-16 -20 8 78.39 21.8
8 20 -16 95.29 21.2
8 16 20 68.39 20.4
8 -16 -20 87.59 24.3
-16 -8 -20 136.99 27.9
16 8 -20 43.2 19.3
-20 -16 -8 108.59 23.6
20 16 -8 104.69 20.9
16 -20 -8 61.39 23
-16 -8 -20 127.79 22.9
20 -8 -16 126.39 24.9
-16 8 20 109.89 25.1
-8 -20 -16 166.58 25.7
-8 -20 -16 89.69 21.6
-8 20 16 122.39 22.7
-20 -16 -8 100.99 20.6
-20 16 8 78.59 22.8
-16 -10 20 2.4 10.2
-10 -20 16 0.5 8.9
-10 -16 -20 15.6 12.7
16 -10 -20 -1.1 11.6
-20 -10 -16 -2.1 6.7
-10 16 20 -10.6 7.1
10 16 -20 -3.7 9.2
-16 -20 -10 1.3 7.5
-20 -10 -16 8.7 10.6
-16 20 10 -9.2 7.9
-10 -16 -20 1.1 5.9
20 -16 -10 -4 10.8
-20 10 16 1.8 9.8
-16 -20 -10 6.2 10.8
10 -20 -16 -1.7 12.1
-20 -16 10 8.7 9.8
20 10 -16 4 10.3
16 20 -10 3.6 9.2
-20 -16 -10 -1.2 7.1
16 -20 -10 -1.3 12.9
-16 -10 -20 5.1 6.8
20 -10 -16 10.8 12.4
16 10 -20 -2.7 9.3
-16 10 20 7.3 9.2
-20 16 10 5.3 9
-10 -20 -16 -1.2 7.5
-10 -20 -16 3.7 9.2
-10 20 16 4.9 8.2
10 20 -16 -0.2 9.1
10 -16 -20 -5.2 11.3
-20 -10 16 14.9 11.5
-10 -16 20 -1 10.7
20 16 -10 6.8 9.6
-16 -10 -20 1 10.6
-20 -16 -10 6.1 10.6
-16 -20 10 4 8.8
-16 20 12 -7.7 8.3
-12 -16 -20 -3.3 6.6
16 20 -12 -3.5 12.1
-12 -16 -20 -7.4 10
-20 -12 -16 10.2 10.8
-12 -20 16 -0.8 8.2
20 -16 -12 8.8 13.5
-16 -12 20 0.1 7.4
-12 16 20 -2 8.8
16 -12 -20 5 12.1
12 16 -20 4.1 7
-20 12 16 -3 9.2
-20 -16 12 6.4 8.4
12 -20 -16 -2.5 9.6
-16 -20 -12 7.7 11
-16 -20 -12 3.7 7.6
20 12 -16 -1.9 8.6
-20 -12 -16 3.3 8
20 16 -12 -3.5 6.3
-20 16 12 2.5 9.4
-16 -20 12 10.4 9.3
-20 -12 16 -1.8 5.7
-20 -16 -12 2.1 7.6
-16 -12 -20 10.5 12.7
12 -16 -20 -6.8 8.9
16 -20 -12 -8.8 11.5
-16 -12 -20 -3 6.8
-12 -16 20 2.1 11.3
20 -12 -16 5.3 12.3
-20 -16 -12 6.9 10.4
16 12 -20 1.9 7.5
-16 12 20 -2.9 8.4
-12 20 16 -0.6 5.9
-12 -20 -16 0.5 7
12 20 -16 -3.6 5.7
-12 -20 -16 0.5 10.5
-20 -16 14 27.9 15.7
16 -14 -20 71.59 21.5
16 20 -14 25.3 15.3
-14 16 20 76.99 21.7
-20 14 16 40 18.7
-14 -16 -20 95.59 19.7
-14 -20 16 65.69 18.5
14 -20 -16 54.59 22.2
-16 -20 -14 130.79 25.7
14 16 -20 87.99 20.3
-16 -14 20 74.29 20.2
-20 -14 -16 51.89 16.8
-14 -16 -20 43.4 19.5
20 14 -16 68.69 18.6
-16 20 14 66.19 20.6
-16 -20 -14 51.19 16.4
20 -16 -14 68.19 22.7
-20 -14 -16 45.1 17.6
20 -14 -16 61.89 20.2
-14 -16 20 56.39 20
-20 16 14 66.59 20.5
20 16 -14 42.5 15.2
-16 14 20 73.69 21.4
14 20 -16 66.49 18.3
16 -20 -14 89.19 25.1
-14 -20 -16 61.99 17.6
-16 -14 -20 81.59 23.2
14 -16 -20 78.19 23.1
-16 -14 -20 61.39 18.1
-14 -20 -16 30.2 17.3
-20 -14 16 52.89 18.1
-14 20 16 90.59 21.7
-20 -16 -14 66.99 19.4
-16 -20 14 53.29 17.6
-20 -16 -14 62.79 18.4
16 14 -20 40.9 15.3
-16 16 20 137.89 29.3
-20 16 16 131.59 30.3
16 20 -16 135.89 29
-16 -16 -20 182.68 30.7
20 16 -16 87.89 25.7
-16 20 16 115.39 29.2
16 -16 -20 168.28 34.9
-20 -16 -16 118.89 27.4
-16 -16 20 99.89 27.5
20 -16 -16 197.38 34.9
-16 -20 -16 176.58 32.6
-20 -16 16 135.89 28.4
-16 -16 -20 198.78 34.6
16 -20 -16 150.78 35.4
-16 -20 16 178.88 29.8
-20 -16 -16 143.59 31.8
-18 0 -20 67.89 18.7
-20 0 -18 82.49 16.8
0 -20 -18 97.69 24.4
-20 -18 0 58.99 19.7
-20 0 18 64.09 20.9
-18 -20 0 46.9 18.4
20 18 0 84.69 21.3
0 20 18 87.99 22.1
0 -18 20 95.99 23.8
-20 18 0 99.39 19.6
-18 0 20 76.49 20.7
18 0 -20 90.89 20.4
20 0 -18 80.59 22.4
0 18 -20 88.89 21.1
0 -20 18 96.89 23.5
-18 0 -20 88.19 17.9
0 18 20 102.69 20.1
0 20 -18 99.59 22.8
18 -2 -20 16.7 12.5
-2 -18 -20 39.3 14.4
-20 -18 2 9.2 9.5
-20 -2 -18 39.1 12.9
-2 18 20 8.7 9
-18 -2 20 -0.8 9.7
2 18 -20 33.6 13.1
-20 2 18 28.9 14.5
18 20 -2 10.7 10.1
-2 -20 18 20.5 13.6
20 2 -18 40.6 13.9
-18 2 -20 31.4 8.4
-18 2 -20 20.4 8.9
-20 -2 -18 24.9 9.3
2 -20 -18 10.3 13.4
-18 20 2 22.8 10.9
2 20 18 5.3 9.8
-18 -20 -2 14.5 11
-2 20 -18 28.9 11.4
2 -18 -20 24.2 12.7
-2 20 18 25.2 12.2
-2 18 -20 24.4 11
-2 -18 20 17.3 13.6
-18 -20 2 26.7 11.1
20 18 -2 26.9 12
-20 2 -18 25.1 7
2 20 -18 15.8 11.2
-18 -2 -20 16.6 9.3
20 -2 -18 46.6 16.1
18 2 -20 9.1 11.2
-20 2 -18 10.8 7.2
-20 18 2 17.8 10.9
-20 -2 18 29.8 14.1
-20 -18 -2 26.8 12.4
-18 2 20 38 13.6
-2 -20 -18 53.09 18.2
-18 -2 -20 44.4 14.3
2 18 20 24 12.2
18 20 -4 8.3 7.9
-20 4 18 3.3 10
-18 -20 -4 7.4 9
4 18 -20 17.8 10.4
4 -20 -18 4.6 9.8
-18 20 4 9.8 9.7
4 20 18 13.7 10.3
18 -4 -20 -3.6 6.7
-4 -20 18 12.1 11
20 4 -18 9.8 10.4
-18 -4 20 3.9 8.2
-18 -20 -4 11.2 10
-20 -18 4 7 8.2
-20 -4 -18 13.1 8.6
-4 18 20 6.7 9.6
-4 20 -18 18.3 9.5
-20 -4 -18 8.3 11.1
4 -18 20 1.2 8.8
4 -20 18 7.5 10
4 18 20 1.1 8.4
20 18 -4 11.9 8.4
4 -18 -20 8.3 10.1
-4 18 -20 9.8 8.3
-4 -18 20 -3.2 10.3
-18 -4 -20 15.8 11.4
-4 20 18 19.9 11.8
-18 4 20 15.1 10.2
-4 -20 -18 26.7 12.7
18 4 -20 8.9 10.6
-20 -4 18 6.1 8.1
-18 -20 4 7.9 8.9
4 20 -18 19.7 11.5
-20 -18 -4 12.3 9.4
20 -4 -18 12.5 12.2
-20 -18 -4 3.8 7
-6 18 20 15.9 10
20 6 -18 11.5 11.5
-18 -20 -6 37.4 14.9
-20 -18 6 16.9 11.5
-20 -6 -18 28.8 13.8
-6 -20 18 30.8 14.7
-18 -6 20 20.7 13.5
-18 -20 -6 34.4 12.9
-20 6 18 22.7 13.7
18 -6 -20 35.8 15.2
-6 20 -18 30 10.1
18 20 -6 15.9 11.7
6 -20 -18 10.5 14.1
-18 20 6 32.3 13.3
-6 -18 -20 13.7 11.7
6 18 -20 23.5 13.2
-20 -18 -6 32.3 13.9
-20 -18 -6 28.7 12.7
20 18 -6 20.7 12.3
-18 -6 -20 52.99 14.6
-20 18 6 24.5 12.8
-20 -6 18 21.8 13.1
-6 -20 -18 13.6 13.1
-18 -6 -20 34.7 16.6
18 6 -20 31.8 13.7
20 -6 -18 17 12.3
-6 18 -20 36.4 11.2
-18 -20 6 42.8 13.9
-6 -18 20 31.5 15.5
6 20 -18 28.7 13.6
-18 6 20 49.2 16.8
6 -18 -20 29.8 16.2
-6 20 18 17.1 12.6
6 18 20 33.1 12.5
-20 -8 -18 -8 7.2
8 -20 -18 2.9 12.7
18 -8 -20 -2 10
-20 8 18 -1.2 9
-18 -20 -8 2 8
-8 -18 -20 -6.4 10.6
-8 -20 18 5.2 11.1
18 20 -8 8.9 9.6
8 18 -20 -7.1 8.6
-18 -20 -8 0 7.2
20 -18 -8 -4.6 8.2
-20 -18 8 1.1 6.8
20 8 -18 -4.3 9.1
-18 -8 20 1.5 10.7
-20 -8 -18 -6.4 5.3
-18 20 8 2 9.5
-8 20 18 3.7 6.8
-20 -18 -8 -2.1 5.9
20 -8 -18 8 10.3
8 20 -18 -2.6 7.9
18 -20 -8 -7.6 8.5
-18 -8 -20 0.2 10.8
-20 -8 18 -1.3 9
-8 -18 20 9.1 12.4
-18 -8 -20 4.5 7.6
-20 18 8 -1 7.6
-18 8 20 3.9 10
18 8 -20 4.3 9.7
20 18 -8 10.5 10.2
-8 -20 -18 3.3 6.1
-18 -20 8 0.9 7.4
8 -18 -20 1 8.6
-8 -20 -18 -4.3 10.7
-20 -18 -8 11.3 9
-20 10 18 69.99 20.2
18 -10 -20 45.3 15.7
18 20 -10 52.99 15.7
20 -18 -10 52.59 19.8
-18 -10 20 11.1 11.6
-20 -18 10 22.5 12.9
-10 -18 -20 93.09 22.5
10 18 -20 25.9 14.1
-18 -20 -10 46.4 14.8
-10 18 20 40.4 16.2
-18 20 10 48.7 17.6
-18 -20 -10 43.1 16.2
-10 -18 -20 37.8 14.6
-10 -20 18 57.79 19
-20 -10 -18 34.8 13.5
20 10 -18 82.89 19.3
-20 -10 -18 26.6 15.8
10 -20 -18 41 16.4
-18 10 20 26.1 14
18 10 -20 41.7 16.2
-20 -10 18 36.4 14.9
-20 -18 -10 11.5 13.5
10 20 -18 56.19 17.1
20 -10 -18 55.29 19.1
-18 -20 10 60.99 17.2
20 18 -10 80.09 16.1
-18 -10 -20 71.29 18.5
-10 -20 -18 43.4 14.9
-10 -18 20 69.09 20.8
-10 20 18 48.4 17
-18 -10 -20 39.6 18.1
-20 -18 -10 46 15.4
-10 -20 -18 24.7 15.3
-20 18 10 41.4 16.4
10 -18 -20 36.2 18.4
18 -20 -10 65.99 21.5
-18 -20 -12 63.69 16.6
-20 -12 -18 45.8 16
20 12 -18 58.79 16.7
18 20 -12 32.1 14.9
20 -18 -12 64.99 21.8
-20 -18 12 52.29 16
-18 20 12 49.3 18.3
-12 -18 -20 73.69 21.7
-12 -18 -20 44.4 15.8
-18 -20 -12 66.49 20.1
-12 18 20 82.59 20.5
12 18 -20 23.2 14.6
-20 -12 -18 72.69 21.8
-20 12 18 53.59 18.2
-18 -12 20 46.5 18.1
18 -12 -20 31.9 17.5
12 -20 -18 30.2 17.9
-12 -20 18 57.89 19.1
-20 18 12 76.49 21.4
-18 -12 -20 42.4 15.4
-12 -20 -18 25.6 14.2
-18 12 20 63.29 20.2
-12 20 18 35.6 16.7
-12 -20 -18 52.09 19.9
12 20 -18 67.39 19.5
-18 -12 -20 65.69 21.4
12 -18 -20 36.7 19
-20 -18 -12 58.89 17.6
18 -20 -12 53.39 22
-12 -18 20 59.59 19.9
20 -12 -18 94.59 23.4
18 12 -20 54.89 17.1
-18 -20 12 74.69 18.8
20 18 -12 61.79 17.7
-20 -12 18 50.79 18.3
-20 14 18 -9.4 9.1
20 14 -18 10.9 11.7
-18 -20 -14 -5 6.5
-20 -14 -18 -2.5 8
-18 20 14 15.1 11.8
-14 -18 -20 0 19.5
-14 -18 -20 12 10
20 -18 -14 0.4 13
-14 18 20 13.3 11.1
-18 -14 20 3.4 10.9
14 18 -20 8.4 11.3
-20 -14 -18 7.8 13
18 20 -14 4.5 10.4
14 -20 -18 0.6 13.6
18 -14 -20 10.3 13.9
-14 -20 18 16.6 12.3
-18 -20 -14 15.9 13
-20 -18 14 14.1 9.8
-18 -20 14 13.3 7.6
-20 -18 -14 4.3 12.2
-20 -14 18 6.6 11.2
18 -20 -14 21.5 16.2
-20 18 14 9.5 12
-14 20 18 7.1 9.1
20 -14 -18 18.4 14.9
14 20 -18 16.5 12
-20 -18 -14 13 9.8
-18 -14 -20 11.6 9.5
20 18 -14 15.8 11.6
14 -18 -20 -4.9 10.2
-18 14 20 -1.2 10.4
-14 -20 -18 3.9 10.4
-14 -20 -18 16.1 11.2
-14 -18 20 6.2 10.3
-18 -14 -20 10.9 13.1
20 -18 -16 67.89 22.1
-18 -20 -16 95.89 18.9
-16 -18 -20 39 19.9
-20 16 18 47.8 19.5
16 18 -20 72.09 19.7
-16 18 20 37 18.5
18 20 -16 53.49 17.6
-18 20 16 42.8 18.6
20 16 -18 37 15.7
-20 -16 -18 77.49 20.4
-16 -20 18 46.3 17
-18 -20 -16 29.3 18.5
16 -20 -18 70.79 22.4
-20 -16 -18 98.59 24.2
-16 -18 -20 78.79 20.4
-20 -18 -16 80.49 23.9
-20 18 16 60.79 22
-18 -16 -20 111.99 26.4
20 -16 -18 71.59 22.9
18 -20 -16 109.29 26
-16 20 18 70.69 21.3
20 18 -16 37.8 16.9
16 20 -18 74.29 20.5
18 16 -20 59.39 18.8
-20 -18 -16 60.89 18.3
-16 -18 20 70.99 21.7
-16 -20 -18 71.29 19.1
16 -18 -20 68.79 23.6
-18 16 20 59.09 19.9
-18 -16 -20 77.69 21.3
-18 -20 -18 0 7.7
-18 -18 -20 -3.2 13.6
-18 -18 -20 10.9 8.6
-18 20 18 3.9 10.4
18 -20 -18 -5.2 13
-18 -20 -18 -9.2 8.2
-20 18 18 -7.2 9.4
-20 -18 -18 0.9 13.5
-20 -18 -18 14.2 9.4
20 -18 -18 7 14.5
18 -18 -20 0.2 14.1
0 -20 20 401.26 68.59
0 20 20 394.66 66.79
20 0 -20 429.56 67.49
0 -20 -20 428.96 68.39
0 20 -20 433.26 67.69
2 20 20 234.78 45.5
2 20 -20 202.08 45.4
2 -20 20 226.68 47.1
2 -20 -20 179.18 45
-2 20 20 351.26 48.4
-20 -20 -2 315.37 47
-20 -20 2 203.48 44.7
-20 -2 -20 314.07 47.5
-20 -2 20 356.46 49.8
-20 2 20 362.26 49.3
-2 -20 -20 266.07 48.1
-2 -20 20 260.27 49.1
-2 20 -20 346.67 48.2
20 -2 -20 284.57 47.9
-20 -4 -20 126.99 24.5
-20 -4 20 152.48 27.4
-20 4 20 69.39 25.7
-4 20 -20 145.19 26
-4 20 20 90.39 24.3
20 20 -4 127.69 24.7
20 4 -20 139.49 25.8
20 -4 -20 137.19 28.4
-20 -20 4 190.38 28.4
-20 -4 -20 118.39 27.4
-4 -20 20 117.09 28.8
4 20 -20 159.38 28.7
-20 -20 -4 136.79 26.5
-20 20 4 111.49 26.2
-4 -20 -20 74.99 26.8
4 -20 -20 102.99 27.7
20 -6 -20 62.09 18.5
-20 -6 -20 64.49 15.7
6 20 -20 22.7 13.2
-20 6 20 31.7 14.6
-20 20 6 35.6 15.2
20 6 -20 60.49 17.7
20 20 -6 53.39 14.9
-6 20 20 37.1 15.4
-20 -20 -6 50.99 17.1
-20 -6 -20 26.9 15.9
-6 -20 -20 35.1 17.6
-6 -20 20 41.4 17.6
-20 -20 6 52.69 15.9
-20 -6 20 15.8 11.9
-20 -20 -6 32.3 13.6
-8 -20 -20 55.29 19.4
-20 -20 -8 37.5 13.1
-20 20 8 73.69 19.2
8 -20 -20 54.39 19.7
8 20 -20 31 15
20 8 -20 88.99 20.1
20 20 -8 38.5 13.9
-20 -20 8 27.5 14.1
-20 -20 -8 24.3 14.4
-8 -20 -20 38.2 13.5
-8 -20 20 34.4 17.5
-8 20 20 21.7 13.5
-20 -8 -20 64.19 20.5
-20 -8 -20 64.89 16.5
-20 -8 20 40.7 15
-20 8 20 33.2 15.1
20 -8 -20 66.19 19.2
20 10 -20 153.88 33.4
-10 -20 20 206.18 38
-10 -20 -20 110.59 35
-10 -20 -20 150.88 32.8
20 -10 -20 244.28 39.2
-20 -20 -10 232.78 36.2
-20 -20 10 242.38 35.5
-20 -10 20 128.19 34.3
-20 10 20 170.88 37
-10 20 20 206.38 36.7
20 -20 -10 238.08 40
-20 -12 20 375.56 51.29
-20 12 20 291.17 51.39
-20 20 12 381.46 53.39
-12 -20 -20 292.47 51.89
-12 -20 -20 270.37 48
-12 -20 20 247.18 49.8
-12 20 20 207.28 46.7
12 -20 -20 267.87 51.29
20 -12 -20 284.07 51.09
-20 -20 -12 253.87 49
-20 -20 12 375.56 50.89
-20 -12 -20 347.77 50.29
20 20 -12 195.18 45.4
14 -20 -20 30.8 19.9
20 -20 -14 60.29 21.8
20 -14 -20 55.19 21
-20 20 14 42.6 17.4
-14 -20 -20 24.5 17.4
-14 -20 20 53.69 18.8
-20 -14 -20 78.49 31.2
-20 14 20 62.79 20.5
14 20 -20 69.09 18.5
-14 20 20 22 15
-20 -20 -14 18.6 15.6
-20 -20 -14 59.19 17.1
-20 20 16 -14.3 8.1
-16 -20 -20 7.8 13
-20 -20 -16 -5.1 9.5
-20 -20 -16 11.1 7.8
-20 -16 -20 -5.8 11.8
20 -16 -20 -1.3 12.5
20 -20 -16 -21.9 11.4
-21 -1 -1 1240.08 172.08
-21 -1 1 1250.07 172.58
-21 1 -1 1170.48 171.48
-21 1 1 1220.88 173.18
-1 -21 1 1167.98 172.68
-1 -21 1 1163.08 171.58
-1 -1 21 1221.98 173.28
1 -21 -1 1094.19 172.08
1 -21 -1 954.1 170.58
1 -21 1 1296.07 173.28
1 -21 1 1239.58 171.78
1 -1 -21 1116.89 171.88
1 -1 21 922.41 171.48
1 1 21 1164.48 172.98
21 1 -1 1342.37 171.98
-3 -21 -1 459.05 58.19
-1 -21 3 341.87 57.99
1 3 -21 445.66 59.59
21 1 -3 402.46 57.89
3 -21 1 314.77 57.69
3 -21 1 377.36 57.49
-3 -21 -1 386.96 59.09
-1 -3 -21 269.57 57.19
-1 3 21 258.47 57.49
1 -21 -3 422.66 58.09
3 1 21 310.87 57.69
1 -21 -3 310.77 57.89
-21 3 -1 380.66 57.69
-3 1 -21 352.86 58.39
1 -3 21 337.87 58.29
-1 -21 3 373.36 57.09
-21 -1 -3 343.87 56.59
21 3 1 366.36 57.59
-21 1 3 281.57 56.79
-21 -3 1 307.57 56.69
1 3 21 427.16 60.19
21 -1 -3 379.86 57.69
-21 -3 -1 316.47 56.99
-21 3 1 410.96 58.29
-3 1 21 380.76 59.49
-1 -21 -3 400.16 57.49
1 -21 3 411.86 59.59
1 -21 3 289.07 56.09
3 -1 21 392.86 58.99
21 3 -1 363.06 57.19
-21 -1 3 374.76 58.19
-3 -21 1 284.67 56.99
-3 -21 1 426.56 58.09
-1 -3 21 428.86 60.29
-21 1 -3 369.86 56.99
3 1 -21 401.06 58.09
3 -21 -1 318.07 58.09
3 -21 -1 301.57 56.39
-3 3 -21 101.49 25.9
21 -3 -3 126.89 25.5
21 3 -3 148.39 27.5
-3 3 21 143.39 27.8
3 -21 -3 133.79 28.8
3 -21 -3 137.29 26.5
3 -21 3 124.39 27.5
3 -21 3 136.89 26
3 -3 21 165.88 28.9
3 3 -21 149.49 26.8
3 3 21 110.49 27.1
-21 3 3 124.49 27.6
-3 -21 -3 136.09 28.3
-3 -21 3 123.09 27.2
-3 -21 3 148.49 25.9
-3 -3 21 129.69 28.7
-21 -3 3 167.78 28.9
-21 3 -3 119.49 25.3
-21 -3 -3 124.29 25.6
-21 -5 1 119.39 28.2
5 -1 -21 87.79 27.7
1 5 -21 145.99 28.8
-21 1 5 174.08 30.7
5 1 21 160.68 29.9
21 5 1 183.38 29.2
1 -21 -5 159.48 29.5
1 -21 -5 184.08 28.8
5 -21 1 155.68 30.1
-1 -21 5 122.89 27.3
-1 -21 5 192.28 30.2
-21 -1 -5 161.48 27.9
-1 5 21 99.09 28.6
1 -5 21 166.58 32.3
21 1 -5 137.79 28.5
-1 -5 -21 144.49 28.7
-21 5 -1 128.29 27.5
-5 -21 -1 162.68 28.5
-5 -21 -1 167.88 28
-1 5 -21 111.99 27.4
-5 -21 1 154.08 29.7
5 -1 21 147.49 29.8
5 1 -21 97.79 28.2
1 -21 5 192.08 31
1 -21 5 147.59 27.7
-1 -5 21 113.89 29.3
-21 1 -5 162.58 27.8
-5 -1 -21 185.78 31.8
-21 5 1 132.09 28.6
21 5 -1 150.88 28.4
21 -1 -5 180.18 29.7
-21 -1 5 144.29 29.7
-21 -5 -1 150.68 28.8
-1 -21 -5 137.49 30
5 -21 -1 138.09 27.6
5 -21 -1 150.98 29.9
-1 -21 -5 195.98 29.5
1 5 21 109.19 28.7
-5 -21 -3 24.5 12.5
-5 -21 -3 41.5 15.7
-21 5 -3 41.7 12.7
3 -21 -5 62.59 18.2
3 -21 -5 40.6 13.6
-21 3 5 61.89 17.5
3 5 -21 32.4 14.2
-21 -5 3 44.2 14.7
-5 -3 21 31.3 13.7
-5 3 -21 46.7 14.8
-3 5 21 35.9 16
-3 -21 5 48.3 16
5 3 21 46.9 15.2
21 3 -5 26.7 13.3
-21 -3 -5 54.89 14.6
-3 -21 5 24.8 12
5 -21 3 46.7 13.8
-3 -5 -21 48 15.7
21 5 3 41.6 19.6
5 -3 -21 64.09 17.8
3 -5 21 43.8 15.8
5 -21 -3 39.5 16.3
3 5 21 43.6 15.8
-3 5 -21 53.39 15
3 -21 5 63.79 17.7
5 -3 21 53.09 16
5 3 -21 27 12.6
21 -3 -5 45.7 15.1
-3 -5 21 52.29 17
3 -5 -21 56.49 16.5
-21 5 3 31.3 14.6
-5 -3 -21 31.9 14.8
-5 3 21 44.5 17
-3 -21 -5 56.39 16
-3 -21 -5 69.89 14.6
-5 -21 3 38 13.9
-21 -3 5 55.49 16.1
-21 -5 -3 57.79 15.3
-21 3 -5 59.79 13.6
21 5 -3 36.2 14.2
-5 -21 3 76.49 18.4
3 -21 5 42.7 13.7
5 -21 -3 41.6 13.7
21 5 -5 5.9 9.8
21 5 5 6.7 7.7
5 -21 5 -3.9 5.6
5 -5 21 13.4 9.9
5 5 -21 5.4 7.9
5 5 21 3.2 9.4
21 -5 -5 6.9 7.6
-5 5 21 14 9.5
5 -21 -5 19.1 12.2
-5 -21 5 4.7 6.4
5 -21 5 7.4 8.2
5 -5 -21 7.4 12
-5 5 -21 8.4 8.6
-5 -21 -5 2.5 6.6
-21 5 -5 13.3 7.9
-5 -5 -21 3.9 10.7
-5 -5 21 6.9 10.9
-21 -5 -5 15.8 9.7
-21 5 5 14.8 11.6
-5 -21 -5 2.3 10.1
-21 -5 5 8.6 10.2
-21 -1 -7 13.2 8.9
-21 -7 1 5.2 8
21 1 -7 21.2 11.9
7 -21 1 9 8.6
-7 -21 -1 0.2 7.2
7 -21 1 -4.7 6.8
1 -7 21 8 10.9
1 7 -21 20.4 11.6
-21 7 -1 17.1 9.5
-1 7 21 26.4 12.8
-7 -1 21 5.3 8.5
-7 1 -21 25 12.8
-1 -21 7 21.4 12
-1 -21 7 23.3 10.6
1 -21 -7 18.4 10.9
1 -21 -7 -4.3 6.9
7 -1 -21 23.2 12.7
7 1 21 23 11.7
21 7 1 11.8 9.7
-21 1 7 16.6 12
-1 -7 -21 33.4 13
-7 -21 -1 -0.2 9.6
-21 1 -7 13.6 7.3
7 -21 -1 16.4 12
-21 1 -7 22.3 8.6
-7 -1 -21 13.4 10.9
7 -1 21 19.8 11
-7 1 21 2 10.9
1 -21 7 8.6 10.3
7 1 -21 27.1 13.2
-1 -7 21 11.8 11.4
-21 -1 7 27.4 11.4
-21 -7 -1 14.5 10.4
1 -7 -21 28.8 12.2
-21 7 1 15.2 11
-1 -21 -7 13.5 10.6
-1 -21 -7 16.6 9.5
21 -1 -7 18.7 11
-7 -21 1 11.5 8.6
-7 -21 1 9.2 9.2
1 -21 7 21.7 10.6
-1 7 -21 17.8 12.2
1 7 21 14.9 11.1
7 -21 -1 10.7 8.9
21 7 -1 10 9.5
-21 7 -3 2.5 7.3
7 -3 -21 -2.7 10.6
-7 -21 -3 3.4 9.7
-7 -21 -3 8.9 8.7
-7 -3 21 7.9 11.3
3 -21 -7 11.9 12.3
-3 -7 -21 8.8 9.7
3 -7 21 3.9 9.9
3 7 -21 5.2 9.3
7 -21 3 5.7 7.1
7 -21 3 11.9 8.9
21 3 -7 8 10.2
-21 -3 -7 7.9 7.6
-3 -21 7 7.1 9.1
-21 3 7 0.4 9.9
-7 3 -21 10.8 9.9
-21 -3 -7 4.4 7.9
-3 7 21 5.4 10.2
-21 -7 3 2.1 9
7 3 21 0 8.4
21 -7 -3 0.3 4.7
21 7 3 2.4 8.1
7 -3 21 9.4 9.3
-7 -21 3 9.9 8.6
-3 -21 -7 6.1 17.1
-3 -21 -7 1.7 6.6
3 -21 7 -2.5 6.4
3 7 21 16.5 9.7
3 21 -7 2.4 7.9
7 3 -21 17.7 11.5
-21 7 3 6 8.8
21 7 -3 7.6 7.7
-21 -3 7 13.6 11.4
-21 3 -7 3.4 5.5
-21 3 -7 10.8 7.3
-3 -7 21 10.4 10.9
-3 7 -21 5 7.8
3 -7 -21 3.9 11
7 -21 -3 -0.3 10.5
21 -3 -7 10.7 10.3
3 -21 7 8.5 9.2
-7 -3 -21 11.6 11.2
-21 -7 -3 11.4 9.9
7 -21 -3 -0.5 7.2
-7 3 21 12 10.9
-21 7 -5 54.89 12.7
-7 -21 -5 30 14.6
-21 -7 5 49.6 16.9
5 -21 -7 48.3 18.8
5 7 -21 77.49 19.9
7 5 21 69.89 18.5
7 -5 -21 67.89 19.3
-21 -5 -7 98.89 18.8
-7 -5 21 32.8 15.5
-7 5 -21 85.09 18
-7 21 5 80.09 19
-5 7 21 33.7 16.1
-21 -5 -7 62.69 16.8
5 -7 21 56.49 17.1
7 21 -5 81.29 18.1
-21 5 7 74.29 19.5
21 7 5 99.69 18.6
-7 -21 -5 32.3 14.6
7 -21 5 74.39 16.2
21 5 -7 56.69 17.3
-5 -21 7 65.49 17.7
7 5 -21 52.09 17.1
-7 5 21 64.09 18.1
5 -7 -21 76.49 20.3
5 21 -7 59.39 16.7
-5 21 7 77.89 19.3
-7 -5 -21 58.09 19.5
5 7 21 57.99 17
21 -5 -7 45.1 22.7
-5 -21 -7 45.3 15
-7 -21 5 47.6 15.2
-5 -7 21 69.09 19.8
-21 -5 7 29.5 16
-21 5 -7 61.99 12.1
-5 -21 -7 40 15.5
5 -21 7 67.09 16.8
7 -5 21 59.09 16.4
-5 7 -21 69.79 16.9
-21 5 -7 76.19 13.5
7 -21 -5 73.99 20.6
21 7 -5 70.29 17.9
-21 7 5 75.69 19.5
-7 7 21 164.58 40
-7 -21 -7 200.38 38.9
-7 21 7 270.27 41.2
7 -21 -7 238.98 42.3
-21 -7 -7 296.27 41.1
-21 -7 -7 276.67 41.1
-21 7 7 200.28 40.6
-7 -21 7 174.88 38.9
-7 -7 -21 327.57 44.6
-7 -7 21 239.08 41.7
7 7 21 202.98 40.5
7 21 -7 249.78 38.8
21 7 -7 200.38 39.9
21 -7 -7 195.08 39.4
-7 7 -21 242.88 38.8
-9 -1 21 428.56 58.09
-9 1 -21 342.47 56.49
-21 -1 -9 315.37 54.19
1 -9 21 340.47 57.39
1 9 -21 267.87 57.89
9 -21 1 387.16 55.49
21 9 1 395.96 57.19
-21 -1 -9 357.46 54.39
9 1 21 288.27 55.19
-21 -9 1 258.87 55.19
-1 -21 9 379.46 56.59
1 -21 -9 348.37 56.99
9 -1 -21 376.06 56.59
-21 9 -1 343.37 54.49
21 1 -9 341.17 56.69
-21 1 9 260.27 55.99
-9 -21 -1 396.86 56.29
-21 1 -9 385.66 54.39
1 9 21 252.47 55.49
-21 1 -9 360.16 53.89
9 1 -21 442.66 57.99
1 -21 9 342.27 55.89
9 -21 -1 331.37 54.69
-9 -21 1 383.96 56.29
-21 9 1 312.77 55.09
-9 -1 -21 320.17 56.39
-1 -21 -9 339.67 55.29
-21 -9 -1 442.66 58.19
9 -1 21 286.57 54.89
-1 -9 21 332.37 56.79
21 -1 -9 393.06 56.49
-21 -1 9 280.67 55.69
-1 9 -21 390.96 56.99
21 9 -1 421.26 57.39
-9 1 21 342.97 56.59
-21 9 -3 199.68 31.7
3 -21 -9 197.88 35.8
3 -9 21 156.08 33.9
3 9 -21 169.58 34.3
-3 -21 9 159.88 33.8
9 -21 3 166.88 32.4
-9 3 -21 193.98 34.4
-3 9 21 199.18 35.1
-9 -21 -3 217.78 34.8
-21 -9 3 175.48 34.2
-21 -3 -9 166.18 32.6
-21 -3 -9 191.48 32.9
-21 3 9 139.59 33.4
-9 -21 -3 247.58 36.2
9 3 21 201.58 35.8
21 9 3 148.39 33.3
21 3 -9 157.98 34.3
9 -3 21 169.88 33
-3 -9 21 209.78 36.7
-3 9 -21 224.98 35.1
3 -21 9 205.68 34.2
-21 -9 -3 148.69 33.3
3 9 21 194.48 35.3
9 -21 -3 208.58 37.4
21 -3 -9 209.58 36.1
-21 3 -9 189.08 30.6
-21 9 3 198.78 34.5
-9 -3 -21 233.38 36.5
-3 -21 -9 222.28 34
-3 21 9 181.68 34.3
3 -9 -21 211.88 35.3
-21 3 -9 203.98 31
-9 -21 3 194.48 34.2
21 9 -3 197.88 34.8
9 5 21 63.29 17.4
-9 -21 -5 61.89 15.8
-9 5 -21 60.49 15.3
-5 -9 -21 44.2 17.5
-5 -21 9 46.1 15.6
5 -21 -9 68.69 20
5 9 -21 67.79 18
-21 -5 -9 76.69 16.4
9 -5 -21 23.5 13.3
9 21 -5 85.09 16.4
21 5 -9 44.3 16
-9 -5 21 53.49 18.4
-21 -9 5 22.3 12.4
-21 5 9 67.79 19.2
-9 -21 -5 36.5 16.2
-5 9 21 81.99 19
5 -9 21 49 15
-21 9 -5 59.49 10.4
-21 -5 -9 77.19 17.2
-9 -5 -21 85.19 20.4
-21 9 5 46.2 16.5
21 -5 -9 58.59 18.2
-5 9 -21 45 14.2
5 -21 9 53.79 14.8
-5 -9 21 46.1 15.9
9 5 -21 65.99 18.1
-21 -5 9 29.8 13.7
-21 -9 -5 53.99 16.4
-5 21 9 29 14.3
-21 5 -9 58.19 9.2
9 -21 -5 49.8 18.3
5 -9 -21 68.19 18.4
5 21 -9 85.49 18.5
5 9 21 33.1 15.1
-9 5 21 48.5 16.2
-9 -21 5 33.2 13.6
-21 5 -9 51.39 9
21 9 -5 51.69 16.2
-5 -21 -9 26.9 15.2
-9 -21 -7 -0.9 7
9 21 -7 1 8.1
9 -7 -21 1.5 11.2
7 -21 -9 4.8 12.1
7 -9 21 2.4 6
-21 -7 -9 5.4 8.3
-21 -7 -9 -0.2 7.1
9 7 21 2.4 8.8
-7 9 21 -0.1 7.1
-7 -9 -21 9.7 9.9
21 7 -9 -2 9.5
-9 -7 21 -4 6.9
-7 -21 9 2 6.5
-9 7 -21 4.6 6.7
-9 -21 -7 -1 5.6
21 -9 -7 2.2 6.5
-9 21 7 9.2 9.4
9 -21 7 -0.5 4.8
-21 -9 7 -0.1 5.7
7 9 -21 0.9 9.2
-21 -9 -7 4.2 7.8
7 -9 -21 0.6 12
-21 -9 -7 2.5 8.3
-21 9 7 1.8 9.8
-9 -7 -21 -0.4 10.3
-7 -9 21 4.6 8.5
-7 -21 -9 1.9 10.2
-7 -21 -9 7.3 8.1
7 9 21 7 9.5
-9 -21 7 7.9 9.1
-7 21 9 6.2 9.4
9 -21 -7 1.7 11.1
-7 9 -21 9.9 7.9
-9 7 21 -6.3 9.9
7 -21 9 2.1 5.9
7 21 -9 -5.7 7.2
21 -7 -9 1.4 8.8
21 9 -7 -1.4 8.9
9 7 -21 4 9.9
-21 -7 9 0.7 6.8
-21 -9 -9 461.65 66.79
21 9 -9 295.37 64.89
21 -9 -9 343.67 66.09
-9 -9 -21 503.25 70.49
-21 -9 -9 422.16 66.29
-9 9 -21 352.26 62.99
-9 9 21 525.65 68.69
-21 -9 9 363.16 66.49
-21 9 9 393.56 67.59
9 9 21 399.16 66.69
-9 -9 21 432.06 68.09
9 9 -21 481.15 66.89
9 -21 -9 394.96 68.69
-9 -21 -9 483.95 66.59
-9 -21 9 501.55 67.79
-21 11 -1 684.13 101.39
-21 -1 -11 623.24 101.59
-11 -21 -1 609.34 102.29
1 -11 21 676.03 103.89
11 1 21 708.43 103.19
-21 -1 -11 718.13 101.49
21 11 1 699.13 103.69
-11 -21 -1 775.22 104.09
-1 11 21 652.23 103.99
-1 -21 11 706.73 104.09
-11 1 -21 649.54 102.79
11 -21 1 598.54 101.49
-11 -1 21 799.82 105.59
-1 21 -11 536.65 101.49
21 1 -11 734.93 104.19
-21 -11 -1 750.72 103.89
-1 -11 21 663.33 104.29
-11 -21 1 765.12 103.49
1 -21 11 657.33 103.39
1 21 -11 696.73 102.79
11 -1 21 673.03 102.29
11 1 -21 596.64 102.89
-21 1 -11 685.13 100.99
-21 11 1 697.73 102.59
-11 -1 -21 699.13 103.79
-21 -1 11 703.73 104.19
21 -1 -11 519.65 102.49
21 11 -1 745.63 104.29
-11 -21 1 796.52 104.09
-21 1 -11 729.83 100.79
-1 11 -21 564.34 102.49
11 -21 -1 641.34 101.99
-1 21 11 811.72 104.59
11 3 21 436.76 76.59
-21 -11 3 509.45 78.29
-3 -21 11 514.15 78.19
21 3 -11 404.66 77.09
-11 3 -21 485.65 76.49
21 11 3 497.65 77.39
3 -11 21 407.96 76.79
3 11 -21 632.64 79.79
3 -21 -11 440.46 78.59
-21 -3 -11 490.65 76.59
11 21 -3 592.74 77.89
-21 3 11 573.84 79.89
-11 -21 -3 573.94 78.29
-11 -21 -3 577.74 77.69
-11 21 3 492.25 77.59
-3 -11 -21 382.36 77.49
-21 -3 -11 439.46 75.69
-21 11 -3 478.75 73.69
-21 -11 -3 464.45 77.39
-3 11 -21 489.45 77.09
3 -11 -21 416.66 76.79
3 11 21 628.44 79.99
-3 -11 21 525.15 79.49
-21 -3 11 593.64 79.79
-21 3 -11 506.95 72.99
21 11 -3 485.45 76.99
21 -3 -11 495.05 78.39
3 -21 11 515.55 77.49
-21 11 3 420.46 76.69
-11 -3 -21 445.26 78.09
-11 3 21 496.65 78.89
-3 -21 -11 559.74 77.19
11 3 -21 498.15 77.29
-21 3 -11 482.25 73.19
-3 21 11 592.34 78.69
-11 -21 3 465.05 76.99
-5 -11 -21 319.67 53.99
11 5 21 303.97 52.59
-5 -21 11 295.07 52.99
-5 11 21 277.57 52.29
5 -11 21 270.07 51.69
5 11 -21 427.86 55.49
-11 21 5 346.57 53.79
11 -5 -21 304.37 52.29
11 21 -5 318.57 53.59
21 5 -11 406.36 54.89
-21 -5 -11 294.87 51.99
-11 5 -21 328.97 50.49
-11 -5 21 315.07 53.89
-21 -5 -11 336.17 51.99
5 -21 -11 313.67 53.89
-21 -11 5 376.76 54.09
-21 5 11 250.17 53.09
-11 -21 -5 357.36 53.99
21 -5 -11 332.07 53.99
11 -21 -5 359.76 56.39
-11 -21 5 395.66 54.19
5 11 21 231.28 52.09
11 5 -21 390.26 54.79
-5 -11 21 364.56 55.79
-5 11 -21 351.76 52.29
5 -11 -21 415.66 55.69
-5 -21 -11 245.88 49.9
-21 -5 11 385.86 55.19
-11 -5 -21 235.58 52.99
5 -21 11 293.87 51.29
-21 11 5 278.97 53.29
5 21 -11 390.26 53.99
-5 21 11 338.07 53.39
-21 -11 -5 243.38 51.49
21 11 -5 317.27 51.99
-11 5 21 280.67 52.39
-21 -7 -11 275.77 43.4
7 -21 -11 270.87 45.8
-21 -11 7 230.18 42
21 7 -11 282.47 43.7
-21 7 11 220.78 43.6
-11 -7 21 286.87 43.9
-11 -21 -7 273.87 42.5
7 11 -21 298.57 44.9
11 21 -7 249.58 41.9
11 -7 -21 229.88 43.5
11 7 21 214.68 42.4
-11 7 -21 241.68 39.1
-7 -11 -21 251.77 45.6
-11 21 7 182.98 41.5
-21 -7 -11 229.38 41.4
7 -11 -21 254.87 44.4
-7 21 11 184.98 41.3
-11 -7 -21 266.87 46
21 11 -7 243.08 42.4
-21 -11 -7 255.07 42.9
-7 -11 21 210.18 43.7
21 -7 -11 242.28 43.6
7 21 -11 184.98 41
7 11 21 263.77 43.5
11 -21 -7 283.87 46.8
-21 11 7 232.58 43.8
-7 11 -21 220.98 40.1
-7 -21 -11 314.87 44.2
11 7 -21 313.37 45
-11 21 9 883.01 113.39
-11 -21 -9 566.34 105.19
-21 -9 -11 638.74 106.39
-11 -9 21 597.04 106.39
-11 9 -21 783.12 102.69
-11 -21 -9 539.75 104.49
11 9 21 651.33 106.49
21 -11 -9 856.61 108.29
-9 -21 11 568.84 105.59
9 -21 -11 856.31 110.09
-21 -9 -11 803.92 106.99
-21 -11 -9 796.82 107.29
-21 -9 11 683.63 106.89
-9 -21 -11 535.85 105.29
-11 -9 -21 614.24 107.09
21 -9 -11 788.32 108.09
-9 -21 -11 785.62 105.99
-21 11 9 771.42 108.99
-9 -11 21 680.73 107.59
-11 9 21 565.74 105.79
9 11 21 852.21 108.09
-9 21 11 833.42 107.99
11 -21 -9 620.84 106.79
11 -21 -11 1388.36 172.78
-11 21 11 1365.36 170.48
-11 -11 -21 888.01 174.18
-11 -11 21 1181.88 169.28
-11 -21 -11 1245.18 167.78
11 -11 -21 1289.07 169.68
11 11 -21 1223.38 168.78
-21 11 11 891.01 167.88
-11 -21 -11 1007.7 167.08
21 -11 -11 1167.68 168.78
21 11 -11 893.51 166.38
-21 -11 -11 1228.88 168.08
-11 11 -21 1097.69 162.68
-11 11 21 1064.19 168.18
-1 21 -13 447.56 60.99
-21 -1 -13 423.86 59.99
-13 -21 -1 395.66 59.99
-13 -1 21 497.75 63.19
13 1 21 340.07 59.39
-13 1 -21 421.06 60.99
-1 -21 13 400.96 61.89
21 1 -13 417.86 61.89
-21 1 13 264.07 60.29
1 -13 21 433.56 62.79
1 13 -21 336.97 60.49
-21 13 -1 383.56 58.39
-21 -13 1 415.86 61.89
1 21 13 286.57 59.19
-13 -21 -1 469.55 61.39
13 -21 1 437.66 59.99
21 13 1 320.37 59.29
-21 -1 -13 342.77 58.19
-1 -13 -21 448.06 63.59
-1 13 -21 360.76 60.59
-21 1 -13 428.76 58.69
-21 13 1 401.26 60.19
-13 -1 -21 376.96 61.19
-21 1 -13 383.36 57.39
1 -21 13 383.56 60.89
1 13 21 276.67 59.89
-1 -21 -13 375.66 62.59
21 13 -1 269.87 59.29
-1 -13 21 391.36 62.49
13 -21 -1 413.36 59.89
21 -1 -13 375.76 61.99
-21 -13 -1 408.46 61.49
1 21 -13 298.47 59.29
13 1 -21 337.97 60.09
-21 -1 13 356.26 61.09
-13 3 -21 152.88 26.6
-13 -21 -3 158.48 27.1
-21 3 13 82.49 26.7
3 -13 21 139.69 27.6
3 13 -21 91.89 26.7
13 21 -3 157.98 27.4
-13 21 3 145.99 28.5
21 13 3 141.19 26.7
-3 -21 13 155.28 28.8
-21 -3 -13 133.69 26.9
-21 -3 -13 117.59 24.8
-21 13 -3 134.29 24.8
3 -21 -13 172.58 29.6
-13 -21 -3 173.48 27.4
-13 -3 21 78.69 26.5
21 3 -13 101.19 27.4
-3 21 13 128.49 27
-3 -13 21 156.28 31
-3 13 -21 142.69 26.7
13 3 -21 83.69 26.3
21 13 -3 170.18 28.9
-21 3 -13 144.19 21.6
3 -13 -21 154.38 30.7
-13 3 21 175.78 30.6
3 21 -13 173.48 29
-21 -13 -3 131.39 27.5
-21 13 3 143.99 28
-13 -3 -21 122.29 29.1
3 -21 13 132.39 27.1
-13 -21 3 146.99 26.7
-21 -3 13 104.69 28
-21 3 -13 124.89 21.3
21 -3 -13 178.18 29.3
3 13 21 102.19 27.6
-5 13 21 31 15.3
13 -5 -21 68.89 19.1
-13 21 5 81.59 19.9
5 -21 -13 50.39 17.2
-13 -5 21 31.3 15.8
21 5 -13 69.49 18.8
-21 5 13 38 16.7
-13 -21 -5 35.2 14
-21 -13 5 71.89 17.8
-5 -13 -21 57.29 20.5
-21 -5 -13 61.99 16.2
-5 -21 13 81.39 19.6
5 13 -21 72.69 19.5
-13 -21 -5 57.29 16.4
13 21 -5 26.5 13.8
-21 -5 -13 70.49 17.9
-5 -21 -13 56.59 19.2
-5 21 13 70.49 17.9
5 -21 13 86.69 17.3
-13 -21 5 36.7 15.4
21 -5 -13 53.69 17.4
-5 -13 21 39.7 17.5
-5 13 -21 73.69 16.7
-5 -21 -13 49 15.4
-13 5 21 25.6 15.2
-13 -5 -21 108.29 23.5
-21 13 5 49.8 17.8
21 13 -5 53.99 17.5
-21 -13 -5 73.69 18.4
13 5 -21 67.49 18.6
5 -13 -21 69.79 20.7
5 21 -13 63.59 17.5
-21 -13 -5 83.29 19.5
5 13 21 25.8 14.6
7 13 -21 54.99 16.9
21 7 -13 42.3 15.6
-7 13 21 29.9 14.8
-7 -21 13 50.09 16.1
-13 21 7 40.7 15.4
-21 7 13 27.7 15.3
-13 -7 21 14.7 13.2
-7 -13 -21 48.9 18.3
-21 -13 7 50.29 15.7
-21 -7 -13 37.4 14.6
-21 -7 -13 41.4 13.2
-13 -21 -7 31.1 14
13 -7 -21 34 14.1
13 21 -7 41.3 14.4
-13 7 -21 38.4 9.1
7 -21 -13 31.2 16.6
-13 -21 -7 47 13.5
-7 -21 -13 58.79 16.6
-7 -21 -13 26.5 11
-7 -13 21 23 15.3
13 -21 -7 32.5 17.1
7 21 -13 46.4 15.1
13 7 -21 57.99 17.3
-21 -7 13 7.3 12.1
21 -7 -13 36.5 15.8
-21 -13 -7 42.2 14.8
7 13 21 28.6 12.1
-21 13 7 35.3 15.8
-13 -7 -21 56.29 18.4
7 -13 -21 59.69 17.1
-7 21 13 34.3 14.4
-21 -13 -7 21.9 12.2
21 13 -7 34.6 12.8
-13 7 21 25.2 13.7
-13 9 -21 279.57 42.6
-13 9 -21 267.87 42.5
21 -13 -9 300.27 50.89
-21 -13 9 368.16 51.19
13 21 -9 325.47 49.6
-9 -13 -21 393.36 53.39
9 -21 -13 241.28 50.99
-9 -21 13 273.47 49.9
-21 -9 -13 221.28 49
-21 -9 -13 327.47 50.09
-13 21 9 332.47 51.89
-9 13 21 349.47 51.89
-21 9 13 333.47 52.39
-9 -21 -13 336.67 49.6
-21 -13 -9 200.38 47.5
-21 13 9 394.86 53.59
-9 13 -21 288.57 45.4
9 -13 -21 331.77 52.09
-13 9 21 372.86 52.59
13 -21 -9 280.07 51.89
-13 -9 -21 250.57 48.3
-13 -21 9 213.38 48.2
-9 21 13 255.87 49
21 -9 -13 317.77 51.39
-21 -9 13 294.07 49.5
-9 -13 21 363.96 53.49
-21 -11 -13 566.84 77.39
-21 -11 -13 576.24 76.69
-13 -21 -11 450.15 74.69
21 11 -13 511.45 75.19
-11 -21 13 623.94 77.89
21 -13 -11 630.44 79.49
-13 -11 21 342.77 74.79
13 21 -11 391.96 73.99
-21 11 13 445.46 77.29
21 13 -11 586.54 76.29
13 -21 -11 562.24 78.79
21 -11 -13 511.55 77.59
-13 11 21 380.16 75.09
-11 -13 21 370.16 74.59
-21 -13 -11 527.65 76.09
-11 -21 -13 356.06 75.59
-13 -21 11 404.36 74.39
-21 13 11 511.15 78.19
-11 -21 -13 408.96 77.39
-13 -11 -21 510.75 75.59
11 -13 -21 417.46 74.89
-11 21 13 485.55 76.39
-13 -11 -21 552.04 79.29
-13 -13 -21 278.27 58.69
-13 -13 -21 398.26 58.09
13 -21 -13 352.26 60.79
13 -13 -21 263.17 57.39
-13 -21 -13 353.26 58.29
-13 -21 -13 349.87 56.19
-13 13 21 351.76 57.79
-21 -13 -13 370.76 57.79
-13 -13 21 270.67 57.09
21 -13 -13 386.76 60.59
21 13 -13 409.56 57.19
-13 -21 13 405.86 58.69
-21 -13 -13 365.46 58.79
-13 21 13 260.87 56.69
-21 13 13 407.16 61.09
21 1 -15 82.09 19.9
-21 -1 -15 64.59 14.9
-1 -21 15 69.59 19.1
-15 -21 -1 37.1 15
21 15 1 76.69 19.5
1 -15 21 61.39 18.7
-1 21 -15 90.69 18.6
1 -21 -15 61.69 18.9
-21 15 -1 76.79 16.6
-1 -15 -21 73.89 21.6
-21 1 15 30.6 15.5
1 15 -21 87.49 20
-21 -15 1 80.99 19.9
-15 -1 21 75.99 19.8
-15 -21 -1 62.09 17
-1 -15 21 70.59 21.4
21 -1 -15 67.09 19.8
-15 -1 -21 77.49 15.8
-1 15 -21 87.79 20.1
-15 1 21 43.8 16.6
-1 21 15 42.7 15.9
1 -21 15 101.59 20.2
1 21 -15 93.69 20.8
1 15 21 31.8 16.3
15 1 -21 30.9 15.7
21 15 -1 65.09 18.1
-21 1 -15 75.39 13.9
-15 -1 -21 76.69 18.9
-21 -15 -1 33.2 15
-21 15 1 75.79 25.3
-1 -21 -15 60.49 20
1 -15 -21 81.69 21.7
-21 -3 -15 4.3 9.4
-3 -21 15 -7 7.8
3 -15 21 -0.9 9
-15 21 3 -6.8 7.5
-15 -3 21 -5.5 9.3
-15 3 -21 3.5 4.3
15 -3 -21 -0.4 6.8
-21 -15 3 5.5 9.1
3 15 -21 2 8.9
-3 -15 -21 -6.7 11.8
-3 15 21 -3.4 5.8
-15 3 -21 4.2 7
-21 -3 -15 -0.4 5.4
-3 21 -15 -3.7 6.3
21 3 -15 2.4 6.8
-15 -21 -3 1.7 8.6
-15 -21 -3 -1.8 6.9
15 21 -3 -6.6 7.4
-21 3 15 -0.9 9.7
3 -21 -15 2.6 11.8
21 15 -3 -1.4 9.4
-21 3 -15 -1.5 2.3
3 15 21 4 7.4
3 21 -15 -2.3 8.1
-21 15 3 0.5 8.3
-21 -3 15 6.1 9.9
-21 3 -15 -0.5 1.9
-21 -15 -3 2.6 8.5
-15 -21 3 -2.4 7.6
-3 21 15 4.6 9.2
15 3 -21 2.6 10
-3 -21 -15 -0.3 11.3
21 -3 -15 0.8 10.6
-3 -15 21 8.1 11.7
-3 15 -21 3.5 7.7
3 -21 15 5.5 7
3 -15 -21 1.8 11.4
-15 -3 -21 3.4 7.4
-15 3 21 -4.7 6.3
-15 -3 -21 -1.6 8.9
-21 -5 -15 92.49 22.1
-21 5 15 87.09 22.3
5 15 -21 57.39 19.9
-5 -15 -21 54.09 19.1
-15 21 5 94.59 21.9
-21 -5 -15 82.19 18.4
-5 -21 15 71.09 20.7
15 -5 -21 61.99 20.6
-15 -21 -5 80.79 19.8
21 5 -15 90.59 23
-15 -5 21 94.79 20.5
-15 -21 -5 41.5 16
-21 -15 5 64.39 18.8
-15 5 -21 75.39 14.1
5 -21 -15 70.19 21.4
-15 5 -21 86.49 15
-5 15 21 45 18.3
-21 15 5 89.19 22.1
-15 -5 -21 75.89 22.3
-15 -5 -21 91.09 19
-5 21 15 60.09 17.9
5 -15 -21 63.39 21.1
5 21 -15 95.69 21.6
-21 -15 -5 94.89 20.3
15 5 -21 52.59 18.2
-5 -21 -15 77.99 19.1
-5 15 -21 81.69 18.4
-21 -15 -5 94.39 22.1
-21 -5 15 71.59 20.2
-15 5 21 85.29 22.2
-5 -21 -15 82.89 22.1
-5 -15 21 95.99 24.6
-15 -21 5 98.39 20.7
5 15 21 54.19 18.5
21 15 -5 104.79 22.6
21 -5 -15 74.09 21.3
-21 -7 -15 112.59 24.2
-21 -7 -15 93.39 19.3
21 7 -15 95.09 24.3
-15 -21 -7 77.29 19.5
-15 21 7 94.59 21.3
-21 -15 7 91.39 19.4
-15 -7 21 48.4 17.7
15 -7 -21 87.99 22.1
-15 -21 -7 40.2 16.8
15 21 -7 51.69 16.7
7 15 -21 122.19 36.4
-7 -21 15 75.39 21.1
-7 -15 -21 128.29 26
7 -21 -15 77.79 21.7
-7 15 21 40.9 17.7
-21 7 15 72.19 21.3
-21 -15 -7 63.29 18.4
-15 7 21 48.7 19.2
15 7 -21 78.19 18.1
21 15 -7 111.49 21.9
-21 15 7 63.19 19.9
-15 -7 -21 57.59 17.6
21 -7 -15 68.39 20.5
-21 -15 -7 81.59 21.3
-15 -21 7 41.8 16.2
-7 -21 -15 108.39 24.2
7 15 21 45.1 17.8
-7 21 15 83.79 20.9
-7 -15 21 79.09 22.1
7 21 -15 89.29 19.5
7 -15 -21 105.49 23.5
-7 -21 -15 100.29 18.2
-15 -7 -21 45.4 19
-21 -7 15 60.59 19.9
-21 -9 -15 18.9 12.6
-15 -21 -9 -4.1 10
9 -21 -15 11.5 12.2
-21 -9 -15 22.8 10.4
-9 15 21 17 11.7
15 -9 -21 11.4 12.2
21 -15 -9 4.6 8.7
-9 -15 -21 3.8 13
9 15 -21 18 12.4
-9 -21 15 8.1 10.8
-15 -21 -9 12.5 9.3
-15 -9 21 22.1 11.7
21 9 -15 15.5 11.8
-21 9 15 15.8 11
-15 21 9 27.7 13.3
-21 -15 9 4.9 9.3
15 21 -9 4.7 7.6
-15 -9 -21 25.5 15.1
-21 15 9 15 12
-9 21 15 17.1 12.5
-9 15 -21 13.5 6.3
9 21 -15 20.6 10.8
-9 -15 21 20.5 13.1
15 -21 -9 14.4 13.2
9 -15 -21 5.7 13.2
-21 -15 -9 11.3 12
21 -9 -15 4.5 10.4
-21 -9 15 2.3 10.5
-21 -15 -9 22.9 12.5
9 15 21 9.2 10.6
21 15 -9 14.3 10.7
15 9 -21 8.3 10.5
-9 -21 -15 14.9 9.9
-9 -21 -15 15.8 11.1
-15 -21 9 8.1 9.9
-15 -9 -21 17.7 10.5
-21 -11 -15 89.39 25.4
-15 -11 21 119.29 27.2
11 15 -21 141.69 26.8
11 -21 -15 114.89 28.8
21 -15 -11 104.09 27.7
-15 -21 -11 69.29 24.2
15 -11 -21 75.89 25.8
-21 11 15 162.08 30
-11 -21 15 137.49 25.6
-15 -21 -11 155.88 25.1
21 11 -15 102.79 23.2
-15 21 11 118.99 26.6
-11 -15 -21 126.89 25.9
-21 -11 -15 112.49 24.8
-11 15 21 107.59 26.5
15 21 -11 103.49 24.6
-15 -11 -21 159.48 31.2
-15 -21 11 138.39 25.8
-21 -11 15 101.19 23.9
-11 -21 -15 108.79 27
-11 -21 -15 90.29 23.6
-15 11 21 171.78 29.7
-21 15 11 144.69 28.7
21 15 -11 86.29 22.3
15 11 -21 86.69 24.5
15 -21 -11 133.89 31
-11 21 15 155.88 28
-21 -15 -11 142.79 26
-11 -15 21 114.29 28.2
-15 -11 -21 93.09 23
11 21 -15 66.99 23.2
11 -15 -21 122.29 26.5
21 -11 -15 118.49 26.2
-13 15 21 16.1 10.3
15 21 -13 29.7 11.9
15 -13 -21 2.2 12.6
13 -21 -15 18.2 15.3
21 13 -15 10.5 9.4
-13 -15 -21 24.1 10
-21 -13 -15 32.3 15.6
-15 -21 -13 14 10.7
13 15 -21 11.9 12
-15 21 13 20.3 12.6
-21 -15 13 10.6 9.8
-15 -21 -13 12.4 9.9
21 -15 -13 28.4 15.9
-21 13 15 27 14.8
-15 -13 21 31.9 14.6
-13 -21 15 23.1 12.1
-21 -13 -15 27 12.4
-13 -15 -21 34.9 17.5
-15 13 21 25.6 14
15 -21 -13 22.1 16.8
13 -15 -21 45.3 18.5
-13 -21 -15 42.5 16.8
-15 -13 -21 9.9 9.7
-15 -13 -21 39.7 18.1
-13 21 15 5.5 13.9
-21 -15 -13 22.5 14.3
-21 15 13 17.6 14.4
-21 -13 15 9.7 11.4
21 15 -13 23.9 12.2
-21 -15 -13 23.4 11.9
13 21 -15 18.8 11
21 -13 -15 33 16.8
-15 -21 13 27.9 13
-13 -21 -15 15.7 9.6
-13 -15 21 7.5 12.6
15 13 -21 21.2 11.4
-21 -15 -15 18.1 11.1
-15 21 15 13.9 12.4
-15 -15 21 26.1 13.9
15 -15 -21 15.3 14.6
-15 -21 -15 18.6 11.1
-21 -15 -15 26.5 14.3
-21 -15 15 8.5 10.2
-21 15 15 13.1 12.9
15 21 -15 6.1 8.8
-15 -15 -21 7.9 13.7
-15 -21 -15 2.6 11.1
15 -21 -15 9.6 12.4
21 15 -15 5.8 9.7
15 15 -21 12.3 10.6
-15 15 21 -5 9.5
21 -15 -15 24.9 15.3
-15 -15 -21 12.9 10.5
-15 -21 15 30.5 13.6
-17 -21 -1 57.99 16.2
-1 -21 17 76.29 20.3
-21 1 17 56.19 18.2
21 17 1 37.7 14.6
-17 1 -21 41.2 14.3
-1 17 21 55.69 17.8
-21 -17 1 61.89 17
-1 -17 -21 18.9 13.9
21 1 -17 75.59 18.8
-21 -1 -17 61.49 14.2
-17 -1 21 70.79 19.5
-17 -21 -1 51.79 15.9
-21 17 -1 56.29 13.8
1 21 17 32.5 13.5
1 -17 21 48.8 17.5
1 -21 -17 54.49 18.9
-1 21 -17 97.49 19.8
-21 -1 -17 47.6 15.4
1 17 -21 86.39 19.8
17 -1 -21 24 14.6
-17 -21 1 35.3 14.8
21 -1 -17 39.2 16.8
-1 -17 21 68.39 20.7
-21 -17 -1 87.49 17.7
-17 -1 -21 69.49 15
-1 -21 -17 84.39 21
-1 17 -21 61.99 17.4
21 17 -1 63.49 16.3
1 21 -17 70.79 18.9
1 -21 17 81.49 20.2
-17 1 21 42.3 16.4
1 17 21 35.6 15.4
1 -17 -21 66.89 21
-21 17 1 56.19 15.7
-17 -1 -21 44.4 15.1
17 1 -21 54.19 17.6
-1 21 17 61.69 16.5
-21 -1 17 50.59 17.9
-21 1 -17 41.6 12.6
-3 -21 17 6.4 10
3 -21 -17 -7.7 11.3
3 21 17 0.4 5.8
-17 3 -21 2.4 5.4
-21 3 17 -1.1 9.5
-17 -21 -3 -5.4 7.9
-21 -3 -17 2.4 5.3
-17 -21 -3 3.7 6.7
21 3 -17 15.1 11
-3 21 -17 4 5.9
-17 3 -21 3.9 4.5
17 -3 -21 -4.9 8.4
3 17 -21 4.3 8.7
-21 -17 3 -0.1 5.9
17 21 -3 2.5 6.5
-21 -3 -17 2.4 9.7
-3 17 21 1.1 9
-17 -3 21 0 7.7
-3 -17 -21 0.6 11.2
3 -17 21 2.2 9
-17 3 21 -4.6 9.6
-3 -17 21 4.7 10.8
-3 -21 -17 -0.7 11.7
3 -21 17 5 9.3
-21 17 3 -4.9 7.5
3 -17 -21 -16.4 9.4
-17 -3 -21 -6.1 11.7
-21 -3 17 -0.6 9.4
-17 -21 3 4.4 8
17 3 -21 5.1 9.7
21 -3 -17 1.6 7.6
-3 21 17 7.9 9.2
21 17 -3 4.9 9.3
3 21 -17 1.6 9.7
-21 -17 -3 1.1 8.3
-17 -3 -21 0.5 6.4
3 17 21 3.9 6.6
-5 17 21 62.49 17.1
5 -21 -17 75.29 20.3
-17 21 5 60.89 17.8
-17 -5 21 35.2 14.2
-21 -5 -17 56.39 19.1
5 17 -21 34 15.4
-17 -21 -5 59.49 16.6
-21 5 17 52.99 17.3
21 5 -17 65.89 18.8
17 21 -5 41.8 13.7
-5 -21 17 34.4 15.9
-5 -17 -21 65.29 19.8
-21 -5 -17 55.99 15.1
-17 -21 -5 29.6 13
17 5 -21 24.8 13
-17 -21 5 59.69 15.5
-5 17 -21 69.29 16.1
-21 -17 -5 63.69 17.7
-17 -5 -21 38.1 17.2
5 -17 -21 33.7 15
5 17 21 28.1 13.8
-5 -21 -17 60.99 19.7
-5 -17 21 47.5 18
-17 5 21 24.8 14.5
-21 -5 17 43.8 15.7
5 21 -17 43.4 16.5
-17 -5 -21 70.99 18.6
21 17 -5 51.79 15.5
21 -5 -17 44.7 17
-5 21 17 16.7 11.5
-21 -17 -5 55.89 16.3
-21 -7 -17 78.79 21.3
7 -21 -17 28.4 18.1
-17 -21 -7 93.89 19.4
-17 21 7 76.49 20.6
-17 -21 -7 59.49 17.8
7 17 -21 66.39 19.8
-21 7 17 65.49 20.1
-7 -21 17 53.29 18.6
-21 -17 7 30.9 15
-7 -17 -21 83.09 23.1
-17 -7 21 27.5 15.8
17 -7 -21 59.89 19.9
17 21 -7 94.49 19.4
21 7 -17 52.49 17.2
-21 17 7 63.09 18.6
-17 -21 7 57.99 16.8
21 17 -7 53.59 17.5
-7 -17 21 69.09 21.3
7 17 21 55.89 18
-17 -7 -21 87.79 18.2
-21 -17 -7 47.4 17
7 -17 -21 41.3 19.3
21 -7 -17 73.29 21.2
-7 21 17 37.1 16.4
-21 -17 -7 106.29 21.2
-21 -7 17 35.9 15.7
7 21 -17 75.29 20.1
17 7 -21 62.79 17.5
-17 7 21 60.49 19
-7 -21 -17 40.5 18.4
-7 -21 -17 51.09 16.2
-17 -7 -21 73.39 22
-21 9 17 7.7 11.6
-9 17 21 1.6 9.8
-17 -9 21 9.5 9.7
9 17 -21 1.4 9.8
-9 -17 -21 11 14.1
17 21 -9 14.1 8.7
-21 -9 -17 13.1 8.1
17 -9 -21 5.6 9.3
-17 21 9 8 10.7
-9 -21 17 26.7 13
21 -17 -9 -2.3 8.4
9 -21 -17 -3.5 13
21 9 -17 16.3 9.3
-17 -21 -9 17.9 9.8
-21 -9 -17 11.6 12.2
-21 -17 9 8.1 7.2
-17 -21 -9 14.9 12.3
-21 17 9 12.5 11.3
9 -17 -21 8.4 13.2
-9 21 17 13.4 12.2
21 17 -9 15 8.8
17 9 -21 1.7 8
-17 -21 9 12.6 8.6
-17 -9 -21 20.7 13.9
-21 -17 -9 14 13.6
-9 -21 -17 2.3 5.9
-9 -21 -17 13.4 13.1
21 -9 -17 24.9 13.5
-21 -9 17 6.8 8.2
17 -21 -9 -16.6 12.6
-21 -17 -9 9.1 9.1
-17 -9 -21 20.2 10.9
-17 9 21 8.9 9.1
-9 -17 21 3 11.7
17 21 -11 59.19 18.4
-17 -11 21 39.4 17.8
11 17 -21 85.59 21.4
-11 -17 -21 48.3 20.2
-21 -11 -17 77.79 19.6
17 -11 -21 76.99 21.1
11 -21 -17 53.49 21.7
-17 21 11 69.99 21.5
21 11 -17 83.99 21.2
-11 17 21 98.29 22.9
-21 11 17 25.7 20
21 -17 -11 52.09 20.8
-21 -11 -17 98.89 23.9
-11 -21 17 39.8 17.3
-21 -17 11 72.49 19.1
-17 -21 -11 56.79 19.5
-11 -17 -21 84.29 20.6
-17 -21 -11 78.69 19.1
-21 -11 17 62.69 19.8
11 21 -17 50.09 18
-21 -17 -11 86.89 20.7
17 -21 -11 49.2 21.8
-11 -21 -17 87.19 22.5
-17 -11 -21 67.79 22.3
-17 -11 -21 65.19 18.6
11 -17 -21 74.49 22.5
21 -11 -17 74.59 20.6
21 17 -11 88.79 20.9
17 11 -21 90.79 19.2
-11 21 17 43 17.5
-21 17 11 80.59 23.1
-17 -21 11 35.5 18.8
-11 -21 -17 40.1 15.8
-21 -17 -11 84.29 22
-17 11 21 50.59 19.2
-11 -17 21 58.69 21
21 13 -17 15.4 11.3
13 17 -21 1.5 10.3
-21 -13 -17 17.8 9
21 -17 -13 24.7 15.1
-13 -21 17 7.4 10.4
17 -13 -21 10.2 11.2
-13 17 21 3.6 10.3
-17 21 13 10.4 12.4
-21 -17 13 9.6 10.1
-21 13 17 8.3 12
-17 -21 -13 7.9 11.3
-17 -21 -13 8.6 9.1
17 21 -13 13.2 10.6
-13 -17 -21 4 7.6
-13 -17 -21 -0.4 11.5
13 -21 -17 -5.1 12.8
-21 -13 -17 33.6 15.4
-17 -13 21 5.8 9
21 -13 -17 9.2 13.3
17 13 -21 0.3 10.3
17 -21 -13 17.6 16.5
-21 -17 -13 -1.1 8.1
-13 -21 -17 3.5 6.5
-13 21 17 2 9.9
-17 -13 -21 1.8 12.9
-17 -13 -21 2 8
-13 -17 21 -7.2 9.5
-17 13 21 -2.3 10.1
-17 -21 13 9.2 7.4
-21 -13 17 -2.7 7.9
-21 -17 -13 21.2 10.9
13 21 -17 13.3 11.5
21 17 -13 17.9 11.6
-13 -21 -17 11.8 12.8
-21 17 13 7.9 11
13 -17 -21 6.9 13.6
-17 -21 -15 37.2 14.3
21 -17 -15 34.1 15.9
-17 21 15 13.4 12.8
-21 -17 15 28.2 12.2
-17 -21 -15 29.6 15.1
17 -15 -21 20.1 13.6
-15 -21 17 30.9 13.2
-17 -15 21 31.7 13.7
-21 -15 -17 29 15.5
-15 17 21 11.9 11.1
21 15 -17 51.59 15
-21 15 17 28.8 15.7
-21 -15 -17 43.2 15.6
17 21 -15 55.19 16.8
-15 -17 -21 15.4 16
-15 -17 -21 22.1 11.5
15 -21 -17 15.4 17
15 17 -21 21.5 13
-17 -15 -21 81.39 23.3
21 17 -15 44.8 15
-17 15 21 46.2 17
-17 -21 15 47.1 15
21 -15 -17 39.2 17.9
-21 -17 -15 33.3 14.2
17 -21 -15 42.9 20.5
-15 -21 -17 42.1 17.1
-15 -21 -17 44.7 14.7
-15 21 17 22.6 13.9
17 15 -21 29.2 13.6
15 21 -17 61.89 17.3
15 -17 -21 5.7 15.2
-15 -17 21 41.2 15.8
-21 -15 17 14.5 14.5
-21 -17 -15 10.9 13.6
-21 17 15 27.5 14.9
-17 -15 -21 47.7 16.9
-17 17 21 26.5 16.3
-17 21 17 34.9 15.9
17 -17 -21 28.7 18.4
-21 -17 -17 49.99 16.4
-17 -17 -21 40 15
21 -17 -17 36.5 18.4
17 -21 -17 30.8 19.8
-17 -21 -17 32.6 13.3
-21 17 17 28.9 15.6
-17 -17 -21 15.4 15.8
-21 -17 -17 33.3 18.4
-1 19 21 152.38 27.2
-1 -19 -21 89.59 28.6
1 19 -21 163.58 29.3
-21 -19 1 139.29 27.6
-1 -21 19 227.88 34.8
19 -1 -21 159.78 29.5
-19 -21 -1 115.49 26.1
-21 -19 -1 196.98 29.9
-19 1 21 78.79 26.5
1 -21 19 210.38 32.1
21 19 -1 145.99 27.7
1 -19 -21 127.49 30.1
-1 21 19 103.19 25.4
-19 -21 1 70.99 25.3
21 -1 -19 120.59 27.1
-1 -19 21 271.57 51.59
19 1 -21 151.28 27.7
-21 -1 19 116.79 26.9
-21 3 19 58.39 22.8
-3 -21 19 117.59 26.4
3 19 -21 142.99 26.2
19 -3 -21 79.59 23.2
-19 -21 -3 130.59 25
3 21 19 104.19 22.4
3 -19 21 114.39 25.3
3 -21 -19 78.59 25.3
-21 -3 -19 114.69 22
-21 -3 -19 107.19 24
21 3 -19 115.99 24.6
-21 -19 3 132.79 23.6
19 21 -3 80.89 20.8
-19 21 3 123.09 24.3
-3 21 -19 126.19 23.2
-3 -19 -21 54.99 22.8
-19 -21 -3 124.59 24.2
21 19 -3 105.29 23.2
3 21 -19 128.19 26.5
-19 -3 -21 108.29 21.3
-21 -3 19 100.29 25.4
-19 3 21 59.89 21.9
-3 19 -21 126.69 23.1
-21 -19 -3 144.89 24.4
3 -19 -21 100.99 25.5
-21 -19 -3 78.59 22.4
-21 19 3 118.59 24
21 -3 -19 120.69 25.4
-19 -21 3 64.59 21.1
-3 -19 21 98.19 26
-3 21 19 124.29 24.5
-3 -21 -19 108.19 25.1
3 -21 19 66.89 22.1
-19 -3 -21 86.59 24
19 3 -21 88.59 24.5
-5 19 21 13.9 10.7
-19 -21 -5 15.5 11.6
21 5 -19 22.4 12.3
5 -21 -19 2.6 12.3
-21 -19 5 21.5 12
-21 -5 -19 29.3 13.8
-21 5 19 7.9 11.4
-19 -21 -5 21.3 11.2
-19 -5 21 9.4 9.7
-5 -19 -21 16 12
-5 -21 19 12.3 12.5
-19 21 5 16.5 12.4
5 19 -21 22.9 13.1
-5 21 -19 23.1 10.1
19 21 -5 4.3 9.4
-21 -5 -19 24.6 10.7
19 -5 -21 26.4 13.1
-19 5 21 13.2 10.4
21 19 -5 13.6 9.4
5 19 21 14.4 11.4
-5 19 -21 15 11.2
19 5 -21 21.1 11
-21 -5 19 27.8 12.3
21 -5 -19 9.8 11.4
-19 -21 5 27.5 12
-19 -5 -21 -0.9 11.3
-19 -5 -21 25.8 10.1
5 -19 -21 26.4 15.9
-5 21 19 6 9.9
-5 -21 -19 25.3 14.6
-21 -19 -5 -0.6 9
-21 -19 -5 21.4 10
5 21 -19 23 13.1
-21 19 5 21.6 13.3
-5 -19 21 21.3 14
21 7 -19 3.1 8.5
-21 -19 7 4 8.3
-19 21 7 -0.4 8.7
7 -21 -19 -9.5 9.7
19 21 -7 9.2 8.6
-19 -21 -7 -3.3 7.1
-7 -21 19 13.1 11.9
-21 -7 -19 -0.5 11.1
19 -7 -21 10.7 11.1
-19 -7 21 9.4 9
-21 -7 -19 6.6 7.5
-19 -21 -7 -2.3 8.8
-7 -19 -21 -7.3 12.2
-7 19 21 6.8 10
7 19 -21 3.3 9.1
-21 7 19 6.2 8.9
7 -19 -21 7.7 9.9
21 -7 -19 8.8 12
19 7 -21 1.2 7.2
-7 -21 -19 2.1 11.2
-7 21 19 4.6 9.6
-19 -21 7 7.6 7.5
-21 19 7 5.4 9.6
-7 -21 -19 6.6 6.1
-21 -19 -7 5.2 7.8
-19 7 21 3.8 8.3
-7 -19 21 3.8 11.2
-19 -7 -21 3.9 13.1
-19 -7 -21 8.2 7.5
-21 -19 -7 5.9 10.3
21 19 -7 5.8 7.4
-21 -7 19 -1 7.3
7 21 -19 19.3 10.8
9 19 -21 106.99 24.2
21 9 -19 124.79 25.5
-21 -9 -19 68.59 24.7
-19 -9 21 85.19 23.4
-21 9 19 57.69 23.6
-21 -19 9 129.89 24.1
-19 -21 -9 90.09 24.6
-9 -21 19 103.89 27.2
19 21 -9 96.99 22.9
9 -21 -19 106.09 27.5
-21 -9 -19 102.59 22.8
-9 19 21 81.89 23.3
-9 -19 -21 142.69 30.3
19 -9 -21 115.99 26.7
-19 -21 -9 95.99 21.6
-9 -21 -19 99.39 21.9
-9 21 19 105.19 25.8
-21 -9 19 97.29 25.1
9 -19 -21 118.69 28.5
21 -9 -19 110.49 26.5
-19 9 21 60.59 22.1
-9 -19 21 88.49 26.1
-19 -21 9 91.89 21.2
-21 -19 -9 120.49 25.5
-21 19 9 108.59 27.1
-19 -9 -21 94.69 24.4
21 19 -9 90.19 23.4
-21 -19 -9 97.19 22.3
-19 -21 -11 310.57 48.7
-21 -11 -19 301.07 47.4
19 21 -11 248.78 46.2
11 -21 -19 249.58 49.5
21 -19 -11 221.78 49.2
21 11 -19 266.87 47.1
-19 21 11 314.37 50.39
-11 -19 -21 263.87 49.6
-11 -19 -21 323.37 47
-21 -11 -19 339.47 51.79
-11 -21 19 320.87 50.69
-21 -19 11 338.97 48.3
-19 -11 21 323.17 49.3
-21 11 19 309.97 49.4
19 -11 -21 308.97 48.3
21 19 -11 256.17 45.4
-11 21 19 203.28 45.2
-19 -11 -21 274.27 47
11 21 -19 288.67 47.7
-11 -21 -19 290.87 49.8
-11 -21 -19 221.28 44.6
-19 -11 -21 222.08 55.29
21 -11 -19 253.67 51.19
-19 -21 11 246.08 45.6
11 -19 -21 302.57 50.29
-21 -11 19 287.57 47.4
-19 11 21 192.08 46.8
-21 -19 -11 222.98 45.1
-11 -19 21 182.68 47
19 21 -13 147.39 27
13 -21 -19 102.39 30.9
-19 21 13 172.08 31.2
-13 -19 -21 97.89 30.6
-19 -21 -13 118.99 25.6
-13 19 21 83.09 25.8
-19 -21 -13 96.29 25.4
13 19 -21 161.48 29.5
-21 13 19 102.39 29.3
-21 -13 -19 127.29 26.3
-13 -21 19 138.99 29.3
19 -13 -21 124.99 30.7
19 -21 -13 150.48 33.9
-13 -19 21 92.89 28.1
-21 -19 -13 137.19 26.9
-21 19 13 121.19 28.9
-13 21 19 127.99 28.3
-13 -21 -19 137.29 28.4
13 21 -19 191.28 30.5
-21 -19 -13 126.69 28.4
19 13 -21 133.89 27.2
21 19 -13 107.29 26
-19 13 21 65.49 26
13 -19 -21 145.79 33.1
21 -13 -19 152.98 33.6
-19 -13 -21 69.79 27.2
-19 -21 -15 1 8.2
-15 -19 -21 -4.6 9.2
-15 -19 -21 15.1 8.4
-19 -21 -15 -15.4 10
-19 21 15 -15.7 7.9
15 -21 -19 -2.5 11.5
-21 15 19 -12 8.9
21 -19 -15 7 13.5
-21 -15 -19 -0.5 6.2
15 19 -21 0.4 10.1
15 -19 -21 -1.5 11.8
19 -21 -15 -19.7 12.2
15 21 -19 10.9 10.7
-15 -21 -19 4.1 13.2
-21 -19 -15 3.3 11.9
-21 -19 -15 9.5 7
-19 -15 -21 -5.5 11.5
21 -15 -19 1.8 11.4
-15 21 19 -0.5 9.9
-21 19 15 -0.1 9.9
-21 -17 -19 21.1 15.8
-19 21 17 2.3 10.3
-17 -19 -21 10.2 14.8
21 -19 -17 -5 14.8
21 -17 -19 -3.7 10.4
-19 -17 -21 9.7 8.5
-19 -17 -21 3 14.7
-21 -19 -17 0.9 12.5
-21 -19 -17 10.5 8.5
-21 19 17 2.7 11.3
19 -21 -17 -8.5 11.6
21 1 -21 345.07 58.39
1 21 21 415.76 59.19
1 21 -21 377.66 59.49
-1 21 -21 382.76 59.29
-1 21 21 345.97 58.59
1 -21 -21 411.46 61.79
-1 -21 21 438.06 62.89
-21 -21 1 294.87 57.09
-21 -1 21 246.38 57.89
21 3 -21 219.18 45.4
-21 -21 3 342.97 47.7
-21 -3 21 351.26 49.5
-3 -21 21 305.47 50.69
-3 21 21 251.57 45.7
3 -21 -21 180.28 46.3
-21 -21 -3 231.48 45.3
3 21 21 322.67 46.8
21 -3 -21 235.18 46
-21 -21 5 100.89 21.2
-21 -5 21 125.99 24.1
-21 5 21 70.29 24
-5 -21 -21 64.89 23.9
-5 -21 21 89.89 25.9
-5 21 21 106.79 24
-21 -21 -5 83.29 21
-21 -21 -5 62.39 20.6
5 21 21 75.89 21.3
21 5 -21 118.09 24.7
21 21 -5 129.39 22.5
5 -21 -21 93.79 26.3
5 21 -21 96.79 24.8
-7 -21 -21 10.7 11.3
-7 -21 -21 42.3 13.2
-7 -21 21 41.5 17.2
-7 21 21 29.8 13.8
-21 -7 21 36.5 15.8
-21 7 21 14.3 13.2
-21 -21 -7 32.3 12.8
-21 -21 -7 42.7 14.6
-21 -21 7 15.3 10.8
21 -7 -21 18.6 13.8
21 7 -21 24.4 13.6
21 21 -7 19.8 12.3
7 -21 -21 18.1 15.5
7 21 -21 21.6 14.1
9 21 -21 221.58 37.6
21 -9 -21 157.08 34.6
21 9 -21 154.18 35.4
-9 21 21 211.68 37
9 -21 -21 141.09 35.2
-9 -21 -21 213.08 37.6
-9 -21 -21 263.87 37.3
-9 -21 21 194.08 37.5
-21 -21 -9 221.58 38.7
-21 -21 -9 124.79 32.5
-21 -9 -21 195.38 47.2
-21 9 21 170.88 37.2
-21 21 9 218.58 39
21 21 -9 205.58 35.7
21 -11 -21 457.75 72.99
11 -21 -21 578.94 76.49
21 -21 -11 428.86 74.09
-21 11 21 358.86 71.29
-21 21 11 409.16 72.89
-11 -21 -21 525.35 75.09
-21 -11 -21 414.56 79.59
-21 -11 -21 398.06 73.89
-21 -13 -21 208.78 48.1
21 -21 -13 264.47 49.7
-21 -13 -21 260.27 45.2
-21 21 13 283.47 48.6
-21 21 15 41.5 19
-21 -15 -21 86.49 26.7
-21 -15 -21 86.09 19.2
21 -21 -15 47.8 24.4
-22 0 0 1627.44 214.98
0 -22 0 1364.36 214.78
0 -22 0 1431.66 213.98
0 0 22 1446.16 215.68
-22 0 -2 876.21 138.29
-22 0 2 896.81 138.99
-2 -22 0 823.52 138.79
-2 -22 0 774.32 137.39
0 -2 -22 930.51 139.29
0 -2 22 1028 140.99
0 2 -22 1103.19 140.29
2 -22 0 847.32 138.99
2 -22 0 869.81 138.19
22 0 -2 1052.59 139.09
-22 2 0 901.21 138.59
-2 0 -22 1064.19 139.99
0 -22 -2 968.8 139.89
0 -22 -2 1107.99 139.99
0 -22 2 967.7 138.69
2 0 -22 882.01 139.09
2 0 22 770.42 138.29
22 2 0 1046.5 138.89
-22 -2 0 891.51 138.79
-2 2 -22 496.85 85.29
-2 2 22 672.73 88.49
-2 -2 22 610.44 87.29
-2 -22 -2 642.24 87.29
-2 -22 2 427.56 84.49
-2 -2 -22 690.53 87.79
-22 2 -2 533.85 84.69
-22 2 2 506.95 85.49
22 2 -2 601.84 85.79
-22 -2 -2 585.54 85.19
2 -22 -2 597.44 87.19
2 -22 -2 596.64 85.59
2 -22 2 558.84 86.49
2 -22 2 459.35 83.99
2 -2 -22 631.14 86.89
2 -2 22 588.54 86.79
2 2 22 436.56 85.09
-2 -22 2 501.05 84.69
-22 -2 2 512.35 85.39
0 4 22 338.47 67.49
4 -22 0 445.06 68.89
4 -22 0 368.26 66.49
-22 -4 0 473.05 68.29
-22 4 0 409.76 67.19
-4 0 22 518.85 69.99
0 -4 -22 500.85 69.69
22 0 -4 451.05 68.19
-22 0 -4 482.45 67.49
-22 0 4 363.16 67.39
-4 -22 0 466.35 68.69
-4 -22 0 464.45 67.59
4 0 22 417.06 68.19
0 -22 -4 441.66 68.79
0 -22 -4 449.56 67.69
0 -22 4 422.86 68.29
0 -4 22 330.57 67.29
0 4 -22 317.37 66.19
4 0 -22 481.85 68.69
0 -22 4 465.35 67.89
4 -22 2 239.88 44.5
-22 2 4 236.98 45.7
2 -4 22 260.47 46.6
2 4 -22 342.57 47.4
-2 -22 4 179.28 43.7
2 -22 -4 267.27 47.4
-4 -22 -2 214.18 45.9
-22 -4 2 263.57 45.7
-22 4 -2 221.48 43.9
-4 -2 22 362.86 49.2
-4 -22 -2 305.77 45.2
-2 -4 -22 355.86 48.9
4 2 22 215.68 45.5
22 4 2 248.08 44.9
22 2 -4 276.27 45.4
-2 -22 4 258.17 46.5
2 -22 -4 346.37 46.6
4 -22 2 327.67 47.7
-22 -2 -4 270.67 45.3
-2 4 22 357.36 49.2
-22 4 2 258.57 45.7
2 -22 4 283.97 45
4 -2 22 277.97 46.5
-2 -22 -4 316.27 47.8
-22 -4 -2 307.27 46.5
-4 -22 2 244.28 46
-2 -4 22 330.77 48.7
4 2 -22 341.47 48.2
2 4 22 252.07 46.2
4 -22 -2 236.08 44.6
22 -2 -4 195.08 43.8
-4 -2 -22 320.57 47.8
22 4 -2 243.78 44.8
-22 -2 4 277.27 46.4
-22 2 -4 277.07 44.7
2 -22 4 237.28 46.3
4 -22 -2 235.88 46
4 4 22 145.99 32.9
-4 4 -22 170.18 33.3
-4 4 22 115.79 32.5
-22 -4 4 191.08 33.8
-22 4 -4 177.28 31
-22 4 4 167.98 33.8
-4 -22 -4 118.09 30.7
4 -4 22 191.38 33.8
4 4 -22 215.38 34.2
4 -22 -4 162.08 34.3
4 -22 -4 195.08 32.1
4 -22 4 220.18 32.8
4 -4 -22 193.18 33
-4 -22 -4 125.39 30.5
-4 -22 4 164.68 33.2
-4 -22 4 176.88 31.9
-22 -4 -4 178.08 32.8
22 4 -4 198.78 33.2
-4 -4 22 219.68 34.3
6 -22 0 17.7 11.7
-22 0 6 1.9 7.7
-6 -22 0 9 10.8
-22 0 -6 4.3 6.9
0 -6 22 5.1 10.5
0 6 -22 8.1 9.4
0 6 22 8.6 9.6
-6 0 22 12.2 11.9
6 -22 0 14.1 9.6
22 0 -6 7.3 10.2
0 -22 6 1.8 15.4
-22 -6 0 10 9.6
-22 6 0 15.6 10.4
0 -6 -22 -5.2 7.4
6 0 -22 0.6 7.6
22 6 0 9.4 9.2
0 -22 -6 7.2 8.3
-6 0 -22 2 10.2
6 0 22 2.4 9.9
0 -22 -6 0.7 10.8
-6 -22 0 0.7 8
22 6 2 1.4 8.2
-2 -22 6 5 10.4
2 -6 22 2.9 10.3
-2 -22 6 1.9 8.3
2 -22 -6 0.4 10.5
2 6 -22 2.5 9.2
-2 -6 -22 -2.9 8
-22 -6 2 0 6.5
-22 6 -2 4.5 8
-6 -2 22 -1.5 10.8
-6 2 -22 -5.8 9.6
2 -22 -6 1 7.5
-6 -22 -2 3.8 7.8
-2 6 22 4.3 7.8
6 -2 -22 8 11
-22 2 6 -2.7 9.2
-6 -22 -2 -0.2 7.4
6 -22 2 -2.9 7.4
6 -22 2 -4.1 6.7
-22 -2 -6 1.9 7.3
22 2 -6 -3.4 8.3
6 2 22 -3 7.9
-22 2 -6 1.1 7.2
-6 -22 2 4.3 8.6
6 -2 22 -3.1 7.2
6 2 -22 5.3 7.6
-6 -2 -22 11 11.9
-2 6 -22 -2 8.2
2 -22 6 -0.6 7.9
2 -22 6 -0.3 7
-22 -2 6 -3 9.7
-22 6 2 7.3 9.9
2 -6 -22 -5 7.5
-2 -6 22 1.9 10
-2 -22 -6 -4.9 10.3
6 -22 -2 -2.2 11.9
6 -22 -2 -3.7 6.5
-6 2 22 9.6 9.2
-6 -22 2 6.4 10.7
22 6 -2 -7.4 8.2
2 6 22 0.7 7.5
22 -2 -6 0.9 10.9
-2 -22 -6 2.4 7.9
-22 -6 -2 3.5 8.7
-6 4 -22 32.2 13.1
-22 -6 4 22.8 12.2
6 -22 4 38.9 12.5
4 -22 -6 26.5 10.7
4 -22 -6 43.5 16.1
-22 4 6 22.6 13.2
-6 -22 -4 32.3 14.1
-22 -4 -6 34.9 12.9
-22 6 -4 25.7 10.1
6 -4 -22 15.9 14.3
-4 -22 6 14.1 10.5
-6 -22 -4 31.4 12.5
-4 6 22 12.5 12.7
22 6 4 30.9 11.9
4 -6 22 24.1 13.5
4 6 -22 27.4 12.8
-6 -4 22 14.7 12.8
-4 -6 -22 31.7 15.3
22 4 -6 6.4 10.2
-22 6 4 28.4 13.4
6 -22 -4 46.6 14.9
22 -4 -6 23.4 11.9
6 -4 22 39.3 13.6
6 -22 -4 35.2 12.7
22 6 -4 31.1 12.9
4 -22 6 40.7 12.9
4 -6 -22 14.6 11.1
-22 4 -6 32.7 10.9
-6 -22 4 28.8 13.4
-6 -22 4 30.5 12.6
-4 -6 22 21.5 11.6
-4 6 -22 26.4 12.9
-22 -4 6 24.3 13.2
4 6 22 34.7 13.5
-6 -4 -22 26.1 14.2
-22 -6 -4 39 13.4
6 4 -22 45.8 15.4
-6 4 22 22.1 13.6
-4 -22 -6 37.5 13.1
-4 -22 -6 20.9 11.1
22 -6 -6 451.95 70.99
-6 -22 -6 407.36 69.49
22 6 -6 499.65 71.69
-22 -6 -6 465.15 70.59
6 -6 22 480.25 71.09
6 6 -22 524.25 72.39
6 -22 -6 436.66 72.69
6 -22 6 430.16 69.19
-22 -6 6 519.85 73.19
-22 6 -6 417.56 66.69
-22 6 6 415.36 71.69
6 6 22 473.45 72.09
-6 6 -22 389.16 69.69
-6 6 22 490.65 73.19
-6 -6 22 405.16 71.39
0 -22 8 262.17 40.3
0 -22 8 228.88 38.9
0 -8 22 195.88 39.5
-8 0 22 232.68 40.2
-8 -22 0 194.38 37.9
8 0 22 203.28 38
22 8 0 218.28 37.6
-22 8 0 175.08 36.7
-8 0 -22 238.28 39.8
22 0 -8 198.18 38.3
0 -22 -8 222.18 38.5
-22 0 -8 225.78 35.9
-22 0 -8 186.38 35.5
-22 0 8 249.78 40.4
8 -22 0 270.97 38.3
-22 -8 0 149.79 36.9
-8 -22 0 217.18 36.8
0 -8 -22 182.48 39.2
0 8 22 248.38 40.2
-8 2 -22 119.39 24.7
-2 -22 8 148.09 26.1
-8 -2 22 127.89 26.7
22 2 -8 141.29 26.5
-22 -2 -8 94.09 22.6
-8 -22 -2 152.18 26.7
-8 -22 -2 72.29 22.8
-2 8 22 102.79 23.8
-2 -8 -22 111.89 27
22 8 2 102.69 24.6
-22 2 8 145.19 28.1
2 8 -22 137.39 26.1
8 -22 2 127.09 23.6
8 2 22 108.59 25.6
-22 -2 -8 99.29 22.3
2 -22 -8 103.69 26.8
8 -2 -22 126.19 24.6
2 -8 22 110.39 25.4
-22 -8 2 140.59 25.9
-22 8 -2 135.09 23.2
2 -22 -8 73.59 21.4
8 2 -22 117.69 25.5
-22 2 -8 115.99 21.4
-8 -22 2 139.29 24.7
22 8 -2 97.69 22.9
-22 -8 -2 92.39 24.3
-2 -22 -8 111.99 27.2
-22 2 -8 123.39 22.2
22 -2 -8 121.29 25.2
2 -22 8 115.99 24
-22 -2 8 119.99 26.5
-8 -22 2 96.59 24.8
8 -2 22 121.49 25.2
-22 8 2 142.79 26.3
-8 -2 -22 95.59 25.6
-8 2 22 126.69 27
-2 -22 -8 113.49 22.6
8 -22 -2 124.99 28.2
-2 8 -22 91.99 23.7
2 8 22 121.39 26.2
-2 -8 22 83.29 24.9
2 -8 -22 154.68 28.6
8 -22 -2 126.59 24
4 -8 22 30.2 13
-22 8 -4 37.9 10.4
8 4 22 37.4 14.8
-22 -4 -8 16 10.4
-4 8 22 26.4 14.4
4 8 -22 38.5 14.3
-8 -4 22 35.2 15.1
-8 -22 -4 33.7 14.9
-8 4 -22 44.6 14
22 8 4 34.2 13.4
-4 -22 8 40.8 13.3
4 -22 -8 25.1 15.9
-22 -8 4 24.8 12.9
22 4 -8 38.3 13.9
-4 -8 -22 36.2 16.1
-22 -4 -8 42.6 13.3
8 -4 -22 47.9 15
-22 4 8 45.3 16.9
-8 -22 -4 44.2 14.4
8 -22 4 47.6 13.2
-8 4 22 12.6 13
8 4 -22 34.7 14.3
-4 8 -22 50.99 14.2
-4 -22 -8 36.3 15.7
8 -4 22 26 12.1
22 -4 -8 37.1 14.1
4 8 22 25.3 13.9
-4 -8 22 21.7 14.1
-22 -4 8 22.2 13.1
-4 -22 -8 22.3 10.2
8 -22 -4 50.49 17.4
8 -22 -4 36.5 13.1
4 -8 -22 35.3 16.6
-8 -4 -22 46.3 16.4
22 8 -4 38.1 14.2
-22 8 4 52.69 16.8
-22 4 -8 23.5 9.1
-8 -22 4 7.9 10.7
-22 4 -8 27 8.4
4 22 -8 55.59 15.2
4 -22 8 36.6 13.1
6 -8 22 117.39 22.4
-6 -22 8 90.69 21.9
8 6 22 91.49 22.9
8 22 -6 105.69 21.8
-22 6 8 82.59 23.3
6 8 -22 106.99 23.4
-6 -8 -22 90.39 23.8
8 -6 -22 94.29 23.6
-6 8 22 50.09 19.4
-22 -6 -8 95.99 20.4
-22 8 -6 78.69 14
-22 8 -6 101.29 14.5
22 6 -8 67.49 19.6
-8 6 -22 103.99 21.1
-8 22 6 66.79 20.6
-22 -6 -8 84.89 20.3
-8 -22 -6 112.09 23.9
-22 -8 6 69.99 20.6
-8 -22 -6 149.99 22.3
8 -22 6 95.19 19.3
-8 -6 22 75.49 22.3
6 -22 -8 83.89 24.4
-6 22 8 127.59 23.3
6 -22 8 89.99 19.9
-22 -8 -6 72.49 20.4
8 6 -22 58.69 20.7
-6 8 -22 98.69 20.9
-6 -8 22 82.59 22.9
-6 -22 -8 49.3 20.1
-6 -22 -8 60.79 18.8
-8 -6 -22 61.99 24
6 8 22 124.39 24.4
-22 8 6 96.29 24.3
-8 6 22 82.99 22.5
6 22 -8 89.39 21.4
22 8 -6 104.59 22.6
-22 6 -8 92.79 13.6
6 -8 -22 115.89 25
22 -6 -8 79.89 21.9
-22 6 -8 96.69 13.6
-22 -6 8 98.19 21.4
-8 -8 -22 9.9 13.2
-8 -22 -8 2.8 7.4
-22 -8 -8 3.4 8.5
-22 -8 -8 6.8 8.3
-22 -8 8 1.7 10.1
8 -8 -22 3.8 9.4
8 8 -22 -4.8 8.5
-8 22 8 6.3 9.3
-22 8 8 7.2 11.3
8 -22 -8 -2.2 10.1
8 -22 8 -2.1 5.4
8 22 -8 5.1 9.2
22 -8 -8 1.8 9.2
22 8 -8 4.9 7.7
-8 8 22 8.5 11.3
-8 -22 8 5.1 8.9
8 8 22 6.3 11.2
-8 -22 -8 6.4 8.6
-8 -8 22 1 7.9
-8 8 -22 5.9 7.3
-22 0 -10 650.73 99.59
0 -10 22 606.74 102.39
0 -22 -10 733.93 103.29
-22 10 0 692.63 100.59
-10 0 -22 723.43 102.59
-10 0 22 775.62 104.09
-22 0 -10 610.54 99.19
-22 0 10 673.83 103.19
0 -22 -10 768.62 101.99
0 10 -22 585.04 100.69
10 0 22 685.83 101.99
22 10 0 738.33 102.39
0 -22 10 607.04 100.99
10 -22 0 589.54 100.29
10 0 -22 741.83 102.09
22 0 -10 574.34 101.29
-2 -22 10 453.25 80.09
2 -22 -10 527.45 82.99
-10 -2 22 436.06 81.19
-10 2 -22 554.94 80.99
10 2 22 463.55 80.59
2 -10 22 504.15 81.29
-22 2 10 601.54 83.49
-10 -22 -2 432.86 79.99
2 10 -22 479.95 80.59
-22 10 -2 560.94 78.79
10 -22 2 569.44 80.09
22 2 -10 531.95 82.09
-22 -2 -10 473.35 79.09
22 10 2 595.74 81.39
10 -2 -22 431.36 79.89
-2 -10 -22 424.36 81.49
-10 -22 -2 622.64 81.49
-22 -2 -10 531.05 80.19
-22 10 2 647.24 82.39
22 10 -2 519.55 80.59
10 -22 -2 575.24 80.89
-2 10 -22 445.06 79.69
-10 -22 2 387.76 79.39
-2 -10 22 546.65 82.99
-10 -2 -22 557.64 82.29
10 -2 22 457.75 79.69
-10 2 22 643.44 84.19
22 -2 -10 651.03 83.39
2 -10 -22 505.65 82.09
-2 -22 -10 510.85 82.09
-22 2 -10 579.14 78.19
-22 2 -10 486.85 77.69
2 -22 10 552.34 80.89
-2 22 10 582.34 81.29
4 -22 -10 297.07 60.79
-22 -4 -10 361.06 60.39
-22 4 10 422.26 62.99
-22 10 -4 403.56 57.69
-10 -22 -4 286.47 58.59
-4 -22 10 437.26 61.99
4 -10 22 390.96 61.29
22 4 -10 466.95 62.89
10 -22 4 367.46 58.89
-10 4 -22 407.56 60.29
10 -4 -22 287.57 59.19
-22 -4 -10 326.37 59.29
-10 -22 -4 440.06 61.99
22 10 4 458.75 62.99
10 4 22 369.46 61.09
4 10 -22 295.17 59.79
-10 -4 22 427.66 62.79
22 10 -4 377.46 60.99
-4 -10 22 355.46 65.49
-22 10 4 410.56 62.89
4 22 -10 382.96 60.29
-4 -22 -10 367.36 62.09
-4 10 -22 349.96 59.99
10 4 -22 492.15 63.19
4 -10 -22 484.25 63.99
-22 -10 -4 416.16 61.59
4 10 22 294.97 60.49
10 -22 -4 335.17 61.79
4 -22 10 342.97 59.49
-10 -4 -22 273.47 60.49
-10 4 22 453.35 63.59
-4 -22 -10 425.56 60.29
-22 -4 10 419.76 62.99
22 -4 -10 343.37 61.29
-4 22 10 454.85 62.59
-10 -22 -6 34.2 14
-10 22 6 64.89 17.5
-6 -22 10 48 15.9
-6 -10 -22 64.39 18.6
10 22 -6 56.19 15.9
22 6 -10 45.6 14.8
-6 10 22 29.8 13.7
6 10 -22 62.09 17.6
-10 -6 22 54.79 16.7
-10 6 -22 58.29 14.7
10 -6 -22 63.29 19.4
10 6 22 36.2 15.2
6 -22 -10 45 18.6
-10 -22 -6 76.29 19.7
-22 -6 -10 59.79 16.9
-22 -10 6 68.39 18.3
-22 -6 -10 43.3 14.1
-22 -6 10 19 14.5
6 -10 -22 54.49 18.4
-10 -22 6 50.59 16
6 10 22 42.2 16.2
-22 10 6 51.09 17.7
-10 -6 -22 53.69 18.9
6 22 -10 68.09 17.4
-6 -22 -10 56.99 18.3
22 10 -6 72.59 17.5
-22 -10 -6 47.5 15.8
6 -22 10 40 13.5
-10 6 22 19.3 12.8
10 6 -22 51.09 15.8
22 -6 -10 65.49 19.1
10 -22 -6 34.8 17.4
-22 -10 -6 30.1 13.2
-6 22 10 51.59 16.2
-6 -10 22 46.9 18.2
-6 -22 -10 41 13.9
-6 10 -22 58.49 15
10 8 22 349.27 55.59
-8 10 22 344.77 56.59
-22 -10 8 372.56 55.89
-8 -22 10 237.48 52.99
8 10 -22 403.36 56.79
10 -8 -22 400.96 56.09
-10 22 8 238.78 53.09
-22 -8 -10 314.37 54.19
22 8 -10 298.87 53.59
8 -22 -10 289.47 56.39
-22 -8 -10 441.66 57.29
-22 8 10 370.36 57.99
-10 -22 -8 406.66 55.99
-10 -22 8 269.77 53.89
-8 -10 22 375.86 57.59
-8 10 -22 380.66 53.39
22 -8 -10 337.87 55.99
-10 8 22 273.47 55.29
-8 22 10 364.26 55.99
8 -10 -22 388.26 56.19
-10 -8 -22 265.37 56.19
10 -22 -8 406.96 58.99
22 10 -8 328.47 54.89
10 8 -22 362.36 55.49
-22 10 8 331.07 57.19
-22 -10 -8 316.87 54.39
-22 -8 10 438.56 57.19
-8 -22 -10 258.37 53.49
8 10 22 321.07 54.79
-8 -22 -10 332.57 54.09
-22 -10 -8 274.47 53.99
22 -10 -10 976.3 162.38
22 10 -10 1214.58 162.58
10 -22 -10 899.01 170.98
-22 -10 -10 1115.69 163.08
-10 10 -22 1041.4 158.68
-10 10 22 1081.99 163.08
10 22 -10 931.91 160.58
-22 -10 10 987.5 161.98
10 10 22 1137.69 163.38
-10 -22 -10 1209.68 162.68
-10 -22 10 1038.2 162.28
-10 -10 -22 1329.57 166.38
-22 10 10 1157.28 164.78
-22 -10 -10 1201.08 162.88
-22 12 0 778.32 108.99
-22 0 -12 729.93 108.49
-22 0 -12 747.93 108.09
-22 -12 0 573.14 109.19
-12 -22 0 818.02 110.59
-12 -22 0 877.01 111.09
12 -22 0 670.03 108.79
12 0 22 718.13 109.49
22 12 0 604.84 109.39
0 12 -22 604.14 109.79
-12 0 -22 716.53 110.29
0 -22 -12 836.92 112.99
0 -12 22 711.63 111.49
0 -22 12 745.13 111.19
0 22 -12 725.63 109.89
22 0 -12 859.81 111.89
-2 12 22 412.66 82.29
-12 -2 22 607.14 83.99
2 -22 -12 531.25 83.99
22 2 -12 465.05 81.99
-22 -12 2 648.24 84.59
12 2 22 542.75 82.19
22 12 2 565.34 82.49
2 -12 22 464.35 82.09
-2 -22 12 588.94 83.99
-12 -22 -2 460.05 81.49
-2 -12 -22 650.73 85.59
-22 -2 -12 601.84 82.09
12 -22 2 522.65 80.59
-22 -2 -12 480.25 79.99
12 -22 -2 547.55 81.69
-22 -12 -2 620.24 83.89
2 12 22 535.85 82.99
-22 12 2 487.75 81.69
12 2 -22 415.56 80.89
-2 -12 22 500.05 83.59
2 22 -12 619.54 82.79
-22 -2 12 618.34 84.79
-22 2 -12 516.05 78.39
22 -2 -12 510.25 83.29
2 -22 12 455.75 81.59
-2 22 12 480.85 81.99
-22 2 -12 575.14 79.39
22 12 -2 629.64 83.89
-12 -2 -22 453.35 82.49
-22 -4 -12 324.17 50.59
12 4 22 244.58 50.09
4 -12 22 354.86 51.99
-4 -12 -22 315.47 52.69
-22 4 12 235.48 50.49
-12 -22 -4 338.17 51.89
-12 -22 -4 320.87 50.59
-12 22 4 290.87 51.29
22 4 -12 275.47 51.39
-22 12 -4 300.97 45.2
-12 4 -22 299.97 49.6
-22 -4 -12 254.57 49.99
12 -4 -22 385.76 52.79
-4 -22 12 220.38 50.09
-12 -4 22 310.67 52.59
-22 -12 4 307.97 51.79
4 -22 -12 231.18 51.99
12 22 -4 285.57 50.09
-4 12 -22 327.07 50.89
-4 22 12 312.57 50.69
22 -4 -12 307.27 52.79
22 12 -4 335.07 51.29
4 -22 12 335.47 51.59
-4 -12 22 276.77 52.49
4 12 22 380.36 54.09
-12 -4 -22 307.47 53.49
-22 -4 12 355.36 53.59
-22 -12 -4 388.76 53.39
-4 -22 -12 348.67 50.99
-22 12 4 339.37 52.39
-22 -12 6 80.59 21.6
12 6 22 99.09 22.8
-22 -6 -12 96.59 20.5
6 -22 -12 106.39 25.5
-12 -6 22 44.2 18.2
-6 12 22 118.79 22.3
6 12 -22 116.39 24.3
-6 -22 12 120.49 23.5
12 22 -6 92.49 21
-12 22 6 46.6 18.6
22 6 -12 114.39 23.5
-12 -22 -6 49.6 18.2
12 -6 -22 111.89 23.9
-22 6 12 125.29 25.1
-22 -6 -12 109.39 21.8
-12 6 -22 87.59 17.3
-12 -22 -6 53.39 19.1
-6 -12 -22 80.29 24.3
22 12 -6 61.59 19.6
-22 -12 -6 76.79 26.4
6 22 -12 108.19 22
-12 -22 6 42.7 18.1
22 -6 -12 89.69 23.8
6 12 22 57.59 18.9
-12 -6 -22 85.39 23.5
-12 6 22 68.89 21.8
-22 -6 12 90.89 22.4
12 -22 -6 94.89 24.4
-22 12 6 94.59 23.5
-6 -12 22 100.29 26.3
6 -12 -22 83.19 21.5
-6 -22 -12 78.99 18
-6 12 -22 88.09 19.3
-8 -12 -22 200.48 52.29
8 -22 -12 273.97 53.89
22 8 -12 404.06 53.79
-22 -8 -12 305.47 50.99
-8 -22 12 267.07 51.59
-8 12 22 254.47 51.49
-12 22 8 411.36 54.49
-22 -12 8 404.46 53.39
12 8 22 354.96 53.19
12 22 -8 307.37 50.49
12 -8 -22 327.57 53.49
-12 -22 -8 350.66 52.09
-12 -22 -8 254.47 50.19
-12 8 -22 370.16 48
22 -8 -12 363.86 54.09
12 -22 -8 379.26 56.19
-12 -22 8 214.98 49.1
-22 -12 -8 399.26 53.69
-22 12 8 371.96 55.09
-12 -8 -22 211.88 52.49
-8 22 12 237.58 50.39
8 12 22 247.38 51.09
-8 12 -22 329.07 48.9
-8 -12 22 273.77 53.09
-12 8 22 357.16 54.49
-22 -8 12 375.26 54.39
-8 -22 -12 230.28 49
12 8 -22 261.27 50.99
-22 -12 -8 380.56 53.39
8 -12 -22 331.17 52.49
-22 -10 -12 709.23 127.69
-12 -22 -10 1009.7 128.79
10 -22 -12 935.31 131.29
-10 -22 12 738.83 128.09
-12 -22 -10 892.41 128.69
22 -12 -10 937.91 129.69
-12 22 10 691.13 127.69
-12 10 -22 737.13 122.59
22 10 -12 905.21 128.39
-22 -10 -12 936.01 128.89
-22 10 12 1056.29 132.79
-12 -22 10 1018.1 130.09
-12 10 22 825.52 129.09
-22 12 10 942.71 131.09
-10 -22 -12 715.13 126.79
12 -22 -10 728.33 129.49
10 12 22 1005.5 130.69
-22 -12 -10 998.7 129.69
-22 -10 12 708.63 127.59
-10 -22 -12 822.22 128.19
22 -10 -12 953.6 130.29
-10 12 -22 775.72 123.89
-22 12 12 735.63 112.79
-12 22 12 684.83 111.39
-12 -22 12 717.03 110.69
12 -12 -22 715.13 110.69
12 -22 -12 862.71 113.89
-12 -12 -22 901.51 115.19
-22 -12 -12 910.31 112.09
22 -12 -12 708.63 111.39
12 12 -22 640.84 110.19
-12 -22 -12 596.44 111.09
-12 -12 22 577.44 110.19
0 14 22 337.07 49.3
-22 0 -14 306.97 44.6
-22 0 -14 312.87 45.8
0 -14 22 299.47 49.7
0 14 -22 240.78 46.7
14 -22 0 234.28 44.6
22 0 -14 377.86 50.59
-14 -22 0 335.37 48
0 -14 -22 274.07 52.49
0 22 -14 287.77 47
-22 -14 0 227.98 46.3
22 14 0 221.58 46.2
-14 0 -22 294.67 47.5
0 -22 14 282.97 48.4
-14 0 22 240.98 46.6
-22 14 0 246.38 44.9
-14 -22 -2 113.29 23.8
-2 14 22 134.69 25.7
-22 -14 2 101.19 24
-14 2 -22 101.89 22.9
-22 -2 -14 103.49 21.2
-22 2 14 110.69 25.8
14 -2 -22 56.79 21.7
-2 22 -14 134.09 24.2
-2 -22 14 135.79 25.5
-14 -2 22 61.29 22.3
2 -22 -14 80.79 25.3
22 14 2 95.19 23.5
-14 -22 -2 85.79 22
-22 14 -2 103.59 20.1
2 -14 22 75.29 23.8
2 14 -22 82.09 23
-2 -14 -22 156.98 28.6
22 2 -14 130.29 24.3
-2 -22 -14 143.69 26.3
2 14 22 146.49 26.7
-14 -2 -22 141.99 26.3
-22 2 -14 120.99 18.7
-2 -14 22 126.49 26.7
-14 2 22 61.29 22.5
-22 -14 -2 150.88 25.8
22 14 -2 84.89 22
-22 -2 14 64.59 23.3
-2 22 14 132.09 24.9
-2 14 -22 102.59 23
-14 -22 2 141.29 24.7
14 2 -22 73.99 23
-22 2 -14 99.59 18.9
2 -22 14 116.79 24.4
2 22 -14 159.88 26.1
-22 14 2 124.69 34.8
22 -2 -14 108.29 25.8
-22 -4 -14 -2.6 8.4
-22 -4 -14 11.6 8.2
-14 -22 -4 3.4 9.7
-22 -14 4 -3.2 7.6
-14 22 4 -1.5 8.8
-14 -22 -4 8.7 8.8
-14 -4 22 3.2 10
22 4 -14 5 8.4
-22 4 14 5.1 8.9
14 -4 -22 -3.6 7
-14 4 -22 12.5 7.5
-4 -22 14 9.4 10
4 -14 22 -4.5 9.7
4 14 -22 4.2 9.3
14 22 -4 2.1 9.3
4 -22 -14 1.4 12
-4 14 22 3.1 9.4
-4 -14 -22 14.2 10.9
4 22 -14 5.7 8.3
14 -22 -4 -5.9 7.3
22 -4 -14 8.6 11.9
-22 14 4 2.4 8.4
-14 -4 -22 -3.2 9.4
-14 -22 4 0.7 8.2
22 14 -4 9 11.1
-4 -14 22 7.6 11.2
4 14 22 10.7 8.4
-4 -22 -14 7 8.9
-4 -22 -14 5.3 7.9
-4 14 -22 15.3 8.5
4 -14 -22 1.5 11.3
-4 22 14 5.5 6.8
-22 -4 14 9.6 11.4
-22 -14 -4 10.5 9.7
-14 4 22 -1.4 9.1
4 -22 14 18.7 16.2
14 4 -22 -0.1 9.9
-6 -14 -22 17 14.6
-14 6 -22 21.9 7
-14 6 -22 15 6.4
14 22 -6 10.8 10.5
22 6 -14 40.2 15.1
-14 22 6 24.5 12.6
14 -6 -22 28 12.8
-22 -6 -14 20.7 12.4
-22 -6 -14 24 10.8
-22 6 14 24.2 13.9
-14 -22 -6 12.3 11.3
-14 -22 -6 24.5 10.3
-6 -22 14 31.5 12.9
6 14 -22 30.8 13.6
6 -22 -14 12.5 14.3
-6 14 22 31.7 12.8
-14 -6 22 27.3 13.5
-22 -14 6 18.4 10.1
14 6 -22 32.3 12.9
-6 -22 -14 18.1 13.6
-22 -6 14 5.8 8.9
-6 -14 22 20.1 14.6
22 14 -6 31 13.5
-6 22 14 35.3 13.4
22 -6 -14 37.2 13.9
-14 -6 -22 26.1 11.7
-22 14 6 13.8 12.4
-22 -14 -6 26.4 13.2
-14 -22 6 24.6 12.1
-14 6 22 20.5 11.5
-6 14 -22 22.1 9.8
-6 -22 -14 16.6 10.1
6 -14 -22 31.9 16.5
6 22 -14 28.7 12.5
6 14 22 36.6 13.3
14 -22 -6 -0.8 9.5
-22 -14 -6 20.9 10
-14 -6 -22 24.8 13.5
-14 -22 -8 22.3 13.2
14 22 -8 3.1 9.2
-8 14 22 32.3 14.7
22 8 -14 28.5 13.6
8 14 -22 20.8 12.9
-22 -8 -14 22.7 12
-14 22 8 31.9 13.2
22 -14 -8 19.2 9
-22 8 14 0.7 12.2
-22 -8 -14 31.5 11.9
-8 -14 -22 34.6 16
-22 -14 8 29.4 13.8
-14 -8 22 22.8 13.7
8 -22 -14 41.4 18
-14 -22 -8 14.5 9.3
14 -8 -22 20.1 12.9
-8 22 14 15.3 12
-8 -22 -14 13.6 12.3
14 8 -22 38 13.4
14 -22 -8 21.6 16.5
-22 14 8 19.6 13.8
-8 -22 -14 39.4 12.1
-22 -14 -8 38.2 13.5
-22 -14 -8 17.4 11.1
8 22 -14 22.5 12.3
-22 -8 14 21.5 11.5
-8 -14 22 28.6 15.9
8 14 22 19.4 10.6
-8 14 -22 29.6 9.5
22 -8 -14 26.3 14.3
-14 -8 -22 30.1 12.4
-14 -22 8 6.7 8.6
-14 8 22 64.79 17
22 14 -8 31.7 13
-14 -8 -22 43 18.1
8 -14 -22 21.3 12.5
-14 22 10 225.48 46.1
10 -22 -14 239.08 48.6
10 14 -22 327.97 48
-10 -14 -22 370.46 51.69
-22 -10 -14 199.88 44.7
14 22 -10 331.37 46.7
-22 -14 10 305.67 46.5
-14 -22 -10 294.77 45.2
-14 -10 22 198.28 45.7
-22 10 14 192.48 46.1
-22 -10 -14 253.87 44.8
-10 -22 14 327.37 48
22 -14 -10 247.18 46.7
-22 14 10 318.77 49
-22 -14 -10 298.37 46.5
22 -10 -14 258.57 46.9
22 14 -10 317.77 45.8
-10 -22 -14 319.67 47.8
-14 10 22 258.27 47.3
14 -22 -10 231.28 48.3
-14 -10 -22 279.07 46.1
-10 22 14 197.28 45
10 22 -14 316.17 46.4
-22 -14 -10 288.07 47.6
14 10 -22 170.18 44.1
-14 -22 10 214.28 43.9
10 -14 -22 276.87 47.9
-14 -10 -22 218.78 47
-10 -14 22 253.17 48.3
-22 12 14 249.97 49.4
22 -14 -12 304.47 51.49
-12 -14 -22 190.58 45.5
-12 -22 14 331.97 49.8
-22 -12 -14 265.47 47.4
12 -22 -14 272.27 49.9
14 22 -12 306.07 47.9
22 12 -14 372.66 49.6
-22 -14 12 301.97 48.2
-22 -12 -14 360.76 50.79
-14 22 12 227.78 48.1
-14 -12 22 193.68 46.1
-14 -22 -12 225.48 46
-22 -12 14 258.87 47.4
-14 -12 -22 317.47 47.9
12 -14 -22 221.28 48.4
-22 14 12 251.67 49.2
14 -22 -12 353.26 53.09
-14 -12 -22 316.97 52.29
22 -12 -14 258.97 48.6
-12 -22 -14 220.08 45.1
14 12 -22 351.16 48.9
-12 -14 22 254.87 49.4
-14 -22 12 266.07 47.3
-12 22 14 319.17 56.49
-22 -14 -12 300.17 49.5
-22 -14 -12 320.37 48.2
-14 14 22 70.09 20.3
-14 22 14 82.89 22.1
-14 -14 22 59.89 20.1
14 -14 -22 34.3 17.5
22 -14 -14 49.99 20.4
22 14 -14 55.79 17.9
14 -22 -14 30.6 19.3
-14 -22 14 106.89 20.7
-22 -14 -14 73.59 20.5
14 14 -22 82.29 21
-14 -14 -22 57.79 17.6
-22 -14 -14 35.2 15.5
-14 -22 -14 41 15.9
-22 -14 14 29.7 15.5
-22 14 14 70.89 21.8
-14 -22 -14 84.49 21
14 22 -14 71.79 18.6
-14 -14 -22 18.5 18.7
-22 16 0 107.69 21.3
-16 0 22 58.19 20.7
0 -22 -16 99.69 25.2
0 16 -22 86.79 23
0 -22 16 102.09 22.7
-22 0 16 96.49 24.6
22 0 -16 91.29 23.8
-16 0 -22 76.69 21.8
-22 0 -16 105.29 18.6
-22 0 -16 76.29 19.6
-16 -22 0 107.79 22.4
0 22 16 119.09 22
16 0 -22 77.99 22.3
22 16 0 111.59 21.6
0 -16 -22 88.29 24.8
0 -16 22 101.49 25.8
-16 0 -22 91.39 19.7
0 16 22 81.99 22.9
0 22 -16 108.19 23.2
-2 -22 16 31.2 13.4
-16 -22 -2 27.5 12.3
-2 22 -16 30.5 12
-22 16 -2 25.7 11.9
16 -2 -22 24.7 13.2
-22 -2 -16 34.2 10.9
-16 -22 -2 42.1 13.9
-2 16 22 9.4 10.5
-2 -16 -22 10.1 11.6
-16 -2 22 33.2 14.3
22 2 -16 47.2 15.9
2 16 -22 12.5 11.8
-16 2 -22 22.5 10.9
-22 2 16 18.9 13.2
-22 -2 -16 34.9 13.4
2 -16 22 33 14.2
-22 -16 2 31.3 13
2 22 16 12.3 10.3
-16 -2 -22 28.6 10.7
-22 16 2 41.8 13.6
-2 16 -22 17.4 11
-22 -16 -2 10.9 11.1
-16 -22 2 40 12.5
22 16 -2 22.6 11.1
2 16 22 12.1 11.5
-16 -2 -22 24.6 13.2
16 2 -22 13.7 11
22 -2 -16 33.3 14.8
2 -16 -22 3.7 12.5
2 22 -16 35.5 13.8
-16 2 22 38.4 14.1
-2 -16 22 15.3 13.8
-2 -22 -16 7.4 12.8
-22 -2 16 3.4 11.4
-2 22 16 18.5 10
-16 -4 22 15 10.5
-22 -4 -16 20.3 11.8
-22 4 16 5.4 11.3
4 16 -22 21.2 12
-4 -22 16 20.3 12.2
16 22 -4 18.2 9.7
-4 -16 -22 13.1 14.6
22 4 -16 23.2 12.9
-22 -4 -16 26.6 10.2
4 -22 -16 -1.9 12.6
-16 22 4 16.1 11.1
-4 16 22 14.5 11.7
16 -4 -22 13.1 10.7
4 -16 22 10 10.3
-16 -22 -4 7.2 10.7
-16 -22 -4 3.5 8.6
-22 -16 4 14.6 9
-22 -16 -4 9.3 8.9
22 -4 -16 28.5 14.3
4 16 22 1.7 7.4
-4 22 16 4 9.1
-16 -4 -22 18.9 15.8
-22 16 4 19 11.1
-16 4 22 21.6 11.3
-4 -16 22 9.5 12.6
-22 -4 16 26 14.2
22 16 -4 19.1 11.9
4 -22 16 12.3 8.9
-4 -22 -16 10.6 10.8
4 22 -16 15.6 11.8
-16 -22 4 7.8 7.1
16 4 -22 21.1 10.8
-22 -16 -4 17.4 11
4 -16 -22 11.2 13.2
-4 16 -22 7.6 8.6
16 -6 -22 66.89 24.4
-6 -22 16 134.09 27.9
-22 6 16 91.19 27.8
-16 22 6 141.19 27.7
-22 -6 -16 128.99 25.1
-6 16 22 137.29 26.2
-16 -22 -6 182.88 28.4
6 -22 -16 100.49 26.6
6 16 -22 161.28 28.9
-6 -16 -22 175.08 29.6
22 6 -16 127.29 26.1
16 22 -6 74.99 22.8
-16 -6 22 159.88 27.7
-16 -6 -22 145.79 26.3
6 22 -16 160.88 29
16 6 -22 168.48 27.2
22 -6 -16 158.78 29.6
6 -16 -22 99.89 28.7
-16 6 22 87.29 24.5
-6 22 16 100.79 25.4
-6 -22 -16 160.88 26.7
22 16 -6 122.09 25.5
-6 -16 22 149.29 30.8
-22 -16 -6 93.89 24
-16 -6 -22 160.88 30.8
-22 -6 16 86.69 26.4
-16 -8 22 -3.8 7.1
8 -22 -16 1.3 12.3
-16 22 8 12.7 11.7
8 16 -22 -1 9.1
22 -16 -8 2.5 8.3
-22 -16 8 10.9 8.3
16 -8 -22 4.9 8.9
-8 16 22 0.6 8.9
-16 -22 -8 10.2 9
-16 -22 -8 9.6 11.1
-22 8 16 13.4 12.1
-8 -16 -22 1.9 8.9
-22 -8 -16 6 9.6
16 22 -8 5.8 7.7
-8 -22 16 14.2 11.3
-22 -16 -8 7.4 10.3
-16 -22 8 16 9.2
22 -8 -16 14.4 11.9
8 22 -16 -2.1 8.6
8 16 22 4.3 9.8
-8 22 16 8.2 7.8
-16 8 22 2.7 10.4
-22 -8 16 8 11.4
-22 16 8 2.6 10.5
22 16 -8 3.6 7.9
-22 -16 -8 11.2 10
-8 -22 -16 8.4 11.9
-8 -16 22 9.6 12.2
8 -16 -22 16.9 11.7
-16 -8 -22 4.2 10.9
-8 -22 -16 1.3 5.6
-16 -8 -22 11.9 9.1
16 -22 -8 0.9 11.4
16 8 -22 1.9 7
-16 -22 -10 68.69 21
-22 -10 -16 57.59 20.1
-22 -10 -16 85.89 19.7
-16 -22 -10 60.59 18.7
-16 -10 22 35.5 18.7
10 -22 -16 72.69 24.6
-10 -22 16 78.59 21.6
16 -10 -22 114.19 24.3
-10 16 22 113.89 24.9
22 10 -16 103.59 22.8
-22 -16 10 91.99 20.9
-16 22 10 95.39 24
-22 10 16 87.99 23.6
10 16 -22 85.79 22
10 22 -16 96.49 21.3
-10 22 16 106.09 22.6
16 -22 -10 110.59 27
-10 -22 -16 50.59 20.5
-16 -10 -22 84.79 19.8
22 16 -10 106.69 21.9
-10 -16 22 112.19 25.6
-10 -22 -16 50.49 17.6
22 -10 -16 79.49 22.4
-16 10 22 33.9 18.5
-22 -16 -10 49.9 18.5
-16 -22 10 42.6 18.1
-22 16 10 78.09 22.4
-16 -10 -22 121.39 27.6
-22 -16 -10 98.19 24
-22 -10 16 42.7 18.8
12 -22 -16 75.29 28.4
-22 -12 -16 77.29 20.1
-12 -16 -22 76.69 19.5
-12 16 22 73.29 20.6
-16 22 12 63.29 20.5
-22 -16 12 70.69 18.9
-16 -22 -12 38.3 18.4
-16 -22 -12 37.4 16.1
-22 12 16 48.4 19.6
-12 -16 -22 68.29 21.9
-12 -22 16 68.29 20
-16 -12 22 94.19 22.3
22 -16 -12 80.29 22.1
16 22 -12 88.59 18.8
16 -12 -22 48.8 17.4
-22 -12 -16 55.59 20.7
12 16 -22 81.29 20.4
-16 -22 12 71.39 19.3
12 -16 -22 99.09 24.8
-16 12 22 76.79 21.2
22 16 -12 76.59 19.2
-22 -16 -12 29.3 17.6
-12 -22 -16 48.2 16.1
16 -22 -12 79.69 24.5
-12 -22 -16 60.29 20.7
-12 22 16 76.59 21.5
12 22 -16 100.69 21.7
-22 16 12 74.49 21.8
16 12 -22 35.9 15.7
-16 -12 -22 72.79 19.8
-22 -12 16 30.7 15.4
-22 -16 -12 76.89 20.3
22 -12 -16 52.79 20
-16 -12 -22 53.59 20.9
-12 -16 22 91.09 23.5
-22 -14 -16 -9.1 8.2
14 16 -22 1.3 9.7
-14 -22 16 12.5 9
-16 -14 22 -5.3 9.8
-22 14 16 -3.3 10.1
-22 -14 -16 2.7 7.3
16 -14 -22 1.5 12.6
14 -22 -16 -2.8 10.1
-16 -22 -14 9.1 7.6
-14 -16 -22 5.3 8.5
-16 22 14 -1.3 8.8
22 -16 -14 5.2 11.4
-16 -22 -14 -4.6 6.3
16 22 -14 4.9 7.7
-22 -16 14 9.6 10.9
-14 16 22 -2.9 10.5
-14 -16 -22 -8.7 10
22 14 -16 9.7 10.6
-14 22 16 -0.9 6.3
-22 16 14 -0.2 10.3
-22 -16 -14 -3.1 7.8
-22 -16 -14 5.8 10
16 -22 -14 -11.7 11.8
-16 -14 -22 6.3 6.8
-14 -22 -16 4.3 7.3
-14 -16 22 -0.3 10.7
22 16 -14 2.2 7.3
22 -14 -16 21.9 12.9
-14 -22 -16 1.7 9.8
-22 -14 16 4.4 8.3
-16 -22 14 10.8 8.6
16 14 -22 11.6 11.7
14 22 -16 -5.4 6.5
-16 14 22 1.6 9.9
14 -16 -22 -1.9 14
-16 -14 -22 -13.1 10.9
-16 -22 -16 27.5 14.2
-16 22 16 37.4 16.1
-22 -16 -16 20.8 14.7
16 -22 -16 18.5 17.7
-16 -16 -22 53.09 16.5
-16 16 22 16.3 13.1
-16 -22 -16 16.5 9.5
-22 -16 -16 29 11.2
16 -16 -22 15.2 13.1
16 16 -22 45 16
22 -16 -16 36.7 17.4
-22 16 16 31.7 16.2
-16 -16 -22 18.6 16.7
16 22 -16 29.4 13.2
-22 -18 0 85.39 22.7
0 -22 18 133.09 28.2
18 0 -22 124.69 25.2
0 22 -18 158.08 27.3
-22 0 18 149.59 28.2
-18 -22 0 106.19 25.1
0 22 18 120.09 25.8
0 18 22 85.39 24.7
22 18 0 91.79 25
0 -18 22 116.19 28.8
0 18 -22 111.39 25.3
-18 0 22 155.98 28.5
22 0 -18 86.49 26
0 -22 -18 164.08 28.4
0 -18 -22 132.79 30.2
-18 -2 22 89.69 21.4
22 2 -18 76.99 20.1
2 -22 -18 99.29 22.8
-2 -22 18 68.19 20.3
2 22 18 53.39 17.5
-2 22 -18 70.99 18.3
18 -2 -22 80.59 20.7
-2 18 22 51.09 18.4
-18 -22 -2 85.99 17.6
-2 -18 -22 109.89 25.2
-22 2 18 60.59 20.7
-18 -22 -2 26.7 14.2
2 -18 22 56.99 19.1
2 18 -22 85.39 21.9
-22 -18 2 67.59 19.1
-22 -2 18 84.49 20.5
2 18 22 80.99 19.8
2 -18 -22 30.2 16.1
-2 22 18 58.79 17.1
-18 2 22 61.09 18.6
18 2 -22 39.9 17
-2 18 -22 66.59 18.2
-22 18 2 44.1 17
22 18 -2 42.3 15.8
22 -2 -18 72.29 19.6
-2 -18 22 43 19
-22 -18 -2 70.69 19.1
-18 -22 2 44.1 16.1
-2 -22 -18 83.29 22.7
2 22 -18 52.89 17.7
-18 -2 -22 61.29 16.2
2 -22 18 79.29 20.3
-18 -2 -22 62.89 19
-22 4 18 -4.7 9
-4 18 22 -0.2 5.7
-4 22 -18 4.7 5.9
4 18 -22 4.4 10.3
18 -4 -22 7.7 13.7
4 -22 -18 1 13
-22 -18 4 5.4 8.7
-18 -22 -4 17.8 10.8
-4 -22 18 -3.8 9.7
18 22 -4 0.9 7.1
-18 -4 22 1.1 7.4
-22 -4 -18 10.5 10.7
-18 22 4 -2.2 7.8
-22 -4 -18 5.1 6.2
-4 -18 -22 -0.5 12.2
22 4 -18 10.5 11.3
22 -4 -18 2 10.3
-22 -18 -4 5.5 8.2
-22 -18 -4 6.5 7.7
-18 -4 -22 8 7.8
-22 18 4 -5.2 8.1
4 -18 -22 -7.4 8.5
22 18 -4 5.9 9.6
-4 22 18 -1.1 8.2
-18 4 22 5.3 10.1
-4 -18 22 8.7 12.3
-18 -22 4 9.5 8.9
-18 -4 -22 -6.5 9.7
4 18 22 6.8 7.8
-4 -22 -18 6.4 12.9
-4 18 -22 9.2 8.2
4 22 -18 5.7 8.9
-22 -4 18 1.5 10.5
18 4 -22 8.1 9.4
-18 22 6 29.3 13.5
-22 -6 -18 25.7 11.7
-6 -18 -22 20.1 12
-18 -6 22 35.2 14
18 -6 -22 39 15.1
-22 6 18 24 12.8
-6 -22 18 30.2 15
6 18 -22 28.4 13.1
18 22 -6 33.1 12.2
-6 18 22 20.6 12.8
-18 -22 -6 9.8 9.9
22 6 -18 39.6 20.6
6 -22 -18 44.1 18.2
-18 -22 -6 43.5 15.4
-22 -6 -18 22.8 14.5
22 -6 -18 38.9 16.4
22 18 -6 20.1 12.5
-18 -22 6 22 11.1
-6 -22 -18 40.1 13.4
-18 -6 -22 28.7 12.4
6 22 -18 40 15.3
-18 -6 -22 32.4 17.5
-18 6 22 28.6 12.8
-6 -18 22 31 16
-6 22 18 26.4 11.6
-22 18 6 38.7 15.4
-22 -6 18 24.2 13.9
18 6 -22 49.2 15
-22 -18 -6 21.5 11.3
-22 -18 -6 40.2 15.7
6 -18 -22 45.4 17.5
-6 -22 -18 5.7 12.5
6 18 22 17.9 12.3
-8 -18 -22 1.8 8.3
22 8 -18 6.5 10.3
18 -8 -22 14 10.5
-18 -8 22 -1.5 7.6
-22 -8 -18 6.9 6.6
-8 18 22 2.3 9.1
8 18 -22 3 9.1
-8 -22 18 -1.5 10
18 22 -8 2 6.4
-18 -22 -8 11.9 10.6
-18 22 8 5.7 16.9
-22 8 18 0.8 10.5
-22 -8 -18 4.1 11.4
8 -22 -18 -5.4 12
-22 -18 8 2.3 7.8
-18 -22 -8 4 6.1
18 -22 -8 -2.5 11.1
22 -8 -18 2.1 8.2
-18 -8 -22 -9.4 8.2
-22 -18 -8 -4.5 9.4
-22 -18 -8 8 8.4
18 8 -22 -3.4 8.1
22 18 -8 -2.6 8.5
-8 22 18 -7.8 5.1
-22 -8 18 -8 9.5
8 -18 -22 1.1 12.2
-18 8 22 -4.5 6.7
-8 -22 -18 -5.3 10.3
-8 -18 22 -3.3 9.8
8 22 -18 3.3 10.5
-8 -22 -18 0.7 6.9
-22 18 8 -8.2 7.8
-18 -22 8 3.3 8.8
-18 -8 -22 1.1 7.5
-18 22 10 98.59 27.5
22 10 -18 74.09 23
10 18 -22 127.29 25.7
-18 -22 -10 116.39 26.4
18 -10 -22 90.19 25.4
18 22 -10 59.79 21.6
-10 -18 -22 120.69 24.3
10 -22 -18 90.09 26.1
-10 -18 -22 151.38 31.7
-22 -10 -18 72.69 25.7
-22 -18 10 122.19 24
-18 -22 -10 120.49 23.8
-22 -10 -18 116.49 24
-18 -10 22 63.19 23.1
-10 -22 18 138.39 28.5
-10 -18 22 87.99 26.6
-22 -18 -10 146.19 25.7
22 -10 -18 120.59 26.8
-18 -22 10 130.09 24.9
-22 -18 -10 179.18 29.5
-18 -10 -22 116.69 24.4
-22 18 10 118.29 28.9
-10 -22 -18 59.29 24
-18 -10 -22 127.09 32.5
10 -18 -22 60.29 24.8
18 10 -22 89.69 25
-22 -10 18 137.29 25.6
22 18 -10 109.69 24.5
-10 -22 -18 62.39 21
-10 22 18 104.99 27
10 22 -18 161.68 26.5
-18 10 22 128.09 27.4
-18 -22 -12 104.19 27.3
-12 -18 -22 116.29 24.1
-22 -12 -18 136.89 26.1
22 12 -18 86.09 25
-12 -22 18 139.49 28.9
-18 22 12 98.89 27.4
-22 -18 12 115.99 25
18 -12 -22 142.09 29.2
22 -18 -12 128.29 29
-12 18 22 110.59 24.9
-18 -12 22 133.29 26.6
-22 12 18 73.59 26.8
-18 -22 -12 90.89 22.2
12 -22 -18 123.39 31.4
-22 -12 -18 92.19 27.8
18 22 -12 107.19 25.1
12 22 -18 219.78 39.1
-12 -18 22 80.19 25.8
-12 -22 -18 57.79 22.3
12 -18 -22 119.39 29.9
22 -12 -18 130.99 28.2
-18 -22 12 179.48 27.7
-12 -22 -18 120.59 29.3
-18 12 22 154.38 29.2
18 -22 -12 153.28 34.4
-18 -12 -22 95.49 31.3
-22 -18 -12 145.19 29.2
-22 -18 -12 125.99 25.8
-12 22 18 109.59 26.6
18 12 -22 68.19 23.5
-14 -22 18 17.4 10.8
-18 -22 -14 1.9 8.7
22 -18 -14 9.9 16.8
-14 -18 -22 14.1 8.9
-18 -22 -14 15 9
-22 14 18 -11.3 7.8
18 -14 -22 2.2 11.2
-18 22 14 -9 7.4
-22 -14 -18 2.8 7.2
14 -22 -18 8.8 15.3
-14 -18 -22 -1.7 12.7
-22 -14 -18 -7.3 10.2
14 18 -22 12.5 9.9
14 22 -18 8.9 10
-18 -14 -22 18.8 14.4
-18 -14 -22 13.3 10.3
-14 -22 -18 6.7 6.9
-22 18 14 -2.1 10.2
-22 -18 -14 2.4 11.4
14 -18 -22 13 16.3
22 -14 -18 9.6 13.6
-14 -22 -18 -11.5 11.2
18 -22 -14 -11.2 13.9
-22 -18 -14 1.4 9.1
-14 22 18 -9.8 8.6
-14 -18 22 -3.5 7.8
-22 16 18 21.5 14.3
-22 -16 -18 32.8 12.3
-16 -18 -22 15.5 10
22 -18 -16 22 20.4
16 -22 -18 3.4 16.8
-16 -18 -22 12.6 14.9
-18 22 16 15.1 12.3
-18 -16 -22 23.9 11.3
22 -16 -18 5.3 13.9
18 -22 -16 1.6 16.6
-18 -16 -22 4.1 15.1
-22 -18 -16 20.6 10.2
-22 -18 -16 3.3 13.1
-22 18 16 3.5 12.5
0 -22 -20 372.16 60.39
0 20 22 404.06 58.79
0 22 -20 311.27 57.09
0 20 -22 274.87 56.69
-20 -22 0 382.16 57.19
0 -20 22 314.67 59.49
-20 -22 0 436.16 58.89
-22 -20 0 317.27 56.99
22 0 -20 410.36 59.79
0 -20 -22 343.27 59.79
0 -22 20 295.27 58.99
20 -2 -22 270.27 49.99
-2 20 22 338.57 50.39
-2 22 -20 282.27 49.3
22 2 -20 343.17 50.69
2 -22 -20 264.67 51.89
-2 -22 20 325.97 53.19
2 20 22 323.87 50.69
-2 -20 22 269.27 52.09
22 -2 -20 254.77 50.69
-2 20 -22 237.58 48.6
20 2 -22 255.47 48.8
-22 -2 20 267.57 50.59
-20 2 22 333.17 53.99
22 20 -2 327.27 50.19
-20 -22 2 284.67 49.4
-22 -20 -2 333.77 50.59
20 -4 -22 72.49 23.9
22 4 -20 140.99 27.2
4 20 -22 93.79 26.3
-4 -22 20 93.19 26.9
20 22 -4 121.39 23.5
-4 -20 -22 123.09 28.7
-22 -20 4 106.49 24
-20 -22 -4 125.09 24.1
-22 4 20 112.19 28
4 -22 -20 102.19 27.8
-4 20 22 85.09 24.7
-20 -22 4 145.89 26.3
-4 -20 22 106.09 29.5
-20 4 22 102.19 26.5
4 22 -20 174.98 28.5
22 -4 -20 103.89 26.4
4 20 22 90.49 24.6
-22 -20 -4 127.49 24.2
-22 -4 20 116.59 26.8
20 4 -22 151.28 27.2
22 20 -4 60.59 22.1
-22 -20 -4 103.19 23.9
-4 22 20 134.79 26
4 -20 -22 69.99 24.4
-4 -22 -20 139.39 29.8
-20 22 6 22.9 17.2
-6 -20 -22 16.2 14.3
22 6 -20 7.7 10.3
6 -22 -20 5.6 14.4
-20 -22 -6 4.1 7.4
-6 20 22 10.5 10.7
-22 6 20 17.3 12.2
20 22 -6 1.3 7.2
-6 -22 20 13.2 12.1
-20 -22 -6 9.1 10.7
-22 -20 6 5.2 6.7
6 20 -22 28.7 14.1
20 -6 -22 19.6 13
-20 -6 22 3.3 8.2
6 20 22 9.4 8.1
6 -20 -22 7.3 11.3
22 20 -6 24.4 13
22 -6 -20 30.3 14
-6 -22 -20 13.5 23.5
6 22 -20 22.9 13.3
-22 -20 -6 8.6 9.6
-22 -20 -6 14.2 10.5
-6 -20 22 1.3 10.8
-6 22 20 0 9.2
-20 6 22 9.2 11.2
20 6 -22 4.9 8.7
-20 -22 6 8.9 8
-22 -6 20 0.6 9.7
-20 -22 -8 30.1 14.5
-8 -22 20 40.5 17.5
-20 -22 -8 38 14.6
-8 20 22 24.5 13.9
20 -8 -22 65.49 18.5
-22 -20 8 66.89 17.1
22 8 -20 20.1 13.9
-20 22 8 19.7 15.7
-8 -20 -22 45.2 20.3
-8 -20 -22 77.39 16.3
-22 8 20 18 14.4
-20 -8 22 49.4 17.1
20 22 -8 62.99 17.1
8 20 -22 101.19 22.5
8 -22 -20 56.69 21
-22 -20 -8 36.8 16.4
8 -20 -22 45.1 19.1
-8 -22 -20 45.4 15.6
-22 20 8 48.3 21.5
-20 8 22 57.79 19.5
-20 -22 8 36 14.6
-8 -22 -20 41.9 16.1
-22 -8 20 36.9 16.4
-8 22 20 64.99 19.5
-22 -20 -8 44.5 15.4
22 20 -8 60.29 17.6
8 22 -20 92.69 21.6
22 -8 -20 43.3 15.9
20 8 -22 27.4 14.8
-8 -20 22 43.9 19.4
-22 -10 -20 297.97 67.29
-20 -22 -10 233.38 46.6
10 20 -22 272.47 49.4
-10 -20 -22 210.08 46.3
-10 -22 20 334.37 51.49
22 -20 -10 316.07 53.79
20 -10 -22 221.68 48.4
10 -22 -20 273.87 51.69
22 10 -20 329.87 48.8
-20 -22 -10 311.17 49.8
-20 22 10 285.87 50.99
-22 -20 -10 252.17 47.4
20 -22 -10 277.57 52.09
-10 -22 -20 268.07 47.4
10 -20 -22 186.58 48.9
10 22 -20 273.37 49.5
22 20 -10 354.96 49.2
-22 20 10 289.17 50.79
-20 -10 -22 235.68 51.29
-20 -10 -22 317.97 49.99
-20 10 22 248.08 49.4
-10 -22 -20 325.07 52.09
-10 22 20 273.57 49.6
-10 -20 22 365.16 54.19
20 10 -22 372.76 51.89
-22 -12 -20 425.16 58.09
12 -22 -20 264.87 53.69
22 -20 -12 332.17 54.59
-22 12 20 347.27 55.49
-20 -22 -12 411.06 54.69
-20 22 12 255.77 51.79
12 20 -22 235.78 49.99
-12 -20 -22 211.78 51.79
-12 -22 20 275.37 51.29
20 -12 -22 283.77 51.89
-20 -12 -22 312.87 51.09
-12 -22 -20 312.67 58.79
-12 -20 22 330.77 54.69
-22 -20 -12 232.18 51.09
20 -22 -12 272.37 55.29
22 -12 -20 340.27 53.19
-22 20 12 350.86 55.09
-22 -20 -12 356.36 51.49
-20 -12 -22 183.28 51.19
-22 -14 -20 121.69 26
-20 22 14 94.39 27.3
22 -20 -14 95.89 28.1
-22 -14 -20 46 22.7
-20 -14 -22 120.69 30.6
-22 -20 -14 134.19 29.3
-22 20 14 64.89 24.1
-20 -14 -22 103.39 22.4
20 -22 -14 81.89 27.5
-22 -22 0 400.86 66.49
-22 -22 0 494.95 67.89
0 -22 -22 499.55 70.79
-22 0 22 366.96 67.59
22 0 -22 338.57 66.49
22 -2 -22 464.35 67.69
22 2 -22 381.06 65.79
-22 -22 -2 412.26 65.49
2 -22 -22 288.47 65.39
2 22 -22 388.76 65.69
-22 -22 2 434.36 70.39
-22 2 22 493.75 68.99
4 22 -22 178.58 32.6
22 -4 -22 169.48 32.4
22 4 -22 202.68 31.7
22 22 -4 110.89 33.9
4 -22 -22 188.48 33.2
-22 -22 -4 195.38 32.8
-22 -22 -4 115.19 27.8
-4 -22 22 145.69 35.9
-4 -22 -22 113.99 29.9
-22 4 22 117.29 33.1
-6 -22 22 20.2 14.2
-6 -22 -22 7.7 17.7
-22 -22 -6 4.2 9.2
6 22 -22 41.8 15.4
22 -6 -22 34.9 15.2
-22 -22 -8 39.3 18.9
-8 -22 22 69.29 23.8
8 22 -22 105.99 24.3
-10 -22 22 307.67 53.89
10 22 -22 276.87 50.89
1 -23 1 1074.59 138.99
1 -23 1 845.72 135.89
1 -23 -1 794.12 135.49
-23 -1 -1 928.81 136.59
-23 -1 1 1028.3 137.49
-23 1 -1 833.22 135.99
-23 1 1 862.01 136.29
-1 -23 -1 921.01 137.29
-1 -23 1 979.3 138.39
-1 -23 1 866.51 135.99
-1 -1 -23 907.61 136.99
-1 -1 23 874.71 137.19
1 -23 -1 951.5 137.69
1 -1 23 1067.39 138.89
1 1 23 849.72 137.29
-1 -23 3 398.66 67.39
-23 1 3 394.96 69.19
-3 -23 -1 488.85 70.99
-1 -3 -23 311.47 68.09
1 -3 23 446.76 70.19
-23 3 -1 409.76 68.29
3 -23 1 375.86 71.29
3 -23 1 465.25 68.79
-1 -23 3 365.26 68.59
1 -23 -3 484.75 70.39
1 -23 -3 399.46 67.99
23 1 -3 500.55 69.59
3 1 23 328.47 72.09
-3 -1 23 541.05 71.59
-23 -1 -3 405.66 68.09
-3 1 -23 556.64 79.59
1 3 -23 439.46 69.69
-23 -3 1 474.65 70.19
1 -23 3 465.05 70.99
-1 3 -23 530.35 70.69
-23 -1 3 395.16 68.89
3 -23 -1 490.65 70.49
-23 1 -3 377.76 67.49
23 -1 -3 413.36 68.09
-3 -23 1 452.85 68.69
-1 -3 23 357.56 68.69
1 3 23 330.47 68.69
3 -23 -1 537.75 70.19
-23 3 1 477.75 70.09
3 -1 23 480.75 70.59
-1 -23 -3 507.25 70.09
23 3 -1 432.36 68.49
-23 -3 -1 463.95 68.99
1 -23 3 456.65 68.69
3 1 -23 371.36 68.69
-23 -3 -3 339.87 47.1
-23 -3 3 236.78 45.7
-23 3 -3 241.98 44.4
-23 3 3 196.48 45.2
-3 -23 -3 276.87 47
-3 -23 3 326.77 48.2
-3 -23 3 247.68 44.4
-3 -3 -23 368.46 49.2
-3 -3 23 274.37 47.8
-3 3 -23 257.77 46.3
-3 3 23 280.87 47.8
3 -23 -3 322.57 48.5
3 -23 -3 246.88 45.1
3 -23 3 192.68 45
3 -23 3 265.77 44.9
3 -3 -23 339.77 48.1
3 -3 23 259.97 46.7
3 3 -23 196.08 43.6
3 3 23 293.87 47.4
23 3 -3 345.67 56.79
5 -23 1 10.9 12.5
-1 -5 -23 11.3 10.3
-23 -5 1 -1.1 8
5 -23 1 11.5 9.2
1 -23 -5 11.3 12.7
1 -23 -5 0.4 7.3
-1 5 23 -0.2 10.3
1 -5 23 1.8 9.9
1 5 -23 0.7 9
-1 -23 5 1.9 5.9
-23 -1 -5 0.1 7.2
-23 1 5 5.4 11.4
-5 -23 -1 9.2 11.5
-5 -23 -1 4.3 8.4
5 -1 -23 7.6 9
-1 -23 5 -2.4 9.2
-5 -1 23 -9.5 9.1
-5 1 -23 -1.1 9.9
5 1 23 -0.9 10.1
-23 5 -1 -1 7.6
23 5 1 3.4 9
1 -5 -23 3.7 11.7
-5 -23 1 1.8 7.5
-5 -23 1 2.3 10.3
23 -1 -5 12 10
5 -1 23 6.5 9.9
1 -23 5 8.1 8.5
-1 5 -23 14.5 11.3
1 -23 5 2.6 10.2
-1 -23 -5 4.6 8.6
5 -23 -1 16.3 11.8
5 -23 -1 2.9 8.3
1 5 23 9.7 10.9
-23 -5 -1 7.8 9.4
-1 -23 -5 8.1 9.4
-5 -1 -23 4.8 11.5
5 1 -23 -4.6 10
-23 1 -5 1.9 8
-23 -1 5 6.1 10.8
-23 5 1 -2.6 8.3
-5 1 23 11.7 11.6
-23 -5 3 -3 8.2
23 5 3 -0.4 7.3
3 -23 -5 -2.3 5.4
23 3 -5 2.6 9
3 -23 -5 -6.6 9.3
-23 3 5 0.7 10
-5 -23 -3 3.1 11.3
3 -5 23 5.8 10.4
5 -3 -23 -8.3 10.2
-5 -23 -3 1 6.2
-3 -5 -23 2.6 11.1
5 -23 3 -1.5 7.1
5 3 23 7.8 10.3
23 -5 -3 1.4 6.5
-3 5 23 -6.2 9.3
-23 -3 -5 11.9 8.5
-5 3 -23 -5.3 7.8
-3 -23 5 -7.4 9.4
-3 -23 5 0.1 7.5
-5 -3 23 0.7 11.1
3 5 -23 2.4 9.6
5 -23 3 -6.3 6.2
-23 5 -3 -2.4 7.6
3 -5 -23 9.3 12.6
5 3 -23 5.3 7.5
23 -3 -5 0.9 8.1
3 -23 5 3.6 9
3 5 23 -0.8 9.4
5 -23 -3 9.1 11.8
-3 -5 23 -0.3 10.2
5 -3 23 11 9.7
-3 -23 -5 7.9 11.4
-3 -23 -5 -1.4 7.9
-23 5 3 2.5 9.1
23 3 5 5 5.4
23 5 -3 8.9 9.8
3 -23 5 0.1 6.7
-3 5 -23 11.3 10.3
-5 3 23 -5.6 9.3
-5 -23 3 7.6 8.9
-5 -23 3 1.4 7.1
5 -23 -3 0.5 6.6
-23 -5 -3 2.5 8
-5 -3 -23 -3 10.3
-23 3 -5 1.9 7.9
-23 -3 5 -8.3 8.6
-23 -5 -5 256.67 45.5
-5 -23 5 322.67 48
-23 5 5 272.07 46.8
-5 -23 5 292.27 46.3
-23 5 -5 250.97 43.1
-5 -5 23 228.28 46.8
-5 5 -23 217.48 44.2
-5 -5 -23 189.58 45.9
5 -23 -5 231.58 44.6
-23 -5 5 354.76 48.7
5 -23 5 284.97 45.3
5 -23 -5 258.47 47.6
5 -5 23 270.77 46.6
5 5 -23 366.56 48.8
5 5 23 235.98 45.7
23 5 -5 266.57 45.7
-5 -23 -5 328.77 46
5 -5 -23 294.47 47.9
7 -23 1 42.4 14.8
7 -1 -23 41.9 16.7
-23 -1 -7 61.09 15
-7 1 -23 60.99 18.8
-1 -7 -23 79.59 20.5
1 -23 -7 61.89 15.8
-7 -23 -1 35.4 13.1
23 1 -7 60.99 17.5
1 -7 23 55.99 17.9
1 -23 -7 44.6 18
-23 1 7 60.49 18.8
-7 -23 -1 40 15.7
-23 -1 -7 56.09 15.8
7 1 23 60.39 17
-1 -23 7 57.29 16.9
-23 7 -1 49.1 14.9
-1 -23 7 40.3 16.8
-1 7 23 30 15.4
-23 -7 1 55.59 16.9
1 7 -23 71.59 18.3
-7 -1 23 63.59 18.6
23 7 1 65.69 16.7
-1 -7 23 51.59 17.9
1 -7 -23 49.99 16.6
7 1 -23 39.8 14.9
23 7 -1 57.29 17.4
-1 7 -23 55.29 17.3
7 -23 -1 47.8 15.2
-23 -7 -1 51.59 16.1
-1 -23 -7 56.89 18.9
7 -1 23 43.6 16.1
-1 -23 -7 48.2 15.6
-7 -23 1 38.2 14.8
-7 -1 -23 49.5 17.8
-23 7 1 41.9 15.8
-7 1 23 24.8 14.7
1 -23 7 45.3 16.8
7 -23 -1 44.6 17.7
-23 -1 7 47.5 17.2
-23 1 -7 43.8 12.9
-23 1 -7 48 14.3
1 7 23 32.8 15.4
-7 -23 1 83.99 20
1 -23 7 38.8 14.7
3 7 -23 9.5 10.3
7 -23 3 0.2 6.7
23 3 -7 1.7 8.5
-7 -23 -3 4.6 7.1
-3 -7 -23 4.4 12.4
23 7 3 4.2 8.5
-7 -23 -3 -7 9.1
-23 -3 -7 2.1 8.1
-23 3 7 1.4 10.7
-23 -7 3 6 9.5
7 -23 3 -4.3 7.1
-7 -3 23 7.8 10.9
23 -7 -3 3.6 5.3
-3 7 23 3.3 7.7
-23 -3 -7 8.9 8.2
-3 -23 7 0.9 8.8
3 -23 -7 3.9 11.5
3 -23 -7 5.5 8.1
7 -3 -23 -0.4 10.8
7 3 23 6.8 9.6
-7 3 -23 -4.6 7.3
-3 -23 7 8.7 7.9
-23 7 -3 2.5 7
3 -7 23 5.7 9.6
-23 3 -7 2 7.1
23 -3 -7 1.7 8.6
-23 3 -7 4.1 5.5
7 -3 23 2.9 9.7
3 7 23 8.2 10.7
-7 -3 -23 5.6 11.3
3 -7 -23 10.5 10.3
-3 7 -23 3.8 8.6
-7 3 23 2.2 8.3
-3 -23 -7 -2.3 10.3
7 3 -23 3.5 7.5
7 -23 -3 1.3 11.3
-23 7 3 -8.3 8.7
23 7 -3 6.2 9.4
-3 -23 -7 3.5 8.7
-3 -7 23 2.3 10.7
-23 -3 7 1.2 9.8
3 -23 7 2.3 8.7
-7 -23 3 6.1 8.4
-7 -23 3 2.9 8
7 -23 -3 5.6 7.8
-23 -7 -3 3.1 8.1
3 -23 7 -0.4 7.5
7 -23 5 225.68 33.8
-23 -5 -7 181.18 33.6
-23 7 -5 189.58 30.4
7 5 23 168.28 34.5
-7 -5 23 122.59 32.7
-7 5 -23 189.58 33.9
-5 -23 7 130.29 32.7
5 -23 -7 173.08 36.9
-23 -7 5 209.18 34.7
7 -5 -23 231.08 37.3
-23 5 7 221.58 36.8
-5 -7 -23 125.19 33.1
-7 -23 -5 247.58 37.3
-7 -23 -5 245.58 34.6
-5 7 23 228.38 37.1
5 -7 23 224.68 35.9
23 7 5 160.58 33.6
23 5 -7 189.68 33.7
-23 -5 -7 214.68 35
-23 7 5 193.78 36.4
-7 -5 -23 126.29 34.8
-23 -7 -5 200.08 34.7
-23 -5 7 210.18 36.2
7 -5 23 176.58 33.8
23 7 -5 202.18 35.3
-7 -23 5 200.68 35
-5 -7 23 197.08 37
-5 7 -23 161.08 32.8
-5 -23 -7 222.98 36.8
5 7 23 150.68 34
7 -23 -5 256.47 39.6
7 -23 -5 174.38 33.5
23 -5 -7 183.98 34.4
-23 5 -7 152.38 29.2
5 -23 7 178.38 33.6
-7 -7 -23 226.78 34.1
-7 -7 23 82.49 27.1
-7 7 -23 156.38 26.8
-7 -23 7 148.49 28.2
23 7 -7 124.29 27.5
-23 7 -7 141.69 19.9
-23 -7 7 142.29 29
-23 7 -7 129.79 19.8
-23 -7 -7 120.39 26.9
7 7 -23 177.78 29.9
7 7 23 120.29 28.4
-7 7 23 80.99 26.8
7 -23 -7 147.79 31.1
7 -23 7 148.89 26.4
7 -7 -23 169.68 28.7
7 -7 23 138.09 26.6
-23 -7 -7 87.09 25.2
-23 7 7 96.29 27.6
23 1 -9 338.37 59.49
1 -23 -9 296.77 59.49
-9 -1 23 424.26 61.39
-9 1 -23 355.96 58.99
-1 -9 -23 433.96 61.09
-1 -23 9 358.56 59.09
-23 9 -1 326.77 56.99
-1 -23 9 300.27 59.39
-23 -1 -9 338.17 56.79
-23 -1 -9 315.27 56.49
-1 9 23 423.26 60.69
1 -9 23 353.66 59.79
-23 1 9 352.16 60.49
-9 -23 -1 366.46 59.99
9 -23 1 372.16 58.39
9 1 23 388.36 59.69
23 9 1 367.36 59.39
-23 -9 1 412.66 60.29
-23 9 1 323.47 57.89
1 -9 -23 467.55 62.09
-1 -23 -9 408.76 58.59
9 -23 -1 347.67 58.19
1 -23 9 352.36 58.69
-1 -9 23 386.26 61.39
-9 -23 1 410.96 59.79
9 -1 23 385.16 59.29
-9 1 23 301.67 59.69
23 9 -1 326.97 58.69
-1 9 -23 452.75 60.99
1 9 23 461.75 61.89
9 1 -23 336.97 58.89
-1 -23 -9 439.66 61.99
23 -1 -9 315.97 58.89
-23 -1 9 421.66 61.79
-9 -1 -23 385.06 60.29
-23 1 -9 318.27 56.09
-23 1 -9 352.96 56.29
-23 -9 -1 256.87 57.59
9 -23 3 216.88 35.2
-3 -23 9 180.28 36.2
3 -23 -9 267.67 41.4
-9 -23 -3 192.28 36.8
-23 -9 3 148.89 34.5
-23 -3 -9 187.98 35.1
-3 -9 -23 288.67 41.6
3 -9 23 208.18 37.6
-23 9 -3 226.28 37.5
-9 -3 23 204.28 37.2
-9 3 -23 197.78 36.2
9 3 23 181.68 36.7
23 3 -9 156.68 35.1
-23 3 9 176.58 37.7
-23 -3 -9 194.28 35.2
23 9 3 232.98 37
-3 9 23 161.48 36.6
-9 -23 -3 178.58 34.6
-23 -3 9 263.07 39.6
3 9 23 136.59 35.8
9 -23 -3 206.18 35.9
23 -3 -9 194.78 36.8
-9 -23 3 199.68 35.8
9 -23 -3 170.38 37.9
-3 -23 -9 263.87 40
23 9 -3 217.88 36.3
-23 -9 -3 233.38 37.7
-23 9 3 233.58 37.6
3 -23 9 217.48 36.7
3 -9 -23 229.88 39.3
-9 -23 3 247.48 37.4
-3 -9 23 214.78 38.5
-3 9 -23 148.29 34.7
9 3 -23 199.98 36.3
9 -3 23 171.78 35.2
-9 -3 -23 245.48 39.5
-23 5 9 -4 10.5
23 -9 -5 8.2 6.9
-23 9 -5 2.5 3.8
23 5 -9 -6.1 8.1
-5 -23 9 -1.9 8.2
-5 9 23 0 7.4
-23 -5 -9 4.1 8.3
-23 -5 -9 -6 4.9
-5 -9 -23 11.7 13.1
9 -23 5 1.2 6.3
-9 -5 23 -9.7 8.8
-9 5 -23 10 8.3
9 5 23 -2 8
5 -9 23 -2.8 8.4
5 -23 -9 7.7 12.8
-9 -23 -5 -7 9.3
-9 -23 -5 0.5 5.4
9 -5 -23 -3.3 10.8
-23 -9 5 2.7 9.1
5 9 -23 4.5 9.6
-5 23 9 -2.5 8
5 23 -9 2 8.9
-9 5 23 -5.9 9.5
-23 5 -9 0.6 3.1
-5 -23 -9 1 10.7
5 -23 9 -1.9 6.3
-23 -9 -5 -2.5 6.9
-23 9 5 -0.5 8.8
-9 -5 -23 -4.9 10.7
-5 -9 23 13.1 12.1
9 -5 23 -5.5 5.5
9 5 -23 -2.3 9.1
5 -9 -23 0.3 11.3
-5 -23 -9 1.6 8.2
5 9 23 -10.3 7.3
9 -23 -5 -6.4 10.1
-5 9 -23 0.7 7.6
23 -5 -9 -0.4 9.8
-23 -5 9 -6.1 9.3
-23 5 -9 0.5 2.5
-9 -23 5 1.6 7.9
23 9 -5 1.5 6.5
-7 -9 -23 -5.1 11.6
-7 -23 9 11 10
9 -7 -23 12.2 9.8
9 23 -7 3.6 8.2
-9 7 -23 5.7 7.3
-23 -9 7 5 9.5
-23 -7 -9 4.4 7.6
-23 -7 -9 9.6 9
-7 9 23 5.3 9.8
7 9 -23 13.9 12.1
23 7 -9 1.1 8.1
7 -23 -9 8.6 12.8
23 -9 -7 10 8.2
-23 7 9 5.8 10.7
-9 -23 -7 5.3 6.5
-9 23 7 5.7 9.3
-9 -7 23 8.4 9.4
9 7 23 -1.5 8.8
-9 -23 -7 13.4 11.8
23 -7 -9 1.7 9.7
-23 -9 -7 4.4 8.9
-7 9 -23 1.6 7.1
7 -9 -23 -2.7 11.9
-23 -9 -7 10.9 9.5
9 -23 -7 1.2 11
-7 -9 23 0 10.9
-9 7 23 4.4 8.5
-7 -23 -9 6 10.8
-7 -23 -9 -1.9 7.7
7 9 23 3.9 7.5
-7 23 9 1.2 7
7 -23 9 13.7 8.1
7 23 -9 7 8.9
-23 -7 9 4 7.8
23 9 -7 -3.9 7.2
9 7 -23 -0.6 10.1
-23 9 7 10.5 10.7
-9 -7 -23 2.6 11.9
-9 -23 7 8.6 8.1
-9 -23 9 354.06 52.19
-9 9 23 398.06 54.09
23 -9 -9 264.57 51.69
23 9 -9 318.57 51.19
-9 -9 23 348.97 54.29
-23 -9 -9 229.98 50.09
-23 9 9 353.16 54.49
-9 -23 -9 290.57 50.09
-23 -9 -9 238.08 50.29
9 -9 -23 350.26 52.59
9 9 23 343.87 52.69
9 -23 -9 280.57 53.29
-23 -1 -11 532.25 82.69
-1 11 23 460.75 84.59
23 1 -11 456.35 84.49
-11 -23 -1 639.24 85.59
-23 -1 -11 522.95 82.89
-1 -23 11 596.24 85.79
1 -11 23 606.94 86.59
1 11 -23 578.44 85.69
-23 1 11 555.64 86.29
11 1 23 465.65 83.49
11 -23 1 537.25 83.59
-23 -11 1 593.24 86.09
-11 1 -23 491.65 84.19
23 11 1 467.55 83.79
-11 -1 23 606.24 85.99
1 -11 -23 435.66 83.89
23 -1 -11 444.06 83.59
-11 -23 1 447.76 83.09
-11 -23 1 602.64 84.99
23 11 -1 558.24 85.19
-23 11 1 631.84 84.99
-23 -11 -1 643.54 86.49
-23 -1 11 635.64 86.79
-23 1 -11 541.05 81.59
-11 1 23 462.05 84.19
-1 -23 -11 645.64 87.59
1 -23 11 567.24 85.09
-1 11 -23 686.13 86.39
-11 -1 -23 604.04 86.29
11 -23 -1 485.75 83.09
11 -1 23 607.44 84.59
-1 -11 23 505.15 85.29
3 11 -23 340.47 56.69
-23 -3 -11 348.37 55.59
-23 -3 -11 292.87 53.79
11 -3 -23 394.26 56.89
3 -23 -11 359.46 58.89
11 -23 3 377.16 54.99
-11 -3 23 410.66 58.79
23 3 -11 364.26 57.59
-11 -23 -3 361.86 56.59
-3 -11 -23 421.16 60.19
-3 -23 11 333.97 56.69
-23 -11 3 399.96 57.69
-23 11 -3 297.47 51.89
-11 3 -23 355.96 55.89
11 3 23 327.07 55.89
-11 3 23 269.47 55.09
11 -23 -3 398.46 56.69
23 -3 -11 372.86 57.89
-23 3 -11 330.97 51.59
-11 -3 -23 372.26 58.79
-11 -23 3 400.66 56.59
-23 -3 11 414.46 59.19
11 3 -23 256.47 54.89
23 11 -3 280.97 54.59
-23 11 3 317.27 56.09
-3 -11 23 337.47 58.09
3 -23 11 274.87 54.89
-23 3 -11 300.57 51.19
-3 -23 -11 390.36 55.59
3 11 23 378.96 57.79
-3 23 11 362.86 56.69
3 -11 -23 416.66 58.89
-3 11 -23 259.77 54.69
-5 11 23 54.49 18.1
-23 5 11 57.29 18.5
5 -23 -11 36.9 18.8
-11 23 5 51.29 16.8
11 23 -5 59.69 16.6
11 -5 -23 75.19 19.6
-11 -23 -5 32.8 16.1
11 5 23 54.59 17.5
-5 -23 11 68.59 18.1
-5 -11 -23 84.49 21.6
-11 -5 23 56.79 17.4
-23 -11 5 76.09 19.2
5 -11 23 57.89 16.6
5 11 -23 94.99 21.8
23 5 -11 87.39 20.3
-23 -5 -11 65.19 18.5
-23 -5 -11 63.89 17
-11 -5 -23 52.69 19.7
23 11 -5 49.2 16.7
-23 11 5 52.69 18.5
23 -5 -11 70.39 19.2
-23 -11 -5 87.89 18.7
-5 -23 -11 44.5 15.6
-5 -11 23 75.79 21
-5 11 -23 58.69 16.8
5 11 23 28.4 16.1
11 -23 -5 50.99 19.3
-5 23 11 38.8 16
-11 5 23 74.09 19.3
-11 -23 5 56.19 17.5
-23 -5 11 57.29 18.5
5 23 -11 30.2 14.6
5 -11 -23 44.1 16.6
-5 -23 -11 74.39 20.6
11 5 -23 60.79 19
5 -23 11 63.69 16.5
7 -23 -11 132.29 29.7
-11 23 7 166.98 29.9
-7 -23 11 134.69 29
-7 -11 -23 174.38 33.8
11 7 23 135.99 28.8
7 11 -23 179.08 31.3
11 23 -7 189.28 28.3
-11 -7 23 149.29 31.3
-11 7 -23 148.59 25.9
-23 -7 -11 174.08 30.5
-11 -23 -7 168.28 30.7
23 7 -11 167.08 30.1
-23 -7 -11 140.09 28
11 -7 -23 150.78 29
-11 -23 -7 143.39 27.2
-23 7 11 91.59 29.2
23 11 -7 117.09 28.2
-11 -23 7 132.49 28.2
-23 -11 -7 142.59 28.7
-7 23 11 113.09 27.9
-23 -7 11 85.59 27.8
-7 -23 -11 178.18 31.8
-23 11 7 106.99 29.8
7 11 23 148.49 30
11 -23 -7 148.29 32.3
-7 -11 23 85.79 28.7
-7 11 -23 142.89 27
-11 -7 -23 120.79 31.2
11 7 -23 199.88 31.7
23 -7 -11 181.58 31.9
-23 -11 -7 115.69 27.9
23 9 -11 579.94 85.89
11 9 23 466.25 85.09
-23 -11 9 619.54 86.49
-23 -9 -11 688.43 88.39
-23 -9 -11 468.25 84.19
11 23 -9 601.24 84.89
9 11 -23 467.55 84.99
9 -23 -11 499.25 87.39
-11 23 9 581.14 86.59
11 -9 -23 621.34 86.19
-11 -9 23 404.06 84.79
-9 -23 11 639.34 86.99
-23 9 11 434.06 85.49
-9 23 11 624.24 86.99
-23 11 9 524.75 87.29
-9 11 -23 529.85 82.19
23 -9 -11 643.84 87.49
-11 9 23 552.84 86.19
-9 -11 23 675.53 88.99
9 11 23 659.53 87.49
11 -23 -9 506.85 87.19
23 11 -9 446.86 83.89
-23 -11 -9 521.85 85.29
9 23 -11 589.14 85.59
-9 -23 -11 592.04 86.39
-23 -11 -9 439.36 83.99
23 -11 -11 735.43 127.29
-11 23 11 919.61 128.59
-11 -23 11 734.73 126.39
-23 11 11 742.93 128.49
-23 -11 -11 782.32 127.39
11 -11 -23 923.01 128.39
11 11 23 752.82 127.19
11 -23 -11 988.8 130.89
-23 -11 -11 809.62 126.99
23 11 -11 981.5 127.29
-11 11 23 927.61 128.79
23 1 -13 402.86 60.29
-23 -1 -13 341.87 56.19
13 -23 1 310.37 57.59
-13 -1 23 267.77 57.29
1 -23 -13 428.76 60.99
23 13 1 324.57 57.89
-13 -23 -1 352.96 58.09
1 13 -23 262.07 57.49
-23 1 13 347.97 59.29
-1 -13 -23 323.57 59.99
-23 -13 1 400.16 60.19
13 1 23 298.47 65.69
1 -13 23 311.17 58.89
-1 -23 13 330.97 58.79
-23 -1 -13 349.37 57.29
-1 23 13 398.46 59.09
-1 -13 23 359.96 60.49
-23 -1 13 389.16 60.89
-1 -23 -13 434.66 61.19
-23 1 -13 367.46 55.99
-23 13 1 330.37 57.09
-13 -1 -23 321.47 58.69
23 13 -1 355.86 58.89
-23 1 -13 391.76 55.49
1 13 23 439.16 61.09
-1 13 -23 397.16 59.49
-13 1 23 455.15 61.69
1 -13 -23 484.85 62.99
-13 -23 1 275.97 56.99
23 -1 -13 351.26 58.69
1 -23 13 342.07 58.69
1 23 -13 451.45 60.39
-23 -13 -1 428.76 59.89
13 -23 -1 337.97 57.09
13 -3 -23 64.69 20.8
13 3 23 114.39 23.2
-23 3 13 75.09 22.8
23 13 3 84.79 23
3 -23 -13 107.09 26.5
-13 -23 -3 97.49 22.6
-23 13 -3 96.09 17.2
-3 13 23 136.49 25.6
23 3 -13 74.69 22.9
-13 -3 23 91.89 34.2
-3 -13 -23 137.89 25.1
-23 -3 -13 105.99 21.3
3 -13 23 72.29 21.8
3 13 -23 71.69 23
-23 -13 3 65.29 20.7
-3 -23 13 102.19 23.7
-3 -23 -13 127.69 24.3
-23 -13 -3 126.79 24.2
-13 -3 -23 113.69 24
3 -13 -23 101.29 25.1
23 13 -3 71.29 21.1
-23 13 3 138.09 37.4
-23 -3 13 116.39 25.6
-23 3 -13 81.59 15.2
13 3 -23 115.29 24.5
-13 -23 3 75.09 21.5
-3 -13 23 92.89 25.8
-3 13 -23 115.09 22.9
3 23 -13 78.19 22
-3 23 13 92.59 21.1
3 13 23 105.29 24.7
13 -23 -3 94.89 21.2
23 -3 -13 107.29 25.1
-23 3 -13 93.29 15.6
3 -23 13 133.89 23.2
-13 3 23 74.99 23.3
23 5 -13 7.9 8
13 23 -5 -1 5.2
-5 -13 -23 8.2 13.7
13 -5 -23 -0.5 10
-23 -13 5 12.6 10.8
-23 -5 -13 -0.5 7.3
-23 5 13 3.4 10.8
5 -13 23 -8 7.6
-23 -5 -13 3.1 6.3
-13 -23 -5 -0.9 7.3
-13 -23 -5 -3.6 6.6
-13 23 5 1 9.3
-5 -23 13 14.1 10.8
5 13 -23 2.4 9.1
-13 5 -23 5.8 5.7
-5 13 23 8.9 11.2
5 -23 -13 1.5 12.2
-13 -5 23 -3.8 6.6
-13 5 23 -5.5 8.7
-23 -13 -5 3.1 9.4
-23 -13 -5 -4.2 8.1
5 -13 -23 6.3 12.2
5 23 -13 -5.3 8.2
-13 -23 5 -1.7 7.7
5 13 23 0.9 8.5
-5 13 -23 9.4 9.2
-23 -5 13 -3.9 6.9
-5 -13 23 2.2 10.3
13 -23 -5 -4.8 8
-5 23 13 7.5 9.7
13 5 -23 7.1 10.5
-23 13 5 6.1 10.4
-13 -5 -23 2.1 11.7
-5 -23 -13 4 8.8
23 13 -5 -5.4 8.8
5 -23 13 10.9 8.2
-5 -23 -13 -3.9 5.8
-13 -7 23 11.1 12.9
-13 23 7 23.4 12.6
-13 7 -23 24.9 8.1
-7 -23 13 28.4 12.6
-23 -7 -13 32.3 12
13 23 -7 10.2 8.8
-23 -7 -13 27.3 12.8
-23 7 13 23.9 15
-23 -13 7 29.9 12.7
-13 -23 -7 37.8 13.7
-13 -23 -7 16.2 10.5
-7 -13 -23 16.2 15.7
23 7 -13 28.5 13.7
13 -7 -23 21.9 13.5
7 -23 -13 26.9 17.5
7 13 -23 38.7 15.2
-7 13 23 34.5 14.3
-23 -7 13 30.3 14.6
-13 -7 -23 39 17.6
23 -7 -13 20.6 12.7
13 -23 -7 21.8 14.9
-7 -23 -13 9.4 12.6
-7 -23 -13 44 13.4
-13 7 23 17.6 13.6
-23 -13 -7 8.1 11.1
-23 -13 -7 47.7 15.2
7 23 -13 20.2 12.1
-7 -13 23 30.6 16.4
13 7 -23 21.6 11.4
7 -13 -23 14.1 14.1
-7 13 -23 11.9 8.4
-7 23 13 12.2 10.6
-13 -23 7 19.2 11.2
23 13 -7 23.7 11.5
7 13 23 27.4 12.9
-23 13 7 27.4 13.7
-9 -23 13 241.58 35.6
-9 13 23 102.59 29.6
-13 -9 23 240.08 35.1
23 9 -13 171.28 32.4
-13 -23 -9 97.39 29
13 -9 -23 137.99 32.6
9 -23 -13 216.18 37.4
-23 -9 -13 193.38 33.8
13 23 -9 138.69 29.5
-23 -13 9 121.39 30.8
9 13 23 141.19 34.6
-13 -9 -23 140.29 34.7
-9 -13 23 183.88 39.6
-9 23 13 236.08 35.1
-13 -23 9 162.68 31.1
9 23 -13 184.18 33.1
23 -9 -13 233.78 36
-9 -23 -13 134.49 30
9 -13 -23 157.38 34.2
13 -23 -9 234.88 38.9
-13 9 23 149.99 33.5
-23 13 9 224.18 36.4
-23 -9 13 190.28 34.6
-13 23 11 310.77 60.39
13 -11 -23 396.46 62.39
-23 11 13 350.96 62.79
-13 -23 -11 483.05 62.19
13 23 -11 281.37 58.79
-23 -11 -13 434.66 61.89
23 11 -13 290.47 59.29
-13 -23 -11 454.85 60.99
23 -13 -11 426.86 62.59
-11 -23 13 498.15 63.69
-23 -11 -13 305.67 60.79
-11 -13 -23 443.56 64.89
11 -23 -13 385.76 64.19
11 -13 -23 260.77 59.09
-13 -11 -23 345.67 60.29
23 -11 -13 499.15 64.29
-23 13 11 333.37 62.69
-13 -11 -23 358.36 63.19
11 23 -13 295.67 59.19
-11 -13 23 324.07 61.89
-23 -11 13 442.76 61.89
23 13 -11 460.55 61.69
-13 -23 11 414.66 62.09
-11 23 13 284.97 59.79
13 -23 -11 433.86 64.89
-11 -23 -13 280.77 60.19
-23 -13 -11 400.06 62.69
13 -13 -23 292.57 44.7
-23 -13 13 307.27 43.4
-13 -23 -13 186.08 38.9
-13 -23 13 168.88 39.1
-13 -13 -23 202.58 39.7
-13 -13 23 141.09 40.3
13 -23 -13 253.47 44.8
-23 -13 -13 269.37 41.6
-23 13 13 306.57 46.2
23 13 -13 302.17 55.09
-13 23 13 187.78 40.9
23 -13 -13 220.08 41.6
1 -15 23 60.89 22.1
-23 -1 -15 71.49 19.1
23 1 -15 66.19 20.4
-23 1 15 71.29 22
-15 -23 -1 92.49 20.2
1 15 -23 109.19 24.1
-23 -15 1 92.09 22.5
-15 1 -23 70.39 19.9
-15 -1 23 129.99 23
-15 -23 -1 79.89 20.5
-23 -1 -15 90.29 17.6
-1 23 -15 105.39 21.7
-1 -15 -23 95.89 23.8
15 -1 -23 85.09 22.1
1 -23 -15 48.6 20.9
23 15 1 83.49 19.7
-15 1 -23 59.29 17.1
-1 -23 15 119.99 24
-23 -1 15 109.29 24.5
1 23 -15 90.69 20
15 -23 -1 83.29 18.4
23 -1 -15 99.59 24.1
1 -15 -23 35.5 19.6
-15 -23 1 78.89 19.2
1 15 23 59.19 20.1
-15 -23 1 115.09 20.5
-1 -23 -15 72.29 23.1
-23 15 1 96.49 20
-1 15 -23 97.89 20.9
1 -23 15 99.39 21.5
-23 -15 -1 60.09 19.4
-15 -1 -23 79.59 21.4
15 1 -23 61.39 18.8
23 15 -1 64.29 19.3
-15 1 23 59.79 21
-15 -1 -23 96.99 19.5
-1 -15 23 91.89 23.9
-23 -3 -15 1.3 9.4
-3 -15 -23 -6 9.7
-15 -3 23 -6.9 9.1
-15 3 -23 0.6 6
23 3 -15 2.1 10.2
15 -3 -23 0.2 9.6
3 -15 23 -5.7 7.5
-15 -23 -3 1.9 5.7
-23 -3 -15 1.8 5.3
-3 -23 15 8.5 10.3
-23 -15 3 2 8.3
-15 -23 -3 2.3 7.4
3 -23 -15 5.8 9.9
-15 3 -23 1.2 4.8
-3 15 23 -2.6 5.7
-23 3 15 -4.9 9.5
3 15 -23 -2.9 8.1
-23 -3 15 -1.4 10
-3 15 -23 -1.8 6.6
-23 -15 -3 14.3 9.7
-15 -23 3 0 8.5
-15 3 23 -4.3 8.7
3 23 -15 -2 6.1
23 -3 -15 3.4 10.7
-23 15 3 2.6 7.8
3 -23 15 12 8.7
3 -15 -23 -3.6 10.9
-3 -23 -15 4.3 12.1
-3 -15 23 5.5 11.3
-3 -23 -15 1.4 7.3
23 15 -3 -5.8 6.2
3 15 23 -1.3 8.7
-15 -3 -23 5.5 6.7
-3 23 15 -0.8 7.1
15 3 -23 6.1 10.2
5 -23 -15 75.49 25.4
-23 -15 5 120.79 24.1
-5 15 23 78.29 22.7
-15 -23 -5 125.09 23.4
5 15 -23 75.69 23.6
-23 -5 -15 116.09 22.2
15 23 -5 77.69 21.5
-23 -5 -15 118.99 24.4
-5 -23 15 120.99 25.4
-23 5 15 86.09 25
15 -5 -23 64.99 23
-15 -23 -5 62.29 20.8
-15 23 5 128.59 24.6
-15 -5 23 97.09 24.8
-5 -15 -23 111.49 24.8
23 5 -15 86.49 24.1
-23 -5 15 84.59 23.6
-5 -15 23 83.99 25.5
5 -15 -23 140.39 28.1
23 -5 -15 112.49 24
-15 -23 5 75.69 21.7
-23 -15 -5 142.29 26.3
-15 5 23 67.89 22.5
-5 -23 -15 53.89 21.4
-5 -23 -15 84.99 20.8
5 15 23 118.59 23.2
-5 23 15 83.19 20.8
-15 -5 -23 128.29 23.8
5 -23 15 136.19 23.8
-23 15 5 102.79 24.6
15 5 -23 104.09 24.2
23 15 -5 121.79 24.7
-5 15 -23 97.69 21.2
-15 -5 -23 116.49 27.6
-23 -15 -5 106.09 22.5
-15 -7 23 45.8 17.5
15 23 -7 31.9 13.9
-23 -7 -15 62.69 17.4
23 7 -15 87.99 21.1
7 -23 -15 70.79 22.3
-15 23 7 28.7 15.1
-7 -15 -23 82.09 23.4
-23 -7 -15 34.1 16.5
-23 7 15 13.2 19.5
7 15 -23 46.1 16.6
-7 15 23 37.7 14.9
-23 -15 7 61.59 17.9
-7 -23 15 44 17.6
15 -7 -23 45.6 17.3
-15 -23 -7 56.69 16.4
-15 -23 -7 56.49 17.9
7 -15 -23 78.89 22
-15 -7 -23 55.39 20.2
-23 -7 15 35.1 16.7
-15 -23 7 31.2 14.5
-7 23 15 53.49 17.3
23 -7 -15 38.8 15.3
7 23 -15 65.29 19.1
-23 -15 -7 66.99 19
7 15 23 67.49 17.8
23 15 -7 59.59 17.8
-7 -15 23 40.1 18.5
-7 -23 -15 43.7 15.2
-15 7 23 63.19 19
-23 -15 -7 47.7 15.7
-7 -23 -15 62.29 20.3
-15 -7 -23 72.59 18.3
-23 9 15 15.6 12
23 9 -15 29 13.1
15 23 -9 24.1 12.5
-9 15 23 27 12.2
-15 -9 23 18.8 13.7
-23 -15 9 29.1 12.7
-15 23 9 34 13.9
-15 -23 -9 6.7 9.4
15 -9 -23 32.9 14.6
-23 -9 -15 9.2 14.4
-9 -15 -23 24.9 15.4
9 -23 -15 20.1 15.7
-9 -23 15 42.4 15
9 15 -23 27.8 14.3
-9 -23 -15 16.5 10.8
9 23 -15 43.3 18.6
-9 23 15 37.5 13.8
-9 -15 23 20 14.9
-15 -9 -23 24.9 11.7
-15 9 23 37.7 15.5
-23 -9 15 10.8 12.2
15 9 -23 23.3 11.4
23 -9 -15 42.9 14.9
-15 -23 9 20 11.5
23 15 -9 15.7 12
15 -23 -9 17.5 16.5
-23 -15 -9 9.9 10.3
-23 -15 -9 29.1 13.3
-9 -23 -15 4.9 11.9
-23 15 9 31.9 14.4
9 -15 -23 18.7 14.5
9 15 23 33.7 12.9
-15 -9 -23 17.9 14.9
-11 -23 15 178.58 31.7
15 23 -11 88.29 25
-23 -11 -15 99.89 24.2
-23 -11 -15 95.19 27.5
-15 -11 23 61.29 23.9
-15 -23 -11 152.08 28.6
23 -15 -11 150.48 28.6
11 15 -23 79.49 24.9
-15 23 11 96.39 27.3
-11 -15 -23 138.39 28.6
15 -11 -23 79.59 25.4
-11 15 23 115.79 27.7
-23 11 15 174.08 30.5
11 -23 -15 148.99 37.4
-23 -15 11 153.48 27.4
-11 -15 23 86.99 31.3
-11 -23 -15 132.59 24.9
15 -23 -11 145.09 31.5
-23 -15 -11 166.38 29.5
15 11 -23 137.89 26.1
23 -11 -15 122.79 28.5
-23 15 11 156.48 30
11 -15 -23 158.18 28.3
11 23 -15 151.78 28.2
-23 -15 -11 109.49 25.4
23 15 -11 74.49 24
-15 -11 -23 115.19 25
-15 -11 -23 139.09 32.2
-15 -23 11 159.28 27.8
-11 23 15 87.49 25.6
-11 -23 -15 96.39 27.2
-13 -15 -23 7.4 14.6
15 23 -13 24.5 11.9
-15 -23 -13 8.8 12.6
-15 23 13 42.2 16.4
-23 13 15 49.8 18
15 -13 -23 54.89 19.7
-13 15 23 6.1 12
23 -15 -13 20.6 15.2
13 15 -23 61.39 17.2
-23 -13 -15 28.8 15.3
-15 -13 23 11.9 13.6
-23 -15 13 22.9 12.1
-13 -15 -23 46.4 14.4
13 -23 -15 11.3 16.1
-15 -23 -13 50.59 14.5
23 13 -15 28 13.8
-23 -13 -15 37.5 12.9
-13 -23 15 33.9 13.3
13 23 -15 17.5 12.9
-13 -23 -15 18 11.2
23 -13 -15 30.7 14.3
-23 -15 -13 19.7 11.3
23 15 -13 27.6 12.6
-13 -23 -15 44.6 15.1
-23 -13 15 41.8 14.6
-15 -13 -23 42.2 14.1
-15 -23 13 33.3 13
-23 15 13 23.1 14.4
-13 -15 23 16 14.5
-23 -15 -13 33.5 16.1
-15 -13 -23 35.4 18.4
-13 23 15 36.3 16.2
-15 13 23 31.5 15
13 -15 -23 24.7 16.9
15 -23 -13 16.1 16.5
15 13 -23 42.7 16.4
-15 -23 -15 -0.9 11.2
-15 15 23 -2.3 9.6
-23 -15 -15 6.9 7.6
15 15 -23 0.8 10
15 23 -15 -1.7 6.6
-15 -15 -23 -14.2 12.4
15 -15 -23 6 13.5
-15 -15 -23 3.6 9
-15 23 15 0.5 9.2
15 -23 -15 -1.8 12.5
-15 -23 -15 3.6 5.9
-15 -23 15 6.9 6.8
-23 15 15 3 10.1
23 15 -15 -1.5 7.4
-15 -15 23 -2.7 11.1
23 -15 -15 12.8 12.5
-23 -15 -15 15.6 13.6
-17 -23 -1 17.1 12.3
1 -17 23 27.6 13.8
17 -1 -23 57.69 15.7
-1 23 -17 45.4 19.4
1 17 -23 38.9 14.3
-17 -23 -1 42.7 13.7
1 -23 -17 58.39 17.3
-1 17 23 43.8 16
1 23 17 22.5 11.2
-23 -17 1 27.1 13.1
23 17 1 40.9 14.8
-17 -1 23 11.5 12.6
23 1 -17 35.2 12.6
-1 -23 17 31.7 21.2
-23 1 17 18.8 13.3
1 -23 17 35.1 14.2
1 -17 -23 18.7 12.8
23 17 -1 66.79 17.2
-23 -17 -1 40.8 13.9
-1 17 -23 48.8 15.2
17 1 -23 32.1 14.8
-17 -1 -23 18.5 13.9
-23 -1 17 24.3 14.4
-17 -23 1 10.1 10.2
-17 -23 1 17.2 11.8
-1 23 17 34.9 13.6
1 23 -17 41.8 14.8
-17 1 23 24.1 12.2
-1 -23 -17 22.1 13.1
23 -1 -17 38.9 15.4
1 17 23 31.9 14.4
23 3 -17 -6.9 8
-17 -23 -3 7.6 9.8
-17 -23 -3 -2.9 4.9
3 -17 23 -4.1 8.1
-23 -17 3 7.3 7.5
-3 -23 17 13.2 10.6
17 -3 -23 14.5 11.7
3 17 -23 9.3 9.1
-3 17 23 -0.5 8.6
-17 -3 23 4.4 8
-3 -17 -23 9.5 10
17 23 -3 0.6 5.7
3 -23 -17 -0.4 9.3
-23 3 17 -4.9 8.6
-23 17 3 7.6 9
-3 17 -23 -1 7
-17 -3 -23 9.7 7.7
-17 -3 -23 -15 7.7
-23 -17 -3 13.8 9.4
3 -23 17 -2.7 7.3
3 23 -17 7.1 9.9
3 -17 -23 -0.4 11.2
23 17 -3 8.6 7.5
-23 -3 17 8.1 11.1
-17 -23 3 8.3 6.3
-17 3 23 1.3 9.8
-3 -23 -17 -1.3 9.1
17 3 -23 1.6 7.1
-3 23 17 0.9 6.5
23 -3 -17 14.8 12.8
3 17 23 1.7 9
-3 -17 23 0.9 11.6
-23 -17 -3 -0.1 6.3
-23 -5 -17 106.49 24.6
-23 5 17 51.99 21.5
-17 -23 -5 62.29 21
17 -5 -23 69.99 22.2
-23 -5 -17 114.79 22.3
5 -23 -17 110.49 28.2
5 17 -23 111.89 26.5
-5 17 23 111.49 23.1
-5 -23 17 86.49 24.4
23 5 -17 72.09 23.4
-5 -17 -23 124.89 29.2
-5 -17 23 115.09 28.5
-17 -23 5 134.59 24.1
5 -17 -23 77.19 24.9
-17 -5 -23 102.69 22.7
-23 17 5 110.69 25.5
-17 -5 -23 109.19 26.9
-5 -23 -17 108.99 22.4
-23 -17 -5 130.19 24.9
5 23 -17 116.49 24.8
5 17 23 69.99 21.8
-5 -23 -17 74.29 24.8
-5 23 17 109.89 23.7
23 -5 -17 140.19 27.4
17 5 -23 133.99 24
23 17 -5 81.39 23.6
-23 -5 17 123.89 24.6
-23 7 17 67.79 22.1
-23 -17 7 66.29 19.4
17 23 -7 37.8 15.2
-17 -23 -7 56.09 18
-23 -7 -17 97.79 18.2
-7 -17 -23 87.09 23.4
-7 17 23 27.5 16.1
17 -7 -23 92.69 23.2
-17 -23 -7 94.89 18.9
7 17 -23 117.29 22.6
-7 -23 17 81.79 21.9
23 7 -17 40.5 17
-17 23 7 68.99 20.7
7 -23 -17 86.39 24.6
-23 -7 -17 90.19 22.7
-17 -7 23 94.59 22.1
-23 17 7 82.09 22.6
7 23 -17 63.89 20
-7 -23 -17 56.89 20.4
-7 -17 23 57.69 22.1
-23 -17 -7 78.69 20.5
-7 -23 -17 88.09 17.5
23 17 -7 99.29 22.5
7 17 23 51.89 18.8
-23 -7 17 54.09 19.7
17 7 -23 46.7 17.9
-17 -23 7 48.9 17.6
-17 -7 -23 105.19 25.4
-7 23 17 38.9 16.8
7 -17 -23 77.39 22.7
-17 7 23 61.39 20.5
-17 -7 -23 88.89 20
-23 -9 -17 11.3 7.8
-17 -23 -9 9.4 10.9
-17 23 9 4.9 9.2
-17 -9 23 6 10.9
-9 17 23 3.2 9.2
-17 -23 -9 -0.3 6.4
9 -23 -17 2.2 14.2
17 -9 -23 11.9 10.2
17 23 -9 2.9 8.5
-23 -9 -17 2.7 10.4
9 17 -23 30 13.6
-9 -17 -23 6.9 14
-9 -23 17 17.6 12.6
-23 -17 9 15.4 9.2
-23 9 17 1.9 9.1
23 -17 -9 5 8.2
-23 17 9 1.5 11.6
-23 -17 -9 5.3 11.5
23 -9 -17 14.6 12.6
-23 -9 17 1.7 7.8
17 9 -23 12.1 12.1
17 -23 -9 4.4 13.5
-17 -9 -23 4.5 12.3
-9 -17 23 -1.8 12.1
9 -17 -23 16 12.1
-17 9 23 4.4 11.6
-9 -23 -17 -2.6 4.7
-17 -9 -23 12.9 9.1
-9 23 17 12.7 10.7
9 23 -17 3.1 9
23 17 -9 7.8 8.1
-23 -17 -9 18.9 10.3
23 -17 -11 77.79 21.7
-17 23 11 27 16.3
11 -23 -17 32.4 19.5
23 11 -17 70.99 19.1
11 17 -23 40.4 16
-23 -11 -17 52.09 16.8
-23 -11 -17 85.89 23.4
-11 -17 -23 71.49 19.3
17 23 -11 76.19 18.1
17 -11 -23 31.9 17.8
-23 -17 11 53.49 16.5
-17 -11 23 35 16.2
-11 -23 17 45.1 17.8
-17 -23 -11 81.89 21.3
-17 -23 -11 50.69 16.9
-11 17 23 71.29 19.1
-23 11 17 36.3 19
17 11 -23 35.9 16.9
17 -23 -11 64.09 23.8
-11 -17 23 65.79 21.9
-23 -17 -11 44.9 16.1
11 -17 -23 55.79 20.9
-17 -11 -23 57.09 17.2
-23 17 11 43.8 17.4
23 -11 -17 55.39 17.8
-17 11 23 29.8 16.2
11 23 -17 37.9 16.6
23 17 -11 59.99 17.2
-11 23 17 57.69 18.9
-17 -23 11 54.39 16.3
-23 -11 17 26.9 15.8
-11 -23 -17 87.99 18.3
-11 -23 -17 58.19 20.7
-23 -17 -11 44.6 17.3
17 23 -13 11.6 8.3
-13 -17 -23 16.8 9.9
-17 -23 -13 4.4 11.1
-23 -13 -17 6.4 11.5
23 -17 -13 4.1 10.5
-23 -13 -17 14.4 9.2
-13 -17 -23 6.9 13.9
17 -13 -23 7.1 13.3
13 17 -23 16.9 10.2
13 -23 -17 -8.5 14.6
-17 -23 -13 8.2 8.6
-17 23 13 3.2 9.1
23 13 -17 11.2 9.4
-23 13 17 1.4 11.1
-13 -23 17 5.9 10.5
-13 23 17 -4.9 9
23 -13 -17 15.4 12
-13 -23 -17 10.7 8.5
-23 -17 -13 13.8 9.8
17 13 -23 15.4 11
-17 -13 -23 12.5 15.2
13 23 -17 -4.3 9.3
-23 17 13 11.9 11.1
-13 -17 23 -2.8 10.9
13 -17 -23 -1.2 13.5
-23 -17 -13 9.5 11.7
-13 -23 -17 -6.1 6.7
17 -23 -13 -2.7 14.2
-17 23 15 23.4 15.1
-15 -17 -23 39.1 20.5
15 -23 -17 32.9 19
-23 -15 -17 23.5 12.7
-23 -15 -17 24.5 15.8
-23 15 17 23.3 15.1
-15 -17 -23 46.3 14.4
23 -17 -15 40.2 18.6
-23 -17 -15 19.7 15.3
-23 -17 -15 40.7 15.6
-15 23 17 29 15.2
23 -15 -17 43.4 18.7
-17 -15 -23 25.5 12.6
-17 -15 -23 -1.6 13.5
17 -23 -15 7.4 18.4
-23 -17 -17 19.7 16.7
-17 -17 -23 53.99 22.9
-23 -17 -17 83.69 17.7
-23 17 17 45.5 18.8
-17 -17 -23 56.49 17.2
17 -23 -17 46.8 24.2
-1 19 23 111.79 26.3
1 -23 -19 183.78 30.8
-23 -19 1 142.39 28.2
-23 1 19 127.79 27.4
-19 -23 -1 143.09 27.7
-19 -23 -1 171.28 27.3
-1 -23 19 127.19 28.2
-1 -19 -23 71.89 26.9
23 1 -19 88.99 25.1
-1 23 -19 134.89 26.9
1 19 -23 124.99 27.7
-19 -1 23 87.89 27.1
19 -1 -23 162.38 29.5
19 1 -23 137.19 27.1
23 -1 -19 127.39 27
-1 19 -23 160.88 27.8
-1 -23 -19 135.09 31.2
23 19 -1 117.49 26.8
-23 -19 -1 124.99 26.3
-1 -19 23 121.19 30.7
1 23 -19 141.59 28.1
-23 -1 19 69.69 25.7
-19 1 23 157.88 29.7
-19 -23 1 127.39 25.4
-1 23 19 139.29 27.1
1 -19 -23 100.29 28.8
-19 -3 23 39.7 13.7
-3 -23 19 28.4 15.7
23 3 -19 25.1 13.8
-3 19 23 41.6 14.1
-19 -23 -3 33.2 12
3 19 -23 49.3 16.5
-3 -19 -23 45.5 19.2
19 23 -3 34.3 12.9
-23 -19 3 26.8 12.9
-23 3 19 16.7 12.2
19 -3 -23 54.89 17.2
-19 -23 3 30.3 12.8
3 19 23 15.6 11.7
23 19 -3 33.8 13.2
-3 -23 -19 12.3 15
-3 23 19 27.3 12.4
-23 -3 19 22.6 12.6
-19 3 23 27.9 14.6
19 3 -23 22.2 14.1
-23 -19 -3 26.6 13.6
3 23 -19 35.2 14.5
23 -3 -19 24.2 13.6
-23 -19 -3 22.4 12.8
3 -19 -23 35.8 17.4
-3 -19 23 32 17.8
-19 -23 -5 -2.9 5.3
19 23 -5 7 7.7
5 19 -23 18.7 11.4
-5 -19 -23 3.3 13.4
19 -5 -23 13 12.2
-23 5 19 -6.5 9.7
23 5 -19 5.9 11.3
-19 -23 -5 -3 9.3
-19 -5 23 -2.7 6.6
-5 19 23 -1.4 8.6
-23 -19 5 4.8 6.6
-5 -23 19 -7 9.7
5 -23 -19 6.3 10.6
-19 -23 5 17.8 9.8
-5 -19 23 -7.9 9.8
23 19 -5 2.7 9.5
-5 -23 -19 -1.9 6.9
19 5 -23 4.2 8
5 19 23 8.3 10
-5 -23 -19 3.1 13
-23 -19 -5 -4.1 8.6
5 -19 -23 1.6 12.2
5 23 -19 8.9 10.5
-5 23 19 4.6 8.9
-23 -19 -5 7.3 9.5
23 -5 -19 8.7 10.7
-19 5 23 -4 6.5
-23 -5 19 3.4 10.2
-19 23 7 4.4 9.5
-7 -19 -23 7 12.3
-23 7 19 7.8 9.1
-19 -7 23 -1 7.9
-19 -23 -7 -2.2 10.2
19 23 -7 -3.5 6.4
-7 -23 19 6.4 10.7
-19 -23 -7 3.5 7.3
19 -7 -23 16.4 11.6
7 -23 -19 -8.8 11.4
7 19 -23 1.3 9.6
-7 19 23 -7.4 8.1
23 19 -7 7.9 10.4
7 23 -19 10.8 8.9
-19 -23 7 -2.6 7.5
7 19 23 3.7 6.2
-7 -23 -19 -3 6.4
7 -19 -23 2.6 14.4
-7 23 19 0.8 9.1
23 -7 -19 2.3 9.4
-19 7 23 -4.1 9.4
-7 -23 -19 -9.9 6.9
-7 -19 23 -11.8 9.3
-23 -19 -7 -4.6 8.3
-23 -19 -7 7.1 8.7
19 7 -23 6 9.6
-23 -7 19 9.1 9.4
-9 -19 -23 78.39 23.2
-19 -23 -9 40.7 14.2
9 -23 -19 38.9 17.6
23 9 -19 71.29 19.7
-9 -19 -23 63.99 17.5
19 23 -9 48.8 16.5
-23 9 19 25.2 16.6
9 19 -23 47.3 17
19 -9 -23 68.89 19.4
-19 23 9 36.6 17.3
-9 -23 19 41.1 17.5
-19 -23 -9 39.8 15.9
9 -19 -23 42 19.5
-23 -19 -9 48.7 16.2
-9 -23 -19 33.7 13.9
-19 -9 -23 99.19 20.1
-19 9 23 86.89 22.5
19 9 -23 63.99 18
23 19 -9 56.89 17.3
-9 -19 23 51.19 19.8
-9 -23 -19 11.7 16.1
23 -9 -19 41.5 17.6
-23 -19 -9 29.6 16.3
-19 -9 -23 42.9 18.6
19 -23 -9 50.19 21.2
-9 23 19 60.39 19.2
23 -19 -11 200.78 39.3
-11 -23 19 198.48 35.2
19 -11 -23 148.99 34.1
-19 -23 -11 107.39 30.3
11 19 -23 142.59 32.5
-23 11 19 175.78 35.6
-11 -19 -23 132.79 33.5
-19 23 11 194.38 36.2
-11 23 19 105.19 30.1
19 -23 -11 190.58 39.2
-19 -11 -23 242.18 40.7
-23 19 11 179.58 36.4
-19 -11 -23 174.38 33.1
-11 -23 -19 213.58 38.2
-11 -19 23 126.59 33.9
11 23 -19 180.98 33.9
23 -11 -19 145.79 32.3
-23 -19 -11 208.98 33.1
-23 -19 -11 151.08 32.5
-23 13 19 70.09 22.1
13 19 -23 25.9 17.5
-13 -19 -23 48 21.9
23 -19 -13 74.49 22.9
-23 -13 -19 85.99 24.4
-19 23 13 54.59 20.1
-23 19 13 35.1 17.4
-19 -13 -23 32.7 19.1
-19 -13 -23 62.09 18.9
13 23 -19 34.8 17
19 -23 -13 42.4 22.2
23 -13 -19 74.09 20.4
-23 -19 -13 57.99 17.4
-23 -19 -13 106.99 24.5
-23 -15 -19 -7.3 11.8
-19 23 15 3.8 11
23 -19 -15 6 13.4
-23 -19 -15 -1.4 12.4
-19 -15 -23 -5.4 12.7
-23 19 15 6.8 12.2
19 -23 -15 -16 14.5
23 1 -21 332.47 57.29
-1 -21 -23 426.26 60.89
-23 -21 1 393.76 56.99
1 -23 -21 392.46 58.89
21 -1 -23 378.76 58.29
-21 -23 -1 255.17 54.29
-21 -23 -1 265.47 55.09
-23 1 21 363.66 58.79
-23 -21 -1 395.36 57.29
1 -21 -23 361.26 57.99
1 23 -21 317.17 56.79
21 1 -23 336.27 57.39
-23 -21 -1 378.26 57.59
23 -1 -21 248.68 56.09
21 -3 -23 231.78 40.1
-21 -23 -3 207.38 41.4
21 23 -3 182.58 36.3
3 -23 -21 210.48 39.2
-3 -23 21 194.68 40.8
23 3 -21 193.18 38
-23 3 21 243.48 39.9
3 21 -23 190.88 39.1
-3 -23 -21 202.98 38.7
23 -3 -21 194.98 38.9
-3 -21 23 207.28 41.5
-23 -21 -3 234.18 38.1
21 3 -23 238.38 38.3
3 23 -21 184.98 38.8
-23 -21 -3 211.18 38.9
23 21 -3 166.48 36.9
-5 -23 21 13.4 14.5
-21 -23 -5 21.3 12.4
-5 -21 -23 25.4 16.2
21 -5 -23 37.2 15.4
-23 5 21 15.5 14.6
5 -23 -21 23.1 16.3
5 21 -23 61.89 18
-23 -21 -5 49.8 15
-5 -23 -21 4.6 13.9
-23 -21 -5 26.2 12.4
23 -5 -21 44.3 16.6
23 21 -5 21.2 12.6
-5 -21 23 3.7 12.9
7 21 -23 23.9 13.5
-21 -23 -7 16.5 13.4
-7 -23 21 11.2 16.7
7 23 -21 32 13.8
-23 -21 -7 35.6 14.2
-23 -21 -7 9 9.5
23 -7 -21 23.2 12.3
-7 -21 23 28.5 16.9
-9 -23 21 191.68 37.5
9 21 -23 253.17 38.5
-23 -21 -9 128.69 33.2
9 23 -21 163.28 35.7
11 23 -21 478.25 78.29
-7 -23 23 -12.8 10.2
7 23 -23 27.7 13.6
0 0 24 767.02 129.89
0 0 -24 841.62 129.79
0 -24 0 857.11 128.99
-24 0 0 817.92 129.09
0 -24 0 1035.9 131.69
0 -2 -24 590.64 87.59
-2 0 -24 699.63 88.79
-2 0 24 669.33 89.39
0 -24 -2 421.66 85.59
0 -24 -2 680.13 87.39
0 -24 2 550.24 87.69
0 -24 2 601.54 86.39
2 0 -24 492.35 85.89
2 0 24 452.65 85.99
-24 2 0 490.15 85.99
-24 0 -2 524.55 85.59
-24 0 2 619.54 87.59
-2 -24 0 497.45 86.79
-2 -24 0 492.05 85.19
-24 -2 0 612.74 87.19
2 -24 0 673.93 88.99
2 -24 0 493.05 85.19
-24 -2 -2 326.97 56.29
-24 -2 2 411.76 58.59
-24 2 -2 389.26 57.19
-24 2 2 384.36 58.59
-2 -24 -2 389.56 57.89
-2 -24 -2 253.27 54.79
2 -2 24 376.46 59.49
2 2 24 369.26 58.49
2 -24 2 327.27 57.79
2 -24 2 337.97 56.09
-2 2 24 280.97 57.29
2 -24 -2 343.37 58.19
2 -24 -2 299.57 55.99
-2 -2 24 311.07 57.79
24 2 -2 376.66 57.09
-2 -24 2 310.77 57.79
-2 -24 2 428.56 57.09
4 -24 0 -1.6 8.3
4 -24 0 2.2 11.7
-24 -4 0 7.8 9.8
-24 4 0 -3.1 7.9
0 -4 24 -3.4 9.7
0 4 -24 8.7 10.3
0 4 24 -0.3 7.6
-24 0 4 3.1 10.5
-4 -24 0 -3.9 7.3
-4 -24 0 -5.6 6.7
-4 0 -24 -9.3 9.1
-4 0 24 -4.5 7
0 -24 -4 -1.9 10.9
0 -24 -4 3.8 8.4
0 -24 4 3.9 10.8
0 -24 4 -0.7 6.8
4 0 -24 -4.6 6.9
4 0 24 3.5 10.6
-24 0 -4 -1.3 7.8
24 0 -4 -3.1 8.4
24 4 0 0.5 8.9
0 -4 -24 -0.9 8.6
4 -2 -24 10.5 12.5
-2 -24 4 -3.6 9.7
2 -4 24 -1.7 9.3
2 4 -24 7 9.6
2 -24 -4 16.5 12.7
-24 2 4 -9.3 8.7
-2 4 24 -7.8 9.3
4 -24 2 11.5 12.5
4 -24 2 1.8 7.5
2 -24 -4 2.2 7.7
24 -4 -2 3 5.9
-24 -4 2 2.7 9.6
-4 -2 24 11.2 12
-24 4 -2 -3.2 8.6
-4 -24 -2 5 9
4 2 24 -3.4 9.6
-4 2 -24 4.8 9.9
-2 -24 4 5.9 8.7
-24 -2 -4 0.8 8.4
24 2 -4 -2.5 8.5
-4 -24 -2 -1.1 7.2
-2 -4 -24 -1.2 11.4
24 4 2 11.1 8.3
-4 -24 2 4.4 7.3
-4 2 24 -1.5 7.9
4 -24 -2 10.2 8.6
-2 4 -24 0.9 8.9
2 -4 -24 5.6 12.5
2 -24 4 1.2 8.1
4 -2 24 0.6 9.3
4 2 -24 -1.4 9.8
24 4 -2 0.8 8.7
2 4 24 5.1 10.1
24 -2 -4 2.7 7.2
2 -24 4 -1.2 10.5
-2 -4 24 11.9 11.7
-24 -4 -2 4.8 9.1
-24 2 -4 10.5 9.6
-24 4 2 4.3 10
-4 -2 -24 -1.3 10.1
-2 -24 -4 3.8 8.2
-24 -2 4 -4.9 8.9
4 -24 -2 -2.1 10
-4 -24 2 4.9 11
-2 -24 -4 3.2 6.8
24 2 4 -0.2 4.6
-4 4 24 338.97 49.99
4 -24 -4 330.17 51.19
-4 4 -24 252.57 47.1
4 -24 4 267.47 46.6
4 -4 -24 257.07 47.1
4 -4 24 256.67 47.7
4 4 -24 366.76 49.7
4 4 24 240.78 49.6
-24 -4 -4 273.57 47.2
-24 -4 4 231.88 47.4
-24 4 -4 219.58 45
-24 4 4 288.87 49.3
-4 -24 -4 345.07 50.19
-4 -24 -4 276.27 47.3
-4 -24 4 278.87 48.5
-4 -24 4 287.17 47.3
-4 -4 -24 317.27 50.19
-4 -4 24 260.47 49.1
24 4 -4 346.47 52.79
4 -24 -4 256.37 47
6 -24 0 14.6 10.7
-24 0 6 7.7 11.5
-6 -24 0 16.6 10.3
0 -6 -24 3.2 9.5
0 6 24 6.3 10.7
6 -24 0 0.5 11.2
-6 0 -24 6.6 11.6
0 -24 -6 19.9 13.5
0 -24 -6 9.4 9.5
0 -24 6 13.6 11.2
-6 -24 0 19.5 12.3
24 0 -6 19.5 11.2
-6 0 24 5.5 11
0 -24 6 14.2 10.2
6 0 -24 1.2 10.7
6 0 24 15.1 11.5
24 6 0 13.2 10.3
0 6 -24 18.4 11.4
-24 6 0 14.6 11.5
-24 0 -6 12.4 9.7
-24 -6 0 17.7 11.1
0 -6 24 7.9 11.9
-24 2 6 6.8 11.2
6 -24 2 9.2 8.8
6 2 24 5.2 10.1
-24 -6 2 0.6 6.5
-2 -24 6 -2 6.5
-6 -2 24 -1.1 10.7
-6 2 -24 1.7 9.2
-24 -2 -6 10.5 9.2
-2 -6 -24 3.5 12.6
24 6 2 5.9 9.8
24 2 -6 -1.3 11.5
-6 -24 -2 -5 6.8
-2 -24 6 -2 9.7
2 -24 -6 0.8 11.1
-2 6 24 -7.4 6.3
6 -2 -24 3.1 7.6
-6 -24 -2 -7.7 6.8
6 -24 2 1.5 8.5
2 -24 -6 5.8 7.1
-24 6 -2 -8.8 6.9
2 -6 24 -0.3 10.2
-6 -2 -24 3.9 12
24 -2 -6 5.7 9.8
6 -24 -2 5.6 11
2 -24 6 2.9 7.9
2 6 24 -8.3 9
-24 -6 -2 8.3 9.1
6 2 -24 -5.6 6.6
6 -24 -2 -2.9 7.1
-24 6 2 6.6 10.5
2 -6 -24 -4.1 11.5
-24 -2 6 -5.4 9.3
-2 -24 -6 0.3 10.5
-2 -24 -6 1.7 7.8
-6 2 24 2.7 9.9
2 -24 6 -6.9 8.4
6 -2 24 6.6 9.1
24 6 -2 -3.3 8.7
-6 -24 2 1.6 10.1
-6 -24 2 5 8.8
-2 -6 24 3.2 10.4
-2 6 -24 3 7.9
-24 2 -6 2.5 7.9
-4 6 24 169.38 38.7
-6 4 -24 232.08 40.7
24 4 -6 226.88 40.7
-24 4 6 223.58 41.5
-6 -24 -4 292.87 41.5
6 -24 4 234.68 39
4 -24 -6 220.78 42.3
4 -24 -6 230.98 39.4
-6 -4 24 176.88 40.4
-24 -6 4 244.78 41.5
-24 6 -4 223.08 37.6
4 6 -24 279.37 42
6 4 24 227.58 40.7
6 -4 -24 205.78 41
-24 -4 -6 238.68 40
4 -6 24 201.58 40.3
-6 -24 -4 288.87 41
-4 -6 -24 239.98 41.2
-4 -24 6 156.08 38.2
-4 -24 6 223.98 41.1
-4 6 -24 259.17 40.7
-24 4 -6 260.67 40.7
4 6 24 212.88 40.4
6 -24 -4 188.18 41.5
-24 6 4 186.78 39.7
-24 -6 -4 266.87 41.2
-4 -24 -6 162.78 37.2
24 6 -4 192.58 39.2
-6 -4 -24 247.78 42.2
-24 -4 6 257.87 42.1
-4 -6 24 229.78 41.9
6 -24 -4 204.48 38.8
-6 -24 4 225.28 39.8
6 -4 24 219.78 40.1
24 -4 -6 260.67 41.1
4 -24 6 199.08 38.5
-6 4 24 284.97 43.7
4 -6 -24 179.18 40.9
-6 -24 4 245.18 39.4
-6 -24 6 224.68 37.8
-6 -6 -24 275.07 44.1
-6 -6 24 184.78 39.3
-6 -24 6 159.88 37.7
-6 -24 -6 152.58 38.1
6 -24 6 209.28 36.6
24 6 -6 213.78 38
-24 -6 -6 245.48 39.1
-24 -6 6 143.69 36.9
-24 6 -6 215.18 34
-24 6 6 239.08 40.2
-6 -24 -6 318.17 45.5
6 6 -24 271.67 39.4
-6 6 -24 229.38 38.3
-6 6 24 170.58 38.6
6 -24 -6 160.38 39.7
6 6 24 223.78 39.6
6 -6 24 223.48 38.6
0 -8 -24 146.99 32.8
24 0 -8 140.39 30.5
-24 0 -8 178.98 28.7
-24 0 8 135.79 31.1
-8 -24 0 112.89 27.8
-8 -24 0 205.98 31.5
0 -8 24 142.89 31.6
0 8 -24 160.58 30.7
8 -24 0 147.39 29.4
24 8 0 175.08 31.1
0 -24 -8 113.99 27
0 -24 8 181.28 32.5
0 -24 8 165.78 30.3
8 0 -24 142.09 31.1
8 0 24 163.38 30.2
-24 8 0 142.79 29.3
-24 0 -8 139.69 27.5
0 -24 -8 188.18 32
0 8 24 208.38 33.8
-8 0 -24 107.59 29.8
24 8 2 71.19 19.1
-2 -24 8 78.19 19.8
2 -24 -8 105.49 24.7
-24 -2 -8 84.19 17.2
-24 -2 -8 48.6 14.7
-24 -8 2 51.29 17.6
2 -24 -8 59.49 17.5
2 8 -24 91.49 21
-24 2 8 34.4 17.4
-8 -24 -2 53.79 18.2
-8 -24 -2 94.69 18
8 -24 2 55.29 15.7
24 2 -8 73.99 20
8 -2 -24 22.1 16
8 2 24 71.79 19.6
-2 -8 -24 69.59 21.3
-2 8 24 63.39 18.6
-8 -2 24 94.39 22.5
-8 2 -24 86.89 20.7
-2 -24 8 75.19 21.2
2 -8 24 61.39 19.5
-24 -8 -2 75.09 19.4
2 -24 8 70.79 18.6
-24 -2 8 52.29 18.9
-8 -24 2 45.1 15.5
-2 -8 24 54.89 18.8
-2 8 -24 53.39 17.2
24 8 -2 59.09 18.3
8 -2 24 82.69 19.2
-24 8 2 55.59 18
-8 -2 -24 48.7 18.8
-2 -24 -8 37.3 17.9
-2 -24 -8 66.89 17.1
2 -8 -24 37.5 16.8
-8 2 24 77.89 19.8
2 8 24 59.19 19.2
8 -24 -2 64.89 20.2
8 -24 -2 64.49 18.1
-8 -24 2 59.79 18.5
24 -2 -8 72.79 19.6
8 2 -24 27.4 14.4
-4 -24 8 48.3 18.2
-4 8 24 65.69 18.6
4 -8 24 27.5 15.6
-4 -8 -24 68.09 21
-24 -8 4 80.99 19.8
8 -24 4 56.49 15.5
-24 4 8 66.29 19.8
-24 -4 -8 54.59 15.6
-24 -4 -8 62.99 16.9
4 8 -24 55.39 18
8 -4 -24 22.4 23.4
-8 -24 -4 54.19 16.4
8 4 24 66.89 19.1
-8 -24 -4 75.29 20.8
-8 -4 24 40.2 17.5
-8 4 -24 70.99 18.7
4 -24 -8 72.89 22.5
4 -24 -8 34.8 13.7
24 4 -8 75.79 19.8
24 8 4 85.99 20.1
4 -8 -24 22.9 14.3
-24 4 -8 42.1 12.4
4 8 24 63.19 18.9
-4 -24 -8 35 14.7
24 8 -4 102.49 20.7
-4 -8 24 34.2 17.2
-4 8 -24 64.69 17.4
24 -4 -8 64.39 18.2
-4 -24 -8 70.39 20.4
8 -24 -4 55.69 16.2
-8 -24 4 27.5 15.4
-8 -24 4 63.19 17.1
-24 8 4 85.49 21.6
-8 -4 -24 55.59 20.2
-8 4 24 24.3 16
8 -4 24 70.19 18
-24 -8 -4 88.29 19.1
8 4 -24 105.89 21.6
4 -24 8 67.19 17.2
-24 -4 8 86.49 21.4
8 -24 -4 47.5 18.7
-24 8 -6 66.99 12.1
-8 6 -24 86.09 19.3
-8 -24 -6 95.49 22.2
-8 -24 -6 47.2 16.9
8 -24 6 72.39 17
-6 -8 -24 112.09 25.1
24 6 -8 54.89 19
-24 6 8 55.39 20.2
-24 -6 -8 44.7 16.6
-24 -6 -8 61.99 18.2
-6 -24 8 109.39 21.9
-24 -8 6 65.59 20.1
-24 8 -6 67.59 11.8
-8 -6 24 90.19 22.7
8 6 24 45.1 18.5
-6 8 24 59.59 21.9
8 -6 -24 72.89 20
6 -24 -8 85.79 24.4
6 8 -24 73.89 21.4
6 -8 24 64.39 18.8
-6 -8 24 93.39 23.1
-8 -6 -24 74.49 21.5
-8 -24 6 68.69 19.7
-24 8 6 70.39 22.1
-6 -24 -8 85.49 20.3
6 -24 8 62.09 17.1
-24 6 -8 72.99 11.5
8 6 -24 41.9 18
6 8 24 63.19 20.1
24 8 -6 69.09 19.8
-6 8 -24 95.99 20.2
6 -8 -24 39.8 17.4
8 -24 -6 55.19 21.2
8 -24 -6 99.39 20.9
-24 -8 -6 87.69 20.1
24 -6 -8 88.79 21.6
-8 6 24 99.89 21.2
-6 -24 -8 92.09 22.5
-24 6 -8 69.39 11.6
-24 -6 8 103.19 20.6
-8 -24 8 11.6 9.8
-8 -8 24 5.6 10.7
-8 8 24 -3.8 9.3
8 -24 -8 6.7 12.5
8 -8 -24 -4.5 8.1
8 8 -24 9.9 11.4
8 8 24 -0.4 7.8
8 24 -8 -5.6 8.1
24 -8 -8 0.3 7.3
8 -24 8 -3 5.9
-8 -24 -8 -6.1 6.9
24 8 -8 3 9.5
-8 -8 -24 1.1 9
-8 24 8 -8.2 7.6
-8 8 -24 6 8
-24 -8 -8 6.3 8.8
-24 -8 -8 0.3 7.2
-24 -8 8 3.2 9.9
-24 8 8 -7.4 7.9
-8 -24 -8 5.7 10.5
-24 0 -10 259.07 50.79
-24 0 -10 301.67 49.99
-10 0 -24 312.97 53.89
-10 0 24 393.96 54.99
0 -24 -10 272.27 54.09
10 0 24 379.46 54.29
24 10 0 287.77 52.49
24 0 -10 277.97 52.99
-24 0 10 330.87 54.69
-24 10 0 298.87 58.69
0 -10 -24 364.86 55.89
0 -24 -10 395.16 53.39
0 -24 10 304.17 52.19
10 -24 0 297.67 51.49
0 -10 24 328.57 54.29
-24 -10 0 231.88 51.79
0 10 24 393.96 54.79
-24 -2 -10 201.88 36.6
-24 -2 -10 237.98 36.7
10 2 24 198.98 38
10 -2 -24 256.97 38.7
-2 -10 -24 297.07 42
24 10 2 201.58 37
-10 -2 24 160.48 37.6
-2 -24 10 227.18 37.5
-24 -10 2 206.58 37.8
10 -24 2 208.58 35.9
24 2 -10 148.09 37
2 -10 24 185.18 38.3
2 10 -24 231.78 38.3
2 -24 -10 267.77 38.3
-10 -24 -2 214.38 38
2 -24 -10 164.48 37.4
2 -24 10 224.68 37.2
10 -24 -2 220.78 37.2
-24 10 2 195.48 37.2
24 10 -2 237.08 39.3
10 2 -24 138.59 36.4
-2 10 -24 187.78 36.6
-10 -2 -24 159.08 37.2
-24 -10 -2 266.17 40
-10 2 24 277.77 40.5
-2 -24 -10 177.68 35
-24 -2 10 160.68 36.9
-24 2 -10 188.88 33.7
-24 2 -10 191.78 34
24 -2 -10 202.38 37.7
-2 -10 24 217.68 40
2 10 24 230.58 39.3
10 -2 24 222.88 37.4
-10 -24 -4 3.1 10.6
-10 4 -24 1.3 8.7
-24 10 -4 1 4.6
10 -4 -24 -4.8 10
-4 -10 -24 -4 11.5
4 -10 24 -3.9 7.4
4 10 -24 17.5 10.4
-4 10 24 1.7 10.8
-10 -24 -4 0.6 6.3
4 -24 -10 9.6 10.8
24 4 -10 0.9 8.8
24 10 4 6.5 9.2
-24 -4 -10 -3.4 7.8
-24 -4 -10 -0.4 6.1
-4 -24 10 9 8.7
-10 -4 24 -1.1 7.6
-24 4 10 -2.5 10
10 4 24 -3.2 8.1
-24 -10 4 3.9 8.8
-10 -24 4 2.2 6.2
10 -24 -4 1.8 7.7
-10 -24 4 6.4 8
24 10 -4 5.1 10.1
-4 -10 24 -3.3 9.5
-4 10 -24 1.3 7.6
4 10 24 -4.2 8.5
10 -24 -4 -0.5 11
-24 -4 10 4 7.7
-24 4 -10 0.1 3.4
-24 4 -10 -1.7 4
10 4 -24 -2.4 9.4
-24 -10 -4 8.2 9.1
-10 4 24 -6.3 9.2
-24 10 4 8.7 11.4
-10 -4 -24 3.1 11.4
10 -4 24 -2 5.8
24 -4 -10 -1.1 9.2
4 -24 10 4.9 8
-4 -24 -10 2.5 8.7
-4 -24 -10 1.4 7.3
4 24 -10 1.9 8.2
-24 -6 -10 4.3 9.9
6 10 -24 3 10.3
10 6 24 -1.5 8.1
24 -10 -6 14.4 8.6
-10 -6 24 5.6 11.1
-24 -10 6 4.1 8.4
6 -10 24 5.6 7.5
10 -6 -24 2.3 8.2
-24 -6 -10 -1.1 5.5
10 24 -6 -2.2 7.8
-10 -24 -6 1.4 9.4
24 6 -10 4.2 10.2
-6 -10 -24 -14.9 9.2
-6 10 24 0.3 7.6
-10 6 -24 4.1 6.8
-6 -24 10 4.1 11.2
-24 6 10 -8.5 9.1
-10 -24 -6 3.6 8.2
6 -24 -10 7.7 13.4
-24 -10 -6 -0.6 8
-6 -24 -10 -7.7 9.8
-24 10 6 -2.8 9.5
6 -24 10 8.9 7.3
-10 6 24 0 7.9
-6 -10 24 -1.8 11.7
-10 -24 6 7 9.7
-6 -24 -10 3.2 7.7
6 -10 -24 -2.2 8.4
-24 -10 -6 4.1 8.1
10 -24 -6 4.5 12.7
24 -6 -10 -3.5 7.8
-10 -6 -24 11.6 12.9
6 24 -10 10.4 8.5
24 10 -6 3.4 9.3
10 6 -24 5.8 10.3
-24 -6 10 11.7 11.5
-6 24 10 2.6 9.3
6 10 24 -0.7 7.4
10 24 -8 139.09 25.2
-10 -24 -8 85.69 24.2
-10 -24 -8 114.79 23.2
-8 10 24 50.59 22.1
-24 -8 -10 152.98 26.7
-8 -24 10 103.19 24.4
8 10 -24 160.38 26.8
-24 -10 8 81.09 23.9
24 8 -10 66.99 21.9
10 8 24 98.89 25.4
-8 -10 -24 55.39 22.8
-24 -8 -10 82.19 23.3
-24 8 10 126.79 27.7
-10 -8 24 101.99 26.3
-10 8 -24 104.69 20.9
-10 8 24 80.09 24.7
8 10 24 104.59 24.8
-8 -24 -10 102.69 21.8
-24 -10 -8 123.99 24.7
-8 24 10 90.29 24.4
8 24 -10 151.98 25.2
10 -24 -8 133.89 30.4
24 -8 -10 133.39 26.2
-10 -8 -24 100.49 27.7
-8 -10 24 124.39 27.4
-8 10 -24 116.29 22.3
-24 10 8 110.59 27.5
10 8 -24 55.29 21.6
24 10 -8 104.09 24.3
-10 -24 8 126.99 24.7
8 -10 -24 62.89 22.5
-24 -8 10 122.99 24.1
-24 -10 -8 107.99 23.9
-8 -24 -10 132.89 24.6
-10 -10 24 319.47 58.49
-10 -10 -24 258.17 58.19
10 -24 -10 384.96 61.69
-24 -10 -10 347.57 57.19
10 10 24 388.06 59.09
10 24 -10 271.87 54.59
24 -10 -10 451.85 59.79
24 10 -10 407.46 58.09
-24 10 10 413.76 61.49
10 10 -24 382.76 58.19
-10 -24 -10 312.17 55.29
-10 -24 10 253.77 55.79
-10 24 10 396.76 58.69
0 12 24 336.07 54.59
24 0 -12 378.06 55.49
0 -24 12 346.47 53.99
12 0 24 264.67 51.69
12 -24 0 366.16 52.99
-24 -12 0 291.67 53.29
24 12 0 279.17 52.99
-12 0 -24 381.86 55.09
0 -24 -12 408.06 56.39
-24 0 12 270.27 52.99
0 -24 -12 309.07 52.39
-12 -24 0 284.27 52.19
0 -12 24 343.17 55.89
-24 12 0 281.77 51.09
12 -24 2 181.38 31.4
-24 -12 2 115.69 30.8
-24 -2 -12 161.68 30
2 12 -24 140.69 32.4
-24 12 -2 179.08 29.6
-2 12 24 185.88 34.2
24 12 2 197.88 33.8
2 -12 24 189.38 33.9
-12 -24 -2 179.38 31.9
-24 2 12 160.18 34.7
12 2 24 161.58 32.1
-2 -12 -24 112.89 33.7
-2 -24 12 177.88 33.2
-12 -2 24 160.38 32.3
-12 2 -24 173.58 32.9
-24 -2 -12 176.88 31.3
24 2 -12 221.18 34.6
-12 -24 -2 166.48 32.3
2 -24 -12 128.39 34.3
-2 -12 24 164.68 34.4
-2 -24 -12 106.49 37
2 24 -12 215.88 33.9
2 -12 -24 198.88 36.3
-2 12 -24 212.28 34.8
-24 12 2 173.58 32.4
-12 -2 -24 229.98 35.6
-24 -12 -2 157.38 32.6
24 -2 -12 187.58 32.7
-12 -24 2 117.99 30.4
12 2 -24 155.18 33.5
12 -24 -2 166.28 31.7
2 -24 12 227.98 34.8
-24 -2 12 202.38 35.8
2 12 24 169.28 32.7
-24 2 -12 176.78 28.4
24 12 -2 137.79 32.2
-12 -24 -4 7.9 7
-4 -24 12 9.6 10
-24 -12 4 3.6 7.1
-24 -4 -12 6.9 6.3
-12 -4 24 -1.8 10.1
-12 4 -24 10.7 8.2
24 4 -12 -0.7 10.2
12 -4 -24 -2.1 9.8
4 -12 24 2.3 9.4
12 4 24 -4.4 7.1
4 12 -24 10.4 10.8
4 -24 -12 12.8 11
-4 -12 -24 2.3 11.4
-24 4 12 3.7 10.3
-12 -24 -4 1.7 7.6
-4 12 24 -1.1 9.1
24 12 -4 -11.1 7.4
4 -24 12 -1 7.6
-24 -4 12 3.9 10.1
-4 24 12 2.2 8.9
4 -12 -24 -11.4 10.7
-4 -24 -12 -2.7 6.6
-12 -24 4 8.4 9.4
-24 -12 -4 8.7 8.6
-4 -12 24 -9.5 9.9
-4 12 -24 12 8.5
4 12 24 1.9 9.9
-4 -24 -12 -1.3 7
12 4 -24 -5.4 8.3
-12 -4 -24 2.2 10.6
4 24 -12 9.8 9.8
12 -24 -4 -1 9.6
12 -24 -4 6.2 8.4
24 -4 -12 11 11.9
-12 4 24 -3.2 6.4
-24 6 12 11.5 12.4
-24 -12 6 11.9 10.9
-12 -24 -6 13.9 7.6
-12 -24 -6 9.1 11.4
-6 -12 -24 6.1 13.3
12 -6 -24 10.7 9.4
6 12 -24 12.4 9.9
-24 -6 -12 13.5 10.3
-12 -6 24 -1.8 10.5
12 6 24 7.2 10
-24 -6 -12 11.1 8.7
-12 6 -24 5.4 6
-6 12 24 4.2 8.9
6 -24 -12 2.1 9.8
24 6 -12 13.9 10.2
-12 24 6 5.2 9.6
12 24 -6 11 10
-6 -24 12 18.2 11.1
6 -12 -24 13.8 13.3
-24 -6 12 8.7 11.6
-12 -24 6 8.1 9.3
-6 -12 24 9.7 13
12 6 -24 4.9 7.8
-24 -12 -6 11.3 11.3
24 12 -6 7.4 9.9
-6 -24 -12 9.7 12
-6 12 -24 18.6 9.5
6 24 -12 11.3 10
24 -6 -12 27 14.4
-24 -12 -6 14 10.5
6 -24 12 18.5 8.4
6 12 24 5.1 10.2
-6 24 12 9.3 9.9
-12 6 24 -0.6 7.2
-12 -6 -24 5.7 11.2
-6 -24 -12 13.2 8.5
12 -24 -6 20.2 13.8
-24 12 6 13.7 12.1
-12 -8 24 158.38 29.1
-8 -24 12 156.98 28.2
8 -24 -12 112.29 30.3
8 12 -24 71.09 24.4
-24 -8 -12 117.59 24.7
12 8 24 98.39 25.1
-24 -12 8 129.99 24.6
-24 8 12 73.99 26.2
-12 -24 -8 89.69 25.3
12 -8 -24 165.18 27.2
24 8 -12 136.59 26.7
-24 -8 -12 130.29 26.3
-8 -12 -24 161.18 31.7
12 24 -8 100.59 23.8
-12 24 8 99.39 25.2
-12 -24 -8 63.09 22.1
24 12 -8 125.99 26
-8 12 -24 130.89 23
-12 -8 -24 156.58 30.7
-24 -12 -8 90.39 25.2
-24 -8 12 140.09 26.3
-12 -24 8 120.39 24.9
-24 12 8 139.39 28.2
8 12 24 120.79 25.1
24 -8 -12 116.79 27.1
-8 -24 -12 110.29 25
-24 -12 -8 81.29 24.5
-8 24 12 114.89 25.6
8 -12 -24 94.09 26.8
-8 -12 24 97.69 27.4
8 24 -12 120.09 25.8
12 -24 -8 115.19 29.2
10 12 -24 402.66 57.19
-12 -24 -10 347.87 55.39
12 -10 -24 271.77 53.59
24 -12 -10 256.07 53.99
-24 -12 10 385.76 57.09
-24 10 12 363.06 58.39
24 10 -12 353.86 54.69
10 -24 -12 279.07 56.69
12 24 -10 340.57 53.69
-12 -24 -10 304.37 53.39
-24 -10 -12 352.66 56.69
-12 24 10 287.27 54.59
-10 -24 12 268.27 54.29
-24 -10 -12 339.37 54.79
-12 -10 -24 404.36 60.09
-12 10 24 260.77 53.59
12 -24 -10 225.38 55.89
-24 -10 12 381.36 56.59
-10 -24 -12 376.36 55.79
12 10 -24 378.16 56.39
-10 -12 24 350.86 56.59
-24 -12 -10 275.17 53.99
-10 24 12 348.97 55.89
24 12 -10 337.67 54.09
-24 -12 -10 383.16 56.79
-12 -24 10 400.76 56.59
10 12 24 238.98 53.89
24 -10 -12 326.57 55.59
-24 12 10 359.26 57.79
-12 -12 -24 428.06 59.59
-24 -12 -12 360.96 55.39
-24 12 12 255.07 54.09
-12 -12 24 317.77 55.39
-12 12 24 342.07 54.19
-12 -24 12 336.77 54.49
-12 -24 -12 332.47 52.49
-12 -24 -12 339.27 54.39
-12 24 12 221.88 51.99
24 -12 -12 286.77 53.99
24 12 -12 292.57 52.89
12 -24 -12 320.67 57.09
-24 -12 -12 320.37 53.89
24 14 0 123.79 22.9
-14 -24 0 58.59 20.9
0 -14 -24 88.69 25.6
0 14 24 105.79 23.7
14 -24 0 95.29 20.6
14 0 -24 63.19 21
-24 -14 0 100.59 23.4
-24 14 0 98.09 22.3
-14 0 -24 89.89 23.6
0 -14 24 103.99 25.2
0 -24 -14 131.49 27.5
0 -24 14 84.59 23
0 24 -14 63.59 21.4
-24 0 14 115.49 25.8
0 14 -24 146.09 25.6
24 0 -14 112.29 26
14 -2 -24 25.7 12.4
-14 -24 -2 14 9.8
24 2 -14 20.6 11.8
-24 2 14 9.6 12.5
-14 -24 -2 7.5 8.6
2 -24 -14 -0.1 12.3
-14 2 -24 14.1 10
-24 -14 2 12.6 9.9
-24 -2 -14 2.9 8.5
2 -14 24 6.8 11.5
-24 -2 -14 22.7 9
2 14 -24 18.4 12.6
-2 -24 14 7 9.2
-2 -14 -24 11.1 13.3
-14 -2 24 6 8.8
24 14 2 22 12.6
-2 14 24 18.3 11.5
-14 -24 2 12.3 8.8
-2 -14 24 13.3 13.3
14 -24 -2 10 7.9
-24 -14 -2 14.6 9.9
-14 -24 2 9.3 8.3
-24 -2 14 5 11.4
-2 -24 -14 3.6 13
-14 2 24 18.9 12.6
2 14 24 12.6 10.1
-2 14 -24 19.5 10.6
-24 14 2 13.8 10.4
14 2 -24 11.6 8.9
2 24 -14 0.6 8.6
-2 -24 -14 5.9 8.8
2 -14 -24 8.2 13.3
2 -24 14 15.8 10.5
-14 -2 -24 17.6 13.1
24 14 -2 10.3 9.6
-2 24 14 17.4 9.1
24 -2 -14 15.8 12.3
-24 -14 4 85.89 19.6
-4 14 24 45.1 16.8
-24 4 14 97.39 24.5
-4 -14 -24 90.39 24.8
-4 -24 14 78.29 20.7
24 4 -14 88.89 22.5
-24 -4 -14 76.89 19.9
4 14 -24 58.89 20.5
-14 -24 -4 105.79 19.7
-24 -4 -14 104.09 19.2
14 -4 -24 66.89 18.9
-14 -24 -4 33.3 16.5
4 -24 -14 116.69 25
-14 -4 24 41.3 18.1
4 -14 -24 59.69 21.3
-24 -4 14 41.4 18.7
-4 -24 -14 57.89 17.2
-24 14 4 66.59 19.7
4 -24 14 71.49 19.4
-14 4 24 92.99 19.8
-4 -24 -14 68.29 21.3
-4 -14 24 80.19 23.5
4 24 -14 47.8 17.8
-14 -24 4 86.59 20.8
-24 -14 -4 93.09 20.4
-4 24 14 53.19 18
-14 -4 -24 61.89 20.9
24 14 -4 63.19 19.4
14 4 -24 70.09 20.5
24 -4 -14 78.89 21.4
4 14 24 81.69 21.4
-6 14 24 50.09 18.5
-14 -24 -6 83.59 17
6 14 -24 49.9 18.6
-6 -14 -24 50.39 20.5
-24 -6 -14 51.59 16.6
-14 24 6 89.09 21.6
-24 -6 -14 62.19 19.5
-14 -24 -6 51.49 18.8
-24 -14 6 106.49 22.1
-14 -6 24 26.1 17.1
14 24 -6 28 14.9
-6 -24 14 87.49 21.6
24 6 -14 66.39 19.3
14 -6 -24 75.39 19.8
-24 6 14 48.2 19
6 -24 -14 61.39 22.8
-6 -24 -14 78.19 18.5
-14 -24 6 58.19 17.6
-14 6 24 79.49 21.3
-6 14 -24 73.69 16.9
6 24 -14 60.59 18.8
-24 -6 14 24.7 16.5
14 6 -24 78.29 20.9
-6 -24 -14 99.59 22.2
-6 24 14 66.19 18.2
-24 -14 -6 111.99 22.4
6 -14 -24 84.09 22.2
-6 -14 24 59.79 21.1
6 14 24 63.89 19.1
-14 -6 -24 56.09 20.8
-24 14 6 45.6 18.1
24 -6 -14 73.49 20.8
-24 -14 -6 48.7 17.2
24 14 -6 67.49 17.5
24 8 -14 -0.6 10.2
-14 -24 -8 1.4 10
-24 -8 -14 -3.3 8.2
14 24 -8 -0.3 6
24 -14 -8 3.4 5.3
-8 14 24 -3.2 9
14 -8 -24 11.5 9.4
8 14 -24 17.1 11.8
-8 -14 -24 -6.5 12.9
8 -24 -14 16.4 15.2
-14 24 8 6.4 9.3
-24 -14 8 3 6.5
-14 -24 -8 6 6.5
-14 -8 24 -5.9 8.7
-24 8 14 -7.7 6.2
-24 -8 -14 -2.5 5.5
-8 -24 14 8.2 8.8
-24 -8 14 -2.8 9.3
-14 8 24 9 10.8
8 14 24 -6.3 9.4
-8 24 14 9.8 9.4
8 24 -14 7.2 9.5
8 -14 -24 -2.1 11.3
-14 -8 -24 0.3 12.5
14 -24 -8 -5.3 12.3
24 14 -8 -7.8 5.6
-14 -8 -24 7.1 8.3
-14 -24 8 12.2 9.6
-24 -14 -8 -1.5 8
-8 -14 24 -2.4 11
14 8 -24 0.6 6.5
-8 -24 -14 -2.4 6.5
24 -8 -14 8.8 8.7
-24 -14 -8 0.1 8
-8 -24 -14 -7.5 6.8
-24 -14 10 61.09 17.8
-14 24 10 51.39 18.4
-10 14 24 18.2 15
14 24 -10 74.39 19
-14 -24 -10 61.39 17.9
-24 -10 -14 65.29 19.7
-10 -14 -24 68.39 23.5
-24 10 14 28.7 17.2
-14 -10 24 64.89 19.9
14 -10 -24 48.9 18.2
10 -24 -14 36 19.6
24 10 -14 57.49 17.5
-10 -24 14 63.59 19.1
-14 -24 -10 28.3 13.9
-10 -24 -14 67.49 17.8
-10 -24 -14 67.19 18.7
-24 14 10 56.49 20.3
-14 10 24 53.79 18.7
14 10 -24 32.9 14.8
-24 -14 -10 92.39 19.8
-24 -10 14 43.4 17.1
-10 -14 24 52.99 20
24 14 -10 36.3 16
24 -10 -14 49.3 18.8
-14 -10 -24 86.09 25.8
14 -24 -10 64.19 22.6
10 14 24 67.59 19.5
10 24 -14 96.79 21.8
-14 -10 -24 64.19 18.1
-14 -24 10 78.19 19.3
-24 -14 -10 24.9 15.8
10 -14 -24 73.59 21.7
12 -24 -14 48 21.8
24 12 -14 50.99 18.4
24 -14 -12 64.19 20
12 14 -24 79.99 21.9
-12 -14 -24 47.6 22.2
-14 -24 -12 80.19 17.8
-24 -14 12 46.4 17.9
14 24 -12 63.49 18.3
-12 -24 14 86.79 19.5
-14 24 12 81.09 22.6
-12 -14 -24 61.39 18.7
14 -12 -24 67.09 22.8
-24 12 14 74.39 23.4
-14 -24 -12 96.39 20.8
-14 -12 24 37.5 18.4
-12 14 24 73.99 21.7
-24 -12 -14 114.09 25.1
-14 -24 12 52.79 17.8
-24 14 12 72.39 22.5
24 -12 -14 76.19 22.2
-14 -12 -24 48.6 17.5
-24 -12 14 52.69 18.4
24 14 -12 87.09 19
-24 -14 -12 104.09 23.7
14 -24 -12 68.79 23.8
12 -14 -24 66.09 22.6
-12 -24 -14 80.39 20.3
-14 12 24 75.89 21.3
-12 -24 -14 72.29 21.6
-12 -14 24 37.4 18.1
12 24 -14 66.79 19.6
-12 24 14 61.79 19.3
14 12 -24 58.69 19.5
-24 -14 -12 81.79 21.3
-14 -12 -24 65.99 23
-24 -14 -14 3.9 9.9
24 -14 -14 21.7 12
-14 -14 24 6.8 12.7
-14 -24 -14 3.6 8.5
-14 14 24 -2.3 9.4
-24 14 14 6.9 10.9
-14 -24 -14 2.7 6
-14 -14 -24 -5.7 5.3
-14 -24 14 11.3 7.4
-14 -14 -24 -9.9 10.8
14 24 -14 5.7 7.9
14 -24 -14 -17.2 10.8
-24 -14 -14 3.9 7.7
-14 24 14 10.1 10.7
14 14 -24 3.5 11.2
14 -14 -24 0 8.5
0 -16 -24 5.6 10.1
0 -16 24 2.5 11.7
-24 0 16 11.9 12
0 -24 -16 -2.9 11.2
-16 -24 0 0.3 8
-24 -16 0 -2.2 5.8
0 24 16 3.5 6.2
16 0 -24 16.4 11.5
24 0 -16 16.4 11.6
24 16 0 0 10.2
0 -24 16 10.4 8.9
-16 -24 0 7.7 9.8
-16 0 24 3.9 10.2
0 24 -16 19.8 10.7
0 16 24 7.9 8.3
-2 -24 16 -3.9 7.7
-16 -2 24 7.1 11.6
2 -24 -16 6 13.3
24 2 -16 -2.9 8.8
-2 -16 -24 2 12.6
-2 16 24 9.3 10.1
-24 -16 2 8.3 7.7
16 -2 -24 3 9.1
2 -16 24 5.9 10.6
-16 -24 -2 1.2 7.9
-16 -24 -2 0 6.7
-24 2 16 7.8 8.9
2 16 -24 13.2 11.3
-16 -2 -24 5.4 9.6
-2 16 -24 16.4 10.3
24 16 -2 2.1 10.1
-24 -16 -2 9.3 7.1
2 24 -16 12.6 10.9
24 -2 -16 9 9.8
16 2 -24 8.3 10.7
2 16 24 -4.4 8.3
-2 -16 24 9.2 12.2
2 -16 -24 -10.7 10.1
-16 -2 -24 -1.7 6.7
-2 24 16 7.1 9.5
-2 -24 -16 -0.2 12.1
2 -24 16 18.5 10.4
16 -24 -2 5.6 7.5
-24 -2 16 15.3 10
-16 -24 2 12.6 8.1
-16 -24 2 7.9 9.7
-16 2 24 0.3 9.7
16 -4 -24 159.18 33.4
24 4 -16 147.49 34.1
-24 4 16 208.08 37.9
4 -24 -16 216.28 37.6
4 16 -24 216.98 36.4
-24 -16 4 190.08 35.6
-4 -16 -24 128.49 36
-4 -24 16 203.18 36.8
-16 -24 -4 210.58 34.2
-16 -4 24 196.18 36.5
-16 -24 4 194.28 34.9
-4 -16 24 181.08 37.8
-4 16 -24 204.58 34.4
24 -4 -16 200.78 36.1
24 16 -4 130.09 33.6
-24 16 4 217.98 39.2
-4 -24 -16 132.89 34.2
-16 -4 -24 170.28 33.5
-24 -4 16 201.08 37.3
4 16 24 227.38 37.1
-4 24 16 209.48 35.4
4 24 -16 284.97 38.9
-24 -16 -4 123.29 32.6
-16 -4 -24 221.18 38.6
-16 -6 24 145.29 34.1
16 -6 -24 142.59 32
-16 -24 -6 232.78 34.4
6 -24 -16 128.39 35.7
-24 -6 -16 175.58 36.5
-6 -16 -24 253.37 38
-6 16 24 110.19 32
-24 -16 6 238.98 35.1
-24 6 16 140.19 34.9
-16 -24 -6 108.09 32.3
6 16 -24 116.79 32.8
16 24 -6 141.39 31.7
-6 -24 16 190.88 35.4
-24 -6 -16 192.78 35.7
-16 -6 -24 186.68 37.1
16 6 -24 129.09 32.4
-16 -6 -24 223.38 34.3
-6 -16 24 237.98 39.5
-24 16 6 206.78 36.1
24 16 -6 171.08 32.8
-24 -16 -6 164.18 34
-24 -16 -6 184.48 33.4
24 -6 -16 212.08 36.1
-16 6 24 231.48 37.4
-6 -24 -16 227.38 33.8
6 -16 -24 181.38 36.3
-16 -24 6 151.28 32.4
6 24 -16 244.28 36.6
-24 -8 -16 36.2 13.1
-8 -16 -24 60.79 19.9
-8 16 24 16.2 11.6
-8 -24 16 30.4 13.6
-16 -24 -8 19.1 11.9
-16 -24 -8 50.69 16.7
-24 -16 8 16.3 11.5
24 8 -16 52.99 16
16 -8 -24 17.9 12.6
-16 -8 24 21.9 14.5
8 16 -24 43.2 15.5
-24 -8 -16 40.6 16.6
8 -24 -16 32.1 17.3
-24 8 16 33.3 15.8
24 16 -8 18.5 11.7
8 24 -16 77.39 19.6
16 -24 -8 60.59 20.2
24 -8 -16 41 15.3
8 16 24 30.2 13.5
-8 -16 24 19.7 15.8
-8 24 16 54.69 16.2
-16 -8 -24 26 17.2
-24 -8 16 39.5 16.6
16 8 -24 28.2 13.3
-8 -24 -16 64.59 19.5
-24 -16 -8 37.7 15.7
-24 -16 -8 59.99 15.8
-24 16 8 46.4 16.3
8 -16 -24 48.3 18.8
-8 -24 -16 46.3 14.9
-16 8 24 30.7 15.9
-16 -8 -24 34.3 12.8
-16 -24 8 28.5 12.5
-10 -24 16 8.5 9.9
16 -10 -24 13.6 12.3
-10 16 24 -10.3 7.9
-16 -10 24 7.7 8.7
-24 -10 -16 5.6 6.7
-24 -16 10 13.7 9.2
24 -16 -10 6.2 6.6
24 10 -16 12.5 11.5
10 16 -24 0 10
10 -24 -16 17 13.6
-16 24 10 8.4 10.2
-16 -24 -10 5 8.2
-16 -24 -10 0.7 9.2
-24 10 16 3.9 10.9
-24 -10 -16 30.1 14
16 24 -10 11.7 9.3
-10 -16 -24 16.7 14.6
-24 16 10 10.2 12.5
16 10 -24 23.8 12.1
-24 -16 -10 4.5 10.5
10 -16 -24 7.9 14.5
-24 -10 16 4.5 10.8
-10 -24 -16 13.3 13.5
-16 10 24 0.4 10.8
10 24 -16 23.1 12
-10 -16 24 -5.7 11.9
-16 -24 10 15.5 9.4
-10 24 16 10.8 10.7
24 16 -10 13.1 11.4
16 -24 -10 25.1 20.9
-24 -16 -10 18.4 9.6
-16 -10 -24 12.5 9
24 -10 -16 20.5 12.8
-16 24 12 -4.2 8
-12 -24 16 1.6 8
24 -16 -12 11.9 10.6
-16 -24 -12 7.4 10.3
-12 -16 -24 -2.4 12.5
12 -24 -16 -9.5 9.4
-24 -12 -16 -1.6 10.6
-24 -12 -16 11.5 8.3
-24 12 16 -7.3 10.9
12 16 -24 6.7 10.6
-12 -16 -24 -3.9 7
-16 -12 24 -7.8 9.7
16 24 -12 16 10.6
16 -12 -24 -0.6 10.7
-16 -24 -12 7.5 8.2
-24 -16 -12 33 10.5
-12 -24 -16 4.8 7.1
12 -16 -24 -5.3 14
-24 -16 -12 0.6 10.2
-16 -24 12 9.5 9.9
-12 -16 24 3.9 9.8
24 16 -12 9.5 11.9
-16 -12 -24 -8.7 12.3
-12 24 16 3 9.1
-24 16 12 -1.1 8.9
16 -24 -12 6 14
-12 -24 -16 -2.9 11.4
16 12 -24 4.4 10.9
24 -12 -16 23.3 10.7
-14 -16 -24 10.7 9.9
-16 24 14 12.4 12.7
24 -16 -14 46.2 16.4
-24 -14 -16 23.5 15.5
-14 -16 -24 18.4 17.2
14 16 -24 37.2 13.6
-24 14 16 3.8 12.9
14 -24 -16 31.4 18.6
-24 -14 -16 20.9 11
16 -24 -14 31 18
24 -14 -16 30.7 14.1
-14 24 16 26.7 14.4
-24 16 14 10.6 13.2
-16 -14 -24 18.9 15.6
-16 -14 -24 28 13.4
-24 -16 -14 16 13.3
14 24 -16 39.5 14.6
-24 -16 -14 26.9 11.5
-16 -16 -24 98.79 31
-24 16 16 100.49 28.8
-16 -16 -24 108.19 24.1
-24 -16 -16 118.79 24.1
16 -24 -16 85.39 29.8
-16 24 16 118.49 29.7
24 -16 -16 106.89 27.9
24 0 -18 10.4 10
18 0 -24 14.9 11.5
0 -18 24 26.9 14.1
0 18 -24 32.4 13
-18 0 24 32.1 14.5
-18 -24 0 8.8 9.1
-18 -24 0 38.6 13.5
0 -18 -24 29.9 16.5
0 -24 -18 18.2 12.1
0 -24 18 16.8 11.2
-24 -18 0 16.3 9.1
0 18 24 11.1 12.9
0 24 18 17.4 11.4
24 18 0 17.2 11
0 24 -18 44.3 13.8
-24 0 18 34.3 14.4
-2 24 -18 -2.3 6.7
-2 18 24 -5.3 7.7
18 -2 -24 -4.4 6.2
-2 -18 -24 4 11.2
-18 -24 -2 1.4 5.9
24 2 -18 -1.1 9.7
-24 2 18 -5 6
-24 -18 2 10.6 8.1
-18 -2 24 -6.2 5.5
2 -24 -18 -0.9 11.6
-18 -24 -2 -0.3 9
2 18 -24 7.6 9.3
-2 -24 18 2.1 7.9
24 18 -2 -2.2 9.3
-18 -24 2 7.6 8.3
-24 -2 18 -10.3 8.8
-24 -18 -2 3.1 5.8
-18 2 24 -3.3 9.4
2 18 24 1.5 9
-2 -18 24 5.6 11.1
-2 -24 -18 -3.9 11.6
24 -2 -18 4.4 10.5
18 2 -24 6.7 10.1
2 -18 -24 -0.1 12.4
-2 18 -24 10.2 10.1
-18 -24 -4 62.69 20.2
-4 18 24 47.5 19.1
-24 -18 4 125.39 23.9
-24 4 18 105.39 23.4
24 4 -18 74.29 23.1
-18 -24 -4 126.69 21.9
18 -4 -24 104.19 22.5
4 -24 -18 53.59 21.3
-18 -4 24 71.69 21.3
-4 -18 -24 62.59 22.5
18 24 -4 83.29 21.3
-18 -24 4 111.09 21
-18 4 24 108.39 25.9
24 -4 -18 82.79 23.5
-24 -18 -4 108.89 22.1
4 24 -18 135.09 25.6
-4 24 18 117.99 22.1
-4 -24 -18 142.19 29.6
-4 -24 -18 113.39 20.6
-24 -18 -4 42.4 20.2
4 18 24 63.59 20.7
24 18 -4 106.69 21.4
-24 -4 18 64.89 21.9
4 -18 -24 79.19 22.6
-18 -6 24 59.19 20.5
-24 -18 6 76.29 21
6 -24 -18 82.09 24.4
-18 -24 -6 59.39 18.1
24 6 -18 119.29 24.8
18 -6 -24 140.59 25.2
-6 -18 -24 62.69 23.9
-6 18 24 72.59 21.3
-24 6 18 65.89 24.3
-6 -24 18 111.39 24.7
6 18 -24 84.19 22.7
-18 24 6 74.09 26.2
6 -18 -24 43.3 19.1
-6 -18 24 132.99 29.1
-6 -24 -18 77.99 17.9
-6 -24 -18 51.09 21.3
-6 24 18 55.39 19.7
24 -6 -18 127.09 25.8
-18 -24 6 63.69 20.2
6 18 24 59.19 20.2
6 24 -18 129.89 24.7
-24 -18 -6 103.79 24.7
-24 -18 -6 127.69 24.4
18 6 -24 98.09 23.5
-24 -6 18 116.99 25.7
-18 6 24 90.39 23.2
24 18 -6 64.59 19.9
-8 -24 18 17.2 11.3
8 -24 -18 8.8 14.4
-18 -24 -8 7.7 12.1
-24 8 18 6 11.5
18 -8 -24 11.9 11
24 8 -18 17.1 12.5
-8 -18 -24 -4.5 9.4
-18 24 8 4.7 10.3
-24 -18 8 22.7 10.1
18 24 -8 4.4 8
-18 -24 -8 18.4 9
8 18 -24 18.9 12.5
-24 -18 -8 12.8 10
-8 -24 -18 5.7 12.9
8 -18 -24 2.6 10.2
-24 -18 -8 10.6 11.2
-24 -8 18 0.7 10.4
8 24 -18 9.7 9.6
24 -8 -18 43.5 16.6
24 18 -8 -4.6 7.8
-18 8 24 -0.9 7.2
-8 -24 -18 11.5 7.9
-8 -18 24 -7.7 12.4
-8 24 18 4.2 6.1
-18 -8 -24 8 14
18 8 -24 11.3 9.8
18 -24 -8 -12.1 10.3
-18 -24 -10 29 13.5
10 18 -24 44.7 15.8
10 -24 -18 29.1 18.5
-24 10 18 13 13.9
18 -10 -24 26.6 14.6
-18 24 10 12.5 11.7
-10 -18 -24 28 12.5
-10 -24 18 46.3 15.2
-18 -10 -24 24.9 18.3
-18 -10 -24 26.7 11.9
-10 -18 24 8.6 14.2
-24 -18 -10 19.8 15.6
10 24 -18 29.4 13.6
-24 -18 -10 31.4 12.4
-10 -24 -18 38.3 20.3
-10 24 18 28.5 14.3
18 -24 -10 18.5 18.4
24 -10 -18 36.1 16.3
-18 24 12 15.3 11.6
12 18 -24 17.9 14
-12 -18 -24 4.1 15
-12 -18 -24 17.9 10.1
-24 12 18 -5.7 10.7
12 -24 -18 27.9 16.1
-12 -24 18 14.4 11.2
-24 18 12 9.5 12.7
24 -12 -18 25.7 12.6
12 24 -18 23.3 12.8
-24 -18 -12 19.9 10.1
-24 -18 -12 21.3 14.2
-12 -18 24 -11.8 11.5
-18 -12 -24 17.2 11.1
18 -24 -12 15.1 16.6
-18 -12 -24 7.8 14.1
-24 14 18 17.9 13.3
-14 -18 -24 -3.4 15.3
-18 24 14 18 12.5
24 -18 -14 34.4 15.5
18 -24 -14 14.8 18.4
-18 -14 -24 19.5 9.8
-24 -18 -14 32.7 16.7
-24 -18 -14 36.2 12.5
-18 -14 -24 5.8 17.1
24 -14 -18 33.2 13.7
-24 18 14 30.6 16.9
20 0 -24 118.49 26.4
0 -24 -20 87.19 27.7
0 -20 -24 76.49 27.9
24 0 -20 186.78 31
-24 0 20 129.59 29.8
-24 -20 0 173.08 28.6
-20 -24 0 152.78 28.8
24 2 -20 106.19 24.6
-20 -24 -2 88.19 20.7
-2 -20 -24 50.49 22.2
2 20 -24 92.59 23.6
-24 -20 2 49.4 18.5
20 -2 -24 87.39 22.8
-24 2 20 48.5 20.9
2 -24 -20 114.19 26.9
24 -2 -20 120.09 26
2 24 -20 95.29 23.9
2 -20 -24 88.79 23.9
20 2 -24 88.59 22.8
-24 -20 -2 129.19 23.6
-2 -24 -20 66.29 23.4
-24 -2 20 108.29 30.5
24 20 -2 86.09 20
4 -24 -20 -3.4 13.7
24 4 -20 10.7 8.9
4 20 -24 8.8 10.2
-20 -24 -4 -4.3 10.4
-4 -24 20 3.3 11.3
-24 4 20 -2.7 7.5
20 -4 -24 4.7 10
-4 -20 -24 -2.8 8.9
4 24 -20 5.9 8.8
24 -4 -20 4 10.6
-4 -20 24 -9 9.5
24 20 -4 -9.5 5.5
-24 -20 -4 4.4 10.4
-24 -20 -4 4.7 8.1
-24 6 20 -0.8 9.1
-6 -20 -24 -11.3 8
-6 -24 20 -0.8 9.1
6 20 -24 18.6 17.5
-6 -20 24 -10.4 9.5
24 -6 -20 18 9.9
-24 -20 -6 10.3 11.5
-24 -20 -6 10 10.5
6 24 -20 6.3 10.9
-8 -24 20 10.2 11.3
8 20 -24 15.5 12.4
-24 -20 -8 4.2 12.6
24 -8 -20 29.8 14.8
-8 -20 24 -5.8 9.9
-24 -20 -8 16 9.5
8 24 -20 28.1 13.3
-10 -24 20 142.49 29.6
10 20 -24 85.89 26.2
10 24 -20 146.89 29.1
-10 -20 24 95.69 28.4
-24 -20 -10 105.59 29.4
4 24 -22 64.59 26.4
6 22 -24 26.3 13.3
-6 -24 22 -13.3 11.1
6 24 -22 14.6 9.9
-25 -1 1 437.46 79.49
-25 -1 -1 469.45 79.29
1 -1 25 531.45 81.69
1 1 -25 513.05 80.69
1 1 25 392.36 80.19
1 -25 1 538.65 81.89
1 -25 1 399.66 78.19
-1 -25 1 523.85 79.79
-1 -1 25 597.64 83.09
-1 1 -25 653.03 82.19
1 -25 -1 451.55 79.89
1 -25 -1 525.55 79.69
-25 1 1 570.94 81.19
-1 -25 -1 461.75 79.89
-1 -25 -1 575.94 80.59
-1 -25 1 542.05 81.89
-25 1 -1 536.15 80.09
-3 1 -25 -2.7 9.8
-3 -1 25 3.5 9.7
3 -25 1 -0.7 10.4
1 -25 -3 7.9 12.6
1 -25 -3 -4.7 7.7
-1 3 25 -1.9 8.1
3 -1 -25 -0.7 10.2
-25 -3 1 4 9.4
-25 3 -1 -1.7 8.9
25 1 -3 10.7 9.3
3 1 25 0.3 8.5
-3 -25 -1 -1 11.9
-3 -25 -1 -5.3 7
1 3 -25 -0.4 12.6
-1 -3 -25 -5.3 10.8
3 -25 1 -5 7
-25 1 3 -9.4 10.2
1 -3 25 -2.8 9.1
25 3 1 10.9 9.1
-25 -1 -3 -2 8.8
1 -25 3 -2.3 9.6
-3 -25 1 -3.2 7.4
3 -1 25 -0.5 10
3 1 -25 -2.3 6.4
-25 -1 3 0.8 10.1
-25 1 -3 -2.1 8.8
-3 1 25 -1.4 10.9
-3 -1 -25 7.9 11.5
-3 -25 1 -6 6.5
-1 -25 -3 -0.6 11.3
1 -25 3 -0.1 6.9
3 -25 -1 4.6 12.3
25 3 -1 -6.8 7.2
25 -1 -3 4.7 6.4
-25 -3 -1 9.9 9.9
-25 3 1 -1.1 10.2
-1 -3 25 5.9 11.5
-1 3 -25 4.5 10.5
-1 -25 -3 -0.1 6.6
1 3 25 6 10.7
1 -3 -25 7.2 11.8
3 -25 -1 2.6 8.2
-25 -3 -3 171.28 30.6
-25 -3 3 176.98 32.4
-25 3 -3 144.99 30.3
-25 3 3 151.38 31.9
-3 -25 -3 130.69 31.8
-3 -25 -3 102.89 28.5
-3 -25 3 140.19 31.7
-3 -25 3 176.78 31.3
-3 -3 25 197.88 34.3
-3 3 -25 209.08 33.2
-3 3 25 116.99 31.6
3 -25 -3 143.99 32.5
3 -25 -3 157.58 40.3
3 -25 3 153.38 32.2
3 -25 3 169.48 30.6
3 -3 -25 123.39 29.4
3 -3 25 159.18 32.1
3 3 25 166.48 32.8
25 3 -3 181.78 31.5
-25 -5 1 21 11.6
-25 5 -1 26 12.8
-5 -25 -1 22.1 14.2
-5 -1 25 12.3 10.3
-5 1 -25 20.1 13.2
-1 -25 5 31.5 15.1
-1 -25 5 21.2 11.1
1 -25 -5 26.6 13.5
1 -25 -5 29.5 13.3
5 -1 -25 34.1 15.4
5 1 25 38 14.5
25 5 1 18.1 13.3
-25 1 5 20.9 13.1
-5 -25 -1 11.9 8.8
1 -5 25 16.5 12.6
1 5 -25 27.3 13.7
-1 -5 -25 39.2 16.5
5 -25 1 44.3 16.8
-1 5 25 23.3 13.8
5 -25 1 32.5 12.9
-25 -1 -5 38 13.3
25 1 -5 24.9 12.2
-1 5 -25 26.4 12.7
-5 -25 1 15.5 10.9
-1 -25 -5 17.5 10.2
-1 -5 25 20.4 12.7
5 -25 -1 31 12.8
-25 5 1 28.3 13.8
25 5 -1 22.1 12.1
-5 1 25 36.9 16.1
-1 -25 -5 12.5 13.5
1 -25 5 18.4 14.7
-5 -25 1 20.4 11.8
1 5 25 19.7 13
5 -25 -1 41.5 15.8
-25 -1 5 16.6 13.2
-25 1 -5 40.8 14.2
25 -1 -5 19.3 12.5
-5 -1 -25 27.4 14.6
-25 -5 -1 11.3 10.8
1 -25 5 26.3 11.3
5 -1 25 22.5 12.9
5 1 -25 32.2 13.6
1 -5 -25 28.1 15.9
5 -25 3 231.98 47.2
25 3 -5 237.48 47.8
-25 3 5 301.07 50.39
-5 -25 -3 313.97 50.49
-25 5 -3 360.66 52.39
5 -3 -25 207.88 48.4
-5 -25 -3 330.27 48.6
-5 -3 25 351.86 52.59
-5 3 -25 320.07 49.7
3 -25 -5 331.47 51.99
3 -25 -5 247.98 47.7
5 3 25 266.77 49.3
-3 -25 5 274.57 48.9
-3 -25 5 230.78 47.3
-25 -3 -5 268.67 47.8
-3 5 25 397.46 52.99
-25 -5 3 219.48 48.1
3 -5 25 286.37 49.6
25 5 -3 248.48 47.9
-3 -5 25 297.47 51.29
5 -3 25 215.18 47.6
-3 5 -25 321.27 49.6
-5 3 25 329.07 51.59
-25 -3 5 288.97 50.09
5 3 -25 330.17 49.3
-5 -25 3 278.77 49.7
-5 -25 3 307.97 48.1
3 -5 -25 320.17 49.7
-25 5 3 248.58 48.6
3 5 25 346.37 54.99
5 -25 -3 330.07 52.09
5 -25 -3 250.97 47.9
3 -25 5 234.98 46.6
-3 -25 -5 359.56 49.7
-25 -5 -3 312.17 49.4
5 5 25 536.65 71.99
5 -25 5 445.76 68.49
-5 -25 -5 445.86 69.39
-5 -25 5 422.76 69.89
-5 -25 5 334.27 67.59
-25 -5 -5 482.55 69.89
5 -5 -25 536.35 71.89
5 -5 25 447.36 70.29
-25 5 5 459.15 70.79
5 -25 -5 407.26 68.39
-5 -5 25 360.56 70.09
-5 5 -25 504.05 70.39
-5 5 25 501.75 72.39
-5 -25 -5 349.87 68.29
5 -25 -5 412.36 71.29
-25 -5 5 374.56 74.69
25 5 -5 372.96 68.69
-25 5 -5 475.95 67.09
25 1 -7 32.6 14.3
-25 -1 -7 24.6 11.2
7 1 25 27.4 13.5
-7 -25 -1 23.6 12.7
-25 -1 -7 41 12.4
-1 7 25 15.1 13.6
7 -1 -25 5.9 9.5
1 -7 25 21.3 13.3
-25 1 7 34.8 15.6
-1 -7 -25 35.4 17
-7 1 -25 18.4 13.5
1 -25 -7 36.9 12.4
-25 -7 1 15.8 11.5
25 7 1 22.6 13
1 7 -25 37.9 14.8
1 -25 -7 27.7 15.2
-1 -25 7 40 15.7
7 -25 1 28 12.4
-7 -25 -1 37.2 14.3
-7 -1 25 53.09 18
-1 -25 7 26.4 12.1
1 7 25 8.3 10
-1 -25 -7 32.2 13.3
1 -25 7 23.9 11.5
-25 7 1 26.7 13.4
7 -1 25 31.4 13.9
7 1 -25 17.4 12.3
-1 -25 -7 12.9 13.6
7 -25 -1 33.2 13.2
-25 1 -7 10.1 14.5
25 7 -1 31 13.9
25 -1 -7 39.6 14.7
-1 -7 25 27.7 14.7
-7 1 25 43.3 16.4
7 -25 -1 38.7 17.2
1 -25 7 35.3 14.6
-7 -25 1 16 12.1
-25 -7 -1 16.7 11.4
-7 -1 -25 41.9 16.8
-25 -1 7 16.7 12.8
1 -7 -25 26.9 13.8
-7 -25 1 19.3 11.6
-1 7 -25 33 13.3
-3 -25 7 87.69 23.7
-25 -3 -7 106.79 21.7
-25 7 -3 73.69 19.2
-3 -25 7 102.59 22.8
-3 7 25 44.5 19
-25 -3 -7 94.29 21.1
-25 3 7 95.99 24.4
7 3 25 74.69 22.1
3 -25 -7 84.79 24.4
25 7 3 93.19 22.4
-7 -25 -3 53.09 21
-7 -25 -3 104.89 22.2
25 3 -7 70.09 21.1
-3 -7 -25 120.19 24.3
7 -25 3 89.99 20.9
3 -7 25 84.59 23
3 7 -25 143.59 25.7
-7 -3 25 110.49 23.4
-7 3 -25 128.99 24.7
3 -25 -7 111.49 22.1
-25 -7 -3 60.49 19.9
-3 -25 -7 77.99 19.4
3 -25 7 92.89 21.4
-7 -25 3 83.19 21.9
-7 -25 3 77.09 20.7
-7 -3 -25 117.09 26.4
3 7 25 114.69 22.7
7 -25 -3 80.99 24.6
-7 3 25 73.49 21.9
7 3 -25 121.79 25.4
25 7 -3 115.69 23.7
-3 -7 25 91.09 24.7
-3 7 -25 63.99 20.4
-3 -25 -7 110.39 25.6
7 -3 25 74.59 21.7
-25 -3 7 74.89 26.5
-25 3 -7 104.79 20.6
-25 7 3 80.59 22.2
7 -25 -3 78.09 21.5
3 -7 -25 107.59 25.3
-25 3 -7 75.09 17.8
25 -3 -7 94.09 23.4
-25 -5 -7 180.08 40.7
-25 7 -5 247.98 38.5
7 -5 -25 269.47 44.4
-7 -25 -5 280.27 44.5
-7 -25 -5 275.47 42.2
-7 5 -25 262.37 42.2
-5 7 25 178.98 42.5
5 -25 -7 230.38 45.6
5 -7 25 307.77 44.5
-25 5 7 223.18 43.9
7 -25 5 246.18 41.4
25 5 -7 228.18 42.9
-5 -25 7 339.27 46.5
5 -25 -7 216.98 41.6
7 5 25 248.68 43.8
-25 -5 -7 308.67 44
-25 -7 5 316.17 46.2
-5 -25 7 209.98 42.2
-7 -25 5 246.38 43.4
-25 5 -7 258.47 38.7
5 -7 -25 224.98 43.8
5 -25 7 256.37 42.3
-25 -5 7 183.68 42.4
7 -5 25 222.18 41.7
7 -25 -5 217.68 41.1
25 7 -5 279.27 43.9
25 -5 -7 240.38 42.4
-7 -25 5 260.47 43.1
-25 7 5 266.37 44.6
-7 -5 -25 265.17 45.8
-5 7 -25 280.37 42.8
-7 5 25 172.28 41.2
7 -25 -5 292.17 47.2
-5 -7 25 200.08 43.9
-5 -25 -7 163.98 42
-5 -25 -7 246.68 41.4
5 7 25 202.28 42.7
-25 -7 -5 271.87 43.6
-25 5 -7 210.38 37.4
7 -25 -7 108.79 28.2
-25 7 -7 110.99 16.1
-7 -7 -25 87.39 25.8
-7 -25 -7 60.29 22.4
25 7 -7 102.89 24
-25 -7 7 99.09 25.4
7 -25 -7 83.99 21.8
7 -25 7 96.39 28.2
-7 -7 25 64.19 23.5
-25 -7 -7 103.19 23.8
-25 7 7 94.39 25.4
-25 7 -7 109.79 16.9
-25 -7 -7 122.99 24.2
-7 7 -25 95.69 23.1
-7 7 25 73.19 23.5
7 -7 25 75.99 22
7 7 25 130.49 26.8
-7 -25 7 128.19 25.5
-25 9 -1 97.99 21.9
-1 -25 9 113.89 26.8
-1 -25 9 121.49 24
1 -25 -9 115.09 27.7
1 -25 -9 125.39 23.1
-25 -1 -9 100.39 21.6
9 -1 -25 64.79 22.3
-25 -1 -9 108.39 21.5
25 9 1 110.69 24.3
1 -9 25 92.59 25.6
-9 -25 -1 109.09 22.6
-9 -25 -1 119.29 22.3
-1 -9 -25 100.49 26.4
9 -25 1 103.59 22.6
9 1 25 103.09 23.4
-25 -9 1 99.69 23.6
-25 1 9 90.39 25.2
-9 -1 25 114.89 26.8
-9 1 -25 121.79 25.6
-1 9 25 77.89 22.9
25 1 -9 116.09 25.7
1 9 -25 125.39 25.1
9 -25 -1 85.89 22.7
-25 1 -9 94.19 20.7
-9 -25 1 139.19 22.9
-1 -9 25 89.29 24.6
25 9 -1 101.49 24.7
1 -9 -25 136.89 27.8
1 -25 9 69.89 22
-9 -25 1 108.09 24.8
-9 1 25 51.49 20.8
-1 -25 -9 49.4 22.1
-1 9 -25 69.79 22.2
25 -1 -9 97.49 22.7
-9 -1 -25 85.69 25
1 9 25 73.29 23.6
-25 1 -9 110.59 21.1
9 -1 25 86.29 23.2
-25 -9 -1 96.59 23.4
-25 9 1 98.69 23.2
3 -25 -9 12 14.3
-3 -9 -25 -5.6 12.6
25 9 3 20.4 11.5
-3 9 25 15 13
-25 9 -3 9.2 7.7
-3 -25 9 33.2 12.8
-9 -25 -3 9.7 9.9
-25 -3 -9 8.6 9.3
-25 -3 -9 6.9 8.9
-25 3 9 7.2 12.2
-25 -9 3 11.6 7.9
9 -3 -25 0.8 10.4
-9 -3 25 18.5 11.2
-9 -25 -3 9.8 12.4
3 -9 25 16.8 11.9
-3 -25 9 22.6 14
3 9 -25 6.5 9.3
9 -25 3 11.1 8.8
9 3 25 14.7 10.8
-9 3 -25 19.3 11.3
25 3 -9 25 11.4
3 -25 -9 11.3 9.7
25 -3 -9 14.4 12
-25 3 -9 8.2 6.7
-9 -3 -25 8.7 13.2
-3 9 -25 15.7 10.6
-9 3 25 1.8 9
-3 -25 -9 16.7 12.9
-3 -25 -9 8 7.6
3 9 25 7 11
9 -25 -3 22.5 14
3 -25 9 13.9 9
-9 -25 3 24.9 11.6
9 3 -25 6.9 10.2
3 -25 9 2 9
-25 3 -9 12.2 8.1
-25 9 3 17.2 11.7
-3 -9 25 5.2 11.8
-25 -9 -3 14.3 10.4
-9 -25 3 10 9.2
9 -25 -3 10.6 8.8
-25 -3 9 8.9 10.7
25 9 -3 11.2 11.7
3 -9 -25 5.8 13.4
9 -3 25 -1 9.8
-9 -5 25 84.49 24.7
-9 5 -25 105.09 21.9
-5 -25 9 94.09 22.8
5 -25 -9 91.09 26.6
-25 -9 5 64.19 21.6
-25 -5 -9 91.29 21.6
-25 5 9 77.49 24.4
-9 -25 -5 51.09 20.5
25 5 -9 124.09 25.1
9 5 25 97.79 25.3
5 -9 25 85.99 22.8
-5 -9 -25 138.09 29.4
9 -5 -25 134.89 24.2
-9 -25 -5 108.59 22.6
-5 9 25 106.69 22.9
-25 -5 -9 95.69 21.8
-25 9 -5 102.49 20.2
5 9 -25 60.59 21.6
5 -25 -9 115.29 23.5
9 -25 5 77.39 20.1
-5 9 -25 117.99 22.8
9 -25 -5 85.69 25.9
-9 -25 5 92.89 21.8
-25 -5 9 61.29 22.8
-25 9 5 66.29 22.9
-9 -5 -25 136.49 29.5
5 -9 -25 112.69 23.6
-25 -9 -5 110.29 23.7
9 -25 -5 119.29 23.1
9 5 -25 77.19 22.7
-9 -25 5 121.59 24.4
9 -5 25 111.39 22.6
-5 -9 25 78.79 24.3
25 -5 -9 104.49 23.3
25 9 -5 123.29 25
-7 9 25 8.7 11.9
25 -9 -7 11 7.3
-9 -25 -7 3 8.6
-25 7 9 19 14.3
-7 -9 -25 11.3 14.6
-7 -25 9 6.6 9.2
-9 -7 25 0.7 10.9
9 -25 7 5.4 6.9
-25 -9 7 11.5 11.9
7 -25 -9 7.2 12.4
-25 -7 -9 10.9 9.1
9 -7 -25 5.5 11.9
-9 7 -25 17.1 9.2
-9 -25 -7 -0.4 8.4
7 9 -25 16.8 12.3
9 7 25 13.2 11.6
25 7 -9 9.3 11.2
-25 -7 -9 0.8 8.2
-7 -9 25 7.7 11.3
25 -7 -9 14.5 11
-9 7 25 -0.2 10.6
-9 -7 -25 13.5 13.5
7 -9 -25 2.7 9.5
-25 -9 -7 5.4 9.1
-25 9 7 12.8 12.4
-25 -7 9 10.5 11.2
9 -25 -7 11.8 14.1
-7 -25 -9 -2.5 7.5
25 9 -7 4.8 10.3
-25 -9 -7 11.6 9.4
-7 -25 -9 5.8 8.9
-9 -25 7 4.2 8.9
7 25 -9 29.7 12.6
9 7 -25 8.8 9.5
-7 9 -25 14.1 8.4
7 9 25 10.9 10.8
7 -25 9 13 6.9
-25 -9 -9 44.8 15.2
-9 -9 -25 4 15.8
-9 -9 25 37 17.5
9 -25 -9 39.8 19.8
-9 9 -25 66.19 15.2
-9 9 25 26.4 14.9
-9 25 9 32.4 14
-25 -9 9 34 15
-9 -25 -9 53.89 15.8
-9 -25 9 59.89 17.5
9 9 25 47.1 16.8
9 25 -9 44.9 15.5
-25 -9 -9 36.1 15.2
9 9 -25 71.39 18.8
25 9 -9 48.6 15.3
-25 9 9 48.8 18.8
-9 -25 -9 76.69 18.6
25 -9 -9 56.39 17.7
9 -9 -25 17.6 11.8
1 -25 -11 123.99 28.5
-25 -11 1 177.48 31.6
1 11 -25 110.29 29
11 -25 1 192.58 30.4
-25 -1 -11 137.39 27.7
-1 11 25 124.39 30.7
-1 -25 11 168.08 32.1
-25 1 11 135.19 31.8
25 11 1 156.78 31.2
-11 -1 25 194.78 32.4
25 1 -11 182.88 32.7
1 -11 25 130.89 32.1
-1 -11 -25 143.39 33.5
-11 -25 -1 129.39 28.9
-25 11 -1 168.68 28.8
1 -25 -11 180.68 32.9
-1 -25 11 187.78 33.5
-11 -25 -1 89.69 28.7
-25 -11 -1 154.48 30.9
11 -1 25 156.18 29.8
-11 -25 1 152.68 30.2
-25 -1 11 137.19 32.1
-25 11 1 168.28 30.5
-1 11 -25 197.08 32.3
11 -25 -1 148.29 29.2
-11 -25 1 91.99 28.3
-1 -25 -11 135.49 32.4
-1 -25 -11 187.98 30.1
11 1 -25 182.88 32.5
-25 1 -11 162.48 27.6
1 -11 -25 141.59 30.7
1 -25 11 165.88 30.7
-1 -11 25 155.18 33.4
25 -1 -11 179.78 33
1 11 25 166.18 32.5
-11 -1 -25 153.88 32.6
-11 3 -25 1.6 7.9
3 11 -25 2.5 9.7
-25 -3 -11 3.9 8.1
-25 -3 -11 -2.9 5
-25 -11 3 2 7.8
-25 3 11 0.6 10.8
11 -3 -25 1.7 7.9
-11 -3 25 4.7 11
-3 -11 -25 -5.9 7.6
25 3 -11 -0.2 10.7
3 -11 25 -7.7 9.1
11 -25 3 2.2 6.4
-11 -25 -3 -11.7 5.2
3 -25 -11 -7.4 11
-3 11 25 -2.1 9.3
-3 -25 11 0.1 7.3
25 11 3 1.6 6.9
11 3 25 4.2 8.7
-11 -25 -3 -1.6 5.6
11 -25 -3 5.7 7.2
3 11 25 2.1 9.8
-3 -11 25 4.7 10.8
11 -25 -3 -11.4 7.4
11 3 -25 11.1 9.4
-11 -3 -25 11.1 12.5
25 -3 -11 2.7 9.6
-11 -25 3 -2.4 7.4
-25 11 3 -1.6 8.6
-11 -25 3 -1.9 8.8
25 11 -3 -3.8 10.1
-11 3 25 4.4 8.1
-3 -25 -11 1.2 7
-25 -11 -3 0.8 8.2
3 -25 11 -0.6 6.7
-3 -25 -11 -6.3 10.3
3 -11 -25 9.6 13.2
-25 -3 11 -1.1 8.2
-3 11 -25 6.2 8.7
-25 5 11 15.3 13.3
11 -5 -25 29.2 13.9
-11 5 -25 30.1 10.3
5 11 -25 13.9 9.6
-11 -25 -5 13 9.4
5 -25 -11 2.5 14.5
25 5 -11 -6.8 9.5
11 5 25 20.7 11.8
-11 -25 -5 2.3 11.4
-11 -5 25 19.4 12.6
-25 -5 -11 14.7 12.5
-5 11 25 15 14.9
5 -11 25 13.9 10.4
-5 -25 11 14.7 11
-25 -11 5 14.5 10.6
-5 -11 -25 23.8 15.5
-25 -5 -11 16.5 9.7
-25 -11 -5 12.2 10.5
11 5 -25 6.1 8.7
25 -5 -11 20.6 12.6
5 -25 11 22.2 10.2
-11 5 25 4 8
5 25 -11 19.5 12
-25 -5 11 28.3 14
5 11 25 13.3 11.9
11 -25 -5 14.8 15.2
11 -25 -5 21.3 10.1
25 11 -5 21.6 12.6
-5 -25 -11 7.3 8.7
-11 -25 5 8.5 9.9
-5 11 -25 12.1 8.6
-5 -25 -11 3.1 8.8
5 -11 -25 6 12.2
-5 -11 25 4 11.9
-11 -5 -25 21.6 15.5
11 7 25 12.6 11
-25 -7 -11 12.2 10.6
25 7 -11 13.5 9.8
-7 -25 11 18.5 10.7
-25 7 11 21.1 15
-11 -25 -7 26.8 13.9
-11 -25 -7 12.2 9.8
7 11 -25 5.4 12
11 -7 -25 -1.8 10.6
11 25 -7 18.6 11.2
-25 -11 7 21.1 11.3
-7 11 25 11.1 11.1
7 -25 -11 12.8 14.4
-11 -7 25 10.6 11.3
-7 25 11 26.1 12.9
-25 -7 11 11.5 9.5
-7 -25 -11 20.9 9.5
-7 11 -25 12.7 8.9
-11 -7 -25 10.5 13
7 25 -11 13.1 12.5
25 -7 -11 19.6 13.1
-25 -11 -7 32.2 13
-25 11 7 16.7 13.3
-7 -11 25 36.9 15.6
11 7 -25 26.3 13.4
-11 7 25 5.8 11.9
-7 -25 -11 15 13.5
-11 -25 7 19.6 11.4
7 11 25 15 11.5
11 -25 -7 16.5 15.5
25 11 -7 14.3 11.6
-25 -11 -7 16.1 10.9
7 -11 -25 8.7 12.2
-9 -25 11 118.89 25.1
9 11 -25 110.79 26.2
-25 -9 -11 137.19 27.5
-25 -9 -11 94.09 23.1
-25 -11 9 102.99 23.5
11 -9 -25 125.69 27.8
-9 11 25 98.09 23.6
11 25 -9 79.19 22.7
-9 -11 -25 142.49 30.3
25 9 -11 103.89 24.9
9 -25 -11 122.59 27.4
-11 -25 -9 65.49 21.9
-25 9 11 124.39 27.6
-11 25 9 134.89 26.5
11 9 25 96.59 25.8
-11 -9 25 129.09 27.8
-11 -25 -9 87.19 23.3
11 -25 -9 129.59 30.9
9 11 25 135.99 25.5
-11 -25 9 147.69 26.3
-11 9 25 68.79 23.5
9 25 -11 137.29 25
-25 -9 11 103.89 23.7
9 -11 -25 63.69 23.7
-25 11 9 103.99 27.6
25 11 -9 109.39 24.8
-9 25 11 99.19 24.3
25 -9 -11 126.79 26.4
-9 -11 25 106.79 27.8
11 9 -25 58.69 22.1
-9 -25 -11 63.29 23.5
-25 -11 -9 133.99 25.5
-11 -9 -25 120.59 30
-25 -11 -11 136.39 30.8
-25 -11 -11 158.18 29.9
-25 -11 11 227.88 34.4
11 25 -11 206.18 30.3
-11 -25 -11 86.19 27.8
-11 11 25 120.99 30
11 -11 -25 115.69 30.6
-11 -11 25 134.89 31.6
-11 -25 -11 118.19 28.1
11 11 -25 133.89 30.4
-25 11 11 155.38 33.1
-11 25 11 153.48 30.5
11 -25 -11 149.09 34.1
-11 -25 11 136.29 29.7
-11 -11 -25 87.59 31.2
25 11 -11 163.38 29.6
25 -11 -11 193.08 32.3
11 11 25 195.18 32.9
25 13 1 30.3 13.6
1 -25 -13 34.1 17.1
1 13 -25 53.09 17.4
13 -25 1 27.9 11.5
25 1 -13 57.59 16.8
-13 -25 -1 34.2 12.8
13 1 25 19.2 11.1
-1 -25 13 41.1 14.8
-25 1 13 10.7 12.4
1 -25 -13 29.2 11.3
-1 -13 -25 39.9 15.7
13 -1 -25 18.1 12.1
1 -13 25 13.1 12.1
-13 -1 25 17.8 13
-13 1 -25 25.7 13.1
-13 -25 -1 36.6 13
-1 13 25 37.7 14.6
-25 -13 1 47.5 15.1
13 1 -25 12.5 10.1
1 13 25 36.1 13.7
-13 1 25 22.5 13.6
-1 -25 -13 18.4 14.4
-1 -25 -13 15.2 10.6
1 -25 13 46 19.9
13 -25 -1 29.7 11.8
-1 -13 25 21.5 14.6
-13 -25 1 7.2 10.2
-13 -25 1 34.2 12.6
-13 -1 -25 27.4 14.2
-1 13 -25 33.2 14.5
25 13 -1 40.8 15.5
1 -13 -25 12.1 14.7
1 -25 13 6.9 12.1
-25 -1 13 32.7 16
-25 13 1 19.9 11.2
-3 -25 13 55.59 18.1
3 -25 -13 36.1 16.8
25 3 -13 46.2 16.2
3 13 -25 55.29 17.9
-25 -13 3 31.9 13.4
3 -13 25 19 14.3
-25 3 13 21 14.7
-13 -25 -3 39.7 14.4
-25 -3 -13 59.89 15.4
-3 13 25 49.1 15.5
25 13 3 44.6 15.9
13 -3 -25 27.9 13
-3 -13 -25 62.49 20.6
-13 -25 -3 48.7 16.5
-13 -3 25 29.8 14.9
-13 3 -25 38.1 13.6
13 3 25 57.69 17.2
-25 -3 -13 45.5 15.7
-3 -25 -13 39 17.6
-3 13 -25 86.79 19.7
25 13 -3 58.79 17.9
-13 -25 3 53.59 16.3
-13 -3 -25 23.2 20.1
3 13 25 27.1 15
-3 -25 -13 52.89 14.8
-13 3 25 35.7 15.4
-3 -13 25 50.49 18.6
3 -25 13 51.19 15.6
-25 13 3 35.4 14.7
13 -25 -3 39.2 13.3
-25 -3 13 76.69 20.4
13 3 -25 47.2 15.5
3 -13 -25 62.59 24.1
-25 -13 -3 27.9 14.4
-13 -25 3 70.09 18.1
25 -3 -13 52.79 17.3
3 25 -13 52.69 16.7
-25 -5 -13 128.19 25.8
-13 -5 25 97.29 26.3
-13 -25 -5 92.69 23.3
13 -5 -25 152.08 28.1
-13 -25 -5 66.69 23.1
-25 -5 -13 108.09 22.9
-25 -13 5 151.88 27.3
-25 5 13 120.09 29.1
5 -25 -13 109.39 29
13 5 25 108.39 24.6
-5 -13 -25 160.78 31.5
-5 -25 13 93.19 25.7
25 5 -13 101.89 26.5
-5 13 25 76.39 24.9
5 13 -25 121.69 26.7
5 -13 -25 141.99 26.9
-5 -25 -13 130.09 28.3
-25 -13 -5 137.39 26.2
13 5 -25 132.99 24.9
25 13 -5 111.19 26.3
13 -25 -5 90.19 22.6
-25 -5 13 146.39 28.5
5 13 25 145.49 27.4
-13 -25 5 66.09 22.9
-25 13 5 112.59 27.3
-13 -5 -25 139.19 30.8
-25 -13 -5 65.29 23.3
-5 25 13 86.29 24.6
25 -5 -13 127.09 27.3
-13 5 25 130.59 27.7
-5 -13 25 102.69 28.3
5 25 -13 153.68 26.6
-7 -25 13 15 11.3
-25 -7 -13 17.5 10.4
-7 13 25 5 7.9
13 25 -7 2.6 8
7 13 -25 1.3 11.1
7 -25 -13 1.1 13
25 7 -13 6.7 8.5
-13 -7 25 22.7 13.9
-13 -25 -7 22 11.6
-7 -13 -25 6.1 13.1
-25 -7 -13 18.7 11.7
-25 7 13 1.2 11.8
-13 -25 -7 9.8 11.7
-25 -13 7 35.2 13.5
-13 25 7 9.4 10.4
13 -7 -25 15.1 12.7
7 -13 -25 8.1 10.9
-25 -13 -7 8.9 9.9
-25 -13 -7 11.4 10.3
-13 -7 -25 23.5 16.5
25 13 -7 21.9 11.9
13 -25 -7 20.3 15.2
-25 13 7 7.3 10.8
13 7 -25 13.1 8
25 -7 -13 21.7 12
-25 -7 13 12.2 10.5
-7 25 13 18.9 11.3
-13 -25 7 22.7 11.1
-7 -13 25 5.1 12.8
7 13 25 18.5 10.8
-7 -25 -13 5.7 11.9
-13 7 25 -2.3 9.4
7 25 -13 10.6 10.4
-7 -25 -13 6.1 6.6
-25 9 13 14.3 12.8
-25 -9 -13 9.3 11.6
-13 -25 -9 25.6 10.2
9 -25 -13 2.7 12.5
-13 25 9 20.3 11.8
-9 -13 -25 11.3 15.2
-9 -25 13 21.9 11.8
13 -9 -25 15.4 13.7
25 9 -13 11.9 11.7
-25 -13 9 18.1 10.9
-25 -9 -13 15.8 10.4
9 13 -25 21.3 13.2
-9 13 25 4.6 8.2
-13 -25 -9 12.6 11.9
-13 -9 25 -4.3 9.5
13 25 -9 3.6 9
-13 9 25 13.6 10.6
9 25 -13 9.6 10.4
-9 25 13 1.9 9.8
13 9 -25 13.3 10.3
-25 13 9 6.6 11.5
-13 -9 -25 6.4 14.7
-25 -13 -9 16 11.1
-13 -25 9 12.7 10
-9 -25 -13 9.6 12.1
-9 -25 -13 12.5 8.6
25 -9 -13 23.1 12.5
-25 -9 13 4.4 9.3
-9 -13 25 4.9 12.6
25 13 -9 11.4 11.6
9 -13 -25 5.8 10.7
-25 -13 -9 12.3 9.6
9 13 25 8.1 10.9
13 -25 -9 14.2 15.7
-25 11 13 40.4 18.2
-13 25 11 52.69 17.4
25 -13 -11 52.39 17.6
-25 -11 -13 43.7 15.5
-11 13 25 56.09 17.1
-11 -25 13 23.1 17.2
-13 -25 -11 23 14.2
-25 -13 11 17.6 11.8
-11 -13 -25 39.3 17.5
-13 -11 25 39.7 15.9
25 11 -13 32.5 14.9
11 13 -25 69.89 19.5
-13 -25 -11 39 13.7
13 -11 -25 21.6 15.8
13 25 -11 66.49 17.7
11 -25 -13 39.9 19.9
11 25 -13 39.9 15.6
-25 -13 -11 19.4 13.8
-11 -25 -13 41.9 13.6
-13 -25 11 38.4 14.5
-13 -11 -25 46.5 20.4
13 -25 -11 42.8 20.3
-11 25 13 55.99 18.2
-11 -13 25 20.6 16.3
-25 -11 13 43 16.7
11 -13 -25 38.4 16.3
-11 -25 -13 19.7 15
13 11 -25 39.3 17.2
-13 11 25 52.69 16.9
25 -11 -13 46.8 16.5
-25 -13 -11 44 16.5
25 13 -11 31.7 15.3
-13 13 25 8.1 13.6
-13 -13 -25 5 9.4
-13 -13 25 7.8 13.1
-13 -25 -13 17.6 10.7
-13 25 13 10.3 11.8
13 -25 -13 8.5 14.6
13 -13 -25 6.8 10.6
13 13 -25 7 10.8
-25 -13 13 23.2 11.8
25 13 -13 8.8 8.6
13 25 -13 10.3 9.3
-25 -13 -13 10.7 9.5
-13 -25 13 14.6 10.4
-25 13 13 16 13.5
-13 -13 -25 12.2 16
-25 -15 1 -0.6 5.9
-1 -15 -25 16.6 13.9
15 -1 -25 2.8 8.2
-1 -25 15 3.3 8.6
-1 15 25 5 7.4
-15 -25 -1 3.9 6.8
1 -15 25 -0.5 10.6
-25 1 15 -9.1 8.4
1 15 -25 15.4 9.7
-15 -1 25 -6.3 8.7
25 1 -15 3.1 10.3
1 -25 -15 16.2 13.9
25 15 1 3.6 13.2
-15 -25 -1 8.2 8.3
1 25 -15 1.6 8.5
1 15 25 4.9 8.5
-15 1 25 -8.8 8
1 -15 -25 2.4 12.4
-1 15 -25 8.2 9.1
-1 -15 25 -4.4 8.7
-1 -25 -15 8.5 11.5
-15 -25 1 11.3 9.6
-15 -25 1 3.5 10.3
-25 -1 15 4.8 10.6
15 1 -25 4.3 9.6
25 15 -1 8.3 10.8
1 -25 15 12.5 9.6
-25 -15 -1 11.9 10.4
-15 -1 -25 3.7 12.4
25 -1 -15 5 10
3 15 -25 149.88 33.6
-3 -15 -25 101.59 33.7
-25 -15 3 257.57 36.3
-3 -25 15 220.18 36.2
-3 15 25 145.49 33.7
15 -3 -25 184.88 34.4
3 -25 -15 177.08 36.9
-15 -25 -3 185.98 33.5
25 3 -15 145.49 34.3
-15 -3 25 182.28 38.1
-15 -25 -3 217.38 35.5
-15 -25 3 202.88 34
-25 -3 15 136.09 34.1
3 -25 15 215.78 34.8
-15 -25 3 204.98 34.9
15 3 -25 248.88 35.8
-3 -25 -15 234.68 34.6
-15 3 25 119.89 33.3
-3 25 15 124.09 32
-25 -15 -3 149.88 32.8
3 25 -15 177.38 34.9
-3 -15 25 196.68 37.6
-15 -3 -25 134.69 34.7
3 15 25 170.28 35.4
-15 -3 -25 160.78 32.5
25 -3 -15 199.48 36.6
25 15 -3 197.48 34
15 -25 -3 212.58 33.6
-5 -25 15 441.26 65.29
5 15 -25 288.57 61.79
-15 -25 -5 437.56 63.39
25 5 -15 353.76 62.89
5 -25 -15 474.35 67.19
-15 -25 -5 359.16 61.99
-25 5 15 352.16 64.19
-5 -15 25 407.26 65.69
15 5 -25 442.76 63.59
-15 -25 5 402.56 62.69
-15 5 25 359.36 63.39
-25 -15 -5 440.86 64.49
-25 -15 -5 421.56 63.69
5 15 25 478.65 64.79
-15 -5 -25 303.47 63.29
-5 -25 -15 262.07 61.89
5 -15 -25 334.97 62.29
25 -5 -15 476.35 66.29
5 25 -15 266.87 60.89
-15 -5 -25 371.06 61.89
25 15 -5 441.46 63.99
-5 -25 -15 446.76 62.19
7 -25 -15 145.29 33.5
-7 15 25 196.18 32
-15 -25 -7 107.59 29
7 15 -25 106.29 28.8
-7 -25 15 157.88 30.7
-15 25 7 136.29 29.7
-15 -7 25 148.79 31.1
15 25 -7 193.48 30.3
-25 -15 7 167.38 30.2
25 7 -15 158.98 29.2
-15 -25 -7 146.89 28.2
15 -7 -25 78.29 27.9
-25 7 15 111.39 31.3
25 -7 -15 224.58 34.8
-25 -15 -7 150.78 29.1
-15 -25 7 79.69 26.1
7 -15 -25 196.88 31.9
-25 -7 15 77.59 27.7
15 7 -25 221.18 31.8
-7 -25 -15 112.69 28.2
-25 15 7 124.59 30
-15 -7 -25 153.18 29.1
-7 25 15 130.29 28.7
7 25 -15 184.78 29.9
-15 7 25 149.99 29.5
7 15 25 86.79 27.8
-15 -7 -25 161.78 33.6
-7 -25 -15 103.59 25.6
-7 -15 25 173.68 33.6
25 15 -7 189.88 31.2
9 15 -25 27.1 11.8
-25 9 15 8 12.7
-9 -15 -25 23.3 16.3
-25 -9 -15 25.5 11.7
25 9 -15 18.7 12.1
-15 -9 25 16.1 11.4
-15 -25 -9 18.3 9.5
-15 -25 -9 8.1 13
15 -9 -25 20.6 11.8
15 25 -9 8.1 9.4
-15 25 9 8.7 10.6
-9 -25 15 24.8 11.6
-25 -15 9 21.2 10.9
-9 15 25 21.5 13.7
-25 -9 -15 15.2 14.2
-15 -9 -25 8.7 14.1
15 9 -25 5 10.6
15 -25 -9 12.8 26.1
-9 25 15 12.6 10.9
25 -9 -15 27.4 12.9
9 25 -15 9.5 11.3
-15 9 25 24.1 12.1
-9 -25 -15 5.5 9
-9 -25 -15 10.7 7
-9 -15 25 6.2 12.9
9 -15 -25 3.2 12
-15 -25 9 19.9 10.6
-25 -15 -9 25.2 13.7
9 15 25 7 11.5
-15 -9 -25 24.7 11.6
-25 -15 -9 13.5 11.2
-25 -9 15 8.7 12.1
25 15 -9 29.6 13.4
-25 15 9 23.6 13.4
25 11 -15 8 10.2
-15 25 11 0.9 10.4
-25 -15 11 3.2 7.1
-15 -11 25 -5.2 10.4
-11 -15 -25 2.5 13.7
-25 -11 -15 1.4 7.8
-11 -25 15 9.6 10.6
11 15 -25 5.8 9.4
-25 11 15 -2.9 9.4
15 25 -11 -1.3 7.9
25 -15 -11 -0.1 9.1
-15 -25 -11 -4.3 7.8
11 -25 -15 -0.5 13.8
-25 -11 -15 -6.6 10.1
-15 -25 -11 7.7 10.5
15 11 -25 7 10.2
15 -25 -11 10.3 15.2
25 15 -11 9.8 10.7
-15 -11 -25 -2.1 11.2
-11 -15 25 -1.8 10.3
-11 -25 -15 -16.9 8.8
-25 -15 -11 19.2 9.6
-11 25 15 4.4 8.3
-25 15 11 1.5 9.9
25 -11 -15 11.3 10
-25 -15 -11 4.5 9.6
11 25 -15 18.3 12
-15 -25 11 10.2 9
11 -15 -25 -2.6 9.5
-25 -11 15 1 10.1
-15 25 13 23.8 13.9
-25 -13 -15 23.1 11.3
25 -15 -13 40.3 15.2
-13 -25 15 30.9 17.1
-25 13 15 22.9 15.7
-13 -15 -25 10.6 15.4
-13 -15 -25 20.1 13.4
15 25 -13 36.1 15.5
13 -25 -15 35.7 20.7
-25 -13 -15 32.8 16.1
13 15 -25 56.09 25.6
-25 -15 -13 44 16.7
25 -13 -15 35.8 15
-15 -13 -25 22.1 16.4
-13 -15 25 16 14.7
13 25 -15 40.3 15.1
15 13 -25 29.7 14
15 -25 -13 15.3 17.9
-25 15 13 26.3 15.6
-13 25 15 35.2 14.6
-25 15 15 128.99 33.2
-15 -15 -25 90.09 25.5
-15 -15 -25 163.98 35.3
25 -15 -15 172.48 30.6
-25 -15 -15 89.09 29.3
15 -25 -15 138.29 35.6
-25 -15 -15 160.18 28.6
-25 1 17 13.5 13.2
1 -25 -17 20.2 15.6
17 -1 -25 27.8 12.9
-17 -25 -1 15.7 11.2
-1 -17 -25 -11 11.7
25 1 -17 32 13.8
25 17 1 9.7 9.7
-1 17 25 2.2 9.4
-17 -1 25 -0.3 9.6
1 17 -25 22 12.1
-25 -17 1 14.1 11.5
-17 -25 -1 10.5 9.2
-1 -25 17 31.6 13
-1 17 -25 22.4 10.8
-17 1 25 -0.4 10.6
-17 -25 1 13.7 9.9
-1 -17 25 15.2 13.6
-25 -17 -1 5.3 8.7
1 17 25 9.7 11.3
1 -17 -25 9.1 12.1
-17 -25 1 17.1 10.7
-1 -25 -17 12 11.8
25 -1 -17 18 13
-1 25 17 15.7 11
-25 -1 17 11.7 12.5
17 1 -25 24 12.4
25 17 -1 16.1 11.9
1 25 -17 10.7 9.1
-3 17 25 184.88 34.7
17 -3 -25 168.18 34.7
-17 -25 -3 154.08 32.5
25 3 -17 205.88 35.6
-17 -3 25 253.27 36.5
-3 -25 17 208.38 35.9
-25 3 17 124.99 35.3
3 -25 -17 161.48 36.9
-25 -17 3 187.68 34.9
3 -17 -25 148.79 35.7
-3 -17 25 173.08 37.3
-3 -25 -17 144.59 35.9
-3 -25 -17 224.98 34
-25 -3 17 223.28 36
-3 25 17 109.69 31.4
-25 -17 -3 141.79 37.1
-17 3 25 185.08 34.2
-17 -25 3 153.08 32.4
3 25 -17 143.99 33.8
3 17 25 199.58 35
25 -3 -17 172.78 37.9
25 17 -3 246.48 36
-17 -25 3 170.88 32.4
17 3 -25 176.88 34.6
-5 -25 17 364.26 57.69
5 -25 -17 256.07 55.89
25 5 -17 325.87 56.99
5 17 -25 391.96 58.59
-17 -25 -5 397.46 56.29
-5 17 25 256.77 54.79
-17 -25 -5 358.26 56.19
-17 -5 25 266.87 54.59
-5 -17 25 308.27 58.49
17 5 -25 291.37 54.49
25 -5 -17 373.56 58.39
-25 -5 17 319.37 56.39
-25 -17 -5 353.06 56.59
-5 -25 -17 428.56 58.99
25 17 -5 348.57 56.69
-5 -25 -17 368.06 55.29
-7 -25 17 138.39 27.8
7 -25 -17 137.09 32.1
17 25 -7 145.49 26.7
-25 -17 7 68.79 24.1
25 7 -17 115.39 27.4
-17 -25 -7 88.49 27.1
-17 25 7 131.79 28.2
-25 7 17 141.19 30.8
17 -7 -25 86.69 26.1
25 -7 -17 180.38 30.9
-17 7 25 168.08 29.6
25 17 -7 123.99 27.3
-25 -7 17 156.88 28.3
-25 -17 -7 111.79 27.5
7 -17 -25 103.09 29.5
-7 25 17 81.39 25.6
-7 -25 -17 73.29 27.1
-7 -17 25 132.49 31.1
-25 -17 -7 167.38 29.1
7 17 25 129.39 28.3
7 25 -17 179.98 30
9 17 -25 18.4 11.6
-9 -25 17 22.8 11.3
-25 9 17 9.7 12.4
-17 25 9 7.5 10.5
9 -25 -17 10 13.8
17 25 -9 10.3 8.6
-17 -25 -9 2.5 11.2
17 -9 -25 8.2 12.6
25 9 -17 0.7 7.6
-9 -17 -25 -4.7 15.8
-25 -17 -9 13.4 10
-9 -25 -17 -5.2 13.4
25 17 -9 2.2 7
17 -25 -9 13.4 15.1
-9 25 17 6 9.8
25 -9 -17 31.3 13.2
-17 -9 -25 12.9 7.7
17 9 -25 26.8 14
-25 -17 -9 13.3 13.1
-9 -17 25 -16.2 10.4
9 25 -17 20.3 13.4
-17 -9 -25 4.5 13.5
-11 -17 -25 3.3 6.2
-25 11 17 -3.7 10.7
-11 -25 17 12.9 9.4
-17 25 11 -7.2 8.9
11 17 -25 6.4 10.3
-11 -17 -25 -8.6 10.1
11 -25 -17 -12 11.8
-17 -11 -25 -2.7 13.8
-11 -17 25 -7.1 12.4
-25 -17 -11 2.2 10.5
11 25 -17 2 6.9
-17 -11 -25 9.9 8.5
17 -25 -11 3.6 13.9
25 -11 -17 2 10.6
-11 25 17 2.6 8.4
-25 -17 -11 25.2 10.8
-25 13 17 25 16.8
-17 25 13 55.59 19.3
-13 -17 -25 73.49 24.1
-17 -13 -25 11.6 17
17 -25 -13 44.1 22.5
25 -13 -17 46.8 17.8
-17 -13 -25 62.69 18
-25 -17 -13 55.29 20.8
-25 1 19 9 12.9
-19 -25 -1 20.6 12.6
-25 -19 1 15.9 10.6
-1 -19 -25 -10.2 10.6
19 -1 -25 11.9 9.8
1 -25 -19 14.3 15.8
25 1 -19 9.9 9.5
-19 -25 1 2.1 11.5
-1 -25 -19 10.4 23.5
1 25 -19 15.4 11.3
25 19 -1 14.1 10.9
25 -1 -19 20.1 11.8
-25 -19 -1 17.4 9.7
-25 -1 19 3.4 8.6
1 -19 -25 9.2 11
3 19 -25 52.39 16.9
-3 -25 19 23.6 14.9
25 3 -19 51.59 16.5
3 -25 -19 33 18.9
-3 -19 -25 34.7 17.7
-25 3 19 26.7 15.2
-25 -19 -3 31.1 13
3 25 -19 38.6 15.6
-25 -19 -3 32.2 14.8
25 19 -3 37.9 14.2
-3 -19 25 16 16.9
25 -3 -19 48.3 16.2
-5 -19 -25 109.09 29.5
5 19 -25 146.49 28.5
-25 5 19 76.79 29.3
-5 -25 19 82.59 25.9
-25 -19 -5 112.59 26.6
-25 -19 -5 125.69 24.5
-5 -19 25 95.39 28.8
25 -5 -19 113.49 28.6
5 25 -19 94.19 28.9
-25 7 19 24.2 14.9
7 19 -25 33.3 12.8
-7 -25 19 15.6 12.9
-25 -19 -7 32.3 12.2
-25 -19 -7 11.3 13.6
7 25 -19 14.6 11.3
25 -7 -19 14.3 14.7
-7 -19 25 7.1 14.3
-9 -25 19 12.8 10.1
9 19 -25 7.5 11.9
25 -9 -19 28.1 13.9
-25 -19 -9 -10.9 8
-9 -19 25 -9.9 11.8
-25 -19 -9 13.8 8.9
9 25 -19 17.2 12.1
11 19 -25 28.1 17.2
-25 -19 -11 12.6 12
5 25 -21 14.8 11.2
7 21 -25 10.5 9.9
-7 -25 21 0.1 11.3
7 25 -21 6.7 11.7
-7 -21 25 -17.7 8
-26 0 0 453.65 75.79
0 0 26 501.25 77.89
-26 2 0 52.69 16.7
0 -2 26 21.8 15.1
0 2 -26 60.09 18.6
0 2 26 45.1 16.5
2 -26 0 45.6 17.9
2 -26 0 36.3 14.4
-26 -2 0 23.4 13.7
-26 0 -2 41.6 16
-26 0 2 53.79 18
-2 -26 0 36.4 17.4
-2 -26 0 33.1 14.1
0 -2 -26 60.29 18.8
0 -26 -2 42.3 18.2
0 -26 -2 54.99 16.2
0 -26 2 43.9 17.9
0 -26 2 34 13.5
2 0 -26 17.8 14.6
2 0 26 26.3 15.4
-2 0 -26 46.6 17.4
-2 0 26 69.49 20.1
2 -2 26 16.7 12.3
2 2 -26 6.2 11.9
2 -26 2 23.1 11.7
2 -2 -26 16.2 11.3
-2 -2 26 23.9 13.6
-2 2 -26 20.7 11.9
-2 2 26 36.7 15.3
2 -26 -2 8.1 13.2
2 -26 -2 12.3 9.4
2 -26 2 9.5 11.8
-2 -26 2 14.9 13.8
-2 -26 2 6.7 9.6
-2 -2 -26 23.6 14.2
-26 -2 -2 12.9 11.7
-26 -2 2 12.4 11.8
-26 2 -2 12.4 11.8
-26 2 2 2.5 12.1
-2 -26 -2 13.5 10.5
-2 -26 -2 23.3 12
2 2 26 22.4 12.7
26 -2 -2 0.7 6.4
26 2 -2 7.8 8.9
26 2 2 9.2 8
4 0 26 38.1 16
26 4 0 55.79 17.2
-4 -26 0 70.69 20.5
4 0 -26 21.9 14.9
0 -26 4 64.79 20.5
-26 0 -4 56.69 17.4
-26 0 4 40.8 17.9
-26 -4 0 50.29 17.5
-4 -26 0 46.5 15.6
0 -4 -26 29.3 16.7
0 -4 26 38.8 17.2
0 4 -26 21.5 13.8
0 4 26 40.7 17.3
4 -26 0 63.99 19.9
4 -26 0 49.2 16.7
26 0 -4 76.39 19.5
-4 0 26 39 17.6
0 -26 -4 61.19 18.7
0 -26 -4 32.5 13.6
0 -26 4 52.29 15.9
-26 4 0 47.7 16.4
-4 0 -26 48.9 18.2
-4 -26 -2 202.08 38.2
-26 -2 -4 198.68 38.2
-26 2 4 237.48 41.1
-4 2 -26 153.48 37.9
4 2 26 224.88 39.6
2 -26 -4 185.28 37.2
-2 -26 4 225.98 41.2
4 -26 2 254.47 41.9
4 -26 2 230.68 37.9
-26 -4 2 279.07 41.3
-4 -26 -2 230.58 38.2
2 -26 -4 214.68 40.2
2 -4 26 205.48 39.1
-2 -4 -26 258.87 42
-2 4 26 261.87 40.3
-2 -26 4 164.48 36.5
26 2 -4 164.58 36.5
-4 -2 26 265.17 40.5
4 -26 -2 199.38 37.5
4 -26 -2 200.08 39.9
26 4 -2 216.38 38.3
-4 -26 2 195.38 38.3
-26 -2 4 230.08 40.3
-26 4 2 205.58 38.8
2 -26 4 184.98 37.2
-4 2 26 217.68 40.2
-2 -26 -4 154.58 38.4
-2 -26 -4 199.78 37.7
2 -4 -26 208.88 38.1
2 -26 4 182.18 39.3
4 2 -26 247.38 39.8
-26 -4 -2 211.08 37.9
-2 -4 26 156.28 38.5
-2 4 -26 138.99 35.9
-4 -26 2 209.38 38.2
2 4 26 234.88 40.9
-4 -2 -26 182.68 39.1
4 -2 26 227.68 39.5
4 -26 -4 331.67 61.89
4 -26 -4 394.36 65.69
4 -4 -26 465.35 65.49
4 -4 26 450.45 65.19
4 4 -26 445.76 64.99
4 4 26 399.96 64.29
26 4 -4 316.27 61.69
-26 4 -4 410.26 61.79
-26 4 4 465.35 65.89
-4 -4 26 295.27 70.19
-4 4 -26 347.87 62.29
-4 4 26 422.16 65.19
-26 -4 -4 342.47 61.79
-26 -4 4 474.35 65.19
4 -26 4 379.16 62.39
-4 -26 -4 475.35 65.69
-4 -26 -4 299.67 60.89
-4 -26 4 449.46 65.49
-4 -4 -26 295.17 63.29
-4 -26 4 354.16 62.29
6 -26 0 26.5 15.5
6 -26 0 28.6 13
26 0 -6 25.6 12.7
0 6 26 27.7 13.5
0 -6 -26 13.5 14.3
0 -6 26 24.7 13.7
0 6 -26 39.9 15.1
0 -26 6 13.5 13.5
-26 -6 0 21.9 12.3
-6 0 -26 24.7 15.2
-6 -26 0 22.9 10.7
0 -26 -6 15.6 14.4
6 0 26 24.3 13.4
26 6 0 18.1 12.3
0 -26 -6 31.8 12.4
-26 0 -6 13.6 10
-26 0 6 -0.2 11
0 -26 6 29.5 13.1
6 0 -26 14.7 13
-6 0 26 32 15.2
-6 -26 0 15.9 13.8
6 2 26 155.48 31.4
26 6 2 172.78 30.8
2 6 -26 85.29 28.6
-2 -6 -26 96.29 30.7
26 2 -6 148.29 30.6
-26 2 6 143.89 31.4
2 -6 26 182.58 32.6
-6 2 -26 187.18 33
6 -2 -26 83.69 28.7
-2 -26 6 130.69 31.6
-26 6 -2 157.18 29.4
-26 -6 2 156.58 30.5
-2 -26 6 174.78 31.1
2 -26 -6 149.59 32.9
-26 -2 -6 169.48 29.5
-2 6 26 134.89 31.5
-6 -26 -2 127.09 31
-6 -26 -2 123.79 27.6
-6 -2 26 125.39 31.8
6 -26 2 154.28 29
2 -26 -6 139.69 28.5
26 6 -2 171.68 31.5
-6 -26 2 127.19 29
6 -26 -2 164.38 30.5
2 -6 -26 221.08 35.1
-2 -6 26 156.18 33.1
-26 -2 6 187.18 33
-2 6 -26 103.49 28.7
-6 -26 2 179.28 32.8
-26 -6 -2 192.18 31.8
-26 2 -6 112.29 27.8
-26 6 2 188.68 32.4
-6 -2 -26 151.78 33
-2 -26 -6 101.09 28.7
-2 -26 -6 214.68 32
26 -2 -6 143.59 29.8
2 6 26 110.29 30.1
2 -26 6 181.28 30.2
6 -26 -2 130.79 32.2
6 -2 26 155.38 31.9
-6 2 26 242.18 35.8
26 4 -6 361.26 70.79
4 -26 -6 406.66 80.79
6 -26 4 502.95 72.29
-4 -26 6 398.36 72.59
-26 -4 -6 464.55 72.09
-26 -6 4 419.36 72.09
-26 6 -4 456.35 69.69
-6 -4 26 326.87 71.69
4 6 -26 480.25 73.09
4 -6 26 362.86 71.69
6 4 26 465.25 73.39
-6 -26 -4 432.66 71.89
-6 4 -26 420.96 71.59
-26 4 6 520.65 74.89
-4 -26 6 484.85 72.79
-26 -4 6 390.26 71.89
4 6 26 486.65 73.19
-6 -26 4 494.75 72.19
6 -26 -4 478.55 75.19
-6 -26 4 445.86 72.39
-4 6 -26 411.36 71.69
4 -6 -26 574.54 75.19
4 -26 6 453.25 71.69
-26 4 -6 418.26 69.29
-26 6 4 489.05 73.79
6 -4 26 512.45 73.29
6 4 -26 571.24 74.49
26 6 -4 526.75 72.99
-4 -6 26 413.86 73.39
-26 -6 -4 468.55 72.49
6 -26 -4 429.16 71.99
-6 -26 6 343.17 68.09
-6 -6 26 375.36 81.89
6 -26 -6 491.85 69.69
6 -26 6 544.55 80.09
6 6 -26 470.75 71.09
6 6 26 420.16 70.29
-6 -26 -6 366.86 67.29
-6 6 -26 454.55 69.29
26 6 -6 465.55 70.09
-6 -6 -26 385.26 70.79
-26 -6 -6 415.86 69.09
-26 -6 6 345.27 68.49
-26 6 6 443.26 71.49
-6 -26 -6 396.06 69.29
6 -6 26 499.05 70.49
6 -26 -6 456.45 72.39
-6 -26 6 532.15 71.49
-26 -8 0 52.49 17.1
-26 0 8 32.3 16.4
-8 0 -26 37.6 16.1
-8 -26 0 65.89 18.3
-8 -26 0 31.3 14.6
-26 8 0 38.7 14.7
0 -8 -26 42.9 18.7
0 -8 26 38.7 17.4
0 8 -26 46.6 16.1
0 -26 8 44.2 15.8
8 0 -26 38.5 15.9
-26 0 -8 41.6 13.7
-26 0 -8 43 14
-8 0 26 50.69 18.2
8 0 26 36.6 15.8
0 -26 -8 53.59 19.8
0 -26 -8 51.09 15.3
0 -26 8 50.09 18
26 8 0 62.69 18.4
26 0 -8 46.1 16.8
0 8 26 50.29 18.7
8 -26 0 52.69 16.4
-26 -2 -8 14.8 9.5
-2 8 26 0.9 7.4
2 -26 -8 -10.1 10.9
8 -2 -26 7.1 8.8
-26 -2 -8 10.7 8
-26 -8 2 7.7 9.8
-26 8 -2 2.4 7.7
2 8 -26 0.4 9.2
26 8 2 4.6 10.1
-8 -2 26 6.6 11.9
-8 2 -26 7.8 11
-8 -26 -2 -3.4 8
-2 -8 -26 5.7 12.6
8 -26 2 -9.5 6.9
-2 -26 8 14.2 13
-8 -26 -2 3.8 8.3
2 -26 -8 3.3 9.1
2 -8 26 -10.5 8.2
-26 2 8 1.8 10.5
26 2 -8 6.1 10.1
-2 -26 8 2.8 9.7
8 2 26 9.6 9.9
8 -26 2 9.1 8.8
-26 -2 8 10.4 10.4
-2 -8 26 4.5 11.3
-26 8 2 7.7 10.7
26 -2 -8 10.8 11.8
2 -26 8 6.2 8.7
8 -26 -2 0 11.5
8 2 -26 16.4 10.2
26 8 -2 0.4 8.9
-2 -26 -8 0.8 11.8
-2 -26 -8 9.1 9.2
-2 8 -26 18.5 11.5
-8 -2 -26 4.5 12.9
2 -8 -26 -11.3 6.7
-8 -26 2 8.7 9.7
2 -26 8 -2.3 8.7
2 8 26 10.4 9.1
-8 2 26 8.4 9.4
8 -26 -2 11.3 9.7
-26 2 -8 7.2 6.9
-8 -26 2 3 8.4
-26 -8 -2 2.9 7.8
-26 2 -8 6.9 8.3
-8 -26 -4 112.99 32.3
-26 4 8 153.28 33.5
-26 -8 4 165.68 33.4
-4 -26 8 166.08 33.2
-4 -26 8 169.08 35
-26 -4 -8 124.59 31
4 -26 -8 226.08 38.8
8 4 26 208.88 35.5
26 8 4 164.48 32.6
8 -26 4 142.69 31.6
-8 -4 26 105.09 32.8
26 4 -8 153.98 33.1
4 -26 -8 134.29 31
8 -4 26 185.28 33.2
4 8 26 162.68 32.6
-4 -26 -8 197.28 36
-8 4 26 135.89 32
-8 -4 -26 196.08 37.8
-26 -8 -4 206.18 34.8
-26 -4 8 205.88 38.2
-26 8 4 180.88 35.2
26 8 -4 152.48 31.4
8 -26 -4 232.68 34.9
8 -26 -4 171.68 36
26 -4 -8 194.98 34.1
4 -26 8 184.88 33
4 -8 -26 185.08 35.9
-4 8 -26 161.48 32
-4 -8 26 167.38 34.8
-8 -26 4 191.48 32.6
-4 -26 -8 209.18 32.7
-8 -26 4 137.09 31.9
8 4 -26 150.38 32.3
6 -26 -8 250.67 36
-26 -6 -8 223.88 35.4
6 -26 -8 228.58 40.3
-6 8 26 120.09 33.7
6 -8 26 214.78 35.3
6 8 -26 226.08 36.9
-26 -6 -8 175.78 33.5
-6 -8 -26 231.38 39.4
-26 -8 6 128.09 33.3
8 6 26 203.58 36.4
26 6 -8 228.08 36.4
-8 -26 -6 198.08 38.6
-26 6 8 163.08 36.2
-6 -26 8 171.18 34
-6 -26 8 242.58 36.6
8 -26 6 187.58 32.6
-8 -6 26 137.59 34.9
6 8 26 183.68 36.3
6 -26 8 163.08 32.3
-8 -26 6 205.28 35.9
-8 -26 6 136.99 32.9
-6 -26 -8 222.78 33.8
-6 8 -26 202.38 33.5
8 -6 26 178.88 33.6
-8 6 26 134.09 34.7
-26 -8 -6 109.79 31.8
-26 -8 -6 137.99 33
-6 -8 26 159.18 36.2
-26 8 6 165.38 36.6
-8 -6 -26 177.38 37
26 8 -6 149.69 40.5
8 -26 -6 228.18 40.1
8 -26 -6 177.88 33.8
-26 -6 8 175.58 34.4
26 -6 -8 179.38 34.1
6 -8 -26 160.28 33.4
-6 -26 -8 125.69 32.5
-8 -8 26 14.9 14.7
-8 8 -26 19.9 9
-8 -26 -8 8 9.3
8 8 -26 7.8 12
-26 -8 8 18.1 12.9
-26 8 8 6.3 13.2
-8 -26 -8 8.4 11.7
-26 -8 -8 4.7 9.3
8 -26 -8 19.5 15.1
8 -26 -8 12.9 10.7
8 -26 8 20.8 10.2
8 -8 -26 9.6 10.1
-26 -8 -8 25 11.9
-8 -8 -26 -3.7 12.2
8 8 26 14.6 10.5
26 8 -8 20.7 11.2
-8 -26 8 6.5 9
0 -10 26 75.19 23.3
-26 10 0 86.19 21.4
0 -26 10 95.09 21.9
0 -26 -10 122.79 25
0 10 -26 120.79 23.7
-10 0 -26 110.29 27.4
-10 0 26 48.6 21.5
0 10 26 72.19 22.4
-26 0 -10 110.39 21.3
-26 0 10 71.29 23.7
-10 -26 0 87.39 23.3
0 -26 -10 117.49 22.1
0 -10 -26 39.5 21.6
-26 -10 0 94.69 22.5
10 0 26 94.29 23.8
26 10 0 89.19 23.2
26 0 -10 93.89 22.1
10 0 -26 124.19 22.6
-10 -26 0 83.49 21.9
-26 -2 -10 12.5 8.3
2 -26 -10 -4.2 4.9
-26 -2 -10 1.1 8.8
2 -26 -10 4.8 13.9
-10 -26 -2 2.8 7.9
2 10 -26 10.2 8.9
10 -26 2 6.6 6.7
26 10 2 8.3 8.9
26 2 -10 3.1 11.2
10 2 26 -2.3 12.3
-10 2 -26 3.8 9.8
-26 2 10 6.4 11.4
10 -2 -26 13.4 11.8
-2 -26 10 8.8 9.2
-10 -2 26 -13 8.9
-10 -26 -2 0.9 6.2
-26 -10 2 7.4 9.9
-2 10 26 12 11.5
-2 -10 -26 3 11.7
-2 -26 10 -3.5 10.5
-2 -10 26 0.6 10.8
-10 -26 2 11.3 9.1
2 -26 10 14.8 9.4
-26 -10 -2 5.1 8.8
-10 -26 2 5.7 11
-2 -26 -10 6.7 8.6
10 -2 26 -6.2 6.9
26 -2 -10 7.5 11.2
2 -26 10 1.1 8.2
2 10 26 1.8 9.3
10 -26 -2 -15.5 7.2
10 -26 -2 5.6 8.3
-2 10 -26 -3 8.3
-2 -26 -10 3 8.6
-26 10 2 5.1 10.1
-10 -2 -26 3.4 11
-26 -2 10 0.6 11.3
-10 2 26 7.3 10.6
2 -10 -26 8.4 10.2
26 10 -2 9.4 11.8
10 2 -26 8.2 8.5
10 4 26 52.39 17.7
4 -26 -10 73.59 18.2
-26 -10 4 49.1 16.8
10 -4 -26 45.3 16.7
-4 -26 10 46.4 18.6
-10 -26 -4 57.29 18.8
-10 4 -26 52.69 15.7
-4 -10 -26 83.69 22.2
-26 -4 -10 71.99 19.3
-26 -4 -10 44.5 14.9
-4 -26 10 56.79 17.5
-26 4 10 35.8 17.8
-10 -4 26 59.09 18.5
-10 -26 -4 60.19 16.7
4 10 -26 38.1 15.9
4 -26 -10 52.69 20.8
10 -26 4 50.49 15
-4 10 26 37.3 17.1
4 -10 26 49.9 17.9
26 4 -10 47.8 19.4
-4 -10 26 45.8 18.3
4 -10 -26 26.2 17.1
4 -26 10 46.1 15.8
-26 10 4 49.1 16.9
10 4 -26 30.3 15.1
10 -4 26 65.29 17.7
-26 -10 -4 68.79 18.3
-4 -26 -10 23.2 14.1
-10 -4 -26 44.5 19.4
-26 -4 10 41.6 18
-10 -26 4 62.49 18.4
26 -4 -10 71.29 19.4
10 -26 -4 60.39 17.3
-4 10 -26 65.19 17.7
-10 4 26 36.3 15
-10 -26 4 65.39 18.9
10 -26 -4 85.19 22.6
4 10 26 86.99 20.7
-10 -6 26 55.19 18.2
-6 10 26 70.99 19.1
6 -10 26 35.6 15.1
-26 -6 -10 60.59 17.2
10 6 26 37 15.5
-26 -6 -10 61.39 18.7
10 -6 -26 68.39 19.8
-10 -26 -6 22 13.1
6 -26 -10 62.59 32.8
-6 -26 10 61.29 18.2
-26 -10 6 67.29 19.5
-10 -26 -6 67.79 18.5
6 10 -26 91.29 21.6
-6 -10 -26 30.6 16.5
-26 6 10 46.4 18.7
26 6 -10 46.8 17.4
-10 -6 -26 69.39 22.1
26 10 -6 61.99 18.9
10 -26 -6 57.89 21.2
-26 -10 -6 59.19 16.8
26 -6 -10 44.3 16.5
-6 -26 -10 57.09 19.1
-26 -10 -6 77.19 19.3
-26 10 6 44 18
-26 -6 10 37.2 16.2
-10 6 26 73.19 20.3
6 10 26 31.3 16.5
10 6 -26 38 16.6
-10 -26 6 38.7 16.6
-10 -26 6 22.8 13
10 -26 -6 49.1 16.2
-6 -10 26 50.39 19.3
-6 10 -26 62.89 16.5
-6 -26 -10 62.09 16.7
6 -10 -26 29.4 25.2
6 -26 10 61.59 16.3
10 8 26 10.1 10
-10 -26 -8 4.8 8.8
8 -26 -10 9.9 13.5
26 8 -10 18.6 11.1
10 -8 -26 4.9 11.4
-26 -8 -10 21.1 13.1
-10 -26 -8 8.1 9.5
-8 -26 10 12.3 10.3
-8 10 26 8.3 9
-26 -10 8 2.5 8.3
8 10 -26 4.8 9.8
-26 8 10 3.8 11.5
-10 -8 26 -4.3 9.5
-8 -10 -26 6.7 13.7
-10 -26 8 19.5 11.7
26 10 -8 10.1 11.2
-26 -10 -8 9.6 8
8 26 -10 4.6 9.2
-26 10 8 0.6 10.7
-8 -26 -10 11.7 7.8
10 8 -26 17.7 10.6
-26 -8 10 3.7 10.4
8 10 26 13.3 12
10 -26 -8 0.2 13.6
-10 8 26 11 11.6
-8 -26 -10 9.9 11.2
-8 -10 26 14.9 13.5
-26 -10 -8 8.1 9.8
26 -8 -10 8.5 10
8 -10 -26 12.3 10.8
-10 -8 -26 8.4 14
-10 -26 -10 31.8 14
-10 -26 10 61.99 18.7
10 -10 -26 55.09 18.4
10 26 -10 55.09 17.6
10 10 -26 35.8 17.6
26 10 -10 74.59 20.3
-10 10 26 41.7 17.2
-10 26 10 67.29 20.4
-26 -10 -10 63.59 19.7
-26 10 10 93.09 23.5
-10 -26 -10 82.89 21.7
-26 -10 -10 93.29 20
-10 -10 -26 93.19 25.7
10 10 26 68.99 20.1
10 -26 -10 51.39 22.4
26 -10 -10 101.79 21.4
-26 -10 10 49.2 17.6
0 -26 12 -4.7 7.4
-12 -26 0 14.3 9.4
26 12 0 15.8 12.4
-12 0 -26 5.6 11.4
0 -26 12 41.7 13.3
0 -26 -12 16.4 15.7
-26 0 12 32.6 15.6
0 12 26 9.4 9.6
-26 -12 0 19.8 11.1
26 0 -12 40.8 16.2
0 12 -26 30.2 13.2
12 0 -26 18.8 13.2
12 0 26 13.9 10.6
-12 -26 0 35.2 14.4
0 -26 -12 14.6 9.5
0 -12 -26 3.9 10.5
12 -26 0 27.3 10.8
-12 0 26 32.4 15.5
-12 -2 26 9.4 10
-2 -26 12 19.8 10.9
-2 -26 12 10.5 11.5
26 12 2 8.2 9.9
2 -26 -12 1.7 13.2
2 -26 -12 3.7 8.2
-12 2 -26 3.6 8.7
12 -2 -26 1.1 9.2
2 -12 26 -6.4 9.9
2 12 -26 17.7 12
12 -26 2 16.9 9
12 2 26 -2.6 7.9
-26 -12 2 7.1 11.9
-2 -12 -26 21.7 15.5
-12 -26 -2 6.9 9.2
-26 2 12 3.6 11.8
-12 -26 -2 11 10.5
-2 12 26 17.5 10.7
2 -12 -26 -2.3 12.5
12 2 -26 7.8 9.1
-26 -12 -2 16.1 10.2
12 -26 -2 10.6 8.5
-26 -2 12 6.4 9.9
2 12 26 14.8 12
26 -2 -12 3.5 10.8
-12 2 26 6.4 13.6
-12 -26 2 7.6 8.1
-12 -26 2 6.4 7
-12 -2 -26 13.4 13.2
-2 12 -26 9.3 10.8
26 12 -2 8.1 11
-2 -12 26 -6.9 10.1
-2 -26 -12 8.2 8.4
2 -26 12 22.7 9.9
-2 -26 -12 11 13.1
-26 -4 -12 109.89 24.8
-12 -26 -4 137.99 25.2
-4 -12 -26 147.29 30.2
12 -4 -26 69.59 23.7
-12 -26 -4 65.49 21.8
-26 4 12 117.39 28.9
12 4 26 123.89 24.9
4 -12 26 90.99 25.1
-26 -4 -12 119.89 23.5
-4 -26 12 159.38 26.4
-4 12 26 54.89 22.2
-12 -4 26 129.69 27.3
4 -26 -12 92.89 28
4 12 -26 89.89 25.4
-26 -12 4 85.79 24.5
26 4 -12 92.99 25.2
-4 -12 26 97.39 27.2
-26 -12 -4 106.99 25
-12 -26 4 142.99 26.2
26 12 -4 112.19 26.4
-26 -4 12 161.88 29.7
4 -12 -26 116.29 28
-12 4 26 148.09 28.5
-4 -26 -12 76.79 27
-26 12 4 94.09 25.1
12 -26 -4 121.39 32.6
-4 12 -26 128.39 25.1
-12 -26 4 94.89 23.1
26 -4 -12 134.39 27.2
4 12 26 83.39 25.3
4 -26 12 123.89 24.6
-6 -12 -26 47.1 26.1
26 6 -12 74.99 21.3
-6 12 26 111.49 24.9
6 12 -26 53.09 19.9
-26 6 12 66.49 21.9
12 -6 -26 38.8 18.4
12 6 26 76.79 22.8
-6 -26 12 78.99 21.7
-12 -6 26 70.39 21.9
-12 -26 -6 116.09 21.1
-26 -12 6 77.69 20.8
-26 -6 -12 43 17.7
6 -26 -12 83.09 23
-26 -6 -12 65.49 18.6
-12 -26 -6 54.99 20
-6 -26 -12 94.39 20
12 6 -26 40 18.4
-12 6 26 101.59 21.7
6 12 26 39.1 18.1
12 -26 -6 81.29 24.8
12 -26 -6 84.79 21.1
26 12 -6 70.79 21
-26 -6 12 42.6 19.2
-26 12 6 57.09 20.9
-12 -6 -26 101.09 25.6
-6 -12 26 62.99 22.2
6 -12 -26 120.69 25.3
6 26 -12 90.89 22.1
26 -6 -12 112.29 23.8
-12 -26 6 52.99 18
-26 -12 -6 65.69 19.5
-26 -12 -6 113.19 24.4
-6 -26 -12 61.49 19.7
26 8 -12 8.9 10.6
-12 -26 -8 -1.1 10.3
-8 12 26 -3.1 8.8
-8 -26 12 7.2 8.5
-12 -26 -8 -2.5 7.5
8 -26 -12 10.4 12.2
-8 -12 -26 1.2 14
12 26 -8 0.1 8.8
12 8 26 -0.6 8.1
-26 -8 -12 0.8 5.7
-26 -8 -12 6.2 10.8
12 -8 -26 -0.7 11.5
-12 -8 26 -1.2 7.3
-26 8 12 1.8 11.8
-26 -12 8 1.5 9.3
8 12 -26 4.1 11
-26 -8 12 -1.6 9.5
-12 -8 -26 -0.2 12.9
12 8 -26 6.2 10.1
26 12 -8 -1.6 7.6
8 -12 -26 -5.9 12
-26 12 8 3.1 10.7
-26 -12 -8 3.2 8.4
26 -8 -12 5.6 10
-8 26 12 -1.2 7.9
-12 -26 8 8.8 8.5
-8 -26 -12 9.6 9
-26 -12 -8 2.8 7.1
8 12 26 6.7 10
8 26 -12 -6.9 7.2
12 -26 -8 -1.7 11.2
-8 -26 -12 2.5 8.4
-8 -12 26 -2.3 11.1
-12 8 26 9.1 10.8
-10 12 26 5.9 10.7
12 -10 -26 12.5 11.8
-26 -12 10 12.4 10.6
-10 -12 -26 17.6 15.9
26 -12 -10 30.7 13.6
-12 -26 -10 5.7 9.7
-12 -26 -10 8.9 6.5
10 -26 -12 -6.8 13.7
-26 -10 -12 14.2 12.3
-26 -10 -12 37.1 12.7
-12 -10 26 17 13.4
-26 10 12 20.8 14.8
12 26 -10 26 12.4
-10 -26 12 17.5 11.4
-12 26 10 17.9 12.7
10 12 -26 15.8 11
26 10 -12 9.4 8.4
-10 -12 26 5.5 11.2
-26 -10 12 13.2 10.2
12 -26 -10 14.3 15.8
-12 -26 10 26.7 11.5
26 -10 -12 16.9 12.2
10 -12 -26 5.6 13.8
-10 -26 -12 8 10.3
-26 -12 -10 20.4 11.3
-26 12 10 9.8 12
10 12 26 15.9 12.7
26 12 -10 29.2 14.4
-12 -10 -26 1.3 14.6
-10 26 12 9.6 11.1
-12 10 26 0 9.9
12 10 -26 20.1 13.2
-10 -26 -12 19.3 9
-26 -12 -10 24.5 13.6
-12 26 12 11.7 10.5
-12 -26 12 10.7 9.9
12 26 -12 6.7 10.3
-12 -26 -12 -6.1 9
-26 -12 -12 -0.6 7.7
12 12 -26 -1.2 7.4
12 -12 -26 14.2 13.3
-26 12 12 2.8 11.1
26 12 -12 18.9 11.5
-26 -12 -12 4.7 11
-26 -12 12 1 9.9
-12 -12 -26 18.6 15.6
12 -26 -12 6.6 13.2
-12 -12 26 -7.6 7
0 14 26 9.5 8.7
0 -14 -26 7.2 11.2
-14 -26 0 10.3 8.3
-14 -26 0 1.2 7.5
0 -26 -14 2.9 7.9
0 -26 14 1.2 9.3
0 -26 14 10.7 7.5
-26 -14 0 7.9 9.5
26 14 0 3.4 8.1
0 -26 -14 21.3 15.3
-26 0 14 0.9 16.4
0 14 -26 13.3 10.4
26 0 -14 9.9 10.5
-14 0 26 2.5 10.6
0 -14 26 7.3 10.6
14 0 -26 3.4 8.8
26 2 -14 90.59 22.7
14 -2 -26 47.2 17.7
-2 14 26 75.49 21.7
-14 -26 -2 49.1 17.7
-14 -26 -2 64.79 19.4
-2 -26 14 110.89 22
2 -26 -14 113.29 27.3
-14 -2 26 54.79 19.4
2 14 -26 114.89 23.3
-26 -14 2 71.49 20.7
26 14 2 114.09 24.8
2 -14 26 79.99 22.4
-2 -14 -26 109.69 26.7
-26 2 14 51.99 20.7
-14 2 26 54.29 20.2
-26 -2 14 90.39 24.2
-2 -14 26 81.69 27.6
26 14 -2 93.69 20.2
-2 -26 -14 60.29 18.1
2 14 26 74.29 21.9
14 -26 -2 92.89 19.3
26 -2 -14 84.99 23.2
2 -14 -26 32.1 20.3
-14 -2 -26 55.69 21.2
14 2 -26 95.89 24.1
-26 -14 -2 114.99 23.2
-2 -26 -14 64.19 22.6
2 -26 14 99.49 20.6
4 -26 -14 281.37 54.69
4 14 -26 308.57 55.49
-4 14 26 260.17 53.79
-4 -14 -26 389.86 59.19
-26 -14 4 380.06 55.69
-4 -26 14 313.67 54.79
-14 -26 -4 395.96 54.69
-26 4 14 238.78 53.79
26 4 -14 409.46 57.59
-14 -26 -4 350.86 55.59
-26 -14 -4 395.76 55.69
-14 -26 4 346.47 53.89
-4 -26 -14 321.37 55.09
-4 -14 26 294.07 56.49
-14 -4 -26 288.17 55.79
4 14 26 401.96 57.09
4 26 -14 215.98 52.49
14 -26 -4 301.97 52.89
26 14 -4 301.27 54.29
26 -4 -14 318.47 55.49
-26 -14 -4 242.58 52.59
-4 -26 -14 329.77 52.79
-26 -4 14 409.86 57.29
-14 -26 4 372.26 55.19
6 -26 -14 262.57 50.49
-6 -26 14 306.87 48.2
-26 6 14 302.27 50.69
-14 -26 -6 182.08 43.3
-6 -14 -26 379.16 52.79
26 6 -14 301.37 48.3
-14 -6 26 314.07 48
-26 -14 6 226.88 45.2
-14 -26 6 245.88 45.4
26 -6 -14 249.97 47.8
14 6 -26 340.37 48
-6 -14 26 254.67 49.2
-26 -6 14 302.37 49.6
-14 6 26 294.07 48.7
6 -14 -26 291.77 49.3
6 26 -14 226.08 45.3
-6 -26 -14 182.58 46.4
-26 -14 -6 223.28 45.1
26 14 -6 326.47 48.7
14 26 -8 50.89 16.7
8 14 -26 34.3 16.9
-26 -8 -14 41.7 18.8
26 8 -14 74.79 20.1
-8 -26 14 83.59 20.6
-14 -26 -8 23.5 13.6
-26 -14 8 90.89 19.2
8 -26 -14 73.39 24
-26 8 14 74.29 21.7
14 -8 -26 50.29 18
-8 -14 -26 25.1 18.3
-8 14 26 39.4 16.1
-14 -26 -8 25.8 13.3
-14 -8 26 58.09 20.1
14 8 -26 86.69 18.4
-26 -8 14 37.4 16.9
8 26 -14 72.09 19.3
-26 -14 -8 25.4 15.3
14 -26 -8 63.69 23.3
-8 -26 -14 46.2 15.6
-8 -26 -14 38.4 18.4
-26 14 8 60.49 20.2
-14 -8 -26 65.39 23.5
-26 -14 -8 48.8 17.2
8 -14 -26 82.09 22.8
8 14 26 63.29 19.5
-8 26 14 64.99 28.4
-14 8 26 39.9 16.9
-14 -26 8 43.6 15.2
26 14 -8 56.29 17.7
-8 -14 26 67.29 21.9
26 -8 -14 82.79 20.7
-14 -10 26 -0.5 10.9
-10 -26 14 24.4 11.8
-26 -10 -14 3.7 9.6
-10 -14 -26 14.9 15.4
14 -10 -26 4.9 9
-26 10 14 -8.5 9.4
14 26 -10 6.5 6.8
10 -26 -14 14.2 16.4
-26 -10 -14 -6.2 5.6
-26 -14 10 5.3 9.8
26 10 -14 15.5 11
-14 26 10 6.4 11.5
10 14 -26 20.4 12.7
-14 -26 -10 3.6 11
-14 -26 10 5.9 8.9
-26 14 10 -1.4 9.9
14 10 -26 15.8 10.3
26 -10 -14 16.1 12.5
-10 -26 -14 11.3 12.9
-14 -10 -26 19.9 18.4
-26 -10 14 7.7 9.1
-10 26 14 7.8 9.9
-14 -10 -26 7.8 8.7
-10 -14 26 4.5 13.1
10 14 26 9.8 11.3
14 -26 -10 6.5 24.6
10 26 -14 12.2 9.8
-26 -14 -10 9 8.9
26 14 -10 3.9 9.5
-26 -14 -10 8.2 10.4
10 -14 -26 5.2 14.2
26 -14 -12 29.1 12.9
12 -26 -14 4.9 15.4
-26 -12 -14 19.3 9.9
-12 -14 -26 15 17.8
-26 -12 -14 10.9 12.8
-26 12 14 -6.3 14.6
-14 26 12 8.9 11.3
14 26 -12 9 10
-12 -26 14 17.1 10.5
12 14 -26 33.9 15.3
14 -26 -12 8.5 15.7
-26 -14 -12 9.6 11.4
26 -12 -14 33.3 17.8
12 26 -14 29 13.5
14 12 -26 16.7 9.6
-26 14 12 2.4 10.9
-14 -12 -26 1.9 17.1
-26 -14 -12 17 10.2
-12 26 14 3 9.5
-12 -14 26 9.8 12.6
-26 14 14 65.09 23
-14 -14 -26 39.6 22.9
-26 -14 -14 96.19 25.1
-14 26 14 47.9 19.2
-26 -14 -14 114.09 21.1
-14 -14 -26 57.59 25.9
26 -14 -14 87.39 22.6
14 -26 -14 57.79 24.5
26 0 -16 39.8 17.2
0 16 26 15.1 13.1
-16 -26 0 40.5 14
0 -26 -16 53.79 15.5
0 -26 16 34.7 13.3
16 0 -26 60.49 17
0 -26 -16 44.3 17
-16 -26 0 33.2 14.6
-26 -16 0 48.2 19.2
0 -16 -26 60.49 20.5
-16 0 26 34.5 16.2
-26 0 16 20 15.1
26 16 0 68.09 18.7
-16 -2 26 220.18 36.2
2 -26 -16 200.38 37.7
-2 -16 -26 246.78 37.4
-26 -16 2 126.39 32.1
26 2 -16 168.38 35.4
2 16 -26 202.38 34.4
-2 16 26 169.38 34.2
16 -2 -26 127.39 31.1
-16 -26 -2 124.79 32.4
-16 -26 -2 168.68 31.5
-26 2 16 149.19 35.2
26 -2 -16 182.48 34.7
-26 -2 16 144.39 33
-16 -26 2 125.59 30.7
-2 -26 -16 149.49 33.8
26 16 -2 212.18 35
2 26 -16 121.19 31.6
-16 -26 2 207.58 34.2
-16 2 26 182.98 35.2
-2 -16 26 184.28 37.6
-2 -26 -16 207.78 33.2
-26 -16 -2 233.38 35.5
2 16 26 190.48 34.9
16 2 -26 135.09 32.6
2 -16 -26 216.78 38.3
-4 -26 16 442.26 92.69
-26 4 16 599.84 87.19
-16 -26 -4 591.54 83.29
-26 -16 4 586.54 84.59
-16 -4 26 601.94 85.69
-16 -26 -4 501.25 83.19
4 -26 -16 514.55 84.89
26 4 -16 603.14 85.59
4 16 -26 440.06 83.09
-4 -16 -26 400.26 83.99
26 -4 -16 572.44 85.69
4 -16 -26 398.06 82.89
-26 -16 -4 561.84 84.19
-26 -4 16 395.16 82.79
-16 4 26 647.74 85.59
26 16 -4 598.14 84.79
-16 -26 4 491.55 82.29
-26 -16 -4 652.13 85.99
-4 -16 26 556.14 86.79
4 26 -16 554.34 84.19
-16 -26 4 487.95 82.09
-16 -26 -6 453.95 76.09
-6 -26 16 506.65 77.79
6 -26 -16 361.56 76.99
-26 -16 6 423.76 75.49
26 6 -16 591.44 78.19
16 -6 -26 475.25 75.19
-26 -16 -6 452.65 75.79
6 -16 -26 488.35 76.49
-6 -26 -16 455.65 76.79
26 -6 -16 518.15 78.39
6 16 26 524.15 76.99
26 16 -6 492.25 75.89
-6 26 16 513.95 76.79
16 6 -26 384.16 74.19
-6 -16 26 513.55 79.79
16 26 -8 122.19 25.5
-8 -16 -26 71.49 27.1
-16 26 8 107.39 29.3
-8 -26 16 132.39 28.5
8 -26 -16 167.08 36.2
26 8 -16 112.49 26.2
8 26 -16 186.98 31
-26 -16 -8 153.08 29.4
16 -26 -8 102.29 31
16 8 -26 123.89 27.5
-8 -16 26 102.39 30.7
-26 -16 -8 181.98 31.4
8 16 26 157.08 29.8
-8 26 16 85.29 26.4
26 -8 -16 139.69 29.2
-16 -8 -26 217.78 45.9
-10 -16 -26 33.9 19.1
-16 26 10 24.5 13.9
-26 10 16 24.5 16.5
-10 -26 16 60.29 17.4
10 -26 -16 56.39 23.1
10 16 -26 67.89 20
-16 -10 -26 10.7 15.9
-26 -16 -10 47.3 18.8
-26 -16 -10 60.79 17.9
10 26 -16 25.3 14.2
-10 -16 26 16.2 15.8
-16 -10 -26 53.79 17.3
16 -26 -10 29.5 20.7
26 -10 -16 55.69 17.4
-10 26 16 28.3 14.5
-26 12 16 35.2 19.7
-16 26 12 50.29 19.1
-12 -16 -26 94.09 25.4
12 -26 -16 67.89 23.7
12 16 -26 54.19 18.8
16 -26 -12 46.5 22.3
12 26 -16 31.4 17.7
-16 -12 -26 37.6 20.6
-16 -12 -26 101.29 20.5
-26 -18 0 9.8 6.2
26 18 0 8.3 12.7
26 0 -18 18.9 12.4
0 -18 -26 21.5 18.2
-26 0 18 3 7.9
26 2 -18 128.49 24.5
-26 2 18 73.39 22.8
-26 -18 2 91.69 19.1
2 18 -26 60.69 21
-2 -18 -26 48.5 21.8
26 18 -2 67.99 20.6
2 26 -18 67.79 19.6
-26 -18 -2 59.99 18.1
-26 -2 18 33.9 21.5
26 4 -18 180.58 50.29
4 18 -26 278.97 49.8
-4 -26 18 256.57 49.7
-26 4 18 313.67 52.09
-4 -18 -26 304.47 52.09
-26 -18 -4 359.36 51.69
26 18 -4 288.57 48
-26 -18 -4 317.27 49.4
4 26 -18 275.37 49.1
-4 -18 26 252.27 50.99
26 -4 -18 252.77 49.7
-6 -26 18 166.38 35.9
-26 6 18 125.09 36.7
6 18 -26 147.49 38.2
-26 -18 -6 241.08 38.5
-6 -18 26 148.49 37.1
26 -6 -18 188.08 35.5
-26 -18 -6 235.08 36.5
-26 8 18 12.4 14.3
8 18 -26 41.9 16.7
-8 -26 18 38.8 16.2
-26 -18 -8 10.9 10.9
8 26 -18 15.6 13.4
-26 -18 -8 24.3 11.2
10 18 -26 12.2 12.1
-26 -18 -10 -11.5 10.8
26 -10 -18 16.6 10.8
10 26 -18 23.6 13.2
-26 -18 -10 13.7 8
6 20 -26 81.29 21.9
6 26 -20 81.99 23.1
-27 -1 -1 58.29 18.5
-27 -1 1 38 17.6
-27 1 -1 34.1 16.2
-27 1 1 47.7 18.6
-1 -27 -1 48.2 17.3
-1 -27 -1 69.69 17.7
-1 -27 1 53.79 19.6
-1 -27 1 41.4 14.6
-1 -1 -27 48.2 19.1
-1 -1 27 46.2 18
-1 1 -27 82.49 21.9
-1 1 27 30.4 16.8
1 -27 -1 46.6 19.7
1 -27 -1 45.7 16.1
1 -27 1 29.1 17.3
1 -27 1 51.29 16.8
1 -1 -27 52.49 19.3
1 -1 27 59.09 19.6
1 1 -27 52.09 17.1
1 1 27 55.09 18.8
-27 -1 -3 53.69 16.4
27 1 -3 10.5 9.6
-27 -3 1 36.6 15.3
-27 1 3 32.6 16.7
-3 -27 -1 51.79 18.5
-3 -27 -1 25.1 13.7
-27 3 -1 41 16
3 1 27 24.7 14.6
-1 -3 -27 68.29 18.8
-3 -1 27 27.3 20.6
-3 1 -27 29.9 15.7
-1 3 27 51.49 18.1
-1 -27 3 44.9 19.1
1 -3 27 33.3 16.1
1 3 -27 59.89 17.4
-1 -27 3 40.9 15.2
1 -27 -3 53.49 16.9
3 -1 -27 33.9 16.2
3 -27 1 33.4 17.9
3 -27 1 36.4 14.8
-27 -1 3 30.2 15.7
-3 -27 1 32.9 14.2
27 3 -1 8.2 10.4
1 -3 -27 39.5 16.3
3 -27 -1 49.2 16.5
3 -1 27 40.8 16.3
3 1 -27 62.29 19.9
3 -27 -1 72.39 20.5
1 -27 3 65.59 20.5
1 -27 3 44.8 15.6
1 3 27 18.1 14.5
-1 -27 -3 46.7 19.1
-1 -27 -3 37.4 14.2
-3 1 27 70.69 19.2
-27 -3 -1 43 16.6
-27 1 -3 30.6 14.4
-3 -27 1 38.7 17.9
-27 3 1 45.3 16.9
-3 -1 -27 58.19 19.5
-1 -3 27 43.2 18.1
-1 3 -27 37.4 14.5
-3 3 -27 148.69 36.1
-3 -3 -27 186.78 39.1
-3 -3 27 250.87 40.7
-3 -27 3 236.18 40.8
-3 -27 3 208.68 37.2
-27 3 3 170.38 37.5
-3 -27 -3 134.59 36.7
-3 -27 -3 197.48 36.9
-27 -3 -3 187.48 37.3
-27 -3 3 249.58 40.3
-27 3 -3 201.88 36.7
27 3 -3 236.78 38.7
3 3 27 148.09 37.2
3 -3 27 166.38 36.8
3 3 -27 259.47 39.5
-3 3 27 181.38 38.5
3 -27 -3 218.38 39.9
3 -27 -3 219.68 37.7
3 -27 3 261.97 42
3 -27 3 181.78 35.5
-5 -27 -1 120.79 28.7
-5 -27 -1 190.58 31.4
-27 1 5 142.49 32.7
-27 -1 -5 127.59 28.7
5 1 27 168.88 32
1 -5 27 150.58 32.3
-1 -27 5 169.38 34.2
-1 -27 5 157.48 29.8
1 -27 -5 154.98 33.1
1 -27 -5 201.58 32.3
5 -27 1 186.18 34.2
5 -27 1 153.38 29.8
5 -1 -27 174.28 32.1
27 1 -5 166.68 30.6
1 5 -27 223.08 33.7
-27 -5 1 127.19 30.6
-1 5 27 104.29 30.2
-27 5 -1 101.79 27.9
-5 -1 27 140.79 32.7
-5 1 -27 168.78 31.6
-5 -1 -27 115.09 31.3
-27 5 1 147.29 30.2
-27 1 -5 130.89 28.9
-27 -1 5 93.69 29.9
1 5 27 138.69 32.3
5 -27 -1 136.59 33.2
5 1 -27 108.49 29.9
1 -27 5 176.58 33.4
1 -27 5 151.88 30
27 -1 -5 165.98 30.2
5 -1 27 148.99 31
-27 -5 -1 168.98 31.2
-1 -5 27 149.79 32
-5 1 27 93.79 30
-1 -27 -5 159.68 33.6
-1 -27 -5 149.88 29.8
-5 -27 1 102.69 28.1
5 -27 -1 183.28 30.8
27 5 -1 139.39 29.7
-1 5 -27 112.79 29.2
-5 -27 1 180.28 33.9
-5 -27 -3 399.36 55.59
5 -3 -27 319.77 55.39
27 3 -5 321.37 54.89
-5 3 -27 305.47 55.29
-3 -27 5 309.47 54.19
3 -27 -5 379.36 58.69
3 -27 -5 338.07 54.79
3 5 -27 229.78 53.39
-27 5 -3 328.17 53.19
-5 -27 -3 274.47 54.89
5 -27 3 336.07 53.99
-3 5 27 228.48 53.29
5 3 27 314.07 55.39
-3 -5 -27 399.26 57.39
-27 -3 -5 347.57 64.09
-27 -5 3 390.06 57.39
-27 3 5 381.26 57.39
3 -5 27 328.87 56.19
-5 -3 27 242.48 55.19
5 3 -27 415.66 56.79
5 -27 -3 406.86 59.29
-5 3 27 245.18 55.09
-27 -3 5 407.86 58.19
-5 -27 3 266.07 53.19
-5 -27 3 288.37 55.19
27 5 -3 428.06 56.99
-27 5 3 379.96 56.79
5 -27 -3 410.86 56.79
-27 -5 -3 292.47 53.79
-3 -5 27 353.36 56.99
-3 -27 -5 260.27 54.99
-3 -27 -5 241.18 52.09
3 -27 5 348.77 54.59
3 5 27 283.27 55.09
5 -3 27 317.27 54.59
3 -5 -27 366.46 56.79
-27 3 -5 340.07 53.59
5 -27 -5 619.94 92.29
-5 5 -27 443.46 86.99
-27 -5 -5 501.35 87.99
5 -27 -5 592.84 89.29
-5 -5 27 602.64 91.29
5 -27 5 515.95 86.99
5 5 27 612.04 90.39
27 5 -5 482.65 87.79
-27 -5 5 709.03 91.99
-27 5 5 629.04 91.29
-5 -27 -5 642.04 90.29
-5 -27 -5 460.85 86.89
-5 -27 5 713.43 91.89
-27 -1 -7 23.4 11.6
-7 1 -27 25 14.7
1 7 -27 32.9 15.1
-1 -27 7 24.7 14.6
-1 7 27 29.7 15.6
-7 -1 27 30.1 15.2
-27 -7 1 33.3 13.8
7 -27 1 24.9 12.1
7 -1 -27 12.2 11.7
-27 1 7 16.9 13.7
-7 -27 -1 22.4 15.9
-27 -1 -7 15.7 11.2
7 1 27 20.7 13.1
-1 -7 -27 17.8 15.1
27 7 1 25.3 14.5
1 -27 -7 37.6 17.8
1 -7 27 24.8 15.4
1 -27 -7 41.5 14
-27 7 -1 34.1 13.5
-7 -27 -1 23.7 10.8
-1 -27 7 26.3 12.4
27 1 -7 40.8 15.2
-27 1 -7 25.7 10.7
27 -1 -7 42.5 15.8
1 -7 -27 40.3 18.2
-27 -7 -1 20.3 12.3
-27 7 1 41.6 15.4
-7 -27 1 33.2 12
27 7 -1 23.5 13.5
1 -27 7 38.4 14.4
7 1 -27 34.9 14.3
7 -1 27 29.7 13.9
1 -27 7 25.8 15.6
7 -27 -1 26.7 13.1
-7 -1 -27 31.4 16.5
-1 -27 -7 32.6 14.2
-1 -27 -7 27.7 13
-7 1 27 7.4 12.7
-27 -1 7 24.2 15
7 -27 -1 44.6 19
-27 1 -7 28.5 12.2
-1 7 -27 34.4 14.7
-1 -7 27 14 14.6
-7 -27 1 32.6 15.4
1 7 27 41.8 15.7
27 7 3 234.48 41.2
-7 -27 -3 255.77 42.3
-3 -27 7 228.68 42.1
-3 7 27 262.87 44.1
-3 -7 -27 154.08 46.4
-7 -3 27 261.27 43.9
-27 -7 3 271.07 44.3
-27 -3 -7 210.78 40.4
3 7 -27 331.47 45.6
-27 3 7 224.88 43.7
7 3 27 191.68 41.5
-3 -27 7 197.38 42.6
-7 3 -27 250.57 43.1
27 3 -7 195.48 41.1
-27 -3 -7 205.88 40.3
3 -7 27 282.67 49.4
3 -27 -7 190.38 43.7
-7 -27 -3 239.28 41
3 -27 -7 169.98 42
7 -3 -27 278.57 44.1
-3 -27 -7 203.48 41.7
3 7 27 221.98 42.5
7 -3 27 228.78 42.1
7 3 -27 311.37 44.8
-27 -7 -3 216.08 41.5
27 7 -3 247.88 42.9
-7 -27 3 222.08 41.4
-7 -3 -27 215.98 43.4
-3 -7 27 224.88 44.3
-3 7 -27 182.18 40.2
7 -27 -3 252.37 42
-27 7 3 280.07 44.2
7 -27 -3 191.48 43.6
-27 -3 7 257.57 44.3
3 -27 7 194.88 40
-7 3 27 262.27 44.3
-3 -27 -7 272.27 42.1
27 -3 -7 201.78 40.9
-7 -27 3 290.27 42.3
-7 -5 27 390.16 76.99
7 5 27 506.45 78.39
5 -7 27 541.55 77.79
-7 5 -27 534.45 77.19
-5 -7 -27 567.74 80.59
5 -27 -7 454.25 79.19
-27 -7 5 452.65 77.09
7 -27 5 469.45 75.19
-27 5 7 560.94 80.39
-27 -5 -7 426.86 75.49
5 -27 -7 382.86 74.99
-7 -27 -5 497.95 76.39
-7 -27 -5 385.36 75.89
-5 -27 7 545.15 78.89
27 5 -7 408.06 75.09
-5 -27 7 381.16 75.69
7 -27 -5 457.65 76.39
7 -27 -5 592.54 81.89
5 7 27 407.86 76.69
-7 -27 5 426.16 76.09
5 -27 7 488.15 75.99
-7 -27 5 618.54 78.89
-27 -5 7 528.05 79.19
-5 -7 27 560.14 80.29
5 -7 -27 564.04 79.09
-5 7 -27 559.94 77.59
-5 -27 -7 514.65 76.19
-27 -7 -5 415.46 75.89
-7 5 27 355.16 75.99
7 -5 27 470.25 76.99
7 5 -27 614.84 79.09
27 7 -5 558.74 78.29
-7 -27 7 310.77 57.39
-27 7 7 322.37 57.59
7 -7 27 331.47 55.09
-27 -7 -7 359.06 56.39
-7 -27 7 298.67 54.69
-7 -7 -27 421.46 60.69
-7 -7 27 395.76 58.99
7 -7 -27 309.87 54.99
-7 -27 -7 372.06 55.39
-7 7 27 299.57 55.89
7 -27 -7 311.97 58.39
7 -27 -7 318.97 54.19
7 -27 7 338.57 54.59
27 7 -7 363.56 56.09
-7 7 -27 274.67 53.69
7 7 27 279.87 55.49
1 9 -27 44.3 15.8
9 -27 1 23.7 11.7
-27 -1 -9 38.5 15.1
-9 -1 27 20.7 14.7
-1 -27 9 42.5 14.2
1 -9 27 31.6 15.3
27 1 -9 28.5 14.9
9 -1 -27 31.2 15.4
1 -27 -9 40.8 19.4
-9 1 -27 38.6 16.5
-27 -9 1 25.7 12.9
-27 -1 -9 33.4 12.6
27 9 1 37.6 15.3
-1 9 27 23.3 14.4
-27 1 9 39.8 16.6
-9 -27 -1 7.5 12.5
-9 -27 -1 23.3 12.8
9 1 27 35.2 15
-1 -9 -27 14 15.5
-1 -27 9 29.2 15.6
1 -27 -9 38.8 13.4
-9 -27 1 28.9 14.7
1 -27 9 33.5 13.3
-9 -1 -27 15.9 15.1
-9 -27 1 16.1 9.9
1 9 27 46.4 15.7
-27 9 1 27.1 13.8
-27 -1 9 57.99 19.8
-9 1 27 34.9 16
-1 -27 -9 51.59 19.4
27 -1 -9 51.59 17.6
-1 -27 -9 56.09 16.1
9 -27 -1 50.99 15
9 -1 27 23.3 13.6
9 1 -27 15 12.4
1 -27 9 2.1 10.2
27 9 -1 33 15.7
-1 9 -27 42 15.3
1 -9 -27 22.3 16.6
-27 -9 -1 35.9 14.3
-1 -9 27 26.8 15.9
-3 -9 -27 23.2 15.9
3 -27 -9 14.9 13.1
-9 3 -27 21.9 12.9
3 -27 -9 18.8 11
3 -9 27 24.5 14
3 9 -27 13.7 11.3
9 -3 -27 14.4 10.5
9 -27 3 23.8 9.1
-3 -27 9 22 14.6
-3 -27 9 19.8 11
-27 3 9 11.8 13.6
-9 -3 27 12.5 11.7
-9 -27 -3 13.5 9.6
-27 -9 3 17.9 10.9
-27 -3 -9 30.6 11.3
27 3 -9 21.7 13.4
27 9 3 31.8 14.5
9 3 27 20.1 11.8
-3 9 27 12.1 12.4
-27 -3 -9 23.4 11.5
-9 -27 -3 20.7 11.7
-3 -27 -9 12.5 10.1
-3 -27 -9 8.1 13.1
-9 -27 3 8.5 8.7
-9 -3 -27 21.7 15.6
-3 -9 27 24.2 14.7
-27 -3 9 2.2 11.1
3 -9 -27 6.3 10.9
3 -27 9 1.1 9.3
9 -3 27 17.4 11.3
-9 -27 3 22.5 12.5
-27 -9 -3 29.9 13.4
9 -27 -3 32.3 12.9
9 -27 -3 16.7 15.9
-27 9 3 15.3 12.2
9 3 -27 22.9 13.7
-9 3 27 10.5 10.1
27 -3 -9 33.2 14.8
3 -27 9 28.3 12.6
3 9 27 19 15.6
27 9 -3 21.4 13.3
-27 -5 -9 110.09 26.2
-9 -5 27 152.28 29.6
-27 5 9 137.29 30.6
-5 9 27 112.99 29.4
9 -27 5 137.39 26
-27 -9 5 111.39 28.1
5 9 -27 160.18 30.6
-9 -27 -5 158.68 30.2
-9 -27 -5 101.19 25.9
-5 -27 9 90.89 27.1
-5 -27 9 152.08 32
-5 -9 -27 153.58 33.2
27 5 -9 134.99 29.1
9 -5 -27 181.58 31.2
-27 -5 -9 94.69 27.1
9 5 27 135.89 29.2
5 -9 27 120.09 28.3
5 -27 -9 151.88 28.3
-9 5 -27 160.28 27.4
5 -27 -9 152.68 31.1
9 -27 -5 138.99 28.3
-9 -5 -27 187.48 35.1
5 9 27 110.99 29.3
9 -27 -5 142.09 32.3
5 -9 -27 107.39 29.8
27 -5 -9 131.59 28.8
-9 -27 5 191.38 30.4
-9 5 27 83.09 28.2
-5 -27 -9 167.28 32.2
-5 -27 -9 89.99 25.8
-27 -9 -5 144.79 29.1
27 9 -5 170.38 30.1
-9 -27 5 115.49 26.8
9 5 -27 181.78 31.2
-27 -5 9 90.19 27.7
-5 -9 27 118.09 30.7
-5 9 -27 126.99 27.4
-27 9 5 137.39 29.8
5 -27 9 137.69 26.5
7 -27 -9 51.19 16.3
9 7 27 28.6 14.8
27 7 -9 81.49 21.3
-27 -9 7 39.2 16
-7 -27 9 61.79 20.4
-9 -27 -7 31.9 13.8
-9 -7 27 34.3 16.3
-9 -27 -7 60.69 18.9
9 -7 -27 55.59 19.6
7 9 -27 71.29 19.7
-7 -27 9 46.4 16.1
7 -27 -9 65.19 22.8
-27 -7 -9 36.7 16.5
-27 -7 -9 57.59 17.3
-7 -9 -27 32.7 19.6
-7 9 27 63.29 19.4
-27 7 9 45.6 19.4
-27 -7 9 27.6 15.5
7 9 27 63.49 20
9 7 -27 82.39 21
9 -27 -7 71.49 17.8
27 -7 -9 58.09 17.1
-7 -27 -9 40.3 17.6
-27 -9 -7 30.2 14.8
9 -27 -7 62.39 21.9
-9 -7 -27 64.39 23.1
-27 -9 -7 59.19 17.9
-7 -27 -9 77.99 18.1
-27 9 7 36.8 16.4
-9 -27 7 57.49 19.9
-9 -27 7 39.9 15.3
7 -9 -27 28.7 16.3
-9 7 27 85.09 21.4
-7 -9 27 21.7 16.2
27 9 -7 54.59 18.5
-9 -27 -9 19.8 14.1
-9 -27 -9 8.5 8.4
9 9 27 7.2 10.5
-9 -9 -27 8.5 14.7
-27 -9 -9 21.5 11.4
-27 -9 9 8.5 10.6
9 -27 -9 21.8 10.7
-9 -27 9 8.6 8.3
-27 -9 -9 27.6 13.2
27 -9 -9 15 10
9 -9 -27 14.1 10.8
-9 -9 27 9.4 13.9
-9 9 27 10.3 11.7
9 -27 -9 18.5 16.1
27 9 -9 16.9 11.5
27 11 1 1.7 9.6
-27 1 11 10.1 12.2
11 -27 1 15.3 7.9
-1 -11 -27 6.4 14.1
27 1 -11 10.7 9.5
-1 -27 11 9.5 12.5
-1 11 27 5.2 8.2
-11 -27 -1 -1 7.6
-11 -27 -1 4.5 7.1
1 -27 -11 13.6 14.9
1 -27 -11 9.2 8.7
-27 -11 1 11.6 9.1
-11 1 -27 -4 9.2
1 -11 27 -2.6 11.2
-1 -27 11 8.3 10.1
11 -1 -27 0.5 6.2
-11 -1 27 16.4 13.3
11 1 27 -3.1 7.8
1 11 -27 17.6 10.5
-1 -11 27 -7.1 10.1
-1 -27 -11 -3.4 11.5
-11 -1 -27 8.4 12.8
11 1 -27 5.5 10.3
11 -27 -1 5.9 7.9
-11 1 27 1.1 7.9
-27 -1 11 2.3 10.5
-1 -27 -11 -4.8 7
1 -27 11 11.5 8.7
-11 -27 1 14 12.1
27 -1 -11 7.6 11
1 11 27 -2.3 9.4
1 -27 11 12.5 10.6
-27 -11 -1 11.3 7.8
1 -11 -27 6.3 9.7
-11 -27 1 6.5 8.9
27 11 -1 -1.4 9.2
3 11 -27 54.29 18.1
-3 11 27 31.8 16.1
3 -27 -11 43.8 18.4
-27 3 11 25.1 15.9
27 11 3 52.59 18
-11 -3 27 46.1 17.7
-27 -11 3 57.29 17.2
27 3 -11 50.79 17.7
11 3 27 57.19 17.5
11 -3 -27 61.09 18.2
-3 -27 11 49.7 18.6
-3 -27 11 28.2 14.7
3 -11 27 40.3 16.8
-3 -11 -27 72.89 22.4
3 -27 -11 64.79 17.4
-11 -3 -27 48.2 19.4
-3 -27 -11 47.6 19.1
-11 -27 3 24 12.6
11 3 -27 39.7 15.9
-3 -11 27 42.9 18.8
-3 -27 -11 63.89 17.3
-27 -11 -3 65.09 18.6
3 -11 -27 36.3 17.6
27 11 -3 64.39 18.2
-11 3 27 36.1 17.1
-27 -3 11 53.89 19
27 -3 -11 38.8 16.7
-11 -27 3 39.5 16.3
-3 11 -27 68.19 17.1
3 11 27 39 16
11 -27 -3 50.29 16.5
3 -27 11 54.69 15.9
5 -27 -11 139.89 32.7
11 -5 -27 114.69 27.4
5 11 -27 164.48 29.1
11 5 27 143.09 28.3
-27 -5 -11 109.99 26.5
-5 -11 -27 59.09 25.9
-5 11 27 79.79 26
-5 -27 11 122.49 26.5
-11 -27 -5 79.69 25.7
-11 -27 -5 139.69 25.2
27 5 -11 137.09 27.9
-27 5 11 130.89 31
-11 -5 27 60.59 25.2
5 11 27 119.09 28.1
-27 11 5 131.19 30.5
-27 -11 -5 153.38 27.5
-5 -27 -11 89.89 26
-5 -27 -11 125.79 25.4
-5 11 -27 125.79 32.2
11 -27 -5 141.69 32.6
-11 -27 5 132.99 25.4
5 -11 -27 143.19 28
11 5 -27 113.09 26.7
27 11 -5 115.69 27
27 -5 -11 126.09 26.9
-27 -5 11 113.69 26.2
-5 -11 27 105.29 29.7
-27 -11 -5 129.49 27.1
11 -27 -5 111.29 26.4
-7 -11 -27 48.3 19.9
-11 -7 27 17.2 15
-7 -27 11 40.8 15.5
-27 -7 -11 40.8 16.2
-11 -27 -7 39.2 13.2
7 -27 -11 32.3 17.4
27 7 -11 28.2 15.2
-27 7 11 22.2 15.5
-27 -11 7 46.5 17.5
7 11 -27 32.4 14.4
11 -7 -27 47.6 17
-27 -7 -11 24.5 11.9
-11 -27 -7 11.7 11.2
-7 -27 -11 23.6 11.7
-7 -27 -11 30.2 15.5
-7 -11 27 26.3 16.2
-27 -11 -7 43.9 14.9
11 7 -27 3.4 11.5
27 11 -7 37.4 14.9
7 -11 -27 17 16
11 -27 -7 33.4 12.6
7 11 27 33.4 15.5
-11 -27 7 40.1 13.9
-11 -7 -27 48.2 18.3
27 -7 -11 35.6 15.7
-11 7 27 17.2 13.7
-27 11 7 47.2 18.9
11 -27 -7 18 16.5
-27 -11 -7 32.8 13.9
-27 -7 11 40.3 16.7
11 9 27 -1.3 8.5
-9 -27 11 18 11.4
11 -9 -27 23.4 14.3
-9 11 27 5.5 10.9
9 11 -27 12.6 12
-27 -11 9 8.4 10.8
-27 -9 -11 13.6 9.1
-9 -11 -27 5.5 12.7
-11 -9 27 12.6 11.2
-11 -27 -9 7.4 11.8
-11 -27 -9 12.6 8.3
27 9 -11 15 11.2
-27 9 11 3.4 11.2
9 -27 -11 11.4 12.5
-27 -9 -11 5.9 10.1
11 9 -27 22.5 10.4
-27 -11 -9 18 15.2
-11 9 27 5.3 8.1
-27 11 9 2.6 11.7
9 -11 -27 -5.2 11.5
9 11 27 1.1 8.5
11 -27 -9 -3.5 12.5
-9 -27 -11 -1.8 7.6
27 11 -9 11.9 11.8
-27 -9 11 15.6 12.1
-9 -27 -11 -3.9 9.1
-27 -11 -9 10.5 19.8
-11 -9 -27 10.5 15.3
-9 -11 27 -4.7 11.9
9 27 -11 14.6 9.8
-11 -27 9 12.4 10.6
-11 27 11 0 8.5
11 -27 -11 21 16.6
11 11 27 17.1 11.7
-11 -27 -11 13.1 10.3
-27 -11 -11 12.6 11.3
27 -11 -11 21.2 11.2
27 11 -11 4.4 10.2
-27 -11 -11 13.4 8.9
-11 -27 11 22.1 12.1
11 11 -27 9.1 14.5
11 27 -11 14.8 12.1
-27 -11 11 3.3 7.5
-27 11 11 8.3 13
11 -11 -27 3.6 12.9
-11 -11 27 8.2 13.3
-11 -11 -27 -8.6 12.3
-1 -27 13 31.2 12.6
-13 -27 -1 7.3 10.4
1 -27 -13 3.5 8.2
-13 -27 -1 9.6 8.5
-1 -27 13 11.6 12.3
-27 1 13 4.3 8.5
27 1 -13 35 14.4
27 13 1 -5.9 9.6
-27 -13 1 7.3 8.9
1 -13 27 -0.5 9.4
-13 -1 27 9.6 11
-1 -13 -27 8.9 14.7
1 -27 -13 12.1 15.1
-1 13 27 11.3 12.2
1 13 27 5.7 11.1
1 -13 -27 10.7 14.1
13 1 -27 7.1 9.5
-13 1 27 0.5 9.3
-1 -27 -13 5.1 7.7
-27 -13 -1 34.6 12.2
-13 -27 1 20.3 13.1
27 13 -1 12.4 10.6
27 -1 -13 10.6 10.3
-27 -1 13 4.3 10.9
-1 -27 -13 16.7 15.5
-1 13 -27 0.5 7.9
-13 -27 1 9.4 7.1
-1 -13 27 11.4 12.2
1 -27 13 25.6 11.1
1 -27 13 2.9 10.2
-13 -27 -3 127.19 30.7
-3 -27 13 161.38 30.4
3 13 -27 114.09 29.8
-27 -13 3 112.69 28.8
13 -3 -27 159.98 29.3
-3 -13 -27 159.78 34
3 -27 -13 125.89 30.7
3 -27 -13 180.48 29.4
-13 -3 27 168.88 32.5
27 3 -13 167.98 30.7
-3 -27 13 165.78 33.2
-27 3 13 177.78 34
-3 13 27 167.38 31.5
13 -27 -3 147.09 28.9
-13 -27 3 133.39 29.8
-3 13 -27 186.48 31.7
13 3 -27 151.58 31
-3 -27 -13 104.29 30
-13 3 27 187.98 31.4
-13 -3 -27 101.59 30.7
27 -3 -13 139.49 31
3 -13 -27 113.49 31.1
-3 -27 -13 132.99 27
3 13 27 99.79 30.5
-27 -13 -3 157.98 30.3
27 13 -3 151.68 31.3
-5 -13 -27 328.57 48.5
-27 5 13 304.17 47.3
5 13 -27 264.57 44.5
13 5 27 208.48 42.4
13 -5 -27 312.47 44.5
5 -27 -13 267.47 47.3
-5 13 27 198.58 41.2
-13 -27 -5 215.08 40.3
27 5 -13 209.98 41.7
-27 -13 5 235.38 42.8
-5 -27 13 286.17 44.9
-13 -27 -5 255.17 42.5
-13 -5 -27 183.98 43.4
5 13 27 161.08 41.4
-5 -27 -13 250.77 45.3
-27 -13 -5 259.37 43.7
-27 -13 -5 277.27 44
-5 -13 27 239.98 45.3
27 -5 -13 237.38 42.9
-5 -27 -13 176.48 39.7
-27 -5 13 263.47 45.4
-13 -27 5 201.78 40.5
27 13 -5 238.08 43.9
-13 -27 5 245.48 43.1
13 -27 -5 220.38 40.7
-7 -13 -27 73.39 25.1
7 -27 -13 96.39 28.8
13 -7 -27 81.09 22.9
-13 -7 27 66.59 23
-27 -13 7 103.59 21.9
-7 13 27 49.2 20
-13 -27 -7 132.39 26.2
-27 7 13 82.89 26.6
27 7 -13 121.09 26.4
7 13 -27 82.99 23.7
-7 -27 13 106.49 23.9
-27 -13 -7 88.29 21.7
-7 -27 -13 82.09 24.6
-7 -27 -13 46.8 18.9
-13 -7 -27 132.49 30.1
-13 7 27 50.79 20.2
27 13 -7 86.29 22.5
7 27 -13 139.19 25.3
-13 -27 7 138.89 24.1
7 -13 -27 132.19 28.9
27 -7 -13 116.09 24.9
-27 -13 -7 106.89 23.7
7 13 27 101.99 25.9
13 -27 -7 108.19 29.2
-7 27 13 85.39 20.9
13 -27 -7 137.79 24.1
13 7 -27 149.59 26.3
-7 -13 27 89.39 26.2
-27 -7 13 44.5 21.1
-9 -27 13 18.7 11
27 9 -13 7.6 11.4
9 -27 -13 3.1 14.6
13 -9 -27 15.2 14.1
-27 9 13 4.7 12.6
-13 -27 -9 11.2 10.3
9 13 -27 16.7 11.9
13 27 -9 -0.8 9.4
-13 -9 27 15.8 11.4
-9 -13 -27 -1.1 13.8
-27 -13 9 19.6 10.5
-9 27 13 10.8 10.4
13 9 -27 19.6 11.8
-27 -9 13 8.6 11.2
-27 -13 -9 -4.8 8.7
9 -13 -27 -10.2 10.9
-9 -13 27 14.4 14.7
-13 -9 -27 19.6 17.4
13 -27 -9 -7.8 12.2
-9 -27 -13 17.1 14.2
27 -9 -13 28.4 13.4
9 13 27 22.3 13
9 27 -13 1.2 9
27 13 -9 8.8 11
-13 -27 9 10 10.4
-11 -27 13 24.8 11
11 -27 -13 6.6 15.7
-11 -13 -27 -8.5 14.1
-27 11 13 -4.9 11
13 27 -11 9.2 8.7
-27 -11 -13 -10.6 9.3
11 13 -27 2 9.3
-13 27 11 5.5 9.3
-11 27 13 0.9 9.7
11 27 -13 2.1 9.7
13 -27 -11 -4.6 19.3
-11 -13 27 -4.4 10.5
-13 -11 -27 5.7 18.9
-27 -13 -11 -1.3 10.6
-27 -13 -11 5.6 8.4
-27 13 11 10.6 12.2
27 13 -11 -6.6 9.6
13 11 -27 11.3 12.5
-13 -13 -27 9.3 10.4
-27 -13 -13 23.1 14.3
-27 13 13 9.8 13.3
-13 -13 -27 7.7 28.1
27 -13 -13 34.7 12.2
13 -27 -13 7.6 16.5
-13 27 13 5.4 10
-15 -27 -1 117.99 21.4
-1 -15 -27 68.39 22.6
-1 -27 15 109.89 22.4
-15 -27 -1 24.6 16.3
1 -27 -15 60.19 20.7
-15 -1 27 66.99 20.6
27 1 -15 92.79 23.6
1 15 -27 59.59 18.7
-27 -15 1 54.09 17.7
-27 1 15 76.99 21.9
15 -1 -27 100.39 23
1 -27 -15 35.6 16
-1 15 27 56.79 19.3
27 15 1 111.19 24.3
27 -1 -15 89.29 24.2
1 15 27 78.99 22.6
15 1 -27 69.59 19.5
-15 -27 1 59.59 19.5
-1 -27 -15 75.79 18.9
27 15 -1 85.09 21.3
-27 -1 15 43.7 19.5
-15 -27 1 83.39 17.9
-15 1 27 29.9 17.2
-1 -15 27 53.89 21
1 -15 -27 121.99 27.2
-1 -27 -15 83.59 23.2
-27 -15 -1 41.9 16.8
3 15 -27 227.38 41.2
-15 -3 27 173.48 39.4
-3 -15 -27 308.07 46
27 3 -15 272.67 42.9
15 -3 -27 171.58 38.5
-3 -27 -15 168.28 42
27 15 -3 277.67 43.7
-15 -27 3 274.57 44.9
-27 -15 -3 265.37 41.8
-3 -15 27 282.17 45.1
-27 -3 15 198.08 41.3
-15 -27 3 207.98 39.5
3 -15 -27 167.18 40.5
-3 -27 -15 154.48 36.2
-15 -27 -5 353.66 68.69
5 15 -27 340.77 69.69
15 -5 -27 488.65 70.89
5 -27 -15 429.76 73.39
-5 -15 -27 595.94 76.49
27 5 -15 394.16 70.29
27 15 -5 478.75 70.39
5 15 27 348.17 71.19
-27 -15 -5 430.16 71.09
-5 -15 27 427.16 73.59
15 5 -27 442.96 70.29
-27 -15 -5 572.44 73.49
5 27 -15 418.16 70.19
-27 -5 15 407.96 71.49
-5 -27 -15 463.35 71.29
7 -27 -15 216.38 64.09
27 7 -15 353.06 48.4
-27 7 15 236.48 48.8
-27 -15 7 202.18 44
-7 -27 15 269.17 47.3
-7 -15 -27 323.67 52.09
-7 -15 27 230.78 48.9
7 15 27 267.27 46.9
27 15 -7 214.88 44.5
-7 27 15 230.98 50.29
27 -7 -15 322.77 49
-27 -15 -7 217.08 44.5
15 7 -27 290.57 45.6
-27 -15 -7 298.97 48.6
9 15 -27 94.09 23.7
-9 -15 -27 40 21.4
-15 27 9 59.79 20.7
-9 -27 15 108.59 21.4
9 -27 -15 45.3 23.2
-27 9 15 56.29 22.3
-9 27 15 47 18
27 -9 -15 77.79 21.9
-27 -15 -9 61.79 21.6
15 -27 -9 52.79 23.6
-15 -9 -27 51.59 22.6
9 15 27 47.6 19
-27 -15 -9 96.39 20.4
-9 -15 27 69.59 23
9 27 -15 34.6 17.1
11 15 -27 45.6 17.7
-27 11 15 43.1 19.1
-15 27 11 27.9 14.4
11 -27 -15 22.5 20.6
-11 -15 -27 52.29 22.7
-27 -15 -11 67.09 18.5
15 -27 -11 34.1 22
-27 -15 -11 36 17
11 27 -15 79.79 20.1
-15 -11 -27 39.4 13.4
-15 -11 -27 56.69 22.4
-27 -17 1 104.09 22.2
-27 1 17 104.39 26.8
27 -1 -17 94.69 24.7
-27 -17 -1 90.69 24.2
27 17 -1 68.89 22.9
3 17 -27 326.17 48.4
27 3 -17 297.67 48.5
-27 3 17 181.98 44.6
3 27 -17 231.48 45.2
-27 -17 -3 214.18 45.4
-27 -17 -3 254.57 45.4
27 -3 -17 273.27 47
27 17 -3 318.37 47.3
5 17 -27 321.27 52.89
5 27 -17 299.17 51.79
-27 -17 -5 338.37 51.59
-27 -17 -5 237.98 50.29
-27 7 17 167.28 40.5
-7 -27 17 244.98 39.6
27 -7 -17 256.07 41.2
7 27 -17 170.38 37.9
-27 -17 -7 161.88 35.5
-7 -17 27 189.28 41.1
-27 -17 -7 267.17 41.7
-27 9 17 47.8 20.9
9 17 -27 34.9 17.9
27 -9 -17 49.3 18.6
-27 -17 -9 24.9 17
-27 -17 -9 61.29 16.5
9 27 -17 80.39 21.8
5 27 -19 282.47 49.8
-28 0 0 197.38 37.8
0 -28 0 235.68 40.6
0 -28 0 161.98 35.7
0 0 -28 272.07 41
0 0 28 147.99 37.4
-28 0 -2 14.3 11.4
-28 0 2 15.3 12.3
-2 -28 0 5.6 12
-2 -28 0 24.4 12.5
0 -2 -28 3.9 11.5
0 -2 28 26.2 14.5
0 2 -28 7.3 12
0 2 28 17 14.4
2 -28 0 22.9 15.5
2 -28 0 24.9 12.3
28 0 -2 12.7 8.2
0 -28 2 26.8 15.9
0 -28 2 21.6 12
2 0 -28 36.2 15.6
2 0 28 15.2 12.7
28 2 0 10.4 7.1
0 -28 -2 19.4 12.3
0 -28 -2 19.7 15.7
-2 0 28 16.8 13.2
-28 -2 0 6.8 10.9
-28 2 0 24.4 14.4
-2 0 -28 17.2 13.3
-28 2 2 3.3 11
-28 2 -2 -3.9 9.8
28 2 -2 9.6 8.4
-2 2 -28 28.5 14.5
-2 2 28 8.5 12.5
2 -28 -2 4.3 13.5
2 -28 -2 6.3 10.1
2 -28 2 7.5 13.5
-28 -2 2 -1 10.3
-2 -28 -2 14.2 10.5
-2 -28 2 18.5 14.6
-2 -28 2 8.2 9.3
-2 -2 -28 21.8 15.2
-2 -2 28 25.8 13.9
2 -28 2 12 9.8
2 -2 -28 0.7 11.4
2 -2 28 12.3 11.9
2 2 -28 13.1 11.1
2 2 28 4.9 11.4
-2 -28 -2 0.8 8.7
0 -28 -4 62.29 22.2
0 -28 -4 35.2 17.8
-28 0 -4 37.5 15.7
-4 0 28 56.69 20
-4 -28 0 35.4 18.1
-4 -28 0 49.6 16.3
0 -4 28 76.39 22.1
-4 0 -28 64.49 20.9
0 -28 4 64.59 22.2
0 4 28 55.29 18.7
4 -28 0 40.7 18.8
4 -28 0 62.89 18.2
0 4 -28 46.8 17.4
4 0 -28 79.59 22.2
4 0 28 70.49 20.5
-28 -4 0 67.99 19.5
-28 4 0 40.5 16.3
0 -28 4 41.3 16.1
-28 0 4 53.89 20
-2 -4 -28 203.58 35.2
-2 4 28 108.19 31.1
-4 -28 -2 180.18 30.9
2 -4 28 147.19 31.8
-2 -28 4 168.58 34.8
-2 -28 4 120.39 28.8
2 4 -28 196.48 32.9
-28 -4 2 143.99 30.9
-28 4 -2 136.79 30
2 -28 -4 132.29 32.7
2 -28 -4 143.99 30.2
28 2 -4 195.68 32
-28 -2 -4 150.28 30.7
4 -2 -28 184.88 33
4 -28 2 153.08 29.4
4 2 28 148.49 31.6
4 -28 2 130.39 33.8
-4 -28 -2 135.09 30
-4 -2 28 92.49 30.5
-4 2 -28 146.89 31.5
-28 2 4 138.09 33.5
-28 4 2 129.09 32.6
2 4 28 141.39 32
4 -28 -2 168.88 34.8
-4 2 28 109.99 31.5
-2 -28 -4 132.19 32.5
4 -28 -2 158.48 30.6
28 4 -2 136.29 30.7
-2 4 -28 149.39 31
-2 -28 -4 82.89 27.7
2 -4 -28 149.59 33.2
2 -28 4 167.08 33.8
2 -28 4 140.09 29.1
-28 -2 4 156.28 32.3
-28 2 -4 140.99 29.7
-4 -2 -28 181.58 35.1
-28 -4 -2 184.58 32.8
4 -2 28 116.39 29.2
-4 -28 -4 277.57 54.49
-4 -28 -4 218.78 51.49
-4 -28 4 422.96 58.49
-4 -28 4 311.77 53.49
-4 -4 -28 298.97 56.19
-4 -4 28 273.97 54.99
-4 4 -28 339.27 54.19
-28 -4 -4 349.77 54.59
4 -28 4 303.37 52.89
-28 -4 4 225.08 53.39
28 4 -4 380.36 55.49
4 -28 -4 308.97 57.29
-4 4 28 428.46 58.39
4 4 -28 411.46 56.79
4 4 28 320.87 55.09
4 -28 -4 329.67 54.49
0 -6 -28 32.3 19
-6 -28 0 45.5 18.5
-28 0 6 46.8 19.4
6 -28 0 36.7 18.7
6 -28 0 55.59 17.2
28 0 -6 49.4 17.1
6 0 -28 75.49 20.2
6 0 28 28 14.3
28 6 0 44.1 16.4
0 -28 -6 30 13.6
0 -28 6 67.29 21.2
-28 -6 0 62.29 18.2
-28 6 0 34.5 15.6
-6 0 -28 26 15.8
-6 0 28 23.8 16
0 -28 -6 59.99 21.2
0 -6 28 38.3 17.7
0 6 -28 66.39 18.8
-28 0 -6 46.6 16
-6 -28 0 32.4 15.3
0 -28 6 59.09 17.3
2 6 -28 200.98 33.4
-2 -28 6 154.08 34
-2 -28 6 152.48 30.7
-28 -2 -6 115.69 29.2
-6 -2 28 185.08 34.4
-6 2 -28 177.18 32.6
-28 -6 2 107.19 30.9
2 -6 28 145.39 32
6 -28 2 158.88 30
6 2 28 135.49 31.5
28 2 -6 161.88 31.4
2 -28 -6 130.19 29
2 -28 -6 138.89 33.9
6 -2 -28 204.78 33.9
-28 2 6 121.59 31.6
-6 -28 -2 163.18 33.5
-6 -28 -2 147.19 30.4
-2 6 28 97.49 28.6
-6 -28 2 130.39 29.6
-6 2 28 97.99 30.9
-6 -28 2 198.48 34.7
2 6 28 123.49 31.4
-2 6 -28 151.98 31.4
-28 -6 -2 159.08 30.8
6 2 -28 136.59 30.7
-2 -28 -6 157.68 34.7
2 -28 6 154.48 31.3
-28 -2 6 183.98 34.5
6 -2 28 158.58 32
-6 -2 -28 184.38 34.7
-2 -6 28 147.49 33.2
-2 -28 -6 137.39 30.1
6 -28 -2 186.98 32.1
2 -6 -28 204.28 35.4
2 -28 6 148.29 33.5
28 6 -2 182.98 32.8
28 -2 -6 183.68 32.1
6 -28 -2 171.88 35.3
-28 6 2 126.29 30.8
-6 -4 28 281.87 64.19
-6 4 -28 451.05 66.19
-28 -6 4 530.85 69.09
-4 -28 6 464.85 66.89
4 -28 -6 401.96 68.29
-4 6 28 310.57 64.29
-6 -28 -4 332.17 63.59
-28 -4 -6 420.46 65.39
28 4 -6 446.56 66.79
6 4 28 406.86 66.49
-6 -28 -4 508.15 68.39
-4 -28 6 388.06 67.09
4 -6 28 412.36 66.19
6 -28 4 431.66 65.29
-28 4 6 413.96 66.99
-4 -6 -28 333.57 66.89
4 -28 -6 394.56 65.29
-4 -6 28 501.85 70.59
-6 4 28 323.57 65.49
4 -28 6 379.66 64.39
6 -4 28 401.16 66.09
-6 -28 4 416.76 68.49
4 6 28 429.06 67.29
6 -28 -4 402.86 68.69
-6 -28 4 368.86 70.69
-4 -28 -6 297.27 65.09
-6 -4 -28 366.36 67.69
-28 6 4 468.35 68.29
28 6 -4 438.36 66.59
-28 -4 6 345.17 65.99
-28 -6 -4 441.86 66.19
6 4 -28 391.46 65.89
6 -28 -4 410.36 65.39
6 6 -28 548.95 82.99
-6 6 28 376.36 80.59
-28 -6 -6 521.25 81.79
6 6 28 516.65 82.69
28 6 -6 527.95 82.09
-6 -28 6 538.15 83.29
6 -6 28 576.64 82.39
-6 -6 28 605.74 84.59
6 -28 6 403.06 79.09
-6 -28 6 534.05 81.99
-6 6 -28 585.14 81.89
-28 -6 6 403.06 81.29
-28 6 6 557.74 83.79
6 -28 -6 487.15 84.09
6 -6 -28 629.14 84.19
6 -28 -6 491.25 81.39
-8 -28 0 3.9 9.2
0 -8 -28 -1 12.5
0 -8 28 7 12.8
28 8 0 14.4 12.3
-8 -28 0 8.8 9.6
28 0 -8 9.6 11.6
-28 0 8 -7.9 9.9
0 8 -28 21.7 11.5
0 -28 -8 24.7 10.7
0 -28 8 6.1 13.4
0 -28 8 16.8 10.2
8 0 -28 17.3 11.8
8 0 28 4.7 10
8 -28 0 17.5 9.2
0 -28 -8 16.1 15.4
-28 -8 0 6.3 9.3
-8 0 -28 11.6 15.6
-8 0 28 9.6 12.6
0 8 28 28.2 15.2
-2 8 28 8.5 11
-2 -28 8 15.6 14.2
-2 -28 8 18 11.1
2 -28 -8 7.8 13.4
8 2 28 5.9 10.4
-8 -28 -2 9 7.8
-8 2 -28 14.2 11.3
-28 2 8 1.9 11.6
8 -2 -28 7.1 11.6
28 2 -8 1.7 9.9
2 -8 28 -6.6 8.1
28 8 2 28.2 13.7
2 8 -28 18.1 11.4
-28 -8 2 18.3 11
2 -28 -8 24.7 11.5
-8 -2 28 6.1 10.2
8 -28 2 15.4 9.6
-8 -28 -2 6.7 11.7
-2 -28 -8 13.7 10.9
-2 -8 28 17.1 13.3
-2 8 -28 31.3 17.2
28 -2 -8 15.1 10.6
8 -28 -2 17.2 10.7
-2 -28 -8 -3.1 10.7
-28 -2 8 6 12.8
8 2 -28 17.1 12.2
2 8 28 13.2 11.2
28 8 -2 19.2 12.2
-8 -28 2 18.6 11.6
2 -8 -28 -5.6 12.3
8 -28 -2 16.9 14.3
-8 -28 2 7.7 9.2
8 -2 28 11.5 9.9
-8 2 28 19.7 14.5
-8 -2 -28 -6.3 10.1
-28 -8 -2 13.4 11.3
-28 -8 4 182.58 35.2
4 -28 -8 225.38 38.1
-4 -28 8 181.38 36.6
-4 8 28 169.28 35.4
-28 -4 -8 147.79 32.5
8 4 28 175.78 35.1
-4 -8 -28 253.97 40.3
8 -4 -28 204.88 34.5
8 -28 4 183.58 32.5
-4 -28 8 156.08 32.2
-28 -4 -8 209.08 34
4 8 -28 116.69 31.5
-28 4 8 183.88 36.4
-8 4 -28 204.28 33.9
-8 -28 -4 112.49 30.5
28 8 4 195.88 34.8
-8 -4 28 108.19 33.4
4 -28 -8 233.48 35.2
28 4 -8 184.28 34.5
-8 -28 -4 207.28 36.6
-28 8 4 179.98 36.1
8 -28 -4 161.78 37.1
8 -28 -4 192.78 34.3
-4 8 -28 167.78 33.3
-28 -8 -4 204.08 35.1
-8 4 28 124.29 32.3
-4 -28 -8 158.68 33.7
-4 -28 -8 122.09 31.2
-28 -4 8 211.08 37.3
28 -4 -8 168.18 33.6
4 -8 -28 204.18 35.4
28 8 -4 173.58 34.2
4 -28 8 186.98 33.5
-8 -28 4 141.99 32.1
8 4 -28 104.09 31.2
-4 -8 28 155.18 36
-8 -28 4 192.58 34.3
4 8 28 147.89 34.2
-8 -4 -28 212.58 38.3
-6 -28 8 272.07 50.09
-28 -8 6 329.27 50.69
-28 6 8 278.47 54.29
-6 -8 -28 372.16 53.89
-8 -6 28 348.17 51.39
6 -28 -8 224.08 50.19
6 -28 -8 259.27 46.7
8 -6 -28 289.37 49.6
28 6 -8 321.67 49.99
-28 -6 -8 308.57 48.8
8 6 28 255.77 48.9
6 8 -28 191.28 46.4
-6 -28 8 307.17 48.8
-28 -6 -8 247.98 46.4
6 -8 -28 339.27 50.79
-28 -8 -6 209.08 47.5
-8 -28 6 358.26 50.99
-6 -28 -8 283.17 49.8
-28 -8 -6 288.17 48.7
-8 -6 -28 363.16 53.99
8 -28 -6 249.58 51.19
8 6 -28 344.27 50.59
28 8 -6 267.17 48.7
-28 -6 8 203.68 47.6
-28 8 6 234.08 49.5
8 -28 -6 287.77 48.1
-8 -28 6 229.08 48
6 8 28 233.98 48.8
-6 -8 28 190.88 47.9
-6 8 -28 310.67 48.1
-8 -8 28 93.19 25.6
8 -28 -8 89.29 20.2
-8 -28 8 71.29 22
8 8 28 79.19 22.9
-28 -8 -8 94.89 20.8
8 8 -28 140.39 24.7
-28 -8 8 43.4 18.4
-28 8 8 62.89 24
-8 -28 -8 46.6 20.3
-28 -8 -8 53.99 19.4
8 -8 -28 91.59 23.5
8 -28 -8 69.79 25.1
-8 -28 -8 86.99 20.4
-8 8 28 72.39 22.6
-8 -28 8 82.39 22.3
-8 -8 -28 104.49 28.3
28 8 -8 85.69 22.7
28 0 -10 40.4 16.5
-10 -28 0 36.7 14.8
0 -10 -28 55.09 21.7
0 10 28 40.6 17.6
10 0 28 75.69 23.3
28 10 0 62.49 18.8
10 -28 0 50.09 16.2
10 0 -28 72.39 20.5
-10 -28 0 62.89 20
-10 0 -28 48.8 19.4
-28 -10 0 56.99 18.9
0 -10 28 61.59 20.6
0 10 -28 84.59 21.3
-10 0 28 54.69 18.9
0 -28 -10 45.3 18
0 -28 10 54.49 17.3
-28 0 10 56.99 20.7
0 -28 -10 63.29 18.2
2 -28 -10 4.6 6.8
2 -10 28 5.2 11.2
10 2 28 1.2 8.6
10 -2 -28 1.3 8.7
-28 -10 2 11.6 10.4
2 -28 -10 -4 12.1
-10 -2 28 -1.2 10.4
-10 2 -28 5.8 9.4
-10 -28 -2 4.6 7.5
-2 -28 10 10.9 9
2 10 -28 11.4 9.9
-2 10 28 17.5 11.9
-28 2 10 2.7 12.2
-10 -28 -2 3.4 11.6
28 2 -10 6.6 10.4
28 10 2 7.2 10.1
-2 -10 -28 13.8 14.7
-2 -28 10 15.7 12.4
-10 -28 2 -15.3 8.2
-10 2 28 -2.2 9.8
-28 -2 10 -7.3 9.8
2 -28 10 1.9 10.4
10 -28 -2 -6.4 9.6
28 10 -2 3.4 9.6
-2 -28 -10 1.4 9.4
2 -10 -28 -0.1 9.8
-10 -28 2 -1.8 8
-10 -2 -28 4.8 11.8
-2 -10 28 1.6 11.8
-2 10 -28 6.8 8.5
10 2 -28 6.8 8.3
-2 -28 -10 10.1 9.2
10 -28 -2 15.4 9.6
28 -2 -10 -0.7 9.7
-28 -10 -2 11.4 8.9
2 -28 10 19.5 8.4
-4 -28 10 70.89 21.6
10 -4 -28 53.19 18.4
-28 -10 4 46.3 16.5
-4 -28 10 49.1 16.5
-4 -10 -28 50.19 21.5
4 -28 -10 76.49 23.8
-4 10 28 46.4 18.4
4 10 -28 53.29 17.6
-28 4 10 68.19 22
-10 -4 28 39.5 18.6
-10 -28 -4 48.3 14.8
28 4 -10 70.59 19.7
4 -28 -10 61.69 16.5
-10 -28 -4 69.19 20.5
10 4 28 53.19 17.3
10 -28 -4 46.3 19.5
-4 -10 28 52.29 20
-28 -4 10 19.9 16.5
-4 10 -28 56.09 16.6
28 -4 -10 43.2 17.2
10 4 -28 36.9 15.5
-10 -4 -28 58.09 21.3
28 10 -4 65.79 18.2
-10 -28 4 27.3 14.6
10 -28 -4 66.89 18.3
-28 -10 -4 42.7 16.2
-4 -28 -10 71.79 17.9
-4 -28 -10 70.09 21.7
-10 -28 4 41.4 17.9
4 -10 -28 12.6 15.8
-10 4 28 62.29 19
4 10 28 33.2 16.9
10 -6 -28 111.79 24.4
10 6 28 68.69 20.9
-6 10 28 28.3 16.8
6 -28 -10 67.19 19.8
-6 -10 -28 22.7 19.6
-28 -10 6 60.19 20.3
-28 6 10 74.89 22.8
6 10 -28 99.19 23.3
-6 -28 10 61.59 21.3
-6 -28 10 69.99 20.9
28 6 -10 90.09 22.3
6 -28 -10 88.59 26
-10 -28 -6 85.69 21.8
-10 -28 -6 70.79 18.7
-10 -6 28 80.09 23.3
-10 -6 -28 67.79 23.6
-10 6 28 62.19 20.1
-6 -28 -10 75.19 22.5
-6 -28 -10 42.3 16.6
10 -28 -6 69.09 19.7
28 -6 -10 118.69 22.9
-28 10 6 67.09 21.8
6 -10 -28 58.29 22.3
10 -28 -6 92.39 26
-28 -10 -6 98.79 20.3
10 6 -28 83.49 22
-28 -10 -6 59.99 20.2
-28 -6 10 57.29 21.2
-6 -10 28 52.39 21.2
-10 -28 6 44.2 19.6
-10 -28 6 65.99 19.5
6 10 28 49.99 20.5
28 10 -6 68.89 20.6
-28 8 10 -7.7 10
-10 -8 28 -0.6 12
-28 -8 -10 15.4 9.7
-10 -28 -8 7.7 11
8 -28 -10 5 12.5
28 8 -10 -1 9.5
-8 -28 10 3.8 8.6
-10 -28 -8 9.5 8.3
-8 10 28 0 9.4
-8 -10 -28 5 13.9
-28 -10 8 -3.9 8.7
8 -28 -10 -1.7 6.7
-28 -8 -10 -8.9 9.1
8 10 -28 10.7 9.9
10 -8 -28 -4.4 12.9
-8 -28 10 2.2 8.5
-28 10 8 -10.5 10.1
-28 -10 -8 18.6 9.8
28 -8 -10 6.9 9.5
10 -28 -8 6.6 7.7
-10 -28 8 4.7 12.8
-8 -10 28 2.9 12.5
8 -10 -28 6.8 13.2
-28 -8 10 -4.4 14.2
-10 -28 8 3.6 9.9
-28 -10 -8 1.1 9
10 8 -28 12.4 10.2
8 10 28 -0.3 9.1
-8 -28 -10 -3.7 10.7
-8 -28 -10 1.4 6
28 10 -8 6.8 10.1
10 -28 -8 -10.2 11.9
-10 -8 -28 -0.9 12.8
28 10 -10 21.9 14.5
-28 -10 10 16.9 11.9
-28 -10 -10 59.29 16.3
10 -28 -10 29.3 13.9
10 10 -28 27.2 14.6
-28 -10 -10 55.79 19.8
10 -10 -28 12.1 13
-10 -10 -28 35 19.6
-10 -10 28 27.3 16.1
10 10 28 35.8 15.4
28 -10 -10 59.59 15.7
10 -28 -10 30.1 18.1
-10 -28 -10 33.9 15.3
-10 -28 10 23.7 11.8
-28 10 10 32.4 18
-12 -28 0 10 8.3
0 12 -28 33.4 13.3
0 -28 12 -11.4 9.2
0 -28 -12 22.1 9.1
12 0 -28 22.2 12.8
-12 -28 0 15.4 12.1
0 12 28 1.1 10.6
28 0 -12 21.4 13
-28 0 12 -2.1 10.6
-28 -12 0 26.9 12.4
28 12 0 26.7 13.6
0 -28 12 24.7 10.9
-12 0 28 9.8 9.2
0 -28 -12 5.6 12
0 -12 28 7.5 12
0 -12 -28 12 15
-2 -12 -28 1.9 11
2 12 -28 -6.9 8.4
28 12 2 9 10.2
2 -28 -12 2.5 13.4
-2 12 28 3.7 9.2
-12 -28 -2 9.3 8.2
28 2 -12 17.4 12.6
-2 -28 12 10.8 9.8
2 -28 -12 -0.7 7.4
-2 -28 12 -2.3 12
-12 -2 28 -0.3 7.5
-28 2 12 3.6 12
-12 -28 -2 6.2 9.4
-28 -12 2 11.3 9
12 -2 -28 15.6 9.4
-12 -28 2 6.5 11.6
-2 -28 -12 0.4 10
-12 -28 2 2.1 7.1
28 -2 -12 21.6 11.3
-28 -12 -2 3.1 7.7
-2 -28 -12 11 8.7
28 12 -2 16.1 11.5
-28 -2 12 9 12.9
-2 12 -28 17.9 10.9
-12 2 28 -6.7 8.8
2 12 28 -8.4 9.3
-2 -12 28 7.2 12.2
12 2 -28 5.2 7.4
2 -12 -28 -2.9 12.2
-4 -28 12 113.49 23.8
-4 12 28 106.09 25.5
-28 -12 4 63.19 21
4 -28 -12 70.49 21.4
-28 4 12 104.09 28.2
12 -4 -28 83.59 23.7
-4 -28 12 91.69 26.6
28 4 -12 118.89 23.9
4 -28 -12 114.29 30.2
-12 -28 -4 50.19 21.6
-12 -28 -4 69.69 20.7
-4 -12 -28 119.89 30.7
4 12 -28 151.78 26.4
12 4 -28 100.59 24.9
-12 -4 -28 87.09 26.2
-4 -28 -12 84.29 25.5
-4 -12 28 63.69 23.8
-4 -28 -12 115.79 22.1
28 -4 -12 132.19 25.1
-12 -28 4 59.99 20.8
12 -28 -4 102.49 21.7
-12 4 28 42.8 20.8
4 12 28 63.99 23.2
-28 -12 -4 118.69 24.1
4 -12 -28 87.09 24.7
28 12 -4 109.79 24.9
-12 -28 4 101.49 22.2
-28 -4 12 123.89 28
6 -28 -12 80.99 20.9
6 -28 -12 122.19 29
-6 -28 12 77.59 21.8
12 6 28 64.09 21.5
-12 -28 -6 71.59 21.5
-28 -12 6 74.99 21.5
28 6 -12 76.99 21.9
-28 6 12 79.79 25
6 12 -28 90.59 23.8
12 -6 -28 64.89 19.9
-6 12 28 52.69 20.2
-12 -6 28 53.99 19.8
-6 -12 -28 89.79 25.8
28 -6 -12 107.59 22.3
-28 -6 12 54.89 21.8
-12 -28 6 107.19 21.4
12 -28 -6 110.69 28.8
6 12 28 92.79 22.8
-28 -12 -6 77.29 21.6
-12 6 28 94.89 28.4
-12 -6 -28 66.19 24.9
12 6 -28 42.2 20.3
6 -12 -28 67.09 23
-6 -28 -12 53.49 21.4
-6 -12 28 104.09 27.1
-28 -12 -6 35.3 18.6
12 -28 -6 71.49 19.7
-12 -28 6 63.09 20.9
28 12 -6 103.39 21.1
8 12 -28 17.3 14.2
-8 -12 -28 2.9 15
-8 -28 12 10.1 10.5
12 8 28 16 10
-28 8 12 11.5 21.4
-28 -12 8 6.4 10.6
8 -28 -12 15.8 16.6
-12 -8 28 7.1 13.3
28 8 -12 17.5 10.3
12 -28 -8 14.1 9.2
-28 -12 -8 2 13.6
12 8 -28 10.6 11
12 -28 -8 -5.3 14
-12 -28 8 12.5 9.5
-28 -12 -8 23 10.4
-12 -8 -28 19.2 14.6
8 -12 -28 2.1 11.6
-28 -8 12 -7 10
28 -8 -12 20.5 10.9
-8 -12 28 9.8 14
8 12 28 3.8 6.6
-10 -28 12 14.1 10.8
28 10 -12 0.2 10.9
10 -28 -12 -15.3 13.2
-28 10 12 5.2 12.8
10 12 -28 11 11.3
-10 -12 -28 4.3 15.8
-28 -12 -10 14.3 8.8
28 -10 -12 25.7 13
10 12 28 -5.7 8.3
28 12 -10 13.5 12.1
12 10 -28 25.5 10.6
10 28 -12 5.9 10.2
-10 -12 28 -0.2 13.5
-28 -12 -10 7.2 11.8
-12 -10 -28 -4.8 13.2
-12 28 12 -7.4 6.8
12 -28 -12 -5.7 14.8
0 -28 -14 4.1 6.7
28 14 0 10.4 10.4
-28 0 14 5.8 11.8
-14 -28 0 15.5 13
28 0 -14 11 8.7
-28 -14 0 11.2 8.1
0 -14 -28 -1.4 9.6
0 14 -28 9.8 9.8
0 -28 -14 -3.5 10.7
14 0 -28 11.2 11.6
0 14 28 13.4 11.6
-14 -28 -2 61.89 20.9
-28 2 14 71.89 22.8
-28 -14 2 106.29 20.8
2 -28 -14 51.79 22.5
2 14 -28 90.69 23.6
2 -28 -14 30.7 15
-2 -28 14 46.7 21.2
28 2 -14 74.49 21.1
14 -2 -28 68.09 20
-2 -28 14 59.69 17.8
14 2 -28 74.29 19.3
28 14 -2 104.99 23.5
-2 -14 28 43.4 18.5
-14 -28 2 72.69 20.2
-28 -14 -2 67.69 20.2
28 -2 -14 75.99 21.3
2 14 28 99.89 23.9
-2 -28 -14 16.6 18.9
-28 -2 14 31.4 17.6
2 -14 -28 64.39 22.5
28 4 -14 322.07 50.59
-28 4 14 202.68 49.99
-4 -28 14 288.57 49.9
4 -28 -14 281.77 53.19
4 -28 -14 218.38 47.4
-28 -14 4 287.17 50.19
-28 -14 -4 315.87 50.89
-4 -14 28 236.58 51.29
-28 -14 -4 331.07 51.49
-28 -4 14 298.57 52.29
28 -4 -14 322.87 51.39
4 -14 -28 320.77 52.99
28 14 -4 275.37 50.19
14 4 -28 319.07 50.69
4 14 28 300.37 50.29
-28 6 14 225.88 45.3
-28 -14 6 290.67 43.2
-6 -28 14 260.87 42.7
-6 -14 -28 329.77 48.6
6 -28 -14 183.48 45.2
28 6 -14 166.88 45
6 14 -28 228.48 43.2
-28 -6 14 169.48 41.5
28 -6 -14 267.67 43
6 14 28 149.99 39.7
28 14 -6 242.88 44.9
14 6 -28 200.78 41.4
-28 -14 -6 254.77 42.4
-28 8 14 83.19 29
8 -28 -14 93.19 29.1
-8 -14 -28 46.1 24.1
8 14 -28 124.49 25.4
-8 -28 14 98.09 20.8
-28 -14 -8 52.09 18.4
8 28 -14 103.89 23.1
-8 -14 28 64.69 23.5
8 14 28 56.39 20.8
14 -28 -8 63.89 26.3
28 -8 -14 90.59 26.4
-28 10 14 -8.7 10.4
10 14 -28 12.5 13.2
-10 -14 -28 4.5 13.5
10 -28 -14 0.1 16.6
-28 -14 -10 -0.2 9.5
14 -28 -10 0.1 16.7
10 14 28 -3.4 9.6
28 -10 -14 32.5 13.4
10 28 -14 22 12.6
-14 -10 -28 8.1 14.8
28 16 0 27.2 14.1
-28 0 16 11.1 13.9
-28 -16 0 21.8 11.4
28 0 -16 47.7 18.9
28 2 -16 91.09 26.9
-28 2 16 115.49 29
28 16 -2 94.29 25.9
28 -2 -16 115.79 27.9
-28 -16 -2 138.99 26
4 16 -28 342.27 60.19
-4 -28 16 380.16 61.59
28 -4 -16 329.17 59.99
-28 -16 -4 394.96 61.49
-6 -28 16 359.06 53.39
6 16 -28 304.67 52.29
-28 6 16 222.58 52.59
28 -6 -16 307.57 52.59
-28 -16 -6 273.37 51.79
8 16 -28 162.28 32.7
-8 -28 16 153.18 30.3
-28 -16 -8 121.29 33.2
-28 -16 -8 123.29 27.6
28 -8 -16 150.78 32.6
-29 -1 -1 169.18 34.1
-29 -1 1 138.09 43.1
-29 1 -1 186.88 35.1
-29 1 1 128.89 33.1
-1 -29 -1 158.38 34.7
-1 -29 -1 164.78 32.3
-1 -29 1 146.59 34.7
-1 -29 1 146.09 30.9
-1 -1 -29 207.78 35.8
-1 -1 29 142.19 34.1
-1 1 -29 121.99 32.4
-1 1 29 159.98 34.2
1 -29 -1 195.48 37.5
1 -29 -1 136.99 31.4
1 -29 1 161.78 37.6
1 -29 1 178.98 32.6
1 -1 -29 181.78 34.9
1 -1 29 154.38 33.6
1 1 -29 153.28 33.6
1 1 29 176.98 34.5
-29 -1 -3 -6 8.8
-3 1 -29 -3.3 10
-3 -1 29 4.2 11.2
-29 1 3 3.6 10.6
29 1 -3 18 11.6
3 1 29 10.6 10.5
-1 -3 -29 -13.5 10.7
-1 -29 3 5.5 12.8
-1 -29 3 3.2 8.5
-1 3 29 -1.7 8.7
1 -29 -3 5.4 10.1
1 -3 29 -0.5 8.7
1 3 -29 5 9.3
3 -1 -29 3.9 11.3
-29 -3 1 -1.6 9.8
-29 3 -1 13.5 12.3
3 -29 1 -10.2 9.5
3 -29 1 2 7.8
29 3 1 25.1 8.7
1 -29 -3 -0.3 11.8
-3 -29 1 -2.3 7.6
-29 -3 -1 -9.2 7.8
3 -29 -1 0.6 11.5
3 -29 -1 10.4 9.4
-29 3 1 -5.2 9.9
-3 -29 1 -5.6 8.5
-29 1 -3 -0.3 10.9
-29 -1 3 -2.1 10.6
-3 1 29 -0.2 9.7
-1 -29 -3 5.5 12.3
-1 -29 -3 8.8 10.6
-1 -3 29 -0.3 10.7
-1 3 -29 0.1 9.6
-3 -1 -29 -6.6 10.6
1 -3 -29 -8.5 10.7
1 -29 3 -3 11.5
1 -29 3 0.2 5.9
1 3 29 -0.8 9.6
3 -1 29 -8.4 7.8
3 1 -29 -0.9 8.7
29 -1 -3 16.6 7.5
29 3 -1 8 9
-29 -3 3 73.99 23.4
-29 -3 -3 84.39 23.1
-3 -29 3 81.29 21.3
-3 -3 -29 105.99 26.3
-3 -3 29 89.39 25
-3 3 -29 50.59 19.6
-3 3 29 74.09 33.6
3 -29 -3 104.59 27.5
3 -29 -3 79.99 21.9
3 -29 3 108.89 27.4
3 -29 3 91.79 20.5
3 -3 -29 31.4 20.1
3 -3 29 47.4 19.8
3 3 -29 101.39 20.9
3 3 29 78.79 22.9
29 3 -3 72.19 21
-3 -29 -3 84.59 24.9
-3 -29 -3 69.39 20.4
-3 -29 3 76.59 23.5
-29 3 3 68.29 22
29 1 -5 21.2 12.6
1 -5 29 4.8 12.2
-29 1 5 30.4 16.7
5 1 29 24.2 14
5 -1 -29 38.4 15.7
-29 -5 1 33.3 15.1
5 -29 1 25.2 16.2
1 -29 -5 23.1 12.3
1 5 -29 27.9 13.4
-5 -29 -1 24 15.8
-1 5 29 13.1 12.7
-5 1 -29 24.6 13.8
5 -29 1 18.4 11.1
-1 -5 -29 9.4 14.6
-1 -29 5 32 13
-1 -29 5 25.2 17
-5 -29 -1 25.1 11.4
1 -29 -5 45.4 20
-5 -1 29 3.2 13.4
-29 -1 5 22.7 15.9
1 -29 5 20.7 12.3
5 1 -29 32.1 19.9
1 -29 5 27 15.9
-1 -29 -5 28.7 12.4
5 -29 -1 39.4 13.6
-5 -29 1 42.4 17.6
-5 -29 1 25.6 12.2
-1 -29 -5 18 15.6
-1 -5 29 25.3 15.5
-1 5 -29 9 10.6
29 5 -1 28.9 13.3
1 -5 -29 4.7 13.6
5 -1 29 22.6 12.9
-5 1 29 25.7 14.6
-29 -5 -1 21.4 13
5 -29 -1 33.6 17.7
1 5 29 24.3 14.8
-5 -1 -29 23.9 15.2
5 -29 3 192.48 33.3
-29 -5 3 147.99 33.9
-5 -29 -3 190.08 36.5
-5 -29 -3 148.19 32.3
3 5 -29 119.59 30.8
-3 5 29 152.08 34.8
-5 -3 29 164.48 35.9
3 -5 29 150.48 33.7
-29 -3 -5 159.88 33.1
-3 -5 -29 118.59 35.2
-29 3 5 156.28 35
-3 -29 5 162.58 36.1
-3 -29 5 163.78 33.6
3 -29 -5 205.48 38.9
3 -29 -5 189.88 34.4
5 3 29 154.68 33.7
5 -3 -29 170.78 34.8
-5 3 -29 225.28 36.1
-3 -5 29 161.98 35.6
3 5 29 178.78 33.9
-5 3 29 127.09 34.2
-29 -5 -3 189.88 35.1
5 3 -29 222.58 36.9
-29 5 3 230.98 37.4
-5 -3 -29 144.99 36.4
3 -5 -29 192.68 36.4
5 -29 -3 223.78 39.7
-3 -29 -5 178.38 33.3
29 5 -3 187.78 34
-29 -3 5 169.98 35.2
5 -3 29 179.88 34.3
-5 -29 3 173.08 36.6
-5 -29 3 148.39 32.2
-3 -29 -5 128.39 35.6
3 -29 5 108.69 38
5 -29 -3 163.18 33
-5 -29 -5 325.37 55.69
-29 -5 -5 279.47 52.69
-29 -5 5 328.87 56.09
-5 5 29 371.56 55.79
5 -29 -5 394.66 59.29
5 -29 -5 323.17 53.99
-29 5 5 294.67 54.89
5 -29 5 341.17 53.19
-5 -29 -5 414.46 55.49
-5 -29 5 409.46 57.69
-5 -29 5 272.37 52.69
-5 -5 -29 260.87 55.49
-5 -5 29 365.36 56.99
-5 5 -29 242.48 51.89
29 5 -5 349.07 54.39
5 -5 -29 230.88 51.79
5 5 29 290.17 54.29
5 5 -29 273.17 52.99
5 -5 29 296.37 53.89
-1 -7 -29 -3.2 13.5
1 -29 -7 2 9.2
-1 -29 7 -1.2 7.1
-7 -29 -1 0.4 8.7
-7 -29 -1 -9.3 7.5
29 7 1 4.5 9.2
-1 -29 7 0.2 12
1 -7 29 0.7 10.3
1 7 -29 13.1 9.9
-29 1 7 -12.8 8.5
-29 -7 1 -1 8.7
7 -29 1 -4.8 10.8
7 -29 1 3.7 9
29 1 -7 4.6 9.5
-7 -1 29 -5.3 7.8
-7 1 -29 2.1 9.7
-1 7 29 2.3 10.6
7 -1 -29 10.8 9.6
-7 1 29 -5.1 9.9
1 -29 7 -11.6 9
1 -7 -29 -11.5 12.2
-1 -7 29 -6.3 9.2
-29 -1 7 -5.7 10.3
1 7 29 0.7 9.8
7 -29 -1 5 9.3
7 -1 29 1.6 8.4
7 1 -29 7.4 8.2
-1 -29 -7 2.8 6.9
29 7 -1 8.9 9.7
-29 -7 -1 10.8 10.4
-7 -29 1 1 8.4
-7 -29 1 -1.5 8.1
-1 -29 -7 -0.1 13.1
29 -1 -7 -2.1 8.8
-1 7 -29 8.3 9.6
7 -3 -29 105.19 26.7
-29 3 7 109.19 37.3
-7 -3 29 57.19 23.4
-3 -29 7 128.79 30.2
-29 -7 3 126.39 27
-3 -29 7 126.89 25.8
3 -29 -7 104.59 29.6
3 -29 -7 98.69 24.3
7 3 29 99.39 27.6
3 7 -29 56.29 22.6
-7 -29 -3 87.69 25
-7 -29 -3 102.69 22.4
29 7 3 118.49 25.4
3 -7 29 69.89 24.7
-3 -7 -29 75.29 26.9
29 3 -7 111.69 24.9
-3 7 29 121.29 25.8
-3 -7 29 66.89 24.4
-7 -29 3 65.29 22.7
-3 -29 -7 80.39 21.4
3 7 29 115.99 26.7
-7 -3 -29 88.99 27.3
7 -29 -3 117.09 24.2
-7 3 29 131.29 29.8
-3 -29 -7 86.79 26.6
7 -3 29 64.59 22.8
-7 -29 3 109.79 24.7
-29 -3 7 99.29 27.3
3 -7 -29 120.39 29
29 -3 -7 129.69 25.4
-3 7 -29 142.89 26.2
7 3 -29 178.58 27
7 -29 -3 148.19 32.8
29 7 -3 146.89 27
3 -29 7 117.29 23.7
5 -29 -7 235.68 49.3
5 7 -29 194.78 47
7 5 29 296.97 50.49
-7 -5 29 274.77 50.49
-7 5 -29 275.77 57.29
-7 -29 -5 350.16 49.3
-5 -29 7 230.48 48
7 -5 -29 220.08 48
-5 -29 7 275.17 50.69
29 5 -7 329.37 50.39
-29 5 7 337.37 52.49
-5 -7 -29 238.98 50.59
-29 -5 -7 266.77 48.4
5 -29 -7 354.36 50.49
-29 -7 5 260.17 49.1
-7 -29 -5 322.17 50.79
-7 -5 -29 306.57 53.49
-29 -7 -5 294.87 49.4
5 7 29 312.87 51.19
-7 -29 5 252.57 49.4
-5 -7 29 274.27 51.79
-29 -5 7 173.48 47.4
5 -7 -29 352.26 51.79
-29 7 5 303.97 51.79
7 -29 -5 348.47 54.49
7 -29 -5 307.57 49.1
7 5 -29 242.98 47.9
-7 -29 5 269.07 48.9
29 7 -5 350.96 50.89
5 -29 7 259.87 48.8
-5 -29 -7 240.58 49.6
-29 7 7 167.78 43
-29 -7 -7 262.37 43.3
-7 -29 7 261.77 45.3
-7 -29 7 254.17 43.9
-7 -7 -29 223.18 45.8
7 7 29 245.98 44.7
29 7 -7 262.87 43.7
-29 -7 -7 182.58 41
-29 -7 7 318.27 47.2
7 7 -29 320.07 46.5
-7 -29 -7 152.88 42.1
-7 -7 29 280.77 47.2
-7 7 29 158.08 40.3
7 -29 -7 248.88 47
7 -29 -7 286.47 44
1 -9 29 35.5 17.7
1 -29 -9 36.2 19.5
-9 -29 -1 28.9 15.6
-9 -29 -1 27.3 13.4
-9 -1 29 50.39 17.7
-9 1 -29 35.1 16.4
-1 -9 -29 31.7 18.8
-29 -9 1 35 14.8
9 1 29 63.29 19
-1 9 29 47.9 17.5
29 9 1 60.49 18.8
9 -1 -29 67.59 18.3
-29 1 9 27.6 16.3
29 1 -9 59.79 19
1 9 -29 46.1 17.1
9 -29 1 56.89 15.5
-1 -29 9 82.09 37.4
1 -29 -9 54.89 16.5
1 9 29 44.6 18.4
-29 -1 9 38.9 17.8
-9 -29 1 56.69 18.6
-1 -29 -9 38.8 20
-1 -29 -9 49.1 15.3
29 -1 -9 52.09 17.3
-9 -1 -29 34.5 17.4
-29 -9 -1 54.19 17
-1 -9 29 17.4 14.1
-1 9 -29 62.99 18.3
29 9 -1 72.09 19.6
9 -29 -1 55.99 16.7
-9 1 29 51.79 18.1
1 -29 9 57.29 21.3
1 -29 9 42.5 14.2
-9 -29 1 32.2 14.4
9 1 -29 58.59 18.6
1 -9 -29 43.5 19.6
-9 -29 -3 15 10.1
29 3 -9 34.1 12.3
-9 -29 -3 10.2 11.1
-29 -9 3 20.1 12.9
-3 9 29 15.9 11.4
-9 -3 29 0.8 9.6
3 9 -29 13.3 11.5
-3 -9 -29 5.1 14.2
3 -29 -9 14.2 10
-3 -29 9 6.1 13.4
-29 3 9 -10.4 9.8
3 -29 -9 18.4 15.3
-3 -29 9 16.4 9.9
9 -3 -29 13.8 12.3
9 3 29 2.1 9.2
-9 3 29 7.6 11.5
-3 -29 -9 9.9 9.5
-29 -9 -3 11 8.6
3 -29 9 11.6 7.8
-9 -29 3 10.3 9.5
9 3 -29 10.5 11.1
3 -29 9 2.8 9
29 9 -3 19.2 12.6
9 -29 -3 -13.1 11.9
9 -29 -3 12.6 8.8
29 -3 -9 21.6 11.9
-9 -29 3 -0.7 6
-3 -29 -9 12.6 14.7
-3 -9 29 12 13.6
-3 9 -29 17 10.9
-9 -3 -29 3.3 13
3 -9 -29 6.8 14.5
-29 -3 9 1.4 12
3 9 29 -3 10.8
29 5 -9 117.09 25.4
-5 -29 9 120.99 28.4
5 9 -29 142.19 27.1
-29 -9 5 102.39 26.4
-9 -29 -5 118.09 22.9
-5 -29 9 100.69 23
9 -5 -29 94.09 25.2
-5 -9 -29 145.39 32.2
9 5 29 107.19 26.5
-5 9 29 58.99 23.4
-29 5 9 60.99 24.1
-9 -29 -5 123.99 26.7
5 -29 -9 94.99 24.4
5 -29 -9 104.99 29.5
-9 -5 29 77.79 25.6
-29 -9 -5 132.89 25.1
-5 -29 -9 93.39 25.2
-5 -29 -9 71.29 21.9
-29 -5 9 76.89 25.8
5 -9 -29 103.89 24.7
9 -29 -5 108.99 24.2
-9 -29 5 115.39 23.4
9 5 -29 104.19 24.4
-5 -9 29 59.69 24.2
-9 -29 5 96.49 26.6
29 -5 -9 108.59 24.8
-9 5 29 64.49 24.1
5 9 29 90.19 26.3
-9 -5 -29 107.59 30
-7 -29 9 69.39 22.2
-29 7 9 43.5 22
-7 -9 -29 81.89 25.5
7 9 -29 115.89 22.2
-9 -29 -7 44.2 19.8
-7 9 29 63.99 20.5
-29 -9 7 73.69 21.7
9 -7 -29 20 16.6
-9 -7 29 69.99 22.8
29 7 -9 46.2 17.8
9 7 29 41.9 18.7
7 -29 -9 74.49 24.5
7 -29 -9 65.69 18.5
-7 -29 9 89.59 21.5
9 7 -29 31.1 15.8
-29 -7 9 49.8 18.9
9 -29 -7 56.19 17.9
29 -7 -9 71.19 19.9
7 -9 -29 105.59 24.5
-7 -9 29 41.4 19.8
-7 -29 -9 52.99 20.4
-9 -7 -29 83.09 26.9
29 9 -7 77.49 21.1
-9 -29 7 37.9 16
-29 -9 -7 100.69 20.4
-29 -9 -7 49.2 18.4
-9 7 29 57.79 19.2
9 -29 -7 68.19 24
7 9 29 68.59 20.9
9 9 -29 9.9 10.7
-9 -9 29 7.8 13.4
-29 9 9 4 12.6
-9 -9 -29 -2.6 15
-9 -29 9 10.6 13.6
-29 -9 9 8.3 9.3
-9 -29 9 18 9.5
29 9 -9 4.9 12.1
9 -29 -9 -11.2 12.5
9 -29 -9 15.9 8.5
-11 -29 -1 93.29 25.9
1 -29 -11 128.89 23.9
-29 1 11 75.19 25.8
29 1 -11 112.29 25
-29 -11 1 105.59 24.6
-11 -1 29 110.59 27.1
29 11 1 120.59 24.6
-1 11 29 98.59 23.4
-1 -11 -29 101.29 28.5
-1 -29 11 63.19 25.1
-1 -29 11 102.09 22.9
1 -29 -11 95.29 28.9
1 11 -29 113.29 24.9
-11 -29 -1 87.99 21.1
-1 -11 29 72.89 25.6
-1 -29 -11 109.89 28.3
-11 1 29 52.99 22.1
-29 -1 11 110.49 28.9
-29 -11 -1 124.69 25.6
29 11 -1 113.39 24.7
-11 -29 1 105.19 23.6
-1 -29 -11 53.59 20.7
29 -1 -11 107.79 24.8
-3 11 29 0.1 9.9
-11 -3 29 2.6 13.1
-3 -11 -29 -22 10.2
29 3 -11 1.5 6.7
-29 -11 3 2 7.6
-29 3 11 -13.7 8.4
-11 -29 -3 -5.1 9.9
11 -3 -29 3.6 8
3 -29 -11 11.8 9
3 11 -29 10.1 10.4
-3 -11 29 2.1 12
11 3 -29 9.5 10.2
-11 -29 3 5.2 11.6
-29 -11 -3 2.2 6.6
3 11 29 -7.7 9.4
11 -29 -3 4.4 12.2
29 -3 -11 12.4 9.9
29 11 -3 -2.8 10.7
3 -11 -29 -10.4 10.6
-29 -3 11 -14.9 9.5
-3 -29 -11 0.9 11.9
-3 -29 -11 2.8 6.1
-11 -3 -29 -1.7 11.3
-11 -29 3 -3.9 5
-11 3 29 -5.1 9
-29 5 11 16.4 15.4
29 5 -11 11.5 12.4
5 11 -29 11.8 12.5
-29 -11 5 15.9 11.1
-11 -5 29 7.5 13
-5 -29 11 22.9 11.8
5 -29 -11 29.6 20.3
-11 -29 -5 25.5 15.7
-5 -29 11 15.9 14.1
11 -5 -29 2.3 9.4
-5 -11 -29 6.7 12.9
5 -29 -11 10.9 9.6
-11 -29 5 23.2 12.7
-5 -29 -11 -7.4 11.9
-11 -29 5 15.4 13.3
5 -11 -29 12.6 15.3
-11 -5 -29 21.2 16.1
5 11 29 9.5 11
11 -29 -5 18.5 10.7
-29 -11 -5 14.5 17.2
-29 -11 -5 24.2 10.4
11 -29 -5 -2.9 15.9
-29 -5 11 1.9 12.2
-5 -11 29 5.6 13
11 5 -29 19.2 13.3
29 11 -5 14.8 12.7
29 -5 -11 35.1 14.2
7 11 -29 10.6 8.3
-29 7 11 -9 10.6
7 -29 -11 15.7 9.1
-11 -7 29 6.4 9.6
11 7 29 4.9 10.7
-7 -29 11 -12.6 11.8
-29 -11 7 11 10.7
29 7 -11 15.6 10
-7 -11 -29 11.1 16.5
7 -29 -11 -3.5 13.7
-29 -11 -7 -0.7 9
-11 -29 7 -2.8 8.4
-11 -7 -29 -14.2 11.9
11 -29 -7 10.7 15.9
11 7 -29 7.5 11.1
-11 -29 7 4.8 11.1
7 11 29 12.3 9.6
-29 -11 -7 15.7 9.3
-7 -11 29 -7.5 11.2
11 -29 -7 -2.1 6.7
29 -7 -11 13 9.8
29 11 -7 9.1 10.9
-29 -7 11 -1.4 10
9 11 -29 60.09 17.5
9 -29 -11 33.6 21.1
-29 9 11 15 15.5
11 9 29 22 14.7
-9 -29 11 41.3 15.6
29 9 -11 33.6 15.9
-9 -11 -29 31.6 19.9
9 -29 -11 30.7 12
-11 -29 9 32.6 16.9
29 11 -9 41.9 17
29 -9 -11 59.89 16.9
-29 -11 -9 27.7 15.2
9 11 29 23.6 14.3
11 -29 -9 33.6 20.1
-9 -11 29 4.6 15
11 -29 -9 47.1 14.3
11 9 -29 21.1 14.3
-11 -9 -29 69.79 23.4
-11 -11 -29 82.49 26.9
11 11 29 60.49 21.6
11 -29 -11 98.99 20.4
-29 -13 1 25.7 12.1
-29 1 13 29.4 16.4
-1 -29 13 19.4 15.9
-1 -13 -29 34.4 18.9
29 1 -13 35.2 14.1
1 13 -29 33.9 12.7
29 13 1 32.7 14
1 -29 -13 35.3 19.1
29 -1 -13 25.7 14.1
1 -13 -29 24.5 17.4
-29 -13 -1 38.1 15.3
-29 -1 13 19.3 15.2
29 13 -1 31.5 15.9
13 1 -29 37 17.9
-29 3 13 25.4 16.2
-3 -29 13 29.1 11.5
3 13 -29 22.5 12.6
29 3 -13 31.9 15.2
-3 -29 13 10.8 13.6
3 -29 -13 3.6 17.6
-29 -13 3 27.2 13
-3 -13 29 13.3 14.4
-29 -3 13 -1.1 12.1
-29 -13 -3 31.8 13
29 -3 -13 35.6 14.4
29 13 -3 9.6 12.1
3 13 29 10.3 12.8
-5 -29 13 74.29 24.7
-29 5 13 80.29 25.3
-5 -29 13 112.19 22.7
-5 -13 -29 58.09 24.6
5 -29 -13 102.89 26.9
-29 -13 5 98.39 21.7
29 5 -13 110.09 25.9
29 -5 -13 88.39 25
-29 -5 13 66.19 23.2
29 13 -5 87.19 23.5
-29 -13 -5 65.99 22.1
-5 -13 29 43.2 22.2
5 13 29 49.4 20.6
-29 7 13 32.5 17.7
-7 -13 -29 78.19 24.4
7 13 -29 17.6 15.2
7 -29 -13 22.8 20.1
-7 -29 13 49.6 13.8
7 13 29 29.3 15.6
-29 -13 -7 62.59 17.4
29 -7 -13 52.19 17
-29 -13 -7 8.8 11.7
-7 -13 29 33 26.3
9 -29 -13 -5.8 14.7
9 13 -29 13 10.8
-29 9 13 -5.4 11.3
-9 -13 -29 -13.7 14.6
29 -9 -13 18.8 10.7
13 -29 -9 -15.2 12
-29 -13 -9 7.7 7.8
-29 -13 -9 0.2 10.5
9 13 29 -6.6 10
-29 1 15 -1.7 11.3
29 15 1 6.6 10.2
29 1 -15 24.8 14
29 15 -1 7.9 8.9
29 -1 -15 7.2 10.1
-29 3 15 49.9 22.8
-29 -15 -3 109.99 22.5
29 -3 -15 108.69 24.3
-29 -15 -3 73.59 23.5
-29 5 15 140.89 41.5
-5 -29 15 223.38 39.3
-29 -15 -5 188.18 40.5
-29 -15 -5 250.87 40.2
29 -5 -15 222.98 40.1
-7 -29 15 186.78 31.8
7 15 -29 121.09 31.1
-29 -15 -7 132.89 32.1
-29 -15 -7 153.18 30.2
29 -7 -15 170.38 32.8
-30 0 0 350.36 64.89
0 -30 0 355.06 65.89
0 -30 0 402.56 63.69
0 0 -30 468.85 66.39
0 0 30 343.47 64.69
-30 0 2 192.48 39.3
-2 -30 0 173.48 39.3
-2 -30 0 232.18 37.9
0 -2 -30 207.78 39.3
0 -2 30 160.58 37.4
0 2 -30 240.18 39.2
0 2 30 150.78 37.4
2 -30 0 215.28 41.7
2 -30 0 173.28 35.9
2 0 30 147.79 36.7
-2 0 -30 230.08 40.7
-2 0 30 196.48 39.6
0 -30 -2 188.08 40.7
0 -30 -2 179.08 36.8
0 -30 2 197.98 40
0 -30 2 183.08 36.5
2 0 -30 259.67 41.5
2 -30 -2 75.49 24.2
2 -30 -2 93.29 22.8
2 -30 2 111.29 27.2
2 -30 2 92.39 22.1
-2 -30 -2 78.49 21.3
-2 -30 2 67.79 22.8
-2 -2 30 58.99 22
-2 2 -30 90.79 22.7
-2 2 30 60.29 21.4
-30 -2 -2 39.8 19
-30 -2 2 39.8 18.1
-30 2 2 56.09 21.2
-2 -30 -2 76.69 23.8
2 2 30 67.69 21.5
-2 -30 2 75.19 21
-2 -2 -30 35.2 20.5
2 2 -30 48.5 18.7
2 -2 30 68.59 21.7
4 -30 0 42.6 17.9
-4 -30 0 9.1 12.8
30 0 -4 9.3 8.6
0 -30 4 -11.5 10
0 -30 4 4.9 7.8
-30 -4 0 0.9 9.6
-4 0 -30 7.6 12.6
4 -30 0 5.4 9.1
-30 0 4 9.4 12.6
4 0 -30 7.6 10.2
4 0 30 -12.5 13
0 4 -30 14.3 11
0 4 30 0.2 11.6
-4 -30 0 4.7 10.3
0 -4 -30 -0.4 12.5
0 -4 30 -0.6 12.2
0 -30 -4 13.4 10.5
0 -30 -4 2.4 12.6
-4 0 30 -3.9 11.2
-4 -30 -2 0.5 11.7
-30 2 4 -1.7 11.8
30 4 2 9.5 6.8
-2 -4 -30 1.8 12.8
-4 2 -30 10.4 11.9
-4 -2 30 -5.1 12.1
4 2 30 -8.2 8
4 -30 2 4.4 6.4
-4 -30 -2 5.5 9
2 4 -30 1.8 9.7
2 -30 -4 5.3 14.2
2 -30 -4 9.5 10.4
-2 4 30 -1 11.8
-2 -30 4 3.5 12
30 2 -4 6.7 8.9
4 -30 2 -15.9 16.2
-2 -30 4 -1.2 8
2 -4 30 -18.5 7.7
-2 -30 -4 -6.3 5.3
30 4 -2 1.2 8.8
-4 2 30 1.9 11
4 -2 30 8.8 11.4
-4 -30 2 4 9.5
2 -30 4 -2.2 11
-2 -4 30 -10.2 9.8
-2 4 -30 3.9 9
-30 -4 -2 14.6 11.8
2 -4 -30 -3.4 12.6
-2 -30 -4 0.7 10.1
4 2 -30 -0.2 9.8
-30 -2 4 1.5 15.2
4 -30 -2 0.7 7.3
-4 -30 2 -16.6 10.8
-4 -2 -30 -3.3 11.3
2 4 30 -1.5 10.1
4 -30 -2 4.5 13.1
-30 -4 4 95.89 26.2
30 4 -4 92.49 23.4
-4 -4 30 45.8 21.4
-4 4 -30 103.69 22.6
4 -30 -4 95.09 27.5
4 4 30 74.19 22.9
4 -4 -30 63.19 23.2
4 -4 30 82.99 24.1
-4 -30 4 92.79 27.3
-4 -30 4 63.49 20.7
-30 4 4 99.89 26.7
-4 -30 -4 87.09 25.9
-4 -30 -4 93.59 20.6
-30 -4 -4 72.59 24.2
4 -30 -4 71.69 21.1
4 -30 4 97.79 26.7
4 -30 4 101.69 21.6
4 4 -30 83.59 23.4
-4 -4 -30 107.99 28.1
0 6 30 -6.7 10.7
0 6 -30 11.3 8.4
-6 -30 0 -6.4 11.6
6 -30 0 1.1 12.5
0 -6 -30 -11.2 11.1
0 -6 30 18.4 12.8
6 0 -30 4 10.4
6 0 30 4.8 10.4
30 6 0 21 12.7
-6 0 30 -0.5 8.5
0 -30 -6 8.2 13.4
-6 -30 0 11.9 9.6
0 -30 -6 7.6 9.2
0 -30 6 -10.6 9.9
30 0 -6 -2.6 8.2
-6 0 -30 1 10.1
-30 -6 0 1.8 8.9
0 -30 6 3.9 9.2
6 -30 2 22.4 10.8
6 -30 2 -10.9 10.1
-2 6 30 -3.6 11.4
-2 -30 6 28 16.7
-2 -30 6 21.3 11.2
2 -30 -6 16.8 15.8
-30 -6 2 9.5 11.7
-6 2 -30 22.8 13.1
6 2 30 5.6 9.3
6 -2 -30 10.3 11.4
30 6 2 4.9 8.2
-6 -30 -2 16.1 10
2 6 -30 19.3 11.5
30 2 -6 9.4 10.7
-2 -6 -30 -13.9 12
2 -30 -6 8.2 10.7
-30 2 6 -6.7 9.9
-6 -30 -2 10.4 13.4
-6 -2 30 5.1 12.4
2 -6 30 7.1 11.6
-6 -30 2 7.6 8.1
-6 2 30 4.2 9.2
2 -6 -30 10.1 14.5
-30 -2 6 2.9 13.1
-2 -30 -6 20.6 13.2
-2 -30 -6 5.9 9.5
6 2 -30 22.9 12.6
-6 -30 2 8.7 14.3
2 -30 6 18.9 10.4
-2 -6 30 -1.1 11.2
6 -2 30 6.9 10
6 -30 -2 -1.8 14.4
2 6 30 2 10.5
2 -30 6 5.6 13
30 -2 -6 6.8 6.8
-2 6 -30 22 10.9
-30 -6 -2 24.1 12
30 6 -2 22.7 11.9
-4 -30 6 148.19 33.5
6 -4 -30 164.38 33.4
4 -30 -6 119.59 34.7
-6 -30 -4 126.99 31.7
-6 -30 -4 130.59 28.3
-4 6 30 120.39 30.7
-6 -4 30 113.79 29.7
-4 -6 -30 159.88 35.4
-30 -6 4 110.29 31.9
-4 -30 6 123.69 29
-6 4 -30 192.48 33.5
30 4 -6 174.48 31.8
-30 4 6 130.29 32.7
4 -30 -6 163.48 30.9
4 6 -30 175.68 33.1
-6 -4 -30 80.29 30.4
-6 -30 4 138.09 32.7
-4 6 -30 139.49 29.4
6 -30 -4 152.08 34.9
6 -30 -4 160.68 30.5
-4 -6 30 113.79 31.9
-30 -4 6 148.79 33
4 6 30 118.89 30.2
4 -6 -30 162.98 34.2
-4 -30 -6 120.09 33
30 6 -4 205.18 33.3
6 4 -30 196.48 31.5
-4 -30 -6 108.89 27.5
-6 4 30 101.89 30.8
-6 -30 4 166.78 31.3
4 -30 6 157.68 29.3
-30 -6 -4 180.28 31.6
-6 -6 -30 342.37 50.79
6 -30 -6 241.78 43.4
-6 -30 6 263.57 46.8
-30 -6 6 253.07 46.1
-6 -30 -6 198.18 42.7
30 6 -6 264.27 44
-6 -30 6 283.97 45.4
-6 -30 -6 168.88 40.1
6 6 30 260.07 45.5
-6 -6 30 265.17 47.6
-6 6 30 189.68 43.8
6 -30 -6 204.38 46.2
6 6 -30 270.47 45.2
0 8 30 41.3 18.8
30 0 -8 86.49 24.6
8 -30 0 61.29 18.7
8 0 -30 93.19 23.5
-8 0 30 39.7 20.1
0 -30 8 81.99 25.4
0 -8 -30 25.8 20.7
-8 -30 0 80.29 24.8
-8 -30 0 80.39 18.4
-30 0 8 63.69 22.8
0 -30 8 78.59 21.5
0 -30 -8 72.39 23.4
-30 -8 0 70.69 21
-8 0 -30 78.29 22.4
0 8 -30 113.99 22.9
0 -8 30 44.4 20.3
-2 -30 8 1.8 14.9
8 2 30 11.7 11
-8 -30 -2 10.9 10.1
-30 2 8 22.3 15.5
30 8 2 20.9 12.5
30 2 -8 13.2 10.8
2 8 -30 17.7 11
-2 8 30 9 12.4
-30 -8 2 13.8 12.1
2 -30 -8 13.4 10.4
8 -2 -30 18.8 12.5
-8 -2 30 4.3 12.2
-8 -30 -2 14.1 13.9
2 -30 -8 26.1 18.3
-2 -30 8 35.8 16.9
-2 -8 -30 0.9 14.5
8 -30 -2 24.3 11.4
30 8 -2 31.6 15.3
-8 2 30 18.6 11.9
-8 -30 2 21.3 10.9
-30 -2 8 8.8 14.2
2 8 30 13.8 11.7
-30 -8 -2 21.9 11.5
-2 -30 -8 26.2 14.8
-8 -2 -30 16 14.5
-2 -8 30 -1.3 11.9
-2 8 -30 35.3 12.8
2 -30 8 0.7 12.9
2 -30 8 23.8 10.2
2 -8 -30 6.1 14.3
-2 -30 -8 24.8 11.7
8 2 -30 18.7 11.5
30 -2 -8 24 12.1
8 -30 -2 11.9 15.2
-8 -30 2 11.8 16
-8 -30 -4 10.6 10.3
8 4 30 43.9 16.5
-4 -30 8 32.8 12.8
-4 8 30 32.9 15
4 -30 -8 35.1 14.7
8 -4 -30 38.8 17
-8 -4 30 27.9 14.7
-8 -30 -4 33.5 17.3
4 8 -30 61.19 17.6
30 4 -8 63.79 18.4
-30 -8 4 16.2 13.1
-4 -8 -30 26.1 18.8
-4 -30 8 17.2 15.3
-30 4 8 43.2 19.2
4 -30 -8 39.2 20
8 -30 -4 49.1 14.1
-8 4 30 15.2 12.2
4 8 30 33.3 16.5
-8 -4 -30 36.6 19.2
-8 -30 4 52.49 16.5
-30 -4 8 15.2 14.4
8 -30 -4 41.9 19.7
30 8 -4 36.7 13.4
-4 -30 -8 49.7 15.6
-4 -8 30 12.1 15.5
-4 -30 -8 11.8 14.9
4 -8 -30 36 18.6
30 -4 -8 56.59 15.9
-30 -8 -4 46.4 15
-8 -30 4 34.5 15.3
-30 6 8 116.89 29.5
-8 -30 -6 101.99 28.1
-6 -8 -30 66.99 27.4
-6 -30 8 131.69 31.3
-6 -30 8 143.49 26.2
6 -30 -8 122.19 26.1
-30 -8 6 94.99 27.6
-8 -6 30 79.89 27.1
8 -6 -30 156.08 30
8 6 30 84.19 26.1
6 -30 -8 120.39 32.5
30 6 -8 106.29 26
6 8 -30 115.19 27.2
8 -30 -6 99.59 24.8
-8 -30 6 73.09 24.6
-30 -8 -6 108.39 28.7
6 -8 -30 151.58 31.7
-6 -30 -8 110.39 27.7
-6 -8 30 57.49 26
30 8 -6 116.39 28.4
-8 -30 6 143.89 32
6 8 30 88.79 26.4
-30 -6 8 127.59 30.6
8 6 -30 138.29 28.4
-8 -6 -30 173.98 33.6
-8 -30 8 18.8 15.1
8 -30 -8 26.1 17.7
8 8 30 33 15.5
-30 -8 8 4.4 11.7
-8 -8 -30 -4.3 14.7
-8 -8 30 -3 12.3
-8 -30 8 26.4 11
30 8 -8 7.5 12.1
8 -30 -8 40.4 14.3
8 8 -30 51.79 17
-30 -10 0 244.88 41.9
0 -30 10 218.48 40.4
30 0 -10 183.08 40.3
-10 -30 0 173.98 39.9
30 10 0 273.87 42
0 10 -30 255.27 42.5
0 -30 -10 187.98 39.2
-30 0 10 222.58 43.9
10 0 -30 244.38 42.2
0 -30 10 225.88 44.7
0 -10 -30 251.87 46.2
0 -30 -10 230.78 42.9
10 -2 -30 120.99 26
2 -30 -10 80.49 23.9
-10 -2 30 77.69 25.2
30 2 -10 111.59 27.5
-2 -30 10 107.09 24.3
-30 2 10 88.19 28.6
2 -30 -10 131.79 31.6
-2 -30 10 102.69 29.8
30 10 2 113.99 25.7
-10 -30 -2 143.69 30.7
2 10 -30 132.29 27.1
-2 10 30 145.69 29.8
-2 -10 -30 131.29 32.6
-30 -10 2 107.19 25.7
-10 -30 2 94.99 25.7
30 -2 -10 128.89 28.7
-30 -10 -2 130.19 27.6
-2 -30 -10 81.99 25.9
-2 -10 30 96.69 28.7
2 10 30 76.89 25.7
2 -10 -30 98.09 29.9
30 10 -2 124.69 27
-30 -2 10 124.49 30.7
10 2 -30 104.29 25.3
-4 -30 10 0.1 22
4 -30 -10 8 8.2
4 -30 -10 5.9 16
-4 -10 -30 10.5 15
-30 4 10 14.9 12.3
30 4 -10 10 11.6
-30 -10 4 10.4 9.9
30 -4 -10 9.9 9.9
4 10 30 10.8 12.2
10 -30 -4 -2.7 13.5
4 -10 -30 -0.4 12.2
-10 -4 -30 6.8 14.2
-30 -4 10 -4.9 11.5
10 -30 -4 24.7 15.8
-10 -30 4 15 13.8
-4 -10 30 -0.8 13
30 10 -4 15.5 13.8
10 4 -30 24.2 12
-30 -10 6 15.3 11.5
6 10 -30 17 12.2
6 -30 -10 -2.5 14
-6 -30 10 33.5 11.3
6 -30 -10 9.3 7.4
-6 -10 -30 3.2 14.8
-6 -30 10 12.6 13.4
-30 6 10 3 12.7
-30 -6 10 -7.2 8.9
-30 -10 -6 4.6 10.7
-10 -30 6 6.7 12.7
-30 -10 -6 24.6 10.1
-6 -10 30 3.8 12.4
10 6 -30 13.5 8.1
6 10 30 -0.3 9.5
10 -30 -6 9.2 15.3
-10 -6 -30 -20.5 13.1
10 -30 -6 24.5 11.3
30 -6 -10 18.5 12.4
30 10 -6 20.3 12.6
-8 -30 10 15.6 15.9
-8 -10 -30 6.1 17
8 -30 -10 31.3 9.7
8 -30 -10 5.1 17.2
30 8 -10 17 13.7
-8 -30 10 39.6 12.5
8 10 -30 28.8 14.4
10 8 30 5.9 10.1
-10 -8 -30 -11 13.9
10 -30 -8 29.1 19.8
10 -30 -8 14.4 10.3
30 10 -8 37.5 15.7
8 10 30 0.6 13.2
10 8 -30 10.8 9.5
-8 -10 30 4.7 13.6
-10 -10 -30 108.79 34.8
10 -30 -10 119.49 36.5
10 -30 -10 168.28 28.7
30 0 -12 178.28 34.3
-30 0 12 140.29 34.3
2 12 -30 162.98 29.8
-2 -30 12 143.09 27.6
-2 -12 -30 109.49 31.5
-30 -12 2 108.29 25.7
-2 -30 12 137.79 33
30 2 -12 121.89 28.1
30 12 2 136.39 31.4
-30 2 12 111.59 30.9
30 12 -2 112.99 28.8
-30 -12 -2 101.29 25.8
30 -2 -12 98.79 28.3
-30 -2 12 97.29 29.7
-30 4 12 -14.2 8.8
30 4 -12 12.5 13.6
-4 -12 -30 11.5 17
-30 -12 4 16.1 9.2
4 12 -30 10.8 9.8
-4 -30 12 3.9 13.2
-30 -4 12 3.4 12.3
30 -4 -12 2.9 9.2
-4 -12 30 0.3 11.5
30 12 -4 14.1 9.4
-30 -12 -4 2.7 9.7
-6 -30 12 -2.3 14.5
-6 -12 -30 -1.4 16.3
6 12 -30 17.4 20.4
6 -30 -12 -6.5 16.2
-6 -30 12 22.4 9.5
30 12 -6 6.9 9.7
30 -6 -12 22 13
-6 -12 30 -15.3 9.3
-30 -12 -6 -7.6 8.6
-8 -12 -30 57.09 24.3
-8 -30 12 30.3 17.4
8 12 -30 40.3 18.2
-30 -14 0 134.99 28.8
30 0 -14 129.59 29.8
30 14 0 136.29 29.4
-30 2 14 11.9 14.3
30 -2 -14 36.9 16.7
30 14 -2 44.9 18.4
-30 -14 -2 39.4 13.6
-30 4 14 4.6 17.3
-1 -31 -1 305.27 56.39
-1 -31 -1 263.67 52.59
-1 -31 1 383.26 58.19
-1 -31 1 393.76 55.89
-1 -1 31 320.57 55.69
-1 1 -31 217.58 52.59
-1 1 31 305.97 55.59
1 -31 -1 329.57 57.19
1 -31 -1 302.07 53.49
1 -31 1 367.26 59.19
1 -31 1 311.17 53.49
1 -1 31 302.67 54.99
1 1 31 292.97 54.49
-31 -3 1 142.69 31.3
-3 -31 -1 107.69 31.7
-3 -31 -1 170.18 30
3 1 31 111.99 30.4
3 -31 1 127.09 27.4
-1 -3 -31 172.08 34.5
-1 -31 3 137.89 32.7
-1 -31 3 117.89 27.3
-1 3 31 118.99 31.4
1 -31 -3 126.99 29
1 -3 31 124.99 30.4
1 3 -31 126.89 29.7
-3 -1 31 81.39 29.3
3 -1 -31 183.68 33.7
1 -31 -3 100.79 31
3 -31 -1 139.29 34.5
-3 1 31 104.59 30.7
-3 -31 1 147.59 29.1
-1 -31 -3 158.98 28.8
-1 -3 31 134.79 33.3
-1 3 -31 171.58 31.2
-1 -31 -3 131.99 33.9
1 -3 -31 170.68 33.2
1 -31 3 138.49 33
-3 -31 1 105.79 32.1
3 -1 31 98.09 29
1 3 31 115.29 31.3
3 -31 -1 129.79 27.8
-3 -1 -31 156.28 32.1
3 1 -31 177.28 30.9
-31 -1 3 90.09 29.4
31 3 -3 49.8 17.1
-3 3 -31 65.19 18.8
3 3 31 27.5 15.6
3 -3 31 38.7 18.1
3 3 -31 63.39 19.5
3 -31 3 38.3 20.1
3 -31 3 43.7 15.3
3 -3 -31 51.09 21
-31 -3 3 25.5 16.9
-3 -31 -3 38.9 19.5
3 -31 -3 55.09 17.5
-3 -31 -3 50.79 17.5
-3 -31 3 44 20
-3 -31 3 42.6 15.7
-3 -3 -31 35.7 19.4
-3 -3 31 50.79 19.8
3 -31 -3 57.19 22
-3 3 31 51.19 19.8
5 1 31 2.6 9.5
5 -31 1 3.2 8.2
1 -5 31 8 12.7
1 5 -31 13.8 10.3
-5 -31 -1 4.7 9.6
-31 1 5 -11 9.7
-31 -5 1 3.9 11.3
-1 -5 -31 -5.3 14.3
-5 -1 31 -7.3 7.4
-1 -31 5 14.4 14.2
-1 -31 5 22.6 9.8
-1 5 31 -2.4 10.9
1 -31 -5 13.9 10.6
5 -31 1 7.3 14
-5 1 -31 31.6 14.6
5 -1 -31 16 11.2
1 -31 -5 5.1 14.1
31 1 -5 8 9
-5 -31 -1 1.3 13.9
5 1 -31 19.8 12.4
1 -5 -31 -1.4 13.3
-31 -5 -1 9.2 11.1
-5 -1 -31 -3 11.2
-1 -31 -5 17.6 10.3
31 -1 -5 20.6 10.5
31 5 -1 24.5 12.3
1 -31 5 17.8 8.8
-31 -1 5 8.3 13.6
1 -31 5 -5.9 13.9
5 -31 -1 -1.3 13
1 5 31 13 11.4
-5 -31 1 0.3 13.7
-5 -31 1 8.9 7
-1 -31 -5 5.2 13.7
-1 -5 31 -1.4 11.1
-5 1 31 6.2 10.8
5 -1 31 -2.8 10.4
-5 3 -31 12.2 9.6
3 5 -31 19.9 11.4
-3 -31 5 -1.3 11.6
-5 -31 -3 3.7 13.9
-31 -5 3 1.2 12.1
-5 -3 31 -4.7 8.6
-3 5 31 -4.7 9.2
3 -31 -5 -9.1 14
-5 -31 -3 10.7 10
31 3 -5 15.9 10.9
5 3 31 2.1 11
-3 -5 -31 7 13
-3 -31 5 11.5 9
5 -31 3 5 12.6
3 -31 -5 9 9.8
-31 -3 5 0.7 11.7
-5 3 31 4.8 9.5
3 5 31 5.9 12
5 -31 -3 4 15.3
5 3 -31 15.3 11.5
-5 -31 3 10.4 13.1
-3 -5 31 -20.8 10
-3 5 -31 13.5 10.7
3 -5 -31 12.6 13.5
3 -31 5 14.7 15.2
31 5 -3 14.5 11
-5 -31 3 7.1 7.7
5 -31 -5 151.88 35.9
5 -31 -5 156.18 29.8
-5 5 31 141.59 31.1
-5 -5 31 145.89 34.6
-31 -5 5 149.88 32.8
-5 -31 -5 120.79 32
-5 -31 5 114.59 32.6
-5 -31 5 123.09 28.1
5 5 -31 160.28 30.9
5 5 31 99.79 29.9
31 5 -5 160.48 30.6
-5 -5 -31 87.89 31.1
-31 -7 1 61.49 20
-1 -31 7 88.09 25.3
-1 -31 7 53.39 17.3
1 -31 -7 62.09 24.3
1 -31 -7 63.09 17.6
-7 -31 -1 40.4 20.9
1 7 -31 95.49 23.3
-1 7 31 31.5 17.1
31 1 -7 68.19 19.4
7 -1 -31 52.69 19.1
-31 1 7 48.8 20.1
-7 -1 31 34.9 19.7
31 7 1 69.79 19
-1 -7 -31 54.39 23
-7 -31 1 38.2 15.5
-1 -7 31 28.8 18
-7 -1 -31 54.09 20.4
-31 -7 -1 62.19 19.2
-7 1 31 54.69 20.9
-1 -31 -7 86.59 26.3
1 -7 -31 60.69 23.1
1 -31 7 62.59 21.4
1 7 31 50.19 19.3
7 -31 -1 73.39 24.8
7 -31 -1 39.5 15.1
31 -1 -7 52.49 17.2
-1 -31 -7 35.1 15.7
1 -31 7 99.19 18.8
-31 -1 7 57.49 21.9
7 1 -31 47.5 18.2
31 7 -1 53.09 18.4
-7 -31 1 41.6 20
-1 7 -31 75.89 20.7
-7 -3 31 -17.1 9.3
3 7 -31 14.6 9.8
3 -31 -7 3.5 6.2
-3 7 31 4.4 15.2
-3 -31 7 12.2 9.2
3 -31 -7 -7.9 14.3
31 3 -7 5.7 10
7 3 31 -10.1 7.6
-7 -31 -3 1.4 14.1
7 -3 -31 7.5 12.4
-3 -7 -31 15.3 16.6
-3 -31 7 -4.6 11.6
-31 -3 7 -3 12.5
3 -7 -31 -2.7 11.7
-3 -31 -7 -4.5 9.2
3 7 31 2.3 10.7
7 -31 -3 19.7 15.9
-7 -3 -31 6 13.1
-7 -31 3 -4.1 12.9
-7 -31 3 8.1 9.1
31 7 -3 19.2 11
7 3 -31 0.7 8.5
-3 -7 31 -11.7 9.9
7 -31 -3 8.7 8.1
5 7 -31 83.69 24.2
5 -31 -7 54.99 25.4
5 -31 -7 86.99 19.4
31 5 -7 72.99 21.1
-5 -31 7 106.29 20.7
-31 -7 5 59.99 23.5
-5 -7 -31 59.19 25.7
-7 -5 31 40.1 19.5
-5 -31 7 81.39 26.2
7 5 31 70.79 22.4
7 -31 -5 91.09 28.3
7 -31 -5 105.29 21.7
7 5 -31 146.39 26.1
5 7 31 48.5 20.4
-31 -5 7 95.19 26.5
-7 -31 5 91.39 26.6
-7 -31 5 85.99 23.3
-7 -5 -31 41 21.4
31 7 -5 77.19 23
-5 -7 31 58.09 22.6
-31 -7 7 23.6 17.5
-7 -31 7 78.79 17
-7 -7 -31 23.4 19.3
-7 -7 31 28.2 18.5
31 7 -7 73.49 21
7 7 -31 37.6 17.3
7 7 31 47.1 18.7
-7 -31 7 86.09 24.1
-31 1 9 148.69 40.1
-1 -31 9 247.98 39.3
31 1 -9 260.47 41.7
1 -31 -9 190.88 43
-31 -9 1 216.68 40.7
1 9 -31 173.28 37.5
31 9 1 227.98 39
-1 -31 9 221.08 43.5
1 9 31 152.88 43.8
9 1 -31 179.28 41.6
-31 -9 -1 174.38 37.9
31 -1 -9 266.07 39.6
-3 -9 -31 38.5 23.9
-3 -31 9 61.09 24.6
3 9 -31 88.49 24
-31 -9 3 51.19 20.8
31 3 -9 100.89 22.4
-3 -31 9 94.29 20.1
3 -31 -9 49.99 23.3
-31 3 9 82.39 26.3
-3 -9 31 35.1 20.7
31 -3 -9 132.59 23.2
-31 -3 9 75.69 24.6
-31 -9 -3 108.79 22.4
9 3 -31 95.99 23.9
5 -31 -9 -26.9 13.3
-5 -9 -31 -17.9 13.9
5 9 -31 22.4 13.1
-5 -31 9 11.2 14.2
31 5 -9 22.5 13.1
-31 -9 5 -1.1 9.2
5 -31 -9 10.9 8
-31 -5 9 4.1 13.2
-9 -5 -31 -1.1 14.3
-5 -9 31 -16.5 9.7
31 9 -5 2.2 10.7
9 5 -31 16.6 12.7
5 9 31 -12.4 7.9
9 -31 -5 4 13.9
9 -31 -5 24.3 12.5
-7 -9 -31 -1.6 15.7
-7 -31 9 5.2 14.6
7 -31 -9 -10.2 15.5
-31 -9 7 -7.3 11.7
7 9 -31 19 12.6
31 7 -9 6.4 9.5
-7 -9 31 1.5 11.6
31 9 -7 24.8 12.8
-9 -7 -31 1.9 17.1
9 -31 -7 4.8 14.5
7 9 31 0.9 9.9
-31 1 11 343.97 58.69
31 11 1 404.36 56.59
31 11 -1 337.87 55.59
-31 -11 -1 222.38 51.99
31 -1 -11 317.67 55.19
31 3 -11 163.28 34.8
-31 -11 3 120.19 32.1
3 11 -31 185.18 35.2
-3 -31 11 147.19 38.1
-31 3 11 145.89 36
-3 -31 11 188.18 33.2
31 -3 -11 182.98 33
31 11 -3 216.58 37.1
-31 -3 11 148.59 37.3
-31 -11 -3 125.99 31.4
31 5 -11 43.7 18.4
-5 -11 -31 21.7 18.8
-5 -31 11 21 15.7
5 11 -31 46.7 15.8
-31 -11 -5 -0.2 11.4
-5 -11 31 3.2 14.8
31 11 -5 25.2 15.9
0 -32 0 409.76 78.69
0 -32 0 531.45 77.39
0 0 -32 446.96 77.79
0 0 32 505.55 83.99
-2 -32 0 243.18 53.59
-2 -32 0 311.47 51.89
0 -2 -32 204.18 51.29
0 -2 32 313.07 54.69
0 2 -32 279.47 51.39
0 2 32 262.97 52.59
2 -32 0 294.47 54.69
2 0 32 287.67 53.09
0 -32 -2 328.17 52.29
0 -32 2 329.27 56.59
0 -32 2 286.37 58.89
2 0 -32 293.27 52.39
-2 0 -32 306.87 54.39
-2 0 32 357.56 55.69
0 -32 -2 389.16 58.39
2 -2 32 228.58 44.5
-2 -32 2 199.38 41.3
-2 -2 -32 323.47 48.2
-2 -2 32 173.78 43.3
-2 2 -32 259.37 44.5
2 -32 2 244.08 48
2 -32 2 208.98 41.7
2 -2 -32 287.07 47.2
2 2 32 175.88 43.2
-2 2 32 221.38 44.6
2 -32 -2 239.38 47.5
2 -32 -2 272.17 44.5
2 2 -32 293.77 45.8
-2 -32 -2 246.58 47.5
-2 -32 -2 248.38 44
-2 -32 2 223.28 46.5
4 0 -32 83.39 21.6
-4 -32 0 79.39 20.7
0 4 32 31.8 19.4
4 -32 0 58.09 23
0 -4 32 49.99 21.2
0 4 -32 85.99 23.4
0 -32 -4 54.29 22.5
0 -32 -4 71.49 20.1
4 -32 0 68.79 18.8
0 -32 4 49.4 16.9
-4 -32 0 67.99 24.1
-4 0 32 32.5 16.6
-4 0 -32 68.09 22.2
0 -32 4 64.59 23.3
2 4 -32 24 13.8
-4 2 -32 59.79 20.2
-4 -2 32 48 20.5
2 -32 -4 28.9 20
-2 4 32 26.7 17.3
2 -32 -4 69.39 18.7
-2 -4 -32 46.3 20.6
4 -2 -32 33.2 17.8
-2 -32 4 45.9 15.1
4 -32 2 65.29 23.6
-2 -32 4 51.69 21.8
-4 -32 -2 14 17
4 2 32 24.7 16.1
-2 -4 32 40.3 19
2 -32 4 60.59 22
2 -32 4 85.19 16.7
2 -4 -32 38.4 19.3
4 2 -32 60.69 19.2
-4 -2 -32 20.7 17
-4 2 32 25.9 17
-2 -32 -4 39.4 20.7
-2 4 -32 51.39 17.3
4 -32 -2 44.4 21
-4 -32 2 22.8 11.9
2 4 32 11.1 14.1
-4 -32 2 39.3 18.1
-4 -32 4 18.4 9.1
-32 -4 4 -6.7 10.8
-4 -32 4 -3.6 14.4
-4 -4 32 16.5 14.7
4 -32 -4 13.7 19.7
4 -4 -32 11 11.6
4 4 -32 20.7 13.1
4 4 32 0.1 10
0 -6 -32 66.79 23.5
0 -32 -6 76.79 26.2
0 -32 6 54.39 22.7
0 -32 6 45.6 15.4
6 0 -32 89.99 22.5
0 6 32 44.6 19.3
0 6 -32 48.3 17.2
32 2 -6 51.69 15
2 -32 -6 35.8 14.6
6 -2 -32 23 15.1
2 6 -32 67.89 18.8
-32 -6 2 6 14
-2 -32 6 42.5 19.9
-2 -6 -32 20.2 18.9
-2 -32 6 50.39 16
2 -32 -6 19.4 17.4
6 -32 -2 52.09 15.1
2 6 32 22 13.8
6 -32 -2 22.4 18.6
-2 -6 32 23 17
2 -6 -32 10.9 13
-32 -2 6 30.5 17.6
-6 -2 -32 34.3 18.4
6 2 -32 45.5 16.8
32 6 -2 47.3 15.5
-6 -32 2 19.9 18.4
-4 -32 6 18.2 17.1
4 -32 -6 11.6 9.2
4 6 -32 42.5 17
4 -32 -6 -0.6 17.5
32 4 -6 33.3 13.5
-32 -6 4 6 12.8
-4 -6 -32 -6.4 15.1
-6 -4 32 1.1 13.9
6 4 32 -1.8 16.6
-4 -32 6 28.7 11.3
-6 -4 -32 15 16.4
-4 -6 32 6.5 14.3
4 6 32 14.6 12.8
6 -32 -4 15.1 18.4
-6 -32 4 -2.4 11.2
6 4 -32 31.6 12.3
6 -32 -4 33.3 12.4
32 6 -4 31.6 13.5
-32 -4 6 -3.8 11.9
-32 -6 6 13.6 14.6
6 6 32 33.6 17
6 -32 -6 23.8 20.4
6 6 -32 18.7 14.2
-6 -32 6 47.5 21.4
-6 -6 -32 18.5 18.5
32 6 -6 46.4 16.2
-32 0 8 142.49 39.2
-32 -8 0 211.38 40.3
32 0 -8 250.87 40
-2 -8 -32 83.69 32.1
-2 -32 8 168.88 29.4
-2 -32 8 132.59 36
2 8 -32 188.28 32.9
32 2 -8 143.39 29.9
32 8 -2 141.09 30.2
4 -32 -8 -21.5 12.5
-4 -8 -32 -9.9 14.7
-4 -32 8 0.6 14.4
4 8 -32 19.5 11.8
-32 -8 4 -1.1 9.7
-4 -8 32 0.1 13.6
-32 -4 8 -2.3 11.7
-1 -33 -1 327.27 68.29
-1 -33 1 500.65 72.09
-1 -33 1 389.66 69.69
-1 -1 -33 481.95 70.99
-1 -1 33 364.46 67.49
-1 1 -33 520.55 69.59
-1 1 33 453.15 82.49
1 -33 -1 350.26 64.49
1 -33 1 434.56 70.89
1 -33 1 428.96 65.69
1 -1 -33 284.17 64.99
1 1 33 333.77 66.19
1 -33 -3 148.89 34.1
-1 -3 -33 57.19 24.4
-1 -33 3 66.19 26.7
3 -1 -33 148.99 28.4
1 3 -33 89.89 25.5
3 -33 1 142.89 34.6
1 -3 -33 50.99 25.1
3 -33 -1 155.18 35.3
-1 3 -33 92.69 25.7
3 1 -33 61.59 23.2
-3 -1 -33 82.89 26.7
-1 -3 33 81.99 26.2
1 3 33 75.59 25.7
-3 -33 1 115.19 30.8
1 -33 3 113.59 31.7
1 -33 3 141.09 24.4
-3 -3 -33 19.3 16
-3 -3 33 5.2 13.4
-3 -33 3 3.4 14.8
3 3 33 19.6 13.2
3 -33 -3 -18.1 14.1
1 5 -33 109.19 23.7
-1 -5 -33 53.59 24.1
-1 -33 5 36.7 22.3
-1 -33 5 97.79 19.5
