#------------------------------------------------------------------------------
#$Date: 2019-11-26 03:26:16 +0200 (Tue, 26 Nov 2019) $
#$Revision: 242508 $
#$URL: file:///home/coder/svn-repositories/cod/cif/4/13/25/4132542.cif $
#------------------------------------------------------------------------------
#
# This file is available in the Crystallography Open Database (COD),
# http://www.crystallography.net/
#
# All data on this site have been placed in the public domain by the
# contributors.
#
data_4132542
loop_
_publ_author_name
'Jiang, Hao'
'Jia, Jiangtao'
'Shkurenko, Aleksander'
'Chen, Zhijie'
'Adil, Karim'
'Belmabkhout, Youssef'
'Weselinski, Lukasz J.'
'Assen, Ayalew H.'
'Xue, Dong-Xu'
'O'Keeffe, Michael'
'Eddaoudi, Mohamed'
_publ_section_title
;
 Enriching the Reticular Chemistry Repertoire: Merged Nets Approach for
 the Rational Design of Intricate Mixed-Linker Metal-Organic Framework
 Platforms.
;
_journal_issue                   28
_journal_name_full               'Journal of the American Chemical Society'
_journal_page_first              8858
_journal_page_last               8867
_journal_paper_doi               10.1021/jacs.8b04745
_journal_volume                  140
_journal_year                    2018
_chemical_formula_moiety         'C80 H66 N12 O40 Tb6'
_chemical_formula_sum            'C80 H66 N12 O40 Tb6'
_chemical_formula_weight         2788.96
_space_group_crystal_system      cubic
_space_group_IT_number           227
_space_group_name_Hall           '-F 4vw 2vw 3'
_space_group_name_H-M_alt        'F d -3 m :2'
_atom_sites_solution_hydrogens   geom
_atom_sites_solution_primary     direct
_atom_sites_solution_secondary   difmap
_audit_creation_method           SHELXL-2014/7
_cell_angle_alpha                90
_cell_angle_beta                 90
_cell_angle_gamma                90
_cell_formula_units_Z            16
_cell_length_a                   38.985(5)
_cell_length_b                   38.985(5)
_cell_length_c                   38.985(5)
_cell_measurement_reflns_used    7229
_cell_measurement_temperature    100.0(1)
_cell_measurement_theta_max      26.84
_cell_measurement_theta_min      3.22
_cell_volume                     59251(13)
_computing_cell_refinement       'SAINT v8.34A (Bruker, 2013)'
_computing_data_collection
'Bruker APEX2 v2009.3-0 (Bruker AXS Inc., 2009)'
_computing_data_reduction        'SAINT v8.34A (Bruker, 2013)'
_computing_molecular_graphics    'DIAMOND (Crystal Impact GbR, 2009'
_computing_publication_material
'PublCIF. Westrip, S. P. (2010). J. Appl. Cryst. 43, 920-925.'
_computing_structure_refinement  'SHELXL-2014/7 (Sheldrick, 2014)'
_computing_structure_solution    'ShelXS (Sheldrick, 2008)'
_diffrn_ambient_temperature      100.0(1)
_diffrn_detector_area_resol_mean 8.3
_diffrn_measured_fraction_theta_full 0.991
_diffrn_measured_fraction_theta_max 0.991
_diffrn_measurement_device_type  'Bruker X8 PROSPECTOR APEX2 CCD'
_diffrn_measurement_method       '\f and \w scans'
_diffrn_radiation_monochromator  mirrors
_diffrn_radiation_type           CuK\a
_diffrn_radiation_wavelength     1.54184
_diffrn_reflns_av_R_equivalents  0.0807
_diffrn_reflns_av_unetI/netI     0.0407
_diffrn_reflns_Laue_measured_fraction_full 0.991
_diffrn_reflns_Laue_measured_fraction_max 0.991
_diffrn_reflns_limit_h_max       22
_diffrn_reflns_limit_h_min       -17
_diffrn_reflns_limit_k_max       5
_diffrn_reflns_limit_k_min       -26
_diffrn_reflns_limit_l_max       18
_diffrn_reflns_limit_l_min       -20
_diffrn_reflns_number            38191
_diffrn_reflns_point_group_measured_fraction_full 0.991
_diffrn_reflns_point_group_measured_fraction_max 0.991
_diffrn_reflns_theta_full        32.047
_diffrn_reflns_theta_max         32.047
_diffrn_reflns_theta_min         3.206
_diffrn_source                   'Incoatec I\ms'
_exptl_absorpt_coefficient_mu    14.303
_exptl_absorpt_correction_T_max  0.7463
_exptl_absorpt_correction_T_min  0.5537
_exptl_absorpt_correction_type   multi-scan
_exptl_absorpt_process_details
;
SADABS-2008/1 (Bruker,2008) was used for absorption correction.
wR2(int) was 0.1237 before and 0.0846 after correction.
The Ratio of minimum to maximum transmission is 0.7419.
The \l/2 correction factor is 0.0015.
;
_exptl_crystal_colour            colorless
_exptl_crystal_density_diffrn    1.251
_exptl_crystal_description       octahedron
_exptl_crystal_F_000             21440
_exptl_crystal_size_max          0.200
_exptl_crystal_size_mid          0.150
_exptl_crystal_size_min          0.150
_refine_diff_density_max         1.074
_refine_diff_density_min         -0.459
_refine_diff_density_rms         0.104
_refine_ls_extinction_method     none
_refine_ls_goodness_of_fit_ref   1.753
_refine_ls_hydrogen_treatment    constr
_refine_ls_matrix_type           full
_refine_ls_number_parameters     113
_refine_ls_number_reflns         525
_refine_ls_number_restraints     100
_refine_ls_restrained_S_all      1.597
_refine_ls_R_factor_all          0.2036
_refine_ls_R_factor_gt           0.1386
_refine_ls_shift/su_max          0.001
_refine_ls_shift/su_mean         0.000
_refine_ls_structure_factor_coef Fsqd
_refine_ls_weighting_details
'w=1/[\s^2^(Fo^2^)+(0.2000P)^2^] where P=(Fo^2^+2Fc^2^)/3'
_refine_ls_weighting_scheme      calc
_refine_ls_wR_factor_gt          0.3723
_refine_ls_wR_factor_ref         0.4185
_reflns_Friedel_coverage         0.000
_reflns_number_gt                304
_reflns_number_total             525
_reflns_threshold_expression     'I > 2\s(I)'
_cod_data_source_file            ja8b04745_si_003.cif
_cod_data_source_block           Tb_sph_MOF_1
_cod_original_cell_volume        59250(20)
_cod_original_sg_symbol_H-M      'F d -3 m'
_cod_database_code               4132542
_shelx_shelxl_version_number     2014/7
_shelx_space_group_comment
;
The symmetry employed for this shelxl refinement is uniquely defined
by the following loop, which should always be used as a source of
symmetry information in preference to the above space-group names.
They are only intended as comments.
;
_shelx_estimated_absorpt_t_min   0.162
_shelx_estimated_absorpt_t_max   0.223
_shelx_res_file
;

    shelx.res created by SHELXL-2014/7

TITL KME_948 in Fd-3m
CELL 1.54184 38.9848 38.9848 38.9848 90 90 90
ZERR 16 0.005 0.005 0.005 0 0 0
LATT 4
SYMM 0.75-X,0.25-Y,0.5+Z
SYMM 0.25-X,0.5+Y,0.75-Z
SYMM 0.5+X,0.75-Y,0.25-Z
SYMM +Z,+X,+Y
SYMM 0.5+Z,0.75-X,0.25-Y
SYMM 0.75-Z,0.25-X,0.5+Y
SYMM 0.25-Z,0.5+X,0.75-Y
SYMM +Y,+Z,+X
SYMM 0.25-Y,0.5+Z,0.75-X
SYMM 0.5+Y,0.75-Z,0.25-X
SYMM 0.75-Y,0.25-Z,0.5+X
SYMM 0.75+Y,0.25+X,0.5-Z
SYMM -Y,-X,-Z
SYMM 0.25+Y,0.5-X,0.75+Z
SYMM 0.5-Y,0.75+X,0.25+Z
SYMM 0.75+X,0.25+Z,0.5-Y
SYMM 0.5-X,0.75+Z,0.25+Y
SYMM -X,-Z,-Y
SYMM 0.25+X,0.5-Z,0.75+Y
SYMM 0.75+Z,0.25+Y,0.5-X
SYMM 0.25+Z,0.5-Y,0.75+X
SYMM 0.5-Z,0.75+Y,0.25+X
SYMM -Z,-Y,-X
SFAC C H N O Tb
UNIT 1280 1056 192 640 96
EQIV $1 1.25-Y,+Z,1.25-X
EQIV $2 1.25-X,+Y,1.25-Z
EQIV $3 1-Y,1-Z,1-X
EQIV $4 +Y,1.25-Z,1.25-X
EQIV $5 +Z,+X,+Y
EQIV $6 +X,+Z,+Y
EQIV $7 1.25-Y,1.25-X,+Z
EQIV $8 1-Y,1-X,1-Z
EQIV $9 1.25-Y,+X,1.25-Z
EQIV $10 1.25-Z,+Y,1.25-X
EQIV $11 0.5+Y,-0.5+X,+Z
EQIV $12 1.25-Z,-0.5+X,0.75-Y
EQIV $13 +Z,+Y,+X
EQIV $14 1.25-Z,1.25-X,+Y
EQIV $15 1-Z,1-X,1-Y
EQIV $16 0.5+Y,0.75-Z,1.25-X
EQIV $17 +Y,+X,+Z
EQIV $18 1-Z,1-Y,1-X
EQIV $19 1.25-X,1.25-Z,+Y
EQIV $20 +X,0.75-Z,0.75-Y
EQIV $21 +Y,+Z,+X
EQIV $22 +Y,1.25-X,1.25-Z
DFIX 1.23 0.01 O1L2 C1L2
DFIX 1.23 0.01 O2L2 C1L2
DFIX 1.5 0.01 C1L2 C2L2
DFIX 1.42 0.01 C5L2 N1L2
DFIX 1.39 0.01 C9L2 C10L C9L2 C10L_$16
DFIX 2.41 C10L C10L_$16
DFIX 2.41 C9L2 C9L2_$12
DFIX 2.41 C9L2 C9L2_$16
DFIX 1.5 0.01 C9L2 C8L2
DFIX 1.36 0.01 C8L2 N1L2
DFIX 1.23 0.01 C8L2 O3L2
DFIX 1.39 0.01 C2L2 C11L C12L C11L C5L2 C12L C5L2 C13L C14L C13L C2L2 C14L
DFIX 2.41 0.01 C2L2 C12L
DFIX 2.41 0.01 C11L C5L2
DFIX 2.41 0.01 C12L C13L
DFIX 2.41 0.01 C5L2 C14L
DFIX 2.41 0.01 C13L C2L2
DFIX 2.41 0.01 C11L C14L
DFIX -0.85 0.01 O1W O1W_$13
DFIX 2.23 O1L2 O2L2
DFIX -2.3 0.01 Tb1 O4L2
DFIX 1.23 0.01 C1L1 O1L1
DFIX 1.23 0.01 C1L1 O2L1
DFIX 1.5 0.01 C1L1 C3L1
DFIX 1.39 0.01 C2L1 C3L1
DFIX 1.39 0.01 C3L1 C4L1
DFIX 1.39 0.01 C4L1 C5L1
DFIX 1.44 0.01 C5L1 N1L1
DFIX 1.32 0.01 N1L1 C6L1
DFIX 1.29 0.01 C6L1 N2L1
DFIX 1.39 0.01 N2L1 N2L1_$7
DFIX 2.78 C2L1 C5L1
DFIX 2.41 C2L1 C4L1
DFIX 2.41 C3L1 C3L1_$7
DFIX 2.41 C3L1 C5L1
DFIX 2.41 C4L1 C4L1_$7
DFIX 2.51 C5L1 C6L1
SADI 0.01 Tb1 O1H Tb2 O1H
SADI O1L2 C2L2 O2L2 C2L2
SADI C3L2 C1L2 C7L2 C1L2
SADI N1L2 C4L2 N1L2 C6L2
SADI C8L2 C10L C8L2 C10L_$16
SADI 0.01 Tb1 O1W Tb2 O2W
FLAT 0.02 O1L2 O2L2 C1L2 C2L2
FLAT 0.02 C1L2 C2L2 C3L2 C7L2
FLAT 0.02 C4L2 C5L2 C6L2 N1L2
FLAT 0.01 C9L2 C10L C9L2_$12 C10L_$12 C9L2_$16 C10L_$16 C8L2
FLAT 0.01 N1L2 C8L2 C9L2 O3L2
FLAT 0.01 C2L2 C11L C12L C5L2 C13L C14L
FLAT 0.002 C2L1 C3L1 C3L1_$7 C4L1 C4L1_$7 C5L1 N1L1 C6L1 C6L1_$7 N2L1 N2L1_$7
FLAT 0.6 C6L1 C6L1_$7 N2L1 N2L1_$7 Tb1_$2 Tb1_$9
FLAT 0.01 O1L1 O2L1 C1L1 C3L1
SIMU 0.01 0.02 2 O1L2 O2L2 C1L2 C2L2 C3L2 C4L2 C5L2 C6L2 C7L2 N1L2 C8L2 =
 O3L2 C9L2 C10L C11L C12L C13L C14L
EADP O1W O2W
EADP O1L1 O2L1 C1L1 C2L1 C3L1 C4L1 C5L1 N1L1 C6L1 N2L1
SIZE 0.15 0.15 0.20
L.S. 11
PLAN  20
TEMP -173
FREE N1L2 C6L2
FREE N1L2 C4L2
FREE N1L2 H10L_$20
FREE C8L2 C10L_$16
FREE C8L2 C8L2_$10
FREE C8L2 C10L_$20
FREE C8L2 H10L_$20
FREE O3L2 N1L2_$10
FREE O3L2 O3L2_$10
FREE O3L2 C8L2_$10
FREE C9L2 C10L_$20
FREE C9L2 C9L2_$10
FREE C9L2 C9L2_$20
FREE C9L2 C10L_$10
FREE C9L2 C8L2_$10
FREE C9L2 H10L_$20
FREE C9L2 C8L2_$20
FREE C10L C10L_$20
FREE C10L C10L_$11
FREE C10L C10L_$16
FREE C10L C10L_$12
FREE C10L H10L_$20
FREE C10L C9L2_$20
FREE C10L C9L2_$10
FREE C10L C8L2_$20
FREE H10L H10L_$20
FREE C3L1 C3L1_$6
FREE C3L1 C1L1_$6
FREE C4L1 C3L1_$1
FREE C4L1 C3L1_$6
FREE C4L1 C4L1_$6
FREE C4L1 C4L1_$10
FREE C4L1 C2L1_$6
FREE C4L1 C2L1_$1
FREE C4L1 N1L1_$10
FREE C4L1 N1L1_$14
FREE C4L1 C5L1_$14
FREE C4L1 C5L1_$10
FREE C4L1 C5L1_$1
FREE C4L1 C5L1_$6
FREE C4L1 C6L1_$10
FREE C4L1 C5L1_$7
BIND C5L1 C4L1_$7
FREE C5L1 C5L1_$6
FREE C5L1 C5L1_$14
FREE C5L1 C5L1_$10
FREE C5L1 C5L1_$1
FREE C5L1 C5L1_$7
FREE C5L1 C3L1_$1
FREE C5L1 C3L1_$10
FREE C5L1 C2L1_$6
FREE C5L1 C2L1_$1
FREE C5L1 C2L1_$10
FREE C5L1 C2L1_$14
FREE C5L1 C4L1_$6
FREE C5L1 C4L1_$1
FREE C5L1 C4L1_$10
FREE C5L1 C4L1_$14
FREE N1L1 C3L1_$10
FREE N1L1 C3L1_$1
FREE N1L1 C1L1_$1
FREE N1L1 C1L1_$10
FREE N1L1 C4L1_$10
FREE N1L1 C4L1_$1
FREE C6L1 C1L1_$10
FREE C6L1 C1L1_$1
FREE C6L1 C2L1_$10
FREE C6L1 C2L1_$1
FREE C6L1 C3L1_$1
FREE C6L1 C2L1_$14
FREE C6L1 C2L1_$6
FREE C6L1 C4L1_$10
FREE C6L1 C3L1_$10
FREE C6L1 C6L1_$7
FREE C6L1 O1L1_$1
FREE C6L1 O1L1_$10
FREE C6L1 O2L1_$1
FREE C6L1 C4L1_$1
CONN 24 Tb1
BIND Tb1 O1H_$17
BIND Tb1 O1W
BIND Tb1 O4L2
FREE Tb1 Tb1_$6
FREE Tb1 Tb1_$13
FREE Tb1 C1L1_$6
FREE Tb1 O1H_$21
FREE Tb1 O1H_$6
FREE Tb1 O1H_$13
FREE Tb1 O1H_$5
FREE Tb1 Tb1_$17
FREE Tb1 Tb1_$21
FREE Tb1 Tb1_$5
FREE Tb1 Tb1_$3
FREE Tb1 Tb1_$8
FREE Tb1 Tb1_$15
FREE Tb1 O2L1_$6
FREE Tb1 O2L1_$21
FREE Tb1 O2H_$6
FREE Tb1 O1L1_$6
FREE Tb1 N2L1_$14
FREE Tb1 O2L2_$8
FREE Tb1 O4L2_$13
FREE C2L1 C4L1_$14
FREE C2L1 C4L1_$6
FREE C2L1 C5L1_$1
FREE C2L1 C5L1_$10
FREE C2L1 C5L1_$14
FREE C2L1 C5L1_$6
FREE C1L1 C1L1_$6
BIND O2L1 Tb1_$6
FREE O2L1 N2L1_$14
FREE O2L1 C6L1_$14
FREE O1L1 N2L1_$14
FREE O1L1 O1L1_$6
FREE O1L1 O2L1_$6
FREE O1L1 C1L1_$6
FREE O1L1 C6L1_$14
FREE O1L1 C6L1_$10
FREE O1L1 N2L1_$10
FREE O1L1 N1L1_$10
FREE O1L1 N1L1_$14
FREE O2H O2H_$6
FREE O2H O4L2_$6
FREE O2H O4L2_$5
BIND O1H Tb1_$17
FREE O1H O1H_$6
FREE O1H O1H_$5
FREE O1H O1H_$21
BIND Tb2 O2W
FREE Tb2 Tb1_$15
FREE Tb2 Tb1_$18
FREE Tb2 Tb1_$21
FREE Tb2 Tb1_$17
FREE Tb2 Tb1_$3
FREE Tb2 Tb1
FREE Tb2 Tb1_$6
FREE Tb2 Tb1_$13
FREE Tb2 Tb1_$5
FREE Tb2 N2L1_$10
FREE Tb2 N2L1_$14
FREE Tb2 N2L1_$4
FREE Tb2 N2L1_$19
FREE Tb2 N2L1_$22
FREE Tb2 N2L1_$2
FREE Tb2 O4L2_$13
FREE Tb2 O4L2_$5
FREE Tb2 O4L2_$21
FREE Tb2 O4L2_$6
FREE Tb2 O1L2_$21
FREE Tb2 O1L2_$6
FREE Tb2 O1L2_$13
FREE Tb2 O1L2_$5
FREE N2L1 C1L1_$1
FREE N2L1 C1L1_$10
FREE N2L1 Tb1_$10
FREE O1L2 C2L2
FREE O1L2 C1L2_$8
FREE O1L2 O4L2
FREE O1L2 O4L2_$13
FREE O2L2 C2L2
FREE O2L2 C1L2_$8
FREE O2L2 O1L2_$8
FREE O2L2 O4L2_$8
FREE O2L2 O4L2_$3
FREE O2L2 O2L2_$8
FREE C1L2 C1L2_$8
FREE C2L2 C1L2_$8
FREE C2L2 C2L2_$8
FREE C2L2 C11L_$8
FREE C2L2 C14L_$8
FREE C3L2 C1L2
FREE C3L2 C2L2_$8
FREE C3L2 C7L2_$8
FREE C3L2 C6L2_$8
FREE C3L2 C3L2_$8
FREE C4L2 C4L2_$8
FREE C4L2 C5L2_$16
FREE C4L2 C5L2_$8
FREE C5L2 C4L2_$8
FREE C5L2 C5L2_$8
FREE C5L2 C13L_$8
FREE C5L2 H4L2_$8
FREE C6L2 C3L2_$8
FREE C6L2 C4L2_$8
FREE C7L2 C1L2
FREE C7L2 C3L2_$8
FREE C7L2 C2L2_$8
FREE C7L2 C4L2_$8
FREE C7L2 H3L2_$8
FREE C13L C12L_$8
FREE C13L C13L_$8
FREE C13L C5L2_$8
FREE C11L C14L_$8
FREE C11L H14L_$8
FREE C14L C11L_$8
FREE C14L C12L_$8
FREE C14L C14L_$8
FREE C14L C2L2_$8
FREE C14L C13L_$8
FREE O4L2 C1L2_$8
FREE O4L2 C1L2
BOND $H
LIST 4
fmap 2
acta
OMIT 0 180
OMIT 1 1 1
OMIT 2 4 4
REM ######################### Tb6-cluster ########################
WGHT    0.200000
FVAR       0.05081
TB1   5    0.553035    0.481827    0.536743    10.33333    0.21183
TB2   5    0.550805    0.550805    0.465451    10.16667    0.18680
O1H   4    0.536371    0.536371    0.520926    10.16667    0.08736
O2H   4    0.556967    0.494256    0.482229    10.50000    0.16179
PART -1
O1W   4    0.597706    0.443715    0.582300    10.33333    0.36358
PART 0
O2W   4    0.597116    0.597116    0.430250    10.16667    0.36358
REM ########################## Ligand L1 #########################
O1L1  4    0.606007    0.513484    0.530836    10.33333    0.29994
O2L1  4    0.601817    0.562448    0.498020    10.33333    0.29994
C1L1  1    0.613355    0.541680    0.518790    10.33333    0.29994
C2L1  1    0.660309    0.589691    0.513522    10.16667    0.29994
PART -1
AFIX  43
H2L1  2    0.651551    0.598449    0.492536    10.16667   -1.20000
AFIX   0
PART 0
C3L1  1    0.644828    0.561428    0.528838    10.33333    0.29994
C4L1  1    0.657639    0.548605    0.559551    10.33333    0.29994
PART -1
AFIX  43
H4L1  2    0.647094    0.529303    0.570043    10.33333   -1.20000
AFIX   0
PART 0
C5L1  1    0.685935    0.564065    0.574931    10.16667    0.29994
N1L1  3    0.699208    0.550792    0.606736    10.16667    0.29994
C6L1  1    0.689331    0.524837    0.625998    10.33333    0.29994
PART -1
AFIX  43
H6L1  2    0.670253    0.511085    0.619616    10.33333   -1.20000
AFIX   0
PART 0
N2L1  3    0.706214    0.518592    0.653712    10.33333    0.29994
REM ########################## Ligand L2 #########################
O1L2  4    0.580680    0.423574    0.539821    10.33333    0.30165
O2L2  4    0.571041    0.415851    0.483665    10.33333    0.30408
PART -1
C1L2  1    0.583071    0.409017    0.512004    10.33333    0.30608
PART 0
AFIX  66
C2L2  1    0.604560    0.377092    0.512515    10.33333    0.31336
PART 1
C3L2  1    0.635611    0.376802    0.530037    10.16667    0.31530
AFIX  43
H3L2  2    0.643196    0.396798    0.541719    10.16667   -1.20000
AFIX  65
C4L2  1    0.655564    0.347256    0.530466    10.16667    0.31562
AFIX  43
H4L2  2    0.676786    0.347059    0.542442    10.16667   -1.20000
AFIX  65
PART 0
C5L2  1    0.644467    0.318000    0.513374    10.33333    0.31681
PART 1
C6L2  1    0.613416    0.318289    0.495852    10.16667    0.31486
AFIX  43
H6L2  2    0.605831    0.298293    0.484170    10.16667   -1.20000
AFIX  65
C7L2  1    0.593462    0.347834    0.495422    10.16667    0.31452
AFIX  43
H7L2  2    0.572240    0.348032    0.483447    10.16667   -1.20000
AFIX   0
PART 0
N1L2  3    0.664840    0.287857    0.513777    10.33333    0.32389
C8L2  1    0.681437    0.282034    0.543891    10.33333    0.33314
PART -1
O3L2  4    0.687566    0.288970    0.574101    10.33333    0.36757
PART 0
C9L2  1    0.703096    0.251493    0.535009    10.33333    0.32862
C10L  1    0.694896    0.231405    0.506719    10.33333    0.32609
AFIX  43
H10L  2    0.675559    0.237012    0.492990    10.33333   -1.20000
AFIX   0
PART 2
C12L  1    0.639879    0.336825    0.543327    10.16667    0.31559
AFIX  43
H12L  2    0.650371    0.329498    0.564064    10.16667   -1.20000
AFIX   0
C13L  1    0.629123    0.328676    0.482999    10.16667    0.31509
AFIX  43
H13L  2    0.632279    0.315790    0.462558    10.16667   -1.20000
AFIX   0
C11L  1    0.619907    0.366402    0.542891    10.16667    0.31507
AFIX  43
H11L  2    0.616757    0.379286    0.563333    10.16667   -1.20000
AFIX   0
C14L  1    0.609141    0.358252    0.482561    10.16667    0.31446
AFIX  43
H14L  2    0.598638    0.365569    0.461825    10.16667   -1.20000
AFIX   0
PART 0

O4L2  4    0.526504    0.453010    0.580671    10.33333    0.17215
HKLF 4

REM  KME_948 in Fd-3m
REM R1 =  0.1386 for     304 Fo > 4sig(Fo)  and  0.2036 for all     525 data
REM    113 parameters refined using    100 restraints

END

WGHT      0.2000      0.0000

REM Highest difference peak  1.074,  deepest hole -0.459,  1-sigma level  0.104
Q1    1   0.6250  0.6250  0.6250  10.04167  0.05    1.07
Q2    1   0.6250  0.6250  0.4062  10.25000  0.05    0.62
Q3    1   0.5501  0.4828  0.5501  10.50000  0.05    0.39
Q4    1   0.6250  0.1250  0.6250  10.04167  0.05    0.33
Q5    1   0.5350  0.3315  0.5108  11.00000  0.05    0.30
Q6    1   0.7095  0.3163  0.5405  10.50000  0.05    0.29
Q7    1   0.5916  0.5916  0.4801  10.50000  0.05    0.29
Q8    1   0.6672  0.2527  0.6672  10.50000  0.05    0.27
Q9    1   0.5310  0.3221  0.5050  11.00000  0.05    0.27
Q10   1   0.6892  0.5704  0.4575  11.00000  0.05    0.27
Q11   1   0.6698  0.2447  0.6698  10.50000  0.05    0.26
Q12   1   0.6588  0.2573  0.6588  10.50000  0.05    0.26
Q13   1   0.5322  0.3227  0.4891  11.00000  0.05    0.26
Q14   1   0.6584  0.1584  0.5916  10.16667  0.05    0.25
Q15   1   0.5361  0.3338  0.4934  11.00000  0.05    0.24
Q16   1   0.5731  0.4193  0.5434  11.00000  0.05    0.21
Q17   1   0.6818  0.2168  0.5332  10.50000  0.05    0.21
Q18   1   0.5253  0.2974  0.4746  11.00000  0.05    0.20
Q19   1   0.6250  0.5316  0.6250  10.25000  0.05    0.19
Q20   1   0.5977  0.5219  0.5320  11.00000  0.05    0.18
;
_shelx_res_checksum              73323
_shelx_hkl_file
;
   1  -1   1    0.40    0.80
  -1   1   1   -0.60    0.70
   1  -1  -1    0.10    1.30
  -1   1  -1   -0.90    0.80
   0  -2   0    0.80    1.50
   0   2   0    0.20    1.20
   2  -2   0   -0.40    2.20
  -2   2   0   -2.20    1.90
   3  -3   1 2606.24  101.69
   1  -3   3 2596.84  101.19
  -1  -3  -3 2671.13  101.09
  -3   1  -3 2587.84  100.79
  -3   3  -1 2521.35  101.69
   1  -3  -3 2612.84  101.39
   3  -3  -1 2650.43  101.89
  -3   3   3 1928.01   76.89
   3  -3   3 1949.10   75.99
   3  -3  -3 2032.00   76.99
  -3   3  -3 1823.42   75.89
   0  -4   2   -3.30    4.70
   0   4   2   -7.40    3.00
  -4   2   0   -7.80    4.60
   0  -4  -2   -5.80    4.70
  -2   4   0   -9.00    4.40
   0  -2  -4   -8.40    3.40
   2  -4   0   -5.60    4.80
   0   2   4   -7.10    2.10
  -2  -2  -4   30.10    3.90
  -4   2   2   18.70    5.70
   2  -4   2   35.40    5.80
   2  -2   4   28.30    4.20
   4  -2   2   23.10    5.20
  -2   4   2   19.50    4.90
  -4   2  -2   23.40    5.00
  -2   4  -2   30.10    5.60
  -2   2  -4   28.90    4.40
   2  -4  -2   25.00    5.70
   4  -4   0 1824.02   72.59
   0   4   4 1804.62   71.59
   0  -4  -4 1811.42   71.79
   4  -2   4  348.27   17.80
  -2  -4  -4  347.17   18.50
  -2   4   4  319.07   18.30
   4  -4   2  321.77   20.00
   2  -4   4  357.96   18.90
  -4   2  -4  337.27   18.00
   4  -4  -2  372.06   21.90
   2  -4  -4  354.76   19.70
  -2   4  -4  343.77   18.50
  -4   4  -2  314.97   19.50
   4  -4   4 2422.46   95.39
  -4   4  -4 2274.97   95.19
   4  -4  -4 2535.85   96.69
  -1   5   1 1239.28   49.80
   1  -5   1 1245.78   50.09
  -1  -5  -1 1137.09   49.40
  -1   5  -1 1137.69   49.70
   1  -5  -1 1284.57   50.09
   1  -5   3  309.87   18.10
  -1   5   3  272.77   17.40
   5  -3   1  314.47   19.70
  -1  -5  -3  314.57   18.70
   1  -5  -3  335.77   19.80
  -3   1  -5  293.77   14.10
  -1   3   5  301.47   16.70
   1  -3   5  295.47   16.40
  -1  -3  -5  321.57   16.30
   3  -5   1  321.97   19.90
   3  -5  -1  306.47   20.20
   1   3   5  303.57   15.80
  -5   1  -3  339.87   18.90
   1  -3  -5  320.77   17.60
   5  -3   3  946.01   41.00
   3  -5   3  953.20   41.20
  -3   3   5  919.81   40.80
   3  -3   5  985.30   39.50
  -3   3  -5  932.71   39.40
  -5   3  -3  917.21   40.50
   3  -5  -3  967.10   41.80
  -1  -5  -5   67.99    8.60
   5  -5   1   49.70    9.80
   1  -5   5   58.19    9.20
   1  -5  -5   51.29    8.70
  -5   1  -5   49.70    6.80
   1   5   5   66.99    8.00
   5  -5  -1   53.09   10.30
   5  -3   5 3111.09  121.29
   3  -5   5 3147.08  121.79
  -3  -5  -5 3133.19  121.29
   5  -5   3 3081.79  122.29
  -5   3  -5 2829.82  120.89
   5  -5  -3 3156.78  123.29
   3  -5  -5 3225.58  122.79
   5  -5   5  713.23   34.90
   0  -6   0  -11.60    6.90
   0  -6   2   80.59    9.60
   0  -6  -2   85.19    9.70
   0  -6  -4    1.10    8.20
   6  -4   0    1.50    8.30
   0  -6   4    5.80    8.20
   0   2   6   88.59   10.50
   2  -6   0   79.59    9.70
  -2   2   6   87.79    8.40
  -2  -6  -2  102.89   10.20
   2  -2   6   82.49   10.00
   2  -6   2   95.59   10.20
   2  -6  -2   95.69   10.40
   6  -4   2  786.22   37.50
  -2  -6  -4  807.42   35.80
   2  -6   4  817.32   36.80
   4  -2   6  803.12   33.50
   2  -6  -4  770.32   36.70
  -4   2  -6  758.42   33.40
   0   4   6   -2.80    6.60
   0  -4  -6    1.20    6.70
   4  -6   0   -2.40    8.70
   4  -6   2  776.22   37.90
  -2  -4  -6  797.92   35.10
   2  -4   6  821.72   35.90
   2  -4  -6  860.81   37.80
  -6   2  -4  800.82   37.00
   4  -6  -2  823.22   39.10
   4  -6   4 5552.54  214.88
   6  -4   4 5667.23  214.68
   4  -4   6 5571.94  213.78
   4  -6  -4 5559.04  215.28
  -4   4  -6 5283.47  213.78
  -6   0  -6 4020.60  155.78
   6  -6   0 4021.00  158.48
   0  -6  -6 4012.00  157.08
   6  -6   2  462.65   28.30
  -2  -6  -6  398.46   25.60
   2  -6   6  350.96   25.40
   2  -6  -6  407.96   27.20
   6  -6  -2  404.76   29.30
  -6   2  -6  504.05   23.00
  -4  -6  -6  395.16   23.20
   6  -4   6  311.97   23.60
   4  -6   6  317.97   24.10
   6  -6   4  339.47   25.30
   4  -6  -6  313.07   18.90
   6  -4  -6  321.87   19.90
   4  -6  -6  334.37   25.90
   6  -6  -4  375.56   28.00
   6  -6  -4  297.17   20.50
   6  -6   6   85.89   13.60
   6  -6  -6   93.29   11.40
   1  -7   1  516.45   28.70
  -1  -7  -1  499.45   27.30
   1  -7  -1  529.95   29.20
  -1  -7   1  537.65   28.70
   1  -7   3  571.34   31.50
  -1  -7  -3  601.44   31.30
   1  -7  -3  671.03   32.10
  -1  -7  -5  457.85   27.10
   1  -7   5  410.36   26.50
   7  -5   1  466.25   29.10
   1  -7  -5  450.55   28.10
  -5   1  -7  393.46   20.70
  -1   3   7  576.24   28.10
  -1  -3  -7  615.24   26.60
   3  -7   1  610.14   30.60
   3  -7  -1  603.94   32.30
   1   3   7  565.94   26.10
   3  -7   3   -2.80    9.70
   3  -3   7    2.90    6.60
  -3  -7  -3   -6.50    9.20
  -3  -3  -7    4.80    5.30
   3  -7  -3    9.60   10.00
   5  -3   7  472.95   24.80
   3  -7   5  455.65   27.20
  -3  -7  -5  458.05   27.60
   7  -5   3  458.35   28.50
   5  -3  -7  421.46   21.40
  -5   3  -7  422.86   24.00
   3  -7  -5  453.85   23.60
   1  -5   7  435.06   25.30
   5  -7   1  489.55   29.10
  -1  -5  -7  470.95   24.20
   1  -5  -7  417.36   25.70
   1   5   7  358.36   24.00
  -7   1  -5  403.36   25.20
  -3  -5  -7  460.35   26.00
   5  -7   3  514.05   30.60
   3  -5   7  480.45   26.90
   3  -5  -7  481.15   29.30
   5  -7  -3  491.65   24.70
   5  -7  -3  473.15   31.00
   3  -5  -7  431.26   22.20
   7  -5   5 1811.02   75.59
   5  -5   7 1744.83   73.69
   5  -7   5 1785.22   75.59
  -5  -5  -7 1810.62   72.89
   5  -5  -7 1872.41   63.99
   5  -7  -5 1775.52   76.59
   7  -5  -5 1823.72   64.29
   5  -7  -5 1794.82   64.79
  -1  -7  -7 2611.44   92.09
   7  -7   1 2764.12   93.79
  -1  -7  -7 2756.62  107.39
   7  -7   1 2552.74  108.59
   1  -7   7 2765.82  107.89
  -7   1  -7 2579.14  105.79
   1  -7  -7 2764.32  108.09
   7  -7  -1 2703.23  109.19
   7  -1  -7 2733.63   92.09
   7  -7  -1 2763.22   93.49
   1  -7  -7 2582.94   92.29
   7  -7   3  360.76   29.20
   3  -7   7  431.46   27.40
  -3  -7  -7  381.46   26.50
   7  -7   3  384.96   24.20
   3  -7  -7  370.56   20.90
   7  -7  -3  360.76   21.50
   7  -7  -3  354.06   30.50
   7  -3  -7  394.46   21.80
   3  -7  -7  433.06   28.70
   7  -5   7 2990.30  119.29
  -5  -7  -7 2954.90  118.69
   7  -7   5 3058.09  120.69
   5  -7   7 2980.70  119.49
   5  -7  -7 3137.29  121.19
   5  -7  -7 2848.01  102.79
   7  -5  -7 2916.91  102.79
   7  -7  -5 2984.90  103.29
   7  -7   7 3072.89  122.29
   7  -7  -7 2993.00  105.39
   0  -8   0 4033.20  158.68
   0  -8   2   11.10   10.20
   0  -8  -2   -5.70   10.10
   0  -8   4 5198.38  204.88
   0  -8  -4 5291.47  204.78
   0  -8  -6   37.30   11.60
   8  -6   0   -4.10   11.00
   0  -8   6  -19.10   11.50
   0  -8  -6   18.30    8.60
   2  -8   0    2.70   10.30
   0   2   8   -2.10    5.50
  -2  -8   0   10.40   10.10
  -2   2   8   49.30    8.70
  -2  -8  -2   58.29   11.40
   2  -8   2   55.09   11.50
   2  -2   8   64.29    6.80
   2  -8  -2   61.49   11.60
   4  -2   8  128.09   12.40
   2  -8   4   91.89   13.00
   2  -8  -4   98.09   13.50
   2  -8  -4   71.39   10.50
   4  -2  -8   75.79    9.60
  -2  -8  -6 1902.61   76.89
   2  -8   6 1834.62   76.59
   8  -6   2 1844.42   78.19
   2  -8  -6 1794.22   76.89
   2  -8  -6 1900.71   65.99
   6  -2  -8 1883.31   64.89
  -6   2  -8 1741.63   73.39
   8  -6  -2 1843.42   65.79
   4  -8   0 5245.98  205.68
   0   4   8 5124.89  203.28
   4  -8   0 5196.58  176.58
   0  -4  -8 5447.56  203.38
   4  -8   2   55.59   12.60
   4  -8   2   78.89   11.60
  -2  -4  -8   76.29    8.20
   2  -4   8   63.59    9.50
   4  -8  -2   60.99   12.40
   4  -8  -2   82.19   10.80
   2  -4  -8   65.09    9.30
   4  -4   8  208.18   18.10
  -4  -4  -8  201.78   16.50
  -4  -8  -4  201.08   21.40
   4  -8   4  210.48   23.10
   4  -8  -4  184.98   17.00
   4  -8  -4  204.88   24.60
   4  -4  -8  187.18   17.40
   6  -4   8 2912.81  114.79
  -4  -8  -6 2840.22  115.99
   4  -8   6 2957.70  116.79
   8  -6   4 2857.11  117.69
   8  -6  -4 2841.72  100.09
   6  -4  -8 2914.41  100.09
   4  -8  -6 2975.70  117.99
   4  -8  -6 2906.31  100.59
   0  -6  -8   -9.80    9.70
   6  -8   0   15.50   12.30
   6  -8   0   -2.70   10.00
   0  -6  -8    2.70    8.40
   2  -6   8 1846.22   76.39
  -2  -6  -8 1830.22   75.79
   6  -8   2 1858.51   78.99
   6  -8   2 1916.91   67.79
   2  -6  -8 1914.41   66.39
   6  -8  -2 1890.31   67.49
   6  -8  -2 1838.22   79.29
   8  -2  -6 1896.21   65.59
   2  -6  -8 1784.52   77.49
   6  -8   4 2854.81  116.89
  -4  -6  -8 2966.90  114.59
   4  -6   8 2850.31  115.09
   4  -6  -8 2896.91   99.79
   6  -8  -4 2872.11  117.89
   6  -8  -4 2882.51  100.49
   8  -4  -6 2910.31   99.39
   6  -8   6 6758.02  271.47
   8  -6   6 6953.60  271.47
  -6  -6  -8 7036.10  269.77
   6  -6   8 6953.70  270.67
   8  -6  -6 7038.20  233.38
   6  -6  -8 7362.96  233.58
   6  -8  -6 6943.71  272.67
   6  -8  -6 6759.72  233.38
   8  -8   0   32.70   14.80
   8  -8   0   43.90   12.00
  -8   0  -8   32.80    8.30
   0  -8  -8   39.50   12.60
   0  -8   8   40.60   13.50
   0  -8  -8   44.80   10.30
  -2  -8  -8 1148.29   51.69
  -2  -8  -8 1132.19   43.30
   8  -8   2 1152.48   54.69
   2  -8   8 1187.08   52.19
   8  -8   2 1183.28   46.20
   2  -8  -8 1148.59   43.80
   8  -2  -8 1173.68   43.90
   8  -8  -2 1081.29   53.79
  -8   2  -8 1069.59   49.20
   8  -8  -2 1174.78   45.80
   8  -8   4   22.10   14.50
  -4  -8  -8   28.70   10.30
  -4  -8  -8   25.50   12.70
   8  -8   4   51.79   13.10
   4  -8   8   48.90   13.70
   8  -8  -4   13.40   13.70
   4  -8  -8   20.40   10.80
   4  -8  -8   22.10   14.60
   8  -8  -4    8.50   11.70
   8  -4  -8   20.30   10.70
   6  -8   8  188.48   18.50
   8  -6   8  165.78   16.80
   8  -8   6  212.28   26.20
  -6  -8  -8  162.48   16.00
   8  -6  -8  152.08   14.80
   8  -8  -6  163.68   15.40
   6  -8  -8  154.98   15.30
   8  -8   8  243.48   28.80
   8  -8  -8  261.57   23.60
  -1   1   9 1706.63   67.69
   1  -9   1 1568.44   60.29
  -1  -9  -1 1703.63   71.09
   1  -9   1 1771.92   71.49
  -1  -9   1 1607.94   70.19
   1  -9  -1 1737.33   71.29
   1  -9  -1 1635.04   60.59
   1  -9   3 1117.89   51.29
  -1  -9  -3 1213.08   52.89
   1  -9  -3 1172.18   52.69
   1  -9  -3 1127.69   43.90
  -1  -9   3 1119.69   52.49
  -1  -9  -5  600.44   27.70
  -1  -9  -5  590.84   34.30
   1  -9  -5  634.34   36.40
   1  -9  -5  607.34   27.50
  -1  -9   5  688.23   35.70
   9  -7   1  175.08   15.60
  -1  -9  -7  168.78   17.40
  -1  -9  -7  160.58   16.50
   9  -7   1  150.18   17.20
   1  -9   7  190.28   23.10
  -1  -9   7  180.68   17.90
   1  -9  -7  197.78   18.40
  -7   1  -9  168.78   14.90
   1  -9  -7  175.48   17.30
   9  -7  -1  186.98   15.60
  -1   3   9 1194.48   48.50
  -3  -9  -1 1051.79   50.89
   3  -9   1 1282.77   45.60
   3  -9  -1 1202.18   52.89
   3  -9  -1 1096.89   43.90
   1   3   9 1065.79   46.60
   3  -9   3   45.10   12.60
  -3  -9  -3   23.10   11.50
   3  -3   9   18.40    7.20
   3  -9  -3   28.70    9.90
   3  -3  -9   25.40    8.90
   3  -9  -3   17.60   12.20
   5  -3   9 2217.48   83.69
   3  -9   5 2148.69   87.49
  -3  -9  -5 2112.99   86.89
   3  -9  -5 2177.18   88.19
   9  -5  -3 2021.00   74.39
   3  -9  -5 2122.79   75.29
   5  -3  -9 1973.30   73.69
   9  -7   3  305.37   29.50
   9  -7   3  329.07   24.70
  -3  -9  -7  309.27   27.60
   3  -9   7  342.57   27.80
  -3  -9  -7  326.67   19.60
   9  -7  -3  305.07   22.50
   3  -9  -7  322.97   28.70
  -7   3  -9  292.37   21.50
   3  -9  -7  313.67   22.30
   7  -3  -9  271.67   19.40
   5  -9   1  616.24   30.00
   1  -5   9  626.94   32.60
  -1  -5  -9  624.54   31.00
  -1  -5  -9  664.73   27.70
   5  -9   1  607.14   36.80
   1   5   9  636.14   30.90
   1  -5  -9  683.73   28.30
   5  -9  -1  689.13   30.10
   5  -9   3 2197.98   88.09
  -3  -5  -9 2133.79   83.89
   3  -5   9 2101.79   84.79
   5  -9  -3 2051.59   74.89
   3  -5  -9 2053.89   74.29
   5  -9  -3 2159.78   88.89
   9  -3  -5 2065.69   73.59
  -5  -9  -5 2374.06   96.19
   5  -9   5 2329.17   96.79
   5  -5   9 2407.56   94.09
  -5  -5  -9 2375.26   92.99
   5  -9  -5 2224.38   82.49
   5  -5  -9 2336.37   82.49
   9  -5  -5 2360.16   82.19
   5  -9  -5 2299.57   97.69
   7  -5   9   78.49   12.80
   9  -7   5   63.99   15.20
  -5  -9  -7   69.89   13.90
   5  -9   7   97.09   16.70
   5  -9  -7   93.29   13.00
   7  -5  -9   90.29   12.60
   5  -9  -7   87.89   17.20
   9  -7  -5   93.09   12.80
   7  -9   1  168.48   18.20
  -1  -7  -9  155.98   17.20
   7  -9   1  159.08   15.50
   1  -7   9  173.08   16.10
  -1  -7  -9  172.98   22.10
   9  -1  -7  148.99   15.90
   7  -9  -1  170.88   15.60
   1  -7  -9  158.58   13.70
   1  -7  -9  199.38   22.90
   7  -9  -1  151.48   18.10
  -3  -7  -9  259.27   24.90
  -3  -7  -9  321.37   20.40
   7  -9   3  345.87   24.70
   3  -7   9  317.17   25.20
   7  -9   3  374.96   30.20
   7  -9  -3  292.77   28.50
   9  -3  -7  317.57   20.90
   3  -7  -9  306.67   20.30
   7  -9  -3  292.47   21.80
   3  -7  -9  320.57   28.00
   5  -7   9   80.69   14.20
  -5  -7  -9   68.99   12.40
   7  -9   5   88.59   16.80
  -5  -7  -9   92.89   11.20
   7  -9  -5   71.99   13.30
   7  -9  -5   70.29   15.20
   5  -7  -9   95.69   12.60
   9  -5  -7  102.39   12.50
   7  -7   9  -11.80   13.60
   7  -9   7  -18.30   15.80
   9  -7   7  -14.60   14.10
  -7  -7  -9   -8.70   11.20
   7  -9  -7    2.80   11.60
   9  -7  -7   -7.50   11.70
   7  -7  -9    0.70   11.50
   7  -9  -7    4.60   15.00
  -9  -1  -9  125.09   11.60
  -1  -9  -9  180.08   14.90
   9  -9   1  197.58   17.20
  -1  -9  -9  146.39   16.80
   9  -9   1  154.78   20.00
   1  -9   9  166.98   18.30
   1  -9  -9  159.28   17.50
   1  -9  -9  180.58   19.10
  -1  -9   9  187.78   19.50
   9  -9  -1  160.88   16.60
  -9   1  -9  133.69   11.80
   9  -9   3 1845.92   83.49
  -3  -9  -9 1822.22   80.39
  -3  -9  -9 1961.20   68.99
   3  -9   9 1881.01   81.29
   9  -9   3 1894.41   71.09
   9  -9  -3 1956.50   70.99
   9  -3  -9 1957.60   69.09
   3  -9  -9 1969.70   70.09
   9  -9  -3 1912.41   84.29
   3  -9  -9 1947.61   82.29
  -5  -9  -9 2331.87   94.49
  -5  -9  -9 2145.69   80.19
   9  -9   5 2390.96   97.99
   5  -9   9 2315.37   95.29
   9  -9   5 2168.28   83.29
   9  -9  -5 2283.87   82.79
   5  -9  -9 2276.27   82.19
   9  -5  -9 2280.07   81.79
   5  -9  -9 2387.06   97.69
  -7  -9  -9 1400.76   59.99
  -7  -9  -9 1230.58   49.40
   7  -9   9 1354.06   61.59
   9  -9   7 1382.26   63.49
   9  -7  -9 1323.87   52.59
   9  -9  -7 1278.27   53.19
   7  -9  -9 1315.87   53.09
   9  -9   9 1920.31   84.59
  -9  -9  -9 1890.11   82.19
   9  -9  -9 1999.10   72.79
   0 -10   0   -4.70    9.50
   0 -10   0   -1.30   11.50
   0 -10   2   10.00   12.10
   0 -10  -2   38.10   12.50
   0 -10  -4  -13.80    9.30
   0 -10  -4    3.00   12.00
   0 -10   4   -9.60   11.90
   0 -10   6 1164.28   54.59
  10  -6   0 1098.09   44.30
   0 -10  -6 1148.79   44.70
   0 -10  -6 1186.78   54.29
   0 -10   8    9.70   14.80
   0 -10  -8   15.90   10.50
  10  -8   0    0.70   12.10
   2 -10   0    8.00   10.20
  -2 -10   0    4.00    9.90
   0   2  10    7.10    6.60
   2 -10   0   17.20   12.30
  -2 -10   0   28.60   12.40
   2 -10   2 5165.98  202.18
   2 -10   2 5143.09  174.18
  -2 -10  -2 5182.38  172.98
  -2 -10  -2 5224.38  201.98
   2 -10  -2 4985.00  173.28
   2 -10  -2 5297.27  202.28
  -2 -10   2 4997.90  201.78
   2 -10   4   14.90   12.70
  -2 -10  -4   -2.20   12.60
  -2 -10  -4   11.80    9.60
   2 -10  -4    8.60   12.90
  -2 -10   4   -2.60   12.60
   2 -10  -4    2.10   10.10
  -2 -10  -6  822.72   39.80
  10  -6   2  692.23   31.50
  -2 -10  -6  683.93   30.50
   2 -10   6  674.53   39.70
   2 -10  -6  695.43   40.40
  10  -6  -2  676.43   31.20
   2 -10  -6  666.53   31.00
  -2 -10  -8  540.15   36.30
   2 -10   8  607.44   35.90
  10  -8   2  508.15   37.80
  10  -8   2  566.94   29.90
  -2 -10  -8  564.34   28.40
   2 -10  -8  590.24   29.40
  -8   2 -10  527.45   28.00
   2 -10  -8  558.54   36.90
  10  -8  -2  522.25   29.30
   4 -10   0    2.70   12.80
   4 -10   0   -6.60   10.20
   0  -4 -10   -4.90    8.50
   0   4  10   -5.00    8.00
  -4 -10  -2    8.40   12.50
   2  -4  10    5.50    8.80
   4 -10   2   21.50   13.10
   4 -10   2   11.30   11.00
   2  -4 -10   12.10    9.10
   4 -10  -2    4.20   10.70
   4 -10  -2   -5.60   12.80
   4 -10   4 2384.16   99.49
   4  -4  10 2363.26   95.39
  -4 -10  -4 2401.76   99.09
   4 -10  -4 2447.66   85.69
   4  -4 -10 2445.56   84.49
  10  -4  -4 2411.26   83.89
   4 -10  -4 2442.16  100.29
  10  -6   4   24.70   12.20
  -4 -10  -6    9.60    9.80
   6  -4  10   22.20    9.50
  -4 -10  -6   28.20   13.60
   4 -10   6   20.80   14.80
  10  -6  -4   26.70   10.70
   4 -10  -6   26.50   11.70
   4 -10  -6   16.40   15.10
   6  -4 -10    7.60   10.10
  10  -8   4 1894.11   85.09
  10  -8   4 1942.31   72.29
  -4 -10  -8 1924.11   70.19
   4 -10   8 2018.80   83.99
  -4 -10  -8 1932.41   83.09
  10  -8  -4 1987.00   72.09
   8  -4 -10 2034.10   71.09
   4 -10  -8 2053.49   85.29
   4 -10  -8 1874.71   71.19
   6 -10   0 1187.58   56.19
   0  -6 -10 1123.09   44.00
   6 -10   0 1202.78   47.80
   0  -6 -10 1202.88   51.89
  -2  -6 -10  723.63   30.20
   2  -6  10  723.53   35.50
  -2  -6 -10  690.93   34.30
   6 -10   2  712.53   40.30
   6 -10   2  650.83   34.20
   2  -6 -10  706.53   30.40
  10  -2  -6  728.83   30.60
   6 -10  -2  661.03   33.90
   6 -10  -2  711.13   41.30
  -4  -6 -10   29.80   10.00
  -4  -6 -10    8.60    9.30
   6 -10   4    9.30   14.20
   4  -6  10   12.50   11.60
   6 -10  -4   31.10   15.40
   4  -6 -10   27.70   10.70
  10  -4  -6   35.40   10.80
   6 -10  -4    8.00   11.90
  -6 -10  -6    9.40   14.10
   6  -6  10    6.10   12.10
  -6  -6 -10    8.50    9.90
   6 -10   6    1.90   14.70
   6 -10  -6    4.90   11.90
   6 -10  -6   16.50   16.60
   6  -6 -10   13.30   11.10
  10  -6  -6   -8.20   11.00
  -6 -10  -8 1911.21   80.89
   6 -10   8 1956.20   81.79
   8  -6  10 1866.61   79.39
  10  -8   6 1880.61   83.29
  -6 -10  -8 1868.61   67.69
  -8  -6 -10 1903.01   77.69
   6 -10  -8 1928.61   70.79
   6 -10  -8 1918.41   83.09
  10  -8  -6 1835.32   69.89
   8  -6 -10 1806.72   68.69
   0  -8 -10   -2.20   10.40
   8 -10   0  -19.10   15.10
   8 -10   0  -13.60   12.10
   0  -8 -10  -19.80   12.20
   0  -8  10  -37.60   14.10
   8 -10   2  583.84   38.70
   2  -8  10  553.44   33.70
   8 -10   2  564.44   32.30
  -2  -8 -10  681.03   29.50
  10  -2  -8  548.75   27.80
   8 -10  -2  588.94   32.00
   2  -8 -10  577.04   29.50
   8 -10  -2  560.94   39.80
   2  -8 -10  704.83   37.20
   8 -10   4 1976.60   84.89
  -4  -8 -10 1905.71   68.89
   8 -10   4 1969.10   72.69
   4  -8  10 1965.00   81.69
  -4  -8 -10 1947.21   80.79
  10  -4  -8 2007.10   70.49
   8 -10  -4 1899.21   71.39
   8 -10  -4 1899.51   85.29
   4  -8 -10 1939.91   70.49
   8 -10   6 1991.60   86.09
   6  -8  10 2071.19   83.19
  -6  -8 -10 1970.70   81.59
  -6  -8 -10 1850.01   69.29
   8 -10  -6 1892.61   86.19
   6  -8 -10 1872.81   71.69
  10  -6  -8 1975.60   71.69
   8 -10  -6 2014.80   73.09
  10  -8   8 2241.58   98.19
   8  -8  10 2420.66   97.59
  -8 -10  -8 2335.47   96.99
  -8  -8 -10 2232.38   95.19
   8 -10   8 2341.17   99.09
   8 -10  -8 2255.57   84.99
   8  -8 -10 2389.16   84.39
  10  -8  -8 2339.57   84.09
   0 -10  10   55.59   17.90
  10 -10   0   46.20   16.80
   0 -10 -10   43.90   16.50
   0 -10 -10   41.60   12.80
  10 -10   0   37.60   15.00
  -2 -10 -10  616.14   30.20
  -2 -10 -10  595.74   37.50
  10 -10   2  643.14   41.60
  10 -10   2  619.24   33.70
   2 -10  10  633.64   38.20
   2 -10 -10  687.63   39.30
   2 -10 -10  617.24   31.60
  10 -10  -2  600.04   42.80
  10 -10  -2  609.84   33.60
  -4 -10 -10   16.20   14.70
  10 -10   4    2.60   14.50
   4 -10  10   16.90   16.50
  10 -10   4    1.20   18.50
  -4 -10 -10   -2.80   12.00
   4 -10 -10    7.40   12.40
  10 -10  -4   -2.30   13.90
   4 -10 -10    7.20   16.50
  10  -4 -10   -2.80   11.60
  -6 -10 -10    9.00   11.50
  10 -10   6    3.00   19.70
  -6 -10 -10   -9.60   15.10
  10 -10   6   32.80   16.10
   6 -10  10   24.20   16.80
  10  -6 -10    7.10   13.00
   6 -10 -10   28.70   13.70
  10 -10  -6  -12.80   13.90
   8 -10  10  177.38   22.50
  -8 -10 -10  174.88   19.40
  10 -10   8  315.67   34.30
  -8 -10 -10  187.08   18.80
  10  -8 -10  172.38   18.60
  10 -10  -8  170.78   19.40
   8 -10 -10  184.08   19.10
  10 -10  10  617.54   43.20
 -10 -10 -10  630.44   40.40
  10 -10 -10  746.13   37.20
  -1 -11  -1 1209.98   54.99
   1 -11   1 1176.08   55.49
  -1   1  11 1205.18   49.99
  -1 -11  -1 1170.98   45.90
   1 -11   1 1182.78   47.00
   1 -11  -1 1158.98   45.60
  -1 -11   1 1191.68   55.09
  -1 -11   1 1120.09   46.40
   1 -11  -1 1163.28   55.19
  -1 -11  -3  980.40   47.50
  -1 -11  -3  884.31   38.30
   1 -11   3  929.41   47.40
   1 -11  -3  949.01   39.40
   1 -11  -3  975.20   47.30
  -1 -11   3  937.51   47.50
  -1 -11  -5   -6.50   13.30
  11  -5   1    9.00   10.40
   1 -11   5    8.50   13.90
  -1 -11  -5    3.10   10.70
   1 -11  -5   12.00   14.30
   1 -11  -5   11.90   11.00
  11  -5  -1    0.80    9.80
  -1 -11   5   11.20   14.30
  -1 -11  -7  711.63   40.30
  11  -7   1  779.32   35.00
  -1 -11  -7  729.13   33.20
   1 -11   7  726.03   41.10
   1 -11  -7  770.52   42.70
  -1 -11   7  747.83   42.30
  11  -7  -1  734.03   33.50
   1 -11  -7  760.72   34.40
   1 -11   9  340.97   32.20
  11  -9   1  363.76   28.30
  -1 -11  -9  386.36   31.60
  -1 -11  -9  399.76   25.80
  -1 -11   9  347.77   34.20
  11  -9  -1  350.96   26.30
   1 -11  -9  364.36   25.50
   1 -11  -9  362.56   32.80
  -3 -11  -1  955.00   38.00
  -1   3  11  901.01   40.60
   3 -11   1  929.71   39.80
   3 -11   1  900.81   45.00
  -3 -11  -1  948.11   46.30
  -3 -11   1  897.31   38.00
   3 -11  -1  915.41   38.20
  -3 -11   1  839.52   46.40
   3 -11  -1  877.71   46.60
   3  -3  11  318.47   18.60
  -3 -11  -3  313.37   28.30
   3 -11   3  330.37   29.20
  -3 -11  -3  313.77   20.20
   3 -11  -3  337.57   30.50
   3 -11  -3  301.37   22.10
  -3 -11  -5  536.25   28.00
  -3 -11  -5  590.74   35.20
  11  -5   3  564.54   27.90
   3 -11   5  559.64   35.70
   3 -11  -5  558.74   30.00
   3 -11  -5  597.94   36.90
  11  -5  -3  601.64   28.30
   5  -3 -11  560.54   27.70
   3 -11   7   46.60   15.90
  -3 -11  -7   23.90   14.90
  11  -7   3   39.30   13.50
  -3 -11  -7   37.60   11.60
   3 -11  -7   40.90   13.10
   3 -11  -7   48.20   17.40
   7  -3 -11   26.10   11.30
  11  -7  -3   51.29   12.60
  11  -9   3  116.19   20.30
  11  -9   3  140.39   17.50
  -3 -11  -9  124.69   18.50
  -3 -11  -9  146.99   15.00
   3 -11   9  156.98   20.30
   3 -11  -9  154.08   21.30
   3 -11  -9  155.98   16.50
   9  -3 -11  114.99   14.60
  11  -9  -3  170.68   17.10
  -1  -5 -11   16.90    9.70
   1  -5  11   -2.10   11.10
   5 -11   1    1.30   13.80
   5 -11   1    5.30   11.50
  -5 -11   1   14.90   11.20
   5 -11  -1   -0.10   11.40
   1  -5 -11    8.90    9.90
   5 -11  -1  -18.00   13.60
   1   5  11   -6.70    8.60
   5 -11   3  551.74   36.80
  -3  -5 -11  543.75   27.20
   5 -11   3  577.74   32.00
  -5 -11  -3  642.44   37.20
  -5 -11  -3  558.14   26.90
   3  -5  11  573.84   29.80
   5 -11  -3  560.44   37.80
  11  -3  -5  546.05   26.40
   5 -11  -3  586.74   30.60
   3  -5 -11  532.05   26.60
  -5 -11  -5  209.48   20.20
   5 -11   5  191.98   20.80
  11  -5   5  223.48   20.80
  -5 -11  -5  186.58   17.70
   5  -5  11  200.48   21.00
   5 -11  -5  181.78   21.30
   5 -11  -5  186.38   17.30
   5  -5 -11  193.38   15.50
  11  -5  -5  254.97   21.20
  11  -7   5 1027.10   43.30
  -5 -11  -7  941.01   40.40
   5 -11   7 1061.59   51.49
  -5 -11  -7  980.60   49.80
   7  -5 -11  932.61   39.90
   5 -11  -7 1052.79   51.99
  11  -7  -5 1026.40   42.80
   5 -11  -7  940.31   42.00
  -5 -11  -9   69.29   13.10
   5 -11   9   60.19   18.50
  -5 -11  -9   16.20   16.50
  11  -9   5   25.60   18.80
  11  -9   5   69.39   16.00
  -9  -5 -11   36.60   10.50
   5 -11  -9   40.20   19.80
   9  -5 -11   49.50   13.10
  11  -9  -5   32.70   14.40
   5 -11  -9   58.79   14.70
   7 -11   1  715.03   36.10
  -1  -7 -11  731.83   31.70
   7 -11   1  761.52   43.00
  -1  -7 -11  686.63   35.90
   1  -7  11  747.33   37.90
   1  -7 -11  738.73   38.60
   7 -11  -1  661.13   33.90
   1  -7 -11  716.83   32.20
  11  -1  -7  736.83   31.20
   7 -11  -1  698.63   43.30
  -3  -7 -11   31.50   11.50
   3  -7  11   64.59   13.70
   7 -11   3   49.00   17.10
  -3  -7 -11   53.79   11.40
   7 -11   3   55.59   14.20
   3  -7 -11   28.30   11.70
   7 -11  -3   43.70   14.00
   7 -11  -3   38.40   17.50
  11  -3  -7   43.00   11.20
  -5  -7 -11  995.90   45.50
   7 -11   5 1013.80   51.89
  -7 -11  -5 1002.30   49.50
   5  -7  11 1085.49   48.10
  11  -5  -7  987.20   41.60
   5  -7 -11  995.20   42.60
   7 -11  -5 1031.00   44.60
   7 -11  -5  963.50   51.49
   7 -11   7 2090.79   91.19
   7  -7  11 2168.48   88.79
  -7 -11  -7 2080.39   90.19
  -7  -7 -11 2091.39   86.89
  -7 -11  -7 2073.19   75.29
   7 -11  -7 2080.39   93.59
  11  -7  -7 2218.28   77.79
   7  -7 -11 2161.28   77.89
   7 -11  -7 2191.88   79.29
  -7 -11  -9    8.90   16.20
   7 -11   9   -2.20   18.80
  11  -9   7   41.20   20.00
  -9  -7 -11   25.20   12.00
  -7 -11  -9   13.00   12.10
  11  -9  -7   20.00   14.60
   9  -7 -11    2.80   13.90
   7 -11  -9   28.70   19.70
   7 -11  -9   38.80   15.20
  -1  -9 -11  363.56   25.00
   9 -11   1  304.67   33.90
  -1  -9 -11  344.87   28.60
   1  -9  11  356.36   29.60
   9 -11   1  332.27   25.60
   1  -9 -11  332.37   24.10
   1  -9 -11  354.16   30.50
   9 -11  -1  409.96   36.40
   9 -11  -1  359.16   28.20
  -1  -9  11  353.26   32.10
  -3  -9 -11  142.69   16.50
   9 -11   3  129.59   21.30
   3  -9  11  142.89   18.20
  -3  -9 -11  150.38   14.60
   9 -11   3  139.79   17.90
   9 -11  -3  132.49   21.60
   3  -9 -11  138.89   15.90
   9 -11  -3  135.89   17.60
   3  -9 -11  132.09   18.80
  11  -3  -9  148.19   15.00
   9 -11   5   51.29   20.20
  -5  -9 -11   60.09   12.60
   9 -11   5   48.60   16.20
  -5  -9 -11   11.60   13.60
   5  -9  11   51.79   16.90
  11  -5  -9   30.80   12.90
   9 -11  -5   50.09   15.40
   9 -11  -5   25.00   17.90
   5  -9 -11   54.59   14.30
   9 -11   7   27.50   20.40
  -7  -9 -11   12.40   14.00
   7  -9  11   30.30   17.40
  11  -7  -9   24.10   13.90
   9 -11  -7    7.70   15.20
   7  -9 -11   21.20   14.10
   9 -11   9  110.29   23.20
   9  -9  11  128.79   20.60
  -9 -11  -9  105.99   19.10
  -9  -9 -11   96.79   16.20
   9  -9 -11   94.69   17.10
   9 -11  -9  115.19   18.50
  11  -9  -9   87.39   17.20
  -1 -11 -11  160.18   20.90
  -1 -11 -11  184.98   17.60
   1 -11  11  185.48   22.40
  11 -11   1  120.09   22.20
  11 -11   1  179.18   19.90
   1 -11 -11  187.68   17.90
  11 -11  -1  137.19   22.40
  11 -11  -1  187.08   20.00
  -1 -11  11  197.08   24.30
   1 -11 -11  177.98   22.00
   3 -11  11 1102.19   55.59
  11 -11   3 1107.09   59.79
  11 -11   3 1119.19   49.80
  -3 -11 -11 1089.79   54.89
  -3 -11 -11 1136.69   46.00
   3 -11 -11 1209.68   48.30
  11 -11  -3 1172.88   49.80
  11  -3 -11 1131.69   46.00
   3 -11 -11 1186.28   58.09
  -5 -11 -11  196.78   21.20
  11 -11   5  143.69   20.70
   5 -11  11  185.28   23.50
  11 -11   5  186.98   25.20
  -5 -11 -11  178.88   20.10
  11  -5 -11  189.88   17.60
   5 -11 -11  194.78   19.70
  11 -11  -5  177.28   19.80
   5 -11 -11  175.68   24.60
  -7 -11 -11  739.33   42.00
   7 -11  11  658.63   44.70
  -7 -11 -11  668.23   33.20
  11 -11   7  806.82   48.50
  11 -11   7  681.13   41.20
   7 -11 -11  680.63   35.80
  11  -7 -11  715.43   36.50
  11 -11  -7  767.22   39.10
   9 -11  11  189.58   25.90
  -9 -11 -11  264.27   30.70
  11 -11   9  203.08   27.10
 -11  -9 -11  228.98   29.10
   9 -11 -11  264.17   28.50
  11  -9 -11  214.78   22.10
  11 -11  -9  205.28   22.50
  11 -11  11   73.29   23.40
  11 -11 -11   81.19   21.30
   0   0  12 9432.26  371.96
   0 -12   0 9999.00  376.36
   0 -12   0 9649.83  323.07
   0 -12  -2    7.50   13.70
   0 -12   2   -7.00   13.50
   0 -12   2  -38.30   12.20
   0 -12  -2   -7.50   11.00
   0 -12  -4 1738.63   64.59
   0 -12  -4 1754.12   76.49
   0 -12   4 1768.22   76.79
  12  -6   0   16.90   11.10
   0 -12  -6  -11.30   11.60
   0 -12   6   -2.00   15.00
   0 -12  -6   -6.20   15.50
   0 -12   8   69.29   18.50
   0 -12  -8  120.29   18.90
  12  -8   0   45.30   14.40
   0 -12 -10    0.90   17.70
  12 -10   0   -2.30   15.20
   0 -12  10  -11.20   19.20
   0 -12 -10   10.50   13.30
   2 -12   0   -4.90   11.50
   0   2  12    5.30    7.20
   2 -12   0  -35.40   14.10
  -2 -12   0  -18.20   13.40
  -2 -12   0   -9.90   10.90
   2 -12   2    0.80   12.00
  -2 -12  -2   14.60   10.70
  -2 -12  -2    3.60   13.70
   2 -12  -2  -14.10   14.00
   2 -12  -2   10.70   11.80
  -2 -12   2    0.40   14.50
  -2 -12  -4  377.16   24.50
  -2 -12  -4  385.26   33.00
   2 -12   4  329.97   31.50
  -2 -12   4  355.26   30.40
   2 -12  -4  374.96   32.80
   2 -12  -4  412.66   26.00
  12  -4  -2  363.46   22.50
   2 -12   6   64.89   17.00
  12  -6   2   84.39   13.80
  -2 -12  -6   77.79   13.20
  -2 -12  -6   58.79   16.40
   2 -12  -6   72.99   17.70
  -2 -12   6   70.49   18.20
  12  -6  -2   85.09   12.60
   2 -12  -6   87.89   13.90
  -2 -12  -8  363.16   24.00
  12  -8   2  407.56   27.60
  -2 -12  -8  328.47   32.70
   2 -12   8  349.87   34.30
   2 -12  -8  371.56   26.40
  12  -8  -2  387.36   27.70
  -2 -12   8  349.47   33.90
   2 -12  -8  365.06   33.10
  -2 -12 -10  139.19   16.60
   2 -12  10  149.88   22.70
  12 -10   2  143.89   18.80
  -2 -12 -10  134.09   20.60
  12 -10  -2  132.49   17.90
   2 -12 -10  156.38   22.50
   2 -12 -10  139.69   17.40
  -2 -12  10  143.69   24.50
  -4 -12   0 1756.02   64.29
  -4 -12   0 1752.12   76.69
   4 -12   0 1767.02   77.09
   4 -12   0 1767.12   65.89
   0   4  12 1670.43   70.99
  -4 -12  -2  346.37   23.40
   4 -12   2  350.46   25.40
   2  -4  12  358.26   22.90
   4 -12   2  388.26   32.30
  -4 -12  -2  428.76   32.10
   4 -12  -2  375.06   26.90
  12  -2  -4  341.57   20.90
   4 -12  -2  345.87   32.30
   4 -12   4  717.53   40.10
  -4 -12  -4  644.54   39.30
  -4 -12  -4  639.84   30.80
   4  -4  12  664.13   31.30
   4 -12  -4  659.43   34.20
   4  -4 -12  666.03   31.10
   4 -12  -4  649.34   41.40
  12  -4  -4  711.43   30.70
  -4 -12  -6   22.20   16.10
   4 -12   6   20.60   17.00
  -4 -12  -6   18.40   11.20
  12  -6   4   17.80   12.70
   6  -4 -12   22.80   11.50
   4 -12  -6    4.30   13.20
  12  -6  -4   17.10   11.10
   4 -12  -6   20.20   17.40
  12  -8   4   54.09   15.30
  -4 -12  -8   19.00   17.40
  -4 -12  -8   57.89   12.90
   4 -12   8   50.99   18.90
   8  -4 -12   18.40   12.80
   4 -12  -8   45.10   19.50
   4 -12  -8   37.90   14.30
  12  -8  -4   32.40   13.60
   4 -12  10  231.88   24.80
  -4 -12 -10  206.38   22.60
  -4 -12 -10  220.88   22.80
  12 -10   4  267.47   28.30
  10  -4 -12  225.38   22.90
  12 -10  -4  192.68   19.70
   4 -12 -10  225.78   26.30
   4 -12 -10  239.68   26.00
  -6 -12   0   -7.40   11.00
   0  -6 -12    1.80   10.50
   6 -12   0   -0.90   12.60
   6 -12   0   -8.20   15.80
   2  -6  12   58.09   13.40
  -6 -12  -2   93.19   12.70
   6 -12   2   58.19   17.30
   6 -12   2   72.29   14.90
   6 -12  -2   71.49   14.70
  12  -2  -6   61.89   11.40
   6 -12  -2   64.49   18.30
   2  -6 -12   77.59   12.40
   6 -12   4   13.50   16.60
  -6 -12  -4   -4.30   10.80
  -6 -12  -4   35.30   16.10
  12  -4   6   20.00   12.40
   4  -6  12   14.80   12.00
  -4  -6 -12    8.90    8.40
   6 -12   4   10.90   13.80
   4  -6 -12    7.90   11.40
   6 -12  -4    2.40   13.40
   6 -12  -4   -3.30   17.30
  12  -4  -6   27.00   11.60
   6 -12   6 1457.35   68.29
  -6 -12  -6 1420.56   55.19
   6  -6  12 1508.55   63.39
  12  -6   6 1449.76   57.29
  -6 -12  -6 1491.05   67.89
  -6  -6 -12 1423.66   60.09
   6 -12  -6 1577.34   59.79
   6  -6 -12 1504.25   56.89
  12  -6  -6 1532.45   56.69
   6 -12  -6 1490.65   69.69
  -8  -6 -12    2.80    9.20
  -6 -12  -8    9.10   11.60
  12  -8   6  -11.10   14.40
   6 -12   8   18.20   19.10
  -6 -12  -8  -23.70   16.10
  12  -8  -6   12.60   13.50
   6 -12  -8    0.00   20.20
   8  -6 -12  -17.90   11.90
   6 -12  -8   -2.10   13.90
  -6 -12 -10  592.14   39.10
  12 -10   6  535.15   34.10
   6 -12  10  521.85   40.40
  -6 -12 -10  548.95   30.50
   6 -12 -10  581.94   44.50
  12 -10  -6  598.74   33.90
  10  -6 -12  575.34   31.70
   6 -12 -10  537.85   32.20
   0  -8 -12   56.89   14.20
   8 -12   0   57.99   18.90
   8 -12   0   55.79   15.40
  -8 -12   0   58.69   12.10
   0  -8 -12   50.59   12.40
   0  -8  12   64.49   17.50
  -2  -8 -12  357.26   26.70
   2  -8  12  338.87   29.90
   8 -12   2  372.06   29.20
   8 -12   2  342.87   35.70
  -2  -8 -12  386.96   23.60
  12  -2  -8  412.96   23.80
   2  -8 -12  356.46   24.70
   8 -12  -2  343.07   35.90
   8 -12  -2  366.06   28.60
  -4  -8 -12   66.19   12.90
   8 -12   4   48.60   16.00
   8 -12   4   47.30   19.50
   4  -8  12   85.79   15.50
  -4  -8 -12   33.70   12.40
   8 -12  -4   41.00   20.10
   8 -12  -4   27.50   15.30
  12  -4  -8   43.30   12.40
   4  -8 -12   43.70   13.30
   6  -8  12  -10.30   14.70
  -8 -12  -6   11.10   10.50
   8 -12   6  -11.70   19.40
  -8 -12  -6   -2.10   17.10
  -6  -8 -12    8.60   11.60
   6  -8 -12    3.50   13.10
  12  -6  -8   -1.60   12.90
   8 -12  -6   -9.60   20.00
   8 -12  -6  -14.80   14.30
   8 -12   8   19.60   21.00
  -8  -8 -12   11.40   12.40
  -8 -12  -8   15.90   17.30
   8 -12  -8   20.60   15.90
   8  -8 -12   38.10   14.50
   8 -12  -8    7.70   21.40
  12  -8  -8   17.50   14.40
  -8 -12 -10  163.78   21.10
   8 -12  10  171.08   25.60
  12 -10   8  150.68   21.40
  10  -8 -12  170.28   18.90
  12 -10  -8  182.68   20.30
   8 -12 -10  186.38   21.20
  10 -12   0  -13.20   20.00
   0 -10 -12   -9.50   12.70
  10 -12   0   -7.40   15.50
   0 -10  12   -5.80   18.30
   0 -10 -12   -7.10   15.90
  -2 -10 -12  140.09   15.80
  10 -12   2  133.59   19.30
  10 -12   2  153.48   24.50
  -2 -10 -12  127.09   18.00
   2 -10  12  120.29   20.20
   2 -10 -12  138.29   17.00
  10 -12  -2   93.59   21.00
  10 -12  -2  141.89   19.20
   2 -10 -12  127.79   20.20
  -4 -10 -12  201.48   21.70
   4 -10  12  305.87   28.90
  10 -12   4  195.28   21.60
  10 -12   4  209.58   26.50
  -4 -10 -12  184.48   19.20
  12  -4 -10  195.58   17.50
  10 -12  -4  188.38   20.90
   4 -10 -12  183.68   19.00
  10 -12  -4  179.18   24.40
  10 -12   6  621.84   44.70
  10 -12   6  520.65   36.00
  -6 -10 -12  606.04   35.90
   6 -10  12  573.24   39.10
  -6 -10 -12  552.64   28.90
  10 -12  -6  609.04   35.70
   6 -10 -12  541.95   31.50
  12  -6 -10  547.35   31.80
 -10 -12  -8  187.18   23.40
   8 -10  12  168.38   22.20
  10 -12   8  311.97   37.30
  -8 -10 -12  169.88   18.50
  12  -8 -10  168.18   19.90
   8 -10 -12  173.08   20.80
  10 -12  -8  186.68   21.60
  10 -10  12   39.80   20.20
  10 -12  10   -7.90   23.50
 -10 -12 -10   41.90   19.50
  10 -12 -10   50.49   19.40
  12 -10 -10   38.00   18.50
   0 -12 -12  659.13   34.90
  12 -12   0  604.24   37.70
  12 -12   0  675.63   47.90
   0 -12  12  607.74   44.20
   0 -12 -12  642.54   43.30
   2 -12  12  758.42   48.10
  -2 -12 -12  710.73   36.70
  -2 -12 -12  762.52   46.20
  12 -12   2  652.73   40.30
  12 -12   2  768.72   50.99
   2 -12 -12  760.82   38.60
   2 -12 -12  730.53   46.80
  -2 -12  12  811.42   49.99
  12 -12  -2  779.42   41.10
   4 -12  12  194.08   26.50
  12 -12   4  334.37   41.20
  -4 -12 -12  283.57   32.70
  12 -12   4  159.38   23.80
  -4 -12 -12  255.97   25.00
   4 -12 -12  264.47   24.90
   4 -12 -12  197.88   27.20
  12  -4 -12  286.37   24.40
  12 -12  -4  181.18   21.80
  12 -12   6  -66.99   19.50
  -6 -12 -12   11.70   17.20
  -6 -12 -12  -10.00   13.80
  12 -12   6   28.70   24.90
   6 -12  12  -54.29   20.50
   6 -12 -12   -1.90   17.70
  12 -12  -6   15.50   18.00
  12  -6 -12   15.20   15.20
  12 -12   8  -45.40   20.10
  12 -12   8  -51.39   24.00
   8 -12  12  -53.89   21.40
  12  -8 -12  -10.30   16.20
  12 -12  -8    5.10   19.30
   8 -12 -12   33.70   19.70
 -12 -12 -10  121.99   22.40
  12 -12  10   95.79   27.20
  10 -12  12   71.29   25.20
  12 -12 -10  126.29   23.00
  10 -12 -12  113.09   23.30
  12 -10 -12   97.59   21.90
  12 -12 -12    2.90   23.50
  -1   1  13 1863.31   82.89
   1 -13   1 2083.19   76.39
  -1 -13  -1 2086.69   75.29
   1 -13   1 2091.69   88.89
  -1 -13  -1 2107.09   88.69
  -1 -13   1 2136.89   88.69
   1 -13  -1 2174.18   76.09
   1 -13  -1 2042.70   88.39
  -1 -13   1 2005.00   75.69
   1 -13   3  276.07   31.10
  -1 -13  -3  250.47   30.10
   1 -13   3  220.58   20.10
  -1 -13  -3  257.67   22.50
   1 -13  -3  256.07   30.60
   1 -13  -3  217.58   21.10
  -1 -13   3  207.38   21.40
   1 -13   5 1028.70   52.99
  -1 -13  -5 1056.89   52.39
  13  -5   1  975.40   41.90
  -1 -13  -5 1061.19   44.10
  13  -5  -1 1073.09   42.30
   1 -13  -5 1002.10   52.79
   1 -13  -5 1084.39   44.30
  -1 -13   5 1015.60   53.09
   1 -13   7   73.49   19.20
  -1 -13  -7   59.59   14.10
  -1 -13  -7   50.69   18.60
  13  -7   1   62.19   14.00
  13  -7  -1   53.89   13.70
  -1 -13   7   51.89   19.70
  13  -9   1  121.49   17.70
   1 -13   9  108.09   22.10
  -1 -13  -9  105.19   20.70
  -1 -13  -9  124.69   16.80
   1 -13  -9  122.79   16.80
  13  -9  -1   94.09   16.60
  -1 -13   9  111.69   23.00
   1 -13  -9  129.09   21.90
  -1 -13 -11   96.89   21.30
   1 -13  11   -5.00   22.90
  -1 -13 -11   26.00   16.60
  13 -11   1    6.30   18.10
   1 -13 -11   19.80   16.20
  -1 -13  11   35.40   24.60
   1 -13 -11   23.10   21.60
  13 -11  -1   49.30   17.40
   3 -13   1  237.48   22.60
  -3 -13  -1  244.88   21.40
  -3 -13  -1  220.78   22.20
   1  -3  13  275.07   19.90
   3 -13   1  199.88   21.80
   3 -13  -1  219.88   22.30
  -3 -13   1  225.38   22.40
   3 -13  -1  215.58   22.10
  -3 -13   1  254.67   22.80
  -3 -13  -3  160.58   15.60
   3 -13   3  121.59   17.10
   3 -13   3  109.39   19.10
  -3 -13  -3  127.69   18.90
   3 -13  -3  110.69   19.70
  13  -3  -3  152.88   13.20
   3 -13  -3  142.09   16.70
  -3 -13   3  121.79   20.00
  -3 -13  -5  280.17   32.60
  -3 -13  -5  286.87   23.50
  13  -5   3  271.37   22.20
   3 -13   5  248.88   24.10
   3 -13  -5  247.38   23.10
  13  -5  -3  298.47   21.80
  -3 -13   5  263.57   32.90
   3 -13  -5  276.87   32.20
  -3 -13  -7  298.97   31.50
  -3 -13  -7  343.57   24.90
   3 -13   7  366.26   32.40
  13  -7   3  350.46   26.90
  13  -7  -3  323.87   24.20
  -3 -13   7  318.27   34.30
   3 -13  -7  309.37   26.90
   3 -13  -7  370.66   34.50
   3 -13   9   -1.90   19.30
  13  -9   3   -4.60   15.10
  -3 -13  -9    0.10   17.80
  -3 -13  -9   -2.10   13.30
   3 -13  -9   -8.20   20.10
   3 -13  -9  -13.80   14.40
  -3 -13   9   -4.10   21.20
  13  -9  -3   -9.40   13.30
  13 -11   3   17.10   18.40
  -3 -13 -11   22.30   19.60
  -3 -13 -11   -3.10   15.30
   3 -13  11   -6.60   22.10
   3 -13 -11   20.80   17.00
   3 -13 -11   26.40   23.00
  13 -11  -3   27.20   17.80
  -3 -13  11   29.70   25.10
   5 -13   1  984.40   52.89
  -5 -13  -1 1003.00   52.29
   5 -13   1  959.00   43.70
   1  -5  13 1065.69   46.40
  -5 -13  -1  997.70   41.90
   5 -13  -1 1059.39   45.50
  -5 -13   1  954.90   42.90
   5 -13  -1 1040.20   52.99
  -5 -13   1 1102.39   53.49
  13  -1  -5  981.80   39.20
   5 -13   3  257.97   32.20
  -5 -13  -3  286.77   32.90
   3  -5  13  280.87   22.30
   5 -13   3  263.17   27.00
  -5 -13  -3  273.47   21.70
   5 -13  -3  266.87   25.80
  13  -3  -5  279.97   21.00
   5 -13  -3  205.18   23.90
   3  -5 -13  307.67   22.10
  13  -5   5   60.09   13.90
  -5 -13  -5   68.89   13.40
   5  -5  13   51.39   10.50
  -5 -13  -5   71.09   18.00
   5 -13   5   65.59   19.10
   5  -5 -13   55.79   13.30
   5 -13  -5   58.29   19.70
   5 -13  -5   47.50   15.40
  13  -5  -5   75.49   13.10
  -5 -13  -7   16.10   12.10
  13  -7   5   20.80   14.70
  -5 -13  -7   18.10   17.80
   5 -13   7   -7.90   18.80
   5 -13  -7   16.70   20.10
  13  -7  -5   28.60   12.90
   7  -5 -13   -1.70   12.60
   5 -13  -7   11.50   14.70
   5 -13   9  164.88   24.60
  -5 -13  -9  157.88   21.40
  13  -9   5  156.58   20.10
  -5 -13  -9  167.28   16.90
  13  -9  -5  152.38   18.00
   5 -13  -9  143.79   19.10
   5 -13  -9  188.48   26.30
   9  -5 -13  149.49   17.00
  -5 -13 -11    7.80   18.30
  13 -11   5  -17.00   18.60
  -5 -13 -11   24.10   15.30
   5 -13  11   50.79   23.80
   5 -13 -11   15.60   17.70
   5 -13 -11  -10.40   23.20
  13 -11  -5   11.40   16.90
  11  -5 -13   33.80   15.00
   7 -13   1   75.59   16.10
  -7 -13  -1   59.89   12.90
   1  -7  13   48.10   15.50
   7 -13   1   45.70   19.40
  -1  -7 -13   60.69   13.10
   7 -13  -1   57.29   15.90
   7 -13  -1   35.40   18.80
  -7 -13   1   38.10   13.50
  13  -1  -7   47.60   11.30
   1  -7 -13   55.69   12.80
  -7 -13  -3  289.87   32.40
  -3  -7 -13  277.97   22.50
   7 -13   3  343.37   28.40
  -7 -13  -3  302.57   21.50
   3  -7  13  299.47   26.10
   7 -13   3  265.47   33.30
   7 -13  -3  281.77   28.00
   3  -7 -13  313.07   21.70
  13  -3  -7  342.77   22.80
   7 -13  -3  273.67   32.70
   5  -7  13    8.20   13.00
   7 -13   5   10.80   19.40
  -7 -13  -5    7.50   11.10
  -7 -13  -5   18.40   18.60
  -5  -7 -13    2.60    9.00
   7 -13   5   16.20   16.30
  13  -5   7   -3.30   13.40
   7 -13  -5   -8.40   19.90
   7 -13  -5   -4.70   14.90
  13  -5  -7    5.30   12.30
   5  -7 -13   -1.20   12.30
   7  -7  13   19.30   13.90
   7 -13   7  104.69   22.10
  -7 -13  -7   34.80   18.60
  13  -7   7   25.80   15.50
  -7 -13  -7   53.09   12.60
   7 -13  -7   44.40   16.80
   7  -7 -13   35.40   14.10
   7 -13  -7   29.40   22.30
  13  -7  -7   45.20   14.00
  13  -9   7  104.69   19.10
  -7 -13  -9  109.89   21.00
  -7 -13  -9   95.19   15.00
   7 -13   9   81.09   23.60
   9  -7 -13  107.89   16.60
   7 -13  -9   91.29   18.90
   7 -13  -9   84.89   24.40
  13  -9  -7  104.29   17.70
  -7 -13 -11   12.20   18.40
  -7 -13 -11   15.80   14.20
   7 -13  11  -56.99   22.30
  13 -11   7  -45.00   19.40
   7 -13 -11   11.70   18.80
  13 -11  -7   47.00   17.90
  11  -7 -13   14.30   15.70
  -1  -9 -13   91.19   16.70
   1  -9  13  110.49   19.40
   9 -13   1  101.89   18.60
  -1  -9 -13  126.19   15.60
   9 -13   1   80.09   22.80
   1  -9 -13  120.39   15.60
   9 -13  -1  101.79   18.60
   9 -13  -1  111.09   22.50
  -1  -9  13  136.59   21.50
  -9 -13   1   99.09   14.40
   9 -13   3   -7.20   20.60
  -3  -9 -13   25.20   13.30
   9 -13   3   -6.10   16.10
   3  -9  13   -2.00   15.80
  -3  -9 -13   42.30   13.70
   9 -13  -3   -0.70   20.90
  13  -3  -9   -4.10   11.90
   9 -13  -3    8.70   16.40
   3  -9 -13    6.80   12.70
   9 -13   5  130.49   25.00
  -5  -9 -13  123.69   15.40
   9 -13   5  154.88   20.80
   5  -9  13  146.79   19.20
   9 -13  -5  118.49   25.10
  13  -5  -9  145.99   16.30
   9 -13  -5  147.19   20.30
   5  -9 -13  147.39   17.80
   9 -13   7   79.19   20.80
   9 -13   7   91.59   25.20
  -9 -13  -7  129.69   22.00
   7  -9  13   93.89   18.30
   7  -9 -13  114.89   17.90
  13  -7  -9   80.59   17.00
   9 -13  -7   84.49   19.30
   9 -13  -7   98.19   25.00
  -9 -13  -9  -12.10   19.00
   9 -13   9  -64.29   22.80
   9  -9  13    5.40   16.70
   9  -9 -13  -20.90   16.30
   9 -13  -9  -15.40   17.90
  13  -9  -9   23.80   16.60
  13 -11   9  -13.90   20.30
   9 -13  11  -34.90   23.20
  -9 -13 -11    4.40   19.70
  11  -9 -13  -24.90   17.30
  13 -11  -9   -9.40   18.70
   9 -13 -11   23.00   20.10
  -1 -11 -13  -16.20   17.50
   1 -11  13   16.70   21.10
  11 -13   1    2.50   18.80
  11 -13   1   15.20   24.40
  -1 -11 -13    6.70   14.60
  11 -13  -1   14.20   21.70
   1 -11 -13   14.60   15.70
  -1 -11  13    5.10   23.50
   1 -11 -13    4.20   19.10
  11 -13  -1   18.60   18.60
   3 -11  13    1.50   19.70
  11 -13   3   19.30   25.20
  -3 -11 -13   22.60   16.90
  11 -13   3   -4.50   19.00
  -3 -11 -13   24.50   14.70
   3 -11 -13   10.60   16.30
  11 -13  -3   23.30   22.50
  11 -13  -3   20.80   18.20
  11 -13   5  -17.60   19.80
  -5 -11 -13   68.29   15.80
  11 -13   5   -1.70   25.60
   5 -11  13   -9.80   20.00
  13  -5 -11   17.60   14.60
  11 -13  -5   12.10   18.10
   5 -11 -13   24.40   17.30
  11 -13   7   -2.70   26.00
   7 -11  13  -27.20   20.10
  11 -13   7  -46.60   20.20
  11 -13  -7   -2.00   18.30
   7 -11 -13   -7.80   18.30
  13  -7 -11   -0.80   15.90
   9 -11  13   -1.90   20.70
  11 -13   9   -3.10   21.80
 -11 -13  -9  -19.20   20.60
  11 -13   9  -22.00   26.50
  13  -9 -11   -9.00   18.30
   9 -11 -13    0.60   19.50
  11 -13  -9  -10.30   20.50
  11 -13  11   37.70   27.10
  13 -11 -11    2.00   21.60
  11 -13 -11   16.50   22.30
  11 -11 -13   17.80   21.90
   1 -13  13 1004.20   60.19
  13 -13   1 1037.30   53.79
  -1 -13 -13 1002.40   48.00
  -1 -13 -13 1038.30   57.89
   1 -13 -13 1060.89   49.40
  -1 -13  13 1159.98   61.89
   1 -13 -13 1062.49   60.19
  13 -13  -1 1133.79   52.29
  -3 -13 -13  428.46   39.10
  -3 -13 -13  514.15   33.00
  13 -13   3  345.87   39.10
   3 -13  13  539.85   42.20
  13 -13   3  595.04   50.09
  -3 -13  13  378.16   47.90
   3 -13 -13  525.75   35.50
  13 -13  -3  465.25   37.80
   3 -13 -13  415.06   45.40
  -5 -13 -13  423.96   29.30
  13 -13   5  520.85   46.00
   5 -13  13  349.87   42.00
  13 -13   5  347.77   35.80
   5 -13 -13  490.15   34.50
  13 -13  -5  467.55   37.20
  -7 -13 -13    2.90   16.10
  13 -13   7  -34.60   22.20
  13 -13   7   -6.60   27.90
   7 -13  13  -43.80   23.00
   7 -13 -13    1.60   20.40
  13  -7 -13   79.19   19.10
  13 -13  -7    5.00   20.40
 -13 -13  -9   87.59   24.70
  13 -13   9   50.49   24.80
   9 -13  13  102.99   25.20
   9 -13 -13   64.19   24.40
  13  -9 -13   91.49   21.00
  13 -13  -9   77.79   23.90
  13 -13  11   39.00   26.80
  13 -11 -13   28.20   23.30
  13 -13 -11    7.30   24.70
  11 -13 -13  -11.40   25.00
  13 -13 -13  722.93   47.40
   0 -14   0   -7.10   15.60
   0 -14   0   -8.90   13.10
   0 -14  -2  350.86   26.30
   0 -14   2  338.07   27.80
   0 -14  -2  298.47   33.00
   0 -14   2  312.77   33.50
   0 -14   4  -15.70   16.90
   0 -14  -4    4.30   13.50
  14  -4   0   -3.40   10.10
   0 -14  -4   -3.10   17.30
   0 -14  -6 1046.20   44.00
  14  -6   0  972.00   41.70
   0 -14   6 1006.70   52.89
   0 -14  -6  993.00   52.69
  14  -8   0   -4.70   14.20
   0 -14  -8   -6.30   14.10
   0 -14  -8    0.00   19.60
   0 -14   8   11.80   20.00
  14 -10   0  171.38   20.50
   0 -14  10  178.68   26.90
   0 -14 -10  159.28   24.90
   0 -14 -10  147.69   20.00
   0 -14 -12   -7.70   18.90
   0 -14  12    0.10   27.70
   0 -14 -12  -11.70   24.00
  14 -12   0   19.90   21.00
   2 -14   0  317.37   25.10
  -2 -14   0  316.27   25.80
   2 -14   0  297.57   30.50
  -2 -14   0  341.57   33.30
  -2 -14  -2 1675.53   74.29
  -2 -14  -2 1586.64   61.89
   2 -14   2 1664.43   73.89
   2 -14   2 1658.83   64.19
  -2 -14   2 1624.44   63.29
  -2 -14   2 1663.43   74.19
   2 -14  -2 1541.05   61.99
   2 -14  -2 1659.23   74.19
   2 -14   4  346.47   33.20
  -2 -14  -4  330.97   33.40
  -2 -14  -4  279.37   24.10
  -2 -14   4  285.17   33.60
   2 -14  -4  311.07   26.50
  14  -4  -2  296.57   22.10
   2 -14  -4  310.67   34.10
  -2 -14  -6    0.60   17.40
  14  -6   2    3.40   12.90
  -2 -14  -6    5.50   14.00
   2 -14   6    5.70   18.30
   2 -14  -6   -1.70   13.90
   2 -14  -6   -6.20   18.70
  14  -6  -2   -4.60   11.50
  -2 -14   6   -7.20   19.10
  -2 -14  -8   58.29   15.00
   2 -14   8   54.49   21.50
  14  -8   2   64.79   16.10
  -2 -14  -8   41.10   19.60
   2 -14  -8   48.10   21.40
   2 -14  -8   47.40   16.30
  -2 -14   8   55.09   22.40
  14  -8  -2   67.79   14.70
   2 -14  10  310.67   36.20
  -2 -14 -10  335.87   36.20
  -2 -14 -10  301.97   26.80
   2 -14 -10  256.07   24.30
  14 -10  -2  351.86   29.40
  -2 -14  10  356.96   40.40
   2 -14 -10  369.96   39.50
  14 -12   2   30.20   21.50
  -2 -14 -12  -18.00   18.60
   2 -14  12  -12.10   26.30
  -2 -14 -12   54.29   22.70
  14 -12  -2   29.20   20.90
   2 -14 -12   27.70   25.60
   2 -14 -12    1.20   19.80
  -2 -14  12  -14.40   29.10
   4 -14   0  -10.50   13.90
  -4 -14   0  -22.80   17.00
   4 -14   0   -9.80   17.00
  -4 -14   0  -15.50   13.00
   2  -4  14  258.27   21.30
  -4 -14  -2  332.97   24.70
   4 -14   2  303.07   28.60
   4 -14   2  271.87   31.20
  -4 -14  -2  301.57   32.80
  14  -2  -4  269.67   20.50
  -4 -14   2  269.27   25.40
  -4 -14   2  321.37   32.30
   4 -14  -2  352.66   27.50
   4 -14  -2  302.07   31.10
  -4 -14  -4    4.10   13.00
  -4 -14  -4  -21.90   17.30
   4 -14   4    0.50   16.00
   4 -14   4    8.40   18.10
  -4 -14   4   -8.60   18.60
  14  -4  -4    1.70   11.10
   4 -14  -4   12.00   14.90
   4 -14  -4  -18.80   18.00
   4 -14   6  476.75   37.40
  -4 -14  -6  483.25   28.70
  -4 -14  -6  480.65   37.20
  14  -6   4  502.75   29.10
   4 -14  -6  518.05   32.20
  14  -6  -4  478.55   27.50
  -4 -14   6  489.85   40.10
   4 -14  -6  501.25   39.70
   4 -14   8    2.80   20.50
  14  -8   4   23.20   16.00
  -4 -14  -8    3.20   13.50
  -4 -14  -8   -7.00   18.60
  14  -8  -4   12.50   13.60
   4 -14  -8   -8.50   15.90
  -4 -14   8    4.40   22.60
   4 -14  -8   -4.20   22.20
   4 -14  10  -25.90   23.20
  14 -10   4   15.20   18.70
  -4 -14 -10   26.50   15.80
  -4 -14 -10   48.50   20.60
  14 -10  -4   39.50   16.80
  -4 -14  10   28.20   26.70
   4 -14 -10   41.60   18.00
   4 -14 -10   57.59   25.10
  -4 -14 -12   78.39   18.80
   4 -14  12  -39.40   26.00
  14 -12   4   41.40   22.50
   4 -14 -12   29.20   27.50
  14 -12  -4   52.99   19.80
   4 -14 -12   54.09   20.50
   6 -14   0  950.50   44.30
   0  -6  14 1054.99   48.40
   6 -14   0  984.50   53.99
  -6 -14   0  989.00   43.10
  -6 -14   0 1007.40   53.99
   6 -14   2   -2.80   15.00
   2  -6  14    8.60   13.00
   6 -14   2  -18.30   18.30
  -6 -14  -2  -19.80   18.30
  -6 -14  -2    5.60   12.60
  14  -2  -6   -8.20   10.70
   6 -14  -2   34.10   19.40
   2  -6 -14    4.30   12.20
  -6 -14   2   -7.80   14.00
   6 -14  -2    8.80   15.30
   6 -14   4  532.25   33.80
  -6 -14  -4  459.15   28.10
   4  -6  14  489.55   29.60
   6 -14   4  504.35   39.20
  -6 -14  -4  517.35   39.30
  14  -4  -6  538.15   28.40
   6 -14  -4  486.65   30.50
   4  -6 -14  468.15   26.80
   6 -14  -4  454.25   40.40
  14  -6   6    9.90   14.70
  -6 -14  -6   12.90   19.00
  -6 -14  -6   13.10   12.80
   6 -14   6   13.70   21.00
   6  -6 -14    1.00   13.50
  14  -6  -6   19.40   13.00
   6 -14  -6    2.90   16.60
   6 -14  -6  -26.50   21.20
  14  -8   6   59.49   17.40
   6 -14   8   52.09   22.80
   6 -14  -8   32.50   24.10
  14  -8  -6   48.50   15.50
   6 -14  -8   54.99   18.50
   8  -6 -14   56.69   15.00
  14 -10   6   18.50   19.60
  -6 -14 -10   27.90   15.30
   6 -14  10  -15.40   24.40
  -6 -14 -10   52.29   20.50
   6 -14 -10   30.50   19.70
  14 -10  -6   38.40   16.80
   6 -14 -10   21.10   25.40
  10  -6 -14   35.70   16.60
   6 -14  12  -64.89   23.70
  14 -12   6  -42.10   20.90
  -6 -14 -12   -7.10   16.10
  -6 -14 -12    9.30   20.10
   6 -14 -12   13.80   19.70
  14 -12  -6    1.80   18.90
   6 -14 -12  -28.30   27.40
  12  -6 -14   10.30   16.80
   0  -8 -14   -5.30   13.00
  -8 -14   0   -1.30   12.50
   0  -8  14   -0.50   17.20
   8 -14   0  -29.70   20.00
   8 -14   0    1.30   16.10
  -8 -14  -2   73.39   13.30
  -2  -8 -14   60.29   14.20
   8 -14   2   69.39   22.30
   8 -14   2   61.69   17.70
   8 -14  -2   50.99   17.50
   2  -8 -14   66.19   14.60
  14  -2  -8   54.19   12.80
   8 -14  -2   35.00   21.30
  -8 -14   2   63.29   15.60
  -8 -14  -4   21.70   12.40
  -8 -14  -4   -8.20   20.40
   8 -14   4    7.30   22.00
   4  -8  14   -3.90   15.00
   8 -14   4   -7.80   16.90
   4  -8 -14    3.60   14.00
   8 -14  -4  -10.40   21.50
   8 -14  -4    3.10   16.60
  14  -4  -8   14.30   12.60
   8 -14   6   55.79   24.10
  -8 -14  -6   75.69   21.50
   6  -8  14   48.00   15.60
  14  -6   8   56.59   16.50
   8 -14   6   53.69   19.70
   8 -14  -6   36.30   25.00
   8 -14  -6   53.09   18.70
  14  -6  -8   48.00   15.20
   8 -14   8  -31.10   23.70
  -8 -14  -8    8.10   20.00
  14  -8   8   -8.20   17.10
   8 -14  -8   26.20   18.60
   8 -14  -8   74.69   25.50
  14  -8  -8  -28.90   15.20
   8  -8 -14   -7.30   15.60
  -8 -14 -10  101.19   22.90
   8 -14  10   47.90   27.90
  14 -10   8  102.29   21.50
  10  -8 -14   96.49   19.20
   8 -14 -10   68.99   29.20
   8 -14 -10  116.79   23.00
  14 -10  -8   94.59   19.80
  14 -12   8   -3.40   22.40
   8 -14  12   -7.50   26.10
   8 -14 -12    0.90   22.50
  12  -8 -14   19.50   18.80
  14 -12  -8   -2.40   20.60
   0 -10  14  155.58   23.80
  10 -14   0  177.48   22.70
   0 -10 -14  188.38   19.10
  10 -14   0  159.38   27.30
   2 -10  14  415.96   34.70
  -2 -10 -14  339.77   30.10
  -2 -10 -14  328.97   26.10
  10 -14   2  328.17   31.90
  10 -14   2  309.77   39.50
  10 -14  -2  364.56   32.20
  -2 -10  14  305.47   39.50
  10 -14  -2  309.27   37.00
   2 -10 -14  336.97   27.10
  10 -14   4    5.80   19.70
  -4 -10 -14   16.40   14.80
  10 -14   4   43.00   25.10
   4 -10  14   17.50   18.80
  10 -14  -4   37.50   19.30
  14  -4 -10   31.00   14.30
  10 -14  -4   60.09   23.60
   4 -10 -14   52.69   15.90
  10 -14   6   59.89   26.50
 -10 -14  -6   14.50   23.20
  10 -14   6   -4.30   20.70
   6 -10  14   15.60   18.30
  10 -14  -6    3.70   25.00
  14  -6 -10   26.10   15.30
  10 -14  -6   17.90   19.20
  10 -14   8   78.39   27.80
 -10 -14  -8   96.29   24.40
  10 -14   8   92.29   24.40
  14  -8 -10  104.79   18.90
  10 -14  -8   86.89   22.10
 -10 -14 -10   67.69   22.80
  10 -14  10  -18.20   26.00
  14 -10  10   13.50   21.50
  10 -14 -10   -8.00   22.10
  14 -10 -10    4.60   19.80
  10 -10 -14   -0.60   18.40
  14 -12  10  109.39   26.40
  10 -14  12   70.59   28.40
  12 -10 -14  126.49   22.80
  10 -14 -12  107.89   26.40
  14 -12 -10   81.79   24.10
  12 -14   0    1.10   26.90
   0 -12  14  -51.89   25.20
   0 -12 -14  -40.80   21.00
  12 -14   0  -13.00   21.50
   0 -12 -14  -22.30   17.20
  -2 -12 -14   18.30   19.50
   2 -12  14   -9.40   23.70
  -2 -12 -14   -7.40   17.00
  12 -14   2   20.20   22.00
  12 -14   2   16.90   27.40
   2 -12 -14   13.20   18.80
  12 -14  -2   24.80   27.00
  -2 -12  14  -32.00   28.90
   2 -12 -14  -19.70   22.70
  12 -14  -2   36.70   21.90
  -4 -12 -14   81.79   18.10
  12 -14   4   78.09   28.60
  12 -14   4   -3.90   22.70
   4 -12  14   25.30   23.30
  12 -14  -4   77.59   22.80
   4 -12 -14   57.19   20.70
   6 -12  14  -16.20   20.70
  12 -14   6    0.70   28.70
  12 -14   6  -57.79   21.90
  -6 -12 -14  -15.40   16.10
  14  -6 -12   14.00   16.50
  12 -14  -6   10.20   21.20
   6 -12 -14   -7.40   19.60
  12 -14   8  -29.90   28.30
 -12 -14  -8   26.10   24.00
  12 -14   8    9.40   23.40
  14  -8 -12   27.70   18.10
  12 -14  -8  -42.40   21.80
   8 -12 -14  -11.50   19.70
  12 -14  10   73.89   26.80
  12 -14  10   98.59   31.00
  10 -12 -14  102.19   24.80
  14 -10 -12   94.29   23.40
  12 -14 -10   65.99   25.20
  14 -12  12  209.78   29.80
  12 -14 -12  192.28   30.70
  14 -12 -12  231.48   29.10
  12 -12 -14  173.58   28.60
   0 -14 -14 1947.41   93.49
   0 -14  14 2069.19   96.09
  14 -14   0 2201.98   83.19
   0 -14 -14 2045.00   79.49
  14 -14   2  -20.30   24.50
  -2 -14 -14  -14.20   19.20
  14 -14  -2    1.80   23.60
   2 -14 -14  -14.20   21.30
   2 -14 -14  -55.59   25.40
  -2 -14  14  -57.79   30.40
  -4 -14 -14  358.16   29.40
  14 -14   4  280.17   30.40
   4 -14  14  249.97   32.50
   4 -14 -14  416.16   34.20
  14 -14  -4  355.16   37.20
  -4 -14  14  319.07   40.90
  -6 -14 -14    0.20   18.00
   6 -14  14  -63.49   23.90
  14 -14  -6    4.40   22.10
  14  -6 -14   13.90   17.40
   6 -14 -14   -6.10   22.60
  14 -14   8  -17.90   25.50
  14  -8 -14   39.10   20.60
  14 -14  -8   -1.20   24.30
   8 -14 -14   21.00   24.50
  14 -14  10  -41.60   25.90
  10 -14 -14  -44.80   25.70
  14 -14 -10   33.90   25.70
  14 -10 -14    2.60   21.70
  14 -14  12  138.19   31.80
  12 -14 -14  160.48   30.30
  14 -14 -12  157.68   31.50
  14 -12 -14  145.39   27.80
  14 -14  14   -6.60   30.10
  14 -14 -14  -52.39   28.00
  -1 -15  -1   57.29   19.30
  -1 -15  -1   73.19   16.20
   1 -15   1   67.29   19.20
   1 -15   1   59.99   16.00
   1 -15  -1   65.09   16.10
  -1 -15   1   62.39   19.40
   1 -15  -1   71.79   19.60
  -1 -15   1   61.39   16.00
  -1 -15  -3  502.55   30.00
   1 -15   3  491.85   38.50
  -1 -15  -3  394.76   37.80
   1 -15   3  449.16   30.30
   1 -15  -3  508.95   30.80
   1 -15  -3  454.95   38.00
  -1 -15   3  464.25   38.00
  15  -3  -1  492.75   25.00
  -1 -15   3  478.15   32.60
  15  -5   1  213.08   22.60
   1 -15   5  269.87   34.20
  -1 -15  -5  266.57   33.40
  -1 -15  -5  297.97   25.10
   1 -15  -5  211.18   25.80
  -1 -15   5  281.47   34.00
  15  -5  -1  245.38   22.10
   1 -15  -5  225.28   21.10
  -1 -15  -7   10.10   20.60
  15  -7   1   17.10   13.60
  -1 -15  -7   13.20   15.10
   1 -15   7   28.70   22.20
   1 -15  -7   19.60   21.50
  15  -7  -1    1.70   13.10
  -1 -15   7   20.70   21.60
   1 -15  -7    5.80   15.80
  -1 -15  -9   15.90   22.20
  -1 -15  -9  -20.60   16.50
  15  -9   1   41.60   17.40
   1 -15   9   24.60   25.10
   1 -15  -9   20.30   17.70
   1 -15  -9   29.80   23.60
  15  -9  -1   34.70   16.70
  -1 -15   9   15.00   24.60
   1 -15  11  547.65   46.50
  -1 -15 -11  558.14   37.90
  15 -11   1  574.04   39.50
  -1 -15 -11  590.94   45.60
  -1 -15  11  546.95   46.80
   1 -15 -11  593.54   47.70
  15 -11  -1  645.14   39.80
   1 -15 -11  565.04   37.50
   1 -15  13  315.57   38.00
  15 -13   1  406.66   38.70
  -1 -15 -13  275.47   28.30
  -1 -15 -13  362.36   43.50
   1 -15 -13  361.26   33.70
  15 -13  -1  384.86   39.30
   1 -15 -13  436.16   44.60
  -1 -15  13  426.16   46.60
  -3 -15  -1  447.36   30.70
   3 -15   1  452.75   37.10
   3 -15   1  435.66   29.80
  -3 -15  -1  469.85   37.30
  -3 -15   1  473.75   37.80
   3 -15  -1  442.86   32.00
   3 -15  -1  477.15   38.20
  -3 -15   1  441.66   30.00
   3 -15   3 1640.54   65.09
  -3 -15  -3 1633.54   74.79
  -3 -15  -3 1548.25   61.69
   3 -15   3 1570.34   74.39
  -3 -15   3 1570.84   64.19
  15  -3  -3 1637.04   59.89
   3 -15  -3 1695.63   64.29
   3 -15  -3 1598.84   75.29
  -3 -15   3 1661.93   75.89
  -3 -15  -5    4.70   19.50
  15  -5   3   36.90   13.30
   3 -15   5    8.80   17.30
   3 -15   5    9.60   20.30
  -3 -15  -5   28.70   15.00
  15  -5  -3   27.00   12.50
  -3 -15   5   17.10   21.50
   3 -15  -5   10.50   16.20
   3 -15  -5    7.60   20.60
  -3 -15  -7  369.66   28.70
  -3 -15  -7  435.16   35.80
   3 -15   7  401.36   38.50
  15  -7   3  379.96   28.10
  -3 -15   7  389.36   39.50
   3 -15  -7  364.76   38.30
  15  -7  -3  403.46   28.90
   3 -15  -7  321.47   28.10
  -3 -15  -9   56.89   17.70
  -3 -15  -9   59.29   22.50
  15  -9   3   91.69   19.30
   3 -15   9   48.60   25.10
  15  -9  -3   68.59   16.70
   3 -15  -9   41.90   18.80
   3 -15  -9   70.59   25.40
  -3 -15   9   76.29   26.70
  -3 -15 -11  403.66   39.10
  -3 -15 -11  334.87   31.00
  15 -11   3  311.17   33.80
  -3 -15  11  343.17   43.30
  15 -11  -3  356.16   32.70
   3 -15 -11  412.96   40.80
   3 -15 -11  338.27   33.20
   3 -15  13   61.49   29.90
  15 -13   3   80.39   25.10
  -3 -15 -13  127.39   25.20
  -3 -15 -13  105.99   21.80
  15 -13  -3  121.29   22.70
  -3 -15  13   98.99   35.20
   3 -15 -13   84.79   30.30
   3 -15 -13  119.29   24.00
   5 -15   1  221.98   21.80
   1  -5  15  263.17   23.10
   5 -15   1  240.48   26.00
  -5 -15  -1  238.98   24.60
  -5 -15  -1  267.07   33.90
  -5 -15   1  207.18   20.20
   5 -15  -1  211.88   25.30
   5 -15  -1  281.77   28.80
  -5 -15   1  236.88   26.20
  15  -1  -5  213.48   18.90
   5 -15   3   22.20   16.90
  -5 -15  -3   36.60   14.70
  -5 -15  -3    2.50   19.20
   5 -15   3   -9.50   20.50
  -5 -15   3    9.10   20.90
   5 -15  -3   17.20   16.60
  -5 -15   3   14.40   16.80
   5 -15  -3    8.70   20.70
  15  -3  -5    2.60   11.80
   5 -15   5  537.25   36.40
   5 -15   5  493.95   40.70
  -5 -15  -5  557.44   40.90
  -5 -15  -5  545.25   31.20
   5 -15  -5  498.35   32.20
  15  -5  -5  516.25   29.70
   5 -15  -5  494.25   42.40
  -5 -15   5  504.75   42.50
   5 -15   7  107.49   25.10
  -5 -15  -7  113.09   16.60
  15  -7   5  103.49   18.00
  -5 -15  -7  110.49   23.70
  15  -7  -5  123.19   16.70
   5 -15  -7   82.09   26.00
   5 -15  -7   94.39   19.90
  -5 -15   7   88.99   27.20
  -5 -15  -9   37.20   16.00
   5 -15   9  -48.00   24.70
  -5 -15  -9    8.30   21.50
  15  -9   5   19.70   18.40
   5 -15  -9   19.20   19.20
   5 -15  -9    3.50   25.40
  -5 -15   9   27.00   28.20
  15  -9  -5   11.30   16.00
  -5 -15 -11   73.09   23.40
   5 -15  11   15.30   27.80
  15 -11   5   64.49   22.30
  -5 -15 -11   59.79   18.60
  15 -11  -5   81.19   19.80
  -5 -15  11   75.69   32.90
   5 -15 -11   82.79   22.50
   5 -15 -11   63.19   29.40
  15 -13   5  -12.50   23.20
  -5 -15 -13   18.90   18.70
   5 -15  13  -35.20   27.50
   5 -15 -13   -5.10   29.00
  15 -13  -5   21.90   21.10
  -5 -15  13  -23.00   33.80
   5 -15 -13   23.70   23.00
   7 -15   1  -29.80   20.70
  -7 -15  -1    2.30   14.00
   1  -7  15   -1.70   15.40
   7 -15   1    5.90   16.70
  -7 -15  -1    1.80   20.80
  -7 -15   1    6.50   14.60
   7 -15  -1   15.40   21.60
  -7 -15   1  -28.40   20.00
   7 -15  -1    6.30   16.90
   7 -15   3  339.27   32.00
   7 -15   3  348.47   37.60
  -7 -15  -3  376.96   37.30
  -7 -15  -3  334.57   24.20
   3  -7  15  340.97   28.00
   3  -7 -15  407.96   26.70
  -7 -15   3  367.36   29.90
   7 -15  -3  413.86   32.10
  15  -3  -7  344.47   24.70
   7 -15  -3  309.37   38.90
  -7 -15  -5  180.18   24.80
   7 -15   5  197.18   27.10
  -7 -15  -5  136.59   16.10
   7 -15  -5  106.89   20.70
   5  -7 -15  115.39   17.10
   7 -15  -5  100.39   26.40
  15  -5  -7  104.99   16.20
   7 -15   7  506.95   43.60
  -7 -15  -7  529.45   28.90
   7 -15   7  468.35   34.60
  15  -7   7  435.66   32.20
  -7 -15  -7  454.45   38.60
   7 -15  -7  538.25   36.60
   7  -7 -15  537.45   31.20
   7 -15  -7  420.36   43.30
  15  -7  -7  489.75   30.80
   7 -15   9   36.50   26.30
  15  -9   7   27.80   19.60
  -7 -15  -9   32.00   23.10
  -7 -15  -9   48.00   16.40
   7 -15  -9   46.20   28.90
   7 -15  -9   57.89   21.40
  15  -9  -7   53.79   17.30
   9  -7 -15   52.79   17.50
  -7 -15 -11   14.60   21.70
  -7 -15 -11  -13.60   16.20
  15 -11   7   17.00   21.80
   7 -15  11   -0.50   26.50
   7 -15 -11   11.30   29.60
  15 -11  -7   28.60   19.90
   7 -15 -11   17.10   22.10
  11  -7 -15   36.90   18.80
   7 -15  13  -33.40   26.90
  15 -13   7  -30.80   24.10
   7 -15 -13  -17.90   23.60
  15 -13  -7    8.20   21.70
  13  -7 -15  -29.60   18.60
   1  -9  15   27.90   18.90
   9 -15   1   19.30   19.10
  -1  -9 -15   24.60   15.50
   9 -15   1   47.10   24.60
  -9 -15   1   38.50   15.00
   9 -15  -1   19.10   19.20
   9 -15  -1   11.30   24.20
  -1  -9  15   25.00   22.30
   1  -9 -15   10.10   15.60
   9 -15   3   74.39   20.80
  -9 -15  -3   45.20   24.60
   9 -15   3  123.59   26.80
   3  -9  15   63.79   18.10
   9 -15  -3   80.89   20.30
   9 -15  -3   75.29   25.80
  -9 -15   3   81.59   18.00
  15  -3  -9   78.49   14.50
   3  -9 -15   70.29   17.40
   9 -15   5   28.10   26.50
  -9 -15  -5    0.00   24.10
   9 -15   5   12.40   20.90
   9 -15  -5   23.60   26.40
   9 -15  -5    3.30   19.90
   5  -9 -15   22.80   16.90
  15  -5  -9   10.00   14.30
  -9 -15  -7   39.90   24.30
   9 -15   7   31.30   22.40
  15  -7   9   35.00   18.70
   9 -15   7   28.20   27.40
   9 -15  -7   36.40   27.60
   9 -15  -7   67.09   21.90
  15  -7  -9   49.20   17.20
   7  -9 -15   45.90   18.10
  -9 -15  -9    8.10   22.70
  15  -9   9    1.70   20.00
   9 -15   9  -20.80   27.30
   9 -15  -9   -4.90   21.80
   9 -15  -9  -45.10   29.00
  15  -9  -9    3.70   18.60
   9  -9 -15   -8.80   18.40
  15 -11   9   -6.20   22.60
  -9 -15 -11  -31.50   22.30
   9 -15  11  -31.60   27.70
   9 -15 -11   -6.90   23.20
  15 -11  -9    5.30   20.30
  11  -9 -15    4.30   20.30
  15 -13   9   -0.50   25.60
   9 -15  13    4.70   27.50
   9 -15 -13  -10.90   25.40
  15 -13  -9  -10.20   23.50
  13  -9 -15   -1.40   21.40
  -1 -11 -15  566.44   33.80
  11 -15   1  576.44   49.40
   1 -11  15  574.04   43.50
  11 -15   1  537.75   39.70
  11 -15  -1  550.94   40.00
  -1 -11  15  585.94   46.60
   1 -11 -15  602.04   34.70
  11 -15  -1  589.34   46.10
  11 -15   3  346.47   43.50
  -3 -11 -15  305.87   28.70
   3 -11  15  421.96   36.70
  11 -15   3  237.68   28.50
   3 -11 -15  368.06   30.20
  11 -15  -3  382.86   35.30
  11 -15  -3  236.78   33.20
  11 -15   5   14.40   23.70
  11 -15   5   57.39   29.60
 -11 -15  -5   75.39   27.50
  15  -5 -11   93.89   17.20
   5 -11 -15   92.69   20.00
  11 -15  -5   82.09   29.20
  11 -15  -5   74.59   22.60
  11 -15   7    5.00   23.50
 -11 -15  -7   40.30   25.20
  11 -15   7    5.50   29.60
  11 -15  -7    5.40   22.30
  15  -7 -11   -5.80   16.40
   7 -11 -15    1.90   19.40
 -11 -15  -9    0.80   23.60
  11 -15   9  -24.30   25.10
  15  -9  11    8.80   21.40
  11 -15   9   14.60   30.00
  11 -15  -9  -26.70   23.70
   9 -11 -15  -10.20   20.50
  15  -9 -11   -2.40   18.70
  15 -11  11  464.95   39.10
  11 -15  11  462.55   51.39
  15 -11 -11  517.95   40.00
  11 -11 -15  500.95   37.50
  11 -15 -11  507.25   41.60
  15 -13  11   11.10   27.30
  13 -11 -15   14.80   24.10
  11 -15 -13   32.60   28.70
  15 -13 -11   40.10   26.70
  13 -15   1  250.17   37.60
  13 -15   1  289.97   30.70
  -1 -13 -15  299.77   29.70
   1 -13 -15  201.68   29.70
  13 -15  -1  397.96   38.20
  -1 -13  15  243.88   35.90
   1 -13 -15  388.66   32.50
  -3 -13 -15   96.59   20.70
  13 -15   3  171.98   33.70
   3 -13  15   74.29   26.20
  13 -15   3   81.69   26.40
  13 -15  -3  143.09   26.50
   3 -13 -15  117.39   22.50
  -3 -13  15  141.39   35.70
  13 -15   5   -5.10   24.90
  -5 -13 -15   19.20   18.90
  13 -15   5   13.40   31.40
  13 -15  -5    1.20   22.40
   5 -13 -15   27.20   21.50
  13 -15   7   14.00   31.80
 -13 -15  -7   -3.70   27.00
  13 -15   7  -76.49   24.40
  13 -15  -7  -40.40   23.90
  15  -7 -13  -10.00   17.90
   7 -13 -15   12.60   22.40
  13 -15   9  -13.80   27.10
  13 -15   9    0.10   32.40
 -13 -15  -9   -9.30   25.40
  15  -9 -13    5.70   20.50
   9 -13 -15    3.30   24.10
  13 -15  -9  -11.10   26.20
  13 -15  11   15.30   28.70
  13 -15  11   37.30   32.90
  15 -11 -13   13.30   23.20
  11 -13 -15   32.60   25.40
  13 -15 -11   23.40   28.20
  15 -13  13   45.60   29.50
  13 -15  13   28.60   31.10
  15 -13 -13   16.10   28.00
  13 -15 -13   -6.40   30.00
  13 -13 -15   46.00   27.30
  -1 -15 -15  118.89   24.20
  15 -15   1   88.89   28.10
   1 -15  15   73.49   33.00
   1 -15 -15  150.98   26.00
  15 -15  -1   96.19   28.40
  -1 -15  15   96.89   35.30
   3 -15  15  351.06   45.50
  15 -15   3  342.47   38.20
  -3 -15 -15  446.26   33.50
   3 -15 -15  424.16   36.00
  -3 -15  15  338.87   43.50
  15 -15  -3  442.56   40.00
  -5 -15 -15   10.50   20.70
  15 -15   5  -19.60   26.90
  15 -15  -5   15.20   24.60
   5 -15 -15   47.20   25.00
  15 -15   7    6.50   27.20
   7 -15 -15   32.50   24.50
  15 -15  -7   12.80   25.30
  15 -15   9   18.70   28.90
  15 -15  -9   -6.40   27.60
  15  -9 -15   13.10   22.80
   9 -15 -15    7.90   27.40
  15 -15  11   84.69   31.50
  15 -15 -11  113.09   32.10
  11 -15 -15  122.59   31.10
  15 -11 -15  109.89   26.80
  15 -15  13   -3.70   31.90
  15 -15 -13  -15.20   30.40
  13 -15 -15   15.70   30.00
  15 -13 -15   42.90   27.70
  15 -15  15   60.09   34.20
  15 -15 -15   76.19   31.00
   0 -16   0  554.84   39.60
   0 -16   0  648.84   35.30
   0 -16   2    1.30   19.60
   0 -16  -2   20.70   19.40
   0 -16   2  -14.90   16.00
   0 -16  -2    7.30   15.50
   0 -16   4   19.10   18.20
   0 -16  -4   19.80   16.30
   0 -16  -4  -12.20   20.80
   0 -16   4   32.50   22.00
   0 -16  -6  -28.70   16.40
  16  -6   0    0.90   12.60
   0 -16  -6  -17.30   21.80
   0 -16   6  -16.30   22.50
   0 -16  -8  296.57   36.80
   0 -16   8  265.37   31.90
  16  -8   0  304.57   27.60
   0 -16  -8  278.07   29.70
   0 -16  10   40.20   28.70
   0 -16 -10  -34.50   19.60
   0 -16 -10   11.00   25.50
  16 -10   0   36.80   19.20
  16 -12   0  -18.80   22.10
   0 -16 -12  -27.80   26.70
   0 -16  12  -63.89   30.10
   0 -16 -14   33.70   24.80
   0 -16 -14   63.59   28.80
   0 -16  14   48.80   34.80
  16 -14   0   28.30   26.40
   2 -16   0   -0.60   19.30
  -2 -16   0    4.60   19.90
   2 -16   0    8.20   16.40
  -2 -16   0   13.10   16.10
   2 -16   2   34.20   17.30
  -2 -16  -2   18.90   20.90
   2 -16   2   31.70   20.70
  -2 -16  -2   29.40   16.20
  -2 -16   2   20.50   20.50
   2 -16  -2   32.50   20.50
   2 -16  -2   30.50   17.00
  -2 -16   2   26.70   17.30
   2 -16   4  884.81   51.39
  -2 -16  -4  895.51   51.29
  -2 -16  -4  980.30   43.30
   2 -16   4  963.90   46.20
   2 -16  -4  912.81   43.50
  -2 -16   4  827.72   52.29
  16  -4  -2  835.52   37.90
  -2 -16   4  861.31   45.20
   2 -16  -4  924.61   52.49
   2 -16   6  115.39   25.10
  -2 -16  -6  117.89   25.00
  16  -6   2  125.99   16.20
  -2 -16  -6  126.99   19.60
   2 -16  -6   94.99   19.80
   2 -16  -6  106.69   25.40
  -2 -16   6  113.99   25.60
  16  -6  -2  125.89   15.30
  -2 -16  -8   54.39   18.70
  -2 -16  -8   60.29   24.30
   2 -16   8   65.49   25.70
   2 -16  -8   62.59   20.70
  16  -8  -2   83.99   16.50
  -2 -16   8  100.29   27.10
   2 -16  -8   61.69   26.10
  -2 -16 -10  -53.49   18.50
  -2 -16 -10    6.80   24.60
  16 -10   2   16.10   19.50
   2 -16  10  -28.30   27.10
   2 -16 -10    2.00   26.90
  -2 -16  10   22.60   28.70
  16 -10  -2   -4.50   16.60
   2 -16 -10  -64.39   19.80
  -2 -16 -12  671.63   40.40
  16 -12   2  665.93   43.00
  -2 -16 -12  716.43   50.49
   2 -16  12  648.44   51.49
   2 -16 -12  676.93   51.49
   2 -16 -12  633.04   41.80
  16 -12  -2  716.93   44.00
  -2 -16  12  733.43   54.49
   2 -16  14   37.70   32.10
  -2 -16 -14   43.40   23.20
  16 -14   2   61.39   27.50
   2 -16 -14   23.00   30.50
  16 -14  -2   32.40   22.80
   2 -16 -14   27.70   24.90
  -2 -16  14   57.29   36.20
  -4 -16   0  -24.40   15.70
  -4 -16   0   15.20   20.10
   4 -16   0   15.80   17.30
   4 -16   0   -3.50   21.00
  -4 -16  -2  861.21   50.79
   4 -16   2  910.21   44.80
   4 -16   2  872.71   51.59
  -4 -16  -2  844.72   41.50
   4 -16  -2  943.21   44.00
   4 -16  -2  858.61   51.59
  -4 -16   2  947.11   53.39
  -4 -16   2  882.51   42.70
  -4 -16  -4   32.50   22.70
   4 -16   4    1.10   18.10
  -4 -16  -4   18.00   16.10
   4 -16   4   18.10   22.10
  16  -4  -4   19.30   13.00
  -4 -16   4   20.40   23.40
   4 -16  -4   20.10   17.90
   4 -16  -4   -0.70   22.10
   4 -16   6  593.84   40.20
   4 -16   6  649.04   45.50
  -4 -16  -6  617.74   43.90
  -4 -16  -6  638.94   34.50
  16  -6  -4  616.54   34.10
  -4 -16   6  596.84   46.80
   4 -16  -6  625.04   46.00
   4 -16  -6  555.74   35.10
   4 -16   8  127.29   27.50
  16  -8   4  124.69   19.60
  -4 -16   8  148.19   30.70
  16  -8  -4   99.39   17.50
   4 -16  -8  132.09   22.60
   4 -16  -8   96.19   28.40
  16 -10   4   89.69   21.40
  -4 -16 -10   88.99   19.40
   4 -16  10   53.59   28.10
  -4 -16 -10   74.09   25.20
   4 -16 -10   74.89   22.70
  -4 -16  10  137.79   33.10
   4 -16 -10   74.19   29.60
  16 -10  -4   82.99   18.90
  16 -12   4   -8.60   22.50
   4 -16  12  -64.19   27.60
  -4 -16 -12   10.70   23.70
  -4 -16 -12   -7.00   19.50
   4 -16 -12   -2.90   30.10
  -4 -16  12   49.99   33.80
  16 -12  -4   -5.50   19.40
   4 -16 -12  -40.00   21.40
  -4 -16 -14   39.30   21.30
   4 -16  14  -23.30   30.40
  16 -14   4   20.50   26.20
  -4 -16  14   41.40   37.20
   4 -16 -14   18.60   31.20
   4 -16 -14   27.90   25.20
  16 -14  -4   64.09   23.80
  -6 -16   0  -14.60   15.30
   6 -16   0    2.00   21.80
   6 -16   0  -10.10   17.40
   0  -6  16  -13.00   16.10
  -6 -16   0  -17.90   21.80
   6 -16   2  131.29   21.00
  -6 -16  -2  119.79   17.70
   6 -16   2   89.99   24.40
  -6 -16  -2  110.89   24.80
  16  -2  -6  104.09   13.70
  -6 -16   2  109.79   19.30
   6 -16  -2   81.49   24.90
  -6 -16   2  111.99   25.70
   6 -16  -2  103.89   20.30
   6 -16   4  617.74   45.80
  -6 -16  -4  644.54   34.40
  -6 -16  -4  627.34   44.60
   6 -16   4  661.93   40.20
   6 -16  -4  715.53   47.90
  -6 -16   4  683.93   48.10
  16  -4  -6  578.04   32.40
   6 -16  -4  700.33   39.10
   6 -16   6  669.93   42.30
  -6 -16  -6  641.14   35.30
   6 -16   6  637.24   46.80
  -6 -16  -6  751.32   47.60
   6 -16  -6  584.44   48.80
  16  -6  -6  681.53   35.50
   6 -16  -6  660.93   40.50
  -6 -16   6  646.74   50.19
   6 -16   8  151.98   29.30
  -6 -16  -8  162.58   27.30
  -6 -16  -8  183.38   19.60
  16  -8   6  176.18   21.70
   6 -16  -8  171.88   31.10
  -6 -16   8  160.18   33.10
   6 -16  -8  160.78   24.20
  16  -8  -6  150.48   19.00
  -6 -16 -10  102.19   19.80
  16 -10   6  117.39   22.90
  -6 -16 -10  101.09   25.10
   6 -16  10   82.49   29.30
  16 -10  -6   96.89   20.10
   6 -16 -10  102.19   24.40
   6 -16 -10   94.79   32.00
  -6 -16  10  106.59   34.60
  -6 -16 -12    1.90   23.20
  -6 -16 -12  -16.20   18.40
  16 -12   6  -14.50   23.00
   6 -16  12  -43.10   27.80
   6 -16 -12   32.00   23.70
  -6 -16  12   66.59   35.60
  16 -12  -6   -2.80   19.90
   6 -16 -12   -2.40   30.40
   6 -16  14   -5.80   28.80
  -6 -16 -14   76.49   21.30
  16 -14   6   70.59   27.50
  16 -14  -6   55.09   24.80
   6 -16 -14  107.99   27.00
  -6 -16  14  106.59   39.70
   8 -16   0  311.27   32.10
  -8 -16   0  260.37   31.50
  -8 -16   0  270.37   26.90
   8 -16   0  247.18   31.40
   0  -8  16  384.26   32.20
   8 -16   2   74.39   26.90
  -8 -16  -2   94.69   16.40
  -8 -16  -2   57.89   25.60
   8 -16   2   71.49   21.20
   8 -16  -2   79.79   26.30
   8 -16  -2   60.69   20.60
  -8 -16   2   67.29   18.30
   8 -16   4  124.99   23.20
  -8 -16  -4   85.89   26.70
   8 -16   4  108.59   29.00
  16  -4  -8  101.99   15.70
  -8 -16   4  116.09   21.80
   4  -8 -16  116.19   18.60
   8 -16  -4  100.09   28.20
   8 -16  -4  118.89   22.10
   8 -16   6  212.18   31.00
  -8 -16  -6  179.08   27.50
   8 -16   6  145.09   25.20
   8 -16  -6  132.79   31.20
   8 -16  -6  167.18   24.60
   6  -8 -16  181.78   20.70
  16  -6  -8  164.18   18.80
   8 -16   8  -46.20   27.30
  16  -8   8  -24.10   19.00
   8 -16   8  -32.60   23.10
   8 -16  -8  -24.90   29.60
  16  -8  -8   -3.60   17.40
   8 -16  -8    9.80   22.10
   8  -8 -16   17.20   17.20
  16 -10   8   30.90   22.00
  -8 -16 -10   58.79   24.90
   8 -16  10   24.50   29.70
  10  -8 -16   21.00   19.90
   8 -16 -10   38.30   32.20
  16 -10  -8   38.40   19.40
   8 -16 -10   60.79   24.40
  16 -12   8   15.70   24.40
   8 -16  12  -49.40   28.90
   8 -16 -12    0.20   24.60
  16 -12  -8  -11.10   21.10
  16 -14   8   -3.10   26.80
  16 -14  -8  -13.90   25.40
  14  -8 -16  -16.10   21.50
   8 -16 -14  -26.80   27.20
   0 -10  16  -10.80   22.40
   0 -10 -16   -5.80   17.60
  10 -16   0   16.20   21.70
  10 -16   0   -6.70   27.20
  10 -16   2   -2.90   21.70
  10 -16   2  -21.20   27.50
  10 -16  -2   11.00   21.70
   2 -10 -16   -5.00   17.80
  10 -16  -2   25.80   28.00
  -2 -10  16  -48.10   25.80
  10 -16   4   36.70   30.00
 -10 -16  -4   49.20   28.20
  10 -16   4   74.19   23.90
   4 -10 -16   67.79   19.70
 -10 -16   4   76.49   20.60
  10 -16  -4   77.39   23.70
  16  -4 -10   98.09   16.30
  10 -16  -4   70.89   30.40
  10 -16   6   69.19   25.30
  10 -16   6   99.19   31.10
  10 -16  -6   89.19   31.00
  16  -6 -10   83.89   17.50
  10 -16  -6   96.79   24.50
   6 -10 -16  116.29   20.90
 -10 -16  -8   46.50   25.80
  16  -8  10   35.60   21.30
  10 -16   8   47.70   30.80
  10 -16   8   64.59   25.90
  16  -8 -10   25.10   18.10
   8 -10 -16   51.89   19.90
  10 -16  -8   36.50   24.50
  10 -16  -8  -11.30   31.60
  16 -10  10   37.50   23.50
  10 -16  10   53.89   27.60
  10 -16  10  -10.70   30.60
 -10 -16 -10   30.10   25.70
  16 -10 -10   19.20   20.80
  10 -10 -16    5.00   21.90
  10 -16 -10   28.30   26.40
  16 -12  10  148.99   28.80
  10 -16  12  119.49   32.90
  12 -10 -16  193.38   26.50
  16 -12 -10  196.28   27.70
  10 -16 -12  175.88   30.30
  16 -14  10  -18.70   28.40
  16 -14 -10  -22.30   26.50
  10 -16 -14   -8.40   29.20
  14 -10 -16    0.20   23.70
   0 -12 -16   -0.80   18.70
  12 -16   0   10.00   29.90
  12 -16   0  -54.29   23.70
   0 -12  16  -38.20   25.10
  12 -16   2  622.74   54.19
  12 -16   2  679.53   45.10
  -2 -12 -16  714.93   38.90
   2 -12 -16  730.63   39.40
  12 -16  -2  735.83   44.90
  12 -16  -2  666.43   53.29
  -2 -12  16  626.14   52.79
  12 -16   4  -74.09   23.70
  12 -16   4  -20.50   32.10
   4 -12 -16   -0.50   19.60
  12 -16  -4  -22.40   29.60
  12 -16  -4  -15.00   24.30
  12 -16   6  -29.50   32.10
  12 -16   6  -47.80   24.60
 -12 -16  -6  -31.40   27.90
  16  -6 -12    0.30   16.80
  12 -16  -6   39.60   25.50
   6 -12 -16   -1.80   20.50
  12 -16   8   -4.60   33.00
 -12 -16  -8  -14.20   26.20
  12 -16   8  -20.80   26.20
   8 -12 -16   -9.60   21.40
  12 -16  -8   -9.50   25.60
  16  -8 -12    0.00   18.50
  16 -10  12  162.68   28.00
  12 -16  10  167.08   36.70
  12 -16  10  152.48   31.30
  12 -16 -10  175.48   31.20
  16 -10 -12  149.29   25.10
  10 -12 -16  180.08   27.00
  16 -12  12    6.50   27.60
  12 -16  12   -3.10   30.10
  12 -16 -12    5.90   29.80
  12 -12 -16   19.80   25.20
  16 -12 -12   -5.30   25.80
  16 -14  12   99.69   31.50
  16 -14 -12   21.80   29.70
  14 -12 -16   90.69   27.50
  12 -16 -14   52.09   31.70
   0 -14 -16    2.70   21.50
   0 -14  16   49.70   30.80
  14 -16   0   24.90   27.30
  14 -16   2   75.39   35.90
  -2 -14 -16   82.09   22.40
  14 -16   2  -11.50   26.70
  14 -16  -2   34.20   27.80
   2 -14 -16   67.59   22.90
  -2 -14  16   64.49   34.30
  14 -16   4   -5.80   27.30
  -4 -14 -16   35.90   21.20
  14 -16   4   12.70   34.90
  -4 -14  16  -35.00   36.70
  14 -16  -4   11.80   25.10
   4 -14 -16   59.49   22.70
  14 -16   6   81.89   36.00
  14 -16   6   40.70   28.60
 -14 -16  -6   71.39   31.70
   6 -14 -16   85.59   24.70
  14 -16  -6   63.09   26.90
 -14 -16  -8  -26.50   28.90
  14 -16   8  -49.90   35.10
  14 -16   8   -8.60   28.80
  14 -16  -8  -33.30   27.30
   8 -14 -16  -29.50   23.90
  16  -8 -14    4.20   20.40
  14 -16  10    8.40   29.60
  10 -14 -16    8.30   25.70
  16 -10 -14   27.80   23.70
  14 -16 -10    0.50   28.70
  14 -16  12   53.69   31.80
  16 -12  14   79.69   30.60
  16 -12 -14   50.69   26.70
  14 -16 -12   37.50   31.60
  12 -14 -16   73.39   28.40
  16 -14  14   24.50   32.20
  14 -16  14   93.09   34.70
  14 -16 -14   50.79   32.20
  16 -14 -14   51.69   29.70
  14 -14 -16   58.59   29.10
   0 -16 -16   29.60   24.60
   0 -16  16   11.10   35.10
  16 -16   0   -8.10   30.00
  -2 -16 -16  601.04   39.30
  16 -16   2  542.55   44.80
   2 -16 -16  650.13   40.80
  16 -16  -2  596.84   45.80
  -2 -16  16  607.34   55.79
  -4 -16 -16   12.00   23.30
  16 -16   4   -8.20   28.80
  -4 -16  16   58.89   40.30
  16 -16  -4   33.50   26.60
   4 -16 -16   35.00   25.90
  16 -16   6   -4.80   29.00
  -6 -16 -16   -4.80   22.80
   6 -16 -16   73.99   27.60
  16 -16  -6   15.90   27.30
  -6 -16  16  103.29   42.80
  16 -16   8  -11.80   30.10
   8 -16 -16    6.00   27.70
  16 -16  -8   -3.70   28.90
  16 -16  10  -42.20   30.50
  10 -16 -16   23.60   29.10
  16 -16 -10   17.30   30.00
  16 -10 -16   28.80   25.30
  16 -16  12   21.30   32.60
  16 -12 -16  -12.60   26.80
  12 -16 -16   28.40   30.20
  16 -16 -12    2.90   32.30
  16 -14  16  -15.40   33.00
  16 -16  14   -9.50   33.90
  14 -16  16   -6.90   35.60
  16 -16 -14    8.90   32.40
  14 -16 -16    4.60   30.30
  16 -14 -16    3.30   29.00
  -1 -17  -1  263.77   28.10
   1 -17   1  248.98   26.80
  -1 -17  -1  254.97   27.90
   1 -17   1  218.18   27.20
   1 -17  -1  236.88   28.00
  -1 -17   1  311.97   29.70
  -1 -17   1  237.78   28.10
   1 -17  -1  276.07   29.30
   1 -17   3   81.69   23.60
   1 -17   3   88.39   20.50
  -1 -17  -3   82.49   23.60
  -1 -17  -3   90.39   19.10
   1 -17  -3  111.29   24.60
   1 -17  -3   85.59   19.30
  -1 -17   3   59.89   24.30
  -1 -17   3   91.79   20.10
   1 -17   5  334.47   34.30
   1 -17   5  309.07   37.20
  -1 -17  -5  306.97   29.10
  -1 -17  -5  301.27   37.50
  -1 -17   5  250.67   30.80
   1 -17  -5  247.78   24.40
  -1 -17   5  262.47   26.80
   1 -17  -5  238.68   30.70
  -1 -17  -7  164.18   28.90
  17  -7   1  154.38   17.40
  -1 -17  -7  130.69   22.30
   1 -17   7  176.48   29.40
  -1 -17   7  227.28   30.40
  17  -7  -1  171.78   18.10
   1 -17  -7  171.28   29.20
   1 -17  -7  147.19   23.30
   1 -17   9   37.90   28.90
  17  -9   1   27.30   18.70
  -1 -17  -9   -1.90   26.50
  -1 -17  -9  -20.00   19.90
   1 -17  -9   12.90   27.30
  17  -9  -1   33.30   16.80
  -1 -17   9   38.90   29.10
   1 -17  -9  -36.40   20.20
  17 -11   1   56.49   22.10
  -1 -17 -11   22.70   27.50
   1 -17  11   -4.10   30.40
  -1 -17 -11  -17.20   21.40
  -1 -17  11   40.90   32.10
  17 -11  -1   14.30   18.00
   1 -17 -11  -20.80   22.30
   1 -17 -11    8.70   28.80
  17 -13   1  139.79   26.90
  -1 -17 -13  125.29   30.20
  -1 -17 -13   99.89   25.60
   1 -17  13   88.39   34.40
   1 -17 -13   85.29   26.60
   1 -17 -13  117.59   31.40
  17 -13  -1  118.49   23.20
  -1 -17  13  129.19   37.30
  -1 -17 -15  219.18   28.90
   1 -17  15  208.18   38.30
  17 -15   1  183.38   31.90
  -1 -17  15  164.78   41.00
   1 -17 -15  165.58   29.20
  17 -15  -1  210.58   32.40
   3 -17   1   73.59   19.80
  -3 -17  -1   62.49   23.70
   3 -17   1   73.19   23.40
  -3 -17  -1   79.09   18.80
   3 -17  -1   82.09   23.90
  -3 -17   1   74.79   23.60
   3 -17  -1   59.39   19.80
  -3 -17   1  105.79   19.40
  -3 -17  -3  464.95   31.30
   3 -17   3  408.86   32.40
  -3 -17  -3  455.35   41.80
   3 -17   3  468.85   40.90
  -3 -17   3  464.05   41.00
   3 -17  -3  496.65   34.20
  -3 -17   3  524.55   36.70
   3 -17  -3  451.15   38.70
   3 -17   5  173.68   25.40
  -3 -17  -5  174.18   21.40
   3 -17   5  188.38   28.30
  -3 -17  -5  179.28   28.10
  -3 -17   5  177.58   29.30
   3 -17  -5  279.97   25.50
  17  -5  -3  164.98   16.90
  -3 -17  -7  104.39   28.20
   3 -17   7  148.89   29.60
  -3 -17  -7  134.09   20.90
  17  -7  -3  101.59   17.50
   3 -17  -7  123.89   29.20
  -3 -17   7  146.49   29.80
   3 -17  -7   93.69   22.40
  -3 -17  -9  243.48   31.80
   3 -17   9  267.97   34.50
  17  -9   3  332.37   29.60
  -3 -17  -9  286.87   30.70
  17  -9  -3  333.27   31.00
   3 -17  -9  272.87   27.90
  -3 -17   9  299.67   36.90
   3 -17  -9  344.77   42.20
   3 -17  11   44.30   31.00
  -3 -17 -11   53.59   26.60
  -3 -17 -11   42.30   21.40
  17 -11   3   81.49   23.40
  17 -11  -3   52.89   19.70
   3 -17 -11   64.79   30.60
  -3 -17  11   97.49   33.30
   3 -17 -11   53.49   24.30
   3 -17  13  -19.20   32.30
  17 -13   3   19.00   25.40
  -3 -17 -13    0.60   22.70
  -3 -17  13    0.00   35.70
   3 -17 -13   18.40   32.00
  17 -13  -3  -29.20   21.10
   3 -17 -13  -30.50   24.60
  -3 -17 -15  104.19   25.00
   3 -17  15   71.19   33.50
  17 -15   3   93.19   29.90
  17 -15  -3   71.69   26.20
   3 -17 -15  128.59   29.10
  -3 -17  15  138.99   40.70
   5 -17   1  228.88   29.30
  -5 -17  -1  315.27   29.10
   5 -17   1  243.08   25.60
  -5 -17  -1  389.66   37.90
   5 -17  -1  340.67   35.60
  -5 -17   1  254.77   30.40
  -5 -17   1  246.78   24.00
   5 -17  -1  298.57   28.80
  -5 -17  -3  165.28   20.80
   5 -17   3  172.38   28.70
   5 -17   3  148.09   23.60
  -5 -17  -3  213.78   28.50
   5 -17  -3  137.79   22.50
  -5 -17   3  182.98   29.00
   5 -17  -3  184.58   28.40
  17  -3  -5  160.28   15.70
  -5 -17   3  177.18   23.10
  -5 -17  -5 1312.97   55.69
   5 -17   5 1429.66   61.19
  -5 -17  -5 1282.57   67.99
   5 -17   5 1319.37   69.29
   5 -17  -5 1326.07   70.39
  -5 -17   5 1421.06   71.09
  17  -5  -5 1356.76   54.59
   5 -17  -5 1339.67   59.29
  -5 -17  -7  393.36   31.60
  -5 -17  -7  465.95   42.80
   5 -17   7  276.57   31.70
   5 -17   7  384.46   42.10
   5 -17  -7  442.66   44.60
  17  -7  -5  371.26   31.60
   5 -17  -7  392.16   35.40
  -5 -17   7  426.26   45.40
  -5 -17  -9  346.47   29.80
  17  -9   5  349.37   31.80
  -5 -17  -9  353.86   40.00
   5 -17   9  282.17   35.80
   5 -17  -9  263.77   37.10
  -5 -17   9  278.87   39.00
  17  -9  -5  397.36   32.40
   5 -17  -9  339.27   34.90
   5 -17  11  -16.90   30.00
  -5 -17 -11    3.80   19.50
  -5 -17 -11  -16.40   24.70
  17 -11   5   -7.50   22.00
   5 -17 -11  -10.50   23.80
   5 -17 -11   10.90   31.80
  17 -11  -5  -18.40   18.60
  -5 -17  11  -20.40   33.90
  17 -13   5   51.99   25.70
   5 -17  13  -18.60   31.20
  -5 -17 -13   27.60   22.00
  17 -13  -5   45.00   22.00
   5 -17 -13   49.99   26.10
   5 -17 -13   15.00   32.60
  -5 -17  13   68.59   38.80
  17 -15   5   79.89   29.30
  -5 -17 -15   35.30   23.20
  17 -15  -5   66.09   26.30
   5 -17 -15   34.00   28.00
  -5 -17  15   80.49   41.30
   7 -17   1  185.18   29.30
  -7 -17  -1  200.68   21.10
  -7 -17  -1  166.18   30.20
   7 -17   1  176.38   24.20
  -7 -17   1  178.08   22.00
  -7 -17   1  195.08   30.50
   7 -17  -1  167.88   29.40
   7 -17  -1  181.78   24.20
  -7 -17  -3  109.99   28.60
   7 -17   3  132.59   28.80
  -7 -17  -3  152.08   19.30
   7 -17   3  121.59   24.30
   7 -17  -3  139.09   29.50
   7 -17  -3  137.59   23.50
  -7 -17   3  143.49   22.00
  17  -3  -7  114.69   15.70
  -7 -17   3  158.88   29.90
   7 -17   5  288.17   34.60
   7 -17   5  373.76   36.60
  -7 -17  -5  369.06   28.50
  -7 -17   5  320.67   37.10
  17  -5  -7  367.36   29.10
   7 -17  -5  321.97   36.70
   7 -17  -5  359.96   35.10
  -7 -17  -7    8.10   16.60
  -7 -17  -7  -36.10   25.40
   7 -17   7  -37.00   27.50
   7 -17   7  -27.80   24.20
   7 -17  -7  -13.70   28.80
  -7 -17   7   17.90   31.80
  17  -7  -7  -17.90   16.50
   7 -17  -7    6.00   22.40
  -7 -17  -9   61.99   27.00
   7 -17   9   63.99   26.80
  17  -9   7   81.29   22.10
   7 -17   9   74.29   30.20
   7 -17  -9  117.39   25.50
   7 -17  -9   63.69   33.40
  -7 -17   9   92.19   35.40
  17  -9  -7   94.49   19.90
   7 -17  11  -18.60   29.80
  17 -11   7    1.50   23.00
  -7 -17 -11  -17.80   25.20
  17 -11  -7  -15.10   19.80
   7 -17 -11   15.70   25.50
   7 -17 -11  -23.40   32.40
  -7 -17  11   18.90   36.50
  17 -13   7   34.40   26.00
   7 -17  13    7.60   31.00
  -7 -17  13   53.49   39.40
  17 -13  -7   -4.00   22.80
   7 -17 -13   45.00   27.40
  17 -15   7  -12.20   28.30
  -7 -17  15   32.40   42.90
  17 -15  -7  -49.70   26.50
   7 -17 -15   -5.20   29.00
  -9 -17  -1   21.10   27.90
   9 -17   1   17.90   28.60
   9 -17   1   54.29   23.10
  -9 -17   1   22.00   28.40
   9 -17  -1   21.60   28.00
  -9 -17   1   23.90   17.50
   9 -17  -1   36.20   22.30
  -9 -17  -3  289.17   34.70
   9 -17   3  354.06   35.60
   9 -17   3  242.48   35.00
   9 -17  -3  319.47   32.00
   9 -17  -3  254.97   34.30
  -9 -17   3  262.27   25.80
   3  -9 -17  339.87   28.30
   9 -17   5  348.77   36.80
  -9 -17  -5  228.28   33.40
   9 -17   5  251.27   36.20
  17  -5  -9  308.77   28.50
   9 -17  -5  262.17   36.90
   5  -9 -17  374.36   26.60
   9 -17  -5  272.27   29.30
   9 -17   7   81.59   31.90
   9 -17   7   88.89   26.10
  -9 -17  -7   66.19   27.80
   7  -9 -17  105.69   21.20
   9 -17  -7   45.00   32.60
  17  -7  -9   67.09   18.10
   9 -17  -7   93.79   26.10
   9 -17   9  258.77   38.40
   9 -17   9  451.05   41.10
  -9 -17  -9  370.96   43.20
  17  -9  -9  362.76   33.20
   9  -9 -17  402.56   32.20
   9 -17  -9  393.96   39.10
   9 -17  -9  235.58   40.30
   9 -17  11   31.40   32.00
  17 -11   9   14.50   24.20
   9 -17 -11   17.20   27.20
  17 -11  -9   12.20   22.60
  11  -9 -17    6.70   22.10
  17 -13   9   41.30   27.90
  13  -9 -17   79.69   24.10
  17 -13  -9   26.50   25.10
   9 -17 -13   64.09   29.30
  17 -15   9   -3.30   29.60
  17 -15  -9  -19.50   27.20
   9 -17 -15  -36.10   29.00
  11 -17   1    5.00   30.60
  11 -17   1    9.00   23.80
  11 -17  -1    9.20   30.70
  11 -17  -1   42.60   24.60
   1 -11 -17   30.80   19.90
  11 -17   3   53.89   32.60
 -11 -17  -3   10.70   30.60
  11 -17   3   60.59   25.30
  11 -17  -3   49.20   25.00
  11 -17  -3   91.89   31.80
   3 -11 -17   57.59   20.20
  -3 -11  17   18.10   30.70
  11 -17   5  -50.19   31.00
  11 -17   5  -46.60   24.40
 -11 -17  -5  -43.10   28.70
  11 -17  -5  -10.30   30.30
  11 -17  -5   -7.60   24.00
  17  -5 -11    5.60   15.80
   5 -11 -17    3.00   20.30
  11 -17   7  -18.50   32.00
 -11 -17  -7  -23.60   27.40
  11 -17   7    5.70   26.50
  11 -17  -7  -29.20   25.70
  17  -7 -11   -7.10   17.40
  11 -17  -7  -60.79   32.50
   7 -11 -17    0.20   21.40
 -11 -17  -9   -8.00   27.30
  11 -17   9   -7.60   33.00
  11 -17   9   15.30   27.70
  11 -17  -9  -31.40   26.80
  17  -9 -11   21.00   19.90
   9 -11 -17   -3.20   22.60
  11 -17  11   53.89   30.70
  17 -11  11   61.09   27.00
  11 -17  11   50.09   34.30
  17 -11 -11   34.90   23.90
  11 -11 -17   64.69   25.30
  11 -17 -11   18.40   29.20
  17 -13  11  -21.10   28.40
  11 -17  13   -4.10   32.40
  11 -17 -13  -34.90   29.40
  17 -13 -11   -0.80   27.20
  13 -11 -17   -7.50   24.40
  17 -15  11    5.50   30.80
  11 -17 -15   -9.70   31.70
  15 -11 -17    6.80   25.90
  17 -15 -11    9.30   30.90
  13 -17   1  108.59   29.20
  -1 -13 -17  135.79   23.90
  13 -17   1  107.49   35.00
  13 -17  -1  132.69   35.70
  13 -17  -1  131.89   28.60
   1 -13 -17  128.29   23.90
  13 -17   3   29.80   33.90
  -3 -13 -17   24.40   20.70
  13 -17   3  -29.90   27.10
  13 -17  -3  -28.60   26.40
  -3 -13  17  -21.20   33.30
  13 -17  -3   64.39   33.60
   3 -13 -17   40.50   22.50
  13 -17   5   -7.10   27.10
 -13 -17  -5   18.00   32.40
  13 -17   5   46.30   35.10
  -5 -13  17  -97.69   36.40
   5 -13 -17   51.99   22.90
  13 -17  -5    6.00   26.40
  13 -17   7  -10.50   28.60
 -13 -17  -7   19.30   29.90
  13 -17   7   -7.20   35.50
   7 -13 -17   33.00   23.60
  13 -17  -7  -26.40   27.30
  17  -7 -13   30.00   19.20
  13 -17   9   31.70   36.20
  13 -17   9   30.80   30.20
   9 -13 -17   79.59   25.80
  17  -9 -13   57.39   22.20
  13 -17  -9   50.59   30.20
  13 -17  11  -67.39   30.10
  13 -17  11  -21.70   35.40
  13 -17 -11  -25.60   30.20
  11 -13 -17  -11.30   26.30
  17 -11 -13   14.70   23.70
  17 -13  13  129.69   31.90
  13 -17  13   86.49   34.90
  17 -13 -13   66.19   28.80
  13 -17 -13  112.49   34.00
  13 -13 -17  116.09   28.70
  17 -15  13  -37.60   31.00
  13 -17  15    2.60   35.40
  13 -17 -15  -13.30   32.20
  17 -15 -13    4.60   31.10
  15 -13 -17   -8.10   28.10
  -1 -15 -17  213.58   27.30
  15 -17   1  161.58   32.10
  15 -17  -1  179.78   32.80
   1 -15 -17  225.18   27.80
  -3 -15 -17  112.09   24.80
  15 -17   3   82.99   30.20
  -3 -15  17  108.89   38.40
  15 -17  -3   89.59   28.60
   3 -15 -17  122.39   26.20
  15 -17   5   32.80   29.70
  -5 -15  17   80.19   41.80
  15 -17  -5   70.89   29.30
   5 -15 -17   63.39   25.50
 -15 -17  -7  -26.20   32.20
  15 -17   7  -21.50   29.80
  -7 -15  17   44.00   42.40
   7 -15 -17   28.20   25.80
  15 -17  -7  -31.60   28.40
  15 -17   9  -24.20   30.20
  17  -9 -15  -16.80   22.10
  15 -17  -9  -60.69   29.50
   9 -15 -17   -1.10   26.60
  15 -17  11   -0.20   32.30
  17 -11 -15   25.50   26.20
  15 -17 -11   24.50   32.70
  11 -15 -17   45.50   28.10
  15 -17  13  -22.10   33.60
  17 -13  15   12.00   31.60
  15 -17 -13  -15.30   33.60
  13 -15 -17  -24.00   28.90
  17 -13 -15   16.60   27.80
  -1 -17 -17   92.89   26.80
  17 -17   1   72.69   32.40
   1 -17 -17   83.19   26.90
  17 -17  -1   71.79   32.90
  17 -17   3   25.90   32.20
  -3 -17 -17   58.39   25.80
   3 -17 -17   54.49   27.40
  17 -17  -3   27.50   28.90
  -5 -17 -17  158.98   26.90
  17 -17   5  187.78   34.40
  -5 -17  17  157.78   46.20
   5 -17 -17  169.88   30.30
  17 -17  -5  148.99   31.40
  17 -17   7   76.09   33.00
   7 -17 -17   34.20   28.90
  -7 -17  17   77.69   47.10
  17 -17  -7   55.29   31.70
  17 -17   9   65.09   32.40
  -9 -17  17  102.89   47.50
  17 -17  -9   15.10   31.20
   9 -17 -17   -8.70   29.00
  17 -17  11    6.60   33.60
  17 -17 -11   13.10   33.80
  11 -17 -17   48.70   31.40
  17 -11 -17   26.90   26.80
   0 -18   0   -1.40   18.90
   0 -18   0  -17.60   22.30
   0 -18  -2  159.58   27.70
   0 -18   2  148.79   26.90
   0 -18   2  160.68   22.90
   0 -18  -2  158.98   22.30
   0 -18   4  -31.00   24.20
   0 -18   4    3.70   20.60
   0 -18  -4  -15.20   18.50
   0 -18  -4  -45.00   24.00
   0 -18  -6  187.08   31.70
   0 -18   6  198.58   31.60
   0 -18   6  211.48   27.90
   0 -18  -6  212.28   25.60
   0 -18  -8  -49.80   20.70
   0 -18   8  -11.10   29.20
   0 -18  -8  -25.60   27.70
  18  -8   0  -11.20   15.10
   0 -18 -10  -30.90   22.10
   0 -18  10   31.20   31.70
   0 -18 -10   -7.30   28.50
  18 -10   0   24.40   17.10
  18 -12   0   -5.40   19.10
   0 -18  12  -23.30   34.20
   0 -18 -12   -9.20   29.50
   0 -18 -14  354.86   35.40
   0 -18  14  289.07   42.90
  18 -14   0  382.06   40.30
   0 -18 -16   37.20   27.00
  18 -16   0  -12.30   30.80
   2 -18   0  166.68   27.30
   2 -18   0  183.28   23.70
  -2 -18   0  171.28   28.60
  -2 -18   0  179.58   22.90
  -2 -18  -2   35.50   24.60
   2 -18   2   14.60   24.60
  -2 -18  -2   65.19   20.20
   2 -18   2   46.00   20.70
  -2 -18   2   37.70   25.30
  -2 -18   2   58.59   20.80
   2 -18  -2   49.90   20.60
   2 -18  -2   58.89   25.40
  -2 -18  -4  185.08   23.30
   2 -18   4  140.59   28.90
   2 -18   4  201.68   25.70
  -2 -18  -4  165.38   28.50
   2 -18  -4  185.68   30.60
  -2 -18   4  132.39   29.40
  -2 -18   4  197.88   25.30
   2 -18  -4  202.98   23.90
   2 -18   6  216.88   31.70
  -2 -18  -6  206.98   24.30
  -2 -18  -6  196.18   31.20
   2 -18   6  233.68   29.50
   2 -18  -6  198.38   26.00
   2 -18  -6  213.48   32.00
  -2 -18   6  217.28   32.50
   2 -18   8   62.49   29.70
   2 -18  -8   59.99   23.10
   2 -18  -8   74.59   29.70
  18  -8  -2   54.59   16.90
  -2 -18   8   70.19   31.00
  -2 -18 -10  -22.60   27.00
  -2 -18 -10  -45.10   20.90
  18 -10   2  -34.90   19.90
   2 -18  10  -27.60   29.90
   2 -18 -10  -52.29   22.50
  -2 -18  10   -3.50   31.30
  18 -10  -2    7.10   17.50
   2 -18 -10  -24.30   29.40
   2 -18  12  -10.50   32.40
  -2 -18 -12  -37.30   27.70
  18 -12   2    6.80   23.50
  -2 -18 -12  -46.90   22.70
   2 -18 -12    4.20   30.80
  -2 -18  12  -12.70   34.80
  18 -12  -2    8.90   20.10
   2 -18 -12  -44.40   24.30
  -2 -18 -14   12.80   25.70
  18 -14   2   34.90   27.80
   2 -18  14   18.50   35.30
   2 -18 -14  124.09   35.10
  18 -14  -2   38.20   23.50
  -2 -18  14   60.89   39.50
   2 -18 -14   30.20   27.70
  18 -16   2   26.60   30.90
  -2 -18 -16   51.89   26.00
  -2 -18  16   -5.70   41.50
   2 -18 -16   22.50   28.70
  18 -16  -2   26.30   26.40
  -4 -18   0   12.70   24.90
   4 -18   0    4.30   25.10
   4 -18   0  -26.30   19.40
  -4 -18   0  -11.10   19.30
   4 -18   2  166.58   28.90
  -4 -18  -2  189.08   29.40
   4 -18   2  170.58   24.50
  -4 -18  -2  149.19   22.50
   4 -18  -2  168.38   28.70
  -4 -18   2  171.08   23.60
   4 -18  -2  114.39   23.80
  -4 -18   2  188.78   29.00
   4 -18   4  725.03   50.39
  -4 -18  -4  748.83   40.40
   4 -18   4  799.02   45.50
  -4 -18  -4  771.02   51.19
  -4 -18   4  704.13   43.50
   4 -18  -4  745.73   51.29
   4 -18  -4  754.92   44.30
  -4 -18   4  680.53   51.99
   4 -18   6  269.27   34.30
   4 -18   6  279.77   30.80
  18  -6  -4  305.67   26.80
   4 -18  -6  288.77   29.00
   4 -18  -6  289.37   35.00
  -4 -18   6  354.66   44.00
   4 -18   8  686.33   49.10
  -4 -18  -8  666.13   38.00
  -4 -18  -8  562.74   47.10
   4 -18  -8  577.74   38.90
  -4 -18   8  667.73   54.09
   4 -18  -8  610.74   51.29
  18  -8  -4  608.14   36.70
  18 -10   4   28.40   21.70
   4 -18  10    8.30   30.80
  -4 -18 -10   28.80   27.50
  -4 -18 -10    7.80   20.60
   4 -18 -10  -15.70   23.80
  -4 -18  10    7.10   33.90
  18 -10  -4   -1.50   18.50
   4 -18 -10   32.50   32.00
  -4 -18 -12   -2.80   27.20
  18 -12   4   -1.90   24.20
  -4 -18 -12  -24.90   21.90
   4 -18  12   50.59   33.20
   4 -18 -12  -47.90   31.70
   4 -18 -12   25.30   25.60
  -4 -18  12  -22.70   36.50
  18 -12  -4  -10.40   19.30
   4 -18  14   45.00   35.00
  -4 -18 -14  131.49   25.70
  18 -14   4  135.39   29.50
   4 -18 -14  147.29   29.70
  18 -14  -4  106.79   25.20
  -4 -18  14   98.79   40.70
   4 -18 -14  115.99   35.60
  -4 -18 -16  101.89   26.70
  18 -16   4  118.59   32.80
  -4 -18  16   88.09   44.40
  18 -16  -4   79.79   28.00
   4 -18 -16  106.89   30.60
   6 -18   0  238.38   27.40
  -6 -18   0  249.58   24.30
   6 -18   0  192.98   30.60
  -6 -18   0  235.68   32.20
   6 -18   2  221.28   31.30
  -6 -18  -2  215.48   23.20
  -6 -18  -2  181.08   30.80
   6 -18   2  210.08   26.70
  -6 -18   2  215.48   24.70
   6 -18  -2  217.68   31.50
  -6 -18   2  332.97   41.20
   6 -18  -2  178.38   25.50
  -6 -18  -4  294.87   34.50
   6 -18   4  337.27   41.00
   6 -18   4  282.37   29.90
  -6 -18  -4  352.16   30.90
   6 -18  -4  338.17   35.10
   6 -18  -4  277.17   35.30
  18  -4  -6  293.27   26.20
  -6 -18   4  281.87   28.90
  -6 -18   4  265.47   36.20
   6 -18   6   61.09   26.10
  -6 -18  -6   57.69   19.60
  -6 -18  -6   49.20   28.70
   6 -18   6   53.29   29.10
  -6 -18   6   69.19   31.80
  18  -6  -6    3.50   16.20
   6 -18  -6   67.39   31.00
   6 -18  -6   42.40   24.40
   6 -18   8  144.59   32.90
  -6 -18  -8  122.29   30.00
  -6 -18  -8  198.98   22.00
   6 -18   8  125.89   28.30
  18  -8  -6  129.69   20.10
   6 -18  -8  149.88   34.60
   6 -18  -8  167.68   27.20
  -6 -18   8  150.98   36.90
   6 -18  10    2.10   30.20
  18 -10  -6   -7.20   18.80
   6 -18 -10   -3.50   24.80
   6 -18 -10  -44.30   33.00
  -6 -18  10  -15.80   35.20
  18 -12   6  -12.50   24.10
   6 -18  12  -43.50   31.20
  -6 -18 -12  -15.60   21.30
   6 -18 -12  -26.50   33.70
  -6 -18  12  -30.00   37.50
  18 -12  -6  -21.30   21.00
   6 -18 -12    6.00   26.20
  18 -14   6   62.49   28.10
   6 -18 -14    7.80   28.80
  18 -14  -6  -20.20   24.70
  -6 -18  14   39.00   42.40
  18 -16   6   55.99   31.80
   6 -18 -16   65.89   31.30
  18 -16  -6   68.59   29.70
  -6 -18  16   58.49   45.50
   8 -18   0  -23.10   22.30
  -8 -18   0  -10.00   18.20
  -8 -18   0   10.30   28.40
   8 -18   0  -30.10   27.40
  -8 -18  -2   63.89   29.70
   8 -18   2   53.99   29.90
   8 -18   2   63.69   24.10
  -8 -18  -2   40.10   18.70
  -8 -18   2   62.49   21.30
   8 -18  -2   62.39   30.30
   8 -18  -2   53.29   23.60
  -8 -18   2   76.69   31.00
   8 -18   4  612.84   50.89
   8 -18   4  683.33   43.80
  -8 -18  -4  576.64   47.90
  18  -4  -8  600.04   33.70
   8 -18  -4  687.53   43.40
   8 -18  -4  551.14   51.09
  -8 -18   4  622.34   41.10
  -8 -18   4  606.04   52.19
   8 -18   6  112.49   33.40
   8 -18   6  171.28   29.20
  -8 -18  -6  141.19   31.70
   8 -18  -6  142.79   34.60
   8 -18  -6  147.29   27.50
  -8 -18   6  177.38   35.70
  18  -6  -8  140.99   18.50
  -8 -18  -8  399.86   44.00
   8 -18   8  406.86   48.30
   8 -18   8  395.86   41.00
  -8 -18   8  325.27   44.60
   8 -18  -8  413.66   40.60
   8 -18  -8  262.97   41.50
  18  -8  -8  393.56   34.10
   8 -18  10   37.60   30.40
   8 -18  10   32.30   33.00
  -8 -18 -10   48.40   26.80
   8 -18 -10   44.00   27.50
   8 -18 -10   27.80   35.70
  18 -10  -8   31.40   20.90
  -8 -18  10  105.89   39.10
   8 -18  12  -13.80   33.00
  18 -12   8   30.90   26.20
  -8 -18  12   -0.70   40.30
   8 -18 -12  -31.20   27.50
  18 -12  -8  -17.50   22.50
  18 -14   8    2.30   28.10
  18 -14  -8  -13.20   25.40
  -8 -18  14   21.50   42.80
   8 -18 -14  -19.80   29.60
  18 -16   8  110.09   32.20
   8 -18 -16   17.70   30.70
  18 -16  -8  110.39   31.80
  -8 -18  16  148.39   49.00
  10 -18   0    8.70   30.00
 -10 -18   0   25.20   31.10
  10 -18   0   21.50   24.20
  10 -18   2  -25.60   23.90
  10 -18   2  -51.79   30.20
 -10 -18  -2  -39.00   30.50
  10 -18  -2  -29.60   29.60
 -10 -18   2   -7.90   31.30
  10 -18  -2  -36.00   23.20
  10 -18   4   -9.30   31.10
  10 -18   4   25.50   25.50
 -10 -18  -4  -33.30   29.90
  10 -18  -4    4.10   23.80
  10 -18  -4  -31.70   31.30
  10 -18   6  -10.10   26.30
 -10 -18  -6  -36.80   27.90
  10 -18   6  -35.40   32.10
  10 -18  -6  -33.80   31.90
   6 -10 -18   34.40   21.00
  10 -18  -6  -20.00   25.70
  18  -6 -10    3.30   16.70
  10 -18   8   28.80   33.40
 -10 -18  -8   26.70   29.30
  10 -18   8    8.90   27.70
  18  -8 -10   25.00   18.30
   8 -10 -18   37.90   22.40
  10 -18  -8  -33.40   35.10
  10 -18  -8   16.70   27.60
  10 -18  10  -20.60   33.50
  10 -18  10  -16.90   29.00
  18 -10 -10   12.70   21.40
  10 -18 -10  -29.50   28.60
  10 -10 -18    8.80   23.10
  18 -12  10   86.69   28.10
  10 -18  12   44.20   32.70
  10 -18  12    3.80   34.30
  18 -12 -10   -1.10   24.90
  10 -18 -12   43.70   30.30
  12 -10 -18   32.30   24.70
  18 -14  10    6.10   29.10
  10 -18 -14  -30.20   31.10
  18 -14 -10  -30.70   27.70
  18 -16  10   36.80   32.30
  18 -16 -10   -1.00   31.40
  10 -18 -16  -36.90   31.50
 -10 -18  16   69.79   48.90
  12 -18   0  -35.60   25.70
  12 -18   0  -55.39   32.50
  12 -18   2  -10.80   33.90
 -12 -18  -2   20.40   33.70
  12 -18   2    2.20   26.40
   2 -12 -18    0.20   21.60
  12 -18  -2   -2.40   26.10
  12 -18  -2   22.00   32.20
  12 -18   4  -12.30   35.20
 -12 -18  -4  -77.99   32.10
  12 -18   4   21.50   27.10
   4 -12 -18   21.20   21.50
  12 -18  -4  -35.00   26.80
  12 -18  -4   -5.90   33.50
  12 -18   6  -63.89   34.80
 -12 -18  -6  -42.50   29.90
  12 -18   6   -7.80   27.50
  18  -6 -12   -4.10   17.00
  12 -18  -6  -34.90   27.20
  12 -18  -6  -49.20   34.50
   6 -12 -18  -12.30   21.80
 -12 -18  -8   -7.00   29.60
  12 -18   8  -41.10   28.40
  12 -18   8  -18.60   35.90
  12 -18  -8  -44.30   28.40
   8 -12 -18  -12.50   23.40
  18  -8 -12    1.90   19.50
  12 -18  10   37.30   37.20
  12 -18  10   11.80   31.20
  10 -12 -18   20.40   24.90
  18 -10 -12   20.70   22.30
  12 -18 -10    8.90   30.90
  12 -18  12  -25.50   32.20
  12 -12 -18  -16.00   25.60
  12 -18 -12  -19.20   31.10
  18 -12 -12   -0.90   24.80
  12 -18  14   -4.60   34.30
  18 -14  12   28.20   30.50
  18 -14 -12  -40.10   28.80
  14 -12 -18   40.60   27.20
  12 -18 -14   -5.00   32.60
  14 -18   0  246.18   41.70
   0 -14 -18  368.76   32.60
  14 -18   0  377.96   40.80
  14 -18   2    2.90   29.00
  -2 -14 -18   23.80   22.70
  14 -18   2   57.99   37.70
   2 -14 -18   31.30   23.80
  14 -18  -2    6.50   29.80
  14 -18   4   80.39   30.90
 -14 -18  -4   44.30   36.90
  14 -18   4   42.70   38.90
   4 -14 -18  157.58   26.70
  14 -18  -4  102.99   30.40
  14 -18   6   96.09   38.80
  14 -18   6    9.30   30.10
 -14 -18  -6   52.09   34.70
   6 -14 -18   38.80   25.70
  -6 -14  18  -24.10   40.90
  14 -18  -6   25.30   30.10
  14 -18   8  -53.69   30.30
  14 -18   8  -22.40   37.40
 -14 -18  -8    7.30   32.00
  14 -18  -8  -13.60   30.90
   8 -14 -18    2.60   25.80
  18  -8 -14  -25.10   20.00
  14 -18  10  -32.60   37.30
  14 -18  10  -26.90   31.70
  10 -14 -18   14.80   27.30
  14 -18 -10   -2.20   31.20
  18 -10 -14    4.90   23.50
  14 -18  12    3.20   34.00
  18 -12 -14    7.20   26.10
  14 -18 -12  -21.50   32.70
  12 -14 -18   25.30   28.10
  14 -18  14  -73.79   34.20
  18 -14 -14   -5.90   29.20
  14 -14 -18  -16.90   28.60
  14 -18 -14  -12.20   33.80
   0 -16 -18   38.30   26.10
  16 -18   0  -17.60   31.30
  -2 -16 -18   44.60   25.80
  16 -18   2   -7.80   31.80
   2 -16 -18   70.79   27.60
  16 -18  -2   -8.70   29.00
  16 -18   4  100.19   33.30
   4 -16 -18  115.89   28.00
  16 -18  -4   68.89   31.40
  16 -18   6   56.49   32.90
 -16 -18  -6   54.09   37.20
  16 -18  -6   73.09   32.00
   6 -16 -18   72.59   27.50
  16 -18   8   51.99   32.60
  16 -18  -8   46.10   33.30
  -8 -16  18  184.38   48.00
   8 -16 -18   49.30   28.60
  16 -18  10   15.80   33.90
  10 -16 -18   11.10   28.90
  16 -18 -10   56.09   33.90
  18 -18   0   32.90   34.10
   0 -18 -18   79.59   28.60
  -2 -18 -18   29.00   26.80
  18 -18   2   23.80   32.70
  18 -18  -2   -6.80   28.40
   2 -18 -18   42.50   28.30
  -4 -18 -18   83.09   27.20
  18 -18   4   61.89   33.30
   4 -18 -18   49.00   29.10
  18 -18  -4   46.70   31.00
  18 -18   6   18.20   33.30
  18 -18  -6    1.20   31.10
   6 -18 -18    5.50   28.70
  18 -18   8  -36.90   32.80
  18 -18  -8   14.20   32.70
   8 -18 -18    9.60   29.90
  -1 -19  -1  116.39   23.10
  -1 -19  -1  108.89   27.30
   1 -19   1   85.19   23.00
  -1 -19   1  107.59   27.60
  -1 -19   1  115.19   23.20
   1 -19  -1  120.79   23.20
  -1 -19  -3   -2.70   26.90
  -1 -19  -3  -12.00   20.20
   1 -19   3   23.40   26.50
   1 -19   3   26.10   22.20
  -1 -19   3   -3.00   22.10
  -1 -19   3  -32.40   27.00
   1 -19  -3  -17.70   25.80
   1 -19  -3   10.80   21.20
  -1 -19  -5  118.89   30.40
   1 -19   5  144.09   26.40
  -1 -19  -5  153.58   24.90
   1 -19   5  149.49   30.60
   1 -19  -5  152.08   24.90
   1 -19  -5  173.98   31.90
  -1 -19   5  145.49   31.90
  -1 -19   5  164.38   27.00
   1 -19   7   81.99   28.30
  -1 -19  -7   36.30   30.40
   1 -19   7   89.19   30.40
  -1 -19  -7   81.39   23.20
   1 -19  -7   81.49   23.70
  -1 -19   7  111.79   33.00
   1 -19  -7   67.79   31.30
   1 -19   9   -0.10   30.40
  -1 -19  -9  -47.10   28.30
  -1 -19  -9  -31.00   22.10
   1 -19  -9  -67.69   29.60
  19  -9  -1  -18.80   16.00
  -1 -19   9  -31.90   31.80
   1 -19  -9  -53.29   22.60
   1 -19  11    2.80   32.70
  19 -11   1    1.30   18.20
  -1 -19 -11  -52.99   23.90
  -1 -19 -11  -48.60   29.30
  19 -11  -1  -12.80   18.50
   1 -19 -11  -11.90   31.60
   1 -19 -11  -66.99   24.60
  -1 -19  11    0.70   35.20
  -1 -19 -13   17.80   31.10
  19 -13   1   28.20   27.10
  -1 -19 -13   18.80   26.50
   1 -19  13   47.60   36.30
   1 -19 -13  -16.90   26.90
   1 -19 -13   38.10   33.60
  19 -13  -1   50.89   22.30
  -1 -19  13   43.30   39.10
   1 -19  15  -53.69   37.10
  -1 -19 -15    4.10   27.50
  19 -15   1    2.10   30.20
  19 -15  -1  -18.60   22.60
   1 -19 -15    6.20   28.80
  -1 -19  15  -38.90   40.20
  -1 -19 -17   17.60   27.30
  19 -17   1   25.80   33.00
  19 -17  -1    4.80   26.10
   1 -19 -17   26.00   28.00
  -3 -19  -1   -2.00   21.00
   3 -19   1    4.40   26.30
   3 -19   1   18.40   22.70
  -3 -19  -1   15.60   27.10
  -3 -19   1   11.60   21.10
  -3 -19   1   31.30   27.20
   3 -19  -1   -1.70   21.80
   3 -19  -1   86.49   27.60
   3 -19   3  265.17   29.00
   3 -19   3  336.47   40.00
  -3 -19  -3  250.37   26.40
  -3 -19  -3  276.97   33.60
  -3 -19   3  270.27   34.80
  -3 -19   3  236.78   28.10
   3 -19  -3  349.17   41.30
   3 -19  -3  264.17   28.00
   3 -19   5  355.46   41.70
  -3 -19  -5  353.46   44.20
  -3 -19  -5  361.46   32.40
   3 -19   5  417.96   39.40
  -3 -19   5  354.96   43.70
   3 -19  -5  325.27   35.50
  -3 -19   5  387.56   40.80
   3 -19  -5  370.96   43.20
   3 -19   7  245.88   34.70
   3 -19   7  261.37   31.90
  -3 -19  -7  240.98   34.30
  -3 -19  -7  328.37   33.20
  -3 -19   7  266.87   37.50
   3 -19  -7  190.48   35.20
   3 -19  -7  241.38   29.10
  -3 -19  -9    7.00   22.00
  -3 -19  -9  -14.30   29.30
   3 -19   9   49.00   31.90
   3 -19  -9   43.60   32.40
   3 -19  -9    1.80   24.60
  -3 -19   9   78.89   34.10
  19  -9  -3    5.00   17.80
  -3 -19 -11  -18.10   23.10
  19 -11   3  -31.00   22.90
  -3 -19 -11  -16.50   29.00
   3 -19  11    5.50   32.40
  19 -11  -3   -3.00   18.40
   3 -19 -11   -1.10   32.70
   3 -19 -11  -35.00   26.10
  -3 -19  11  -14.00   34.80
   3 -19  13   41.50   35.20
  19 -13   3   72.99   27.40
  -3 -19 -13    8.30   25.50
   3 -19 -13   33.50   27.90
   3 -19 -13   36.20   35.10
  19 -13  -3   40.30   21.90
  -3 -19  13   43.00   39.20
  19 -15   3   62.89   30.40
  -3 -19 -15   36.00   26.30
   3 -19 -15   50.39   30.20
  -3 -19  15   34.20   42.50
  19 -15  -3   38.20   25.10
  19 -17   3   32.70   32.60
  -3 -19 -17   30.30   27.10
   3 -19 -17   14.50   29.20
  19 -17  -3   10.30   27.70
   5 -19   1  111.59   29.80
   5 -19   1  122.39   25.40
  -5 -19  -1  163.88   31.20
  -5 -19  -1  135.69   23.40
   5 -19  -1  153.48   30.10
  -5 -19   1  119.59   30.40
  -5 -19   1  136.49   24.40
   5 -19  -1  104.99   24.30
   5 -19   3  367.96   38.20
   5 -19   3  345.97   42.60
  -5 -19  -3  371.16   32.70
  -5 -19  -3  386.26   43.30
  -5 -19   3  369.36   44.50
   5 -19  -3  344.27   42.70
   5 -19  -3  341.77   32.90
  -5 -19   3  396.96   37.40
   5 -19   5  -34.10   29.30
   5 -19   5  -42.60   23.80
  -5 -19  -5  -40.50   20.30
  -5 -19  -5   -2.50   29.30
  -5 -19   5  -19.70   30.50
   5 -19  -5   -4.60   29.90
  -5 -19   5  -11.30   24.60
   5 -19  -5  -19.80   23.70
  -5 -19  -7  287.57   35.30
  -5 -19  -7  392.06   31.90
   5 -19   7  309.67   38.10
   5 -19   7  266.77   33.20
   5 -19  -7  300.97   39.10
   5 -19  -7  362.56   37.10
  -5 -19   7  291.17   40.30
  19  -7  -5  212.98   22.50
   5 -19   9  -37.20   28.10
   5 -19   9    1.70   32.60
  -5 -19  -9   25.20   29.10
  -5 -19  -9   38.50   21.60
   5 -19  -9   38.40   34.40
  19  -9  -5  -21.60   17.80
  -5 -19   9   14.70   35.50
   5 -19  -9   -3.80   25.70
   5 -19  11    1.90   33.60
  -5 -19 -11  -63.19   28.00
  -5 -19 -11  -13.00   22.30
  -5 -19  11   27.80   38.10
  19 -11  -5  -28.90   19.40
   5 -19 -11   21.00   27.50
   5 -19 -11   -2.00   35.00
  19 -13   5   42.50   27.30
  -5 -19 -13  -16.40   24.30
   5 -19  13   48.30   35.10
  19 -13  -5   53.09   23.50
  -5 -19  13   24.70   40.10
   5 -19 -13   30.30   35.70
   5 -19 -13   -1.30   28.10
  19 -15   5   13.40   30.10
  -5 -19 -15  -25.10   24.60
   5 -19 -15   18.20   31.40
  -5 -19  15   19.90   43.40
  19 -15  -5   38.00   26.10
  19 -17   5   13.90   28.00
   5 -19 -17  -36.10   28.90
  -5 -19  17   13.40   46.20
  19 -17  -5   33.60   29.40
  -7 -19  -1  106.19   30.20
   7 -19   1   81.69   30.10
   7 -19   1   62.69   25.60
  -7 -19  -1   53.39   21.70
   7 -19  -1   37.30   25.20
   7 -19  -1   68.99   30.20
  -7 -19   1  107.69   32.00
  -7 -19   1   60.79   22.80
   7 -19   3  272.87   30.40
  -7 -19  -3  263.27   35.10
   7 -19   3  241.28   35.30
  -7 -19  -3  219.08   25.10
   7 -19  -3  277.97   36.30
   7 -19  -3  227.98   29.60
  -7 -19   3  264.27   28.90
  -7 -19   3  258.37   37.00
  -7 -19  -5  290.87   30.70
   7 -19   5  296.17   38.00
   7 -19   5  296.47   32.60
  -7 -19  -5  348.07   42.80
  -7 -19   5  387.36   47.20
   7 -19  -5  366.26   45.40
  19  -5  -7  314.07   27.00
   7 -19  -5  264.17   31.00
  -7 -19   5  264.97   31.70
   7 -19   7  615.84   51.69
   7 -19   7  714.23   47.50
  -7 -19  -7  654.03   52.59
   7 -19  -7  710.63   46.00
   7 -19  -7  534.05   54.19
  19  -7  -7  626.84   37.50
  -7 -19   7  596.34   57.09
  -7 -19  -9    2.80   28.70
   7 -19   9   26.40   32.80
   7 -19   9    4.40   29.60
   7 -19  -9   30.70   27.60
  19  -9  -7    8.30   19.20
  -7 -19   9   26.40   37.50
   7 -19  -9   27.10   35.40
   7 -19  11    2.20   32.50
   7 -19  11   47.70   34.40
   7 -19 -11   86.99   29.70
   7 -19 -11   43.80   37.20
  19 -11  -7   77.99   23.10
  -7 -19  11  106.99   42.10
  19 -13   7   36.00   27.40
   7 -19  13  -10.40   34.70
  19 -13  -7   10.40   23.50
   7 -19 -13    8.90   28.70
  -7 -19  13    0.90   41.80
  19 -15   7   47.00   30.50
  -7 -19  15   37.30   45.80
   7 -19 -15   20.80   32.00
  19 -15  -7   29.00   26.90
  19 -17   7    9.80   32.30
  19 -17  -7   -3.80   30.70
   7 -19 -17   -4.90   30.80
  -7 -19  17   63.69   49.50
  -9 -19  -1   -8.60   30.60
   9 -19   1  -32.20   30.60
   9 -19   1   -9.40   24.50
   9 -19  -1  -28.60   24.10
  -9 -19   1   -4.90   31.00
   9 -19  -1  -38.50   30.00
   9 -19   3   39.60   24.70
  -9 -19  -3   -3.00   29.80
   9 -19   3  -12.00   31.50
  -9 -19   3   40.80   22.80
  -9 -19   3   13.40   33.30
   9 -19  -3   10.10   25.40
   9 -19  -3   24.00   31.20
   9 -19   5    1.40   26.80
   9 -19   5  -56.09   32.60
  -9 -19  -5  -47.50   29.30
   9 -19  -5  -18.20   32.50
   9 -19  -5    0.00   26.60
  -9 -19   5   33.50   34.60
  -9 -19   5    0.50   25.50
  19  -5  -9   13.50   15.90
   9 -19   7   -6.80   28.10
  -9 -19  -7   31.90   30.80
   9 -19   7   -2.30   33.80
  -9 -19   7  -12.60   36.60
  19  -7  -9   -6.40   16.80
   9 -19  -7  -81.09   34.70
   9 -19  -7    6.10   27.80
   9 -19   9   18.10   35.20
  -9 -19  -9  -17.20   29.80
   9 -19   9   -8.50   29.80
  19  -9  -9   -8.70   19.30
  -9 -19   9  -22.60   38.70
   9 -19  -9   84.09   30.10
   9 -19  11  -15.50   31.60
   9 -19  11  -31.70   34.30
   9 -19 -11  -29.90   29.30
  -9 -19  11  -16.60   41.30
   9 -19  13  -26.90   33.30
  -9 -19  13   46.10   44.00
   9 -19 -13   -7.10   31.10
  19 -13  -9  -17.20   25.20
  19 -15   9   49.10   30.80
   9 -19 -15    2.30   32.80
  19 -15  -9    4.60   29.20
  -9 -19  15   87.39   47.90
 -11 -19  -1  -39.20   33.10
  11 -19   1   -7.70   26.20
  11 -19   1  -31.60   32.80
  11 -19  -1   -0.20   26.50
  11 -19  -1   15.70   33.40
 -11 -19   1   35.10   34.00
  11 -19   3   -1.00   26.80
 -11 -19  -3  -41.00   32.60
  11 -19   3  -70.99   33.00
  11 -19  -3  -22.40   32.90
 -11 -19   3   20.50   35.40
  11 -19  -3   -4.70   27.30
  11 -19   5   41.70   28.50
  11 -19   5  -32.90   34.10
 -11 -19  -5  -30.30   31.50
  11 -19  -5  -24.00   27.50
  11 -19  -5  -22.70   33.40
  11 -19   7   71.29   30.20
  11 -19   7   37.80   36.10
 -11 -19  -7   91.39   31.90
  11 -19  -7  -24.00   37.10
  19  -7 -11   70.89   19.30
  11 -19  -7   51.59   30.40
  11 -19   9   -2.70   30.40
 -11 -19  -9    9.80   31.00
  11 -19   9  -14.10   35.70
  19  -9 -11   -5.60   19.70
  11 -19  -9  -54.99   29.80
  11 -19  11   47.20   33.30
  11 -19  11   15.20   36.30
  11 -19 -11   41.20   31.20
  19 -11 -11   22.20   23.30
  11 -19  13  -48.70   33.50
  11 -19 -13  -14.40   32.10
  19 -13 -11  -32.90   26.00
  19 -15  11   37.20   27.20
  11 -19  15   -8.90   37.10
  19 -15 -11  -29.70   30.20
  11 -19 -15  -17.90   33.90
  13 -19   1   19.80   35.80
 -13 -19  -1   -9.80   36.40
  13 -19   1   55.19   29.70
  13 -19  -1   39.20   29.50
  13 -19  -1   17.50   35.60
 -13 -19  -3  -30.40   35.40
  13 -19   3   94.89   30.50
  13 -19   3   94.19   38.00
   3 -13 -19   46.80   24.40
  13 -19  -3   87.59   36.40
  13 -19  -3   39.70   30.30
 -13 -19  -5    2.40   34.60
  13 -19   5   32.50   29.90
  13 -19   5  -43.10   37.10
  13 -19  -5   22.40   29.50
   5 -13 -19   27.10   24.50
  13 -19   7   11.80   37.90
  13 -19   7  -12.80   30.90
 -13 -19  -7   18.40   32.60
  13 -19  -7  -49.40   30.00
   7 -13 -19   21.20   25.10
  13 -19   9    1.00   32.60
  13 -19   9   -7.00   37.20
  13 -19  -9  -39.00   31.20
   9 -13 -19   36.10   26.00
  19  -9 -13   -1.70   21.00
  13 -19  11  -47.70   32.50
  13 -19 -11    0.60   32.20
  19 -11 -13  -30.20   23.40
  11 -13 -19  -12.50   26.70
  13 -19  13    8.10   35.30
  13 -13 -19   -4.50   27.00
  19 -13 -13  -16.90   26.90
  13 -19 -13    3.50   34.00
  15 -19   1  -34.70   30.50
   1 -15 -19   38.40   25.30
  15 -19  -1  -15.60   31.60
  15 -19   3   47.60   32.20
 -15 -19  -3   75.79   39.20
  15 -19  -3   16.60   30.40
   3 -15 -19   43.30   25.80
  15 -19   5   20.20   32.20
 -15 -19  -5   12.10   37.80
  15 -19  -5   -0.70   31.50
   5 -15 -19   62.29   27.40
  15 -19   7   61.19   33.00
 -15 -19  -7   -4.90   34.60
   7 -15 -19   18.30   27.20
  15 -19  -7  -25.50   31.50
  15 -19   9   39.20   33.70
   9 -15 -19   25.20   28.60
  15 -19  -9  -13.90   32.90
  15 -19  11  -44.00   34.10
  15 -19 -11   25.80   33.80
  11 -15 -19  -21.30   27.70
  19 -11 -15  -20.40   25.20
  17 -19   1    9.90   33.40
  -1 -17 -19   39.10   26.80
  17 -19  -1   -3.40   34.30
   1 -17 -19   67.09   27.60
  17 -19   3   80.39   34.20
  17 -19  -3   19.60   31.40
   3 -17 -19   11.40   27.80
  17 -19   5   13.90   33.10
 -17 -19  -5    4.10   38.90
   5 -17 -19    3.10   28.30
  17 -19  -5    5.40   31.40
  17 -19   7    2.00   33.20
   7 -17 -19   10.20   29.40
  17 -19  -7  -25.50   33.20
   0 -20   0  345.07   35.10
   0 -20   0  323.87   41.30
   0 -20   2  -14.50   26.80
   0 -20   2  -45.00   22.30
   0 -20  -2   13.40   27.80
   0 -20  -2  -24.10   21.80
   0 -20   4  240.78   30.30
   0 -20   4  188.98   33.70
   0 -20  -4  250.27   28.00
   0 -20  -4  256.97   34.90
   0 -20   6    8.20   26.00
   0 -20  -6   -5.30   23.30
   0 -20   6   -4.70   30.30
   0 -20  -6  -46.70   30.60
   0 -20   8   -9.80   28.20
   0 -20  -8  -22.80   24.50
   0 -20   8   30.80   32.50
   0 -20  -8  -40.40   30.50
   0 -20 -10  -35.40   25.10
   0 -20 -10  -58.59   30.90
   0 -20  10   -2.70   34.00
   0 -20 -12  -47.80   26.70
   0 -20 -12   -9.20   32.60
   0 -20  12   -1.70   36.20
  20 -12   0   -5.70   19.60
  20 -14   0   18.40   22.40
   0 -20  14    1.40   38.70
   0 -20 -14  -43.30   28.60
   0 -20 -16   16.80   29.00
  20 -16   0   18.20   23.90
  -2 -20   0  -50.89   27.30
  -2 -20   0  -14.90   21.90
   2 -20   0    3.10   27.60
   2 -20   0   -6.40   23.60
   2 -20   2   39.20   24.30
   2 -20   2   43.60   28.10
  -2 -20  -2   61.69   28.90
  -2 -20  -2   41.60   23.00
  -2 -20   2   28.60   23.20
   2 -20  -2   42.50   23.90
   2 -20  -2   66.39   29.60
  -2 -20   2   17.50   29.20
  -2 -20  -4   36.40   23.10
   2 -20   4   16.60   25.60
   2 -20   4  -17.30   29.10
  -2 -20  -4    4.70   29.80
   2 -20  -4   12.60   29.60
  -2 -20   4   27.00   30.90
   2 -20  -4    2.90   23.80
  -2 -20   4   13.70   24.70
  -2 -20  -6  304.87   32.00
   2 -20   6  230.58   35.50
   2 -20   6  228.08   31.80
  -2 -20  -6  236.18   34.50
   2 -20  -6  194.08   34.90
  -2 -20   6  180.88   36.90
  -2 -20   6  230.68   31.90
   2 -20  -6  251.87   29.50
   2 -20   8  -53.79   28.80
   2 -20   8    0.30   31.60
  -2 -20  -8  -79.19   30.80
  -2 -20  -8  -14.70   23.30
  -2 -20   8  -16.10   33.30
   2 -20  -8  -54.09   31.00
   2 -20  -8   -7.60   25.20
  -2 -20 -10   38.60   25.80
  -2 -20 -10   -0.10   31.60
   2 -20  10   71.59   35.10
   2 -20 -10   21.20   33.50
   2 -20 -10   -7.80   26.20
  -2 -20  10   37.60   36.40
  -2 -20 -12  -38.70   25.50
  -2 -20 -12  -33.80   30.60
  20 -12  -2    6.60   19.50
  -2 -20  12   14.00   38.90
   2 -20 -12  -27.70   33.50
   2 -20 -12  -14.00   27.50
  20 -14   2  -21.20   28.40
  -2 -20 -14  -52.79   27.20
   2 -20  14  -36.40   37.00
  -2 -20  14  -22.90   41.40
  20 -14  -2   31.20   23.00
   2 -20 -14  -36.30   29.50
  -2 -20 -16   35.70   27.90
  20 -16   2   13.80   32.50
  20 -16  -2    3.80   25.50
   2 -20 -16   66.89   31.20
  -2 -20  16  -46.80   42.30
   4 -20   0  198.18   33.00
   4 -20   0  215.38   29.10
  -4 -20   0  262.17   28.20
  -4 -20   0  254.97   35.10
   4 -20   2   34.60   29.80
   4 -20   2   12.40   25.40
  -4 -20  -2    4.80   29.70
  -4 -20  -2   30.50   23.00
  -4 -20   2   -0.60   30.20
   4 -20  -2   -6.10   24.20
  -4 -20   2   11.00   23.80
   4 -20  -2    9.20   28.60
   4 -20   4  152.68   33.40
   4 -20   4  106.49   28.20
  -4 -20  -4  122.79   32.10
  -4 -20  -4  122.59   24.20
   4 -20  -4  158.38   33.00
  -4 -20   4  127.59   28.00
  -4 -20   4  132.69   33.80
   4 -20  -4  128.09   26.80
   4 -20   6   84.49   29.10
  -4 -20  -6   46.50   31.60
  -4 -20  -6  104.29   23.90
   4 -20   6   69.69   32.30
   4 -20  -6   66.49   26.80
   4 -20  -6   61.99   33.20
  -4 -20   6   76.59   29.50
  -4 -20   6   19.30   34.40
   4 -20   8  -65.49   29.40
  -4 -20  -8   11.80   23.00
  -4 -20  -8  -17.40   30.50
   4 -20   8   27.60   32.60
   4 -20  -8   16.60   26.80
  -4 -20   8   34.80   35.70
   4 -20  -8   10.40   33.50
   4 -20  10   71.39   35.50
   4 -20  10  -28.60   32.70
  -4 -20 -10  -26.30   31.40
  -4 -20 -10   19.60   24.40
   4 -20 -10  -28.90   34.10
   4 -20 -10  -18.10   27.20
  -4 -20  10  -21.30   36.40
  20 -10  -4  -34.70   18.50
  -4 -20 -12  -20.40   25.00
   4 -20  12   18.90   35.90
   4 -20 -12   19.60   36.10
  -4 -20  12   28.50   39.50
   4 -20 -12   -5.80   28.60
  20 -12  -4    0.80   20.80
   4 -20  14    4.10   37.30
  -4 -20 -14  -27.80   26.20
  20 -14   4  -29.60   28.50
  20 -14  -4  -10.00   22.80
  -4 -20  14   -9.20   42.00
   4 -20 -14   20.10   30.10
   4 -20 -14  107.49   38.00
  -4 -20 -16  -13.40   26.30
  20 -16   4   18.80   27.20
   4 -20 -16    8.90   31.50
  -4 -20  16  -19.00   44.70
  20 -16  -4   35.00   26.60
  -6 -20   0   27.40   30.20
  -6 -20   0  -41.80   22.10
   6 -20   0  -46.50   24.20
   6 -20   0  -45.70   28.40
   6 -20   2  227.28   30.30
  -6 -20  -2  248.78   35.00
   6 -20   2  193.58   33.80
  -6 -20  -2  179.88   26.10
   6 -20  -2  179.48   34.50
   6 -20  -2  175.48   29.20
  -6 -20   2  211.18   35.20
  -6 -20   2  193.88   28.20
   6 -20   4   86.39   32.30
  -6 -20  -4   23.20   23.30
   6 -20   4   35.70   27.30
  -6 -20  -4  122.09   33.60
   6 -20  -4   70.99   33.30
  -6 -20   4  102.99   28.00
  -6 -20   4   81.69   34.10
   6 -20  -4   43.70   27.50
   6 -20   6  923.11   60.39
   6 -20   6  981.40   54.19
   6 -20  -6  991.50   53.49
  -6 -20   6  899.51   64.09
   6 -20  -6  900.11   63.49
  -6 -20   6  964.40   56.79
   6 -20   8   66.49   30.70
  -6 -20  -8   60.39   31.40
   6 -20   8   47.60   33.60
  -6 -20  -8   49.00   22.90
   6 -20  -8   43.30   28.50
   6 -20  -8   92.49   36.80
  20  -8  -6   24.80   18.60
  -6 -20   8   50.59   38.30
  -6 -20 -10  107.49   32.50
  -6 -20 -10  140.69   25.70
   6 -20  10   95.29   34.80
   6 -20  10  185.18   36.60
  -6 -20  10  137.39   42.60
   6 -20 -10  133.69   31.00
  20 -10  -6   96.49   22.00
   6 -20 -10  141.29   39.70
   6 -20  12  -28.50   34.20
  20 -12  -6  -24.00   20.60
   6 -20 -12  -72.19   28.70
   6 -20 -12   -7.10   36.90
  -6 -20  12  -41.40   40.00
   6 -20 -14  -11.10   31.30
  20 -14  -6   18.60   24.50
  -6 -20  14  -27.80   42.70
  20 -16   6   12.30   27.20
   6 -20 -16  -52.29   31.50
  20 -16  -6   18.70   28.30
  -6 -20  16    7.00   46.80
  -8 -20   0   13.60   21.60
   8 -20   0   -9.90   31.40
  -8 -20   0    2.30   31.90
   8 -20   0   -7.90   25.60
   8 -20   2  -36.70   31.80
  -8 -20  -2  -36.90   30.30
   8 -20   2  -16.50   24.20
   8 -20  -2   -3.20   31.50
  -8 -20   2  -10.40   23.10
  -8 -20   2   -3.30   33.00
   8 -20  -2  -24.50   25.20
   8 -20   4  -79.19   32.00
   8 -20   4   21.60   27.40
  -8 -20   4   -7.20   34.50
  -8 -20   4   -2.00   26.20
   8 -20  -4   24.40   33.40
   8 -20  -4   23.50   27.20
  -8 -20  -6   49.70   33.20
   8 -20   6   56.69   30.20
   8 -20   6   38.60   34.50
  -8 -20   6   81.79   38.40
   8 -20  -6   22.70   35.10
  -8 -20   6   63.09   29.90
   8 -20  -6   18.90   28.50
   8 -20   8  -42.80   30.10
  -8 -20  -8   29.10   31.20
   8 -20   8   -2.90   35.30
  -8 -20   8  -23.50   39.10
  20  -8  -8    3.20   18.40
   8 -20  -8   23.50   38.20
   8 -20  -8   -3.00   29.40
   8 -20  10    8.80   35.90
   8 -20  10   -2.30   31.90
  -8 -20 -10    7.70   31.10
  -8 -20  10    7.10   40.70
   8 -20 -10   -7.40   29.70
   8 -20 -10  -61.99   37.30
  20 -10  -8   19.70   20.70
   8 -20  12  -27.30   33.80
   8 -20  12   15.30   36.50
   8 -20 -12   -3.20   30.50
  20 -12  -8    6.00   23.40
  -8 -20  12    9.30   43.90
   8 -20 -12  -31.00   38.70
  20 -14  -8   -2.90   26.40
   8 -20 -14  -10.80   32.10
  -8 -20  14   -0.80   46.10
 -10 -20   0  -26.20   33.50
  10 -20   0  -46.60   31.90
  10 -20   0  -35.70   26.40
  10 -20   2   56.79   35.40
 -10 -20  -2   24.60   34.20
  10 -20   2   52.39   27.70
  10 -20  -2   50.59   28.50
 -10 -20   2   19.30   35.40
  10 -20  -2   57.69   34.00
  10 -20   4  -11.70   28.00
  10 -20   4  -61.39   34.40
 -10 -20  -4  -45.00   31.70
  10 -20  -4  -59.69   28.10
  10 -20  -4    3.10   34.80
 -10 -20   4  -18.30   36.20
  10 -20   6   56.89   37.40
  10 -20   6  125.99   31.30
 -10 -20  -6  144.89   35.10
  20  -6 -10  122.79   19.30
  10 -20  -6   88.89   31.00
 -10 -20   6  119.59   41.00
  10 -20  -6   59.49   38.00
  10 -20   8   -2.40   35.80
  10 -20   8   -4.60   29.70
  10 -20  -8    0.90   30.10
  20  -8 -10  -12.10   18.30
  10 -20  -8  -57.59   37.80
 -10 -20   8  -27.60   39.70
  10 -20  10   25.00   32.80
  10 -20  10  -18.00   36.40
  10 -20 -10  -19.10   31.00
 -10 -20  10  -11.10   42.00
  20 -10 -10   -6.30   20.30
  10 -20  12    1.10   34.30
  20 -12 -10  -26.20   23.20
 -10 -20  12    4.80   44.80
  10 -20 -12  -23.40   31.30
  10 -20  14    2.00   37.00
  20 -14 -10   13.40   28.20
  10 -20 -14   -3.40   34.00
 -12 -20   0  -27.90   35.70
  12 -20   0  -44.30   34.10
  12 -20   0   -5.00   28.40
 -12 -20  -2  -27.20   35.40
  12 -20   2   11.10   28.90
  12 -20   2    5.60   37.20
  12 -20  -2   -5.30   28.90
  12 -20  -2   15.70   34.80
 -12 -20   2   21.50   37.30
 -12 -20  -4  -52.39   34.00
  12 -20   4   43.30   29.70
  12 -20   4  -21.20   37.30
  12 -20  -4   22.80   29.70
  12 -20  -4  -22.30   35.60
 -12 -20   4   -0.90   38.40
 -12 -20  -6  -64.79   32.40
  12 -20   6   29.00   37.60
  12 -20   6    1.30   30.70
  12 -20  -6  -53.99   36.90
  12 -20  -6  -20.80   29.70
 -12 -20   6  -90.99   39.50
 -12 -20  -8  -27.90   32.60
  12 -20   8   39.30   32.20
  12 -20   8    0.70   38.00
  12 -20  -8  -29.70   31.10
  20  -8 -12   14.60   19.50
  12 -20  10  -17.90   38.30
  12 -20  10  -34.10   32.50
  12 -20 -10  -45.00   32.20
  20 -10 -12  -19.80   21.30
  12 -20  12   -7.60   35.40
  20 -12 -12  -24.60   24.10
  12 -20 -12  -50.59   31.90
  14 -20   0   -1.60   37.20
 -14 -20   0    5.50   38.60
  14 -20   0  -35.90   31.00
  14 -20   2   -1.30   38.00
 -14 -20  -2   -5.90   38.40
  14 -20   2  -10.50   31.10
  14 -20  -2  -20.60   31.20
  14 -20   4   -9.30   31.10
 -14 -20  -4  -43.00   36.70
  14 -20   4  -44.10   38.40
  14 -20  -4  -22.90   30.50
   4 -14 -20   33.40   25.80
  14 -20   6   27.70   40.70
 -14 -20  -6    9.20   35.20
  14 -20   6    4.60   32.20
  14 -20  -6   -2.20   31.60
   6 -14 -20   33.10   26.20
  14 -20   8   42.20   40.70
  14 -20   8   -2.90   33.10
   8 -14 -20   21.40   26.80
  14 -20  -8  -19.10   32.60
  14 -20  10   18.90   34.20
  20 -10 -14   12.20   23.30
  14 -20 -10   42.70   34.10
  10 -14 -20   11.30   27.70
  16 -20   0   -6.20   33.30
 -16 -20  -2   10.50   40.50
  16 -20   2   -0.10   33.60
   2 -16 -20   35.00   26.80
  16 -20  -2  -17.10   30.80
  16 -20   4   25.70   32.70
 -16 -20  -4    1.20   39.90
  16 -20  -4   -6.40   32.40
   4 -16 -20   25.30   27.50
  16 -20   6   -6.60   33.40
 -16 -20  -6  -13.60   37.70
   6 -16 -20   11.90   27.90
  16 -20  -6   -1.80   32.80
  16 -20  -8    1.10   34.70
   1 -21   1   50.29   29.90
   1 -21   1   16.80   25.20
  -1 -21  -1   86.79   25.10
   1 -21  -1   34.80   29.70
  -1 -21   1    7.50   29.60
  -1 -21   1    3.30   24.80
   1 -21  -1   18.50   25.00
  -1 -21  -3   77.79   31.60
  -1 -21  -3   76.89   25.00
   1 -21   3  221.38   35.90
   1 -21   3  182.78   29.60
   1 -21  -3   75.19   25.60
   1 -21  -3   98.59   32.20
  -1 -21   3   58.69   27.10
  -1 -21   3   21.00   31.00
  -1 -21  -5  -32.20   30.80
   1 -21   5  -12.00   31.60
  -1 -21  -5    8.00   24.90
   1 -21   5  -34.10   26.70
   1 -21  -5   -7.20   31.40
   1 -21  -5    9.50   24.90
  -1 -21   5   -4.50   27.10
  -1 -21   5   -4.20   32.30
   1 -21   7   -6.00   32.90
  -1 -21  -7    9.40   25.10
  -1 -21  -7  -54.69   32.50
   1 -21   7    6.20   28.60
  -1 -21   7    9.60   29.20
  -1 -21   7    5.20   33.80
   1 -21  -7   -9.00   25.30
   1 -21  -7  -29.70   32.40
  -1 -21  -9   -7.20   25.40
  -1 -21  -9  -42.00   32.70
   1 -21   9   -4.50   32.30
   1 -21   9   25.10   34.80
   1 -21  -9  -27.80   33.10
   1 -21  -9  -30.10   26.60
  -1 -21   9  -25.40   35.70
  -1 -21   9  -24.60   31.70
  -1 -21 -11  -75.69   26.30
   1 -21  11   -5.20   36.10
  -1 -21 -11  -41.40   32.00
   1 -21 -11  -17.60   28.40
  -1 -21  11   18.80   38.20
   1 -21 -11  -63.79   33.50
   1 -21  13  -21.50   38.50
  -1 -21 -13  -56.39   28.40
   1 -21 -13  -19.20   34.90
  -1 -21  13  -20.10   39.60
   1 -21 -13  -34.20   29.30
  21 -13  -1    3.30   20.50
  21 -15   1   13.50   21.90
  -1 -21 -15  -23.50   29.50
   1 -21  15    3.50   40.30
   1 -21 -15  -20.30   30.60
  -1 -21  15   11.20   41.50
  21 -15  -1    4.40   23.40
  -3 -21  -1   62.39   25.20
  -3 -21  -1   83.39   31.00
   3 -21   1   40.50   30.90
   3 -21   1   40.20   26.10
   3 -21  -1   40.90   26.20
  -3 -21   1   92.99   25.90
  -3 -21   1   93.59   32.50
   3 -21  -1   79.39   30.90
  -3 -21  -3  -52.59   23.30
   3 -21   3  -48.10   25.90
  -3 -21  -3   -8.60   29.70
   3 -21   3  -66.79   29.60
  -3 -21   3   -5.20   26.10
   3 -21  -3  -35.90   24.50
   3 -21  -3    1.90   30.50
  -3 -21   3  -38.40   31.50
   3 -21   5  171.18   35.60
   3 -21   5  179.28   31.60
  -3 -21  -5  206.68   36.10
  -3 -21  -5  219.18   28.20
  -3 -21   5  230.68   32.70
   3 -21  -5  171.08   35.40
  -3 -21   5  195.58   38.80
   3 -21  -5  168.28   29.60
  -3 -21  -7   11.20   25.40
   3 -21   7   37.70   33.50
   3 -21   7  -11.40   30.60
  -3 -21  -7  -61.59   31.30
   3 -21  -7  -37.30   32.50
  -3 -21   7    9.00   35.70
   3 -21  -7  -15.60   26.70
  -3 -21   7   -8.80   30.10
  -3 -21  -9   56.79   26.40
   3 -21   9   16.80   32.80
   3 -21   9   29.40   34.60
  -3 -21  -9    4.70   33.60
  -3 -21   9  127.39   40.30
   3 -21  -9   31.40   36.00
   3 -21  -9   52.89   28.90
   3 -21  11   36.50   36.30
  -3 -21 -11  -28.80   25.80
  -3 -21 -11  -11.30   32.00
  -3 -21  11  -14.20   39.50
   3 -21 -11    5.90   28.90
   3 -21 -11  -18.50   35.50
  -3 -21 -13  -45.90   27.10
   3 -21  13  -52.79   37.00
   3 -21 -13  -45.70   29.60
   3 -21 -13  -23.70   36.50
  -3 -21  13  -71.89   41.00
  21 -13  -3    5.90   21.90
  -3 -21 -15  -48.90   27.70
  -3 -21  15  -32.60   44.80
  21 -15  -3   36.00   24.10
   3 -21 -15  -20.40   31.70
   5 -21   1  -37.20   29.50
  -5 -21  -1   -7.30   31.40
   5 -21   1  -36.90   26.60
  -5 -21  -1  -33.30   24.00
   5 -21  -1  -67.89   25.70
  -5 -21   1   -1.50   24.50
  -5 -21   1    6.20   31.60
   5 -21  -1  -21.30   29.60
   5 -21   3  197.68   31.60
   5 -21   3  188.98   35.40
  -5 -21  -3  170.18   27.50
  -5 -21  -3  205.78   35.30
  -5 -21   3  136.99   36.00
   5 -21  -3  138.39   30.10
   5 -21  -3  214.48   35.90
  -5 -21   3  209.48   30.30
  -5 -21  -5  455.15   48.30
   5 -21   5  463.05   44.40
  -5 -21  -5  367.66   36.10
   5 -21   5  417.56   48.90
   5 -21  -5  261.17   33.90
  -5 -21   5  300.87   36.10
  -5 -21   5  338.37   43.20
   5 -21  -5  272.97   41.00
  -5 -21  -7   83.19   35.00
   5 -21   7  152.08   36.40
   5 -21   7   81.79   32.50
  -5 -21  -7  115.89   26.90
   5 -21  -7   89.09   29.80
  -5 -21   7   92.79   34.10
   5 -21  -7  122.69   37.80
  -5 -21   7   86.69   39.00
  -5 -21  -9  197.08   28.30
  -5 -21  -9  186.48   35.30
   5 -21   9  176.08   36.10
   5 -21   9  231.58   39.40
   5 -21  -9  160.88   40.20
   5 -21  -9  135.09   31.80
  -5 -21   9  193.38   42.70
  -5 -21 -11   -8.20   25.70
   5 -21  11  -10.70   34.60
   5 -21  11   40.80   36.00
  -5 -21 -11    0.90   32.10
   5 -21 -11  -19.20   36.80
  21 -11  -5  -10.30   19.50
  -5 -21  11   -8.80   40.20
   5 -21 -11  -30.60   30.50
  -5 -21 -13  -10.80   26.90
   5 -21  13   20.90   36.40
  21 -13  -5  -10.10   22.00
  -5 -21  13  -21.00   41.90
   5 -21 -13  -40.50   37.30
   5 -21 -13  -43.60   29.90
  21 -15  -5  -11.40   24.70
   5 -21 -15    2.90   33.20
  -7 -21  -1   12.20   32.30
  -7 -21  -1    2.00   23.90
   7 -21   1  -13.50   26.60
   7 -21   1   44.30   32.30
  -7 -21   1   22.00   33.10
  -7 -21   1   -0.30   25.00
   7 -21  -1   -5.80   31.90
   7 -21  -1    9.10   27.20
  -7 -21  -3    7.30   33.50
  -7 -21  -3  -48.70   22.90
   7 -21   3  -36.70   31.60
   7 -21   3   -8.20   27.40
   7 -21  -3    8.60   33.20
  -7 -21   3   16.70   26.70
   7 -21  -3  -35.40   27.20
  -7 -21   3  -24.40   33.90
  -7 -21  -5  112.29   35.80
   7 -21   5  119.59   36.70
   7 -21   5  111.59   31.50
  -7 -21   5   84.59   31.30
   7 -21  -5  188.38   32.80
  -7 -21   5  119.19   40.10
   7 -21  -5  251.07   39.50
   7 -21   7   11.20   36.10
   7 -21   7   28.30   32.10
  -7 -21  -7   46.80   33.10
   7 -21  -7   52.89   30.40
  -7 -21   7  147.59   35.20
   7 -21  -7   10.90   36.40
   7 -21   9  -32.70   32.50
   7 -21   9  -20.30   35.40
  -7 -21  -9   30.60   33.30
   7 -21  -9   -2.90   30.10
  -7 -21   9   25.00   41.50
   7 -21  -9    2.70   38.90
   7 -21  11  -51.19   34.40
   7 -21  11   -8.30   36.80
   7 -21 -11   -2.80   38.40
  -7 -21  11  -34.20   42.30
  21 -11  -7   11.20   21.60
   7 -21 -11    0.10   31.20
   7 -21  13  -14.40   36.60
   7 -21 -13   20.50   40.30
  21 -13  -7  -11.80   23.60
   7 -21 -13   16.80   31.60
  -7 -21  13  -15.20   44.60
  21 -15  -7  -26.00   25.80
   7 -21 -15  -55.29   32.50
  -9 -21  -1  -13.90   32.40
   9 -21   1  -21.10   33.10
   9 -21   1  -24.70   27.60
   9 -21  -1  -12.30   32.70
   9 -21  -1  -44.00   27.60
  -9 -21   1  -25.10   34.70
  -9 -21  -3    8.10   34.70
   9 -21   3   43.70   28.90
   9 -21   3   -6.80   34.80
   9 -21  -3  -38.40   28.60
   9 -21  -3   32.30   35.00
  -9 -21   3   91.49   38.10
   9 -21   5  224.98   33.60
  -9 -21  -5  207.28   38.40
   9 -21   5  101.79   38.70
   9 -21  -5  124.99   38.90
   9 -21  -5  138.69   32.50
  -9 -21   5  191.98   33.40
  -9 -21   5  134.79   42.20
   9 -21   7    4.50   36.70
   9 -21   7    1.30   31.30
   9 -21  -7  -18.80   38.30
   9 -21  -7    5.30   30.90
  -9 -21   7  -31.00   32.60
  -9 -21   7  -25.50   39.90
  -9 -21  -9   19.30   31.90
   9 -21   9   10.90   33.10
   9 -21   9   44.30   38.50
   9 -21  -9   56.39   31.80
  21  -9  -9   39.60   19.70
   9 -21  -9   -3.70   39.60
  -9 -21   9   -6.10   42.90
   9 -21  11   14.20   34.20
   9 -21  11   28.90   38.70
   9 -21 -11   27.60   32.70
  21 -11  -9  -19.20   21.20
  -9 -21  11   37.90   44.40
   9 -21 -11   15.40   41.00
   9 -21  13  -11.40   36.50
  21 -13  -9   22.10   25.20
   9 -21 -13    0.60   32.60
  11 -21   1  -49.80   28.10
 -11 -21  -1  -46.80   35.00
  11 -21   1  -70.39   34.10
  11 -21  -1  -39.00   34.20
  11 -21  -1   -8.40   28.80
 -11 -21   1  -16.90   36.00
  11 -21   3   -0.20   29.20
  11 -21   3  -30.10   35.50
 -11 -21  -3  -43.60   33.60
  11 -21  -3  -42.50   29.30
 -11 -21   3   -3.20   38.30
  11 -21  -3  -21.80   35.20
  11 -21   5  -47.50   36.00
  11 -21   5  -40.20   29.10
 -11 -21  -5  -39.80   34.40
  11 -21  -5   -2.70   30.40
  11 -21  -5  -36.00   35.90
 -11 -21   5  -28.20   39.10
  11 -21   7  -28.50   37.50
 -11 -21  -7  -27.80   34.60
  11 -21   7   32.50   32.60
 -11 -21   7  -29.90   41.20
  11 -21  -7   -5.40   31.40
  11 -21  -7  -11.00   39.10
  21  -7 -11   41.80   18.00
  11 -21   9   16.30   33.20
  11 -21   9   -7.10   37.80
  11 -21  -9   -7.90   32.70
  21  -9 -11    9.90   20.30
  11 -21  11  -17.60   38.40
  11 -21  11    6.00   34.80
  11 -21 -11   -9.60   33.10
  21 -11 -11   -4.50   22.10
  13 -21   1   -1.80   31.30
  13 -21   1  -44.40   36.10
 -13 -21  -1  -26.50   37.60
  13 -21  -1  -32.80   35.30
  13 -21  -1  -22.80   30.50
 -13 -21   1   -5.00   38.90
  13 -21   3  -22.20   30.70
  13 -21   3  -73.99   37.50
 -13 -21  -3  -58.59   36.50
  13 -21  -3  -23.80   37.00
 -13 -21   3   41.50   39.90
  13 -21  -3  -27.20   31.40
  13 -21   5  -37.90   39.00
 -13 -21  -5  -52.29   34.60
  13 -21   5    0.60   31.40
  13 -21  -5  -49.70   30.90
  13 -21   7   24.50   33.20
  13 -21   7   13.00   40.10
 -13 -21  -7  -24.60   34.40
  13 -21  -7  -26.90   32.00
  13 -21   9   -8.70   33.90
  13 -21   9   -8.90   40.30
  21  -9 -13   18.40   20.90
  13 -21  -9   21.00   34.20
  15 -21   1  -26.90   32.60
  15 -21  -1  -11.50   33.50
  15 -21   3   -8.80   33.10
  15 -21  -3  -18.10   31.80
 -15 -21  -5  -47.20   38.00
  15 -21   5   10.20   33.30
  15 -21  -5   19.40   34.20
  15 -21   7   -5.70   33.90
  15 -21  -7  -17.70   33.30
   0 -22   0  -12.80   30.40
   0 -22   0   -1.00   25.90
   0 -22  -2  -17.80   25.40
   0 -22   2  -54.19   31.20
   0 -22  -2  -13.50   31.30
   0 -22   2    6.40   27.10
   0 -22   4   -2.30   28.20
   0 -22   4  -43.10   32.40
   0 -22  -4  -16.60   25.50
   0 -22  -4  -14.90   32.00
   0 -22  -6   11.10   26.60
   0 -22   6    0.60   30.00
   0 -22   6  -45.40   33.10
   0 -22  -6  -26.30   33.10
   0 -22  -8  -53.89   33.50
   0 -22  -8  -19.10   27.60
   0 -22   8  -12.60   31.60
   0 -22   8  -21.70   34.70
   0 -22 -10  -79.69   33.10
   0 -22  10  -11.70   36.70
   0 -22  10  -54.29   34.30
   0 -22 -10  -25.70   28.20
   0 -22  12   12.20   39.30
   0 -22 -12  -19.10   29.60
   0 -22 -12  -50.89   34.90
   0 -22  14  -37.50   41.20
   0 -22 -14  -35.20   30.70
   2 -22   0  -24.10   30.60
  -2 -22   0  -20.10   26.30
  -2 -22   0  -23.60   30.30
   2 -22   0  -25.40   27.00
   2 -22   2   74.89   33.20
  -2 -22  -2  134.79   34.30
   2 -22   2   98.09   29.40
  -2 -22  -2  124.59   28.30
  -2 -22   2   79.09   33.70
  -2 -22   2  142.39   30.20
   2 -22  -2  165.58   34.50
   2 -22   4  -52.09   31.10
   2 -22   4  -19.40   28.10
  -2 -22  -4    4.60   25.80
  -2 -22  -4   18.40   32.70
  -2 -22   4  -78.89   32.30
   2 -22  -4   -8.90   32.40
   2 -22  -4  -19.40   26.50
  -2 -22   4   -1.50   28.20
  -2 -22  -6  -12.50   34.00
   2 -22   6   -0.90   30.30
  -2 -22  -6   41.50   26.70
   2 -22   6   34.60   34.10
  -2 -22   6  -47.80   34.90
   2 -22  -6   23.90   34.00
  -2 -22   6   72.19   31.20
   2 -22  -6   50.79   28.30
   2 -22   8  -24.80   31.90
  -2 -22  -8  -11.30   27.10
  -2 -22  -8  -76.19   34.00
   2 -22   8  -10.30   34.80
  -2 -22   8   -8.00   37.90
   2 -22  -8  -38.10   34.60
  -2 -22   8   17.90   33.00
   2 -22  -8    3.80   28.20
  -2 -22 -10  -26.30   27.90
   2 -22  10  -11.10   36.30
  -2 -22 -10  -28.00   33.60
   2 -22  10  -61.39   34.60
  -2 -22  10  -22.60   34.70
  -2 -22  10  -13.00   38.50
   2 -22 -10  -16.50   29.30
   2 -22 -10  -57.99   34.90
  -2 -22 -12  -22.50   28.40
   2 -22  12   -7.90   38.00
   2 -22 -12   -1.10   36.70
  -2 -22  12  -20.80   41.00
   2 -22 -12    6.30   30.40
  -2 -22 -14  -47.40   29.60
   2 -22  14   27.50   41.00
   2 -22 -14  -60.29   31.10
  -2 -22  14   14.70   43.10
  -4 -22   0  -11.40   25.90
   4 -22   0  -88.29   26.10
  -4 -22   0   10.60   32.50
   4 -22   0   -6.40   30.40
   4 -22   2    8.80   32.10
   4 -22   2  -26.10   27.90
  -4 -22  -2  -23.50   30.60
  -4 -22  -2  -41.90   26.00
   4 -22  -2  -54.99   27.80
  -4 -22   2   -6.90   27.00
  -4 -22   2  -27.00   33.20
   4 -22  -2   -6.80   31.70
  -4 -22  -4  383.16   46.10
   4 -22   4  372.96   47.10
  -4 -22  -4  401.76   38.20
   4 -22   4  259.17   35.10
  -4 -22   4  389.76   41.10
  -4 -22   4  253.27   42.30
   4 -22  -4  265.07   33.70
   4 -22  -4  297.97   40.20
  -4 -22  -6  -11.00   26.10
   4 -22   6   21.90   35.10
   4 -22   6    2.70   31.50
  -4 -22  -6  -14.40   34.10
   4 -22  -6   10.90   28.90
  -4 -22   6   10.70   38.00
   4 -22  -6   21.10   35.30
  -4 -22   6   34.20   32.30
  -4 -22  -8  174.88   38.30
   4 -22   8  217.78   37.20
  -4 -22  -8  248.38   30.80
   4 -22   8  253.87   40.90
  -4 -22   8  281.37   39.50
   4 -22  -8  226.88   33.90
   4 -22  -8  227.78   41.40
  -4 -22   8  257.37   44.00
  -4 -22 -10  -23.30   33.20
  -4 -22 -10    3.40   27.20
   4 -22  10   29.10   37.40
   4 -22  10   -5.80   35.20
  -4 -22  10  -20.40   40.80
   4 -22 -10   13.80   30.20
   4 -22 -10   19.70   37.90
   4 -22  12  -28.70   36.70
   4 -22  12   38.20   38.90
  -4 -22 -12  -10.30   28.00
  -4 -22  12    1.90   42.90
   4 -22 -12  -18.10   30.70
   4 -22 -12   -7.50   39.00
  -4 -22 -14  -22.20   28.70
   4 -22 -14  -31.40   32.10
  22 -14  -4   -6.90   22.60
   6 -22   0  -14.20   32.00
  -6 -22   0   -5.10   33.60
  -6 -22   0  -49.50   25.50
   6 -22   0  -15.60   28.00
  -6 -22  -2   63.39   34.50
   6 -22   2   61.29   33.60
  -6 -22  -2  -56.69   25.00
   6 -22   2   30.70   29.40
   6 -22  -2   13.10   28.70
  -6 -22   2   63.39   35.80
   6 -22  -2   31.70   33.30
  -6 -22   2   42.50   28.60
  -6 -22  -4  -35.40   25.60
   6 -22   4   41.80   30.30
   6 -22   4   -9.10   34.50
  -6 -22  -4    1.40   34.10
   6 -22  -4  -23.00   29.10
  -6 -22   4  -65.99   36.20
   6 -22  -4   14.60   34.90
  -6 -22   4   28.00   30.40
  -6 -22  -6   91.09   35.10
  -6 -22  -6   40.80   27.20
   6 -22   6   23.20   32.00
   6 -22   6   32.00   35.60
  -6 -22   6   -6.60   38.60
  -6 -22   6   46.00   33.60
   6 -22  -6   62.49   30.30
   6 -22  -6   42.40   37.10
   6 -22   8   29.50   36.40
  -6 -22  -8   37.50   34.70
   6 -22   8  -11.00   33.20
   6 -22  -8   33.90   32.00
  -6 -22   8  -21.10   35.20
  -6 -22   8   22.80   40.50
   6 -22  -8   35.60   38.30
   6 -22  10   58.79   37.70
   6 -22  10   -8.60   35.10
  -6 -22 -10   -0.40   33.70
   6 -22 -10   38.20   32.30
   6 -22 -10    3.00   39.20
  -6 -22  10    1.40   41.70
   6 -22  12  -26.10   38.00
   6 -22  12  -24.60   36.60
   6 -22 -12  -12.70   31.60
   6 -22 -12  -25.50   39.30
  22 -14  -6   -4.40   24.80
   6 -22 -14  -48.90   33.10
  -8 -22   0    1.80   34.50
   8 -22   0  -13.70   33.80
   8 -22   0  -49.00   28.10
   8 -22   2    3.00   34.50
  -8 -22  -2  -10.00   34.90
   8 -22   2  -10.70   29.40
   8 -22  -2  -29.50   29.10
  -8 -22   2   44.60   36.60
   8 -22  -2   19.10   34.00
  -8 -22   2   -3.10   27.30
   8 -22   4  179.58   39.90
   8 -22   4  249.58   35.10
  -8 -22  -4  240.98   40.50
   8 -22  -4  201.08   34.00
  -8 -22   4  261.67   34.90
  -8 -22   4  233.38   43.00
   8 -22  -4  210.88   40.30
   8 -22   6   36.60   32.50
  -8 -22  -6   26.30   35.10
   8 -22   6    7.90   36.80
   8 -22  -6  -21.90   31.10
  -8 -22   6    8.20   40.70
   8 -22  -6  -12.40   36.90
  -8 -22   6   21.80   33.40
   8 -22   8  131.49   40.10
  -8 -22  -8  106.89   35.30
   8 -22   8   43.10   33.70
   8 -22  -8  104.09   33.50
  -8 -22   8   97.89   44.20
   8 -22  -8   53.49   40.70
  -8 -22   8   55.29   37.20
   8 -22  10   -7.20   34.70
   8 -22  10   -1.50   37.90
   8 -22 -10   -6.40   32.20
   8 -22 -10   20.00   40.00
   8 -22  12  -39.20   35.50
   8 -22  12    2.50   39.10
  22 -12  -8   21.10   23.00
   8 -22 -12    9.90   32.80
  10 -22   0  -49.80   33.30
  10 -22   0  -22.70   29.40
 -10 -22   0  -31.70   35.80
 -10 -22  -2  -35.50   34.90
  10 -22   2  -64.09   34.40
  10 -22   2   -4.90   29.90
  10 -22  -2   -5.10   34.20
  10 -22  -2  -40.00   29.10
 -10 -22   2    8.10   37.70
  10 -22   4   44.90   31.30
 -10 -22  -4  -44.90   34.60
  10 -22   4  -63.39   35.80
 -10 -22   4    8.60   39.40
  10 -22  -4    6.60   36.50
  10 -22  -4  -29.90   30.70
  10 -22   6   38.60   32.70
  10 -22   6    3.50   38.10
 -10 -22  -6   23.00   36.30
  10 -22  -6   -9.10   31.40
  10 -22  -6  -22.20   37.40
 -10 -22   6  -26.00   41.20
  10 -22   8   30.60   33.30
 -10 -22  -8   12.50   34.20
  10 -22   8   -9.80   38.10
  10 -22  -8  -31.20   39.50
  10 -22  -8    3.60   32.60
  10 -22  10   11.80   39.60
  10 -22  10  -38.40   33.80
 -10 -22  10   -9.50   38.60
  10 -22 -10   -0.60   33.40
  22 -10 -10   -4.10   20.00
  12 -22   0   11.80   31.20
 -12 -22   0  -60.39   38.80
  12 -22   0   18.40   37.10
 -12 -22  -2  -77.49   36.90
  12 -22   2  -50.89   37.40
  12 -22   2    1.20   31.30
  12 -22  -2  -24.40   31.10
 -12 -22   2    4.20   39.80
 -12 -22  -4  -44.60   35.70
  12 -22   4  -29.80   39.00
  12 -22   4   32.10   31.50
  12 -22  -4    1.00   31.50
 -12 -22  -6   -5.90   36.10
  12 -22   6  -54.39   38.60
  12 -22   6   -1.80   32.40
  12 -22  -6  -45.90   32.00
  12 -22   8  -17.70   33.70
  12 -22  -8    3.10   33.50
  14 -22   0  -17.00   32.30
  14 -22   2    7.50   32.90
  14 -22  -2   -6.80   33.20
  14 -22   4   15.50   33.20
  14 -22  -4  -47.10   32.10
  14 -22   6    7.10   33.90
  14 -22  -6   -6.50   34.20
  -1 -23  -1  -45.80   31.10
   1 -23   1  -39.00   27.60
  -1 -23  -1  -24.50   27.40
   1 -23   1  -49.50   30.90
   1 -23  -1  -29.70   27.10
   1 -23  -1  -35.80   31.80
  -1 -23   1  -26.20   32.20
  -1 -23   1   12.20   27.90
  -1 -23  -3   60.19   28.50
   1 -23   3   36.00   30.20
   1 -23   3   33.00   33.60
  -1 -23  -3   43.00   33.60
  -1 -23   3    8.80   34.40
   1 -23  -3   41.90   34.20
  -1 -23   3   61.59   30.40
   1 -23  -3   33.70   28.40
   1 -23   5  -28.50   34.10
   1 -23   5   27.30   31.40
  -1 -23  -5    1.30   34.80
  -1 -23  -5  -13.10   27.80
   1 -23  -5  -29.30   33.70
  -1 -23   5  -33.60   30.10
  -1 -23   5  -79.59   34.10
   1 -23  -5    4.90   29.00
  -1 -23  -7   32.80   29.10
   1 -23   7   33.60   36.80
  -1 -23  -7  -20.20   34.90
   1 -23   7   18.20   33.30
   1 -23  -7   16.70   29.30
   1 -23  -7  -13.40   35.10
  -1 -23   7   62.89   33.70
  -1 -23   7  -11.70   36.50
  -1 -23  -9  -11.10   28.40
   1 -23   9  -25.90   34.30
  -1 -23  -9  -59.19   34.00
   1 -23   9   -1.60   37.10
  -1 -23   9  -42.90   36.80
  -1 -23   9  -20.10   35.30
   1 -23  -9    2.20   30.00
   1 -23  -9  -24.50   35.80
   1 -23  11  -46.90   37.10
   1 -23  11   42.50   40.00
  -1 -23 -11  -29.50   35.30
  -1 -23 -11   17.80   30.10
   1 -23 -11    8.50   31.00
  -1 -23  11   12.30   38.20
   1 -23 -11  -29.60   36.60
  -1 -23  11    4.40   39.60
  -1 -23 -13    4.60   31.60
   1 -23 -13   -0.40   32.60
   3 -23   1    0.60   29.10
   3 -23   1   33.00   33.70
  -3 -23  -1    1.40   32.00
  -3 -23  -1   51.99   28.40
   3 -23  -1  -24.90   28.20
   3 -23  -1   47.50   33.70
  -3 -23   1   10.80   33.20
  -3 -23   1   76.89   29.90
   3 -23   3    2.70   33.70
  -3 -23  -3  -31.90   27.30
  -3 -23  -3   16.80   34.50
   3 -23   3  -25.40   29.30
   3 -23  -3  -18.80   28.90
   3 -23  -3   45.10   33.60
  -3 -23   3    3.80   30.30
  -3 -23   3  -51.49   34.10
   3 -23   5   67.39   36.30
   3 -23   5   30.70   32.00
  -3 -23  -5   55.89   29.10
  -3 -23  -5   35.80   34.80
  -3 -23   5   62.59   32.90
   3 -23  -5   47.90   36.20
  -3 -23   5  -28.00   36.90
   3 -23  -5   55.69   31.10
  -3 -23  -7   35.00   35.90
   3 -23   7   75.79   37.00
  -3 -23  -7   65.99   29.20
   3 -23   7   52.59   34.30
   3 -23  -7   23.00   37.20
  -3 -23   7   29.60   39.80
  -3 -23   7   26.80   34.40
   3 -23  -7   22.70   30.40
  -3 -23  -9  -28.90   28.30
  -3 -23  -9  -38.80   35.10
   3 -23   9  -74.69   34.00
   3 -23   9  -11.30   36.60
  -3 -23   9   -0.80   40.30
   3 -23  -9  -20.90   30.30
  -3 -23   9   42.00   37.30
   3 -23  -9   -0.80   37.50
  -3 -23 -11   41.50   29.60
  -3 -23 -11   23.00   34.80
   3 -23  11   64.49   40.50
   3 -23  11  -24.40   36.80
   3 -23 -11  -11.10   37.80
  -3 -23  11   21.60   39.80
   3 -23 -11   41.50   32.50
  -3 -23 -13  -29.80   30.00
   3 -23  13  -69.29   38.50
   3 -23 -13  -13.80   32.50
  -5 -23  -1  -59.99   27.20
  -5 -23  -1  -10.00   33.40
   5 -23   1  -14.00   29.10
  -5 -23   1   -0.70   34.70
  -5 -23   1   15.80   29.00
   5 -23  -1    3.00   33.00
   5 -23  -1  -53.09   28.50
   5 -23   3   37.10   30.70
   5 -23   3   45.60   34.70
  -5 -23  -3    2.90   28.10
  -5 -23  -3   95.19   35.20
  -5 -23   3   46.10   37.90
   5 -23  -3   46.10   30.40
   5 -23  -3   71.19   35.40
  -5 -23   3   28.20   31.00
  -5 -23  -5   54.99   28.10
   5 -23   5   86.59   33.60
  -5 -23  -5  116.09   37.80
   5 -23   5   55.79   36.20
   5 -23  -5  100.19   37.50
   5 -23  -5   71.49   32.70
  -5 -23   5   78.39   34.70
  -5 -23   5   47.40   39.60
   5 -23   7   50.79   34.60
  -5 -23  -7   64.99   36.40
   5 -23   7   77.59   37.90
  -5 -23  -7   93.19   29.20
  -5 -23   7   36.50   41.50
   5 -23  -7   92.89   39.40
   5 -23  -7   43.60   32.00
  -5 -23   7   61.59   35.70
  -5 -23  -9   27.80   28.40
   5 -23   9    1.10   35.00
   5 -23   9   66.79   38.70
  -5 -23  -9   41.80   35.40
   5 -23  -9   36.20   32.00
  -5 -23   9   35.90   38.40
  -5 -23   9   68.49   42.90
   5 -23  -9   70.69   39.20
   5 -23  11    2.10   38.10
   5 -23  11   -5.70   37.00
   5 -23 -11  -44.60   39.10
   5 -23 -11  -34.60   32.10
  -5 -23  11  -18.40   40.60
   7 -23   1  -35.50   29.90
  -7 -23  -1  -64.49   26.80
   7 -23   1   20.80   34.70
  -7 -23  -1    9.30   35.50
  -7 -23   1    4.60   28.60
  -7 -23   1   44.90   37.30
   7 -23  -1  -57.59   28.70
   7 -23  -1   24.60   34.40
   7 -23   3   57.09   31.90
  -7 -23  -3   75.19   36.70
   7 -23   3   36.10   35.70
   7 -23  -3   71.79   36.30
  -7 -23   3    5.70   38.20
  -7 -23   3   40.30   31.10
   7 -23  -3   25.90   30.80
   7 -23   5   75.19   33.70
  -7 -23  -5   17.20   35.30
   7 -23   5   71.79   37.90
   7 -23  -5   66.19   37.80
  -7 -23   5   64.89   40.10
   7 -23  -5   44.50   32.60
  -7 -23   5   46.60   33.90
   7 -23   7   54.19   38.60
  -7 -23  -7   98.29   37.60
   7 -23   7   59.99   34.50
   7 -23  -7  109.49   34.30
  -7 -23   7   87.39   37.40
  -7 -23   7   67.39   42.90
   7 -23  -7  105.49   39.40
   7 -23   9   40.30   38.60
   7 -23   9  -45.00   34.00
  -7 -23  -9    0.60   34.50
   7 -23  -9  -16.40   39.90
  -7 -23   9   11.70   38.50
   7 -23  -9   40.70   32.50
   7 -23  11  -28.20   35.60
   7 -23 -11  -12.50   33.30
  -7 -23  11   -0.40   42.10
   9 -23   1  -48.50   29.40
  -9 -23  -1  -55.59   36.00
   9 -23   1  -31.50   34.70
  -9 -23   1  -24.10   37.40
   9 -23  -1  -13.30   30.20
   9 -23  -1  -12.60   34.90
  -9 -23  -3    4.70   36.90
   9 -23   3  -15.80   29.80
   9 -23   3  -57.19   35.80
   9 -23  -3    5.60   35.60
  -9 -23   3   23.90   39.60
   9 -23  -3  -20.60   30.90
   9 -23   5   15.60   32.60
  -9 -23  -5   37.10   37.50
   9 -23   5   -6.20   38.40
   9 -23  -5   17.50   32.20
   9 -23  -5  -16.30   38.00
   9 -23   7  -18.50   33.20
  -9 -23  -7   18.00   34.80
   9 -23   7   45.70   39.80
  -9 -23   7  -10.60   35.20
   9 -23  -7  -44.90   32.00
   9 -23   9    8.00   35.40
  -9 -23   9  -39.40   37.90
   9 -23  -9   20.60   33.20
  11 -23   1  -20.30   31.20
 -11 -23  -1  -30.30   37.60
  11 -23  -1  -26.60   31.20
  11 -23   3   35.30   32.70
 -11 -23  -3   15.80   38.10
  11 -23  -3   15.80   32.10
 -11 -23  -5   -7.20   37.70
  11 -23   5   -8.00   32.90
  11 -23  -5  -29.90   31.90
  11 -23   7   33.00   34.10
 -11 -23  -7  -41.90   36.00
  11 -23  -7   29.30   33.70
  13 -23   1   -6.50   32.70
  13 -23  -1  -15.80   32.90
  13 -23   3   -5.10   33.00
  13 -23  -3  -23.40   33.30
   0 -24   0   26.30   29.50
   0 -24   0   27.90   33.50
   0 -24  -2    3.30   34.00
   0 -24   2   11.80   30.30
   0 -24   2  -25.10   33.00
   0 -24  -2  -29.10   28.50
   0 -24  -4  -15.40   34.90
   0 -24  -4  -13.80   29.00
   0 -24   4  -33.60   35.30
   0 -24   4   15.00   32.10
   0 -24   6  -54.09   35.50
   0 -24  -6  -76.99   34.50
   0 -24  -6  -37.30   28.70
   0 -24   6    3.80   33.60
   0 -24  -8  -26.70   35.70
   0 -24   8  -15.10   35.70
   0 -24   8   -9.90   38.00
   0 -24  -8  -34.90   30.10
   0 -24 -10   -9.40   31.90
   0 -24  10  -27.40   37.30
   0 -24 -10  -27.30   37.00
   0 -24 -12   10.40   32.60
   0 -24  12  -62.29   39.50
  -2 -24   0  194.38   37.00
  -2 -24   0   81.19   30.60
   2 -24   0  -32.60   29.10
   2 -24   0  -24.30   33.30
   2 -24   2   -5.00   33.90
  -2 -24  -2  -20.60   33.10
   2 -24   2  -39.70   29.80
  -2 -24  -2  -16.50   29.00
   2 -24  -2  -21.90   29.60
  -2 -24   2   20.20   31.20
  -2 -24   2  -41.90   34.20
   2 -24  -2   72.89   34.30
  -2 -24  -4   29.00   29.70
   2 -24   4   31.50   32.60
  -2 -24  -4    1.30   35.10
   2 -24   4  -32.10   34.70
   2 -24  -4   -6.30   29.70
   2 -24  -4   36.10   35.20
  -2 -24   4  -51.79   34.70
  -2 -24   4   11.60   32.80
  -2 -24  -6   26.20   29.10
   2 -24   6   24.70   37.10
   2 -24   6    7.20   34.00
  -2 -24  -6   22.00   36.80
   2 -24  -6   65.49   37.30
  -2 -24   6   37.20   34.50
   2 -24  -6   44.20   30.60
  -2 -24   6   -5.00   37.50
  -2 -24  -8  -58.09   35.20
  -2 -24  -8   -7.60   29.90
   2 -24   8    3.60   38.00
   2 -24   8  -48.90   34.70
   2 -24  -8   -7.70   31.50
  -2 -24   8  -44.00   36.00
  -2 -24   8   11.50   38.70
   2 -24  -8  -10.60   37.00
  -2 -24 -10  -21.10   36.10
  -2 -24 -10   23.40   31.60
   2 -24  10   35.30   37.80
   2 -24 -10   -5.80   38.20
  -2 -24  10   30.40   38.40
   2 -24 -10   23.70   33.00
   4 -24   0  -56.69   30.00
  -4 -24   0  -27.60   29.40
   4 -24   0  -34.70   33.30
  -4 -24   0    2.00   34.10
   4 -24   2  -15.00   30.90
  -4 -24  -2    8.70   34.20
  -4 -24  -2  -45.50   28.90
   4 -24   2    9.00   34.30
   4 -24  -2   30.50   34.20
   4 -24  -2  -17.70   30.50
  -4 -24   2  -57.79   34.90
  -4 -24   2    8.20   30.90
  -4 -24  -4   35.40   36.50
   4 -24   4   41.10   33.20
  -4 -24  -4   14.30   29.80
   4 -24   4   19.90   35.60
   4 -24  -4   14.90   31.30
  -4 -24   4   25.30   37.70
  -4 -24   4   29.50   33.50
   4 -24  -4   56.19   36.30
   4 -24   6    3.20   33.90
   4 -24   6    3.00   36.30
  -4 -24  -6  -19.30   35.40
  -4 -24  -6   43.70   30.30
   4 -24  -6   28.10   37.30
  -4 -24   6   11.00   35.20
   4 -24  -6   -7.00   31.40
  -4 -24   6  -37.90   39.10
  -4 -24  -8  -29.30   35.90
  -4 -24  -8   20.60   29.80
   4 -24   8   -0.10   35.40
  -4 -24   8   78.89   38.30
   4 -24  -8   34.10   32.80
   4 -24  -8   14.40   38.90
  -4 -24 -10   18.60   30.10
   4 -24  10  -20.80   36.80
  -4 -24 -10  -13.90   35.40
  -4 -24  10   27.70   39.90
   4 -24 -10   32.00   33.00
   6 -24   0  -69.99   29.80
  -6 -24   0   -4.50   29.20
   6 -24   0  -44.20   33.90
  -6 -24   0   -0.30   36.60
  -6 -24  -2   -5.20   28.30
   6 -24   2   12.00   31.40
  -6 -24  -2   -2.80   36.30
   6 -24   2   34.00   35.20
   6 -24  -2  -32.00   31.00
  -6 -24   2   40.30   38.00
  -6 -24   2   32.30   31.40
   6 -24  -2    6.00   35.30
  -6 -24  -4  -52.39   28.30
  -6 -24  -4   34.10   35.60
   6 -24   4  -26.60   32.10
   6 -24   4   52.09   37.00
  -6 -24   4  -35.70   38.40
   6 -24  -4   24.50   37.50
   6 -24  -4  -62.29   31.30
  -6 -24   4   11.90   33.80
  -6 -24  -6  117.49   38.90
   6 -24   6  103.19   35.50
  -6 -24   6  163.18   38.30
   6 -24  -6   98.59   33.80
   6 -24   8   47.00   36.60
  -6 -24  -8   54.39   36.20
   6 -24  -8  -19.60   32.60
  -6 -24   8    9.30   38.40
   6 -24  10   -1.60   37.10
  -6 -24  10    2.20   40.90
   6 -24 -10   -2.10   34.10
   8 -24   0  -35.40   30.80
  -8 -24   0  -15.30   37.70
  -8 -24  -2  -40.10   37.40
   8 -24   2  -33.50   31.40
   8 -24  -2  -56.89   30.60
  -8 -24  -4    6.50   36.30
   8 -24   4    4.20   32.60
   8 -24  -4   -3.00   33.10
  -8 -24   4   42.00   33.60
   8 -24   6    4.90   33.90
  -8 -24  -6    8.50   35.80
   8 -24  -6   11.20   32.90
  -8 -24   6   71.39   36.10
  -8 -24  -8    3.20   36.70
   8 -24   8   10.70   35.80
  -8 -24   8   22.90   38.40
   8 -24  -8    6.40   33.40
  10 -24   0   14.60   32.50
  10 -24   2   28.40   32.90
  10 -24  -2   25.90   32.60
  10 -24   4    0.90   32.80
  10 -24  -4    0.60   32.90
  10 -24   6   40.00   34.40
  10 -24  -6   21.40   33.80
  12 -24   0  -25.60   32.80
  -1 -25  -1    8.60   34.70
   1 -25   1   26.00   36.00
   1 -25   1  -14.00   31.00
  -1 -25  -1  -15.10   30.70
  -1 -25   1  -21.50   30.80
  -1 -25   1  -27.00   34.30
   1 -25  -1   -4.20   35.10
   1 -25  -1    7.80   31.10
  -1 -25  -3    0.70   30.90
  -1 -25  -3  -15.80   35.30
   1 -25   3   -6.20   32.50
   1 -25  -3  -29.10   31.00
   1 -25  -3   -7.40   34.70
  -1 -25   3  -19.40   32.60
  -1 -25  -5  -29.60   35.60
  -1 -25  -5    8.20   30.90
   1 -25   5  -37.90   33.60
   1 -25  -5  -23.00   35.40
  -1 -25   5   32.80   35.00
   1 -25  -5   15.30   30.80
  -1 -25  -7   12.50   32.20
   1 -25   7  -39.90   35.40
  -1 -25   7   -7.60   36.50
   1 -25  -7   -6.60   32.00
  -1 -25  -9   18.20   32.60
   1 -25   9   11.20   38.10
   1 -25  -9    9.90   32.60
  -1 -25   9   -9.60   38.70
  -3 -25  -1    8.10   31.50
   3 -25   1  -35.20   31.00
  -3 -25  -1    3.40   35.20
   3 -25  -1  -27.40   31.10
  -3 -25   1  -24.30   31.30
  -3 -25  -3   23.60   30.90
   3 -25   3   -0.20   32.80
  -3 -25  -3    5.20   35.40
  -3 -25   3   36.70   34.20
   3 -25  -3   16.60   31.80
   3 -25   5    3.40   34.40
  -3 -25  -5   -1.10   30.50
  -3 -25  -5   30.90   36.60
   3 -25  -5   23.00   32.50
  -3 -25   5   31.50   35.50
  -3 -25  -7   58.19   32.00
   3 -25   7    6.00   35.90
   3 -25  -7    1.70   33.20
  -3 -25   7    5.60   37.20
   3 -25   9  -36.20   36.40
  -3 -25  -9   20.40   31.60
   3 -25  -9    0.90   33.30
  -3 -25   9  -41.50   38.90
  -5 -25  -1  -19.40   30.30
   5 -25   1  -24.70   32.10
   5 -25  -1  -51.89   31.20
  -5 -25   1    3.50   31.40
  -5 -25  -3  -10.40   30.50
   5 -25   3   13.00   32.80
   5 -25  -3    6.20   32.30
  -5 -25   3   68.69   34.40
  -5 -25  -5   30.00   29.60
   5 -25   5   15.80   34.00
   5 -25  -5    4.00   33.30
  -5 -25   5   21.10   36.50
  -5 -25  -7   21.00   30.00
   5 -25   7   10.80   35.50
  -5 -25   7   -2.60   38.20
   5 -25  -7  -24.50   33.90
   7 -25   1  -32.00   31.40
   7 -25  -1  -22.50   32.00
   7 -25   3   18.90   33.50
   7 -25  -3  -52.39   31.60
  -7 -25   3   32.20   33.20
   7 -25   5  -22.60   33.60
   7 -25  -5   -8.00   33.60
  -7 -25   5    6.90   35.70
   9 -25   1   -3.40   33.20
   9 -25  -1   -8.80   33.20
   9 -25   3  -18.70   33.20
   9 -25  -3  -42.10   32.60
   0 -26   0  -21.50   32.90
   0 -26   2   62.79   34.50
   0 -26  -2  -14.10   32.20
   0 -26   4  -16.60   34.30
   0 -26  -4  -20.30   32.60
   0 -26   6   -9.70   36.40
   0 -26  -6   39.20   34.60
  -2 -26   0    9.30   33.30
   2 -26   0   11.70   33.30
   2 -26   2   29.20   33.80
  -2 -26  -2   18.20   32.80
   2 -26  -2  -12.30   32.40
  -2 -26   2    5.20   33.80
   2 -26   4    6.60   34.70
  -2 -26  -4    1.20   32.90
   2 -26  -4   12.20   33.80
  -2 -26   4   31.60   36.20
  -2 -26  -6  -23.20   33.20
   2 -26   6  -30.20   36.50
  -2 -26   6    6.70   37.80
   2 -26  -6  -25.90   33.50
  -4 -26   0   -8.70   33.30
   4 -26   0    1.70   33.70
  -4 -26  -2   34.30   32.50
   4 -26   2  -26.00   33.40
  -4 -26   2   14.60   34.20
   4 -26  -2  -39.90   32.10
   4 -26   4  -40.80   34.40
  -4 -26  -4    7.30   31.30
   4 -26  -4   -5.70   34.00
  -4 -26   4    6.60   35.60
  -6 -26   0  -13.10   32.50
   6 -26   0   -2.50   33.00
   6 -26   2   -4.60   33.90
   6 -26  -2  -17.70   33.00
  -6 -26   2   94.69   35.30
   0   0   0    0.00    0.00


_computing_structure_solution     'SHELXT 2014/5 (Sheldrick, 2014)'
_computing_structure_solution     'SHELXT 2014/5 (Sheldrick, 2014)'
;
_shelx_hkl_checksum              68256
loop_
_space_group_symop_operation_xyz
'x, y, z'
'-x+3/4, -y+1/4, z+1/2'
'-x+1/4, y+1/2, -z+3/4'
'x+1/2, -y+3/4, -z+1/4'
'z, x, y'
'z+1/2, -x+3/4, -y+1/4'
'-z+3/4, -x+1/4, y+1/2'
'-z+1/4, x+1/2, -y+3/4'
'y, z, x'
'-y+1/4, z+1/2, -x+3/4'
'y+1/2, -z+3/4, -x+1/4'
'-y+3/4, -z+1/4, x+1/2'
'y+3/4, x+1/4, -z+1/2'
'-y, -x, -z'
'y+1/4, -x+1/2, z+3/4'
'-y+1/2, x+3/4, z+1/4'
'x+3/4, z+1/4, -y+1/2'
'-x+1/2, z+3/4, y+1/4'
'-x, -z, -y'
'x+1/4, -z+1/2, y+3/4'
'z+3/4, y+1/4, -x+1/2'
'z+1/4, -y+1/2, x+3/4'
'-z+1/2, y+3/4, x+1/4'
'-z, -y, -x'
'x, y+1/2, z+1/2'
'-x+3/4, -y+3/4, z+1'
'-x+1/4, y+1, -z+5/4'
'x+1/2, -y+5/4, -z+3/4'
'z, x+1/2, y+1/2'
'z+1/2, -x+5/4, -y+3/4'
'-z+3/4, -x+3/4, y+1'
'-z+1/4, x+1, -y+5/4'
'y, z+1/2, x+1/2'
'-y+1/4, z+1, -x+5/4'
'y+1/2, -z+5/4, -x+3/4'
'-y+3/4, -z+3/4, x+1'
'y+3/4, x+3/4, -z+1'
'-y, -x+1/2, -z+1/2'
'y+1/4, -x+1, z+5/4'
'-y+1/2, x+5/4, z+3/4'
'x+3/4, z+3/4, -y+1'
'-x+1/2, z+5/4, y+3/4'
'-x, -z+1/2, -y+1/2'
'x+1/4, -z+1, y+5/4'
'z+3/4, y+3/4, -x+1'
'z+1/4, -y+1, x+5/4'
'-z+1/2, y+5/4, x+3/4'
'-z, -y+1/2, -x+1/2'
'x+1/2, y, z+1/2'
'-x+5/4, -y+1/4, z+1'
'-x+3/4, y+1/2, -z+5/4'
'x+1, -y+3/4, -z+3/4'
'z+1/2, x, y+1/2'
'z+1, -x+3/4, -y+3/4'
'-z+5/4, -x+1/4, y+1'
'-z+3/4, x+1/2, -y+5/4'
'y+1/2, z, x+1/2'
'-y+3/4, z+1/2, -x+5/4'
'y+1, -z+3/4, -x+3/4'
'-y+5/4, -z+1/4, x+1'
'y+5/4, x+1/4, -z+1'
'-y+1/2, -x, -z+1/2'
'y+3/4, -x+1/2, z+5/4'
'-y+1, x+3/4, z+3/4'
'x+5/4, z+1/4, -y+1'
'-x+1, z+3/4, y+3/4'
'-x+1/2, -z, -y+1/2'
'x+3/4, -z+1/2, y+5/4'
'z+5/4, y+1/4, -x+1'
'z+3/4, -y+1/2, x+5/4'
'-z+1, y+3/4, x+3/4'
'-z+1/2, -y, -x+1/2'
'x+1/2, y+1/2, z'
'-x+5/4, -y+3/4, z+1/2'
'-x+3/4, y+1, -z+3/4'
'x+1, -y+5/4, -z+1/4'
'z+1/2, x+1/2, y'
'z+1, -x+5/4, -y+1/4'
'-z+5/4, -x+3/4, y+1/2'
'-z+3/4, x+1, -y+3/4'
'y+1/2, z+1/2, x'
'-y+3/4, z+1, -x+3/4'
'y+1, -z+5/4, -x+1/4'
'-y+5/4, -z+3/4, x+1/2'
'y+5/4, x+3/4, -z+1/2'
'-y+1/2, -x+1/2, -z'
'y+3/4, -x+1, z+3/4'
'-y+1, x+5/4, z+1/4'
'x+5/4, z+3/4, -y+1/2'
'-x+1, z+5/4, y+1/4'
'-x+1/2, -z+1/2, -y'
'x+3/4, -z+1, y+3/4'
'z+5/4, y+3/4, -x+1/2'
'z+3/4, -y+1, x+3/4'
'-z+1, y+5/4, x+1/4'
'-z+1/2, -y+1/2, -x'
'-x, -y, -z'
'x-3/4, y-1/4, -z-1/2'
'x-1/4, -y-1/2, z-3/4'
'-x-1/2, y-3/4, z-1/4'
'-z, -x, -y'
'-z-1/2, x-3/4, y-1/4'
'z-3/4, x-1/4, -y-1/2'
'z-1/4, -x-1/2, y-3/4'
'-y, -z, -x'
'y-1/4, -z-1/2, x-3/4'
'-y-1/2, z-3/4, x-1/4'
'y-3/4, z-1/4, -x-1/2'
'-y-3/4, -x-1/4, z-1/2'
'y, x, z'
'-y-1/4, x-1/2, -z-3/4'
'y-1/2, -x-3/4, -z-1/4'
'-x-3/4, -z-1/4, y-1/2'
'x-1/2, -z-3/4, -y-1/4'
'x, z, y'
'-x-1/4, z-1/2, -y-3/4'
'-z-3/4, -y-1/4, x-1/2'
'-z-1/4, y-1/2, -x-3/4'
'z-1/2, -y-3/4, -x-1/4'
'z, y, x'
'-x, -y+1/2, -z+1/2'
'x-3/4, y+1/4, -z'
'x-1/4, -y, z-1/4'
'-x-1/2, y-1/4, z+1/4'
'-z, -x+1/2, -y+1/2'
'-z-1/2, x-1/4, y+1/4'
'z-3/4, x+1/4, -y'
'z-1/4, -x, y-1/4'
'-y, -z+1/2, -x+1/2'
'y-1/4, -z, x-1/4'
'-y-1/2, z-1/4, x+1/4'
'y-3/4, z+1/4, -x'
'-y-3/4, -x+1/4, z'
'y, x+1/2, z+1/2'
'-y-1/4, x, -z-1/4'
'y-1/2, -x-1/4, -z+1/4'
'-x-3/4, -z+1/4, y'
'x-1/2, -z-1/4, -y+1/4'
'x, z+1/2, y+1/2'
'-x-1/4, z, -y-1/4'
'-z-3/4, -y+1/4, x'
'-z-1/4, y, -x-1/4'
'z-1/2, -y-1/4, -x+1/4'
'z, y+1/2, x+1/2'
'-x+1/2, -y, -z+1/2'
'x-1/4, y-1/4, -z'
'x+1/4, -y-1/2, z-1/4'
'-x, y-3/4, z+1/4'
'-z+1/2, -x, -y+1/2'
'-z, x-3/4, y+1/4'
'z-1/4, x-1/4, -y'
'z+1/4, -x-1/2, y-1/4'
'-y+1/2, -z, -x+1/2'
'y+1/4, -z-1/2, x-1/4'
'-y, z-3/4, x+1/4'
'y-1/4, z-1/4, -x'
'-y-1/4, -x-1/4, z'
'y+1/2, x, z+1/2'
'-y+1/4, x-1/2, -z-1/4'
'y, -x-3/4, -z+1/4'
'-x-1/4, -z-1/4, y'
'x, -z-3/4, -y+1/4'
'x+1/2, z, y+1/2'
'-x+1/4, z-1/2, -y-1/4'
'-z-1/4, -y-1/4, x'
'-z+1/4, y-1/2, -x-1/4'
'z, -y-3/4, -x+1/4'
'z+1/2, y, x+1/2'
'-x+1/2, -y+1/2, -z'
'x-1/4, y+1/4, -z-1/2'
'x+1/4, -y, z-3/4'
'-x, y-1/4, z-1/4'
'-z+1/2, -x+1/2, -y'
'-z, x-1/4, y-1/4'
'z-1/4, x+1/4, -y-1/2'
'z+1/4, -x, y-3/4'
'-y+1/2, -z+1/2, -x'
'y+1/4, -z, x-3/4'
'-y, z-1/4, x-1/4'
'y-1/4, z+1/4, -x-1/2'
'-y-1/4, -x+1/4, z-1/2'
'y+1/2, x+1/2, z'
'-y+1/4, x, -z-3/4'
'y, -x-1/4, -z-1/4'
'-x-1/4, -z+1/4, y-1/2'
'x, -z-1/4, -y-1/4'
'x+1/2, z+1/2, y'
'-x+1/4, z, -y-3/4'
'-z-1/4, -y+1/4, x-1/2'
'-z+1/4, y, -x-3/4'
'z, -y-1/4, -x-1/4'
'z+1/2, y+1/2, x'
loop_
_atom_site_label
_atom_site_type_symbol
_atom_site_fract_x
_atom_site_fract_y
_atom_site_fract_z
_atom_site_U_iso_or_equiv
_atom_site_adp_type
_atom_site_occupancy
_atom_site_site_symmetry_order
_atom_site_calc_flag
_atom_site_refinement_flags_posn
_atom_site_refinement_flags_adp
_atom_site_refinement_flags_occupancy
_atom_site_disorder_assembly
_atom_site_disorder_group
Tb1 Tb 0.5530(2) 0.4818(3) 0.5367(3) 0.212(8) Uiso 0.3333 1 d D . P . .
Tb2 Tb 0.5508(3) 0.5508(3) 0.4655(4) 0.187(9) Uiso 0.3333 2 d DS . P . .
O1H O 0.5364(7) 0.5364(7) 0.5209(7) 0.09(2) Uiso 0.3333 2 d DS . P . .
O2H O 0.5570(8) 0.4943(12) 0.4822(12) 0.162(18) Uiso 0.5 1 d . . P . .
O1W O 0.5977(16) 0.444(3) 0.5823(16) 0.36(4) Uiso 0.3333 1 d D . P A -1
O2W O 0.597(2) 0.597(2) 0.430(6) 0.36(4) Uiso 0.3333 2 d DS . P A .
O1L1 O 0.606(2) 0.5135(17) 0.531(2) 0.300(19) Uiso 0.3333 1 d D . P A .
O2L1 O 0.602(2) 0.562(2) 0.498(2) 0.300(19) Uiso 0.3333 1 d D . P . .
C1L1 C 0.6134(7) 0.5417(14) 0.5188(14) 0.300(19) Uiso 0.3333 1 d D . P . .
C2L1 C 0.66031(6) 0.58969(6) 0.51352(14) 0.300(19) Uiso 0.3333 2 d DS . P . .
H2L1 H 0.6516 0.5984 0.4925 0.360 Uiso 0.1667 1 calc R U P A -1
C3L1 C 0.64483(10) 0.56143(10) 0.52884(12) 0.300(19) Uiso 0.3333 1 d D . P . .
C4L1 C 0.6576(2) 0.5486(2) 0.5596(3) 0.300(19) Uiso 0.3333 1 d D . P . .
H4L1 H 0.6471 0.5293 0.5700 0.360 Uiso 0.3333 1 calc R U P A -1
C5L1 C 0.6859(2) 0.5641(2) 0.5749(4) 0.300(19) Uiso 0.3333 2 d DS . P A .
N1L1 N 0.6992(3) 0.5508(3) 0.6067(5) 0.300(19) Uiso 0.3333 2 d DS . P . .
C6L1 C 0.6893(8) 0.5248(5) 0.6260(7) 0.300(19) Uiso 0.3333 1 d D . P A .
H6L1 H 0.6703 0.5111 0.6196 0.360 Uiso 0.3333 1 calc R U P B -1
N2L1 N 0.7062(5) 0.5186(5) 0.6537(9) 0.300(19) Uiso 0.3333 1 d D . P . .
O1L2 O 0.581(2) 0.4236(17) 0.5398(17) 0.30(2) Uiso 0.3333 1 d D U P . .
O2L2 O 0.571(2) 0.4159(18) 0.4837(18) 0.30(2) Uiso 0.3333 1 d D U P . .
C1L2 C 0.5831(13) 0.4090(13) 0.5120(15) 0.31(2) Uiso 0.3333 1 d D U P . -1
C2L2 C 0.6046(10) 0.3771(11) 0.5125(11) 0.31(2) Uiso 0.3333 1 d DG U P . .
C3L2 C 0.6356(16) 0.3768(14) 0.530(2) 0.32(2) Uiso 0.1667 1 d DG U P . 1
H3L2 H 0.6432 0.3968 0.5417 0.378 Uiso 0.1667 1 calc R U P . 1
C4L2 C 0.6556(15) 0.3473(15) 0.530(2) 0.32(2) Uiso 0.1667 1 d DG U P . 1
H4L2 H 0.6768 0.3471 0.5424 0.379 Uiso 0.1667 1 calc R U P . 1
C5L2 C 0.6445(11) 0.3180(11) 0.5134(11) 0.32(2) Uiso 0.3333 1 d DG U P . .
C6L2 C 0.6134(17) 0.3183(13) 0.496(2) 0.31(2) Uiso 0.1667 1 d DG U P . 1
H6L2 H 0.6058 0.2983 0.4842 0.378 Uiso 0.1667 1 calc R U P . 1
C7L2 C 0.5935(16) 0.3478(14) 0.495(2) 0.31(2) Uiso 0.1667 1 d DG U P . 1
H7L2 H 0.5722 0.3480 0.4834 0.377 Uiso 0.1667 1 calc R U P . 1
N1L2 N 0.6648(15) 0.2879(13) 0.5138(15) 0.32(2) Uiso 0.3333 1 d D U P . .
C8L2 C 0.6814(10) 0.2820(6) 0.5439(13) 0.33(2) Uiso 0.3333 1 d D U P . .
O3L2 O 0.688(2) 0.289(2) 0.5741(14) 0.37(3) Uiso 0.3333 1 d D U P C -1
C9L2 C 0.7031(6) 0.2515(5) 0.5350(8) 0.33(2) Uiso 0.3333 1 d D U P . .
C10L C 0.6949(5) 0.2314(7) 0.5067(7) 0.33(3) Uiso 0.3333 1 d D U P . .
H10L H 0.6756 0.2370 0.4930 0.391 Uiso 0.3333 1 calc R U P . .
C12L C 0.6399(14) 0.3368(14) 0.5433(11) 0.32(2) Uiso 0.1667 1 d D U P . 2
H12L H 0.6504 0.3295 0.5641 0.379 Uiso 0.1667 1 calc R U P . 2
C13L C 0.6291(19) 0.3287(15) 0.4830(11) 0.32(2) Uiso 0.1667 1 d D U P . 2
H13L H 0.6323 0.3158 0.4626 0.378 Uiso 0.1667 1 calc R U P . 2
C11L C 0.6199(14) 0.3664(14) 0.5429(11) 0.32(2) Uiso 0.1667 1 d D U P . 2
H11L H 0.6168 0.3793 0.5633 0.378 Uiso 0.1667 1 calc R U P . 2
C14L C 0.6091(18) 0.3583(16) 0.4826(11) 0.31(2) Uiso 0.1667 1 d D U P . 2
H14L H 0.5986 0.3656 0.4618 0.377 Uiso 0.1667 1 calc R U P . 2
O4L2 O 0.5265(16) 0.4530(16) 0.5807(12) 0.17(3) Uiso 0.3333 1 d D . P . .
loop_
_atom_type_symbol
_atom_type_description
_atom_type_scat_dispersion_real
_atom_type_scat_dispersion_imag
_atom_type_scat_source
C C 0.0181 0.0091 'International Tables Vol C Tables 4.2.6.8 and 6.1.1.4'
H H 0.0000 0.0000 'International Tables Vol C Tables 4.2.6.8 and 6.1.1.4'
N N 0.0311 0.0180 'International Tables Vol C Tables 4.2.6.8 and 6.1.1.4'
O O 0.0492 0.0322 'International Tables Vol C Tables 4.2.6.8 and 6.1.1.4'
Tb Tb -9.1472 9.1891 'International Tables Vol C Tables 4.2.6.8 and 6.1.1.4'
loop_
_geom_angle_atom_site_label_1
_geom_angle_atom_site_label_2
_geom_angle_atom_site_label_3
_geom_angle
_geom_angle_site_symmetry_1
_geom_angle_site_symmetry_3
Tb2 Tb1 O2H 143.6(15) 9 .
Tb2 Tb1 N2L1 118.9(15) 9 190_657
O2H Tb1 N2L1 85.7(12) . 190_657
Tb2 Tb1 O4L2 26(2) 9 .
O2H Tb1 O4L2 150.0(19) . .
N2L1 Tb1 O4L2 124.3(17) 190_657 .
Tb2 Tb1 O1H 147.1(13) 9 .
O2H Tb1 O1H 63.6(14) . .
N2L1 Tb1 O1H 69.7(12) 190_657 .
O4L2 Tb1 O1H 121.6(18) . .
Tb2 Tb1 O1H 147.1(13) 9 110
O2H Tb1 O1H 63.6(14) . 110
N2L1 Tb1 O1H 69.7(12) 190_657 110
O4L2 Tb1 O1H 121.6(18) . 110
O1H Tb1 O1H 0(3) . 110
Tb2 Tb1 O2H 77.8(16) 9 101_666
O2H Tb1 O2H 71.7(11) . 101_666
N2L1 Tb1 O2H 155.5(17) 190_657 101_666
O4L2 Tb1 O2H 79(2) . 101_666
O1H Tb1 O2H 106.7(14) . 101_666
O1H Tb1 O2H 106.7(14) 110 101_666
Tb2 Tb1 O1L1 122(2) 9 .
O2H Tb1 O1L1 75(2) . .
N2L1 Tb1 O1L1 16(2) 190_657 .
O4L2 Tb1 O1L1 135(3) . .
O1H Tb1 O1L1 75.2(18) . .
O1H Tb1 O1L1 75.2(18) 110 .
O2H Tb1 O1L1 140(2) 101_666 .
Tb2 Tb1 O2H 72.4(16) 9 9
O2H Tb1 O2H 112.4(16) . 9
N2L1 Tb1 O2H 132.1(13) 190_657 9
O4L2 Tb1 O2H 48.2(18) . 9
O1H Tb1 O2H 79.3(13) . 9
O1H Tb1 O2H 79.3(13) 110 9
O2H Tb1 O2H 67.8(13) 101_666 9
O1L1 Tb1 O2H 147(2) . 9
Tb2 Tb1 O2H 70.0(17) 9 14_666
O2H Tb1 O2H 84.1(17) . 14_666
N2L1 Tb1 O2H 169.8(13) 190_657 14_666
O4L2 Tb1 O2H 65.9(19) . 14_666
O1H Tb1 O2H 105.7(14) . 14_666
O1H Tb1 O2H 105.7(14) 110 14_666
O2H Tb1 O2H 15(3) 101_666 14_666
O1L1 Tb1 O2H 156(2) . 14_666
O2H Tb1 O2H 53(2) 9 14_666
Tb2 Tb1 O1L2 48.1(18) 9 .
O2H Tb1 O1L2 102.5(18) . .
N2L1 Tb1 O1L2 104(2) 190_657 .
O4L2 Tb1 O1L2 73(3) . .
O1H Tb1 O1L2 164.8(18) . .
O1H Tb1 O1L2 164.8(18) 110 .
O2H Tb1 O1L2 72(2) 101_666 .
O1L1 Tb1 O1L2 96(3) . .
O2H Tb1 O1L2 113(2) 9 .
O2H Tb1 O1L2 78(2) 14_666 .
Tb2 Tb1 N2L1 80.4(14) 9 27_645
O2H Tb1 N2L1 135.6(13) . 27_645
N2L1 Tb1 N2L1 70.2(13) 190_657 27_645
O4L2 Tb1 N2L1 64.3(18) . 27_645
O1H Tb1 N2L1 73.1(9) . 27_645
O1H Tb1 N2L1 73.1(9) 110 27_645
O2H Tb1 N2L1 133.3(16) 101_666 27_645
O1L1 Tb1 N2L1 85.8(19) . 27_645
O2H Tb1 N2L1 66.3(10) 9 27_645
O2H Tb1 N2L1 117.9(14) 14_666 27_645
O1L2 Tb1 N2L1 119.1(16) . 27_645
Tb2 Tb1 O1L2 6(2) 9 120
O2H Tb1 O1L2 140(2) . 120
N2L1 Tb1 O1L2 124.5(17) 190_657 120
O4L2 Tb1 O1L2 25(2) . 120
O1H Tb1 O1L2 146.3(17) . 120
O1H Tb1 O1L2 146.3(17) 110 120
O2H Tb1 O1L2 72(2) 101_666 120
O1L1 Tb1 O1L2 128(2) . 120
O2H Tb1 O1L2 69.1(18) 9 120
O2H Tb1 O1L2 64.4(19) 14_666 120
O1L2 Tb1 O1L2 49(3) . 120
N2L1 Tb1 O1L2 83(2) 27_645 120
Tb2 Tb1 O1W 44(2) 9 .
O2H Tb1 O1W 131.9(10) . .
N2L1 Tb1 O1W 78(2) 190_657 .
O4L2 Tb1 O1W 64.0(19) . .
O1H Tb1 O1W 144(3) . .
O1H Tb1 O1W 144(3) 110 .
O2H Tb1 O1W 109(3) 101_666 .
O1L1 Tb1 O1W 79(3) . .
O2H Tb1 O1W 111.9(12) 9 .
O2H Tb1 O1W 108(3) 14_666 .
O1L2 Tb1 O1W 41(3) . .
N2L1 Tb1 O1W 80.1(18) 27_645 .
O1L2 Tb1 O1W 49(2) 120 .
Tb2 Tb1 O2H 81.5(14) 9 120
O2H Tb1 O2H 107.0(16) . 120
N2L1 Tb1 O2H 125.2(11) 190_657 120
O4L2 Tb1 O2H 57(2) . 120
O1H Tb1 O2H 69.6(11) . 120
O1H Tb1 O2H 69.6(11) 110 120
O2H Tb1 O2H 72.2(18) 101_666 120
O1L1 Tb1 O2H 138.7(19) . 120
O2H Tb1 O2H 9.7(17) 9 120
O2H Tb1 O2H 58.7(11) 14_666 120
O1L2 Tb1 O2H 123(2) . 120
N2L1 Tb1 O2H 63.9(8) 27_645 120
O1L2 Tb1 O2H 78.5(17) 120 120
O1W Tb1 O2H 119.3(10) . 120
Tb2 Tb1 Tb2 108.5(13) 9 101_666
O2H Tb1 Tb2 36.4(10) . 101_666
N2L1 Tb1 Tb2 118.7(8) 190_657 101_666
O4L2 Tb1 Tb2 115.5(17) . 101_666
O1H Tb1 Tb2 90.9(10) . 101_666
O1H Tb1 Tb2 90.9(10) 110 101_666
O2H Tb1 Tb2 37.0(14) 101_666 101_666
O1L1 Tb1 Tb2 104.7(19) . 101_666
O2H Tb1 Tb2 96.8(8) 9 101_666
O2H Tb1 Tb2 51.5(12) 14_666 101_666
O1L2 Tb1 Tb2 79.5(17) . 101_666
N2L1 Tb1 Tb2 158.2(5) 27_645 101_666
O1L2 Tb1 Tb2 103.9(19) 120 101_666
O1W Tb1 Tb2 120(2) . 101_666
O2H Tb1 Tb2 97.0(7) 120 101_666
O1H Tb2 O1H 0(3) 110 .
O1H Tb2 O2H 61.8(12) 110 110
O1H Tb2 O2H 61.8(12) . 110
O1H Tb2 O2H 61.8(12) 110 .
O1H Tb2 O2H 61.8(12) . .
O2H Tb2 O2H 96.8(18) 110 .
O1H Tb2 O2H 91.9(15) 110 24_666
O1H Tb2 O2H 91.9(15) . 24_666
O2H Tb2 O2H 70.1(15) 110 24_666
O2H Tb2 O2H 56.5(19) . 24_666
O1H Tb2 O2H 91.9(15) 110 105_666
O1H Tb2 O2H 91.9(15) . 105_666
O2H Tb2 O2H 56.5(19) 110 105_666
O2H Tb2 O2H 70.1(15) . 105_666
O2H Tb2 O2H 16(3) 24_666 105_666
O1H Tb2 O2L2 124(2) 110 24_666
O1H Tb2 O2L2 124(2) . 24_666
O2H Tb2 O2L2 64(2) 110 24_666
O2H Tb2 O2L2 139(2) . 24_666
O2H Tb2 O2L2 83(2) 24_666 24_666
O2H Tb2 O2L2 70(2) 105_666 24_666
O1H Tb2 O2L2 124(2) 110 105_666
O1H Tb2 O2L2 124(2) . 105_666
O2H Tb2 O2L2 139(2) 110 105_666
O2H Tb2 O2L2 64(2) . 105_666
O2H Tb2 O2L2 70(2) 24_666 105_666
O2H Tb2 O2L2 83(2) 105_666 105_666
O2L2 Tb2 O2L2 105(5) 24_666 105_666
O1H Tb2 O2L1 76(2) 110 110
O1H Tb2 O2L1 76(2) . 110
O2H Tb2 O2L1 87(2) 110 110
O2H Tb2 O2L1 128(3) . 110
O2H Tb2 O2L1 157(2) 24_666 110
O2H Tb2 O2L1 142(2) 105_666 110
O2L2 Tb2 O2L1 88(3) 24_666 110
O2L2 Tb2 O2L1 134(3) 105_666 110
O1H Tb2 O2L1 76(2) 110 .
O1H Tb2 O2L1 76(2) . .
O2H Tb2 O2L1 128(3) 110 .
O2H Tb2 O2L1 87(2) . .
O2H Tb2 O2L1 142(2) 24_666 .
O2H Tb2 O2L1 157(2) 105_666 .
O2L2 Tb2 O2L1 134(3) 24_666 .
O2L2 Tb2 O2L1 88(3) 105_666 .
O2L1 Tb2 O2L1 54(4) 110 .
O1H Tb2 O2W 138(5) 110 .
O1H Tb2 O2W 138(5) . .
O2H Tb2 O2W 131.5(9) 110 .
O2H Tb2 O2W 131.5(9) . .
O2H Tb2 O2W 129(5) 24_666 .
O2H Tb2 O2W 129(5) 105_666 .
O2L2 Tb2 O2W 74(3) 24_666 .
O2L2 Tb2 O2W 74(3) 105_666 .
O2L1 Tb2 O2W 67(5) 110 .
O2L1 Tb2 O2W 67(5) . .
O1H Tb2 O2H 55.5(10) 110 115
O1H Tb2 O2H 55.5(10) . 115
O2H Tb2 O2H 93.7(15) 110 115
O2H Tb2 O2H 6.4(11) . 115
O2H Tb2 O2H 60.1(13) 24_666 115
O2H Tb2 O2H 72.6(17) 105_666 115
O2L2 Tb2 O2H 142(2) 24_666 115
O2L2 Tb2 O2H 70(2) 105_666 115
O2L1 Tb2 O2H 123(2) 110 115
O2L1 Tb2 O2H 84(2) . 115
O2W Tb2 O2H 134.7(8) . 115
O1H O1H O1H 120(10) 110 120
O1H O1H Tb1 106(10) 110 5
O1H O1H Tb1 131.0(6) 120 5
O1H O1H Tb1 74(9) 110 115
O1H O1H Tb1 158.1(12) 120 115
Tb1 O1H Tb1 31.5(9) 5 115
O1H O1H Tb2 90(10) 110 .
O1H O1H Tb2 146.7(5) 120 .
Tb1 O1H Tb2 16.0(4) 5 .
Tb1 O1H Tb2 16.0(4) 115 .
O1H O1H Tb1 148(10) 110 110
O1H O1H Tb1 32.8(5) 120 110
Tb1 O1H Tb1 98.3(10) 5 110
Tb1 O1H Tb1 127.2(14) 115 110
Tb2 O1H Tb1 114.0(9) . 110
O1H O1H Tb1 32(10) 110 .
O1H O1H Tb1 90.6(4) 120 .
Tb1 O1H Tb1 127.2(14) 5 .
Tb1 O1H Tb1 98.3(10) 115 .
Tb2 O1H Tb1 114.0(9) . .
Tb1 O1H Tb1 116.6(11) 110 .
O1H O1H Tb1 128(10) 110 9
O1H O1H Tb1 14.5(8) 120 9
Tb1 O1H Tb1 118.2(11) 5 9
Tb1 O1H Tb1 144(2) 115 9
Tb2 O1H Tb1 133.2(12) . 9
Tb1 O1H Tb1 21.3(6) 110 9
Tb1 O1H Tb1 96.5(7) . 9
O1H O1H Tb1 52(10) 110 120
O1H O1H Tb1 69.2(4) 120 120
Tb1 O1H Tb1 144(2) 5 120
Tb1 O1H Tb1 118.2(11) 115 120
Tb2 O1H Tb1 133.2(12) . 120
Tb1 O1H Tb1 96.5(7) 110 120
Tb1 O1H Tb1 21.3(6) . 120
Tb1 O1H Tb1 75.7(8) 9 120
Tb1 O2H Tb1 102.9(17) 115 .
Tb1 O2H Tb2 15.9(9) 115 .
Tb1 O2H Tb2 118.6(15) . .
Tb1 O2H Tb2 135(3) 115 101_666
Tb1 O2H Tb2 110(2) . 101_666
Tb2 O2H Tb2 121(2) . 101_666
Tb1 O2H Tb1 116(2) 115 105_666
Tb1 O2H Tb1 114(2) . 105_666
Tb2 O2H Tb1 104.8(19) . 105_666
Tb2 O2H Tb1 20.6(5) 101_666 105_666
Tb1 O2H Tb1 13.7(5) 115 5
Tb1 O2H Tb1 101.1(13) . 5
Tb2 O2H Tb1 20.4(5) . 5
Tb2 O2H Tb1 125.7(19) 101_666 5
Tb1 O2H Tb1 105.7(18) 105_666 5
Tb1 O2H Tb1 133(2) 115 14_666
Tb1 O2H Tb1 94.7(18) . 14_666
Tb2 O2H Tb1 123.9(18) . 14_666
Tb2 O2H Tb1 19.8(5) 101_666 14_666
Tb1 O2H Tb1 21.1(6) 105_666 14_666
Tb1 O2H Tb1 119.9(15) 5 14_666
Tb1 O2H Tb2 112.7(18) 115 9
Tb1 O2H Tb2 9.9(5) . 9
Tb2 O2H Tb2 128.3(15) . 9
Tb2 O2H Tb2 100.6(19) 101_666 9
Tb1 O2H Tb2 106.4(19) 105_666 9
Tb1 O2H Tb2 110.1(13) 5 9
Tb1 O2H Tb2 86.4(16) 14_666 9
Tb1 O2H Tb1 98.6(16) 115 120
Tb1 O2H Tb1 12.0(4) . 120
Tb2 O2H Tb1 113.5(13) . 120
Tb2 O2H Tb1 107.1(18) 101_666 120
Tb1 O2H Tb1 107.0(16) 105_666 120
Tb1 O2H Tb1 94.3(12) 5 120
Tb1 O2H Tb1 89.7(15) 14_666 120
Tb2 O2H Tb1 16.7(4) 9 120
C1L1 O1L1 Tb1 134(5) . .
C1L1 O2L1 O1L1 23(4) . 115
C1L1 O2L1 Tb1 102(5) . 115
O1L1 O2L1 Tb1 80(6) 115 115
C1L1 O2L1 Tb2 122(6) . .
O1L1 O2L1 Tb2 99(6) 115 .
Tb1 O2L1 Tb2 20.6(10) 115 .
C1L1 O2L1 Tb1 115(5) . 5
O1L1 O2L1 Tb1 95(6) 115 5
Tb1 O2L1 Tb1 19.0(9) 115 5
Tb2 O2L1 Tb1 18.6(9) . 5
O1L1 C1L1 N2L1 65(8) 115 55_564
O1L1 C1L1 C6L1 172(10) 115 55_564
N2L1 C1L1 C6L1 112(7) 55_564 55_564
O1L1 C1L1 O1L1 48(10) 115 .
N2L1 C1L1 O1L1 83(6) 55_564 .
C6L1 C1L1 O1L1 139(8) 55_564 .
O1L1 C1L1 O2L1 94(10) 115 .
N2L1 C1L1 O2L1 63(7) 55_564 .
C6L1 C1L1 O2L1 78(7) 55_564 .
O1L1 C1L1 O2L1 139(6) . .
O1L1 C1L1 N2L1 63(10) 115 190_657
N2L1 C1L1 N2L1 69(5) 55_564 190_657
C6L1 C1L1 N2L1 123(5) 55_564 190_657
O1L1 C1L1 N2L1 26(4) . 190_657
O2L1 C1L1 N2L1 132(5) . 190_657
O1L1 C1L1 C3L1 156(9) 115 .
N2L1 C1L1 C3L1 139(6) 55_564 .
C6L1 C1L1 C3L1 27.6(19) 55_564 .
O1L1 C1L1 C3L1 123(7) . .
O2L1 C1L1 C3L1 98(6) . .
N2L1 C1L1 C3L1 120(4) 190_657 .
O1L1 C1L1 N1L1 141(10) 115 190_657
N2L1 C1L1 N1L1 130(5) 55_564 190_657
C6L1 C1L1 N1L1 47(3) 55_564 190_657
O1L1 C1L1 N1L1 94(6) . 190_657
O2L1 C1L1 N1L1 126(5) . 190_657
N2L1 C1L1 N1L1 87(3) 190_657 190_657
C3L1 C1L1 N1L1 33.1(8) . 190_657
O1L1 C1L1 N1L1 141(10) 115 55_564
N2L1 C1L1 N1L1 130(5) 55_564 55_564
C6L1 C1L1 N1L1 47(3) 55_564 55_564
O1L1 C1L1 N1L1 94(6) . 55_564
O2L1 C1L1 N1L1 126(5) . 55_564
N2L1 C1L1 N1L1 87(3) 190_657 55_564
C3L1 C1L1 N1L1 33.1(8) . 55_564
N1L1 C1L1 N1L1 0.0(11) 190_657 55_564
O1L1 C1L1 C6L1 100(10) 115 190_657
N2L1 C1L1 C6L1 106(6) 55_564 190_657
C6L1 C1L1 C6L1 87(4) 55_564 190_657
O1L1 C1L1 C6L1 52(5) . 190_657
O2L1 C1L1 C6L1 157(4) . 190_657
N2L1 C1L1 C6L1 45(2) 190_657 190_657
C3L1 C1L1 C6L1 76(2) . 190_657
N1L1 C1L1 C6L1 43.5(15) 190_657 190_657
N1L1 C1L1 C6L1 43.5(15) 55_564 190_657
O1L1 C1L1 Tb1 46(10) 115 115
N2L1 C1L1 Tb1 33(4) 55_564 115
C6L1 C1L1 Tb1 127(6) 55_564 115
O1L1 C1L1 Tb1 86(4) . 115
O2L1 C1L1 Tb1 53(5) . 115
N2L1 C1L1 Tb1 85.3(14) 190_657 115
C3L1 C1L1 Tb1 150(4) . 115
N1L1 C1L1 Tb1 163(2) 190_657 115
N1L1 C1L1 Tb1 163(2) 55_564 115
C6L1 C1L1 Tb1 129.8(19) 190_657 115
C3L1 C2L1 C3L1 120.2(5) 133_765 .
C3L1 C2L1 C6L1 139.7(7) 133_765 55_564
C3L1 C2L1 C6L1 24.3(6) . 55_564
C3L1 C2L1 C6L1 24.3(6) 133_765 115
C3L1 C2L1 C6L1 139.7(7) . 115
C6L1 C2L1 C6L1 149.9(14) 55_564 115
C3L1 C2L1 H2L1 119.9 133_765 .
C3L1 C2L1 H2L1 119.9 . .
C6L1 C2L1 H2L1 98.6 55_564 .
C6L1 C2L1 H2L1 98.6 115 .
C6L1 C3L1 C4L1 133(2) 55_564 115
C6L1 C3L1 N1L1 95(2) 55_564 55_564
C4L1 C3L1 N1L1 41.3(14) 115 55_564
C6L1 C3L1 N1L1 95(2) 55_564 190_657
C4L1 C3L1 N1L1 41.3(14) 115 190_657
N1L1 C3L1 N1L1 0(2) 55_564 190_657
C6L1 C3L1 C4L1 120(2) 55_564 .
C4L1 C3L1 C4L1 19.3(8) 115 .
N1L1 C3L1 C4L1 24.9(12) 55_564 .
N1L1 C3L1 C4L1 24.9(12) 190_657 .
C6L1 C3L1 C2L1 112(2) 55_564 .
C4L1 C3L1 C2L1 100.8(7) 115 .
N1L1 C3L1 C2L1 139.3(11) 55_564 .
N1L1 C3L1 C2L1 139.3(11) 190_657 .
C4L1 C3L1 C2L1 119.9(5) . .
C6L1 C3L1 C1L1 30(3) 55_564 .
C4L1 C3L1 C1L1 128(3) 115 .
N1L1 C3L1 C1L1 88(3) 55_564 .
N1L1 C3L1 C1L1 88(3) 190_657 .
C4L1 C3L1 C1L1 110(3) . .
C2L1 C3L1 C1L1 130(3) . .
C6L1 C3L1 C5L1 141.5(17) 55_564 55_564
C4L1 C3L1 C5L1 11.0(7) 115 55_564
N1L1 C3L1 C5L1 52.1(10) 55_564 55_564
N1L1 C3L1 C5L1 52.1(10) 190_657 55_564
C4L1 C3L1 C5L1 30.0(5) . 55_564
C2L1 C3L1 C5L1 89.9(4) . 55_564
C1L1 C3L1 C5L1 139(3) . 55_564
C6L1 C3L1 C5L1 141.5(17) 55_564 190_657
C4L1 C3L1 C5L1 11.0(7) 115 190_657
N1L1 C3L1 C5L1 52.1(10) 55_564 190_657
N1L1 C3L1 C5L1 52.1(10) 190_657 190_657
C4L1 C3L1 C5L1 30.0(5) . 190_657
C2L1 C3L1 C5L1 89.9(4) . 190_657
C1L1 C3L1 C5L1 139(3) . 190_657
C5L1 C3L1 C5L1 0.0(4) 55_564 190_657
C3L1 C4L1 C5L1 120.0(9) . .
C3L1 C4L1 C6L1 21.6(11) . 55_564
C5L1 C4L1 C6L1 136.9(14) . 55_564
C3L1 C4L1 H4L1 120.0 . .
C5L1 C4L1 H4L1 120.0 . .
C6L1 C4L1 H4L1 101.5 55_564 .
C4L1 C5L1 C4L1 120.0(13) . 133_765
C4L1 C5L1 N1L1 120.0(7) . .
C4L1 C5L1 N1L1 120.0(7) 133_765 .
C6L1 N1L1 C6L1 97(3) 133_765 .
C6L1 N1L1 C5L1 131.4(17) 133_765 133_765
C6L1 N1L1 C5L1 131.4(17) . 133_765
C6L1 N1L1 C5L1 131.4(17) 133_765 .
C6L1 N1L1 C5L1 131.4(17) . .
C5L1 N1L1 C5L1 0.0(9) 133_765 .
N2L1 C6L1 N1L1 118(3) . .
N2L1 C6L1 H6L1 120.9 . .
N1L1 C6L1 H6L1 120.9 . .
O1L1 N2L1 O2L1 100(9) 190_657 34_645
O1L1 N2L1 C6L1 88(8) 190_657 .
O2L1 N2L1 C6L1 69(5) 34_645 .
O1L1 N2L1 O1L1 43(7) 190_657 34_645
O2L1 N2L1 O1L1 142(5) 34_645 34_645
C6L1 N2L1 O1L1 98(5) . 34_645
O1L1 N2L1 N2L1 71(6) 190_657 133_765
O2L1 N2L1 N2L1 168(5) 34_645 133_765
C6L1 N2L1 N2L1 103.2(13) . 133_765
O1L1 N2L1 N2L1 28(3) 34_645 133_765
O1L1 N2L1 Tb2 103(7) 190_657 34_645
O2L1 N2L1 Tb2 61(5) 34_645 34_645
C6L1 N2L1 Tb2 129.4(11) . 34_645
O1L1 N2L1 Tb2 123(4) 34_645 34_645
N2L1 N2L1 Tb2 127.2(5) 133_765 34_645
O1L1 N2L1 Tb1 115(8) 190_657 27_645
O2L1 N2L1 Tb1 73(5) 34_645 27_645
C6L1 N2L1 Tb1 137.6(11) . 27_645
O1L1 N2L1 Tb1 123(4) 34_645 27_645
N2L1 N2L1 Tb1 117.4(4) 133_765 27_645
Tb2 N2L1 Tb1 17.7(4) 34_645 27_645
O2L2 O1L2 C1L2 40(7) 14_666 .
O2L2 O1L2 Tb2 96(4) 14_666 9
C1L2 O1L2 Tb2 127(4) . 9
O2L2 O1L2 Tb1 79(4) 14_666 .
C1L2 O1L2 Tb1 114(3) . .
Tb2 O1L2 Tb1 17.9(7) 9 .
O2L2 O1L2 Tb1 95(4) 14_666 120
C1L2 O1L2 Tb1 124(3) . 120
Tb2 O1L2 Tb1 2.3(8) 9 120
Tb1 O1L2 Tb1 17.4(5) . 120
C1L2 O2L2 Tb2 150(3) . 101_666
C1L2 O2L2 Tb1 134(4) . 14_666
Tb2 O2L2 Tb1 19.6(6) 101_666 14_666
O1L2 C1L2 O2L2 132(3) . .
O1L2 C1L2 C2L2 114.5(18) . .
O2L2 C1L2 C2L2 113.9(17) . .
C3L2 C2L2 C7L2 120.0 . .
C11L C2L2 C14L 120.1(5) . .
C3L2 C2L2 C1L2 120.0(9) . .
C7L2 C2L2 C1L2 120.0(9) . .
C3L2 C2L2 C3L2 95(6) . 14_666
C7L2 C2L2 C3L2 59(9) . 14_666
C1L2 C2L2 C3L2 115.0(19) . 14_666
C2L2 C3L2 C4L2 120.0 . .
C2L2 C3L2 H3L2 120.0 . .
C4L2 C3L2 H3L2 120.0 . .
C5L2 C4L2 C3L2 120.0 . .
C5L2 C4L2 H4L2 120.0 . .
C3L2 C4L2 H4L2 120.0 . .
C4L2 C5L2 C6L2 120.0 . .
C13L C5L2 C12L 120.1(5) . .
C4L2 C5L2 N1L2 120.0(9) . .
C6L2 C5L2 N1L2 120.0(9) . .
C13L C5L2 N1L2 119.9(9) . .
C12L C5L2 N1L2 120.0(9) . .
C5L2 C6L2 C7L2 120.0 . .
C5L2 C6L2 H6L2 120.0 . .
C7L2 C6L2 H6L2 120.0 . .
C6L2 C7L2 C2L2 120.0 . .
C6L2 C7L2 H7L2 120.0 . .
C2L2 C7L2 H7L2 120.0 . .
C8L2 N1L2 C5L2 114(2) . .
O3L2 C8L2 O3L2 28(10) 190_657 .
O3L2 C8L2 N1L2 126(8) 190_657 .
O3L2 C8L2 N1L2 152(5) . .
O3L2 C8L2 C9L2 129(7) 190_657 .
O3L2 C8L2 C9L2 107(5) . .
N1L2 C8L2 C9L2 102(2) . .
O3L2 C8L2 C9L2 111(9) 190_657 190_657
O3L2 C8L2 C9L2 87(5) . 190_657
N1L2 C8L2 C9L2 121(3) . 190_657
C9L2 C8L2 C9L2 21.1(15) . 190_657
C10L C9L2 C10L 120.0(11) . 11_556
C10L C9L2 C8L2 120.1(12) . .
C10L C9L2 C8L2 120.0(12) 11_556 .
C9L2 C10L C9L2 120.0(11) . 8_645
C9L2 C10L H10L 120.0 . .
C9L2 C10L H10L 120.0 8_645 .
C5L2 C12L C11L 119.9(8) . .
C5L2 C12L H12L 120.0 . .
C11L C12L H12L 120.0 . .
C5L2 C13L C14L 120.0(8) . .
C5L2 C13L H13L 120.0 . .
C14L C13L H13L 120.0 . .
C2L2 C11L C12L 120.0(8) . .
C2L2 C11L H11L 120.0 . .
C12L C11L H11L 120.0 . .
C2L2 C14L C13L 119.9(8) . .
C2L2 C14L H14L 120.0 . .
C13L C14L H14L 120.0 . .
O2L2 O4L2 O1L2 48(7) 101_666 120
O2L2 O4L2 Tb2 128(8) 101_666 9
O1L2 O4L2 Tb2 92(4) 120 9
O2L2 O4L2 Tb1 145(7) 101_666 120
O1L2 O4L2 Tb1 122(4) 120 120
Tb2 O4L2 Tb1 30.8(8) 9 120
O2L2 O4L2 Tb1 136(7) 101_666 .
O1L2 O4L2 Tb1 105(3) 120 .
Tb2 O4L2 Tb1 13.6(11) 9 .
Tb1 O4L2 Tb1 17.3(9) 120 .
loop_
_geom_bond_atom_site_label_1
_geom_bond_atom_site_label_2
_geom_bond_distance
_geom_bond_site_symmetry_2
Tb1 Tb2 0.846(16) 9
Tb1 O2H 2.19(5) .
Tb1 N2L1 2.23(3) 190_657
Tb1 O4L2 2.294(11) .
Tb1 O1H 2.307(15) .
Tb1 O1H 2.307(15) 110
Tb1 O2H 2.37(4) 101_666
Tb1 O1L1 2.42(8) .
Tb1 O2H 2.42(5) 9
Tb1 O2H 2.50(4) 14_666
Tb1 O1L2 2.52(5) .
Tb1 N2L1 2.75(3) 27_645
Tb1 O1L2 2.89(4) 120
Tb1 O1W 2.90(6) .
Tb1 O2H 2.91(5) 120
Tb1 Tb2 3.713(13) 101_666
Tb2 O1H 2.304(16) 110
Tb2 O1H 2.304(16) .
Tb2 O2H 2.31(6) 110
Tb2 O2H 2.31(5) .
Tb2 O2H 2.35(4) 24_666
Tb2 O2H 2.35(4) 105_666
Tb2 O2L2 2.35(4) 24_666
Tb2 O2L2 2.35(5) 105_666
Tb2 O2L1 2.40(9) 110
Tb2 O2L1 2.40(9) .
Tb2 O2W 2.90(6) .
Tb2 O2H 2.91(5) 115
O1H O1H 0.00(11) 110
O1H O1H 0.85(2) 120
O1H Tb1 1.66(2) 5
O1H Tb1 1.66(2) 115
O1H Tb1 2.307(15) 110
O1H Tb1 2.468(16) 9
O1H Tb1 2.468(16) 120
O2H Tb1 1.66(4) 115
O2H Tb2 2.35(4) 101_666
O2H Tb1 2.37(4) 105_666
O2H Tb1 2.42(5) 5
O2H Tb1 2.50(4) 14_666
O2H Tb2 2.91(5) 9
O2H Tb1 2.91(5) 120
O1L1 C1L1 1.229(11) .
O2L1 C1L1 1.230(11) .
O2L1 O1L1 1.38(13) 115
O2L1 Tb1 2.24(10) 115
O2L1 Tb1 2.64(9) 5
C1L1 O1L1 0.55(8) 115
C1L1 N2L1 0.67(5) 55_564
C1L1 C6L1 0.88(4) 55_564
C1L1 N2L1 1.48(6) 190_657
C1L1 C3L1 1.501(11) .
C1L1 N1L1 1.74(4) 190_657
C1L1 N1L1 1.74(4) 55_564
C1L1 C6L1 1.81(8) 190_657
C1L1 Tb1 2.76(4) 115
C2L1 C3L1 1.391(5) 133_765
C2L1 C3L1 1.391(5) .
C2L1 C6L1 1.86(4) 55_564
C2L1 C6L1 1.86(4) 115
C2L1 H2L1 0.9500 .
C3L1 C6L1 0.83(3) 55_564
C3L1 C4L1 0.921(11) 115
C3L1 N1L1 0.953(7) 55_564
C3L1 N1L1 0.953(7) 190_657
C3L1 C4L1 1.390(10) .
C3L1 C5L1 1.813(14) 55_564
C3L1 C5L1 1.813(14) 190_657
C4L1 C5L1 1.393(9) .
C4L1 C6L1 1.94(2) 55_564
C4L1 H4L1 0.9500 .
C5L1 C4L1 1.393(9) 133_765
C5L1 N1L1 1.440(11) .
N1L1 C6L1 1.318(11) 133_765
N1L1 C6L1 1.318(11) .
N1L1 C5L1 1.440(11) 133_765
C6L1 N2L1 1.288(11) .
C6L1 H6L1 0.9500 .
N2L1 O1L1 0.66(8) 190_657
N2L1 O2L1 1.10(8) 34_645
N2L1 O1L1 1.33(7) 34_645
N2L1 N2L1 1.389(11) 133_765
N2L1 Tb2 2.74(3) 34_645
N2L1 Tb1 2.75(3) 27_645
O1L2 O2L2 0.95(13) 14_666
O1L2 C1L2 1.228(11) .
O1L2 Tb2 2.05(4) 9
O1L2 Tb1 2.89(4) 120
O2L2 C1L2 1.229(11) .
O2L2 Tb2 2.35(5) 101_666
O2L2 Tb1 2.52(5) 14_666
C1L2 C2L2 1.500(11) .
C2L2 C3L2 1.3900 .
C2L2 C7L2 1.3900 .
C2L2 C11L 1.391(9) .
C2L2 C14L 1.391(9) .
C2L2 C3L2 1.88(7) 14_666
C3L2 C4L2 1.3900 .
C3L2 H3L2 0.9500 .
C4L2 C5L2 1.3900 .
C4L2 H4L2 0.9500 .
C5L2 C6L2 1.3900 .
C5L2 C13L 1.390(9) .
C5L2 C12L 1.391(9) .
C5L2 N1L2 1.418(11) .
C6L2 C7L2 1.3900 .
C6L2 H6L2 0.9500 .
C7L2 H7L2 0.9500 .
N1L2 C8L2 1.360(11) .
C8L2 O3L2 0.80(11) 190_657
C8L2 O3L2 1.232(11) .
C8L2 C9L2 1.500(11) .
C8L2 C9L2 1.77(5) 190_657
C9L2 C10L 1.390(10) .
C9L2 C10L 1.391(10) 11_556
C10L C9L2 1.391(10) 8_645
C10L H10L 0.9500 .
C12L C11L 1.391(9) .
C12L H12L 0.9500 .
C13L C14L 1.392(9) .
C13L H13L 0.9500 .
C11L H11L 0.9500 .
C14L H14L 0.9500 .
O4L2 O2L2 1.03(8) 101_666
O4L2 O1L2 1.26(8) 120
O4L2 Tb2 1.58(2) 9
O4L2 Tb1 1.61(3) 120
