#------------------------------------------------------------------------------
#$Date: 2019-11-26 03:59:51 +0200 (Tue, 26 Nov 2019) $
#$Revision: 242559 $
#$URL: file:///home/coder/svn-repositories/cod/cif/4/13/26/4132613.cif $
#------------------------------------------------------------------------------
#
# This file is available in the Crystallography Open Database (COD),
# http://www.crystallography.net/
#
# All data on this site have been placed in the public domain by the
# contributors.
#
data_4132613
loop_
_publ_author_name
'Otake, Ken-Ichi'
'Cui, Yuexing'
'Buru, Cassandra T.'
'Li, Zhanyong'
'Hupp, Joseph T.'
'Farha, Omar K.'
_publ_section_title
;
 Single-Atom-Based Vanadium Oxide Catalysts Supported on Metal-Organic
 Frameworks: Selective Alcohol Oxidation and Structure-Activity
 Relationship.
;
_journal_issue                   28
_journal_name_full               'Journal of the American Chemical Society'
_journal_page_first              8652
_journal_page_last               8656
_journal_paper_doi               10.1021/jacs.8b05107
_journal_volume                  140
_journal_year                    2018
_chemical_formula_moiety         'C18 H6 Hf6 O32 (V O2)0.54 V0.96'
_chemical_formula_sum            'C18 H6 Hf6 O33.1 V1.5'
_chemical_formula_weight         1899.18
_space_group_crystal_system      cubic
_space_group_IT_number           227
_space_group_name_Hall           '-F 4vw 2vw 3'
_space_group_name_H-M_alt        'F d -3 m :2'
_atom_sites_solution_hydrogens   geom
_audit_creation_method           SHELXL-2017/1
_audit_update_record
;
2018-02-24 deposited with the CCDC.
2018-03-01 downloaded from the CCDC.
;
_cell_angle_alpha                90
_cell_angle_beta                 90
_cell_angle_gamma                90
_cell_formula_units_Z            16
_cell_length_a                   34.9765(10)
_cell_length_b                   34.9765(10)
_cell_length_c                   34.9765(10)
_cell_measurement_reflns_used    3921
_cell_measurement_temperature    100(2)
_cell_measurement_theta_max      60.01
_cell_measurement_theta_min      4.19
_cell_volume                     42789(2)
_computing_cell_refinement       'Bruker SAINT'
_computing_data_collection       'Bruker APEX2'
_computing_data_reduction        'Bruker SAINT'
_computing_publication_material  'Yadokari-XG (Wakita, Nemoto et al., 2009)'
_computing_structure_refinement  'SHELXL-2017/1 (Sheldrick, 2017)'
_computing_structure_solution    'SHELXT-2014 (Sheldrick 2014)'
_diffrn_ambient_temperature      100(2)
_diffrn_measured_fraction_theta_full 0.999
_diffrn_measured_fraction_theta_max 0.999
_diffrn_measurement_device_type  'Bruker Kappa APEX-II CCD area detector'
_diffrn_measurement_method       '\f and \w scans'
_diffrn_radiation_monochromator  'MX optics'
_diffrn_radiation_type           CuK\a
_diffrn_radiation_wavelength     1.54178
_diffrn_reflns_av_R_equivalents  0.0396
_diffrn_reflns_av_unetI/netI     0.0213
_diffrn_reflns_Laue_measured_fraction_full 0.999
_diffrn_reflns_Laue_measured_fraction_max 0.999
_diffrn_reflns_limit_h_max       39
_diffrn_reflns_limit_h_min       -10
_diffrn_reflns_limit_k_max       37
_diffrn_reflns_limit_k_min       -31
_diffrn_reflns_limit_l_max       29
_diffrn_reflns_limit_l_min       -31
_diffrn_reflns_number            12827
_diffrn_reflns_point_group_measured_fraction_full 0.999
_diffrn_reflns_point_group_measured_fraction_max 0.999
_diffrn_reflns_theta_full        60.002
_diffrn_reflns_theta_max         60.002
_diffrn_reflns_theta_min         2.188
_diffrn_source                   microsource
_exptl_absorpt_coefficient_mu    11.795
_exptl_absorpt_correction_T_max  0.7518
_exptl_absorpt_correction_T_min  0.6562
_exptl_absorpt_correction_type   multi-scan
_exptl_absorpt_process_details   '(SADABS-2014/5; Krause et al., 2015)'
_exptl_crystal_colour            yellow'
_exptl_crystal_density_diffrn    1.195
_exptl_crystal_density_method    'not measured'
_exptl_crystal_description       octahedron
_exptl_crystal_F_000             13734
_exptl_crystal_size_max          0.03
_exptl_crystal_size_mid          0.03
_exptl_crystal_size_min          0.03
_refine_diff_density_max         0.944
_refine_diff_density_min         -0.777
_refine_diff_density_rms         0.135
_refine_ls_extinction_method     none
_refine_ls_goodness_of_fit_ref   1.165
_refine_ls_hydrogen_treatment    constr
_refine_ls_matrix_type           full
_refine_ls_number_parameters     70
_refine_ls_number_reflns         1551
_refine_ls_number_restraints     20
_refine_ls_restrained_S_all      1.159
_refine_ls_R_factor_all          0.0411
_refine_ls_R_factor_gt           0.0354
_refine_ls_shift/su_max          0.001
_refine_ls_shift/su_mean         0.000
_refine_ls_structure_factor_coef Fsqd
_refine_ls_weighting_details
'w=1/[\s^2^(Fo^2^)+(0.0832P)^2^+402.8215P] where P=(Fo^2^+2Fc^2^)/3'
_refine_ls_weighting_scheme      calc
_refine_ls_wR_factor_gt          0.1277
_refine_ls_wR_factor_ref         0.1312
_reflns_Friedel_coverage         0.000
_reflns_number_gt                1334
_reflns_number_total             1551
_reflns_threshold_expression     'I > 2\s(I)'
_cod_data_source_file            ja8b05107_si_002.cif
_cod_data_source_block           Hf-MOF-808-V
_cod_original_cell_volume        42789(4)
_cod_original_sg_symbol_H-M      'F d -3 m'
_cod_original_formula_sum        'C18 H6 Hf6 O33.10 V1.50'
_cod_database_code               4132613
_shelx_shelxl_version_number     2017/1
_shelx_space_group_comment
;
The symmetry employed for this shelxl refinement is uniquely defined
by the following loop, which should always be used as a source of
symmetry information in preference to the above space-group names.
They are only intended as comments.
;
_shelx_res_file
;
TITL 808V1129_a.res in Fd-3m
    808v1129_sq.res
    created by SHELXL-2017/1 at 21:57:04 on 29-Jan-2018
REM  Yadorkari-X generated
CELL 1.54178 34.9765 34.9765 34.9765 90.0000 90.0000 90.0000
ZERR 16.0 0.0010 0.0010 0.0010 0.0000 0.0000 0.0000
LATT 4
SYMM +X, +Z, +Y
SYMM 1/4+Y, -Z, 1/4+X
SYMM 1/4+Y, 1/4+X, -Z
SYMM 1/4+X, -Z, 1/4+Y
SYMM -Z, 1/4+Y, 1/4+X
SYMM 1/4+Z, 1/4+X, -Y
SYMM 1/4+Y, 1/4+Z, -X
SYMM 1/4+Z, 1/4+Y, -X
SYMM 1/4-Z, +X, 1/4-Y
SYMM 1/4+X, 1/4+Z, -Y
SYMM +Y, 1/4-Z, 1/4-X
SYMM +X, 1/4-Z, 1/4-Y
SYMM 1/4-Z, +Y, 1/4-X
SYMM 1/4+X, -Y, 1/4+Z
SYMM 1/4+Y, -X, 1/4+Z
SYMM +X, 1/4-Y, 1/4-Z
SYMM +Y, 1/4-X, 1/4-Z
SYMM -Y, -Z, -X
SYMM 1/4-X, 1/4-Y, +Z
SYMM -Y, -X, -Z
SYMM -Z, -X, -Y
SYMM -Z, -Y, -X
SYMM +Z, 1/4-X, 1/4-Y
REM  SPGR Fd-3m cubic
SFAC C O V Hf H
UNIT 288 529.6 24 96 96
TEMP -173.1
L.S. 100
FMAP 2
PLAN -25
ACTA
CONF
LIST 4
BOND $H
EQIV $2 5/4-Z, +Y, 5/4-X

ABIN
SADI 0.1 O6  V3  O6  V1
ISOR 0.02 0.02 V1  V2  V3
DFIX 2.0 0.02 V2  O8  V2  O9

WGHT    0.083200  402.821472
FVAR       0.00658
C1    1    0.577550    0.172450    0.529034    10.50000    0.03857    0.03857 =
         0.02462   -0.00121    0.00121   -0.00778
AFIX  43
H1    5    0.588186    0.161816    0.506417    10.50000   -1.20000
AFIX   0
C2    1    0.594176    0.204532    0.545468    10.50000    0.03732    0.03042 =
         0.03042    0.00095    0.00493   -0.00493
C3    1    0.631351    0.219478    0.530522    10.50000    0.04539    0.02761 =
         0.02761   -0.00317    0.00357   -0.00357
HF1   4    0.702979    0.272609    0.547021    10.50000    0.02630    0.03162 =
         0.02630    0.00131    0.00480   -0.00131
O1    2    0.645710    0.247353    0.547677    11.00000    0.02732    0.02857 =
         0.03454   -0.00369    0.00956   -0.00644
O2    2    0.736531    0.310175    0.513469    10.50000    0.04355    0.07490 =
         0.04355    0.03248   -0.01166   -0.03248
PART 1
O3    2    0.709709    0.209709    0.540291    10.08330    0.03141
PART 2
O4    2    0.722821    0.222821    0.527179    10.08330    0.01681
O5    2   10.716393   10.319901   10.589800    10.80000    0.09656
PART 1
O6    2   10.699203   10.319400   10.584300    10.20000    0.09955
V1    3    0.685842    0.367831    0.564158    10.04000    0.03603    0.02621 =
         0.03603   -0.01608   -0.01290    0.01608
PART 2
V2    3    0.677231    0.317074    0.572769    10.04500    0.02341    0.03700 =
         0.02341   -0.00065   -0.01402    0.00065
O8    2    0.698905    0.365786    0.551095    10.04500    0.06542
O9    2    0.657413    0.367092    0.592587    10.04500    0.08397
PART 3
V3    3    0.652329    0.343866    0.597671    10.04000    0.06669    0.04850 =
         0.06669   -0.02039    0.01328    0.02039
PART 0

HKLF 4 1 1 0 0 0 1 0 0 0 1




REM  808V1129_a.res in Fd-3m
REM R1 =  0.0354 for    1334 Fo > 4sig(Fo)  and  0.0411 for all    1551 data
REM     70 parameters refined using     20 restraints

END

WGHT      0.0832    402.8761

REM Highest difference peak  0.944,  deepest hole -0.777,  1-sigma level  0.135
Q1    1   0.7169  0.3603  0.5779  11.00000  0.05    0.94
Q2    1   0.7113  0.3604  0.5862  11.00000  0.05    0.89
Q3    1   0.6596  0.3879  0.5904  10.50000  0.05    0.85
Q4    1   0.6812  0.3440  0.6108  11.00000  0.05    0.84
Q5    1   0.6907  0.2706  0.5246  11.00000  0.05    0.84
Q6    1   0.7276  0.3621  0.5600  11.00000  0.05    0.81
Q7    1   0.7095  0.2670  0.5485  11.00000  0.05    0.75
Q8    1   0.6722  0.3510  0.5923  11.00000  0.05    0.67
Q9    1   0.6932  0.3924  0.5189  11.00000  0.05    0.57
Q10   1   0.6716  0.3619  0.5784  10.50000  0.05    0.55
Q11   1   0.6480  0.3317  0.6020  10.50000  0.05    0.52
Q12   1   0.6103  0.3330  0.6103  10.50000  0.05    0.50
Q13   1   0.6855  0.3852  0.5168  11.00000  0.05    0.49
Q14   1   0.6250  0.3471  0.6250  10.25000  0.05    0.48
Q15   1   0.7632  0.2632  0.5456  10.50000  0.05    0.47
Q16   1   0.7709  0.2709  0.5533  10.50000  0.05    0.45
Q17   1   0.7296  0.3955  0.5677  11.00000  0.05    0.44
Q18   1   0.6378  0.3346  0.6197  11.00000  0.05    0.41
Q19   1   0.6250  0.3147  0.6250  10.25000  0.05    0.40
Q20   1   0.7396  0.3174  0.5323  11.00000  0.05    0.35
Q21   1   0.6906  0.2945  0.5514  11.00000  0.05    0.34
Q22   1   0.7500  0.2500  0.5000  10.08333  0.05    0.32
Q23   1   0.7357  0.3315  0.6178  11.00000  0.05    0.31
Q24   1   0.5890  0.1610  0.5373  10.50000  0.05    0.29
Q25   1   0.7444  0.3504  0.6097  11.00000  0.05    0.29
;
_shelx_res_checksum              92385
_shelx_hkl_file
;
   1   1   1  784.18   20.80
   0  -2   2    0.23    0.11
   2   0   2    0.16    0.09
   2   2   2 1000.00   26.54
   1  -1   3  290.19    7.89
  -1  -3   1  299.35    7.88
   1   1   3  300.68    7.89
   1  -3   3   98.08    2.64
   1  -3   3   98.94    2.64
  -1  -3   3  101.62    2.64
  -1  -3   3   96.90    2.64
  -3  -3   1   95.34    2.63
   3   1   3   92.76    2.63
   3   1   3   97.75    2.62
   3   3   3   41.56    1.14
   2   0   4    0.07    0.19
   2   0   4   -0.04    0.17
   0  -4   2    0.09    0.15
   0  -4   2    0.01    0.16
   0   2   4   -0.07    0.17
   0  -2   4    0.02    0.19
  -2  -4   0   -0.25    0.15
  -2  -4   0    0.00    0.08
   2  -2   4    6.59    0.36
  -2  -4   2    6.74    0.35
   2   2   4    5.93    0.33
  -4  -4   0  138.16    3.76
   0  -4   4  136.34    3.76
   0  -4   4  144.76    3.78
   4   0   4  138.78    3.77
   4   0   4  139.30    3.76
  -4  -4  -2    4.19    0.28
   2  -4   4    4.18    0.25
   2  -4   4    4.96    0.35
   4   2   4    4.17    0.30
   4   2   4    4.86    0.29
   4   4   2    4.45    0.17
   4  -4   4    2.58    0.22
   4   4   4    2.27    0.18
   1  -1   5   26.91    0.80
  -1   1   5   24.11    0.77
  -1  -5   1   25.20    0.73
  -1  -5   1   24.13    0.77
   1   1   5   25.09    0.79
   1  -5   3    7.43    0.40
   3  -1   5    8.25    0.42
   1  -5   3    6.99    0.39
   3   1   5    7.16    0.43
   3   1   5    7.69    0.37
  -1  -5   3    7.90    0.38
  -1  -5   3    7.23    0.41
   1  -3   5    7.56    0.36
   5  -1   3    7.34    0.39
  -3  -5  -1    7.16    0.36
  -1   3   5    7.50    0.39
   1  -3   5    7.91    0.41
   5   1   3    7.62    0.40
   1   3   5    7.82    0.38
  -3  -5   1    6.86    0.39
  -3  -5  -3   21.26    0.67
   3  -3   5   21.66    0.75
  -3   3   5   20.86    0.67
   3  -3   5   20.72    0.66
  -3  -5   3   22.16    0.72
   3   3   5   22.21    0.72
   5   3   3   21.61    0.64
  -5  -5  -1    4.89    0.30
   5  -1   5    6.08    0.43
   1  -5   5    5.78    0.40
   1  -5   5    5.36    0.37
  -1  -5   5    5.62    0.42
  -1  -5   5    4.87    0.33
   5   1   5    6.02    0.36
   5   1   5    5.49    0.39
  -5  -5  -3   76.51    2.12
   3  -5   5   74.83    2.13
   3  -5   5   77.77    2.18
   5  -3   5   73.05    2.10
   5  -3   5   78.52    2.18
   5   3   5   80.34    2.18
   5   3   5   81.05    2.13
   5   5   3   78.06    2.07
  -5  -5  -5   50.01    1.39
   5  -5   5   49.42    1.41
   2   0   6    3.01    0.28
   0  -6   2    2.46    0.23
   2   0   6    2.75    0.33
   0  -6   4   -0.32    0.24
   4   0   6   -0.17    0.25
   4   0   6    0.16    0.23
   0  -6   4    0.07    0.23
   0   2   6    2.50    0.27
   0  -2   6    2.84    0.30
  -2  -6   0    2.89    0.22
   6   0   2    2.65    0.23
  -2  -6   0    3.57    0.27
  -2  -6  -2    0.13    0.21
  -2   2   6    0.19    0.23
   2  -2   6   -0.22    0.26
  -2  -6   2    0.15    0.17
   2   2   6   -0.09    0.24
  -2  -6   2   -0.02    0.20
   2  -6   4    5.78    0.34
   2  -6   4    5.83    0.44
   4  -2   6    5.20    0.40
  -2  -6   4    5.23    0.39
   4   2   6    5.64    0.39
   4   2   6    4.98    0.34
  -2  -6   4    5.21    0.36
   0   4   6    0.13    0.25
  -4  -6   0    0.12    0.22
   6   0   4   -0.28    0.25
   0  -4   6   -0.04    0.24
  -4  -6  -2    4.87    0.31
   2  -4   6    5.00    0.38
   2  -4   6    5.59    0.38
  -2   4   6    5.58    0.39
  -4  -6   2    5.46    0.35
   2   4   6    6.43    0.39
   6   2   4    6.02    0.43
  -4  -6  -4  184.84    4.89
  -4   4   6  184.59    4.89
   4  -6   4  180.44    4.90
   4  -4   6  179.86    4.88
   4  -4   6  180.52    4.94
   4   4   6  180.56    4.93
   6   4   4  182.24    4.86
  -6  -6   0   49.92    1.46
   0  -6   6   49.90    1.47
   0  -6   6   51.54    1.50
   6   0   6   49.79    1.49
   6   0   6   49.20    1.47
  -6  -6  -2    6.35    0.42
   2  -6   6    5.92    0.42
   2  -6   6    6.14    0.43
   6  -2   6    6.92    0.50
   6   2   6    6.57    0.45
   6   2   6    6.59    0.42
  -6  -6  -4   13.15    0.52
  -6   4   6   12.85    0.51
   4  -6   6   14.63    0.56
   4  -6   6   14.36    0.68
   6  -4   6   13.11    0.50
   6  -4   6   14.62    0.68
   6   4   6   13.18    0.61
   6   4   6   13.72    0.52
  -6  -6  -6   12.09    0.48
  -6   6   6   12.47    0.50
   6  -6   6   12.59    0.53
   6  -6   6   13.10    0.64
  -1  -7  -1   34.77    1.04
   1  -1   7   34.36    1.07
  -1   1   7   33.80    1.06
  -1  -7   1   32.73    0.98
  -1  -7   1   32.88    1.04
   1   1   7   34.28    1.07
   3  -1   7    9.42    0.53
   1  -7   3    8.85    0.50
   1  -7   3    9.06    0.48
  -1  -7   3   10.62    0.46
   3   1   7    9.93    0.57
   3   1   7    9.90    0.49
  -1  -7   3    9.13    0.51
   5  -1   7    6.73    0.49
   1  -7   5    6.47    0.49
   1  -7   5    5.59    0.36
   5   1   7    6.16    0.45
   5   1   7    6.75    0.45
  -1  -7   5    6.43    0.46
  -1  -7   5    5.88    0.39
   7  -1   3   10.08    0.47
  -1   3   7    9.50    0.50
   1  -3   7   10.89    0.56
  -3  -7  -1    9.10    0.47
   1   3   7    9.07    0.49
   7   1   3    9.63    0.45
  -3  -7   1    9.67    0.50
   3  -3   7   32.15    1.04
   3  -7   3   32.39    1.02
  -3  -7  -3   34.62    1.00
  -3   3   7   32.25    1.01
   3   3   7   31.97    1.04
   3  -7   5    7.08    0.45
   3  -7   5    7.05    0.48
   5  -3   7    7.38    0.54
  -5   3   7    7.19    0.41
   5  -3   7    6.51    0.35
   5   3   7    7.95    0.43
   5   3   7    7.42    0.50
  -3  -7   5    7.49    0.49
  -5  -7  -1    5.99    0.42
   1  -5   7    6.67    0.45
  -1   5   7    6.39    0.47
   1  -5   7    6.60    0.47
  -5  -7   1    6.84    0.40
   1   5   7    6.95    0.42
  -1  -5   7    5.01    0.39
   7   1   5    6.43    0.42
   7   1   5    5.71    0.38
   3  -5   7    7.28    0.42
  -3   5   7    6.58    0.43
  -5  -7  -3    7.07    0.43
   3  -5   7    8.23    0.57
   7   3   5    7.88    0.51
   7   3   5    7.28    0.41
  -5  -7   3    7.74    0.49
   3   5   7    8.13    0.55
  -5  -7  -5    4.42    0.29
  -5  -5  -7    3.96    0.29
  -5   5   7    4.94    0.30
   5  -7   5    5.23    0.34
   5  -5   7    4.64    0.29
   5  -5   7    4.98    0.44
   5   5   7    5.42    0.43
   7   5   5    4.70    0.31
  -7  -7  -1   90.66    2.56
   7  -1   7   91.52    2.59
   1  -7   7   93.47    2.61
   1  -7   7   84.68    2.57
  -1  -7   7   95.26    2.60
  -1  -7   7   94.43    2.59
   7   1   7   91.21    2.59
   7   1   7   91.88    2.57
  -7  -7  -3   27.35    0.92
   3  -7   7   28.42    0.95
   3  -7   7   30.49    1.04
   7  -3   7   27.81    0.86
   7  -3   7   30.73    1.03
   7   3   7   28.97    1.01
   7   3   7   30.06    0.93
  -7  -7  -5  160.04    4.41
  -7   5   7  158.00    4.40
  -5  -7  -7  163.38    4.41
   5  -7   7  158.36    4.43
   5  -7   7  169.91    4.53
   7  -5   7  158.77    4.41
   7  -5   7  173.05    4.52
   7   5   7  168.23    4.51
   7   5   7  162.95    4.41
  -7  -7  -7  244.03    6.76
  -7   7   7  243.74    6.77
   7  -7   7  250.76    6.79
   7  -7   7  272.74    6.90
   0  -8   0  186.93    5.05
   0  -8   2   -0.61    0.27
   0  -8   2   -0.22    0.22
   2   0   8    0.26    0.27
   4   0   8   77.02    2.11
   0  -8   4   75.30    2.09
   4   0   8   71.48    2.13
   0  -8   4   71.91    2.10
   6   0   8    0.15    0.29
   6   0   8   -0.18    0.32
   0  -8   6    0.19    0.31
   0  -8   6    0.15    0.29
  -2  -8   0   -0.19    0.16
  -2  -8   0    0.54    0.28
   0   2   8   -0.08    0.30
   8   0   2   -0.01    0.20
  -2   2   8   36.06    1.14
   2  -8   2   36.92    1.13
  -2  -8  -2   35.04    1.11
   2  -2   8   36.36    1.16
  -2  -8   2   34.36    1.12
   2   2   8   36.88    1.17
  -2  -8   2   36.82    1.07
   2  -8   4   14.36    0.64
   2  -8   4   14.85    0.65
   4  -2   8   15.19    0.69
  -2  -8   4   15.03    0.66
  -2  -8   4   15.43    0.61
   4   2   8   15.58    0.64
   4   2   8   15.69    0.67
   6  -2   8   69.29    2.02
   2  -8   6   68.01    2.00
   2  -8   6   62.95    1.96
   6   2   8   70.12    2.03
   6   2   8   70.47    1.98
  -2  -8   6   72.69    2.00
  -2  -8   6   69.72    2.01
   0  -4   8   75.01    2.10
   8   0   4   71.79    2.06
  -4  -8   0   71.67    2.06
   0   4   8   73.21    2.08
  -4  -8  -2   14.17    0.62
   2  -4   8   14.86    0.66
  -2   4   8   14.51    0.62
  -4  -8   2   15.28    0.62
   2   4   8   15.09    0.70
   8   2   4   15.83    0.63
   4  -4   8    8.23    0.59
   4  -8   4    8.44    0.51
  -4   4   8    7.71    0.48
   4  -4   8    8.19    0.44
  -4  -8  -4    8.46    0.48
  -4  -8   4    8.50    0.53
   4   4   8    9.04    0.61
   4  -8   6   75.70    2.17
   6  -4   8   76.80    2.11
  -6   4   8   74.81    2.14
   4  -8   6   77.74    2.22
  -4  -8  -6   76.14    2.14
   6  -4   8   79.54    2.24
   6   4   8   76.98    2.16
   6   4   8   77.67    2.24
   8   6   4   75.31    2.08
   0  -6   8    0.14    0.30
   0   6   8    0.39    0.31
   8   0   6   -0.30    0.27
   8   0   6    0.13    0.30
  -6  -8   0    0.33    0.29
   2  -6   8   68.43    2.00
  -6  -8  -2   66.56    1.92
   2  -6   8   68.24    1.94
  -2   6   8   68.54    1.95
  -6  -8   2   66.22    1.97
   8   2   6   67.47    1.96
   2   6   8   67.36    1.96
   8   2   6   69.11    1.93
  -6  -8  -4   77.11    2.12
   4  -6   8   74.68    2.12
   4  -6   8   74.64    2.19
  -4   6   8   74.72    2.13
   8   4   6   75.67    2.10
   4   6   8   74.92    2.20
   8   4   6   76.54    2.18
  -8   6   6  204.76    5.69
  -6  -8  -6  209.63    5.71
  -6  -6  -8  203.66    5.68
  -6   6   8  209.85    5.72
   6  -8   6  208.62    5.74
   6  -8   6  225.79    5.82
   6  -6   8  210.75    5.72
   6  -6   8  224.03    5.82
   8  -6   6  207.51    5.71
   6   6   8  219.36    5.81
   8   6   6  213.35    5.68
   0  -8   8    1.95    0.35
   0  -8   8    1.24    0.36
   8   0   8    1.99    0.39
   8   0   8    2.03    0.33
   2  -8   8   56.10    1.72
   2  -8   8   57.54    1.78
   8  -2   8   58.80    1.76
   8   2   8   60.00    1.77
   8   2   8   58.29    1.71
  -8  -8  -4    1.11    0.26
   4  -8   8    1.58    0.29
   4  -8   8    0.63    0.34
   8  -4   8    1.21    0.19
   8  -4   8    1.06    0.38
   8   4   8    1.04    0.37
   8   4   8    0.87    0.25
  -8  -8  -6   17.63    0.65
  -8   6   8   17.19    0.62
  -6  -8  -8   17.09    0.62
  -6   8   8   17.05    0.66
   6  -8   8   17.74    0.69
   6  -8   8   17.95    0.85
   8  -8   6   16.84    0.68
   8  -6   8   16.54    0.63
   8  -6   8   19.72    0.85
   8   6   8   17.17    0.76
  -8  -8  -8    5.89    0.38
  -8   8   8    6.33    0.40
   8  -8   8    5.69    0.37
   8  -8   8    5.14    0.48
  -1  -9  -1   51.49    1.53
   1  -9   1   51.26    1.52
  -1  -9   1   51.97    1.47
  -1  -9   1   51.78    1.54
   1   1   9   53.23    1.56
   9   1   1   50.17    1.46
   3  -1   9   52.26    1.54
   1  -9   3   50.69    1.52
   1  -9   3   50.07    1.49
  -1  -9   3   51.16    1.48
   3   1   9   51.67    1.54
  -1  -9   3   48.15    1.51
   5  -1   9   43.34    1.32
   1  -9   5   41.13    1.30
   1  -9   5   40.12    1.29
  -1  -9   5   41.90    1.28
   5   1   9   41.46    1.29
   5   1   9   44.11    1.36
  -1  -9   5   40.82    1.31
   1  -9   7    4.94    0.44
   7  -1   9    5.30    0.44
   1  -9   7    4.69    0.40
  -1  -9   7    5.01    0.42
   7   1   9    4.24    0.44
  -1  -9   7    5.39    0.43
   7   1   9    4.89    0.41
  -3  -9  -1   52.46    1.41
  -1   3   9   51.36    1.55
   1  -3   9   51.71    1.58
  -3  -9  -1   51.05    1.52
   1   3   9   51.05    1.56
   9   1   3   50.69    1.49
  -3  -9   1   50.01    1.53
  -3  -9   1   52.53    1.45
  -3  -9  -3   16.16    0.64
  -3   3   9   14.24    0.67
   3  -9   3   15.23    0.67
   3  -3   9   14.57    0.72
   3   3   9   16.42    0.74
  -3  -9   3   14.93    0.69
  -3  -9   3   16.10    0.61
   5  -3   9  152.49    4.12
   3  -9   5  148.61    4.10
   3  -9   5  147.61    4.08
   5   3   9  151.24    4.12
  -3  -9   5  144.51    4.10
   3  -9   7   18.67    0.74
   7  -3   9   18.69    0.82
   3  -9   7   19.00    0.82
   7   3   9   19.30    0.72
   7   3   9   18.64    0.83
   9   7   3   18.19    0.56
  -1   5   9   42.77    1.31
   1  -5   9   43.40    1.36
  -5  -9  -1   42.68    1.29
  -5  -9   1   40.52    1.30
   9   1   5   41.06    1.30
   1   5   9   43.27    1.35
   3  -5   9  151.84    4.15
  -5  -9  -3  146.02    4.09
  -3   5   9  150.38    4.09
  -5  -9   3  150.79    4.13
   9   3   5  150.61    4.11
   3   5   9  148.17    4.14
   9   3   5  150.38    4.07
   5  -5   9  120.71    3.36
   5  -9   5  115.20    3.30
   5  -5   9  120.29    3.27
   5  -9   5  122.81    3.37
  -5   5   9  120.87    3.29
  -5  -9  -5  119.65    3.29
   5   5   9  118.87    3.35
   9   5   5  118.17    3.25
   5  -9   7    1.41    0.37
  -5  -9  -7    1.31    0.27
   5  -9   7    1.24    0.29
   7  -5   9    1.16    0.35
   7  -5   9    0.74    0.22
   9   7   5    1.49    0.16
   7   5   9    1.37    0.36
  -1   7   9    5.56    0.42
   1  -7   9    4.30    0.40
   9  -1   7    4.63    0.41
  -7  -9  -1    3.95    0.37
   9   1   7    5.26    0.43
  -7  -9   1    5.32    0.42
   9   1   7    3.70    0.36
   1   7   9    5.20    0.45
   9  -3   7   16.87    0.58
   3  -7   9   18.96    0.80
  -7  -9  -3   18.66    0.70
   3  -7   9   19.08    0.74
  -3   7   9   18.48    0.75
   9  -3   7   19.52    0.82
   3   7   9   18.12    0.82
   9   3   7   18.61    0.72
   9   3   7   19.44    0.78
   9  -5   7    1.53    0.40
   5  -7   9    1.24    0.27
   5  -7   9    1.43    0.37
  -7  -9  -5    0.83    0.27
  -5   7   9    1.08    0.28
   9  -5   7    1.42    0.22
   7  -9   5    1.37    0.30
   5   7   9    0.23    0.39
   9   5   7    1.37    0.24
   9   5   7    1.33    0.38
  -7  -9  -7   -0.32    0.23
  -7   7   9   -0.06    0.25
   7  -9   7   -0.16    0.28
   7  -9   7   -0.03    0.39
   7  -7   9    0.24    0.24
   7  -7   9   -0.02    0.35
   9  -7   7    0.02    0.39
   9  -7   7    0.05    0.23
   7   7   9   -0.26    0.39
   9  -1   9    1.73    0.35
   1  -9   9    1.46    0.34
   1  -9   9    1.51    0.38
  -1  -9   9    2.00    0.40
   9   1   9    2.02    0.41
   9   1   9    1.89    0.35
   3  -9   9   81.46    2.31
   3  -9   9   80.56    2.38
   9  -3   9   80.38    2.37
   9   3   9   79.50    2.36
   9   3   9   79.84    2.29
  -9  -9  -5  201.38    5.55
  -5  -9  -9  202.07    5.54
  -5   9   9  204.45    5.58
   5  -9   9  205.28    5.58
   5  -9   9  209.33    5.66
   9  -5   9  197.98    5.51
   9  -5   9  211.59    5.67
   9   5   9  209.53    5.65
   9   5   9  205.53    5.55
  -9  -9  -7   60.78    1.80
  -7  -9  -9   61.63    1.79
  -7   9   9   61.66    1.82
   7  -9   9   62.26    1.84
   7  -9   9   65.57    1.98
   9  -9   7   61.25    1.84
   9  -9   7   67.36    1.99
   9  -7   9   61.23    1.80
   9  -7   9   65.20    1.98
   9   7   9   63.70    1.95
   9  -9   9  259.77    7.22
   9  -9   9  277.99    7.36
   9   9   9  265.00    7.32
   0 -10   0    0.07    0.29
  10   0   0    0.08    0.17
   0 -10   2    7.63    0.46
   4   0  10    0.37    0.31
   0 -10   4   -0.05    0.26
   0 -10   4   -0.17    0.27
   0 -10   6  110.04    3.06
   0 -10   6  108.16    3.05
   6   0  10  108.03    3.06
   0 -10   8   -0.46    0.32
   8   0  10    0.30    0.32
   0 -10   8    0.25    0.34
  -2 -10   0    8.05    0.39
   0   2  10    8.52    0.61
  -2 -10   0    7.86    0.55
  10   0   2    8.56    0.43
   2 -10   2  235.84    6.38
  -2 -10  -2  236.21    6.36
   2  -2  10  239.79    6.40
  -2 -10   2  240.48    6.33
  10   2   2  230.20    6.33
  -2 -10   2  233.24    6.37
   2   2  10  233.46    6.39
   4  -2  10    3.32    0.40
   2 -10   4    4.10    0.39
   2 -10   4    3.40    0.35
  -2 -10   4    3.80    0.40
  -2 -10   4    3.93    0.33
   4   2  10    3.31    0.41
   6  -2  10   26.47    1.01
   2 -10   6   26.99    0.98
   2 -10   6   26.82    0.96
  -2 -10   6   29.58    0.96
  -2 -10   6   26.28    0.97
   6   2  10   27.52    0.94
   6   2  10   27.70    1.05
   2 -10   8   18.40    0.82
   8  -2  10   17.34    0.80
   2 -10   8   15.91    0.73
   8   2  10   17.91    0.80
   8   2  10   17.75    0.73
  -2 -10   8   18.30    0.77
  10   0   4    0.15    0.27
   0   4  10    0.29    0.34
  -4 -10   0   -0.03    0.30
  -2   4  10    3.70    0.39
   2  -4  10    4.06    0.43
  -4 -10  -2    3.34    0.33
   2   4  10    4.33    0.44
  10   2   4    3.96    0.34
  -4 -10   2    3.03    0.37
   4  -4  10  176.81    4.79
  -4 -10  -4  173.53    4.73
  -4   4  10  173.26    4.75
   4 -10   4  175.23    4.75
  -4 -10   4  165.04    4.77
   4   4  10  180.23    4.80
   6  -4  10   10.68    0.69
  -4 -10  -6    9.76    0.51
   4 -10   6   10.07    0.55
   4 -10   6    9.44    0.65
   6   4  10    9.86    0.68
  -4 -10   6   10.22    0.67
  10   6   4    9.05    0.41
   4 -10   8  129.23    3.61
   4 -10   8  122.50    3.54
   8  -4  10  131.04    3.62
   8   4  10  127.28    3.61
   8   4  10  128.40    3.54
  10   0   6  107.65    3.07
   0   6  10  110.81    3.10
   0  -6  10  113.30    3.14
  -6 -10   0  108.04    3.07
  -2   6  10   26.62    0.96
   2  -6  10   27.87    1.00
  -6 -10  -2   26.39    0.96
  -6 -10   2   27.34    1.00
  10   2   6   27.21    0.96
  10   2   6   29.59    0.94
   2   6  10   27.08    1.03
   4  -6  10    9.21    0.63
  -6 -10  -4    9.55    0.56
  -4   6  10    9.01    0.57
  10   4   6   10.58    0.50
  10   4   6    9.93    0.60
   4   6  10   10.19    0.64
   6 -10   6    9.20    0.68
   6  -6  10    9.26    0.49
  -6 -10  -6    8.84    0.50
  -6   6  10    9.59    0.53
   6  -6  10    8.97    0.69
   6 -10   6    8.88    0.54
  10   6   6    9.14    0.42
   6   6  10    9.61    0.70
   6 -10   8  109.48    3.12
   8  -6  10  107.21    2.97
  -6 -10  -8  104.14    2.99
   6 -10   8  104.04    3.02
   8  -6  10  113.21    3.14
   8   6  10  110.58    3.12
  10   0   8   -0.20    0.34
  10   0   8    0.40    0.31
   0  -8  10    0.53    0.35
  -8 -10   0    0.04    0.32
   0   8  10    0.37    0.35
  -8 -10  -2   18.85    0.77
   2  -8  10   18.26    0.85
  10  -2   8   18.37    0.82
  -2   8  10   18.31    0.80
   2   8  10   17.36    0.84
  10   2   8   17.83    0.74
  10   2   8   18.12    0.80
  10  -4   8  128.26    3.58
   4  -8  10  126.63    3.52
  -8 -10  -4  125.59    3.51
  -4   8  10  127.10    3.53
   4  -8  10  125.00    3.60
   4   8  10  130.37    3.60
  10   4   8  125.23    3.57
  10   4   8  126.79    3.50
  10  -6   8  102.10    2.93
  10  -6   8  111.57    3.10
   6  -8  10  106.38    2.98
   6  -8  10  110.59    3.10
  -6  -8 -10  102.85    2.92
  -6   8  10  105.75    2.98
  -8 -10  -6  104.63    2.96
   8 -10   6  105.00    2.99
   6   8  10  112.50    3.09
  10   6   8  105.08    2.93
  10   6   8  108.59    3.06
  -8 -10  -8  152.61    4.33
  -8   8  10  150.88    4.34
  -8  10   8  152.34    4.33
   8 -10   8  154.45    4.37
   8 -10   8  171.52    4.50
   8  -8  10  157.90    4.35
   8  -8  10  162.59    4.48
  10  -8   8  167.02    4.49
  10  -8   8  156.30    4.34
   8   8  10  165.17    4.48
  10   8   8  160.24    4.45
   0 -10  10   -0.11    0.36
  10   0  10    0.39    0.34
  -2  10  10   37.24    1.25
   2 -10  10   36.87    1.23
   2 -10  10   35.46    1.29
  10  -2  10   37.84    1.29
  10   2  10   36.31    1.29
  10   2  10   37.64    1.23
  -4  10  10    0.51    0.32
   4 -10  10    0.28    0.31
   4 -10  10   -0.08    0.40
  10  -4  10    0.42    0.36
  10   4  10    0.12    0.40
  10   4  10    0.46    0.27
  -6 -10 -10   19.83    0.74
  -6  10  10   21.26    0.81
   6 -10  10   20.52    0.82
   6 -10  10   20.70    0.97
  10 -10   6   20.52    0.80
  10  -6  10   23.08    0.99
  10   6  10   21.75    0.95
   8 -10  10   24.42    0.94
   8 -10  10   27.29    1.13
  10  -8  10   28.97    1.15
  10 -10   8   24.40    0.94
  10 -10   8   26.90    1.14
   8  10  10   28.75    1.13
  10   8  10   27.99    1.12
  10 -10  10    9.28    0.56
  10 -10  10   10.24    0.71
  10  10  10   10.98    0.74
  -1 -11  -1   60.29    1.80
  11   1  -1   58.52    1.68
   1 -11   1   62.38    1.81
  -1 -11   1   62.42    1.73
  -1 -11   1   62.72    1.81
  11   1   1   59.54    1.71
   1 -11   3  134.27    3.74
   3  -1  11  139.27    3.80
   1 -11   3  136.99    3.77
  -1 -11   3  135.63    3.73
  -1 -11   3  134.17    3.77
   1 -11   5    3.94    0.38
   1 -11   5    3.17    0.35
   5  -1  11    3.55    0.41
   5   1  11    3.65    0.39
  -1 -11   5    4.48    0.38
   5   1  11    3.29    0.43
  -1 -11   5    4.25    0.41
   7  -1  11   61.06    1.87
   1 -11   7   61.01    1.87
   1 -11   7   59.96    1.85
   7   1  11   61.55    1.92
   7   1  11   63.65    1.85
  -1 -11   7   63.67    1.86
  -1 -11   7   62.01    1.88
   1 -11   9   10.65    0.67
   9  -1  11    9.44    0.70
   1 -11   9   11.80    0.69
  -1 -11   9   11.50    0.69
   9   1  11   12.61    0.76
   9   1  11   10.26    0.63
  -1 -11   9   10.20    0.69
  -3 -11  -1  129.15    3.68
  -1   3  11  137.45    3.71
  -3 -11  -1  132.57    3.58
  11   1   3  129.40    3.64
  -3 -11   1  131.40    3.69
   1   3  11  136.25    3.72
  -3 -11   1  136.13    3.61
  -3 -11  -3   46.14    1.31
   3 -11   3   49.15    1.49
  -3 -11  -3   47.78    1.46
   3  -3  11   49.09    1.53
  -3 -11   3   49.89    1.42
  -3 -11   3   47.52    1.48
  11   3   3   47.72    1.44
   3   3  11   47.61    1.55
  -3 -11  -5   24.38    0.87
   3 -11   5   23.12    0.89
   3 -11   5   22.94    0.90
   5  -3  11   24.36    0.96
   5   3  11   24.70    0.95
  -3 -11   5   22.81    0.90
   3 -11   7    9.59    0.59
   7  -3  11    9.16    0.60
   3 -11   7    8.64    0.64
   7   3  11    8.77    0.58
   7   3  11    7.96    0.59
  -3 -11   7    9.79    0.59
   3 -11   9    3.07    0.41
   9  -3  11    4.44    0.48
   3 -11   9    3.36    0.38
   9   3  11    3.21    0.37
   9   3  11    2.97    0.46
  -5 -11  -1    3.91    0.39
   1  -5  11    3.40    0.46
  -1   5  11    4.85    0.44
   1   5  11    5.00    0.47
  11   1   5    3.91    0.36
  -5 -11   1    3.90    0.40
  -5 -11  -3   23.51    0.86
  -3   5  11   24.18    0.90
   3  -5  11   24.18    0.97
  -5 -11   3   23.70    0.95
  11   3   5   23.86    0.87
  -5   5  11   62.18    1.81
   5  -5  11   61.97    1.87
   5 -11   5   59.08    1.81
  -5 -11  -5   57.94    1.79
   5 -11   5   63.28    1.85
   5   5  11   61.79    1.88
  -5 -11   5   61.16    1.87
  11   5   5   59.34    1.82
  11   5   5   61.51    1.74
   5 -11   7   56.65    1.73
  -5 -11  -7   57.50    1.71
   7  -5  11   59.87    1.84
   5 -11   7   59.22    1.83
   7   5  11   57.39    1.82
  11   7   5   57.56    1.68
   5 -11   9   10.24    0.73
  -5 -11  -9   10.85    0.54
   5 -11   9    9.00    0.61
   9  -5  11   10.12    0.74
   9   5  11   10.40    0.76
   1  -7  11   62.52    1.89
  -7 -11  -1   60.42    1.85
  11  -1   7   62.76    1.87
  -1   7  11   60.09    1.85
  11   1   7   63.87    1.85
   1   7  11   63.46    1.89
  11   1   7   61.31    1.83
  -7 -11   1   58.64    1.85
  -3   7  11    9.27    0.58
   3  -7  11    8.89    0.63
  -7 -11  -3    8.44    0.54
  11   3   7    9.67    0.63
  -7 -11   3    8.70    0.59
  11   3   7    9.20    0.54
   3   7  11    8.57    0.62
   5  -7  11   59.04    1.86
  -7 -11  -5   58.24    1.74
  -5   7  11   58.72    1.76
   7 -11   5   58.36    1.77
  11   5   7   58.04    1.70
   5   7  11   58.97    1.83
  11   5   7   60.71    1.80
   7  -7  11  152.09    4.17
  11  -7   7  144.57    4.15
   7 -11   7  149.57    4.21
  -7   7  11  150.05    4.18
  -7 -11  -7  149.41    4.18
   7 -11   7  158.20    4.31
   7  -7  11  157.59    4.31
   7   7  11  157.62    4.31
  11   7   7  155.00    4.26
  -7 -11  -9    1.30    0.28
  -7  11   9    0.92    0.30
   7 -11   9    0.94    0.32
   7 -11   9    0.76    0.42
  11  -9   7    0.75    0.28
   9  -7  11    0.82    0.42
   9   7  11    1.24    0.45
  -1   9  11   11.52    0.68
  11  -1   9   11.34    0.68
   1  -9  11   11.12    0.71
  11   1   9   11.10    0.70
   1   9  11   10.89    0.71
  11   1   9   11.05    0.65
  -9 -11  -3    3.73    0.39
  11  -3   9    3.67    0.46
   3  -9  11    3.58    0.48
  -3   9  11    3.57    0.41
  11   3   9    3.23    0.44
   3   9  11    4.31    0.50
  11   3   9    3.23    0.36
  -5   9  11   11.20    0.61
   5  -9  11   10.29    0.60
   5  -9  11    9.95    0.67
  -9 -11  -5   11.25    0.58
  11  -5   9   11.64    0.75
  11   5   9   10.27    0.71
  11   5   9    9.65    0.53
   5   9  11   11.14    0.77
  11  -7   9    1.30    0.40
  -7   9  11    0.91    0.31
   7  -9  11    0.49    0.45
  -9 -11  -7    0.78    0.29
   9 -11   7    0.97    0.32
   9 -11   7    1.03    0.43
   7  -9  11    1.37    0.31
  11   7   9    0.65    0.40
   7   9  11    1.18    0.46
   9 -11   9    2.20    0.34
   9 -11   9    1.13    0.43
   9  -9  11    1.38    0.33
   9  -9  11    2.46    0.49
  11  -9   9    2.62    0.50
  11  -9   9    1.86    0.29
   9   9  11    2.12    0.49
  11   9   9    2.26    0.49
  -1  11  11   25.29    1.02
   1 -11  11   27.01    1.07
  11  -1  11   26.92    1.04
   1  11  11   26.14    1.05
  11   1  11   26.15    1.02
  -3  11  11  190.10    5.24
   3 -11  11  187.22    5.24
   3 -11  11  186.82    5.29
  11  -3  11  192.76    5.30
   3  11  11  188.56    5.28
  11   3  11  191.78    5.29
  11   3  11  192.93    5.23
  -5 -11 -11   29.66    1.00
  -5  11  11   29.14    1.08
   5 -11  11   29.90    1.07
   5 -11  11   31.20    1.21
  11  -5  11   32.98    1.21
   5  11  11   31.11    1.16
  11   5  11   28.84    1.14
  11   5  11   29.37    1.03
  -7  11  11  125.00    3.66
   7 -11  11  129.61    3.69
   7 -11  11  131.10    3.81
  11  -7  11  139.82    3.83
  11 -11   7  130.58    3.68
  11 -11   7  131.46    3.82
   7  11  11  130.96    3.80
  11   7  11  136.10    3.80
   9 -11  11   27.88    1.03
   9 -11  11   28.72    1.22
  11  -9  11   29.81    1.22
  11 -11   9   27.33    1.01
  11 -11   9   30.11    1.22
   9  11  11   29.45    1.22
  11   9  11   29.87    1.23
  11 -11  11   54.07    1.89
  11  11  11   57.51    1.90
   0 -12   0  494.08   12.85
  12   0   0  465.53   12.75
  12   2   0    0.05    0.20
   0 -12   2   -0.46    0.33
   0 -12   2    0.00    0.26
   0 -12   4  204.88    5.54
   0 -12   4  201.95    5.56
   0 -12   6   -0.29    0.32
   6   0  12   -0.03    0.33
   0 -12   6    0.23    0.34
   0 -12   8    1.50    0.41
   0 -12   8    1.07    0.36
   8   0  12    0.78    0.36
  10   0  12   -0.38    0.35
   0 -12  10   -0.23    0.36
   0 -12  10   -0.02    0.36
  -2 -12   0   -0.01    0.20
  12   0   2    0.30    0.23
  -2 -12   0   -0.21    0.33
   2 -12   2    8.97    0.57
   2 -12   2   11.04    0.64
  -2 -12  -2    9.18    0.56
  -2 -12  -2    9.14    0.40
   2   2  12    9.62    0.70
  12   2   2    9.41    0.50
  -2 -12   2    9.80    0.63
  -2 -12   2   10.09    0.51
   4  -2  12   78.38    2.30
   2 -12   4   75.62    2.24
   2 -12   4   75.97    2.26
  -2 -12  -4   76.79    2.24
  -2 -12   4   79.81    2.21
   4   2  12   78.73    2.32
  -2 -12   4   77.19    2.27
   6  -2  12   32.12    1.13
   2 -12   6   31.22    1.09
   2 -12   6   28.47    1.06
  -2 -12   6   32.78    1.06
   6   2  12   31.50    1.19
  -2 -12   6   30.27    1.12
   2 -12   8   11.48    0.76
   8  -2  12   12.79    0.74
   2 -12   8   12.88    0.69
   8   2  12   13.55    0.66
  -2 -12   8   11.47    0.74
  -2 -12   8   12.59    0.72
   8   2  12   12.67    0.81
   2 -12  10   22.69    0.91
   2 -12  10   21.11    0.95
  10  -2  12   21.73    0.96
  10   2  12   22.28    1.01
  10   2  12   21.07    0.87
  12   0   4  201.15    5.43
   0   4  12  199.54    5.49
  -4 -12   0  199.17    5.47
  -2   4  12   74.97    2.24
  -4 -12  -2   77.42    2.22
   2  -4  12   78.16    2.29
  -4 -12   2   74.88    2.22
   2   4  12   76.11    2.28
  12   2   4   77.04    2.19
   4 -12   4   23.12    0.92
  -4 -12  -4   23.78    0.88
   4  -4  12   23.68    0.93
   4 -12   4   25.40    0.93
  -4 -12   4   22.03    0.95
  12   4   4   22.36    0.87
   4   4  12   25.08    1.01
   4 -12   6    1.49    0.39
  -4 -12  -6    1.87    0.33
   6  -4  12    1.76    0.42
   4 -12   6    1.55    0.36
   6   4  12    1.69    0.42
  -4 -12   6    1.27    0.41
   4 -12   8   12.95    0.74
   8  -4  12   12.11    0.78
   4 -12   8   12.57    0.69
  -4 -12  -8   11.74    0.60
   8   4  12   11.78    0.80
   4 -12  10   47.01    1.50
  -4 -12 -10   43.69    1.43
   4 -12  10   45.41    1.58
  10  -4  12   48.89    1.59
  10   4  12   47.21    1.60
  10   4  12   49.03    1.49
  -6 -12   0   -0.13    0.31
   0   6  12    0.88    0.36
  12   0   6    0.27    0.31
  -2   6  12   31.46    1.11
  -6 -12  -2   30.01    1.08
   2  -6  12   32.31    1.18
  -6 -12   2   31.58    1.14
   2   6  12   32.86    1.16
  12   2   6   30.95    1.09
  -4   6  12    1.40    0.35
   6 -12   4    1.40    0.36
  -6 -12  -4    1.07    0.31
   4  -6  12    0.92    0.37
  -6 -12   4    1.01    0.39
   4   6  12    0.85    0.41
  12   4   6    0.89    0.33
  12   4   6    1.29    0.27
   6  -6  12  108.19    3.07
   6 -12   6  105.02    2.98
  -6 -12  -6  104.86    2.95
  -6   6  12  101.43    2.96
   6 -12   6  106.05    3.04
  12   6   6   99.77    2.89
  12   6   6  107.52    3.01
   6   6  12  108.16    3.06
   6 -12   8    0.97    0.33
  -6 -12  -8    1.01    0.30
   6 -12   8    0.81    0.42
   8  -6  12    0.94    0.43
   8   6  12    0.46    0.40
  10  -6  12   92.15    2.74
   6 -12  10   94.85    2.75
  -6  12  10   88.75    2.62
  -6 -12 -10   88.59    2.59
   6 -12  10   89.94    2.65
  10   6  12   94.71    2.75
  -8 -12   0    1.63    0.37
   0   8  12    0.95    0.40
  12   0   8    1.37    0.36
   2  -8  12   13.30    0.78
  -2   8  12   12.70    0.73
  12  -2   8   13.61    0.73
  -8 -12  -2   13.37    0.69
  12   2   8   13.54    0.68
  12   2   8   13.11    0.71
   2   8  12   12.98    0.72
  -8 -12  -4   13.30    0.67
  12  -4   8   12.71    0.77
   4  -8  12   13.00    0.79
  -4   8  12   12.76    0.69
   4   8  12   12.64    0.81
  12   4   8   12.76    0.62
  12   4   8   12.10    0.74
   8 -12   6    0.56    0.42
  -8 -12  -6    1.17    0.30
   8 -12   6    0.82    0.34
  12  -6   8    0.77    0.44
   6  -8  12    0.43    0.43
  -6   8  12    0.59    0.32
  12   6   8    0.61    0.40
  12   6   8    0.69    0.39
   6   8  12    0.12    0.38
   8  -8  12    7.07    0.59
  12  -8   8    4.78    0.52
  -8 -12  -8    6.57    0.44
   8 -12   8    7.91    0.61
   8 -12   8    6.48    0.46
  12  -8   8    5.95    0.55
   8   8  12    5.38    0.54
  12   8   8    5.23    0.52
  10  -8  12   28.03    1.17
   8 -12  10   24.78    0.98
   8 -12  10   26.51    1.14
  12 -10   8   25.44    0.95
  12 -10   8   26.68    1.16
  12  10   8   26.38    1.10
  10   8  12   26.99    1.10
  12   0  10   -0.07    0.35
   0  10  12   -0.21    0.38
  -2  10  12   22.42    0.94
  12  -2  10   24.26    0.98
   2 -10  12   21.23    0.99
  12   2  10   22.70    0.90
  12   2  10   22.17    0.97
   2  10  12   22.45    0.99
   4 -10  12   50.05    1.65
  -4  10  12   48.40    1.54
  12  -4  10   47.59    1.64
   4  10  12   50.32    1.65
  12   4  10   48.58    1.61
  12   4  10   47.63    1.51
   6 -10  12   89.76    2.76
  10 -12   6   89.47    2.65
  12  -6  10   96.51    2.77
   6 -10  12   90.98    2.64
  -6  10  12   88.15    2.63
 -10 -12  -6   90.25    2.62
   6  10  12   95.39    2.76
  12   6  10   93.56    2.73
  10 -12   8   27.27    1.16
  12  -8  10   28.07    1.17
  10 -12   8   26.39    0.99
   8 -10  12   25.64    0.96
   8 -10  12   27.05    1.16
   8  10  12   26.19    1.11
  12   8  10   26.26    1.14
  10 -12  10    1.98    0.36
  10 -12  10    1.43    0.43
  10 -10  12    2.03    0.51
  12 -10  10    1.52    0.49
  10  12  10    1.89    0.50
  10  10  12    2.36    0.52
  12  10  10    3.21    0.54
   0 -12  12  103.54    3.12
   0  12  12  104.52    3.10
  12   0  12  110.75    3.11
  -2  12  12  103.62    3.02
   2 -12  12  103.76    3.06
  12  -2  12  106.30    3.05
   2  12  12  103.72    3.06
  12   2  12  104.40    3.07
  12   2  12  101.60    3.00
  -4  12  12   91.93    2.65
   4 -12  12   88.61    2.65
   4 -12  12   89.28    2.74
  12  -4  12   93.46    2.74
   4  12  12   91.69    2.74
  12   4  12   92.57    2.74
  12   4  12   88.23    2.62
  -6  12  12    0.18    0.33
   6 -12  12    0.55    0.34
   6 -12  12    0.45    0.44
  12  -6  12   -0.05    0.38
  12 -12   6    0.73    0.32
   6  12  12    1.05    0.50
  12   6  12   -0.02    0.46
   8 -12  12    3.66    0.42
   8 -12  12    3.12    0.48
  12  -8  12    4.14    0.57
  12 -12   8    3.96    0.41
  12 -12   8    4.50    0.58
   8  12  12    3.48    0.56
  12   8  12    3.44    0.51
  10 -12  12   61.20    2.10
  12 -10  12   66.25    2.12
  12 -12  10   60.01    2.07
  10  12  12   60.61    2.08
  12  10  12   64.11    2.08
  12  12  10   63.19    2.08
  12 -12  12   19.00    1.02
  12  12  12   18.83    1.08
  -1 -13  -1  159.88    4.43
  -1 -13  -1  155.52    4.33
   1 -13   1  158.30    4.37
  13   1  -1  153.00    4.40
   1 -13   1  164.64    4.44
   1 -13  -1  165.98    4.44
  -1 -13   1  166.37    4.44
  -1 -13   1  160.80    4.35
  13   1   1  156.17    4.33
  -1 -13  -3   29.47    1.07
   1 -13   3   31.18    1.04
   1 -13   3   31.02    1.09
  -1 -13   3   30.97    1.01
  -1 -13   3   30.99    1.10
  13   3   1   28.10    0.96
   1 -13   5   90.71    2.60
   5  -1  13   91.11    2.66
   1 -13   5   91.10    2.62
  -1 -13   5   91.01    2.59
  -1 -13   5   89.28    2.63
   1 -13   7    1.68    0.38
   7  -1  13    1.03    0.38
   1 -13   7    1.96    0.39
  -1 -13   7    1.13    0.35
   7   1  13    0.82    0.37
  -1 -13   7    0.77    0.34
   1 -13   9   18.01    0.86
   9  -1  13   19.79    0.88
   1 -13   9   18.38    0.87
  -1 -13   9   18.91    0.86
  -1 -13   9   18.18    0.88
   9   1  13   18.05    0.86
  11  -1  13    0.61    0.38
   1 -13  11    1.00    0.38
   1 -13  11    0.02    0.38
  11   1  13    0.18    0.34
  -3 -13  -1   29.74    0.90
  -3 -13  -1   31.91    1.08
   3 -13   1   30.29    1.06
   1   3  13   30.94    1.15
  13   1   3   29.80    0.98
  -3 -13   1   30.73    1.09
  -3 -13   1   29.80    0.94
   3 -13   3   22.72    0.89
  -3 -13  -3   25.24    0.91
   3 -13   3   24.09    0.90
  -3 -13   3   23.60    0.90
  -3 -13   3   22.88    0.81
  13   3   3   22.26    0.83
   3   3  13   22.74    1.01
   3 -13   5   52.37    1.65
  -3 -13  -5   52.46    1.61
   5  -3  13   54.17    1.68
   3 -13   5   50.40    1.62
   5   3  13   50.93    1.67
  -3 -13   5   52.83    1.66
  -3 -13  -7   41.41    1.35
   3 -13   7   42.07    1.38
   7  -3  13   42.62    1.44
   3 -13   7   41.41    1.41
   7   3  13   42.32    1.48
  -3 -13   7   41.17    1.39
   9  -3  13    0.37    0.38
   3 -13   9    0.72    0.40
   3 -13   9   -0.10    0.33
   9   3  13    0.40    0.44
  11  -3  13    2.99    0.49
   3 -13  11    3.08    0.42
  -3  13  11    2.21    0.40
   3 -13  11    3.72    0.50
  11   3  13    1.84    0.50
  11   3  13    2.53    0.38
  -1   5  13   91.56    2.61
  -5 -13  -1   90.55    2.59
  -5 -13   1   88.03    2.60
  13   1   5   91.07    2.55
   1   5  13   86.74    2.61
   3  -5  13   53.36    1.70
   5 -13   3   53.22    1.66
  -5 -13  -3   51.17    1.63
  -3   5  13   53.09    1.66
  -5 -13   3   54.74    1.69
  13   3   5   52.83    1.62
   3   5  13   52.62    1.69
  -5 -13  -5    7.84    0.49
   5  -5  13    7.48    0.57
   5 -13   5    8.00    0.55
   5 -13   5    7.60    0.51
   5   5  13    5.69    0.56
  -5 -13   5    7.18    0.54
  13   5   5    8.19    0.56
   7  -5  13    0.03    0.41
  -5 -13  -7   -0.01    0.29
   5 -13   7   -0.32    0.32
   5 -13   7    0.45    0.39
   7   5  13    0.28    0.43
   9  -5  13   46.75    1.59
   5 -13   9   45.51    1.55
  -5 -13  -9   44.71    1.42
   5 -13   9   43.21    1.48
   9   5  13   46.86    1.60
  -5 -13 -11    7.52    0.54
   5 -13  11    7.19    0.54
  11  -5  13    8.49    0.66
  -5  13  11    7.49    0.55
   5 -13  11    7.97    0.64
  11   5  13    8.76    0.68
  -7 -13  -1    1.28    0.36
  -1   7  13    0.90    0.40
  13   1   7    0.96    0.33
   1   7  13    1.76    0.43
  13   1   7    1.02    0.36
  -7 -13   1    1.08    0.39
  -3   7  13   41.79    1.42
  -7 -13  -3   44.61    1.38
   3  -7  13   39.98    1.46
  13   3   7   41.90    1.35
   3   7  13   44.04    1.47
  13   3   7   43.06    1.39
  -7 -13   3   44.09    1.45
   7 -13   5    0.02    0.37
   5  -7  13   -0.33    0.40
  -7 -13  -5    0.18    0.32
  -5   7  13    0.40    0.33
   7 -13   5    0.40    0.35
  13   5   7   -0.10    0.23
  13   5   7    0.04    0.35
   5   7  13   -0.32    0.43
  -7 -13  -7   55.73    1.70
   7  -7  13   56.22    1.84
   7 -13   7   57.28    1.82
   7 -13   7   57.21    1.74
  13   7   7   53.73    1.77
   7   7  13   56.34    1.85
  13  -9   7   13.84    0.66
   7 -13   9   16.02    0.77
  -7 -13  -9   14.53    0.69
   7 -13   9   14.94    0.87
   9  -7  13   15.83    0.90
   9   7  13   15.77    0.92
  13   9   7   14.91    0.83
  13 -11   7   19.09    0.82
  -7  13  11   21.16    0.90
   7 -13  11   20.86    1.01
   7 -13  11   19.84    0.87
  11  -7  13   19.21    0.96
  11   7  13   21.54    1.05
  13  -1   9   19.02    0.85
   1  -9  13   19.79    0.94
  -9 -13  -1   18.34    0.84
  -1   9  13   17.45    0.86
  13   1   9   18.86    0.86
   1   9  13   17.09    0.88
  13   1   9   18.85    0.83
  -3   9  13    0.27    0.35
  13  -3   9    0.42    0.40
  -9 -13  -3    0.34    0.33
   3  -9  13   -0.72    0.37
   3   9  13    0.69    0.44
  13   3   9    0.23    0.36
  13   3   9    0.13    0.30
   5  -9  13   45.90    1.59
   9 -13   5   45.53    1.49
  -5   9  13   44.64    1.48
  13  -5   9   45.54    1.57
  -9 -13  -5   46.13    1.46
  13   5   9   46.92    1.53
  13   5   9   43.52    1.41
   5   9  13   49.47    1.61
   7  -9  13   15.84    0.90
  -7   9  13   14.22    0.72
   9 -13   7   15.94    0.77
  -9 -13  -7   15.65    0.74
  13  -7   9   14.81    0.89
   9 -13   7   16.53    0.89
   7   9  13   15.92    0.93
  13   7   9   13.28    0.83
   9  -9  13    0.92    0.47
   9 -13   9    0.46    0.33
  13  -9   9    1.02    0.47
   9 -13   9    0.92    0.47
  13   9   9    0.72    0.45
   9   9  13    0.16    0.45
  13 -11   9    0.44    0.45
  11  -9  13    1.62    0.46
   9 -13  11    1.72    0.48
   9 -13  11    1.17    0.35
  11   9  13    1.04    0.48
   9  13  11    0.90    0.47
  13  11   9    1.12    0.49
   1 -11  13    0.57    0.41
  -1  11  13    0.74    0.41
  13  -1  11    0.45    0.37
  13   1  11    0.36    0.35
   1  11  13    0.65    0.42
  13  -3  11    2.65    0.46
  -3  11  13    3.24    0.45
   3 -11  13    3.02    0.50
  13   3  11    3.17    0.40
   3  11  13    2.91    0.51
  13   3  11    3.64    0.49
  13  -5  11    7.19    0.60
  -5  11  13    7.91    0.53
   5 -11  13    6.53    0.57
   5  11  13    5.82    0.56
  13   5  11    6.80    0.61
   7 -11  13   20.85    1.05
  11 -13   7   22.73    1.07
  11 -13   7   21.44    0.91
  13  -7  11   21.89    1.07
   7  11  13   21.32    1.08
  13   7  11   21.31    1.06
  13  -9  11    1.22    0.51
   9 -11  13    0.88    0.48
  11 -13   9    0.61    0.43
  11 -13   9    1.05    0.34
   9  11  13    0.76    0.45
  13   9  11    1.48    0.48
  11 -13  11   15.18    0.93
  11 -11  13   16.21    1.01
  13 -11  11   16.03    1.00
  11  13  11   17.06    1.03
  11  11  13   17.39    1.02
  13  11  11   17.03    1.00
  -1  13  13  212.71    5.93
   1 -13  13  215.06    5.97
  13  -1  13  214.46    5.94
   1  13  13  212.33    5.94
  13   1  13  210.49    5.91
  -3  13  13   26.32    1.10
   3 -13  13   25.87    1.13
  13  -3  13   27.81    1.14
   3  13  13   27.14    1.16
  13   3  13   26.23    1.17
  13   3  13   25.96    1.03
  -5  13  13  128.35    3.74
   5 -13  13  132.53    3.85
  13  -5  13  135.71    3.86
   5  13  13  130.92    3.85
  13   5  13  130.38    3.84
   7 -13  13   23.97    1.00
   7 -13  13   25.13    1.16
  13  -7  13   24.13    1.15
  13 -13   7   24.82    0.98
  13 -13   7   25.35    1.17
   7  13  13   25.38    1.17
  13   7  13   23.04    1.15
   9 -13  13   26.59    1.25
  13  -9  13   29.25    1.28
  13 -13   9   26.84    1.25
   9  13  13   29.10    1.28
  13   9  13   27.61    1.24
  13  13   9   27.70    1.24
  11 -13  13    2.21    0.57
  13 -11  13    0.79    0.52
  13 -13  11    1.43    0.54
  11  13  13    1.64    0.56
  13  11  13    1.32    0.53
  13  13  11    1.35    0.54
  13  13  11    0.92    0.58
  13 -13  13  198.73    5.86
  13 -13  13  206.02    5.92
  13  13  13  218.41    5.91
  13  13  13  200.11    5.81
   0 -14   0   -0.11    0.36
   0 -14   0    0.18    0.25
  14   2   0   54.65    1.65
   0 -14  -2   60.41    1.80
   0 -14   2   58.87    1.80
   0 -14   2   59.20    1.72
   0 -14   4    0.10    0.37
   0 -14   4    0.02    0.30
   0 -14   6   80.54    2.37
   0 -14   6   82.07    2.42
   0 -14   8   -0.48    0.36
   8   0  14    0.31    0.37
   0 -14   8   -0.35    0.34
  10   0  14   42.01    1.45
   0 -14  10   41.89    1.45
   0 -14  10   41.79    1.44
  12   0  14    0.35    0.38
   0  14  12    0.25    0.40
  -2 -14   0   61.61    1.82
   2 -14   0   59.59    1.81
  -2 -14   0   56.71    1.68
   2 -14   2  174.82    4.86
  -2 -14  -2  175.55    4.89
   2 -14   2  182.25    4.91
  14   2   2  169.17    4.81
  -2 -14   2  183.57    4.91
  -2 -14   2  178.79    4.82
   2 -14   4   35.76    1.18
   2 -14   4   35.17    1.19
  -2 -14  -4   35.89    1.22
  14   4   2   32.80    1.11
  -2 -14   4   35.43    1.13
  -2 -14   4   34.72    1.24
   2 -14   6    6.71    0.51
   6  -2  14    6.29    0.55
  -2 -14  -6    6.92    0.49
   2 -14   6    6.16    0.49
  -2 -14   6    5.63    0.51
  -2 -14   6    6.70    0.46
   2 -14   8    3.82    0.45
   2 -14   8    3.33    0.44
   8  -2  14    3.89    0.48
  -2 -14   8    4.20    0.45
  -2 -14   8    4.22    0.51
   2 -14  10   66.14    2.01
   2 -14  10   61.74    2.03
  10  -2  14   65.34    2.04
  10   2  14   64.14    2.00
  -2  14  12    8.08    0.59
   2 -14  12    6.63    0.59
  12  -2  14    7.91    0.63
   2 -14  12    7.65    0.59
  12   2  14    7.44    0.56
   2  14  12    7.48    0.62
  -4 -14   0    0.43    0.35
   0   4  14   -0.26    0.41
  -4 -14  -2   34.35    1.21
   4 -14   2   36.07    1.24
  14   2   4   34.75    1.14
   2   4  14   35.84    1.30
  -4 -14   2   35.28    1.25
   4 -14   4    9.61    0.68
   4  -4  14   10.49    0.76
  -4 -14  -4    9.31    0.63
   4 -14   4    9.45    0.67
   4   4  14    9.54    0.65
  -4 -14   4    9.93    0.72
  14   4   4   10.18    0.60
  -4 -14  -6   70.27    2.08
   4 -14   6   70.11    2.13
   4 -14   6   70.67    2.11
   6  -4  14   71.58    2.18
  -4 -14   6   69.94    2.14
  14   6   4   70.63    2.09
   6   4  14   68.48    2.17
   4 -14   8    1.55    0.41
   4 -14   8    1.66    0.39
  -4 -14  -8    1.99    0.36
   8  -4  14    1.59    0.45
   8   4  14    2.61    0.53
   4 -14  10    5.96    0.56
  -4 -14 -10    5.42    0.45
  10  -4  14    5.50    0.56
   4 -14  10    5.11    0.48
  10   4  14    4.78    0.58
  12  -4  14   25.44    1.11
   4 -14  12   22.81    1.08
  -4  14  12   24.48    1.02
  -4 -14 -12   22.09    0.90
   4 -14  12   23.65    0.99
  12   4  14   22.77    1.11
   4  14  12   24.17    1.11
  -6 -14   0   81.11    2.39
   0   6  14   80.74    2.43
  -2   6  14    5.76    0.52
  -6 -14  -2    6.70    0.50
  14   2   6    6.95    0.48
   2   6  14    6.13    0.55
  -6 -14   2    6.74    0.55
  -6 -14  -4   70.57    2.12
   6 -14   4   71.54    2.18
   4  -6  14   70.73    2.22
   6 -14   4   72.22    2.15
  -4   6  14   72.39    2.16
   4   6  14   70.34    2.19
  14   4   6   70.31    2.08
  -6 -14   4   74.73    2.20
  14   4   6   70.59    2.12
   6  -6  14    9.09    0.66
   6 -14   6    9.87    0.71
  -6 -14  -6    8.76    0.62
   6 -14   6    9.60    0.65
  14   6   6    9.42    0.68
   6   6  14   10.16    0.72
   6 -14   8    5.70    0.50
   6 -14   8    8.66    0.63
  -6 -14  -8    7.62    0.56
   8  -6  14    8.05    0.65
  14   8   6    7.24    0.56
   8   6  14    7.66    0.68
  10  -6  14   25.26    1.13
  -6 -14 -10   23.31    0.92
   6 -14  10   25.03    1.09
   6 -14  10   25.41    1.00
  10   6  14   24.63    1.15
  -6  14  12   15.28    0.79
  12  -6  14   15.36    0.95
   6 -14  12   15.85    0.93
   6 -14  12   14.46    0.82
  12   6  14   15.99    0.99
   6  14  12   16.74    0.90
   0   8  14    0.10    0.40
  14   0   8    0.01    0.33
  -8 -14   0    0.05    0.37
  14  -2   8    3.62    0.45
  -2   8  14    2.83    0.45
  -8 -14  -2    3.76    0.46
   2  -8  14    3.69    0.52
  -8 -14   2    3.83    0.50
  14   2   8    4.31    0.41
  14   2   8    3.99    0.45
   2   8  14    3.35    0.49
   4  -8  14    1.29    0.40
  14  -4   8    1.46    0.44
  -8 -14  -4    2.13    0.38
   8 -14   4    2.09    0.39
  -4   8  14    2.11    0.41
  14   4   8    1.43    0.40
  14   4   8    2.14    0.32
   4   8  14    1.87    0.46
   8 -14   6    8.26    0.62
   8 -14   6    7.22    0.52
   6  -8  14    5.89    0.58
  -8 -14  -6    8.34    0.52
  14  -6   8    6.59    0.59
  -6   8  14    7.90    0.54
  14   6   8    8.31    0.59
   6   8  14    6.45    0.58
   8 -14   8    8.30    0.61
  14  -8   8    9.01    0.69
  -8 -14  -8    8.79    0.62
   8  -8  14    9.93    0.71
   8 -14   8    7.44    0.63
  14   8   8    8.93    0.64
   8   8  14    8.78    0.68
  10  -8  14   25.17    1.15
   8 -14  10   23.43    0.99
  14 -10   8   24.64    1.15
   8 -14  10   24.39    1.12
  14  10   8   25.30    1.10
  10   8  14   23.73    1.16
   8 -14  12   12.14    0.77
  12  -8  14   13.72    0.93
  14 -12   8   13.39    0.92
   8 -14  12   12.97    0.91
   8  14  12   14.46    0.97
  14  12   8   12.99    0.88
  12   8  14   10.85    0.80
   0  10  14   43.34    1.50
  14   0  10   43.76    1.46
   2 -10  14   63.92    2.09
  14  -2  10   64.59    2.05
  -2  10  14   65.52    2.04
  14   2  10   63.75    2.03
   2  10  14   67.46    2.08
  14   2  10   65.04    1.99
 -10 -14  -4    5.66    0.49
   4 -10  14    5.58    0.58
  14  -4  10    6.54    0.58
  -4  10  14    5.79    0.52
  14   4  10    5.21    0.43
  14   4  10    4.37    0.52
   4  10  14    5.06    0.58
  -6  10  14   24.53    1.01
 -10 -14  -6   24.44    0.97
  10 -14   6   24.94    1.02
   6 -10  14   26.91    1.15
  14  -6  10   24.88    1.12
  10 -14   6   25.72    1.12
  14   6  10   25.43    1.07
   6  10  14   24.19    1.09
  10 -14   8   25.74    1.00
  14  -8  10   24.33    1.15
   8 -10  14   25.03    1.16
  10 -14   8   25.18    1.14
  14   8  10   24.01    1.10
   8  10  14   25.43    1.17
  10 -14  10   12.88    0.75
  10 -14  10   13.46    0.91
  10 -10  14   13.30    0.94
  14 -10  10   13.86    0.94
  14  10  10   13.00    0.90
  10  10  14   13.80    0.94
  12 -10  14   33.75    1.42
  10 -14  12   32.65    1.41
  14 -12  10   34.49    1.43
  10  14  12   35.09    1.44
  14  12  10   32.84    1.38
  12  10  14   32.87    1.41
   0  12  14    0.10    0.42
  14   0  12   -0.31    0.36
   2 -12  14    7.63    0.63
  14  -2  12    7.27    0.60
  -2  12  14    6.27    0.58
  14   2  12    8.54    0.58
   2  12  14    7.20    0.65
  14  -4  12   25.09    1.13
  -4  12  14   24.60    1.02
   4 -12  14   22.75    1.10
  14   4  12   24.76    1.11
   4  12  14   23.07    1.13
  12 -14   6   15.69    0.81
  14  -6  12   15.96    0.94
   6 -12  14   16.80    0.96
  -6  12  14   14.66    0.79
  14   6  12   15.20    0.93
   6  12  14   16.35    0.99
  12 -14   8   13.05    0.85
  12 -14   8   12.20    0.73
   8 -12  14   13.73    0.93
  14  -8  12   13.73    0.93
   8  12  14   13.57    0.97
  14   8  12   13.06    0.94
  14 -10  12   33.73    1.41
  12 -14  10   33.84    1.41
  10 -12  14   31.68    1.41
  12  14  10   32.60    1.39
  14  10  12   33.22    1.38
  10  12  14   35.06    1.43
  12 -14  12   22.40    1.18
  12 -12  14   24.56    1.22
  14 -12  12   24.05    1.21
  12  12  14   20.95    1.25
  12  14  12   23.85    1.21
  12  14  12   23.14    1.27
  12  12  14   21.62    1.19
  14  12  12   23.39    1.19
  14  12  12   22.89    1.26
   0  14  14  441.80   12.01
  14   0  14  441.84   12.00
  -2  14  14   31.51    1.29
   2 -14  14   32.99    1.31
  14  -2  14   29.99    1.27
   2  14  14   34.34    1.33
  14   2  14   30.16    1.19
  -4  14  14  103.79    3.11
   4 -14  14  104.04    3.19
  14  -4  14  108.15    3.20
   4  14  14  109.70    3.21
  14   4  14  103.34    3.19
   6 -14  14    2.84    0.54
  14  -6  14    3.57    0.57
  14 -14   6    3.11    0.43
   6  14  14    2.63    0.56
  14   6  14    3.19    0.55
   8 -14  14   39.89    1.57
  14  -8  14   40.68    1.57
  14 -14   8   37.14    1.54
   8  14  14   40.55    1.57
  14   8  14   38.92    1.56
  14  14   8   38.97    1.55
  10 -14  14    4.64    0.65
  14 -10  14    6.91    0.72
  14 -14  10    4.96    0.64
  10  14  14    5.87    1.08
  10  14  14    6.12    0.71
  14  10  14    5.74    0.69
  14  10  14    7.54    0.72
  14  14  10    6.29    0.69
  14  14  10    7.17    0.75
  12 -14  14  110.57    3.31
  12 -14  14  114.85    3.56
  14 -12  14  113.21    3.32
  14 -12  14  117.87    3.58
  14 -14  12  116.47    3.33
  14 -14  12  115.89    3.57
  12  14  14  118.48    3.56
  12  14  14  111.37    3.45
  14  12  14  118.40    3.55
  14  12  14  115.00    3.49
  14  14  12  117.99    3.57
  14  14  12  113.37    3.48
  14 -14  14    0.62    0.38
  14 -14  14    0.12    0.50
  14  14  14   -0.62    0.54
  14  14  14   -0.19    0.57
  -1 -15  -1    1.69    0.41
  -1 -15  -1    2.32    0.28
   1 -15   1    1.67    0.31
   1 -15   1    1.12    0.38
   1 -15  -1    1.43    0.41
  -1 -15   1    2.18    0.30
  -1 -15   1    2.06    0.42
   1 -15   3   60.92    1.87
   1 -15   3   60.81    1.83
  -1 -15  -3   61.76    1.89
  -1 -15   3   61.88    1.81
  15   3   1   59.74    1.77
  -1 -15   3   62.18    1.91
   1 -15   5   33.89    1.22
  -1 -15  -5   34.08    1.17
   1 -15   5   32.71    1.15
  -1 -15   5   32.55    1.18
  -1 -15   5   31.68    1.12
   1 -15   7    0.81    0.35
   7  -1  15    0.59    0.40
   1 -15   7    0.81    0.35
  -1 -15   7    1.03    0.35
  -1 -15   7    0.75    0.41
   1 -15   9    6.46    0.53
   9  -1  15    6.94    0.56
   1 -15   9    7.79    0.59
  -1 -15   9    6.63    0.54
  -1 -15   9    5.54    0.53
   1 -15  11   69.45    2.20
   1 -15  11   71.03    2.22
  11  -1  15   70.75    2.21
  11   1  15   71.46    2.21
  -1  15  13   42.72    1.54
   1 -15  13   42.34    1.59
  13  -1  15   45.14    1.58
  13   1  15   44.70    1.54
   1  15  13   42.69    1.58
   3 -15   1   61.05    1.93
  -3 -15  -1   64.33    1.92
  15   1   3   61.25    1.81
  -3 -15   1   62.43    1.93
   3 -15   3  185.28    5.03
  -3 -15  -3  181.34    5.01
   3 -15   3  180.66    5.00
  -3 -15   3  184.95    5.04
  15   3   3  172.95    4.94
  -3 -15   3  180.91    4.93
   3 -15   5   -0.03    0.37
   3 -15   5   -0.19    0.34
  -3 -15  -5    0.40    0.34
  -3 -15   5    0.23    0.41
  15   5   3    0.41    0.31
   3 -15   7   35.98    1.31
  -3 -15  -7   38.07    1.28
   7  -3  15   36.87    1.38
   3 -15   7   40.86    1.35
  -3 -15   7   39.34    1.38
  -3 -15  -9    5.93    0.48
   9  -3  15    6.10    0.54
   3 -15   9    5.76    0.51
   3 -15   9    5.12    0.52
  -3 -15   9    5.17    0.51
  11  -3  15   78.27    2.40
  -3 -15 -11   76.06    2.28
   3 -15  11   77.08    2.35
   3 -15  11   75.00    2.38
  13  -3  15   20.40    1.02
  -3  15  13   19.54    0.98
   3 -15  13   18.84    0.99
  13   3  15   18.99    0.93
   3  15  13   18.77    1.04
  -5 -15  -1   33.12    1.18
   5 -15   1   33.05    1.16
  -1   5  15   33.53    1.22
  -5 -15   1   31.69    1.15
  15   1   5   30.83    1.10
   1   5  15   32.03    1.24
  -5 -15  -3    0.09    0.36
   5 -15   3   -0.50    0.35
   5 -15   3    0.53    0.39
  15   3   5    0.38    0.32
   3   5  15    0.71    0.46
  -5 -15   3    0.19    0.39
   5 -15   5   83.30    2.47
   5 -15   5   83.02    2.46
  -5 -15  -5   81.27    2.43
   5  -5  15   80.52    2.50
   5   5  15   83.02    2.53
  -5 -15   5   84.41    2.50
  15   5   5   82.05    2.42
  -5 -15  -7    6.81    0.49
   7  -5  15    6.87    0.60
   5 -15   7    7.56    0.56
   5 -15   7    6.54    0.54
   7   5  15    6.21    0.61
  15   7   5    6.57    0.52
  -5 -15   7    6.57    0.60
   5 -15   9   13.97    0.82
  -5 -15  -9   13.47    0.72
   5 -15   9   13.91    0.77
   9  -5  15   14.27    0.87
   9   5  15   13.34    0.93
   5 -15  11    3.34    0.52
  -5 -15 -11    3.21    0.40
   5 -15  11    2.81    0.44
  11  -5  15    3.42    0.55
  11   5  15    3.48    0.58
   5 -15  13    0.64    0.39
  13  -5  15    0.27    0.44
  -5  15  13    0.78    0.41
   5 -15  13   -0.14    0.42
  13   5  15   -0.07    0.51
   5  15  13    0.21    0.52
  -7 -15  -1    0.75    0.39
  -1   7  15    0.49    0.40
  -7 -15   1    0.57    0.39
   1   7  15    1.37    0.48
  -3   7  15   40.99    1.37
   7 -15   3   41.04    1.37
  -7 -15  -3   39.26    1.36
  15   3   7   37.23    1.30
   3   7  15   39.07    1.41
  15   3   7   38.23    1.34
  -7 -15   3   40.96    1.42
   7 -15   5    7.31    0.58
  -7 -15  -5    6.83    0.51
   5  -7  15    5.93    0.56
   7 -15   5    5.98    0.52
  15   5   7    5.91    0.51
   5   7  15    5.35    0.57
   7  -7  15   27.91    1.18
   7 -15   7   27.69    1.15
   7 -15   7   25.19    1.07
  -7 -15  -7   27.59    1.04
   7   7  15   30.38    1.23
  15   7   7   27.20    1.10
  -7 -15  -9    1.38    0.36
   7 -15   9    1.57    0.40
   7 -15   9    2.06    0.48
   9  -7  15    1.51    0.45
  15   9   7    1.55    0.45
   9   7  15    2.46    0.55
  11  -7  15    0.42    0.47
   7 -15  11   -0.10    0.35
   7 -15  11   -0.50    0.41
  15  11   7    0.00    0.43
  11   7  15    1.02    0.53
   7 -15  13   -0.79    0.45
   7 -15  13   -0.30    0.37
  15 -13   7    0.48    0.49
  13  -7  15    0.06    0.47
  13   7  15   -0.07    0.51
  15  13   7    0.00    0.53
   7  15  13   -0.09    0.51
  -1   9  15    7.59    0.59
  -9 -15  -1    6.33    0.54
  15  -1   9    7.18    0.55
   1   9  15    5.46    0.58
  15   1   9    6.70    0.53
  -3   9  15    7.06    0.57
  -9 -15  -3    7.00    0.53
   3  -9  15    5.72    0.56
  15  -3   9    6.07    0.56
  15   3   9    6.90    0.50
   3   9  15    5.35    0.55
  15   3   9    7.72    0.58
  -9 -15  -5   14.77    0.78
  15  -5   9   13.70    0.85
   5  -9  15   15.74    0.90
   9 -15   5   12.44    0.75
   9 -15   5   13.41    0.85
  -5   9  15   13.57    0.77
   5   9  15   15.25    0.94
  15   5   9   13.69    0.85
  -9 -15  -7    2.17    0.39
   9 -15   7    1.92    0.48
   9 -15   7    2.06    0.40
   7  -9  15    1.72    0.49
  15  -7   9    2.16    0.49
  15   7   9    2.41    0.47
   7   9  15    2.74    0.51
   9  -9  15   11.21    0.88
  15  -9   9   11.30    0.87
   9 -15   9    9.66    0.73
   9 -15   9   10.83    0.69
   9   9  15   12.89    0.84
  15   9   9   10.28    0.72
   9 -15  11   17.40    0.87
   9 -15  11   17.42    1.02
  15 -11   9   18.91    1.05
  11  -9  15   17.53    1.05
  15  11   9   19.16    1.01
  11   9  15   18.44    1.09
   9 -15  13   31.54    1.39
  15 -13   9   31.41    1.33
  13  -9  15   31.32    1.39
   9  15  13   30.37    1.38
  15  13   9   31.19    1.39
  15  13   9   30.55    1.39
  13   9  15   31.80    1.40
  -1  11  15   69.28    2.22
  15  -1  11   71.86    2.24
   1  11  15   71.64    2.26
  15   1  11   73.19    2.21
  -3  11  15   79.30    2.38
  15  -3  11   80.57    2.43
   3 -11  15   75.93    2.46
   3  11  15   79.22    2.45
  15   3  11   76.28    2.33
  15   3  11   76.67    2.41
  15  -5  11    3.04    0.55
   5 -11  15    3.12    0.52
  -5  11  15    2.67    0.45
  11 -15   5    3.51    0.44
   5  11  15    2.45    0.56
  15   5  11    3.11    0.50
  11 -15   7    0.19    0.37
  11 -15   7    0.28    0.44
   7 -11  15   -0.05    0.39
  15  -7  11    0.16    0.46
   7  11  15   -0.34    0.46
  15   7  11    0.38    0.43
  11 -15   9   18.52    0.87
  11 -15   9   18.05    1.05
  15  -9  11   18.75    1.07
   9 -11  15   18.25    1.05
   9  11  15   16.60    0.99
  15   9  11   17.66    0.99
  11 -11  15  169.58    5.01
  15 -11  11  170.21    5.02
  11 -15  11  173.14    5.01
  15  11  11  167.18    4.94
  11  15  11  176.09    4.99
  15  11  11  176.87    4.97
  11  11  15  173.51    4.99
  11 -15  13    1.43    0.38
  13 -11  15    1.88    0.56
  11 -15  13    1.19    0.55
  15 -13  11    0.62    0.37
  15 -13  11    2.44    0.58
  13  11  15    2.13    0.61
  15  13  11    0.84    0.54
  13  11  15    1.86    0.61
  11  15  13    2.34    0.61
  15  13  11    1.33    0.58
  11  15  13    1.26    0.59
  -1  13  15   42.34    1.54
  15  -1  13   46.10    1.58
  15   1  13   43.33    1.52
   1  13  15   41.95    1.57
   3 -13  15   18.94    1.05
  -3  13  15   19.37    0.99
  15  -3  13   20.71    1.01
   3  13  15   19.73    1.06
  13 -15   5    0.38    0.35
  -5  13  15   -0.04    0.37
   5 -13  15    1.21    0.47
  15  -5  13    0.64    0.45
   5  13  15    0.50    0.50
  15   5  13    0.79    0.50
  15  -7  13    0.19    0.46
   7 -13  15    0.14    0.47
  13 -15   7   -0.18    0.43
  13 -15   7   -0.04    0.37
   7  13  15   -0.13    0.50
  15   7  13   -0.54    0.48
   9 -13  15   29.89    1.36
  13 -15   9   29.49    1.35
  15  -9  13   29.73    1.37
  15   9  13   32.53    1.37
  15   9  13   29.15    1.35
   9  13  15   32.69    1.40
  11 -13  15    1.82    0.60
  15 -11  13    1.33    0.54
  13 -15  11    1.13    0.40
  13 -15  11    1.23    0.55
  11 -13  15    0.86    0.38
  15 -11  13    1.54    0.57
  13  15  11    1.97    0.60
  11  13  15    1.56    0.57
  15  11  13    2.10    0.55
  15  11  13    1.56    0.60
  13  15  11    1.86    0.62
  11  13  15    2.18    0.59
  13 -15  13   36.52    1.33
  13 -15  13   37.78    1.61
  13 -13  15   34.92    1.32
  13 -13  15   40.70    1.63
  15 -13  13   36.32    1.34
  15 -13  13   40.81    1.63
  13  15  13   38.18    1.63
  13  15  13   39.21    1.62
  13  13  15   38.41    1.62
  13  13  15   35.62    1.58
  15  13  13   36.99    1.59
  15  13  13   37.10    1.63
  -1  15  15  113.59    3.29
  15  -1  15  109.30    3.28
   1  15  15  107.38    3.30
  15   1  15  107.22    3.23
  -3  15  15  153.60    4.42
   3 -15  15  151.61    4.50
  15  -3  15  153.70    4.49
   3  15  15  157.98    4.50
  -5  15  15    1.88    0.47
   5 -15  15    1.32    0.50
  15  -5  15    1.52    0.52
  15 -15   5    2.27    0.43
   5  15  15    1.58    0.57
   7 -15  15   10.66    0.82
  15  -7  15   11.79    0.86
  15 -15   7   12.27    0.89
  15 -15   7   12.69    0.90
   7  15  15   11.48    0.87
  15   7  15   10.61    0.85
  15   7  15   12.87    0.84
  15  15   7   12.97    0.88
   9 -15  15   32.58    1.23
   9 -15  15   33.79    1.48
  15  -9  15   36.18    1.51
  15 -15   9   35.91    1.50
  15 -15   9   36.09    1.26
   9  15  15   32.82    1.47
   9  15  15   33.15    1.51
  15   9  15   36.27    1.55
  15   9  15   32.04    1.46
  15  15   9   35.98    1.49
  15  15   9   35.48    1.54
  11 -15  15   81.46    2.42
  11 -15  15   80.02    2.67
  15 -11  15   83.68    2.41
  15 -11  15   80.87    2.68
  15 -15  11   78.97    2.41
  15 -15  11   79.70    2.66
  11  15  15   83.49    2.69
  11  15  15   79.60    2.59
  15  11  15   75.02    2.64
  15  11  15   77.59    2.57
  15  15  11   77.00    2.64
  15  15  11   80.22    2.61
  13 -15  15    0.44    0.39
  13 -15  15    0.10    0.53
  15 -13  15    0.69    0.39
  15 -13  15   -0.50    0.54
  15 -15  13    0.06    0.37
  15 -15  13    0.59    0.54
  13  15  15    0.86    0.62
  13  15  15    0.21    0.63
  15  13  15    0.30    0.60
  15  13  15    1.13    0.64
  15  15  13    0.24    0.59
  15  15  13   -0.31    0.59
  15 -15  15   57.71    1.86
  15 -15  15   53.45    2.13
  15  15  15   57.15    2.16
  15  15  15   56.41    2.07
   0 -16   0   49.61    1.56
   0 -16   0   46.39    1.45
   0 -16   2   -0.65    0.37
   0 -16   2    0.06    0.28
   0 -16  -2    0.05    0.38
   0 -16  -4    3.15    0.44
   0 -16   4    2.28    0.36
   0 -16   4    2.14    0.45
   0 -16   6   -0.05    0.39
   0 -16   6    0.51    0.33
   0 -16   8   28.92    1.10
   0 -16   8   27.60    1.15
  10   0  16   -0.46    0.37
   0 -16  10    0.08    0.38
   0 -16  10   -0.75    0.41
  12   0  16   19.31    0.99
  14   0  16   -0.08    0.38
   0  16  14   -0.54    0.45
   2 -16   0   -0.12    0.39
  -2 -16   0    0.15    0.38
   2 -16   0    0.14    0.29
  -2 -16  -2    0.57    0.35
   2 -16   2    0.72    0.39
   2 -16   2    0.42    0.31
  -2 -16   2    0.03    0.39
   2 -16  -2    0.28    0.40
   2 -16   4  169.50    4.65
  -2 -16  -4  168.87    4.63
   2 -16   4  163.56    4.60
  16   4   2  158.04    4.54
  -2 -16   4  169.52    4.66
  -2 -16   4  164.91    4.56
  -2 -16  -6    9.99    0.67
   2 -16   6   10.61    0.74
   2 -16   6    9.71    0.64
  -2 -16   6   10.66    0.64
  -2 -16   6   10.52    0.69
  16   6   2    9.47    0.59
   2 -16   8   11.21    0.71
  -2 -16  -8    9.21    0.67
   2 -16   8   11.27    0.70
   8  -2  16   11.14    0.79
  -2 -16   8   11.05    0.81
  -2 -16 -10    1.39    0.38
   2 -16  10    1.27    0.41
  10  -2  16    1.01    0.40
   2 -16  10    1.44    0.42
   2 -16  12  165.87    4.90
   2 -16  12  173.98    4.89
  12  -2  16  176.42    4.92
  -2  16  14    5.69    0.61
  14  -2  16    7.17    0.65
   2 -16  14    6.08    0.63
  14   2  16    5.95    0.57
   2  16  14    5.42    0.64
   4 -16   0    2.09    0.45
  -4 -16   0    2.01    0.39
   4 -16   2  161.96    4.57
  -4 -16  -2  166.35    4.59
   4 -16   2  164.63    4.60
  -4 -16   2  171.54    4.62
  16   2   4  157.10    4.52
  -4 -16  -4    1.50    0.39
   4 -16   4    2.02    0.43
   4 -16   4    2.19    0.40
  -4 -16   4    2.07    0.47
  16   4   4    1.48    0.34
   4 -16   6   72.99    2.22
   4 -16   6   71.67    2.21
   6  -4  16   74.91    2.29
  -4 -16  -6   70.57    2.17
  16   6   4   70.87    2.15
  -4 -16   6   72.76    2.25
   6   4  16   71.95    2.31
   8  -4  16    8.29    0.65
   4 -16   8    8.71    0.60
  -4 -16  -8    8.20    0.61
   4 -16   8    8.38    0.62
  16   8   4    8.74    0.58
   8   4  16    9.25    0.73
  -4 -16   8    9.49    0.68
   4 -16  10    0.86    0.42
  10  -4  16    0.77    0.45
  -4 -16 -10    1.29    0.37
   4 -16  10    1.60    0.42
  -4  16  12   11.18    0.70
   4 -16  12   11.46    0.82
  -4 -16 -12    9.33    0.67
  12  -4  16   11.34    0.84
   4 -16  12   10.94    0.81
  -4  16  14   11.07    0.73
  14  -4  16   12.07    0.89
   4 -16  14   10.61    0.78
   4  16  14    9.90    0.78
  16  14   4    8.22    0.75
  -6 -16   0    0.06    0.38
   0   6  16    0.52    0.45
   6 -16   2   11.33    0.70
  -6 -16  -2    9.78    0.70
  -6 -16   2   10.51    0.72
   2   6  16   11.08    0.73
  16   2   6    9.63    0.63
   6 -16   4   70.92    2.22
   6 -16   4   71.14    2.20
  -6 -16  -4   71.98    2.18
  16   4   6   69.44    2.11
  16   4   6   70.74    2.15
  -6 -16   4   74.98    2.25
   4   6  16   74.09    2.29
   6 -16   6   39.76    1.36
   6  -6  16   36.42    1.39
  -6 -16  -6   37.78    1.30
   6 -16   6   38.76    1.39
  16   6   6   39.20    1.34
  -6 -16   6   36.63    1.42
   6   6  16   39.45    1.48
   6 -16   8   20.80    0.99
   8  -6  16   20.38    1.03
  -6 -16  -8   21.11    0.90
   6 -16   8   21.08    0.96
   8   6  16   21.46    1.10
  16   8   6   19.07    0.95
   6 -16  10    4.49    0.54
  -6 -16 -10    4.01    0.44
  10  -6  16    4.93    0.60
   6 -16  10    4.45    0.52
  16  10   6    3.78    0.51
  10   6  16    4.79    0.60
  12  -6  16   -0.25    0.46
   6 -16  12   -0.37    0.39
  -6  16  12    0.04    0.40
   6 -16  12    0.40    0.46
  12   6  16    0.66    0.54
  16  12   6    0.51    0.54
   6 -16  14   28.91    1.34
  14  -6  16   34.96    1.41
   6  16  14   34.38    1.43
  14   6  16   29.23    1.40
  16  14   6   30.47    1.37
  16   0   8   28.03    1.12
   0   8  16   29.14    1.19
  -8 -16   0   27.89    1.13
  -2   8  16   10.63    0.75
  16  -2   8   10.80    0.79
  -8 -16  -2   10.76    0.79
  -8 -16   2   12.25    0.79
  16   2   8   11.24    0.74
  16   2   8   10.51    0.67
   2   8  16    8.67    0.68
   8 -16   4    8.54    0.64
  -8 -16  -4    9.67    0.61
   4  -8  16    9.56    0.71
  -4   8  16   10.09    0.65
   8 -16   4    8.84    0.61
  16   4   8    9.36    0.63
   4   8  16    9.01    0.72
   8 -16   6   19.65    0.99
   8 -16   6   20.42    0.93
   6  -8  16   19.40    0.97
  -8 -16  -6   20.93    0.91
   6   8  16   21.92    1.08
  16   6   8   18.96    0.95
   8  -8  16    6.45    0.63
  -8 -16  -8    7.19    0.53
   8 -16   8    6.72    0.56
   8 -16   8    7.40    0.64
  16   8   8    7.85    0.62
   8   8  16    7.56    0.71
  10  -8  16    8.63    0.70
  16 -10   8   11.49    0.81
   8 -16  10   12.23    0.75
   8 -16  10   10.98    0.86
  16  10   8   11.19    0.82
  10   8  16   11.78    0.87
  16 -12   8    8.90    0.75
   8 -16  12   11.25    0.82
  12  -8  16    9.42    0.81
   8 -16  12    9.36    0.65
  12   8  16   11.57    0.86
  16  12   8    7.67    0.70
  16  12   8    8.08    0.73
   8  16  12   10.28    0.80
  14  -8  16    0.54    0.50
   8 -16  14    0.93    0.51
  16 -14   8    0.49    0.37
   8 -16  14    1.07    0.38
  16 -14   8    0.08    0.49
  16  14   8    0.47    0.52
  14   8  16    0.87    0.55
  16  14   8   -0.05    0.57
   8  16  14    0.71    0.57
  14   8  16    0.56    0.53
  16   0  10    0.03    0.38
   0  10  16   -0.24    0.43
  -2  10  16    1.44    0.46
  16  -2  10    1.67    0.43
 -10 -16  -2    1.98    0.43
  16   2  10    1.80    0.39
   2  10  16    1.13    0.49
  -4  10  16    1.13    0.42
  10 -16   4    1.19    0.40
 -10 -16  -4    1.32    0.40
  16  -4  10    1.42    0.46
   4 -10  16    1.21    0.50
  16   4  10    0.85    0.43
   4  10  16    1.25    0.53
   6 -10  16    4.31    0.57
  10 -16   6    4.82    0.50
  16  -6  10    4.87    0.57
 -10 -16  -6    4.46    0.48
  -6  10  16    4.04    0.50
  10 -16   6    4.12    0.58
  16   6  10    4.29    0.54
   6  10  16    4.97    0.65
   8 -10  16   11.51    0.82
  10 -16   8   12.17    0.74
  10 -16   8   11.03    0.87
  16  -8  10   11.74    0.89
   8  10  16   13.26    0.89
  16   8  10    9.59    0.72
  16 -10  10    2.10    0.50
  10 -16  10    3.11    0.45
  10 -10  16    2.52    0.57
  10 -16  10    2.45    0.54
  16  10  10    2.25    0.53
  16  10  10    2.94    0.60
  10  10  16    2.60    0.63
  12 -10  16  110.56    3.43
  10 -16  12  111.56    3.41
  16 -12  10  114.61    3.43
  10 -16  12  106.25    3.34
  16  12  10  107.68    3.39
  16  12  10  108.53    3.37
  12  10  16  114.80    3.44
  10  16  12  114.84    3.43
  10 -16  14    1.35    0.56
  14 -10  16    1.69    0.39
  16 -14  10    1.74    0.42
  14 -10  16    1.44    0.56
  10 -16  14    1.35    0.40
  16 -14  10    1.65    0.57
  10  16  14    1.16    0.61
  10  16  14    1.26    0.62
  16  14  10    1.27    0.58
  14  10  16    1.66    0.56
  16  14  10    1.12    0.62
  14  10  16    0.56    0.61
   0  12  16   20.22    1.03
  16   0  12   21.13    0.97
  16  -2  12  175.32    4.92
  -2  12  16  168.46    4.89
  16   2  12  169.43    4.86
   2  12  16  177.67    4.95
  -4  12  16   10.93    0.71
  16  -4  12   11.70    0.85
  12 -16   4   11.04    0.74
   4 -12  16    9.91    0.77
  16   4  12   12.49    0.91
   4  12  16   11.57    0.81
  12 -16   6    0.00    0.42
  12 -16   6    0.70    0.40
  16  -6  12    0.45    0.46
   6 -12  16    0.69    0.47
   6  12  16    0.48    0.52
  16   6  12    0.89    0.49
  12 -16   8    8.10    0.74
  16  -8  12    7.28    0.72
   8 -12  16    9.46    0.75
  12 -16   8    9.34    0.63
  16   8  12    8.12    0.74
  16   8  12    8.35    0.71
   8  12  16    9.55    0.79
  10 -12  16  110.29    3.39
  12 -16  10  107.88    3.37
  12 -16  10  102.38    3.33
  16 -10  12  110.19    3.38
  16  10  12  110.64    3.32
  16  10  12  110.43    3.34
  10  12  16  114.68    3.39
  12 -12  16   23.48    1.25
  16 -12  12   22.99    1.24
  12 -12  16   22.41    0.96
  12 -16  12   23.23    0.97
  16 -12  12   23.17    0.99
  12 -16  12   23.39    1.26
  16  12  12   23.14    1.22
  12  16  12   22.85    1.27
  12  16  12   20.42    1.29
  16  12  12   22.72    1.30
  12  12  16   24.01    1.28
  12  12  16   20.33    1.23
  16 -14  12   43.19    1.74
  12 -16  14   42.85    1.47
  12 -16  14   40.09    1.73
  16 -14  12   40.49    1.45
  14 -12  16   40.66    1.72
  16  14  12   44.48    1.74
  14  12  16   42.84    1.77
  12  16  14   43.64    1.77
  14  12  16   39.83    1.66
  12  16  14   42.52    1.68
  16  14  12   40.95    1.76
  16   0  14   -0.47    0.40
   0  14  16   -0.18    0.46
  -2  14  16    6.58    0.62
  16  -2  14    6.53    0.64
   2  14  16    6.50    0.66
  -4  14  16    9.80    0.69
  16  -4  14   10.44    0.77
   4 -14  16    8.02    0.71
   4  14  16   10.09    0.79
  14 -16   6   29.96    1.36
  14 -16   6   31.97    1.24
  16  -6  14   33.30    1.40
   6 -14  16   32.12    1.39
  16   6  14   31.67    1.36
  16   6  14   31.75    1.44
   6  14  16   32.99    1.42
   8 -14  16    0.43    0.36
  16  -8  14    0.61    0.50
  14 -16   8    0.47    0.38
  14 -16   8    0.70    0.51
  14 -16   8    0.66    0.47
   8 -14  16    0.46    0.48
   8  14  16    1.19    0.54
  16   8  14    0.66    0.56
  16   8  14    1.08    0.58
  10 -14  16    1.36    0.40
  10 -14  16    1.53    0.58
  16 -10  14    1.05    0.41
  16 -10  14    1.10    0.56
  14 -16  10    2.05    0.57
  14 -16  10    1.62    0.42
  16  10  14    1.13    0.55
  16  10  14    0.80    0.58
  14  16  10    1.22    0.58
  14  16  10    1.23    0.61
  10  14  16    1.36    0.63
  14 -16  12   42.39    1.72
  12 -14  16   40.94    1.43
  12 -14  16   39.48    1.71
  16 -12  14   41.78    1.46
  16 -12  14   43.54    1.75
  14 -16  12   41.09    1.45
  16  12  14   41.66    1.67
  14  16  12   43.99    1.76
  14  16  12   42.43    1.70
  12  14  16   45.20    1.77
  12  14  16   38.57    1.68
  16  12  14   41.99    1.73
  14 -16  14    9.74    0.66
  14 -16  14    9.37    0.90
  14 -14  16    9.39    0.63
  14 -14  16    8.73    0.87
  16 -14  14    8.21    0.60
  16 -14  14    8.73    0.86
  14  16  14   10.60    0.95
  14  16  14   10.16    0.88
  14  14  16   10.47    0.96
  14  14  16    9.42    0.83
  16  14  14    8.74    0.86
  16  14  14    9.37    0.86
   0  16  16    0.01    0.48
  16   0  16   -0.02    0.43
  -2  16  16  325.17    9.12
  16  -2  16  329.20    9.17
  16 -16   2  325.72    9.17
   2  16  16  344.09    9.18
  -4  16  16    3.73    0.55
   4 -16  16    4.09    0.62
  16  -4  16    3.62    0.62
  16 -16   4    3.20    0.44
  16  -4  16    3.27    0.18
   4  16  16    2.83    0.62
   6 -16  16   17.19    0.84
   6 -16  16   18.81    1.12
  16  -6  16   18.74    1.09
  16 -16   6   17.41    0.89
  16 -16   6   17.26    1.07
  16 -16   6   16.60    1.07
   6  16  16   16.12    1.15
  16  16   6   16.66    1.14
   8 -16  16    0.07    0.35
   8 -16  16   -0.55    0.47
  16  -8  16   -0.06    0.51
  16 -16   8    0.01    0.36
  16 -16   8   -0.62    0.46
  16  -8  16    0.33    0.37
   8  16  16   -0.01    0.59
  16   8  16    0.23    0.58
  16   8  16   -0.10    0.55
  16  16   8   -0.22    0.51
  16  16   8   -0.19    0.56
  10 -16  16   83.58    2.46
  10 -16  16   79.16    2.72
  16 -10  16   81.29    2.44
  16 -10  16   80.63    2.74
  16 -16  10   83.38    2.47
  16 -16  10   77.27    2.70
  10  16  16   83.86    2.78
  10  16  16   77.46    2.74
  16  10  16   82.31    2.77
  16  10  16   81.45    2.66
  16  16  10   82.60    2.74
  16  16  10   82.14    2.68
  12 -16  16    0.94    0.41
  12 -16  16    1.43    0.61
  16 -12  16    0.68    0.40
  16 -12  16    0.48    0.59
  16 -16  12    0.91    0.42
  16 -16  12    0.76    0.59
  12  16  16    0.48    0.64
  12  16  16    1.33    0.65
  16  12  16    1.31    0.69
  16  12  16    0.96    0.60
  16  16  12    0.62    0.63
  16  16  12    0.30    0.63
  14 -16  16   40.81    1.49
  14 -16  16   41.01    1.80
  16 -14  16   43.19    1.50
  16 -14  16   39.85    1.78
  16 -16  14   42.82    1.50
  16 -16  14   40.28    1.77
  14  16  16   41.10    1.87
  14  16  16   41.33    1.77
  16  14  16   40.07    1.87
  16  14  16   41.36    1.70
  16  16  14   39.95    1.81
  16  16  14   41.13    1.76
  16 -16  16    1.04    0.45
  16  16  16    1.43    0.73
  16  16  16    2.44    0.72
  -1 -17  -1   29.11    1.10
   1 -17   1   25.49    0.96
   1 -17   1   28.08    1.11
   1 -17  -1   25.25    1.19
   1 -17  -1   26.74    1.10
  -1 -17   1   27.38    1.11
  -1 -17  -3   28.01    1.09
   1 -17   3   27.77    1.01
   1 -17   3   27.71    1.08
   1 -17  -3   28.23    1.12
  -1 -17   3   27.21    1.13
  -1 -17   3   27.58    1.13
   1 -17   5   52.41    1.72
   1 -17   5   50.02    1.63
  -1 -17  -5   50.88    1.67
   1 -17  -5   52.37    1.69
  -1 -17   5   53.03    1.72
  -1 -17   5   49.69    1.61
   1 -17   7   36.82    1.28
   1 -17   7   34.37    1.33
  -1 -17  -7   34.45    1.28
  -1 -17   7   36.15    1.31
  -1 -17   7   35.95    1.25
   1 -17   9    3.19    0.45
  -1 -17  -9    2.47    0.44
   1 -17   9    3.02    0.49
  -1 -17   9    3.22    0.53
  -1 -17   9    2.52    0.44
   1 -17  11    6.02    0.57
  11  -1  17    5.85    0.61
   1 -17  11    5.77    0.59
  13  -1  17   88.69    2.75
  -1  17  13   86.52    2.71
  17  13  -1   86.13    2.73
  17  13   1   90.84    2.74
   1  17  13   88.34    2.73
  17 -15   1   87.38    3.05
  -1  17  15   96.78    2.95
  15  -1  17   94.99    2.94
  15   1  17   94.87    3.44
  17  15   1   96.89    2.95
   1  17  15   98.53    2.97
  -3 -17  -1   29.56    1.14
   3 -17   1   26.60    1.04
   3 -17   1   28.24    1.15
   3 -17  -1   30.00    1.16
  -3 -17   1   29.80    1.15
  -3 -17  -3   85.38    2.56
   3 -17   3   90.23    2.60
   3 -17   3   82.86    2.54
  -3 -17   3   87.28    2.61
  -3 -17  -5    5.10    0.50
   3 -17   5    5.18    0.54
   3 -17   5    5.08    0.48
  -3 -17   5    6.14    0.59
  17   5   3    5.81    0.43
   3 -17   7    9.13    0.62
   3 -17   7    9.54    0.65
  -3 -17  -7    8.86    0.59
  17   7   3    9.00    0.63
  -3 -17   7    8.03    0.63
   9  -3  17   29.62    1.25
   3 -17   9   30.55    1.21
  -3 -17  -9   29.99    1.15
   3 -17   9   29.59    1.19
  -3 -17   9   29.98    1.21
   3 -17  11    6.59    0.61
  11  -3  17    6.84    0.64
   3 -17  11    7.30    0.63
  -3 -17 -11    8.54    0.57
  17  13  -3   25.11    1.25
   3 -17  13   27.28    1.18
  13  -3  17   25.18    1.17
  -3 -17 -13   24.33    1.02
  -3  17  13   26.90    1.13
   3  17  13   23.30    1.20
  17  13   3   25.06    1.24
  -3  17  15   50.88    1.80
  15  -3  17   51.48    1.84
  15  -3  17   51.34    1.41
  17 -15   3   48.87    1.66
   3 -17  15   52.44    1.87
   3  17  15   51.53    1.88
  17  15   3   52.36    1.87
  -5 -17  -1   52.54    1.73
   5 -17   1   51.84    1.73
  -5 -17   1   52.82    1.73
  -5 -17  -3    5.46    0.52
   5 -17   3    6.46    0.53
   5 -17   3    6.09    0.56
  17   3   5    6.08    0.47
  -5 -17   3    6.63    0.60
  -5 -17  -5  161.87    4.48
   5 -17   5  161.30    4.50
   5 -17   5  155.86    4.50
   5   5  17  158.27    4.58
  17   5   5  154.58    4.43
  -5 -17   5  163.11    4.54
   5 -17   7   21.73    0.97
  -5 -17  -7   19.16    0.88
   5 -17   7   18.72    0.93
   7  -5  17   19.52    1.03
   7   5  17   21.48    1.12
  -5 -17   7   21.39    1.04
  17   7   5   19.21    0.91
   9  -5  17   36.29    1.43
  -5 -17  -9   37.63    1.29
   5 -17   9   36.97    1.39
   5 -17   9   37.81    1.37
   9   5  17   36.84    1.50
  17   9   5   36.26    1.35
   5 -17  11    0.39    0.41
  11  -5  17    0.40    0.45
  -5 -17 -11   -0.09    0.35
   5 -17  11   -0.13    0.43
  17  11   5   -0.38    0.39
  17  11   5   -0.34    0.49
   5 -17  13   19.55    1.02
  17  13  -5   21.69    1.64
  -5  17  13   17.40    0.96
   5 -17  13   20.49    1.07
  13  -5  17   21.32    1.10
   5  17  13   21.63    1.14
  17  13   5   20.62    1.16
  17 -15   5   36.17    1.72
  15  -5  17   35.86    1.52
  17 -15   5   38.13    1.33
   5 -17  15   35.64    1.29
   5 -17  15   37.30    1.52
  17  15   5   38.47    1.56
   5  17  15   38.59    1.57
  -1   7  17   34.90    1.38
   7 -17   1   35.21    1.32
  -7 -17  -1   36.33    1.31
  -7 -17   1   36.40    1.34
   1   7  17   35.00    1.38
   7 -17   3    9.05    0.64
  -7 -17  -3    9.66    0.63
   7 -17   3    8.67    0.62
   3   7  17    7.69    0.68
  17   3   7    9.00    0.64
  -7 -17   3    7.99    0.64
  17   3   7    8.72    0.58
   7 -17   5   20.80    0.97
   7 -17   5   20.16    1.00
  -7 -17  -5   20.19    0.91
   5   7  17   21.61    1.10
  17   5   7   18.61    0.92
   7 -17   7    1.42    0.45
  -7 -17  -7    1.60    0.40
   7  -7  17    0.92    0.46
   7 -17   7    1.69    0.43
   7   7  17    2.65    0.59
  17   7   7    1.50    0.42
   7 -17   9    0.67    0.41
   7 -17   9    1.15    0.46
  -7 -17  -9    1.08    0.38
   9  -7  17    1.08    0.48
  17   9   7    1.16    0.45
   9   7  17    2.01    0.57
  11  -7  17   -0.44    0.45
   7 -17  11   -0.86    0.44
   7 -17  11    0.03    0.39
  11   7  17   -0.29    0.53
  17  11   7    0.03    0.52
  17  11   7    0.09    0.43
  17 -13   7   20.30    0.93
  13  -7  17   21.85    1.15
  17 -13   7   21.44    1.15
   7 -17  13   20.33    1.02
   7 -17  13   18.91    1.11
   7 -17  13   20.07    0.93
  17  13   7   19.35    1.16
  17  13   7   20.71    1.13
  13   7  17   22.38    1.24
   7  17  13   22.03    1.20
  17  15  -7    0.80    0.60
  17 -15   7    0.71    0.37
   7 -17  15    0.53    0.37
  17 -15   7    1.11    0.50
  15  -7  17    0.39    0.53
   7 -17  15    1.46    0.53
   7  17  15    0.60    0.57
  17  15   7    0.55    0.54
  15   7  17    0.81    0.56
  15   7  17    1.16    0.61
  17  15   7    0.55    0.59
  17  -1   9    2.90    0.47
  -9 -17  -1    3.67    0.50
  -1   9  17    3.19    0.52
  17   1   9    3.25    0.45
  -9 -17   1    4.23    0.52
   1   9  17    2.68    0.54
   9 -17   3   30.14    1.21
  17  -3   9   30.07    1.21
  -9 -17  -3   30.73    1.17
  -3   9  17   28.05    1.18
   3   9  17   29.25    1.29
  17   3   9   28.49    1.18
   9 -17   5   38.47    1.37
  17  -5   9   36.75    1.43
   9 -17   5   37.53    1.44
   5  -9  17   36.02    1.42
  -9 -17  -5   37.13    1.36
   5   9  17   38.18    1.50
  17   5   9   37.01    1.37
  17  -7   9    2.00    0.50
  -9 -17  -7    1.76    0.42
   9 -17   7    1.34    0.49
   9 -17   7    1.18    0.42
   7  -9  17    1.48    0.50
   7   9  17    2.21    0.59
  17   7   9    0.98    0.45
   9  -9  17  141.29    4.07
   9 -17   9  136.99    3.94
   9 -17   9  135.89    4.04
  17  -9   9  135.62    4.05
  17   9   9  136.95    3.99
   9   9  17  139.41    4.09
  17   9   9  132.34    4.01
   9 -17  11   -0.07    0.38
   9 -17  11    0.65    0.47
  17 -11   9    0.70    0.50
  11  -9  17   -0.04    0.50
  11   9  17    0.96    0.57
  17  11   9    0.49    0.54
  17  11   9    0.19    0.48
   9 -17  13   38.39    1.57
  17 -13   9   36.10    1.34
   9 -17  13   38.74    1.33
  13  -9  17   39.98    1.60
  17 -13   9   39.78    1.60
  13   9  17   38.40    1.62
  17  13   9   36.76    1.58
  17  13   9   39.48    1.54
   9  17  13   37.24    1.61
  13   9  17   32.28    1.89
  15  -9  17    2.99    0.44
  17 -15   9    3.58    0.64
  17 -15   9    3.39    0.48
   9 -17  15    3.18    0.44
  15  -9  17    2.70    0.62
   9 -17  15    3.25    0.64
   9  17  15    3.13    0.70
   9  17  15    2.17    0.64
  15   9  17    4.22    0.67
  15   9  17    2.54    0.68
  17  15   9    4.05    0.67
  17  15   9    4.42    0.70
  -1  11  17    6.47    0.64
  17  -1  11    6.58    0.59
   1  11  17    7.19    0.67
  17   1  11    6.47    0.57
  11 -17   3    7.88    0.62
  -3  11  17    8.24    0.65
  17  -3  11    7.58    0.66
   3  11  17   10.09    0.77
  11 -17   5   -0.45    0.40
   5 -11  17    0.21    0.48
  -5  11  17    0.46    0.41
  17  -5  11   -0.26    0.44
  11 -17   5   -0.23    0.42
   5  11  17    0.23    0.52
  17   5  11   -0.10    0.45
  17  -7  11    0.24    0.46
   7 -11  17    0.02    0.47
  11 -17   7   -0.25    0.42
  11 -17   7    0.37    0.39
  17   7  11   -0.02    0.45
  17   7  11   -0.19    0.52
   7  11  17   -0.36    0.51
  11 -17   9    0.37    0.40
  17  -9  11    0.02    0.49
  11 -17   9    0.03    0.44
   9 -11  17    0.58    0.50
  17   9  11    0.43    0.55
  17   9  11    0.59    0.50
   9  11  17    0.21    0.57
  11 -11  17   22.39    1.12
  17 -11  11   22.62    1.00
  11 -17  11   24.18    1.23
  17 -11  11   24.63    1.27
  11 -17  11   23.03    1.00
  11 -11  17   24.98    1.25
  17  11  11   25.54    1.26
  11  11  17   24.25    1.30
  11  17  11   22.22    1.25
  17  11  11   23.11    1.28
  13 -11  17   20.42    1.22
  11 -17  13   22.08    0.96
  11 -17  13   21.25    1.22
  17 -13  11   22.40    0.98
  13 -11  17   22.46    0.97
  17 -13  11   21.55    1.22
  17  13  11   20.82    1.20
  17  13  11   20.49    1.25
  13  11  17   18.87    1.15
  11  17  13   22.10    1.29
  13  11  17   22.20    1.37
  15 -11  17   43.57    1.81
  11 -17  15   41.90    1.78
  15 -11  17   44.17    1.51
  17 -15  11   43.58    1.52
  17 -15  11   40.51    1.75
  11 -17  15   46.77    1.51
  11  17  15   45.58    1.84
  17  15  11   42.83    1.79
  15  11  17   42.91    1.73
  15  11  17   44.59    1.88
  17  15  11   42.95    1.82
  11  17  15   43.33    1.75
  17  -1  13   90.74    2.79
  -1  13  17   92.42    2.80
  17   1  13   88.90    2.75
   1  13  17   89.82    2.81
  -3  13  17   25.89    1.14
  17  -3  13   25.52    1.22
   3  13  17   27.65    1.26
  13 -17   5   21.35    1.11
  -5  13  17   21.21    1.01
  13 -17   5   19.16    0.97
   5 -13  17   20.89    1.14
  17  -5  13   19.36    1.09
  17   5  13   20.66    1.13
   5  13  17   22.25    1.18
  17   5  13   21.47    1.16
  17  -7  13   18.62    1.11
  13 -17   7   19.67    0.98
  13 -17   7   20.12    0.97
   7 -13  17   20.83    1.13
  13 -17   7   19.64    1.15
   7  13  17   21.92    1.19
  17   7  13   21.21    1.19
  17   7  13   20.61    1.12
  17  -9  13   36.32    1.33
  13 -17   9   39.61    1.34
   9 -13  17   34.96    1.55
  13 -17   9   37.57    1.58
  17  -9  13   37.90    1.58
   9 -13  17   37.60    1.30
  13 -17   9   36.15    1.62
  17   9  13   39.77    1.58
   9  13  17   38.57    1.61
  17   9  13   37.78    1.56
  13 -17  11   19.79    1.18
  11 -13  17   20.97    1.21
  13 -17  11   22.67    0.97
  11 -13  17   21.05    0.94
  17 -11  13   20.88    1.22
  17 -11  13   21.71    1.00
  13  17  11   23.26    1.28
  17  11  13   19.24    1.25
  11  13  17   22.70    1.30
  17  11  13   19.85    1.20
  13 -13  17   81.86    2.50
  17 -13  13   83.47    2.54
  17 -13  13   83.00    2.80
  13 -13  17   85.72    2.82
  13 -17  13   83.47    2.80
  13 -17  13   84.08    2.53
  13  17  13   93.14    2.89
  17  13  13   81.60    2.77
  13  17  13   82.95    2.73
  13  13  17   82.30    2.81
  17  13  13   83.43    2.76
  13  13  17   80.05    2.67
  15 -13  17    3.77    0.69
  15 -13  17    3.78    0.48
  17 -15  13    3.77    0.51
  13 -17  15    4.09    0.51
  17 -15  13    3.14    0.68
  13 -17  15    4.23    0.72
  15  13  17    3.60    0.69
  13  17  15    2.05    0.69
  13  17  15    3.22    0.71
  17  15  13    3.91    0.73
  17  15  13    4.05    0.75
  15  13  17    5.34    0.81
  -1  15  17   99.70    3.06
  17  -1  15   98.14    3.04
   1  15  17   99.67    3.09
  17  -3  15   53.00    1.87
  15 -17   3   50.33    1.66
  -3  15  17   48.91    1.79
   3  15  17   51.43    1.89
   5 -15  17   35.93    1.54
  15 -17   5   37.94    1.40
  17  -5  15   37.94    1.53
  15 -17   5   36.60    1.31
   5 -15  17   35.70    1.28
   5  15  17   37.57    1.58
  17  -7  15    0.62    0.41
  17  -7  15   -0.10    0.51
  15 -17   7    1.18    0.53
  15 -17   7    0.98    0.38
   7 -15  17    0.68    0.52
   7 -15  17    1.20    0.39
  15 -17   7    0.66    0.44
  17   7  15    0.32    0.56
  17   7  15    0.47    0.57
   7  15  17    0.40    0.56
  17  -9  15    2.72    0.61
  15 -17   9    3.08    0.64
   9 -15  17    2.33    0.59
  17  -9  15    3.73    0.48
   9 -15  17    3.62    0.45
  15 -17   9    3.79    0.47
  17   9  15    3.96    0.67
  17   9  15    4.52    0.66
  15  17   9    3.50    0.69
   9  15  17    3.23    0.71
  15  17   9    2.67    0.66
  17 -11  15   42.97    1.83
  11 -15  17   45.41    1.53
  15 -17  11   44.21    1.53
  11 -15  17   43.70    1.81
  15 -17  11   42.81    1.80
  17 -11  15   45.69    1.55
  11  15  17   46.28    1.90
  17  11  15   44.89    1.77
  15  17  11   43.58    1.83
  15  17  11   43.63    1.83
  17  11  15   46.84    1.88
  13 -15  17    4.21    0.49
  13 -15  17    3.23    0.67
  17 -13  15    4.88    0.51
  17 -13  15    3.05    0.68
  15 -17  13    3.28    0.46
  15 -17  13    3.15    0.67
  15  17  13    2.56    0.73
  15  17  13    3.60    0.71
  13  15  17    3.20    0.77
  13  15  17    3.83    0.71
  17  13  15    3.74    0.76
  17  13  15    3.71    0.68
  15 -17  15   22.17    1.03
  15 -15  17   21.89    1.05
  17 -15  15   23.15    1.07
  15  15  17   20.84    1.32
  15  17  15   23.10    1.44
  15  17  15   23.10    1.44
  15  15  17   21.93    1.43
  17  15  15   21.55    1.41
  17  15  15   20.96    1.39
  -1  17  17   74.78    2.41
  17  -1  17   70.40    2.39
  17  -1  17   75.06    2.09
  17 -17   1   69.94    2.22
  17 -17  -1   70.69    2.21
   1  17  17   75.88    2.45
  -3  17  17    3.25    0.56
  17  -3  17    3.50    0.59
  17  -3  17    2.82    0.21
  17 -17   3    2.75    0.43
  17 -17  -3    2.86    0.43
   3  17  17    3.50    0.68
  17  -5  17   65.62    1.79
  17  -5  17   64.82    2.28
  17 -17   5   65.24    2.06
  17 -17   5   64.30    2.30
   5  17  17   68.20    2.33
  17 -17  -5   62.90    2.04
  17  17   5   68.61    2.32
   7 -17  17   21.22    0.96
   7 -17  17   19.92    1.24
  17  -7  17   24.17    1.32
  17 -17   7   21.85    0.99
  17 -17   7   20.48    1.21
  17  -7  17   21.74    0.99
   7  17  17   22.70    1.37
  17  17   7   22.94    1.31
   9 -17  17    5.68    0.53
   9 -17  17    4.59    0.69
  17  -9  17    7.67    0.83
  17 -17   9    5.84    0.54
  17 -17   9    5.60    0.73
  17  -9  17    7.28    0.56
   9  17  17    7.05    0.84
  17   9  17    6.30    0.83
  17   9  17    7.86    0.77
  17  17   9    7.48    0.83
  17  17   9    6.90    0.79
  11 -17  17   13.76    0.82
  11 -17  17   14.26    1.05
  17 -11  17   14.20    1.04
  17 -17  11   14.82    0.86
  17 -17  11   13.94    1.03
  17 -11  17   14.37    0.82
  11  17  17   15.53    1.11
  17  11  17   12.65    1.06
  17  11  17   12.62    0.96
  17  17  11   12.21    1.01
  17  17  11   13.73    1.01
  13 -17  17    4.49    0.52
  17 -13  17    3.27    0.51
  17 -17  13    4.36    0.51
  13  17  17    7.05    0.82
  13  17  17    4.18    0.82
  17  13  17    6.20    0.88
  17  13  17    6.67    0.81
  17  17  13    4.97    0.83
  17  17  13    5.63    0.81
  15 -17  17    0.59    0.43
  17 -15  17    0.20    0.42
  17 -17  15    0.25    0.44
  15  17  17    1.07    0.72
  15  17  17    0.58    0.73
  17  15  17    0.52    0.75
  17  15  17    0.46    0.65
  17  17  15   -0.04    0.69
  17  17  15    0.69    0.70
  17 -17  17    1.43    0.47
  17  17  17    1.68    0.79
  17  17  17    1.09    0.72
   0 -18   0    0.06    0.41
   0 -18   2   72.61    2.24
   0 -18  -2   71.00    2.22
   0 -18   4    0.16    0.33
   0 -18   4   -0.03    0.41
   0 -18  -4    0.29    0.40
   0 -18   6   63.98    2.00
   0 -18  -6   64.37    2.05
   0 -18   6   66.38    2.09
   0 -18  -8    0.00    0.39
   0 -18   8   -0.06    0.42
   0 -18   8    0.04    0.35
   0 -18  10   19.08    0.97
   0 -18  10   20.07    1.03
  18  12   0    0.43    0.52
  18  14   0  245.30    6.88
  18 -14   0  242.68    6.76
   0  18  14  250.62    6.92
   0  18  16   -0.14    0.50
  18  16   0   -0.76    0.56
  18 -16   0   -0.33    0.37
   2 -18   0   66.37    2.13
   2 -18   0   73.11    2.20
  -2 -18   0   70.84    2.19
   2 -18   2   32.04    1.23
   2 -18   2   30.12    1.09
  -2 -18  -2   30.52    1.19
   2 -18  -2   31.70    1.21
  -2 -18   2   29.63    1.17
  -2 -18  -4   35.66    1.30
   2 -18   4   31.93    1.22
   2 -18   4   34.14    1.29
   2 -18  -4   37.43    1.32
  -2 -18   4   36.59    1.35
   2 -18   6   11.25    0.82
  -2 -18  -6   12.57    0.75
   2 -18   6   10.33    0.73
  -2 -18   6   12.57    0.85
  -2 -18  -8    2.58    0.46
   2 -18   8    1.81    0.43
   2 -18   8    2.36    0.48
  -2 -18   8    2.35    0.50
   2 -18  10    6.55    0.61
   2 -18  10    6.85    0.60
  -2 -18 -10    6.90    0.56
  -2 -18  10    6.23    0.61
  -2 -18 -12   -0.05    0.38
   2 -18  12    0.14    0.43
   2 -18  12    0.30    0.44
  18  12  -2   -0.07    0.51
  12  -2  18    0.12    0.45
  18  12   2   -0.12    0.52
  -2  18  14    2.25    0.54
  18  14  -2    1.94    0.57
  18 -14   2    1.25    0.42
  -2 -18 -14    1.73    0.55
  14  -2  18    1.76    0.53
  18  14   2    0.52    0.56
  18 -14  -2    1.79    0.61
   2  18  14    2.57    0.60
  -2  18  16    1.81    0.54
  16  -2  18    1.56    0.18
  16  -2  18    1.92    0.52
  18 -16   2    1.07    0.40
  18  16  -2    1.84    0.60
  18 -16  -2    1.40    0.41
  18  16   2    1.97    0.60
   2  18  16    1.10    0.57
  -4 -18   0    0.48    0.38
   4 -18   0    0.51    0.43
  -4 -18  -2   35.65    1.34
   4 -18   2   36.56    1.34
   4 -18   2   33.28    1.24
   4 -18  -2   36.08    1.30
  -4 -18   2   35.40    1.34
  -4 -18  -4   77.00    2.33
   4 -18   4   77.68    2.36
   4 -18   4   74.22    2.31
  -4 -18   4   75.97    2.38
   4 -18   6   34.81    1.32
   4 -18   6   35.65    1.36
  -4 -18  -6   36.07    1.30
  -4 -18   6   37.97    1.41
  -4 -18  -8  115.54    3.35
   4 -18   8  113.60    3.39
   4 -18   8  118.56    3.40
  18   8   4  110.76    3.31
  -4 -18   8  117.80    3.44
  -4 -18 -10    2.52    0.44
  10  -4  18    1.42    0.49
   4 -18  10    1.81    0.47
   4 -18  10    2.07    0.47
  18  10   4    2.63    0.58
  18  10   4    2.05    0.45
  -4  18  12    1.67    0.47
  -4 -18 -12    1.30    0.40
   4 -18  12    1.33    0.46
  18  12  -4    0.65    0.53
  12  -4  18    1.28    0.47
   4 -18  12    0.75    0.44
  18  12   4    1.31    0.57
  14  -4  18   78.86    2.13
  14  -4  18   81.66    2.61
   4 -18  14   77.24    2.58
  18  14  -4   75.45    2.54
   4 -18  14   79.28    2.38
  -4  18  14   77.60    2.50
  18 -14   4   80.18    2.41
   4  18  14   82.46    2.62
  18 -14  -4   86.24    2.84
  18  14   4   79.39    2.58
  16  -4  18   25.16    1.30
  18  16  -4   25.58    1.35
  18 -16   4   26.39    1.09
  16  -4  18   26.91    0.78
  18 -16  -4   27.19    1.09
   4  18  16   29.45    1.39
  18  16   4   29.43    1.38
  -6 -18   0   65.99    2.10
   6 -18   0   65.45    2.09
   6 -18   2   13.30    0.84
  -6 -18  -2   13.05    0.81
   6 -18   2   11.91    0.74
  -6 -18   2   12.86    0.85
   6 -18   4   38.51    1.37
  -6 -18  -4   36.42    1.33
   6 -18   4   34.38    1.30
  18   4   6   34.40    1.30
   4   6  18   36.67    1.46
  -6 -18   4   35.28    1.39
   6 -18   6    2.45    0.46
  -6 -18  -6    2.85    0.45
   6 -18   6    2.45    0.46
   6   6  18    4.46    0.66
  18   6   6    3.17    0.43
  -6 -18   6    2.79    0.53
   6 -18   8   14.12    0.87
  -6 -18  -8   14.33    0.77
   8  -6  18   15.51    0.97
   6 -18   8   12.70    0.85
   8   6  18   14.50    1.04
  18   8   6   14.18    0.85
  18   8   6   17.36    1.19
  -6 -18 -10   18.30    0.89
  10  -6  18   19.10    1.06
   6 -18  10   18.86    1.06
   6 -18  10   18.95    0.96
  18  10   6   17.70    1.10
  18  10   6   19.66    0.99
  10   6  18   19.21    1.15
   6 -18  12   -0.47    0.44
  18  12  -6   -0.49    0.52
  12  -6  18   -0.59    0.44
  18 -12   6    0.19    0.40
   6 -18  12    0.52    0.43
   6 -18  12    0.35    0.34
  18  12   6   -0.09    0.47
  18  12   6    0.52    0.55
   6 -18  14    7.42    0.54
  14  -6  18    6.94    0.74
   6 -18  14    8.31    0.76
  18  14  -6    8.52    0.75
  18 -14   6    7.80    0.57
  18 -14  -6    8.59    0.64
  18  14   6    9.32    0.77
   6  18  14    8.49    0.82
  18  14   6    7.42    0.73
   6 -18  16   14.52    1.07
  18  16  -6   14.51    1.10
   6 -18  16   16.22    0.83
  16  -6  18   15.80    1.08
  18 -16   6   14.50    1.07
  18 -16   6   16.13    0.85
  18  16   6   15.52    1.14
   6  18  16   13.71    1.01
  18 -16  -6   14.59    0.86
  -8 -18   0   -0.04    0.42
   0   8  18   -0.16    0.46
  18   0   8    0.05    0.37
  -8 -18  -2    2.87    0.50
   8 -18   2    2.41    0.46
  18  -2   8    2.56    0.47
  -8 -18   2    2.34    0.50
  18   2   8    1.79    0.41
   2   8  18    2.63    0.53
  18  -4   8  116.66    3.45
  -8 -18  -4  117.85    3.38
   8 -18   4  117.29    3.41
   8 -18   4  114.68    3.42
   4   8  18  113.44    3.48
  18   4   8  116.17    3.38
  -8 -18  -6   13.61    0.81
   8 -18   6   13.61    0.87
   8 -18   6   12.06    0.83
   6   8  18   16.10    1.02
  18   6   8   14.04    0.86
   8 -18   8  113.25    3.47
   8 -18   8  118.24    3.43
   8  -8  18  116.42    3.53
  18  -8   8  117.47    3.52
  -8 -18  -8  115.34    3.37
  18   8   8  113.23    3.42
  18   8   8  114.31    3.46
   8   8  18  121.49    3.55
   8 -18  10   31.80    1.36
  18 -10   8   31.33    1.37
   8 -18  10   32.09    1.28
  10  -8  18   29.96    1.35
  18  10   8   30.36    1.31
  18  10   8   29.38    1.36
  10   8  18   32.12    1.43
  18 -12   8    0.00    0.51
  18 -12   8   -0.44    0.37
   8 -18  12    0.37    0.43
   8 -18  12    0.78    0.49
  12  -8  18    0.57    0.51
   8 -18  12    0.61    0.36
  18  12   8   -0.37    0.54
  18  12   8   -1.14    0.45
  12   8  18   -0.33    0.58
   8 -18  14   19.29    0.89
  14  -8  18   20.23    1.16
  14  -8  18   16.89    0.85
   8 -18  14   17.40    1.16
  18 -14   8   18.49    1.14
  18 -14   8   19.76    0.92
  14   8  18   18.65    1.24
  18 -14  -8   18.80    0.94
  18  14   8   19.14    1.12
   8  18  14   19.17    1.23
  18  14   8   18.82    1.21
   8 -18  16   32.33    1.22
  16  -8  18   31.24    1.48
  16  -8  18   28.57    1.16
  18 -16   8   31.88    1.49
   8 -18  16   29.19    1.45
  18 -16   8   31.87    1.24
   8  18  16   32.65    1.56
  18  16   8   34.03    1.50
  18  16   8   33.22    1.50
  18   0  10   18.88    0.97
   0  10  18   20.03    1.04
  -2  10  18    5.86    0.62
  10 -18   2    7.80    0.63
 -10 -18  -2    7.13    0.62
  18  -2  10    6.77    0.61
   2  10  18    8.24    0.72
  18  -4  10    2.29    0.52
  10 -18   4    2.09    0.47
  10 -18   4    2.47    0.50
  -4  10  18    2.26    0.48
 -10 -18  -4    3.03    0.48
  18   4  10    2.08    0.53
  18   4  10    2.49    0.51
   4  10  18    2.26    0.60
  10 -18   6   19.05    0.95
  18  -6  10   18.86    1.08
  10 -18   6   17.84    1.02
   6 -10  18   17.94    1.08
 -10 -18  -6   18.93    0.96
   6  10  18   17.59    1.12
  18   6  10   19.28    0.99
  18   6  10   19.52    1.09
  10 -18   8   31.09    1.26
   8 -10  18   28.52    1.35
  10 -18   8   31.46    1.33
  18  -8  10   30.75    1.36
  18   8  10   29.86    1.29
  18   8  10   30.39    1.33
   8  10  18   33.21    1.45
  10 -10  18   67.91    2.32
  10 -18  10   69.51    2.17
  10 -18  10   68.08    2.29
  10 -18  10   68.39    2.08
  18 -10  10   64.58    2.08
  18 -10  10   67.60    2.31
  18  10  10   65.83    2.26
  10  10  18   67.60    2.34
  18  10  10   69.21    2.25
  18 -12  10   20.98    1.18
  18 -12  10   20.31    0.94
  10 -18  12   19.69    1.16
  10 -18  12   20.62    0.92
  12 -10  18   18.55    0.88
  12 -10  18   20.35    1.18
  18  12  10   19.74    1.21
  10  18  12   21.09    1.23
  12  10  18   19.72    1.24
  18  12  10   21.17    1.15
  14 -10  18    4.02    0.68
  18 -14  10    4.52    0.67
  14 -10  18    4.34    0.47
  10 -18  14    3.88    0.48
  10 -18  14    2.84    0.63
  18 -14  10    3.59    0.50
  10  18  14    4.32    0.76
  18  14  10    4.23    0.73
  18  14  10    4.29    0.68
  14  10  18    3.81    0.75
  10 -18  16    1.83    0.41
  18 -16  10    1.44    0.60
  16 -10  18    2.01    0.44
  10 -18  16    1.64    0.61
  18 -16  10    1.34    0.42
  16 -10  18    1.77    0.61
  16  10  18    1.56    0.72
  10  18  16    0.60    0.67
  18  16  10    1.10    0.63
  10  18  16    1.23    0.64
  18  16  10    1.95    0.69
  16  10  18    0.98    0.61
  18   0  12   -0.01    0.41
   0  12  18    0.65    0.51
  -2  12  18    0.14    0.47
  18  -2  12   -0.01    0.42
   2  12  18    0.27    0.51
  -4  12  18    0.65    0.47
  12 -18   4    2.07    0.46
  18  -4  12    1.62    0.50
   4  12  18    0.68    0.55
   6 -12  18    0.22    0.49
  12 -18   6    0.17    0.39
  18  -6  12   -0.58    0.45
  12 -18   6    0.43    0.45
  18   6  12   -0.16    0.49
   6  12  18    0.58    0.55
  18   6  12    0.07    0.53
  18  -8  12   -0.58    0.35
  18  -8  12    0.11    0.48
  12 -18   8   -0.32    0.39
  12 -18   8    0.20    0.35
   8 -12  18   -0.30    0.49
   8 -12  18   -0.09    0.34
  12 -18   8    0.32    0.50
   8  12  18    0.20    0.55
  18   8  12    0.73    0.53
  18   8  12    0.16    0.56
  10 -12  18   19.48    0.90
  18 -10  12   19.64    1.18
  10 -12  18   20.76    1.19
  12 -18  10   19.80    1.16
  18 -10  12   19.44    0.96
  12 -18  10   20.25    1.28
  18  10  12   22.20    1.24
  10  12  18   21.83    1.27
  18  10  12   22.48    1.24
  12 -12  18    1.57    0.41
  12 -18  12    2.63    0.45
  12 -18  12    2.08    0.59
  12 -12  18    2.57    0.62
  18 -12  12    2.25    0.45
  18 -12  12    1.54    0.56
  18  12  12    3.11    0.65
  12  12  18    2.78    0.74
  18  12  12    1.66    0.60
  12  18  12    2.54    0.68
  12 -18  14   54.57    2.16
  14 -12  18   57.03    2.18
  12 -18  14   58.91    1.92
  14 -12  18   58.44    1.89
  18 -14  12   59.59    1.91
  18 -14  12   61.17    2.21
  18  14  12   60.58    2.18
  18  14  12   59.46    2.14
  12  18  14   59.95    2.28
  14  12  18   59.91    2.29
  14  12  18   58.26    2.29
  12  18  14   59.22    2.14
  16 -12  18    4.27    0.90
  12 -18  16    6.58    1.04
  12 -18  16    7.52    0.60
  16 -12  18    6.29    0.55
  18 -16  12    6.12    0.59
  18  16  12    6.39    0.84
  16  12  18    7.69    0.80
  16  12  18    5.69    0.87
  12  18  16    5.02    0.81
  12  18  16    6.53    0.79
  18  16  12    6.24    0.83
   0  14  18  252.75    7.02
  18   0  14  246.15    7.45
  -2  14  18    1.96    0.54
  18  -2  14    1.58    0.51
   2  14  18    1.84    0.58
  -4  14  18   78.43    2.49
  14 -18   4   76.94    2.36
  18  -4  14   80.22    2.58
  14 -18   4   77.07    2.46
   4  14  18   80.86    2.61
  14 -18   6    7.55    0.75
   6 -14  18    7.06    0.73
  18  -6  14    9.17    0.80
  18  -6  14    8.07    0.60
   6 -14  18    8.49    0.56
  14 -18   6    8.78    0.59
  14 -18   6    8.11    0.65
  18   6  14    8.38    0.78
   6  14  18    8.74    0.83
  14 -18   8   17.30    1.12
   8 -14  18   17.29    1.14
  14 -18   8   17.02    1.05
  14 -18   8   18.60    0.91
   8 -14  18   18.05    0.87
  18  -8  14   19.55    0.90
  18  -8  14   18.42    1.14
   8  14  18   17.73    1.23
  18   8  14   18.84    1.16
  18   8  14   19.04    1.16
  18 -10  14    4.47    0.50
  18 -10  14    2.78    0.63
  14 -18  10    3.90    0.48
  10 -14  18    2.66    0.59
  10 -14  18    3.56    0.44
  14 -18  10    3.84    0.62
  18  10  14    3.31    0.67
  10  14  18    4.18    0.77
  14  18  10    2.18    0.69
  18  10  14    3.83    0.71
  12 -14  18   58.26    1.89
  12 -14  18   58.85    2.22
  18 -12  14   59.32    2.22
  14 -18  12   61.22    1.92
  18 -12  14   58.78    1.91
  14 -18  12   56.14    2.18
  12  14  18   61.27    2.25
  14  18  12   57.87    2.19
  18  12  14   59.83    2.14
  18  12  14   61.19    2.21
  14  18  12   58.54    2.22
  14 -18  14    1.22    0.61
  14 -14  18   -0.20    0.58
  18 -14  14   -0.40    0.58
  18 -14  14   -0.05    0.42
  14 -14  18    0.06    0.40
  14 -18  14    0.34    0.40
  14  18  14   -0.06    0.65
  14  14  18    0.88    0.61
  14  18  14    0.31    0.61
  18  14  14   -0.88    0.60
  14  14  18   -0.27    0.66
  18  14  14   -0.62    0.66
  16 -14  18    5.14    0.55
  18 -16  14    5.13    0.56
  14 -18  16    4.56    0.54
  16  14  18    4.59    0.86
  16  14  18    5.04    0.77
  14  18  16    3.98    0.81
  18  16  14    4.51    0.80
  18  16  14    5.08    0.81
  14  18  16    4.37    0.83
   0  16  18    0.99    0.54
  16 -18   0   -0.03    0.35
  -2  16  18    1.00    0.54
  16 -18   2    1.22    0.38
  18  -2  16    1.92    0.21
  18  -2  16    1.69    0.53
  16 -18  -2    1.34    0.36
   2  16  18    2.31    0.60
  18  -4  16   27.39    0.81
  16 -18   4   28.21    1.21
  18  -4  16   28.38    1.36
  16 -18   4   27.31    1.09
  18  -4 -16   26.45    1.18
   4  16  18   27.19    1.39
  16 -18  -4   25.25    1.09
  16 -18   6   14.93    0.86
  16 -18   6   14.79    1.08
  18  -6  16   15.31    0.48
  18  -6  16   14.56    0.85
  16 -18   6   14.58    1.06
  18  -6  16   14.88    1.06
   6  16  18   16.25    1.19
  16 -18   8   32.15    1.22
   8 -16  18   29.67    1.20
  18  -8  16   31.59    1.52
  18  -8  16   30.89    1.21
   8 -16  18   29.72    1.49
  16 -18   8   29.85    1.45
  18   8  16   31.70    1.52
  18   8  16   29.72    1.46
   8  16  18   33.54    1.56
  16  18   8   32.59    1.52
  10 -16  18    1.68    0.42
  16 -18  10    2.70    0.64
  18 -10  16    1.45    0.60
  16 -18  10    1.33    0.43
  10 -16  18    0.73    0.60
  18 -10  16    1.82    0.44
  16  18  10    2.26    0.70
  18  10  16    1.05    0.67
  18  10  16    1.35    0.65
  16  18  10    1.01    0.69
  10  16  18    1.93    0.69
  12 -16  18    5.36    0.53
  18 -12  16    6.23    0.84
  18 -12  16    6.04    0.57
  12 -16  18    4.72    1.20
  18  12  16    6.69    0.87
  16  18  12    6.91    0.82
  12  16  18    6.40    0.87
  18  12  16    5.19    0.77
  16  18  12    6.31    0.85
  14 -16  18    5.47    0.56
  18 -14  16    4.83    0.55
  16 -18  14    5.41    0.57
  16  18  14    5.00    0.85
  16  18  14    4.49    0.82
  14  16  18    5.32    0.77
  18  14  16    5.19    0.90
  18  14  16    4.59    0.76
  14  16  18    5.54    0.88
  16 -18  16    1.93    0.48
  16 -16  18    2.46    0.47
  18 -16  16    1.65    0.47
  16  16  18    3.23    0.73
  16  18  16    0.86    0.77
  16  18  16    0.88    0.71
  16  16  18    3.51    0.86
  18  16  16    1.13    0.76
  18  16  16    1.52    0.71
   0  18  18  167.61    4.96
  18 -18   0  169.43    4.75
  18  18   0  168.82    4.94
  -2  18  18    5.82    0.71
  18  -2  18    6.29    0.36
  18 -18   2    5.69    0.52
  18 -18  -2    6.41    0.55
   2  18  18    6.59    0.79
  18  18   2    6.52    0.78
  18  -4  18   40.73    1.17
  18  -4  18   40.73    1.69
  18 -18   4   41.57    1.46
  18 -18   4   39.81    2.04
   4  18  18   38.01    1.74
  18 -18  -4   40.83    1.45
  18  18   4   41.56    1.72
  18  -6  18    6.47    0.77
  18 -18   6    5.78    0.55
  18 -18   6    5.43    0.72
  18  -6  18    5.89    0.30
  18  18  -6    6.49    0.77
   6  18  18    5.55    0.84
  18  18   6    6.53    0.79
   8 -18  18    7.29    0.57
   8 -18  18    8.63    0.86
  18  -8  18    6.70    0.79
  18 -18   8    7.48    0.59
  18 -18   8    5.60    0.74
  18  -8  18    8.06    0.58
  18  18  -8    8.09    0.98
   8  18  18    8.13    0.91
  18  18   8    7.23    0.86
  18  18   8    6.87    0.82
  10 -18  18   42.73    1.50
  18 -10  18   41.35    1.49
  18 -18  10   41.70    1.51
  10  18  18   41.59    1.93
  18  18  10   42.59    1.89
  18  18  10   40.97    1.86
  12 -18  18   30.99    1.25
  18 -12  18   32.32    1.26
  18 -18  12   31.51    1.27
  12  18  18   30.77    1.67
  18  12  18   27.93    1.66
  18  12  18   30.98    1.56
  18  18  12   32.09    1.63
  18  18  12   32.65    1.69
  14 -18  18    4.96    0.55
  18 -14  18    4.48    0.54
  18 -18  14    4.64    0.55
  14  18  18    4.64    0.84
  14  18  18    4.19    0.89
  18  14  18    6.40    0.95
  18  14  18    4.68    0.81
  18  18  14    4.30    0.84
  18  18  14    5.21    0.84
  16 -18  18    4.77    0.59
  18 -16  18    4.33    0.55
  18 -18  16    4.13    0.55
  16  18  18    4.80    0.81
  16  18  18    3.45    1.25
  18  16  18    4.54    1.14
  18  16  18    4.64    0.85
  18  18  16    3.34    1.11
  18  18  16    4.29    0.83
  18 -18  18    6.69    0.65
  18  18  18    7.78    0.96
  -1 -19  -1   53.00    1.77
   1 -19   1   54.03    1.78
   1 -19  -1   52.30    1.77
  -1 -19   1   53.03    1.76
  -1 -19  -3    9.83    0.68
   1 -19   3   11.37    0.81
  -1 -19   3    9.70    0.68
   1 -19  -3    8.83    0.65
  -1 -19  -5   27.21    1.11
   1 -19   5   25.13    1.06
   1 -19   5   25.43    1.10
  -1 -19   5   27.54    1.17
   1 -19  -5   26.67    1.13
   1 -19   7    7.71    0.57
   1 -19   7    6.89    0.61
  -1 -19  -7    8.65    0.64
  -1 -19   7    8.83    0.70
   1 -19  -7    9.02    0.66
   1 -19   9   -0.31    0.37
  -1 -19  -9    0.41    0.39
   1 -19   9   -0.68    0.44
  -1 -19   9   -0.20    0.46
  19   9   1   -0.07    0.52
  19  11  -1   16.29    1.05
   1 -19  11   16.88    0.96
   1 -19  11   17.50    1.00
  -1 -19 -11   16.64    0.88
  19  11   1   18.26    1.08
  -1 -19 -13   35.95    1.35
  19  13  -1   34.15    1.48
  -1  19  13   33.77    1.44
  19 -13   1   34.86    1.28
  19 -13  -1   33.61    1.27
  19  13   1   35.90    1.47
   1  19  13   36.89    1.46
  19  15  -1   15.72    1.09
  19 -15   1   15.38    0.86
  15  -1  19   15.17    0.53
  -1  19  15   15.22    1.05
  19  15   1   14.93    1.08
  19 -15  -1   15.44    0.82
   1  19  15   16.11    1.06
  19  17  -1   43.85    1.78
  -1  19  17   41.13    1.75
  19 -17   1   44.71    1.52
   1  19  17   47.04    1.82
  19  17   1   43.34    1.75
  19 -17  -1   43.09    1.53
   3 -19   1    9.32    0.68
   3 -19   1   10.40    0.72
  -3 -19  -1    9.29    0.66
   3 -19  -1   10.04    0.70
  -3 -19   1    8.23    0.62
  -3 -19  -3   44.60    1.56
   3 -19   3   44.08    1.49
   3 -19   3   46.90    1.60
  -3 -19   3   44.71    1.60
   3 -19  -3   44.78    1.59
  -3 -19  -5   56.02    1.84
   3 -19   5   57.89    1.89
   3 -19   5   53.78    1.80
   3 -19  -5   56.42    1.87
  -3 -19   5   58.71    1.92
   3 -19   7   58.14    1.92
   3 -19   7   56.15    1.89
  -3 -19  -7   57.63    1.89
  -3 -19   7   58.93    1.93
   3 -19   9   20.58    0.99
  -3 -19  -9   21.60    1.00
   3 -19   9   20.40    1.04
  19   9   3   19.50    1.09
  -3 -19   9   21.90    1.10
  -3 -19 -11   -0.21    0.36
   3 -19  11    0.26    0.41
   3 -19  11    0.72    0.46
  19  11  -3    0.33    0.54
  19  11   3    0.74    0.55
  19  11   3    0.76    0.41
  13  -3  19   22.71    1.18
  13  -3  19   22.89    0.65
  19 -13   3   23.35    0.99
  -3  19  13   22.35    1.13
  19  13  -3   24.10    1.22
   3 -19  13   21.11    1.13
   3  19  13   22.13    1.24
  19 -13  -3   21.68    0.99
  19  13   3   22.14    1.22
  15  -3  19   20.57    1.16
  -3  19  15   21.73    1.15
  19  15  -3   20.50    1.17
  15  -3  19   21.76    0.66
  19 -15   3   20.28    0.97
  19  15   3   23.61    1.24
   3  19  15   23.11    1.28
  19 -15  -3   21.55    0.97
  17  -3  19   34.97    1.55
  19  17  -3   33.09    1.55
  19 -17   3   35.53    1.30
  -3  19  17   33.17    1.84
  17  -3  19   34.57    1.02
  19  17   3   35.01    1.57
   3  19  17   34.59    1.59
  19 -17  -3   36.18    1.32
  -5 -19  -1   25.70    1.11
   5 -19   1   23.66    1.03
   5 -19   1   27.01    1.14
  -5 -19   1   26.25    1.12
   5 -19  -1   26.10    1.14
   5 -19   3   54.75    1.82
   5 -19   3   58.63    1.89
  -5 -19  -3   56.67    1.85
  -5 -19   3   55.60    1.88
  -5 -19  -5    6.86    0.60
   5 -19   5    7.98    0.62
   5 -19   5    8.07    0.62
  -5 -19   5    8.69    0.71
   5 -19   7   51.78    1.77
  -5 -19  -7   54.18    1.75
   5 -19   7   51.97    1.80
  -5 -19   7   53.49    1.85
  19   7   5   52.08    1.82
  -5 -19  -9   39.04    1.38
   5 -19   9   38.51    1.47
   5 -19   9   39.16    1.46
  19   9   5   39.32    1.54
  19   9   5   36.76    1.40
  11  -5  19    0.89    0.50
   5 -19  11    1.67    0.40
   5 -19  11    1.80    0.49
  19  11  -5    2.35    0.59
  19 -11   5    1.36    0.40
   5 -19  11    2.06    0.51
  -5 -19 -11    2.44    0.46
  19  11   5    1.52    0.47
  19  11   5    0.93    0.56
  19 -13   5   10.43    0.77
  19  13  -5   11.05    0.81
   5 -19  13   10.48    0.76
  13  -5  19    8.36    0.77
   5 -19  13    9.89    0.79
   5 -19  13    9.75    0.70
  19 -13  -5   10.43    0.65
  19  13   5   10.79    0.79
  19  13   5   11.80    0.89
   5  19  13    8.99    0.82
   5 -19  15    6.72    0.74
  15  -5  19    6.65    0.26
  19  15  -5    7.60    0.74
   5 -19  15    7.62    0.57
  19 -15   5    6.67    0.57
  15  -5  19    5.48    0.68
   5  19  15    7.20    0.81
  19  15   5    6.05    0.70
  19 -15  -5    7.37    0.56
  19  15   5    6.66    0.75
  19  17  -5    0.92    0.62
  17  -5  19    0.02    0.14
  19 -17   5    0.24    0.39
  17  -5  19   -0.30    0.47
   5  19  17   -0.29    0.62
  19 -17  -5    0.02    0.39
  19  17   5    0.06    0.60
  -7 -19  -1    8.94    0.67
   7 -19   1    8.07    0.65
  -7 -19   1    8.77    0.69
   7 -19  -1    9.32    0.71
  19   1   7    7.68    0.60
   7 -19   3   57.02    1.92
  -7 -19  -3   59.43    1.92
   7 -19   3   57.63    1.92
  -7 -19   3   58.70    1.97
   7 -19   5   53.22    1.80
   7 -19   5   52.23    1.82
  -7 -19  -5   52.85    1.76
   5   7  19   54.03    1.93
  19   5   7   53.87    1.86
  -7 -19  -7  191.51    5.37
   7 -19   7  188.48    5.43
   7 -19   7  197.48    5.42
  19   7   7  190.97    5.41
   7   7  19  194.91    5.52
  19   7   7  184.64    5.36
   9  -7  19    5.63    0.66
   7 -19   9    4.51    0.58
   7 -19   9    4.43    0.56
  -7 -19  -9    5.89    0.55
  19   9   7    4.72    0.66
   9   7  19    5.82    0.73
  19   9   7    5.84    0.58
  19 -11   7   59.04    1.94
   7 -19  11   59.90    2.09
   7 -19  11   64.88    2.06
   7 -19  11   62.56    1.90
  11  -7  19   60.78    2.15
  19  11   7   60.34    2.11
  19  11   7   57.26    2.04
  19 -13   7    5.10    0.51
   7 -19  13    5.51    0.60
   7 -19  13    6.04    0.68
  13  -7  19    6.29    0.70
   7 -19  13    6.34    0.53
  19 -13   7    4.73    0.65
  19  13   7    6.31    0.70
  19 -13  -7    6.64    0.54
  19  13   7    5.24    0.70
   7  19  13    8.29    0.83
  15  -7  19    9.96    0.86
  19 -15   7   12.97    0.79
   7 -19  15   11.81    0.91
   7 -19  15   12.76    0.77
  19 -15   7    9.52    0.85
  19  15  -7   11.98    0.89
  19  15   7   10.39    0.87
   7  19  15   13.75    1.01
  19 -15  -7   11.47    0.81
  19  15   7   10.67    0.90
   7 -19  17    0.62    0.57
  17  -7  19    1.26    0.57
  19 -17   7    0.11    0.53
  17  -7  19    1.16    0.13
   7 -19  17    1.05    0.41
  19 -17   7    0.96    0.43
  19  17  -7    0.77    0.63
  19  17   7    0.09    0.63
   7  19  17    1.50    0.70
  19 -17  -7    0.82    0.47
  19  17   7    1.26    0.66
  -1   9  19    0.33    0.47
   9 -19   1    0.42    0.43
  19  -1   9    0.17    0.40
  -9 -19  -1   -0.01    0.44
   1   9  19   -0.63    0.48
  19   1   9    0.08    0.37
  -9 -19   1   -0.15    0.45
   9 -19   3   20.00    1.04
  -9 -19  -3   20.11    0.99
  19  -3   9   20.68    1.06
   9 -19   3   20.79    1.03
   3   9  19   20.69    1.14
  19  -5   9   37.96    1.50
   9 -19   5   39.83    1.48
   9 -19   5   40.44    1.47
  -9 -19  -5   39.16    1.45
   5   9  19   38.66    1.58
  19   5   9   36.94    1.44
  19   5   9   38.33    1.52
  -9 -19  -7    6.24    0.59
   9 -19   7    4.31    0.56
  19  -7   9    5.37    0.62
   9 -19   7    5.58    0.60
   7   9  19    6.26    0.73
  19   7   9    5.43    0.61
  19   7   9    5.21    0.65
  19  -9   9   18.94    0.94
   9 -19   9   22.58    1.08
   9  -9  19   18.80    1.13
   9 -19   9   19.80    1.08
   9 -19   9   19.71    0.90
  19  -9   9   21.38    1.15
   9   9  19   21.27    1.24
  19   9   9   20.34    1.03
  19   9   9   19.47    1.14
   9 -19  11   16.42    1.05
  19 -11   9   17.83    1.09
  19 -11   9   17.64    0.87
   9 -19  11   16.13    0.85
   9 -19  11   16.10    0.96
  11  -9  19   16.90    0.84
  11  -9  19   15.97    1.07
  11   9  19   16.05    1.08
  19  11   9   15.02    1.12
  19  11   9   15.35    1.05
  19 -11  -9   16.02    0.87
   9 -19  13    5.55    0.71
  19 -13   9    5.34    0.52
  13  -9  19    6.06    0.73
  19 -13   9    5.77    0.72
  13  -9  19    6.95    0.53
   9 -19  13    5.38    0.52
   9  19  13    6.23    0.82
  13   9  19    5.59    0.79
  19 -13  -9    7.29    0.58
  19  13   9    6.08    0.70
  19  13   9    7.18    0.80
  19 -15   9   26.35    1.14
  15  -9  19   27.06    1.10
  19 -15   9   25.39    1.37
  15  -9  19   26.33    1.38
   9 -19  15   29.92    1.14
   9 -19  15   27.41    1.38
   9  19  15   29.63    1.52
  19  15   9   27.27    1.42
  19  15   9   29.71    1.47
  17  -9  19   36.00    1.67
   9 -19  17   35.19    2.04
   9 -19  17   38.79    1.40
  17  -9  19   37.52    1.36
  19 -17   9   36.49    1.38
  19  17   9   36.84    1.70
   9  19  17   37.26    1.82
  19  17   9   36.55    1.68
  -1  11  19   17.62    1.02
  19  -1  11   18.07    0.98
  11 -19   1   17.14    0.96
   1  11  19   16.77    1.05
  19  -3  11    0.02    0.45
  11 -19   3    0.55    0.43
  -3  11  19    0.73    0.49
   3  11  19    0.32    0.53
  11 -19   5    1.94    0.47
  11 -19   5    0.94    0.47
  19  -5  11    1.39    0.52
   5  11  19    2.31    0.62
  19   5  11    1.65    0.57
  19   5  11    2.68    0.53
  19  -7  11   61.74    1.99
  11 -19   7   60.86    2.02
  11 -19   7   60.47    2.12
  19  -7  11   61.11    2.15
  11 -19   7   61.17    1.90
  19   7  11   60.16    2.09
   7  11  19   61.96    2.19
  19   7  11   61.49    2.10
  11 -19   9   16.32    1.08
  11 -19   9   18.16    0.99
  11 -19   9   16.80    0.84
  19  -9  11   16.70    1.10
   9 -11  19   14.89    1.08
   9 -11  19   15.20    0.79
  19  -9  11   16.19    0.85
  19  -9 -11   15.59    0.85
  19   9  11   16.53    1.04
   9  11  19   18.01    1.19
  19   9  11   16.81    1.11
  11 -19  11   68.56    2.40
  19 -11  11   69.40    2.18
  11 -19  11   74.40    2.18
  11 -11  19   69.31    2.15
  11 -11  19   70.89    2.44
  19 -11  11   69.36    2.45
  19  11  11   70.33    2.37
  19 -11 -11   69.15    2.19
  19  11  11   68.77    2.39
  11  11  19   73.66    2.50
  11 -19  13    3.35    0.47
  19 -13  11    3.19    0.64
  11 -19  13    3.51    0.67
  19 -13  11    3.13    0.49
  13 -11  19    2.95    0.44
  13 -11  19    2.36    0.60
  11  19  13    2.78    0.74
  13  11  19    3.02    0.74
  19  13  11    2.68    0.70
  19  13  11    3.77    0.67
  19 -15  11    1.39    0.56
  11 -19  15    0.84    0.40
  15 -11  19    0.51    0.58
  19 -15  11    0.40    0.42
  11 -19  15    1.14    0.59
  15 -11  19    0.84    0.39
  11  19  15    0.33    0.66
  19  15  11    1.12    0.67
  11  19  15    1.62    0.70
  15  11  19   -0.10    0.67
  19  15  11   -0.02    0.61
  19 -17  11   15.55    0.92
  17 -11  19   15.86    0.90
  11 -19  17   15.45    0.90
  17  11  19   16.75    1.21
  19  17  11   17.15    1.31
  19  17  11   15.43    1.11
  17  11  19   15.14    1.20
  11  19  17   17.16    1.25
  11  19  17   14.30    1.12
  -1  13  19   35.39    1.46
  19  -1  13   36.16    1.43
   1  13  19   34.00    1.49
  -3  13  19   24.15    1.18
  19  -3  13   24.50    1.17
  13 -19   3   23.64    1.14
  13 -19   3   21.69    0.95
  19  -3 -13   22.79    1.06
   3  13  19   23.38    1.25
  13 -19   5   10.68    0.75
  19  -5  13   10.37    0.81
  13 -19   5    9.34    0.70
  19  -5  13    9.80    0.40
  13 -19   5   10.14    0.81
  19  -5  13   10.02    0.89
   5  13  19   10.55    0.88
  19  -5 -13   10.44    0.71
  13 -19   7    6.49    0.60
  19  -7  13    5.73    0.72
  13 -19   7    6.84    0.54
  13 -19   7    6.42    0.71
   7 -13  19    5.87    0.49
  19  -7  13    6.15    0.54
  19  -7 -13    6.48    0.59
  19   7  13    6.50    0.73
  19   7  13    6.53    0.72
   7  13  19    7.71    0.83
  13 -19   9    5.34    0.51
   9 -13  19    4.98    0.69
  19  -9  13    6.81    0.55
  13 -19   9    6.91    0.75
   9 -13  19    5.49    0.50
  13 -19   9    6.94    0.74
  19  -9  13    5.18    0.71
   9  13  19    5.36    0.81
  19   9  13    5.38    0.73
  19  -9 -13    6.94    0.58
  19   9  13    5.74    0.74
  13 -19  11    4.22    0.68
  19 -11  13    3.44    0.50
  11 -13  19    3.51    0.67
  13 -19  11    2.84    0.47
  19 -11  13    3.01    0.67
  11 -13  19    3.76    0.45
  19  11  13    2.68    0.67
  19  11  13    3.21    0.70
  13  19  11    4.17    0.76
  11  13  19    3.06    0.74
  13 -19  13   26.39    1.10
  13 -19  13   24.42    1.38
  19 -13  13   24.72    1.42
  13 -13  19   26.62    1.10
  13 -13  19   24.56    1.41
  19 -13  13   25.97    1.14
  13  19  13   24.08    1.46
  13  19  13   25.34    1.40
  19  13  13   28.22    1.44
  19  13  13   23.65    1.40
  13  13  19   23.53    1.46
  13 -19  15    7.78    0.62
  19 -15  13    6.85    0.62
  15 -13  19    6.54    0.57
  19  15  13    6.53    0.85
  19  15  13    7.75    0.88
  13  19  15    9.17    0.96
  13  19  15    7.23    0.86
  15  13  19    7.10    0.93
  19 -17  13   29.20    1.27
  17 -13  19   29.27    1.23
  13 -19  17   31.44    1.25
  13  19  17   29.55    1.61
  13  19  17   29.14    1.65
  19  17  13   30.26    1.60
  17  13  19   31.31    1.56
  17  13  19   27.03    1.66
  19  17  13   29.88    1.58
  -1  15  19   13.49    0.93
  15 -19   1   15.11    0.80
   1  15  19   15.97    1.13
  15 -19  -1   14.67    0.78
  15 -19   3   20.90    0.93
  -3  15  19   20.98    1.14
  19  -3  15   22.74    1.16
  19  -3  15   20.91    0.69
  15 -19   3   21.98    1.07
   3  15  19   23.17    1.31
  19  -3 -15   21.47    1.09
  15 -19  -3   20.10    0.90
  19  -5  15    7.17    0.74
  19  -5  15    6.29    0.56
  15 -19   5    7.66    0.67
  15 -19   5    7.58    0.56
  19  -5  15    6.80    0.34
  15 -19   5    6.73    0.72
   5  15  19    7.95    0.82
  19  -5 -15    6.41    0.62
  15 -19   7   11.71    0.82
   7 -15  19   11.70    0.74
  19  -7  15   11.82    0.80
  19  -7  15   10.57    0.91
  15 -19   7   11.49    0.82
  15 -19   7    9.95    0.85
   7  15  19   13.71    1.02
  19  -7 -15   12.15    0.83
  19  -9  15   27.22    1.41
   9 -15  19   28.03    1.11
   9 -15  19   24.35    1.40
  15 -19   9   27.12    1.39
  15 -19   9   30.40    1.14
  19  -9  15   26.49    1.15
  19   9  15   27.17    1.50
   9  15  19   30.64    1.52
  19   9  15   29.34    1.45
  15  19   9   27.05    1.45
  15 -19  11   -0.07    0.41
  15 -19  11    0.24    0.54
  19 -11  15    0.95    0.44
  19 -11  15    0.65    0.58
  11 -15  19    1.06    0.41
  11 -15  19    0.87    0.60
  11  15  19    1.08    0.66
  15  19  11    0.31    0.65
  15  19  11    0.49    0.69
  19  11  15    0.66    0.65
  19  11  15    0.61    0.68
  15 -19  13    7.04    0.61
  19 -13  15    7.45    0.61
  13 -15  19    5.64    0.55
  19  13  15    7.79    0.85
  13  15  19    6.38    0.89
  19  13  15    6.80    0.92
  15  19  13    7.47    0.93
  15  19  13    8.54    0.88
  15 -15  19    0.69    0.43
  15 -19  15    1.56    0.46
  19 -15  15    0.82    0.44
  15  19  15    1.46    0.72
  19  15  15    1.24    0.69
  19  15  15    1.94    0.76
  15  15  19    0.31    0.73
  15  19  15    1.42    0.74
  17 -15  19    0.51    0.43
  19 -17  15    0.11    0.44
  15 -19  17   -0.81    0.41
  19  17  15   -0.31    0.73
  17  15  19   -0.42    0.68
  17  15  19   -0.23    0.79
  15  19  17    0.72    0.73
  19  17  15   -0.06    0.67
  15  19  17   -0.65    0.76
  -1  17  19   42.86    1.73
  17 -19   1   43.12    1.48
  17 -19  -1   42.89    1.48
   1  17  19   43.17    1.75
  19  -3  17   34.82    1.53
  19  -3  17   34.91    1.02
  17 -19   3   34.09    1.28
  17 -19   3   32.70    1.40
   3  17  19   37.63    1.65
  19  -3 -17   34.30    1.35
  17 -19  -3   32.62    1.24
  19  -5  17    0.16    0.16
  19  -5  17   -0.13    0.56
  17 -19   5    0.56    0.70
  17 -19   5    0.33    0.38
  17 -19   5    0.14    0.51
   5  17  19    0.61    0.64
  17  19   5    0.01    0.63
  19  -5 -17    1.08    0.51
  17 -19   7    0.98    0.42
  17 -19   7   -0.17    0.52
  19  -7  17    1.26    0.16
  19  -7  17    1.72    0.63
  19  -7  17    0.73    0.42
   7  17  19    1.13    0.69
  17  19   7    0.40    0.64
  17 -19   9   37.84    1.41
  19  -9  17   35.16    1.73
  19  -9  17   37.71    1.40
   9 -17  19   39.32    1.41
   9  17  19   39.76    1.85
  17  19   9   39.02    1.79
  17  19   9   38.81    1.76
  17 -19  11   16.60    0.92
  11 -17  19   17.02    0.94
  19 -11  17   15.09    0.87
  19  11  17   15.21    1.17
  17  19  11   13.62    1.14
  19  11  17   17.77    1.22
  17  19  11   16.43    1.27
  11  17  19   15.20    1.16
  19 -13  17   30.15    1.24
  17 -19  13   30.32    1.23
  13 -17  19   28.39    1.19
  17  19  13   28.11    1.66
  17  19  13   30.48    1.66
  13  17  19   26.41    1.69
  19  13  17   29.44    1.71
  19  13  17   29.27    1.55
  15 -17  19    0.47    0.42
  19 -15  17   -0.14    0.44
  17 -19  15   -0.35    0.44
  17  19  15   -0.82    0.74
  17  19  15    0.50    0.74
  15  17  19   -0.15    0.78
  19  15  17    0.88    0.78
  19  15  17    0.64    0.72
  17 -19  17    1.94    0.50
  17 -17  19    1.68    0.48
  19 -17  17    1.45    0.48
  17  19  17    1.14    0.76
  17  17  19    2.32    0.81
  19  17  17    0.69    0.79
  -1  19  19    2.55    0.66
  19  19  -1    2.32    0.69
  19 -19   1    3.34    0.46
  19 -19  -1    2.57    0.45
   1  19  19    3.28    0.69
  19  19   1    2.89    0.70
  19  -3  19   14.65    0.56
  19  19  -3   16.74    1.23
  19 -19   3   15.74    0.86
  19  -3 -19   14.45    1.02
   3  19  19   14.72    1.08
  19 -19  -3   15.11    0.87
  19  19   3   13.30    1.01
  19  -5  19    1.91    0.61
  19  19  -5    2.04    0.67
  19 -19   5    3.22    0.48
  19  -5  19    2.72    0.23
   5  19  19    3.42    0.77
  19 -19  -5    2.34    0.44
  19  19   5    1.61    0.71
  19  19  -7   32.96    1.60
  19 -19   7   35.26    1.34
  19  -7  19   34.40    0.99
   7  19  19   34.10    1.76
  19  19   7   30.55    1.62
  19  19   7   34.49    1.63
  19  -9  19   -0.06    0.14
  19 -19   9    0.31    0.44
  19  -9  19    0.15    0.43
   9  19  19   -0.21    0.71
  19  19   9    0.47    0.71
  19  19   9   -0.17    0.69
  11 -19  19   26.05    1.11
  19 -11  19   24.17    1.11
  19 -19  11   23.38    1.16
  11  19  19   25.04    1.58
  19  19  11   23.08    1.56
  19  19  11   25.42    1.58
  13 -19  19    1.74    0.50
  19 -13  19    1.59    0.47
  19 -19  13    0.72    0.47
  13  19  19    2.69    0.83
  19  13  19    0.52    0.73
  19  19  13    1.94    0.77
  19  19  13    1.53    0.76
  15 -19  19    0.07    0.46
  19 -19  15    0.15    0.46
  19 -15  19    0.01    0.43
  19  15  19    0.55    0.74
  19  19  15    0.37    0.77
  17 -19  19   10.16    0.73
  19 -17  19    9.74    0.71
  19 -19  17   10.19    0.73
  17  19  19   11.40    1.04
  19  17  19   10.10    1.02
  19  19  17   11.33    1.06
  19 -19  19    3.89    0.55
  19  19  19    3.06    0.85
   0 -20   0   99.04    2.98
   0 -20   2    0.49    0.44
   0 -20  -2   -0.57    0.40
   0 -20   4   52.91    1.80
   0 -20  -4   51.45    1.76
   0 -20  -6   -0.15    0.42
   0 -20   6    0.04    0.45
   0 -20  -8   24.13    1.06
   0 -20   8   23.43    1.15
  20   8   0   20.55    1.13
   0 -20 -10   -0.58    0.41
  20  10   0   -0.51    0.51
   0 -20  10    0.00    0.46
  20 -12   0    0.66    0.41
   0 -20 -12    0.77    0.46
  20  12   0    1.00    0.56
   0  20  14   -0.29    0.54
  14   0  20    0.05    0.17
  20 -14   0    0.38    0.39
   0 -20 -14    0.38    0.44
  20  14   0    0.33    0.57
  20 -16   0   14.95    0.89
  20  16   0   14.14    1.11
   0  20  16   14.78    1.00
   0  20  18   -0.18    0.61
  20  18   0    0.30    0.61
  20 -18   0   -0.04    0.37
  -2 -20   0    0.02    0.46
   2 -20   0   -0.07    0.42
  -2 -20  -2   22.03    1.07
   2 -20   2   23.50    1.09
  -2 -20   2   23.84    1.10
   2 -20  -2   22.39    1.07
   2 -20   4   13.22    0.91
  -2 -20  -4   13.53    0.85
  -2 -20   4   13.56    0.91
   2 -20  -4   13.30    0.86
  -2 -20  -6   89.20    2.77
   2 -20   6   94.26    2.82
   2 -20  -6   92.94    2.80
  -2 -20   6   93.39    2.85
  20   6   2   88.69    2.86
   2 -20   8    1.12    0.41
  20   8  -2    1.65    0.60
  -2 -20  -8    1.09    0.44
   2 -20   8    1.54    0.48
  20   8   2    1.61    0.54
   2 -20  -8    1.30    0.47
  -2 -20   8    1.51    0.53
  20  10  -2   29.07    1.30
   2 -20  10   31.22    1.32
   2 -20  10   27.83    1.23
  20 -10   2   29.91    1.18
  -2 -20 -10   31.22    1.22
  20  10   2   30.81    1.34
   2 -20  12   16.11    0.99
  -2 -20 -12   18.66    0.97
  20 -12   2   18.37    0.91
   2 -20  12   16.96    1.04
  20  12  -2   19.19    1.16
  12  -2  20   18.22    0.55
  20 -12  -2   17.04    0.93
  20  12   2   17.95    1.12
  14  -2  20    0.25    0.15
  20 -14   2   -0.32    0.37
  20  14  -2   -0.02    0.57
  -2  20  14   -0.60    0.51
   2  20  14   -0.27    0.55
  20  14   2    0.09    0.58
  20 -14  -2    0.47    0.40
  -2  20  16   32.10    1.49
  20  16  -2   35.09    1.54
  20 -16   2   33.60    1.30
  16  -2  20   32.35    0.99
  20  16   2   35.73    1.53
   2  20  16   32.66    1.52
  20 -16  -2   33.94    1.27
  20 -18   2    4.36    0.50
  20  18  -2    4.23    0.74
  -2  20  18    4.18    1.06
  20 -18  -2    5.79    0.55
   2  20  18    5.21    0.79
  20  18   2    4.80    0.75
   4 -20   0   53.57    1.83
  -4 -20   0   53.56    1.83
  -4 -20  -2   12.95    0.86
   4 -20   2   11.93    1.01
   4 -20   2   14.09    0.89
   4 -20  -2   12.58    0.81
  -4 -20   2   14.01    0.89
   4 -20   4   15.20    0.93
  -4 -20  -4   14.82    0.88
   4 -20   4   13.70    0.80
   4 -20  -4   14.74    0.91
  20   4   4   15.47    1.04
  -4 -20   4   14.22    0.95
   4 -20   6    5.62    0.62
   4 -20   6    5.43    0.54
  -4 -20  -6    4.31    0.54
  -4 -20   6    4.15    0.60
  20   6   4    4.18    0.59
   4 -20   8    0.74    0.43
  -4 -20  -8    0.97    0.43
   4 -20   8    0.33    0.46
  -4 -20   8    0.14    0.50
  20   8   4    1.65    0.55
   4 -20  10    0.55    0.48
  20  10  -4    0.31    0.52
  20 -10   4   -0.41    0.36
   4 -20  10   -0.02    0.33
   4 -20  10    0.14    0.43
  -4 -20 -10   -0.33    0.39
  20  10   4   -0.48    0.54
  20 -10  -4   -0.22    0.40
  20 -12   4   13.96    0.82
   4 -20  12   14.01    0.94
  20  12  -4   13.80    1.06
   4 -20  12   14.72    0.77
   4 -20  12   13.69    0.95
  20 -12  -4   12.43    0.84
  20  12   4   14.28    1.09
  20 -14   4   -0.07    0.39
  14  -4  20    0.05    0.12
  20  14  -4    0.46    0.58
   4 -20  14   -0.08    0.48
  14  -4  20    0.35    0.51
  20 -14  -4    0.18    0.39
   4  20  14    0.36    0.60
  20  14   4    0.63    0.53
  20  14   4    0.43    0.59
  16  -4  20    5.30    0.30
  20  16  -4    4.85    0.69
  20 -16   4    5.68    0.56
  16  -4  20    4.14    0.68
  20 -16  -4    4.97    0.50
  20  16   4    4.58    0.73
   4  20  16    5.03    0.77
  20  18  -4    3.79    0.71
  20 -18   4    2.58    0.47
  18  -4  20    2.73    0.23
  18  -4  20    2.84    0.63
   4  20  18    3.49    0.79
  20  18   4    4.34    0.76
  20 -18  -4    3.87    0.49
   6 -20   0   -0.08    0.43
  -6 -20   0   -0.29    0.45
  -6 -20  -2   92.42    2.80
   6 -20   2   95.45    2.83
   6 -20   2   85.08    2.75
  -6 -20   2   94.60    2.85
   6 -20  -2   94.12    2.83
  -6 -20  -4    5.34    0.58
   6 -20   4    4.22    0.55
   6 -20   4    6.30    0.58
  20   4   6    4.45    0.63
  -6 -20   4    5.60    0.65
  -6 -20  -6  374.86   10.32
   6 -20   6  395.15   10.37
   6 -20   6  363.33   10.34
  20   6   6  379.66   10.35
   6 -20   8    2.75    0.53
  -6 -20  -8    2.59    0.46
   6 -20   8    2.90    0.52
  20   8   6    2.20    0.55
   6 -20  10   83.22    2.45
   6 -20  10   86.81    2.63
   6 -20  10   79.87    2.64
  20 -10   6   83.17    2.49
  20  10   6   85.23    2.66
  20 -10  -6   77.57    2.48
  12  -6  20   -0.14    0.48
   6 -20  12    0.15    0.36
  20  12  -6   -0.07    0.53
   6 -20  12   -0.10    0.45
   6 -20  12   -0.06    0.45
  20 -12   6   -0.35    0.37
  20 -12  -6   -0.03    0.39
  20  12   6    0.70    0.58
  20  12   6   -0.53    0.46
  20  14  -6   18.47    1.16
   6 -20  14   19.31    0.89
  20 -14   6   17.15    0.91
   6 -20  14   17.48    1.10
  14  -6  20   18.11    1.14
  20 -14  -6   17.02    0.95
  20  14   6   18.33    1.13
   6  20  14   17.73    1.24
  20  14   6   16.51    1.21
   6 -20  16    0.43    0.54
  20 -16   6    0.43    0.52
  16  -6  20    0.21    0.13
  20 -16   6    1.25    0.41
  16  -6  20    0.45    0.54
  20  16  -6   -0.63    0.57
  20  16   6    0.93    0.59
   6  20  16    0.45    0.64
  20  16   6    0.25    0.63
  20 -16  -6    0.41    0.40
  18  -6  20   20.19    0.65
  20 -18   6   21.95    1.02
  20  18  -6   20.60    1.29
  20 -18  -6   20.06    1.01
  20  18   6   19.17    1.29
  20  18   6   21.62    1.37
   6  20  18   21.25    1.40
  20   0   8   23.38    1.06
  -8 -20   0   23.43    1.11
   8 -20   0   22.76    1.11
   8 -20   2    1.25    0.44
   8 -20   2    2.07    0.50
  -8 -20  -2    1.21    0.49
  20  -2   8    1.98    0.48
  -8 -20   2    1.78    0.51
  20  -4   8    1.26    0.49
   8 -20   4    0.98    0.45
  -8 -20  -4    0.80    0.47
   8 -20   4    0.75    0.44
  20   4   8    0.57    0.52
   8 -20   6    2.97    0.52
  -8 -20  -6    3.39    0.50
   8 -20   6    3.29    0.52
  20  -6   8    2.68    0.55
   6   8  20    2.42    0.60
  20   6   8    3.10    0.61
   8 -20   8   81.06    2.38
  20  -8   8   76.39    2.60
  -8 -20  -8   83.56    2.53
   8 -20   8   82.15    2.54
  20  -8   8   76.61    2.42
   8 -20   8   78.65    2.56
  20   8   8   79.86    2.57
  20  -8  -8   80.17    2.46
   8 -20  10    1.41    0.50
   8 -20  10    2.20    0.56
  10  -8  20    1.52    0.55
  20 -10   8    2.08    0.44
   8 -20  10    1.78    0.40
  20 -10   8    1.57    0.55
  20  10   8    1.07    0.51
  20 -10  -8    2.09    0.46
  20  10   8    1.29    0.58
   8 -20  12   40.86    1.38
   8 -20  12   40.74    1.56
   8 -20  12   38.80    1.61
  12  -8  20   36.09    1.47
  12  -8  20   41.09    1.67
  20 -12   8   38.04    1.64
  20  12   8   37.93    1.54
  20 -12  -8   40.57    1.43
  20  12   8   39.85    1.65
  20 -14   8    0.75    0.54
  14  -8  20    0.57    0.55
   8 -20  14    1.09    0.41
  20 -14   8    1.00    0.41
   8 -20  14    0.20    0.51
  20  14   8    0.03    0.55
   8  20  14    0.93    0.65
  20  14   8    0.61    0.64
  20 -14  -8    1.81    0.45
  20 -16   8   11.62    1.21
  16  -8  20   10.65    0.94
   8 -20  16    8.01    0.84
  20 -16   8   11.10    0.71
   8 -20  16    8.39    0.62
  20  16   8    9.34    0.90
  20 -16  -8    9.24    0.65
  20  16   8    9.01    0.89
   8  20  16   12.45    1.05
  18  -8  20    3.41    0.20
  20 -18   8    3.82    0.53
  20  18   8    3.65    0.80
  20  18   8    3.19    0.75
   8  20  18    4.02    0.84
   0  10  20   -0.41    0.50
  20   0  10   -0.36    0.41
  10 -20   0   -0.19    0.42
 -10 -20  -2   32.88    1.34
  10 -20   2   29.88    1.30
  20  -2  10   31.83    1.33
   2  10  20   31.70    1.46
  10 -20   4    0.33    0.45
  20  -4  10    0.45    0.46
  10 -20   4   -0.37    0.41
 -10 -20  -4   -0.33    0.41
   4  10  20    0.21    0.55
  20  -4 -10    0.48    0.68
  20  -6  10   80.70    2.50
 -10 -20  -6   83.51    2.60
  10 -20   6   85.19    2.62
  10 -20   6   83.13    2.48
  20  -6  10   85.11    2.72
  10 -20   6   82.34    2.69
  20   6  10   84.76    2.70
   6  10  20   87.89    2.78
  20   6  10   86.37    2.67
  20  -6 -10   78.60    2.52
  10 -20   8    1.28    0.39
  10 -20   8    1.04    0.51
  20  -8  10    1.98    0.57
   8 -10  20    0.96    0.35
  20  -8  10    1.95    0.41
  10 -20   8    2.42    0.53
  20  -8 -10    1.88    0.45
   8  10  20    1.68    0.65
  20   8  10    1.64    0.59
  20   8  10    1.47    0.56
  10 -10  20    8.72    0.81
  20 -10  10   12.44    0.93
  10 -20  10   12.87    0.79
  20 -10  10   10.38    0.76
  10 -20  10    9.45    0.80
  10 -10  20    9.07    0.68
  10 -20  10   10.84    0.77
  20 -10 -10   10.55    0.79
  10  10  20    9.72    0.91
  20  10  10   12.12    0.88
  20  10  10    9.39    0.82
  12 -10  20   14.66    1.11
  20 -12  10   13.45    0.83
  10 -20  12   13.53    1.00
  12 -10  20   14.23    0.79
  20 -12  10   13.83    1.08
  10 -20  12   15.66    0.87
  20 -12 -10   14.80    0.89
  20  12  10   13.71    0.96
  10  20  12   15.04    1.08
  12  10  20   11.39    1.02
  20  12  10   16.04    1.15
  14 -10  20   22.41    1.00
  20 -14  10   20.97    1.29
  14 -10  20   19.86    1.31
  20 -14  10   21.65    1.03
  10 -20  14   22.58    1.00
  10 -20  14   22.84    1.29
  20  14  10   21.40    1.29
  10  20  14   25.58    1.44
  20  14  10   21.40    1.34
  16 -10  20   14.73    0.88
  10 -20  16   15.04    0.89
  20 -16  10   14.30    0.89
  20  16  10   17.51    1.29
  20  16  10   14.78    1.07
  10  20  16   14.89    1.04
  10  20  16   16.46    1.20
  10 -20  18   17.78    0.97
  20 -18  10   19.41    1.05
  18 -10  20   18.81    0.96
  20  18  10   19.78    1.46
  10  20  18   19.70    1.33
  20  18  10   16.76    1.22
   0  12  20   -0.18    0.54
  20  -2  12   17.29    1.05
  12 -20   2   19.81    1.03
  -2  12  20   18.15    1.06
  12 -20   2   17.22    0.87
   2  12  20   17.95    1.13
  20  -2 -12   18.32    0.97
  12 -20   4   13.38    0.77
  20  -4  12   12.64    0.95
  12 -20   4   14.45    0.96
  20  -4  12   12.87    0.83
  12 -20   4   13.55    0.95
   4  12  20   15.06    1.10
  20  -4 -12   13.10    0.93
  20  -6  12    0.01    0.15
  12 -20   6    0.28    0.36
  20  -6  12    0.34    0.49
  12 -20   6    0.24    0.44
  12 -20   6   -0.06    0.47
  20  -6  12   -0.24    0.36
  20  -6 -12   -0.03    0.42
   6  12  20   -0.16    0.56
  20   6  12   -0.47    0.56
  12 -20   8   42.77    1.43
  20  -8  12   40.82    1.68
  20  -8  12   39.91    1.44
   8 -12  20   39.34    1.39
  12 -20   8   43.12    1.57
  12 -20   8   40.30    1.67
  20  -8 -12   38.92    1.47
  20   8  12   40.51    1.66
  20   8  12   39.75    1.63
   8  12  20   41.46    1.76
  20 -10  12   14.73    0.87
  12 -20  10   12.96    1.03
  12 -20  10   14.07    0.82
  10 -12  20   14.94    1.12
  20 -10  12   11.28    0.93
  10 -12  20   14.48    0.79
  20 -10 -12   14.13    0.91
  20  10  12   15.38    1.04
  20  10  12   13.76    0.99
  10  12  20   16.05    1.12
  12 -20  12   18.34    1.22
  12 -12  20   18.49    1.26
  20 -12  12   20.26    1.02
  20 -12  12   19.10    1.27
  12 -12  20   20.33    0.93
  12 -20  12   19.74    0.96
  12  12  20   19.26    1.35
  20  12  12   20.41    1.30
  20  12  12   19.03    1.28
  12  20  12   20.66    1.44
  12 -20  14    2.09    0.48
  20 -14  12    2.15    0.48
  14 -12  20    2.62    0.45
  14  12  20    2.54    0.77
  12  20  14    3.20    0.74
  20  14  12    2.44    0.69
  12  20  14    2.83    0.79
  20  14  12    2.34    0.72
  20 -16  12    9.02    0.67
  16 -12  20   10.98    0.80
  12 -20  16    9.46    0.68
  20  16  12    7.99    0.91
  16  12  20    7.60    0.99
  12  20  16   10.41    1.03
  12  20  16    9.06    0.92
  20  16  12    9.62    0.96
  18 -12  20    1.46    0.46
  20 -18  12    0.77    0.47
  12 -20  18    2.00    0.49
  20  18  12    1.10    0.74
  20  18  12    0.98    0.76
  12  20  18    1.45    0.79
   0  14  20    0.17    0.55
  14 -20   0   -0.01    0.34
  20  -2  14   -0.07    0.47
  14 -20   2    0.92    0.47
  14 -20   2    0.02    0.35
  -2  14  20    0.50    0.53
   2  14  20    1.26    0.59
  20  -2 -14    0.09    0.45
  14 -20  -2    0.42    0.37
  14 -20   4   -0.57    0.35
  20  -4  14    0.68    0.52
  20  -4  14   -0.03    0.38
  14 -20   4   -0.33    0.44
  14 -20   4    0.13    0.48
  20  -4  14   -0.30    0.29
   4  14  20    0.48    0.57
  20  -4 -14   -0.12    0.47
  14 -20   6   18.27    1.04
  20  -6  14   17.44    0.58
  20  -6  14   16.27    1.11
  14 -20   6   15.52    1.08
  14 -20   6   18.98    0.89
  20  -6  14   17.94    0.91
   6  14  20   18.00    1.17
  20  -6 -14   15.55    0.94
  14 -20   8    0.73    0.63
  14 -20   8    0.06    0.52
  14 -20   8    0.44    0.39
  20  -8  14    0.74    0.56
  20  -8  14    0.46    0.42
   8 -14  20    0.41    0.37
   8  14  20    0.64    0.63
  20   8  14    1.13    0.61
  20   8  14    0.22    0.61
  20  -8 -14   -0.05    0.44
  10 -14  20   22.33    0.97
  20 -10  14   22.83    1.04
  20 -10  14   20.58    1.33
  14 -20  10   23.63    1.05
  14 -20  10   22.18    1.31
  10 -14  20   18.78    1.28
  14  20  10   20.68    1.35
  20  10  14   22.37    1.31
  20  10  14   22.21    1.32
  10  14  20   21.34    1.40
  20 -12  14    3.14    0.50
  12 -14  20    1.82    0.44
  14 -20  12    2.38    0.46
  14  20  12    1.39    0.72
  12  14  20    2.28    0.75
  14  20  12    2.46    0.73
  20  12  14    2.10    0.69
  20  12  14    3.57    0.76
  14 -20  14   16.51    0.93
  14 -14  20   17.15    0.90
  20 -14  14   16.03    0.96
  20  14  14   14.65    1.15
  14  20  14   15.80    1.13
  14  20  14   18.85    1.26
  14  14  20   12.55    1.14
  20  14  14   15.39    1.09
  16 -14  20    6.26    0.58
  14 -20  16    6.64    0.63
  20 -16  14    6.13    0.59
  20  16  14    5.91    0.92
  20  16  14    6.89    0.88
  14  20  16    5.80    0.95
  14  20  16    6.84    0.90
  16  14  20    6.86    0.97
  18 -14  20    7.18    0.62
  20 -18  14    8.03    0.68
  14 -20  18    8.03    0.66
  20  18  14    8.63    0.96
  14  20  18    8.22    0.96
  18  14  20    7.86    0.89
  16 -20   0   14.61    0.82
   0  16  20   15.24    1.11
  16 -20   2   30.97    1.19
  16 -20   2   32.42    1.35
  -2  16  20   29.88    1.44
  16 -20  -2   31.96    1.20
   2  16  20   33.41    1.52
  20  -2 -16   31.21    1.34
  20  -4  16    4.74    0.28
  16 -20   4    3.97    0.47
  20  -4  16    4.61    0.69
  16 -20   4    4.30    0.66
  16 -20   4    4.47    0.61
  20  -4 -16    5.64    0.61
   4  16  20    4.43    0.75
  16 -20   6    0.91    0.69
  20  -6  16    0.62    0.41
  20  -6  16    0.40    0.17
  16 -20   6    0.14    0.40
  20  -6  16    0.60    0.55
  16 -20   6    0.00    0.52
  20  -6 -16   -0.03    0.46
   6  16  20    0.67    0.67
  20  -8  16   10.32    0.67
  16 -20   8   11.34    0.78
  16 -20   8    7.05    0.83
  20  -8  16   10.70    0.39
  20  -8  16    8.79    0.88
  16  20   8    9.04    0.90
   8  16  20    9.94    0.97
  20 -10  16   15.22    0.90
  10 -16  20   16.75    0.86
  16 -20  10   13.23    0.86
  16  20  10   16.05    1.13
  20  10  16   13.98    1.11
  16  20  10   16.13    1.15
  10  16  20   14.63    1.15
  20  10  16   15.15    1.04
  20 -12  16    8.53    0.65
  16 -20  12    9.52    0.68
  12 -16  20   10.01    0.67
  20  12  16   10.48    0.94
  16  20  12    9.31    0.92
  20  12  16    9.48    1.01
  12  16  20   10.24    1.06
  16  20  12    8.94    1.00
  14 -16  20    5.59    0.57
  20 -14  16    5.02    0.55
  16 -20  14    6.74    0.60
  16  20  14    5.50    0.89
  16  20  14    6.90    0.95
  14  16  20    5.55    0.91
  20  14  16    3.71    0.90
  20  14  16    5.49    0.85
  20 -16  16    0.09    0.44
  16 -16  20    0.11    0.40
  16 -20  16    0.66    0.48
  20  16  16    0.36    0.75
  16  20  16    0.59    0.78
  20  16  16   -0.62    1.32
  16 -20  18    0.03    0.46
  20 -18  16    0.62    0.47
  18 -16  20   -0.24    0.42
  20  18  16   -0.44    0.75
  16  20  18    0.55    0.76
  18  16  20    1.19    0.74
   0  18  20    1.15    0.64
  18 -20   0   -0.04    0.38
  18 -20   2    4.71    0.62
  18 -20   2    4.61    0.51
  18 -20  -2    3.84    0.48
  18  20   2    3.28    0.73
   2  18  20    4.16    0.75
  20  -2 -18    4.39    0.60
  18 -20   4    3.49    0.47
  20  -4  18    3.08    0.25
  20  -4 -18    2.55    0.57
   4  18  20    3.07    0.73
  18  20   4    4.21    0.75
  18 -20  -4    2.97    0.46
  20  -6  18   20.63    0.68
  18 -20   6   21.00    1.00
   6  18  20   20.95    1.38
  18  20   6   20.37    1.44
  18 -20   8    3.25    0.49
  18  20  -8    3.53    0.76
  20  -8  18    3.97    0.51
  20  -8  18    3.30    0.23
  18  20   8    3.16    0.81
  18  20   8    2.89    0.78
   8  18  20    3.52    0.81
  20 -10  18   18.78    0.58
  18 -20  10   17.83    0.97
  10 -18  20   18.33    0.95
  20 -10  18   16.44    0.96
  18  20  10   18.25    1.34
  18  20  10   17.94    1.24
  10  18  20   16.86    1.23
  20 -12  18    0.72    0.45
  12 -18  20    1.07    0.46
  18 -20  12    0.66    0.45
  18  20  12    0.18    0.75
  18  20  12    0.89    0.72
  12  18  20    2.28    0.82
  18 -20  14    8.11    0.66
  20 -14  18    7.56    0.64
  14 -18  20    7.46    0.64
  18  20  14    8.27    0.98
  20  14  18    7.98    0.92
  16 -18  20    0.81    0.47
  18 -20  16   -0.18    0.46
  20 -16  18    0.13    0.43
  20  16  18   -0.06    0.76
  18  20  16   -0.50    0.75
  18 -20  18    4.57    0.57
  18 -18  20    4.27    0.56
  20 -18  18    3.62    0.56
  18  20  18    4.89    0.91
  18  18  20    6.11    0.92
  20  18  18    5.02    0.92
   0  20  20   -0.59    0.63
  20 -20   0   -0.10    0.39
  20  20   0   -0.76    0.65
  20  20  -2    2.24    0.72
  20 -20   2    2.54    0.48
  20 -20  -2    2.17    0.45
  20  -2 -20    3.20    0.58
   2  20  20    2.46    0.72
  20  20   2    3.12    0.75
  20  20  -4    0.25    0.67
  20  -4  20    0.87    0.21
  20 -20   4    1.32    0.44
  20 -20  -4    0.98    0.43
   4  20  20    0.68    0.68
  20  20   4    0.86    0.70
  20  20  -6    3.92    0.74
  20 -20   6    1.33    0.46
  20  -6  20    1.71    0.21
   6  20  20    1.76    0.75
  20  20   6    1.96    0.73
  20  20   6    2.02    0.76
  20  -8  20   86.25    2.31
  20 -20   8   86.32    2.62
   8  20  20   83.79    3.01
  20  20   8   77.39    2.92
  20  20   8   84.58    2.89
  20 -10  20    3.43    0.23
  20 -20  10    3.19    0.54
  20 -10  20    4.48    0.54
  10  20  20    5.13    0.99
  20  20  10    4.18    0.87
  20  20  10    3.04    0.86
  20 -20  12   71.25    2.31
  20 -12  20   72.58    2.28
  20 -12  20   72.00    1.97
  20  20  12   72.69    2.67
  14 -20  20    0.42    0.48
  20 -20  14    1.23    0.48
  20 -14  20    0.71    0.45
  20  20  14    0.83    0.80
  16 -20  20   10.05    0.72
  20 -20  16    8.47    0.70
  20 -16  20    8.32    0.67
  20  20  16   10.07    1.03
  18 -20  20    0.25    0.48
  20 -18  20    0.15    0.46
  20 -20  18   -0.07    0.47
  18  20  20    0.03    1.26
  20  20  18    0.08    0.81
  20 -20  20  116.51    3.43
  20  20  20  115.05    3.66
  -1 -21  -1    7.06    0.62
   1 -21   1    8.33    0.71
   1 -21  -1    8.37    0.69
  -1 -21   1    5.39    0.61
  -1 -21  -3   35.65    1.41
   1 -21   3   37.11    1.45
   1 -21  -3   36.34    1.41
  -1 -21   3   36.15    1.44
  21   5  -1   -0.01    0.48
   1 -21   5    0.57    0.47
  -1 -21  -5    0.34    0.46
  -1 -21   5    0.70    0.48
  21   5   1    0.48    0.50
   1 -21  -5    1.53    0.48
   1 -21   7   32.55    1.34
  -1 -21  -7   32.49    1.33
  21   7  -1   32.04    1.33
  21   7   1   30.70    1.34
   1 -21  -7   31.45    1.31
  -1 -21   7   32.50    1.38
  -1 -21  -9    0.39    0.43
   1 -21   9    0.28    0.50
  21   9  -1    0.56    0.53
  21  -9   1   -0.14    0.37
  21  -9  -1   -0.25    0.36
  21   9   1   -0.31    0.52
  -1 -21   9   -0.63    0.47
   1 -21  -9    0.10    0.43
  11  -1  21    1.10    0.17
  21  11  -1    0.97    0.55
   1 -21  11    0.43    0.51
  -1 -21 -11    1.17    0.48
  21 -11   1    1.54    0.43
  21  11   1    0.82    0.55
   1 -21 -11    0.89    0.48
  21 -11  -1    1.62    0.42
  13  -1  21    1.18    0.18
  -1  21  13    0.30    0.53
  21 -13   1    1.30    0.42
  -1 -21 -13    1.02    0.48
  21  13  -1    0.46    0.58
  21  13   1    0.56    0.58
   1 -21 -13    1.00    0.50
   1  21  13    0.70    0.58
  21 -13  -1    1.27    0.42
  21 -15   1    8.14    0.63
  -1  21  15    7.16    0.77
  15  -1  21    9.09    0.43
  21  15  -1    8.43    0.82
   1 -21 -15    8.98    0.73
  21 -15  -1    8.58    0.62
   1  21  15    8.89    0.83
  21  15   1    7.73    0.82
  -1  21  17   -0.83    0.57
  21  17  -1    0.42    0.65
  21 -17   1    0.34    0.40
  21 -17  -1   -0.13    0.40
  21  17   1    0.39    0.64
   1  21  17   -0.59    0.61
  21  19  -1    2.54    0.71
  21 -19   1    1.14    0.43
  21 -19  -1    1.57    0.44
   1  21  19    2.08    0.71
  21  19   1    2.84    0.74
  19  -1 -21    2.24    0.59
  -3 -21  -1   37.76    1.45
   3 -21   1   38.22    1.46
  -3 -21   1   36.54    1.45
   3 -21  -1   38.24    1.46
  -3 -21  -3    1.16    0.46
   3 -21   3    0.69    0.49
  -3 -21   3    0.82    0.46
   3 -21  -3    0.74    0.46
   3 -21   5   81.63    2.54
  -3 -21  -5   78.64    2.50
   3 -21  -5   79.94    2.52
  -3 -21   5   81.86    2.57
  21   5   3   77.46    2.52
  -3 -21  -7   33.87    1.32
  21   7  -3   30.05    1.37
   3 -21   7   33.49    1.39
  21   7   3   33.68    1.39
   3 -21  -7   34.61    1.36
  -3 -21   7   32.45    1.41
   3 -21   9   24.07    0.96
   3 -21   9   24.37    1.18
  21   9  -3   21.76    1.14
  -3 -21  -9   26.59    1.11
  21  -9   3   23.63    1.04
   9  -3  21   23.82    0.67
   3 -21   9   21.58    1.06
  21   9   3   23.80    1.20
   3 -21  -9   24.47    1.14
  21  -9  -3   21.96    1.03
  -3 -21 -11   16.48    0.97
   3 -21  11   17.99    1.06
   3 -21  11   16.30    1.01
  11  -3  21   17.30    0.52
  21  11  -3   18.05    1.11
  21 -11   3   17.64    0.90
  21  11   3   17.15    1.11
  21 -11  -3   16.95    0.92
   3 -21  13    0.26    0.51
  21  13  -3    0.70    0.56
  -3  21  13   -0.22    0.50
  21 -13   3    0.38    0.39
  13  -3  21    0.47    0.14
  21 -13  -3    0.42    0.42
   3  21  13    0.26    0.57
  21  13   3    0.18    0.58
  21  15  -3    2.26    0.66
  21 -15   3    1.90    0.45
  -3  21  15    1.54    0.68
  15  -3  21    1.71    0.18
   3  21  15    0.81    0.62
  21  15   3    1.81    0.67
  21 -15  -3    1.26    0.43
  21 -17   3    8.68    0.63
  21  17  -3    9.22    0.88
  17  -3  21    8.84    0.42
  21 -17  -3    9.19    0.65
   3  21  17    8.80    0.91
  21  17   3   10.28    0.94
  21  19  -3    1.05    0.67
  21 -19   3    0.07    0.41
   3  21  19    0.74    0.71
  21 -19  -3    0.46    0.39
  21  19   3    0.66    0.67
   5 -21   1    0.12    0.46
  -5 -21  -1    0.25    0.45
  -5 -21   1    0.38    0.47
   5 -21  -1    0.45    0.47
  -5 -21  -3   79.96    2.51
   5 -21   3   81.17    2.54
  -5 -21   3   79.94    2.56
   5 -21  -3   79.50    2.54
  -5 -21  -5   99.01    3.04
   5 -21   5   96.12    3.01
   5 -21   5  104.75    3.09
  -5 -21   5  104.23    3.12
   5 -21  -5  100.81    3.07
  21   5   5   99.40    3.06
   5 -21   7   73.95    2.31
  -5 -21  -7   69.68    2.23
  21  -7   5   66.22    2.13
  21   7  -5   68.10    2.26
   5 -21   7   65.55    2.22
  21   7   5   72.36    2.32
  21  -7  -5   68.41    2.15
   5 -21   9   77.29    2.30
  -5 -21  -9   77.09    2.40
  21  -9   5   75.75    2.35
   5 -21   9   84.06    2.49
  21   9  -5   72.15    2.41
   5 -21   9   72.67    2.44
  21  -9  -5   75.01    2.35
  21   9   5   78.18    2.48
  21  11  -5    0.04    0.54
   5 -21  11    0.50    0.36
   5 -21  11   -0.23    0.46
   5 -21  11   -0.37    0.43
  21 -11   5    0.01    0.38
  21  11   5   -0.16    0.56
  21 -11  -5    0.63    0.39
   5 -21  13    1.11    0.53
  21  13  -5    0.98    0.60
   5 -21  13    0.95    0.40
  13  -5  21    1.26    0.12
  21 -13   5    2.07    0.45
   5 -21  13    1.05    0.51
  21  13   5    0.48    0.59
   5  21  13    0.77    0.63
  21 -13  -5    1.33    0.43
  21 -15   5   11.55    0.85
   5 -21  15   10.39    0.90
  15  -5  21   12.40    0.42
  21  15  -5   13.66    0.95
  21 -15  -5   11.10    0.83
   5  21  15   11.67    0.96
  21  15   5   11.44    0.91
  21  17  -5   10.48    0.91
  21 -17   5    9.59    0.67
  17  -5  21   10.87    0.42
   5  21  17   11.96    1.02
  21  17   5    9.42    0.93
  21 -17  -5    9.92    0.67
  21  19  -5    0.85    0.68
  21 -19   5    0.46    0.43
  19  -5  21   -0.08    0.18
  21  19   5    0.77    0.72
  21 -19  -5    0.77    0.42
   5  21  19    1.88    0.76
   7 -21   1   29.92    1.26
   7 -21   1   33.43    1.35
  -7 -21  -1   32.35    1.38
   7 -21  -1   31.40    1.34
  -7 -21   1   34.52    1.37
   7 -21   3   34.91    1.36
   7 -21   3   29.45    1.24
  -7 -21  -3   31.21    1.33
  -7 -21   3   30.73    1.36
   7 -21  -3   32.71    1.33
   7 -21   5   72.72    2.32
   7 -21   5   65.24    2.24
  -7 -21  -5   71.70    2.27
  21   5   7   72.15    2.32
  21  -5  -7   69.17    2.18
   7 -21   7  144.43    4.00
   7 -21   7  129.46    3.97
   7 -21   7  133.27    3.81
  -7 -21  -7  138.05    3.94
  21  -7   7  129.82    3.84
  21  -7  -7  132.11    3.85
  21   7   7  136.15    3.98
   7 -21   9    1.32    0.51
   7 -21   9    1.88    0.52
   7 -21   9    1.96    0.40
  21  -9   7    1.93    0.44
  21  -9  -7    1.52    0.45
  21   9   7    2.54    0.60
  21 -11   7   32.89    1.31
   7 -21  11   32.73    1.47
   7 -21  11   32.78    1.41
   7 -21  11   34.53    1.24
  21  11   7   35.12    1.50
  21 -11  -7   34.03    1.31
   7 -21  13   15.64    1.05
   7 -21  13   13.96    0.84
  21 -13   7   13.73    0.86
   7 -21  13   13.27    1.06
  21 -13   7   17.38    1.12
  21 -13  -7   14.34    0.87
   7  21  13   16.70    1.21
  21  13   7   15.29    1.17
  15  -7  21    6.36    0.79
  21 -15   7    6.74    0.78
   7 -21  15    6.39    0.75
   7 -21  15    8.69    0.61
  21 -15   7    8.07    0.61
   7  21  15    7.47    0.88
  21 -15  -7    7.32    0.60
  21  15   7    7.03    0.83
  21  15   7    6.72    1.10
  21  17  -7    2.06    0.71
  21 -17   7    2.27    0.49
  17  -7  21    2.22    0.18
   7  21  17    2.08    0.77
  21  17   7    1.70    0.72
  21 -17  -7    2.12    0.47
  21  17   7    2.02    0.72
  21  19  -7   33.16    1.64
  21 -19   7   33.33    1.31
  19  -7  21   31.27    0.96
  21  19   7   34.39    1.76
  21  19   7   30.31    1.65
   7  21  19   33.60    1.80
  21   1  -9   -0.46    0.44
  -9 -21  -1    0.44    0.48
  21  -1   9    0.40    0.43
   9 -21   1   -0.09    0.44
   9 -21   1    0.04    0.40
  21  -1  -9    0.13    0.41
   9 -21  -1   -0.22    0.46
   9 -21   3   24.02    1.16
   9 -21   3   26.31    1.18
  -9 -21  -3   22.81    1.12
  21  -3   9   23.97    1.15
  21  -3  -9   22.86    1.08
  -9 -21  -5   76.91    2.43
   9 -21   5   81.83    2.50
   9 -21   5   73.46    2.30
   9 -21   5   76.61    2.50
  21  -5   9   75.96    2.52
  21  -5   9   73.94    2.32
  21   5   9   77.23    2.49
  21  -5  -9   78.06    2.37
   9 -21   7    1.58    0.40
   9 -21   7    1.79    0.51
  21  -7   9    2.37    0.57
   9 -21   7    1.03    0.49
  21  -7   9    1.79    0.43
  21  -7  -9    1.70    0.44
  21   7   9    2.09    0.61
  21  -9   9   75.91    2.33
   9  -9  21   69.79    2.25
   9 -21   9   78.17    2.31
   9 -21   9   78.84    2.47
   9 -21   9   73.78    2.50
  21  -9   9   75.51    2.58
  21   9   9   78.67    2.53
  21  -9  -9   77.80    2.38
  21 -11   9    2.12    0.45
  21 -11   9    3.93    0.67
   9 -21  11    3.68    0.63
  11  -9  21    3.27    0.43
   9 -21  11    3.30    0.57
   9 -21  11    3.56    0.46
  21  11   9    2.75    0.64
  21 -11  -9    3.37    0.50
  13  -9  21    1.23    0.59
   9 -21  13    1.06    0.41
  21 -13   9    1.40    0.44
  21 -13   9    1.24    0.56
   9 -21  13    0.53    0.56
  13  -9  21    0.57    0.37
  21  13   9    1.26    0.58
  21  13   9    1.56    0.65
   9  21  13    1.17    0.72
  21 -13  -9    1.05    0.45
  21 -15   9    0.44    0.42
  15  -9  21    0.46    0.40
   9 -21  15    0.38    0.43
  21 -15  -9    0.61    0.45
   9  21  15    0.52    0.71
  21  15   9    0.53    0.63
  21  15   9    0.64    0.69
  21 -17   9   29.27    1.21
   9 -21  17   28.70    1.18
  17  -9  21   26.87    1.27
  17  -9  21   28.82    0.80
   9  21  17   28.97    1.62
  21  17   9   25.20    1.53
  21  17   9   26.59    1.54
  19  -9  21   18.43    0.58
  21 -19   9   17.86    0.99
  21  19   9   14.40    1.19
   9  21  19   17.61    1.31
  21  19   9   17.27    1.21
  11 -21   1    1.03    0.39
  11 -21   1    0.88    0.50
   1  11  21    1.11    0.58
  21  -1 -11    1.11    0.47
  11 -21  -1    1.75    0.51
  11 -21   3   16.78    1.04
  21  -3  11   17.48    1.06
  11 -21   3   16.76    1.05
  11 -21   3   17.69    0.83
  21  -3  11   16.17    0.86
  21  -3 -11   17.15    0.95
   3  11  21   17.60    1.16
  -3 -11  21   16.14    0.52
  11 -21   5   -0.17    0.43
  21  -5  11    0.25    0.49
  11 -21   5    0.67    0.39
  11 -21   5   -0.10    0.44
  21  -5  11    0.21    0.38
  21  -5 -11    0.01    0.44
   5  11  21    0.93    0.62
  21  -7  11   33.04    1.26
  21  -7  11   30.80    1.47
  11 -21   7   32.55    1.24
  21  -7  11   32.18    1.02
  11 -21   7   32.19    1.37
  11 -21   7   33.29    1.46
   7  11  21   31.99    1.58
  21   7  11   35.18    1.49
  21  -7 -11   32.82    1.28
  21  -9  11    2.18    0.63
  21  -9  11    2.37    0.45
   9 -11  21    2.99    0.43
  11 -21   9    3.26    0.45
  11 -21   9    2.31    0.55
  11 -21   9    3.39    0.61
  21  -9 -11    2.61    0.47
  21   9  11    3.12    0.67
  21   9  11    3.41    0.93
   9  11  21    4.32    0.77
  11 -11  21    4.16    0.47
  11 -21  11    3.66    0.68
  21 -11  11    4.29    0.71
  11 -21  11    3.89    0.48
  21 -11  11    3.46    0.50
  21 -11 -11    4.04    0.52
  11  11  21    4.36    0.80
  21  11  11    3.83    0.71
  21  11  11    4.16    0.72
  11 -21  13   19.50    0.98
  11 -21  13   15.46    1.16
  21 -13  11   17.19    0.95
  13 -11  21   18.39    0.90
  21  13  11   18.60    1.31
  11  21  13   17.60    1.20
  21 -13 -11   18.04    0.98
  21  13  11   16.53    1.14
  15 -11  21   17.23    0.90
  21 -15  11   18.47    0.97
  11 -21  15   18.80    0.96
  21  15  11   15.72    1.14
  11  21  15   18.25    1.36
  11  21  15   16.65    1.21
  21  15  11   17.20    1.35
  21 -17  11   -0.17    0.45
  11 -21  17    0.58    0.44
  17 -11  21    0.62    0.42
  11  21  17   -1.02    0.74
  11  21  17   -0.69    0.69
  21  17  11    0.47    0.71
  21  17  11    0.24    0.71
  19 -11  21   44.23    1.61
  21 -19  11   46.05    1.68
  19 -11  21   46.07    1.28
  21  19  11   47.13    2.07
  13 -21   1    1.11    0.50
  -1  13  21    0.41    0.56
  13 -21   1    1.26    0.38
   1  13  21    0.46    0.59
  21  -1 -13    0.96    0.48
  13 -21  -1    0.49    0.37
  13 -21   3    0.80    0.47
  13 -21   3    0.11    0.46
  21  -3  13    0.67    0.40
  13 -21   3    1.05    0.37
  21  -3  13    0.45    0.51
  -3 -13  21    0.32    0.14
  21  -3 -13   -0.11    0.43
   3  13  21   -0.48    0.60
  13 -21   5    1.51    0.54
  21  -5  13    1.16    0.55
  21  -5  13    1.73    0.42
  13 -21   5    1.64    0.41
  13 -21   5    1.91    0.52
  21  -5 -13    1.25    0.48
   5  13  21    0.70    0.62
  21  -7  13   13.16    0.82
  13 -21   7   16.07    0.88
  13 -21   7   14.91    1.10
  21  -7  13   14.82    0.54
  13 -21   7   15.53    1.01
  21  -7  13   16.68    1.11
  21  -7 -13   14.63    0.93
   7  13  21   16.44    1.12
  13 -21   9    0.83    0.55
   9 -13  21    1.63    0.40
  21  -9  13    1.14    0.59
  13 -21   9    1.07    0.40
  21  -9  13    0.67    0.41
   9  13  21   -0.01    0.68
  21   9  13    0.96    0.64
  21  -9 -13    0.90    0.44
  21   9  13    1.07    0.64
  21 -11  13   17.54    1.46
  13 -21  11   17.47    1.28
  21 -11  13   16.14    0.93
  11 -13  21   17.09    0.91
  13 -21  11   18.58    0.96
  21  11  13   20.06    1.28
  21 -11 -13   17.70    1.17
  13  21  11   18.99    1.25
  21  11  13   18.02    1.17
  11  13  21   18.33    1.25
  13 -13  21    0.26    0.39
  13 -21  13   -0.55    0.40
  21 -13  13    0.31    0.44
  13  13  21   -0.32    0.69
  13  21  13   -0.18    0.71
  21  13  13    0.60    0.76
  13  21  13   -0.04    0.70
  21  13  13    0.16    0.68
  21 -15  13    2.71    0.52
  15 -13  21    1.63    0.43
  13 -21  15    2.26    0.48
  15  13  21    1.86    0.85
  21  15  13    1.40    0.77
  13  21  15    1.40    0.79
  21  15  13    1.76    0.74
  13  21  15    2.65    0.76
  13 -21  17    8.48    0.69
  21 -17  13    9.28    0.70
  17 -13  21    9.48    0.66
  21  17  13   10.40    0.98
  13  21  17   10.92    1.03
  13  21  17   10.78    1.33
  21  17  13   11.72    1.12
  13 -21  19    5.57    0.61
  21 -19  13    4.74    0.60
  19 -13  21    5.53    0.57
  21  19  13    5.76    0.91
  -1  15  21    7.12    0.80
  15 -21   1    8.54    0.72
  15 -21   1    9.08    0.59
   1  15  21    8.34    0.85
  21  -1 -15    8.73    0.71
  15 -21  -1    8.00    0.57
  15 -21   3    1.74    0.51
  15 -21   3    0.46    0.50
  15 -21   3    1.57    0.41
  21  -3 -15    1.19    0.50
   3  15  21    0.58    0.65
  -3 -15  21    1.32    0.16
  15 -21   5   10.03    0.87
  15 -21   5   10.75    0.80
  21  -5  15   12.23    0.82
  15 -21   5   12.72    0.93
  21  -5  15   13.01    0.96
  21  -5 -15   12.80    0.93
   5  15  21   13.03    1.02
  21  -7  15    6.74    0.58
  15 -21   7    7.35    0.79
  21  -7  15    7.01    0.37
  21  -7  15    6.73    0.80
  15 -21   7    6.77    0.56
   7  15  21    7.73    0.88
  21  -7 -15    7.76    0.65
  21  -9  15    0.78    0.42
  15 -21   9    1.30    0.44
  21  -9  15    0.57    0.17
   9  15  21   -0.05    0.66
  11 -15  21   19.32    0.95
  21 -11  15   17.88    0.98
  15 -21  11   16.14    0.93
  15  21  11   16.48    1.24
  15  21  11   18.60    1.33
  11  15  21   18.98    1.28
  21  11  15   17.66    1.33
  21  11  15   16.44    1.21
  13 -15  21    2.02    0.46
  21 -13  15    1.34    0.48
  15 -21  13    2.40    0.49
  21  13  15    0.43    0.70
  15  21  13    2.41    0.81
  21  13  15    1.33    0.77
  15  21  13    2.44    0.78
  13  15  21    2.84    0.84
  21 -15  15    6.37    0.61
  15 -15  21    6.74    0.61
  15 -21  15    8.37    0.68
  21  15  15    7.46    1.00
  15  21  15    7.15    0.94
  21  15  15    6.53    0.91
  15  21  15    5.83    0.95
  15  15  21    8.41    1.04
  17 -15  21    3.63    0.51
  21 -17  15    4.35    0.57
  15 -21  17    4.46    0.57
  21  17  15    4.06    0.89
  15  21  17    3.50    0.86
  19 -15  21    0.65    0.43
  15 -21  19    0.33    0.48
  21 -19  15    1.20    0.49
  21  19  15    0.14    0.81
  17 -21   1   -0.27    0.45
  17 -21   1   -0.34    0.35
  -1  17  21    0.04    0.60
   1  17  21    0.29    0.62
  21  -1 -17    0.15    0.50
  17 -21  -1   -0.06    0.37
  17 -21   3    9.63    0.64
  17 -21   3    9.23    0.78
  21  -3 -17    9.82    0.72
  17 -21  -3    8.08    0.61
   3  17  21    9.10    0.92
  21  -5  17   10.32    0.48
  17 -21   5    9.34    0.65
  21  -5  17    9.30    0.93
  21  -5 -17   11.05    0.77
   5  17  21   11.89    1.03
  21  -7  17    2.60    0.47
  17 -21   7    1.94    0.45
  21  -7  17    2.18    0.22
  17  21   7    1.20    0.70
   7  17  21    2.55    0.76
  21  -9  17   27.46    1.19
  21  -9  17   27.45    0.85
  17 -21   9   27.87    1.17
  17  21   9   29.90    1.62
   9  17  21   26.67    1.66
  17  21   9   28.70    1.68
  21 -11  17    0.22    0.17
  17 -21  11    0.78    0.46
  21 -11  17    0.05    0.42
  11 -17  21    0.45    0.42
  11  17  21    0.37    0.76
  17  21  11   -0.03    0.69
  17  21  11    0.47    0.74
  13 -17  21   10.19    0.69
  17 -21  13    9.15    0.69
  21 -13  17    9.15    0.70
  21  13  17   10.78    1.10
  21  13  17   10.36    0.97
  17  21  13   10.29    1.10
  17  21  13   10.30    1.01
  13  17  21   11.84    1.21
  15 -17  21    4.13    0.54
  21 -15  17    2.83    0.54
  17 -21  15    2.89    0.54
  17  21  15    3.30    0.86
  21  15  17    4.50    0.84
  17 -17  21   -0.01    0.45
  21 -17  17   -0.32    0.45
  17 -21  17    0.05    0.47
  17  21  17    0.30    0.77
  21  17  17    1.30    0.78
  17 -21  19    8.41    0.71
  21 -19  17   12.28    0.77
  19 -17  21   10.16    0.72
  17  21  19   12.32    1.07
  21  19  17   10.81    1.08
  19 -21   1    1.82    0.44
  19 -21   1    2.72    0.58
  19  21  -1    1.34    0.70
  21  -1 -19    1.85    0.56
  19  21   1    1.62    0.70
  19 -21  -1    1.14    0.43
   1  19  21    1.67    0.69
  19  21  -3    0.33    0.65
  19 -21   3   -0.09    0.39
   3  19  21    0.21    0.70
  19 -21  -3    0.30    0.41
  19  21   3    0.77    0.70
  21  -3 -19    0.62    0.55
  21  -5  19    0.56    0.21
  19  21  -5   -0.32    0.65
  19 -21   5    0.26    0.42
   5  19  21    1.11    0.72
  19  21   5    0.60    0.72
  21  -7  19   32.59    0.99
  19  21  -7   31.62    1.59
  19 -21   7   34.38    1.33
  19  21   7   34.59    1.68
  19  21   7   29.01    1.73
   7  19  21   30.63    1.71
  21  -9  19   17.27    0.97
  21  -9  19   17.99    0.61
  19 -21   9   17.04    0.98
  19  21   9   19.08    1.48
   9  19  21   17.37    1.33
  19  21   9   17.28    1.26
  21 -11  19   44.22    1.61
  19 -21  11   45.09    1.63
  21 -11  19   45.33    1.29
  19  21  11   47.83    2.10
  19 -21  13    4.54    0.60
  21 -13  19    5.58    0.59
  21 -13  19    6.53    0.33
  19  21  13    4.74    0.91
  15 -19  21    1.45    0.48
  19 -21  15    0.55    0.48
  21 -15  19    0.10    0.44
  19  21  15   -0.33    0.77
  17 -19  21   13.17    0.93
  21 -17  19   10.62    0.76
  19 -21  17   12.53    0.81
  21  17  19   13.48    1.11
  19  21  17   11.76    1.09
  19 -21  19   21.80    1.12
  19 -19  21   19.32    1.04
  21 -19  19   18.23    1.04
  19  21  19   20.61    1.55
  21  19  19   19.68    1.56
  21  21  -1   -0.12    0.68
  21 -21   1   -0.07    0.40
  21 -21  -1   -0.05    0.42
  21  -1 -21    0.91    0.54
   1  21  21    0.51    0.74
  21  21   1    0.27    0.67
  21  21  -3    4.25    0.80
  21 -21   3    6.22    0.58
  21 -21  -3    5.39    0.56
   3  21  21    5.88    0.91
  21  21   3    4.46    0.83
  21  21  -5    3.68    0.78
  21  -5  21    2.89    0.40
  21 -21   5    1.69    0.48
  21 -21  -5    3.09    0.51
   5  21  21    2.61    0.95
  21  21   5    3.19    0.81
  21 -21   7    6.62    0.62
  21  -7  21    7.21    0.41
  21  21  -7    5.84    0.84
  21  21   7    5.24    0.89
  21 -21   9   28.33    1.23
  21  -9  21   28.80    0.88
  21  21   9   27.03    1.71
  21 -21  11   19.43    1.06
  21 -11  21   19.98    1.04
  21 -11  21   21.07    0.68
  21  21  11   21.96    1.59
  21 -21  13   14.03    0.98
  21 -13  21   14.02    0.93
  21 -13  21   13.85    0.51
  21  21  13   14.42    1.17
  21 -21  15    0.08    0.48
  21 -15  21   -0.13    0.42
  21 -15  21    0.26    0.17
  21  21  15   -0.41    0.79
  21 -21  17    3.33    0.57
  21 -17  21    3.62    0.54
  21 -17  21    4.42    0.24
  21  21  17    3.58    0.90
  19 -21  21   30.05    1.28
  21 -21  19   30.30    1.29
  21 -19  21   30.76    1.27
  21  21  19   30.68    1.72
  21 -21  21   33.02    1.30
   0 -22   0   -0.61    0.44
   0 -22  -2    0.12    0.46
   0 -22   2    0.00    0.46
   0 -22   4   -0.79    0.46
  22  -4   0    0.46    0.65
   0 -22  -4    0.58    0.48
  22   6   0    0.05    0.49
   0 -22  -6   -0.58    0.45
   0 -22   6    0.43    0.48
  22  -6   0   -0.25    0.37
  22   8   0   -0.13    0.58
  22   8   0   -0.01    0.52
  22  -8   0   -0.17    0.38
   0 -22   8   -0.26    0.50
   0 -22  -8    0.51    0.46
   0 -22  10    1.56    0.56
  22 -10   0    1.86    0.44
  22  10   0    1.49    0.52
  22  10   0    2.60    0.59
   0 -22 -10    2.10    0.51
   0 -22 -12   -0.15    0.48
  22  12   0    0.27    0.65
  22  12   0   -0.65    0.53
  22 -12   0   -0.49    0.39
  22  14   0   10.43    0.86
  22 -14   0   11.02    0.69
   0  22  14    9.20    0.86
   0 -22 -14    9.05    0.77
  22 -16   0   -0.29    0.40
   0  22  16    0.00    0.58
  22  16   0   -0.61    0.61
   0  22  18    4.60    0.81
  22 -18   0    5.21    0.55
  22  18   0    5.47    0.82
  20   0 -22   -0.85    0.55
  22  20   0   -0.16    0.67
  22 -20   0   -0.15    0.40
  -2 -22   0    0.22    0.47
   2 -22   0    0.23    0.45
   2 -22   2   39.48    1.53
  -2 -22  -2   39.06    1.51
  -2 -22   2   39.81    1.53
   2 -22  -2   39.53    1.53
  22  -4   2   -0.10    0.60
  -2 -22  -4    0.41    0.46
   2 -22   4    0.10    0.48
  22  -4  -2    0.28    0.40
  -2 -22   4   -0.31    0.45
   2 -22  -4    0.31    0.44
  22  -6   2   12.02    0.83
  -2 -22  -6   13.20    0.89
  22   6  -2   15.18    1.06
  22   6  -2   11.85    0.81
   2 -22   6   13.78    0.95
   2 -22  -6   12.27    0.90
  -2 -22   6   10.15    0.81
  22  -6  -2   11.71    0.83
  22   6   2   13.18    0.96
  22   8  -2    0.91    0.51
   2 -22   8    0.91    0.53
  22   8  -2    0.13    0.51
  -2 -22  -8    1.04    0.48
  22  -8   2    1.16    0.40
  22   8   2    0.75    0.52
   2 -22  -8    0.22    0.47
  22  -8  -2    1.14    0.43
  -2 -22   8    0.01    0.52
  22 -10   2    1.26    0.41
  -2 -22 -10    0.95    0.46
   2 -22  10    0.07    0.51
  10  -2  22    0.75    0.15
  22  10  -2    1.08    0.55
  22  10   2    0.17    0.53
  22 -10  -2    0.42    0.39
   2 -22 -10    0.61    0.51
  22  12  -2    0.30    0.57
  22 -12   2    0.18    0.40
  -2 -22 -12   -0.69    0.44
  12  -2  22    0.57    0.16
  22 -12  -2    0.37    0.41
  22  12   2   -0.65    0.57
   2 -22 -12   -0.10    0.50
  -2  22  14    9.80    0.84
  22  14  -2    9.35    0.83
  14  -2  22    8.50    0.41
  22 -14   2    8.66    0.65
  22 -14  -2    9.49    0.65
   2  22  14    8.24    0.86
   2 -22 -14    9.44    0.78
  22  14   2    8.94    0.83
  22 -16   2   -0.76    0.40
  16  -2  22   -0.35    0.19
  -2  22  16    0.60    0.76
  22  16  -2   -0.26    0.64
   2  22  16    0.53    0.61
  22 -16  -2   -0.38    0.41
  22  16   2    0.58    0.65
   2 -22 -16   -0.08    0.61
  22  18  -2    6.46    0.83
  22 -18   2    6.56    0.58
   2  22  18    5.47    0.85
  22 -18  -2    6.05    0.58
  22  18   2    5.66    0.86
  22  20  -2    0.52    0.70
  22 -20   2   -0.49    0.42
  22  20   2    0.76    0.73
  22 -20  -2    0.06    0.41
   2  22  20   -0.02    0.69
  22   0  -4   -0.65    0.60
   4 -22   0   -0.09    0.47
  -4 -22   0    0.52    0.47
  -4 -22  -2    0.24    0.46
  22   2  -4    0.34    0.52
   4 -22   2    0.75    0.47
  -4 -22   2    0.30    0.46
  22  -2  -4   -0.49    0.36
   4 -22  -2    0.54    0.46
   4 -22   4  236.80    6.32
  22   4  -4  210.06    6.18
  22  -4   4  214.10    6.16
  -4 -22  -4  229.53    6.28
  -4 -22   4  226.39    6.33
  22  -4  -4  215.91    6.17
   4 -22  -4  228.71    6.30
  22   6  -4    0.16    0.48
  -4 -22  -6    0.18    0.46
   6  -4  22    0.44    0.10
   4 -22   6   -0.40    0.47
  22   6  -4    0.54    0.50
  22  -6   4    0.51    0.39
  22   6   4    0.25    0.51
  22  -6  -4    0.44    0.42
  -4 -22   6    0.41    0.51
   4 -22  -6    0.29    0.49
  22  -8   4  209.14    5.88
   4 -22   8  207.77    5.83
  -4 -22  -8  217.33    5.98
   8  -4  22  214.62    5.63
   4 -22   8  219.03    6.04
  22   8  -4  200.21    5.94
  22   8   4  207.31    5.99
  22  -8  -4  213.26    5.89
   4 -22  -8  216.56    6.03
   4 -22  10   -0.40    0.49
  22  10  -4    0.41    0.53
  -4 -22 -10    0.38    0.44
   4 -22  10    0.11    0.35
  10  -4  22    0.10    0.11
  22 -10   4   -0.45    0.39
  22 -10  -4   -0.54    0.41
  22  10   4   -0.43    0.51
  12  -4  22    5.31    0.26
   4 -22  12    5.20    0.66
  22  12  -4    5.56    0.69
  22 -12   4    5.32    0.54
   4 -22  12    5.10    0.81
  22  12   4    5.50    0.71
  22 -12  -4    4.79    0.53
  22 -14   4    1.57    0.45
  14  -4  22    1.60    0.17
  22  14  -4    1.28    0.62
   4  22  14    1.28    0.69
  22  14   4    2.55    0.67
  22 -14  -4    0.98    0.43
  16  -4  22   22.49    0.70
  22 -16   4   21.57    1.05
  22  16  -4   19.98    1.34
  22  16   4   23.10    1.44
  22 -16  -4   23.38    1.03
   4  22  16   21.37    1.43
  22  18  -4    5.28    0.81
  22 -18   4    5.09    0.57
  18  -4  22    5.41    0.30
  22  18   4    5.32    0.83
  22 -18  -4    4.72    0.55
   4  22  18    4.66    0.86
  22  20  -4    6.01    0.86
  22 -20   4    5.25    0.57
   4  22  20    4.14    0.87
  22 -20  -4    5.95    0.58
  22  20   4    5.86    0.87
  -6 -22   0    0.35    0.49
  22   0  -6    0.29    0.43
   6 -22   0    0.34    0.46
  22   2  -6   12.47    0.84
   6 -22   2   13.36    0.95
  -6 -22  -2   11.98    0.89
  -6 -22   2   13.44    0.88
  22  -2  -6   11.66    0.82
   6 -22  -2   10.45    0.77
  22  -4   6   -0.15    0.39
   6 -22   4    0.20    0.48
  -6 -22  -4    0.79    0.47
  22   4  -6    0.81    0.47
  -6 -22   4    0.27    0.50
   6 -22  -4    0.02    0.47
  22  -4  -6    0.49    0.42
  -6 -22  -6    7.96    0.69
   6 -22   6    6.32    0.69
   6 -22   6    7.11    0.82
  22  -6   6    8.09    0.62
   6 -22   6    7.41    0.53
  22   6   6    6.75    0.69
  22  -6  -6    6.44    0.55
   6 -22  -6    7.13    0.69
  22  -8   6    2.04    0.45
  -6 -22  -8    2.70    0.52
   6 -22   8    1.42    0.39
   6 -22   8    0.83    0.49
   6 -22   8    1.09    0.52
  22  -8  -6    2.07    0.47
  22   8   6    1.83    0.60
   6 -22  10   38.39    1.36
   6 -22  10   38.83    1.56
   6 -22  10   37.09    1.57
  22 -10   6   38.42    1.41
  22 -10  -6   38.89    1.44
  22  10   6   39.87    1.59
   6 -22  12    1.10    0.40
  22 -12   6    1.87    0.44
   6 -22  12    1.39    0.54
  22  12  -6    1.49    0.80
   6 -22  12   -0.07    0.50
  22  12   6    1.04    0.61
  22 -12  -6    1.07    0.44
   6 -22  14    6.22    0.77
  22 -14   6    6.00    0.76
  22 -14   6    6.07    0.58
  22  14  -6    6.47    0.75
  14  -6  22    7.10    0.28
  22 -14  -6    6.52    0.59
   6  22  14    7.07    0.88
  22  14   6    5.95    0.80
  22  16  -6    0.05    0.62
  16  -6  22    0.37    0.15
  22 -16   6    0.05    0.42
   6  22  16   -0.25    0.68
  22 -16  -6   -0.25    0.41
  22  16   6   -0.07    0.67
  22  18  -6   15.87    1.10
  22 -18   6   16.15    1.00
  18  -6  22   16.18    0.58
  22  18   6   15.08    1.12
   6  22  18   17.80    1.26
  22 -18  -6   18.30    0.98
  22 -20   6    0.21    0.45
  22  20  -6    1.47    0.72
  20  -6  22    1.15    0.22
  22 -20  -6    0.34    0.44
  22  20   6    0.90    0.76
   8 -22   0   -0.24    0.49
   0  -8  22   -0.03    0.10
  22   0  -8    0.26    0.43
  -8 -22   0    0.07    0.49
   8 -22   2    0.47    0.54
   8 -22   2    0.55    0.49
  22  -2   8    1.16    0.45
  22  -2   8    1.46    0.48
  -8 -22  -2    0.56    0.50
  22   2  -8    0.96    0.49
  22  -2  -8    0.40    0.43
  -8 -22   2    0.44    0.49
   8 -22  -2    0.78    0.49
   8 -22   4  224.88    5.98
  22  -4   8  208.85    5.98
  22  -4   8  202.33    5.81
  -8 -22  -4  216.19    5.96
   8 -22   4  198.39    5.93
   8 -22   4  205.49    5.77
  22  -4  -8  207.13    5.84
   8 -22  -4  213.79    5.97
  22  -6   8    1.27    0.42
   8 -22   6    1.45    0.38
   8 -22   6    1.75    0.53
   8 -22   6    0.50    0.47
  22  -6   8    1.90    0.53
  -8 -22  -6    2.22    0.54
  22  -6  -8    1.37    0.43
  22   6   8    2.12    0.60
   8 -22   8  151.01    4.27
  22  -8   8  139.09    4.09
  22  -8   8  137.58    4.31
   8 -22   8  136.84    4.25
   8 -22   8  145.79    4.07
  22  -8  -8  146.04    4.13
  22   8   8  149.21    4.27
   8 -22  10    0.75    0.50
  22 -10   8    0.20    0.52
  22 -10   8    0.86    0.43
   8 -22  10    0.29    0.37
   8 -22  10    0.93    0.53
  22 -10  -8    0.62    0.42
  22  10   8    0.88    0.61
  22 -12   8    0.16    0.41
  22 -12   8    0.49    0.53
   8 -22  12    0.08    0.49
   8 -22  12    0.09    0.52
   8 -22  12    0.10    0.39
  22 -12  -8   -0.18    0.40
  22  12   8   -0.51    0.57
  22 -14   8    0.33    0.42
   8 -22  14   -0.35    0.39
   8 -22  14   -0.24    0.54
  22 -14  -8   -0.52    0.44
   8  22  14   -0.04    0.67
  22  14   8    1.56    0.68
  16  -8  22   32.17    0.93
  22 -16   8   34.42    1.36
  22  16   8   32.65    1.69
   8  22  16   33.56    1.77
  22 -16  -8   33.14    1.32
  22 -18   8    0.32    0.46
  18  -8  22    1.16    0.18
  22 -18  -8    0.00    0.75
  22  18   8    1.98    0.79
   8  22  18    0.95    0.79
  20  -8  22    3.80    0.26
  22 -20   8    3.57    0.57
  22  20   8    3.88    0.87
  22   0  10    1.50    0.47
  10 -22   0    1.91    0.53
  22   0 -10    2.26    0.49
  22  -2  10    0.90    0.42
  22   2 -10    0.28    0.48
  10 -22   2    0.80    0.48
  10 -22   2    0.85    0.51
  10 -22   2    0.28    0.37
  22  -2  10    0.05    0.48
  -2 -10  22    0.86    0.14
  10 -22  -2    1.24    0.52
  22  -2 -10   -0.09    0.44
  10 -22   4   -0.01    0.46
  10 -22   4   -0.19    0.35
  22  -4  10   -0.09    0.40
  10 -22   4    0.35    0.49
  22  -4  10   -0.06    0.49
 -10 -22  -4   -0.41    0.46
  22  -4 -10   -0.47    0.43
  22  -6  10   35.27    1.35
  10 -22   6   39.13    1.53
  10 -22   6   35.89    1.54
  22  -6  10   38.11    1.61
  10 -22   6   37.24    1.32
  22  -6 -10   39.05    1.43
  10 -22   8    0.75    0.38
  10 -22   8    0.06    0.49
  10 -22   8    0.00    0.47
  22  -8  10    0.41    0.41
  22  -8  10    0.00    0.52
  22   8  10   -0.32    0.58
  22  -8 -10    0.82    0.43
  22 -10  10   49.40    1.67
  10 -22  10   48.88    1.83
  10 -10  22   48.01    1.60
  22 -10  10   44.96    1.90
  10 -22  10   51.53    1.66
  10 -22  10   47.98    1.89
  22 -10 -10   49.64    1.71
  22  10  10   51.54    1.93
  12 -10  22    2.38    0.44
  22 -12  10    3.82    0.50
  10 -22  12    3.40    0.66
  10 -22  12    2.59    0.46
  22 -12  10    3.66    0.82
  22  12  10    4.38    0.76
  10  22  12    2.92    0.78
  22 -12 -10    2.25    0.49
  10 -22  14    0.80    0.44
  14 -10  22    0.77    0.40
  22 -14  10    0.81    0.46
  22 -14 -10    1.19    0.47
  22  14  10    1.33    0.70
  10  22  14    1.12    0.76
  10 -22  16    0.21    0.43
  22 -16  10   -0.24    0.44
  16 -10  22    0.19    0.39
  22  16  10   -0.15    0.68
  10  22  16    0.21    0.70
  10  22  16   -0.37    0.75
  18 -10  22   68.92    2.28
  22 -18  10   70.42    2.29
  18 -10  22   71.96    1.94
  22  18  10   73.17    2.63
  22 -20  10    0.09    0.47
  20 -10  22    0.88    0.20
  22  20  10    0.32    0.78
  22   0 -12   -0.45    0.46
  12 -22   0   -0.18    0.38
  12 -22   0    0.49    0.49
  12 -22   2    0.83    0.50
  22  -2  12    0.33    0.39
  12 -22   2    0.65    0.49
  12 -22   2    0.25    0.37
  12 -22  -2    0.26    0.49
  22  -2 -12    0.43    0.47
  -2 -12  22    0.13    0.12
  12 -22   4    4.03    0.62
  12 -22   4    4.18    0.49
  12 -22   4    4.49    0.62
  22  -4  12    5.52    0.69
  22  -4  12    3.96    0.49
   4  12  22    4.08    0.75
  22  -4 -12    5.42    0.60
  12 -22   6    1.05    0.51
  22  -6  12    1.55    0.57
  12 -22   6    1.02    0.51
  12 -22   6    0.85    0.39
  22  -6  12    1.24    0.42
  22  -6 -12    1.10    0.45
   6  12  22    1.50    0.70
  12 -22   8   -0.74    0.47
  12 -22   8    0.70    0.53
  22  -8  12   -0.34    0.53
  12 -22   8    0.13    0.38
  22  -8  12   -0.18    0.38
  22  -8 -12   -0.05    0.41
  22   8  12    0.80    0.62
   8  12  22   -0.36    0.65
  22 -10  12    3.36    0.50
  12 -22  10    3.36    0.48
  22 -10  12    2.12    0.63
  12 -22  10    2.25    0.61
  22 -10 -12    3.13    0.52
  10  12  22    2.43    0.76
  22  10  12    3.39    0.71
  12 -22  12    8.39    0.63
  22 -12  12    8.74    0.67
  12 -12  22    8.58    0.61
  22 -12 -12    9.27    0.68
  22  12  12    8.93    0.92
  12  22  12    8.96    1.00
  22 -14  12    0.61    0.46
  14 -12  22    0.22    0.40
  12 -22  14    0.13    0.43
  22  14  12    0.24    0.72
  12  22  14   -0.79    0.70
  12  22  14    0.60    0.73
  16 -12  22   22.36    1.06
  22 -16  12   22.58    1.12
  12 -22  16   25.29    1.14
  12  22  16   23.47    1.57
  12  22  16   23.79    1.55
  22  16  12   24.43    1.47
  18 -12  22   -0.07    0.40
  12 -22  18    0.75    0.47
  22 -18  12    0.31    0.47
  18 -12  22    0.00    0.12
  22  18  12    1.35    0.78
  20 -12  22    1.94    0.46
  20 -12  22    2.61    0.21
  22 -20  12    1.94    0.52
  22  20  12    2.68    0.83
  14 -22   0   11.43    0.83
  14 -22   0    9.18    0.62
  22   0 -14   11.28    0.76
   0  14  22    9.98    0.90
  14 -22   2    8.65    0.80
  14 -22   2    9.97    0.80
  14 -22   2   10.21    0.75
  22  -2 -14   10.40    0.74
   2  14  22   10.36    0.93
  14 -22   4    1.51    0.41
  22  -4  14    0.93    0.42
  22  -4  14    1.70    0.66
  14 -22   4    1.01    0.52
  14 -22   4    1.71    0.56
  22  -4 -14    1.59    0.52
   4  14  22    2.23    0.71
  22  -6  14    6.98    0.80
  14 -22   6    6.51    0.76
  14 -22   6    6.44    0.56
  22  -6  14    5.77    0.55
  14 -22   6    6.90    0.69
   6  14  22    6.40    0.86
  22  -6 -14    6.64    0.62
  22  -8  14    0.17    0.60
  14 -22   8   -0.02    0.39
  22  -8  14    0.45    0.19
  22  -8  14   -0.13    0.41
  22  -8 -14    0.85    0.46
   8  14  22    0.71    0.73
  22 -10  14    1.14    0.19
  22 -10  14    1.46    0.45
  14 -22  10    0.98    0.43
  22  10  14    0.82    0.68
  14  22  10    1.33    0.73
  10  14  22    1.88    0.80
  22 -10 -14    0.69    0.47
  12 -14  22    0.04    0.41
  14 -22  12    0.14    0.42
  22 -12  14    1.27    0.46
  14  22  12    0.31    0.72
  12  14  22   -0.55    0.73
  22  12  14    0.32    0.70
  14  22  12    0.86    0.75
  22 -14  14   -0.73    0.43
  14 -14  22    0.05    0.41
  14 -22  14    0.01    0.44
  22  14  14   -0.07    0.71
  22  14  14    0.38    0.91
  14  22  14    0.50    0.79
  14  22  14    0.20    0.73
  14 -22  16    1.04    0.49
  16 -14  22   -0.05    0.43
  22 -16  14    0.18    0.46
  14  22  16    1.97    0.80
  22  16  14    0.02    0.80
  18 -14  22    3.93    0.54
  22 -18  14    2.01    0.53
  14 -22  18    3.34    0.56
  22  18  14    3.58    0.89
  14  22  18    5.94    0.91
  20 -14  22   -0.01    0.16
  20 -14  22    0.22    0.43
  22 -20  14   -0.13    0.48
  22  20  14    0.44    0.81
  16 -22   0   -0.07    0.37
  22   0 -16   -0.42    0.51
  16 -22   0    0.07    0.50
   0  16  22   -0.16    0.63
  16 -22   2    0.49    0.50
  16 -22   2    0.12    0.39
  16 -22   2   -0.03    0.62
   2  16  22    0.85    0.65
  16 -22  -2    0.67    0.38
  -2 -16  22   -0.06    0.14
  22  -2 -16   -0.26    0.46
  16 -22   4   19.48    1.20
  16 -22   4   23.16    1.04
   4  16  22   22.43    1.47
  22  -4 -16   22.47    1.11
  22  -6  16    0.26    0.42
  16 -22   6   -0.30    0.38
  22  -6 -16    0.26    0.46
   6  16  22   -0.37    0.69
  22  -8  16   30.57    0.96
  16 -22   8   32.55    1.26
  22  -8  16   31.84    1.24
  16  22   8   31.85    1.65
  22  -8 -16   32.87    1.32
   8  16  22   31.69    1.76
  16 -22  10    0.03    0.42
  22 -10  16    0.15    0.43
  22 -10  16    0.06    0.18
  16  22  10    0.38    0.73
  10  16  22    1.83    0.87
  16  22  10   -0.53    0.71
  16 -22  12   24.97    1.15
  22 -12  16   23.26    0.75
  22 -12  16   22.26    1.12
  22  12  16   26.22    1.53
  16  22  12   23.45    1.65
  12  16  22   24.44    1.69
  16  22  12   22.80    1.56
  14 -16  22    0.65    0.44
  22 -14  16    0.35    0.45
  16 -22  14    1.01    0.49
  22  14  16    0.68    0.77
  16  22  14   -0.06    0.79
  16 -16  22    9.96    0.69
  16 -22  16    9.12    0.70
  22 -16  16   10.46    0.73
  16  22  16   12.12    1.10
  22  16  16   11.34    1.05
  18 -16  22   -0.11    0.45
  16 -22  18    1.08    0.51
  22 -18  16    1.35    0.50
  22  18  16   -0.30    0.80
  16  22  18    1.39    0.83
  20 -16  22    0.41    0.46
  16 -22  20    0.08    0.49
  22 -20  16    0.53    0.49
  20 -16  22    1.14    0.17
  22  20  16   -0.77    0.81
  22   0 -18    5.62    0.68
  18 -22   0    5.87    0.54
   0  18  22    5.90    0.84
  18 -22   0    4.51    0.67
  18 -22   2    5.40    0.69
  18 -22   2    7.43    0.60
  18  22   2    6.48    0.85
   2  18  22    7.24    0.89
  -2 -18  22    6.05    0.34
  22  -2 -18    8.21    0.72
  18 -22  -2    5.90    0.54
  18 -22   4    5.20    0.54
  22  -4 -18    5.35    0.64
   4  18  22    4.74    0.85
  18  22   4    5.22    0.84
  22  -6  18   18.05    0.77
  18 -22   6   16.56    0.97
   6  18  22   17.61    1.25
  22  -6 -18   16.60    1.05
  18  22   6   18.39    1.38
  18  22  -8    1.10    0.71
  22  -8  18    0.98    0.22
  18 -22   8    0.99    0.45
  22  -8  18    1.66    0.47
  18  22   8    1.10    0.76
  18  22   8    1.51    0.79
   8  18  22    0.78    0.77
  22 -10  18   69.44    1.95
  22 -10  18   69.04    2.23
  18 -22  10   71.21    2.25
  18  22  10   70.55    2.55
  18  22  10   71.28    3.52
  22 -12  18   -0.51    0.43
  22 -12  18   -0.27    0.17
  18 -22  12   -0.92    0.43
  18  22  12   -0.79    0.73
  22 -14  18    3.05    0.53
  22 -14  18    3.64    0.24
  18 -22  14    3.92    0.56
  18  22  14    3.56    0.88
  16 -18  22    1.08    0.47
  22 -16  18    0.53    0.48
  18 -22  16    1.21    0.49
  18  22  16    1.14    0.83
  18 -22  18   31.71    1.34
  18 -18  22   29.69    1.29
  22 -18  18   29.05    1.30
  22  18  18   31.46    1.79
  18  22  18   32.58    1.78
  18 -22  20    0.27    0.47
  22 -20  18    0.53    0.47
  20 -18  22    0.36    0.45
  22  20  18   -0.05    0.78
  20  22   0   -0.33    0.67
  22   0 -20   -0.22    0.54
  20 -22   0    0.01    0.40
  20 -22   0    0.21    0.54
  20 -22   2    0.29    0.42
  20  22  -2   -0.28    0.69
  22  -2 -20   -0.10    0.56
   2  20  22    0.12    0.72
  20  22   2   -0.61    0.70
  20 -22  -2   -0.58    0.40
  20 -22   4    5.30    0.57
  20  22  -4    5.56    0.84
  20 -22  -4    7.29    0.65
   4  20  22    4.92    0.87
  20  22   4    5.53    0.87
  22  -4 -20    7.41    0.71
  20 -22   6    1.22    0.46
  20  22  -6    0.29    0.67
  20  22   6    1.07    0.76
  20  22  -8    3.68    0.79
  22  -8  20    3.21    0.26
  20 -22   8    2.75    0.52
  20  22   8    3.79    0.86
  22 -10  20    1.66    0.48
  20 -22  10    1.27    0.49
  22 -10  20    0.74    0.21
  20  22  10    1.73    0.88
  22 -12  20    1.85    0.22
  22 -12  20    2.11    0.50
  20 -22  12    1.63    0.51
  20  22  12    1.62    0.83
  22 -14  20    0.33    0.18
  22 -14  20   -0.72    0.43
  20 -22  14   -0.65    0.45
  20  22  14    0.47    0.81
  22 -16  20    0.86    0.47
  22 -16  20    0.77    0.19
  20 -22  16    0.62    0.49
  20  22  16    1.02    0.82
  22 -18  20    0.77    0.46
  22 -18  20    0.09    0.17
  20 -22  18    0.71    0.50
  20  22  18    0.15    0.81
  20 -22  20   -0.11    0.46
  22 -20  20    0.59    0.19
  22 -20  20    1.42    0.49
  20  22  20    0.80    0.76
  22 -22   0    4.75    0.55
  22   0 -22    4.21    0.65
  22  22   0    4.27    0.83
  22  22  -2   12.48    1.04
  22 -22   2   12.33    0.85
  22   2 -22   12.32    0.90
  22  -2 -22   13.83    0.91
  22 -22  -2   12.03    0.88
  22  22   2   11.43    1.04
  22  22  -4    0.63    0.72
  22 -22   4   -0.32    0.44
  22 -22  -4    0.43    0.45
  22  22   4   -0.47    0.75
  22 -22   6   23.80    1.15
  22  22  -6   22.12    1.53
  22  22   6   24.30    1.62
  22 -22   8    0.22    0.47
  22  -8  22    0.72    0.23
  22  22   8    0.41    0.81
  22 -22  10  119.91    3.60
  22 -10  22  123.20    3.34
  22  22  10  124.42    3.91
  22 -22  12    1.40    0.50
  22 -12  22   -0.17    0.40
  22 -12  22    0.65    0.21
  22  22  12   -0.90    0.78
  22 -22  14    9.25    0.70
  22 -14  22    9.12    0.66
  22 -14  22    9.68    0.45
  22  22  14    9.39    1.04
  22 -22  16   -1.21    0.44
  22 -16  22    0.45    0.45
  22 -16  22   -0.22    0.18
  22  22  16    0.33    0.84
  22 -22  18   67.93    2.14
  22 -18  22   64.72    2.10
  22 -18  22   66.46    1.83
  22  22  18   64.10    2.47
  22 -22  20    0.86    0.45
  22 -22  20   -0.06    0.17
  22 -20  22   -0.07    0.18
  22 -22  22  151.90    4.08
  -1 -23  -1    4.42    0.62
  23  -1   1    3.93    0.49
  23   1  -1    4.20    0.52
   1 -23   1    3.89    0.61
  23  -1  -1    4.64    0.51
  -1 -23   1    3.33    0.57
   1 -23  -1    4.48    0.61
  23   1   1    4.30    0.51
  23  -3   1   14.88    0.90
  23   3  -1   14.14    0.90
   1 -23   3   17.74    1.05
  -1 -23  -3   16.96    1.01
  23  -3  -1   15.80    0.89
  -1 -23   3   16.05    1.03
   1 -23  -3   16.47    1.00
  23   3   1   15.61    0.90
  -1 -23  -5    2.63    0.55
  23   5  -1    2.36    0.51
   1 -23   5    2.15    0.57
  23  -5   1    1.55    0.44
  23   5   1    2.66    0.57
  23  -5  -1    2.71    0.48
  23   5   1    1.95    0.50
  -1 -23   5    3.08    0.60
   1 -23  -5    2.25    0.56
  23   7  -1   14.48    0.94
  23   7  -1   11.43    0.84
   1 -23   7   13.23    0.91
  -1 -23  -7   12.44    0.84
  23  -7   1   13.07    0.79
  23  -7  -1   12.08    0.84
  23   7   1   11.71    0.85
  23   7   1   11.73    0.85
  -1 -23   7   14.71    1.03
   1 -23  -7   12.07    0.83
   1 -23   9    0.28    0.52
  23   9  -1    0.33    0.49
  23  -9   1   -0.02    0.40
  -1 -23  -9    0.19    0.47
  23   9  -1    0.19    0.52
  23   9   1   -0.49    0.44
  23  -9  -1    0.15    0.40
   1 -23  -9   -1.07    0.46
  23   9   1    0.30    0.54
  -1 -23   9    0.72    0.53
  -1 -23 -11    1.43    0.52
   1 -23  11    1.21    0.55
  23  11  -1    0.07    0.51
  23 -11   1    1.29    0.45
  23  11  -1    0.83    0.56
  23 -11  -1    0.97    0.44
  23  11   1    0.30    0.55
   1 -23 -11    1.69    0.53
  23 -13   1    2.20    0.48
  23  13  -1    3.35    0.67
  -1 -23 -13    3.27    0.58
  -1  23  13    2.36    0.65
  23  13  -1    4.48    0.65
   1  23  13    1.85    0.66
   1 -23 -13    3.12    0.60
  23  13   1    3.33    0.68
  23 -13  -1    2.70    0.49
  23  15  -1   25.78    1.45
  -1  23  15   27.93    1.39
  23 -15   1   29.97    1.22
  23  15   1   28.55    1.44
   1  23  15   27.17    1.42
  23 -15  -1   29.22    1.19
  23  17  -1    2.06    0.70
  23 -17   1    2.29    0.49
  23  17   1    1.15    0.70
   1  23  17    2.57    0.75
  23 -17  -1    3.12    0.50
  23  19  -1   12.15    1.02
  23 -19   1   11.98    0.88
   1  23  19   11.69    1.07
  23 -19  -1   13.63    0.90
  23  19   1   10.36    0.99
  23 -21   1    3.80    0.54
  21   1 -23    3.60    0.67
  23  21  -1    3.31    0.82
  23  21   1    3.38    0.82
  23 -21  -1    3.11    0.53
  23   1  -3   15.83    0.95
  -3 -23  -1   17.50    1.03
  23  -1   3   14.59    0.89
   3 -23   1   15.94    1.02
   3 -23  -1   15.45    1.00
  -3 -23   1   17.02    1.03
  23  -1  -3   15.78    0.90
  23   1   3   16.36    0.90
  23  -3   3    0.19    0.43
  23   3  -3   -0.49    0.43
   3 -23   3    1.01    0.52
  -3 -23  -3    0.48    0.48
  23   3   3    0.59    0.42
  23  -3  -3    0.33    0.38
  -3 -23   3    0.26    0.51
   3 -23  -3    0.79    0.48
   3 -23   5   46.46    1.70
  -3 -23  -5   45.76    1.68
  23  -5   3   43.55    1.52
  23   5  -3   40.10    1.56
  23   5   3   42.04    1.52
  23   5   3   42.40    1.65
  -3 -23   5   45.08    1.72
  23  -5  -3   43.45    1.55
   3 -23  -5   47.19    1.69
  23   7  -3   17.15    1.02
  23  -7   3   17.28    0.92
  -3 -23  -7   19.41    1.03
  23   7  -3   18.82    1.06
   3 -23   7   19.04    1.10
  23   7   3   17.02    1.00
  23  -7  -3   18.24    0.99
  23   7   3   17.67    1.10
  -3 -23   7   17.20    1.12
   3 -23  -7   17.85    1.08
  -3 -23  -9   29.43    1.29
   3 -23   9   30.00    1.39
  23   9  -3   30.64    1.35
  23   9  -3   28.64    1.35
  23  -9   3   29.96    1.22
  23  -9  -3   29.51    1.22
   3 -23  -9   31.12    1.35
  23   9   3   30.90    1.39
   3 -23  11    6.90    0.74
  -3 -23 -11    7.92    0.71
  23 -11   3    7.22    0.62
  23  11  -3    7.50    0.73
  11  -3  23    7.17    0.34
   3 -23 -11    7.71    0.74
  23  11   3    7.52    0.75
  23 -11  -3    7.62    0.61
  23 -13   3    0.96    0.44
  -3  23  13    1.23    0.86
  13  -3  23    1.50    0.19
  23  13  -3    1.17    0.63
   3 -23 -13    2.12    0.57
  23  13   3    1.61    0.65
  23 -13  -3    1.90    0.47
   3  23  13    1.93    0.68
  23 -15   3    3.50    0.52
  23  15  -3    3.62    0.70
  15  -3  23    4.40    0.26
   3 -23 -15    4.79    0.69
  23 -15  -3    3.82    0.52
  23  15   3    3.32    0.75
   3  23  15    3.47    0.73
  17  -3  23    1.62    0.23
  23  17  -3    1.18    0.66
  23 -17   3    1.48    0.46
  23 -17  -3    1.25    0.46
  23  17   3    1.78    0.71
   3  23  17    0.87    0.73
  23 -19   3    4.23    0.55
  23  19  -3    5.31    0.81
   3  23  19    4.01    0.86
  23  19   3    5.11    0.84
  23 -19  -3    4.00    0.54
  23 -21   3    5.21    0.58
  23  21  -3    4.39    0.83
  23  21   3    4.40    0.87
  23 -21  -3    5.21    0.58
  -5 -23  -1    2.27    0.55
  23   1  -5    2.03    0.49
  23  -1   5    2.90    0.48
   5 -23   1    1.88    0.55
  23  -1  -5    2.39    0.49
   5 -23  -1    2.49    0.56
  23   1   5    1.75    0.45
  -5 -23   1    2.09    0.58
   3  -5  23   43.97    1.21
   5 -23   3   46.66    1.70
  23  -3   5   43.11    1.51
  23   3  -5   44.09    1.57
  -5 -23  -3   44.50    1.65
  23   3   5   41.72    1.55
  -5 -23   3   41.84    1.69
  23  -3  -5   44.59    1.55
   5 -23  -3   45.32    1.68
   5 -23   5  106.54    3.22
  -5 -23  -5  104.87    3.17
   5 -23   5   98.62    2.98
  23  -5   5   98.94    3.04
   5 -23  -5  109.43    3.20
  23   5   5   98.07    3.05
  -5 -23   5  107.28    3.24
  23  -7   5   44.36    1.57
   5 -23   7   47.09    1.75
   5 -23   7   45.07    1.49
  -5 -23  -7   46.02    1.69
  23   7  -5   39.66    1.99
  23  -7  -5   45.54    1.59
  23   7   5   43.92    1.72
   5 -23  -7   47.32    1.74
   5 -23   9   66.96    2.04
  23   9  -5   64.14    2.20
   5 -23   9   67.19    2.27
   9  -5  23   67.21    1.78
  23  -9   5   64.95    2.10
  -5 -23  -9   63.55    2.19
  23   9   5   67.09    2.28
  23  -9  -5   66.30    2.11
   5 -23  -9   66.16    2.27
  11  -5  23    0.57    0.12
   5 -23  11    1.30    0.52
  23  11  -5    0.74    0.55
  23 -11   5    1.45    0.45
   5 -23 -11    0.93    0.54
  23  11   5    0.09    0.58
  23 -11  -5    0.64    0.43
  23 -13   5   -0.11    0.42
  23  13  -5    0.75    0.60
  13  -5  23    0.55    0.14
  23  13   5    1.64    0.63
   5  23  13    0.39    0.65
  23 -13  -5    0.40    0.44
  15  -5  23   17.23    0.57
  23 -15   5   17.89    0.97
  23  15  -5   18.28    1.22
  23  15   5   18.70    1.30
   5  23  15   15.62    1.14
  23 -15  -5   17.09    0.94
  23 -17   5   30.00    1.29
  17  -5  23   30.62    0.92
  23  17  -5   29.86    1.53
  23  17   5   30.51    1.58
   5  23  17   29.55    1.69
  23 -17  -5   30.33    1.28
  23  19  -5   -0.26    0.67
  23 -19   5   -0.64    0.44
  23 -19  -5    0.63    0.44
  23  19   5    0.25    0.74
  23  21  -5   10.23    0.98
  23 -21   5    8.80    0.69
  23  21   5    8.56    1.01
  23 -21  -5   10.14    0.71
   7 -23   1   14.47    1.01
   1  -7  23   12.41    0.42
  -7 -23  -1   12.60    0.89
  23   1  -7   14.77    0.89
  23  -1   7   13.41    0.86
  -7 -23   1   13.40    0.98
   7 -23  -1   12.23    0.86
  23   1   7   11.50    0.85
  23  -1  -7   13.18    0.88
  23  -3   7   19.38    1.06
  -7 -23  -3   18.28    1.13
  23  -3   7   19.51    1.00
  23   3  -7   17.82    1.01
   7 -23   3   18.49    1.09
   7 -23   3   18.86    0.85
  23   3   7   17.75    0.96
  -7 -23   3   18.60    1.13
  23  -3  -7   19.23    0.98
   7 -23  -3   18.29    1.09
  -7 -23  -5   46.93    1.69
   7 -23   5   46.62    1.77
  23   5  -7   43.08    1.64
   7 -23   5   44.51    1.51
  23  -5   7   43.79    1.56
  23  -5  -7   46.04    1.61
   7 -23  -5   47.08    1.75
  23  -7   7   63.37    2.08
  -7 -23  -7   67.12    2.20
   7 -23   7   65.28    2.04
   7 -23   7   66.20    2.25
  23   7   7   66.67    2.26
  23  -7  -7   65.75    2.11
   7 -23  -7   65.15    2.24
  23  -9   7    5.09    0.71
  23  -9   7    6.11    0.57
   7 -23   9    4.66    0.50
   7 -23   9    5.85    0.68
  23   9   7    4.89    0.72
  23  -9  -7    5.43    0.56
   7 -23  11    8.93    0.79
  23 -11   7    6.46    0.59
   7 -23  11    7.59    0.58
  23 -11   7    7.66    0.82
   7 -23  11    6.23    0.74
  23  11   7    7.13    0.80
  23 -11  -7    8.13    0.64
   7 -23  13    6.21    0.55
   7 -23  13    5.25    0.73
  23 -13   7    5.91    0.59
   7 -23  13    5.69    0.71
  23 -13  -7    7.20    0.62
  23  13   7    6.58    0.81
   7  23  13    6.37    0.87
  15  -7  23    4.53    0.27
  23 -15   7    3.08    0.52
   7  23  15    4.82    0.85
  23 -15  -7    4.88    0.56
  23  15   7    4.29    0.78
  17  -7  23    0.73    0.18
  23 -17   7    1.04    0.49
  23 -17  -7    0.88    0.46
  23  17   7   -0.07    0.72
   7  23  17    1.43    0.78
  23 -19   7    7.31    0.65
  19  -7  23    6.95    0.40
  23  19   7    7.30    0.97
  23 -19  -7    6.90    0.64
  23 -21   7    4.05    0.57
  23  21  -7    3.86    0.81
  21  -7  23    4.09    0.30
  23  21   7    5.01    0.90
  23  -1   9    0.14    0.42
  -9 -23  -1    0.60    0.52
   9 -23   1    0.13    0.49
  23   1  -9    0.18    0.43
  23   1   9   -0.71    0.44
  23  -1  -9    0.39    0.45
   9 -23  -1   -0.60    0.46
  -1  -9  23   -0.32    0.14
  23   3  -9   29.05    1.28
  -9 -23  -3   28.89    1.31
  23  -3   9   28.86    1.33
   9 -23   3   31.58    1.37
   9 -23   3   28.05    1.11
  23  -3   9   29.59    1.19
   9 -23  -3   28.62    1.36
  23  -3  -9   31.24    1.24
   9 -23   5   65.26    2.00
   9 -23   5   69.53    2.24
   9 -23   5   59.90    2.26
  23  -5   9   64.71    2.26
  -9 -23  -5   66.13    2.20
  23  -5   9   62.11    2.05
   9 -23  -5   64.25    2.22
  23  -5  -9   65.92    2.09
   9 -23   7    4.84    0.49
  23  -7   9    4.65    0.70
  23  -7   9    4.26    0.53
   9 -23   7    5.51    0.68
   9 -23   7    5.09    0.65
  23  -7  -9    5.63    0.56
  23   7   9    4.86    0.71
   9 -23   9   87.19    2.55
  23  -9   9   85.89    2.59
   9 -23   9   87.54    2.78
  23  -9   9   81.77    2.83
   9 -23   9   77.20    2.78
  23  -9  -9   87.19    2.63
  23   9   9   85.91    2.79
   9 -23  11    4.24    0.69
  23 -11   9    3.19    0.50
   9 -23  11    4.98    0.67
  23 -11   9    3.74    0.84
   9 -23  11    3.95    0.49
  23 -11  -9    5.36    0.56
  23  11   9    4.20    0.74
   9 -23  13    8.04    0.61
  23 -13   9    7.94    0.63
   9  23  13    7.25    0.95
  23 -13  -9    7.48    0.64
  23  13   9    6.72    0.84
   9 -23  15    2.16    0.48
  23 -15   9    2.10    0.51
  23 -15  -9    2.22    0.49
  23  15   9    2.29    0.74
   9  23  15    3.26    0.86
  17  -9  23   31.82    0.92
  23 -17   9   31.89    1.31
   9  23  17   29.81    1.78
  23 -17  -9   31.50    1.31
  23  17   9   32.10    1.71
  23 -19   9   16.09    1.02
  19  -9  23   15.24    0.55
  23  19   9   15.94    1.18
  23 -21   9   44.21    1.63
  21  -9  23   43.72    1.31
  23  21   9   47.77    2.08
  23  -1  11    0.74    0.42
  11 -23   1    0.29    0.77
  23   1 -11    1.63    0.52
  11 -23   1    1.15    0.40
  11 -23   1    0.10    0.51
  -1 -11  23    1.13    0.14
  11 -23  -1    1.19    0.53
  23  -1 -11    1.02    0.48
  11 -23   3    8.00    0.74
  11 -23   3    8.11    0.76
  23  -3  11    8.10    0.61
  11 -23   3    7.60    0.57
  11 -23  -3    7.84    0.75
  23  -3 -11    7.81    0.67
  11 -23   5    0.70    0.50
  23  -5  11    0.12    0.53
  11 -23   5    0.97    0.50
  23  -5  11    0.18    0.40
  11 -23   5    0.36    0.38
  23  -5 -11    0.42    0.44
  23  -7  11    6.46    0.57
  11 -23   7    7.47    0.56
  11 -23   7    7.13    0.75
  23  -7  11    6.91    0.79
  11 -23   7    9.05    0.79
  23  -7 -11    6.91    0.63
  23  -9  11    4.79    0.76
  11 -23   9    5.28    0.53
  11 -23   9    4.35    0.65
  11 -23   9    4.04    0.68
  23  -9  11    4.90    0.55
  23  -9 -11    4.51    0.57
  23   9  11    5.15    0.79
  23 -11  11    1.32    0.46
  11 -23  11    1.37    0.44
  23 -11 -11    1.43    0.48
  23  11  11    0.47    0.69
  23 -13  11    8.51    0.67
  11 -23  13    7.61    0.63
  13 -11  23    8.69    0.62
  23  13  11    8.84    0.96
  23 -13 -11    8.90    0.69
  11  23  13   11.28    1.07
  11 -23  15   25.61    1.16
  15 -11  23   24.44    1.07
  23 -15  11   23.19    1.12
  11  23  15   23.76    1.69
  23  15  11   24.57    1.51
  11  23  15   24.06    1.60
  17 -11  23    0.13    0.13
  17 -11  23    0.40    0.42
  23 -17  11   -0.07    0.47
  11 -23  17   -0.08    0.45
  23  17  11   -0.20    0.74
  11  23  17    0.08    0.75
  23 -19  11   29.52    1.30
  19 -11  23   28.84    0.87
  23  19  11   30.43    1.71
  23 -21  11   14.42    0.95
  21 -11  23   15.75    0.57
  23  21  11   16.14    1.22
  13 -23   1    3.09    0.60
  23   1 -13    2.82    0.55
  13 -23   1    3.30    0.62
  13 -23   1    2.84    0.45
  -1 -13  23    3.10    0.18
  13 -23  -1    3.30    0.62
  23  -1 -13    3.79    0.56
  13 -23   3    1.18    0.43
  23  -3  13    1.79    0.44
  13 -23   3    1.34    0.55
  13 -23   3    1.20    0.54
  23  -3 -13    1.43    0.53
  13 -23  -3    2.41    0.59
  13 -23   5    0.12    0.38
  23  -5  13   -0.06    0.54
  13 -23   5    0.54    0.52
  13 -23   5   -0.03    0.51
  23  -5  13    0.93    0.40
  23  -5 -13    0.49    0.46
  13 -23   7    6.39    0.72
  13 -23   7    6.01    0.55
  23  -7  13    6.50    0.58
  13 -23   7    6.40    0.93
  23  -7  13    4.05    0.73
  23  -7 -13    6.17    0.61
  13 -23   9    6.77    0.58
  23  -9  13    7.70    0.62
  23  -9 -13    8.51    0.67
  13 -23  11    7.83    0.62
  23 -11  13    8.38    0.42
  23 -11  13    8.93    0.67
  23 -11 -13    9.56    0.71
  23  11  13    6.98    0.88
  13  23  11    8.52    0.99
  13 -23  13    4.37    0.55
  13 -13  23    3.38    0.50
  23 -13  13    4.28    0.57
  13  23  13    4.45    0.86
  23  13  13    4.72    0.85
  13  23  13    3.30    0.88
  13 -23  15    2.06    0.51
  15 -13  23    2.19    0.47
  23 -15  13    2.38    0.51
  23  15  13    1.45    0.81
  13  23  15    1.62    0.81
  23 -17  13    1.15    0.50
  17 -13  23    1.88    0.46
  13 -23  17    2.13    0.52
  23  17  13    2.97    0.87
  13  23  17    1.50    0.84
  19 -13  23    4.58    0.55
  23 -19  13    4.45    0.61
  19 -13  23    5.45    0.31
  23  19  13    4.86    0.94
  21 -13  23    9.90    0.45
  23 -21  13    9.70    0.73
  21 -13  23    9.67    0.67
  23  21  13   10.19    1.05
  15 -23   1   28.05    1.37
  15 -23   1   27.82    1.14
  23   1 -15   28.43    1.28
  -1 -15  23   27.60    0.80
  23  -1 -15   27.24    1.27
  15 -23  -1   24.96    1.35
  15 -23  -1   27.44    1.16
  15 -23   3    2.79    0.47
  15 -23   3    4.81    0.67
   3  15  23    3.98    0.79
  23  -3 -15    4.04    0.60
  15 -23   5   14.81    1.05
  23  -5  15   15.99    0.93
  15 -23   5   16.13    0.89
   5  15  23   17.71    1.23
  23  -5 -15   17.59    0.97
  15 -23   7    3.48    0.50
  23  -7  15    4.28    0.54
   7  15  23    4.64    0.88
  23  -7 -15    4.32    0.58
  23  -9  15    2.38    0.49
  15 -23   9    2.72    0.48
  23  -9  15    2.61    0.25
   9  15  23    2.29    0.81
  15  23   9    2.56    0.81
  23  -9 -15    1.96    0.54
  23 -11  15   23.63    1.14
  23 -11  15   24.10    0.79
  15 -23  11   25.79    1.15
  11  15  23   23.20    1.60
  15  23  11   24.42    1.67
  15  23  11   24.82    1.52
  23 -13  15    1.69    0.21
  15 -23  13    1.29    0.49
  23 -13  15    0.78    0.48
  23  13  15    2.06    0.77
  15  23  13    1.45    0.78
  23 -15  15   12.97    0.95
  15 -15  23   12.84    0.88
  15 -23  15   13.71    0.90
  15  23  15   10.93    1.09
  23  15  15   14.38    1.13
  23 -17  15    3.27    0.56
  15 -23  17    3.41    0.57
  17 -15  23    1.88    0.48
  23  17  15    2.79    0.85
  15  23  17    4.16    0.89
  23 -19  15    1.13    0.51
  19 -15  23    1.55    0.17
  19 -15  23    1.43    0.48
  15 -23  19    1.76    0.52
  23  19  15    1.70    0.85
  23 -21  15    0.16    0.48
  21 -15  23    0.18    0.18
  21 -15  23    0.19    0.43
  23  21  15    0.54    0.82
  17 -23   1    1.75    0.58
  17 -23   1    2.73    0.45
  23   1 -17    2.40    0.59
  23  -1 -17    2.74    0.58
  17 -23  -1    2.37    0.46
  -1 -17  23    2.32    0.19
   1  17  23    2.51    0.75
  17 -23  -1    1.40    0.55
  17 -23   3    1.10    0.57
  17 -23   3    0.88    0.42
   3  17  23    1.49    0.77
  23  -3 -17    0.88    0.54
  17 -23   5   30.39    1.20
   5  17  23   29.30    1.70
  23  -5 -17   28.68    1.30
  17 -23   7    0.76    0.44
  23  -7  17    0.52    0.44
   7  17  23    1.12    0.77
  23  -7 -17    0.31    0.50
  17  23   7    0.13    0.73
  23  -9  17   30.28    1.26
  17 -23   9   31.76    1.29
  23  -9  17   30.24    0.94
  17  23   9   31.61    1.67
   9  17  23   27.84    1.85
  17  23   9   28.35    1.71
  23 -11  17    0.07    0.19
  17 -23  11   -0.13    0.44
  23 -11  17   -0.03    0.45
  17  23  11    0.29    0.76
  23 -13  17    1.95    0.51
  23 -13  17    2.17    0.23
  17 -23  13    3.33    0.55
  17  23  13    3.24    0.85
  17 -23  15    3.76    0.56
  23 -15  17    2.90    0.24
  23 -15  17    2.63    0.54
  17  23  15    2.66    0.87
  17 -17  23    1.71    0.48
  23 -17  17    1.39    0.51
  17 -23  17    2.18    0.55
  23  17  17    3.02    0.86
  17  23  17    1.27    0.86
  23 -19  17    4.98    0.59
  19 -17  23    4.26    0.55
  17 -23  19    4.54    0.59
  17  23  19    5.99    0.90
  23  19  17    6.31    0.94
  21 -17  23    8.13    0.39
  23 -21  17    7.51    0.66
  21 -17  23    7.58    0.61
  23  21  17    8.89    1.00
  19 -23   1   12.05    0.86
  23   1 -19   11.48    0.85
  19 -23   1   11.23    0.89
  19  23  -1   12.96    1.05
   1  19  23   15.15    1.13
  19 -23  -1   11.96    0.92
  19  23   1   10.83    1.01
  23  -1 -19   13.18    0.85
  -1 -19  23   11.97    0.46
  19 -23  -1   13.78    0.86
  19  23  -3    5.03    0.83
  19 -23   3    5.51    0.56
   3  19  23    4.48    0.90
  23  -3 -19    4.96    0.66
  19  23   3    4.18    0.86
  19  23  -5    0.69    0.70
  19 -23   5    0.29    0.43
  19  23   5    0.43    0.76
  23  -5 -19   -0.59    0.51
  19  23  -7    5.01    0.82
  19 -23   7    6.82    0.61
  19  23   7    8.01    0.96
  23  -9  19   15.52    0.98
  19 -23   9   18.02    1.01
  23  -9  19   15.38    0.62
  19  23   9   17.67    1.27
  23 -11  19   28.17    0.90
  19 -23  11   28.91    1.26
  23 -11  19   30.48    1.24
  19  23  11   27.31    1.77
  23 -13  19    4.25    0.56
  23 -13  19    5.08    0.30
  19 -23  13    5.09    0.60
  19  23  13    4.91    0.93
  23 -15  19    1.22    0.48
  23 -15  19    1.06    0.20
  19 -23  15    1.19    0.52
  19  23  15    1.56    0.83
  23 -17  19    3.94    0.57
  19 -23  17    5.19    0.61
  23 -17  19    4.39    0.27
  19  23  17    5.37    0.92
  19 -23  19    5.73    0.60
  23 -19  19    5.58    0.59
  23 -19  19    6.11    0.37
  19  23  19    6.68    0.94
  21 -19  23   24.70    0.73
  23 -21  19   22.86    0.75
  23 -21  19   22.91    1.11
  23   1 -21    2.23    0.61
  21 -23   1    2.83    0.51
  21  23  -1    3.19    0.80
  21 -23  -1    3.15    0.51
  21  23   1    2.32    0.79
  23  -1 -21    2.91    0.64
  21 -23   3    4.11    0.54
  21  23  -3    3.61    0.81
  23   3 -21    4.81    0.70
  21 -23  -3    3.63    0.52
  21  23   3    4.68    0.86
  23  -3 -21    3.99    0.65
  21  23  -5    9.25    0.95
  21 -23   5    9.86    0.71
  21  23   5   10.99    1.05
  21  23  -7    6.94    0.87
  21 -23   7    3.83    0.56
  21  23   7    5.51    0.97
  23  -9  21   43.23    1.33
  21 -23   9   47.69    1.66
  21  23   9   45.19    2.08
  23 -11  21   15.18    0.60
  21 -23  11   14.91    0.99
  23 -11  21   15.00    0.94
  21  23  11   18.98    1.28
  23 -13  21   11.27    0.49
  21 -23  13    9.84    0.73
  23 -13  21    8.69    0.68
  21  23  13   11.72    1.12
  23 -15  21   -0.32    0.19
  21 -23  15    0.55    0.50
  23 -15  21    0.54    0.45
  21  23  15    0.03    0.81
  23 -17  21    8.14    0.43
  21 -23  17    9.09    0.70
  23 -17  21    7.49    0.63
  21  23  17    6.95    0.98
  23 -19  21   23.99    0.76
  21 -23  19   23.01    1.12
  23 -19  21   24.04    1.10
  21  23  19   24.53    1.55
  21 -21  23   31.76    0.92
  23 -21  21   31.16    1.24
  23 -21  21   31.60    0.94
   1 -23  23   -0.16    0.18
  23  23  -1    0.64    0.77
  23 -23   1    0.41    0.46
  23   1 -23   -1.02    0.56
  23  -1 -23   -0.57    0.57
  23 -23  -1   -0.07    0.45
  23  23   1    0.32    0.77
  23  23  -3    6.64    0.92
  23 -23   3    6.73    0.63
  23   3 -23    6.55    0.76
  23 -23  -3    6.54    0.61
  23  23   3    7.50    0.96
  23 -23   5   21.86    1.12
  23  23  -5   22.77    1.50
  23  23   5   23.87    1.61
  23 -23   7    0.69    0.48
  23  23  -7    1.60    0.74
  23  23   7    0.96    0.83
  23 -23   9   55.51    1.89
  23  -9  23   53.19    1.58
  23  23   9   57.47    2.30
  23 -23  11    3.16    0.54
  23 -11  23    2.60    0.27
  23  23  11    3.17    0.88
  23 -23  13    7.13    0.65
  23 -13  23    6.35    0.59
  23 -13  23    7.89    0.43
  23  23  13    7.70    0.99
  23 -23  15    1.34    0.50
  23 -15  23    0.44    0.42
  23 -15  23    0.62    0.21
  23  23  15    0.87    0.80
  23 -23  17    5.71    0.59
  23 -17  23    6.11    0.56
  23 -17  23    6.67    0.40
  23  23  17    7.35    0.91
  23 -23  19   13.58    0.86
  23 -23  19   13.53    0.51
  23 -19  23   14.38    0.53
  21 -23  23   32.60    0.92
  23 -23  21   31.63    0.94
  23 -21  23   31.66    0.94
   0 -24   0   13.75    1.01
  24   0   0   14.83    0.86
  24  -2   0    0.29    0.43
  24   2   0   -0.05    0.42
   0 -24   2    0.10    0.50
   0 -24  -2    0.58    0.51
  24  -4   0    5.47    0.55
   0 -24   4    6.75    0.72
  24   4   0    5.83    0.58
   0 -24  -4    5.70    0.67
  24   6   0    0.61    0.45
  24  -6   0    0.03    0.41
   0 -24  -6   -0.50    0.47
   0 -24   6   -0.25    0.52
  24   8   0    7.51    0.72
   0 -24  -8    7.77    0.74
   0 -24   8    6.72    0.75
  24  -8   0    7.41    0.60
  24   8   0    8.19    0.67
  24 -10   0   -0.25    0.41
   0 -24  10    0.01    0.53
   0 -24 -10    0.03    0.50
  24  10   0   -0.06    0.56
  24  10   0   -0.29    0.49
  24 -12   0   -0.25    0.42
  24  12   0   -0.03    0.52
   0 -24 -12    0.13    0.51
  24  12   0    0.37    0.58
  24  14   0   -0.34    0.61
   0  24  14   -0.63    0.59
  24 -14   0    0.63    0.43
  24 -16   0   12.36    0.86
   0  24  16   11.25    0.96
  24  16   0   10.34    0.94
  24 -18   0   -0.03    0.43
  24  18   0   -0.14    0.68
  24  20   0   12.30    1.04
  24 -20   0   15.18    0.95
  22   0 -24    0.02    0.58
  24 -22   0   -0.15    0.45
  24  22   0    0.95    0.76
  24   0  -2   -0.06    0.41
  24   0   2    0.17    0.43
   2 -24   0   -0.20    0.50
  -2 -24   0   -0.07    0.49
  24   2  -2    7.11    0.63
  -2 -24  -2    7.77    0.72
   2 -24   2    7.64    0.74
  24  -2   2    6.35    0.57
  -2 -24   2    7.23    0.72
  24   2   2    7.15    0.60
  24  -2  -2    5.42    0.54
   2 -24  -2    7.79    0.72
   2 -24   4   14.48    1.04
  24  -4   2   14.67    0.92
  -2 -24  -4   15.00    1.00
  24   4  -2   13.11    0.90
  24   4   2   13.68    0.86
  24  -4  -2   12.71    0.88
  -2 -24   4   14.97    1.00
   2 -24  -4   14.31    1.01
   2 -24   6   45.00    1.76
  24  -6   2   46.90    1.59
  24   6  -2   44.41    1.66
  -2 -24  -6   45.85    1.72
  24   6   2   45.81    1.64
  24   6   2   43.65    1.71
  24  -6  -2   44.78    1.61
   2 -24  -6   46.22    1.75
  -2 -24   6   48.70    1.80
  24   8  -2   -0.21    0.45
  24   8  -2    0.17    0.51
  -2 -24  -8   -0.70    0.46
  24  -8   2    0.02    0.41
   2 -24   8    0.21    0.52
  24   8   2    0.62    0.48
  -2 -24   8    0.29    0.58
   2 -24  -8   -0.26    0.47
  24  -8  -2    0.43    0.43
  24   8   2   -0.67    0.51
  24  10  -2    8.31    0.78
  24  10  -2    9.65    0.73
  24 -10   2    8.34    0.65
   2 -24  10    9.31    0.84
  -2 -24 -10    9.66    0.78
  24  10   2    8.07    0.80
   2 -24 -10    8.16    0.77
  24 -10  -2    7.94    0.63
  -2 -24 -12   32.82    1.47
  24  12  -2   31.13    1.38
  24  12  -2   29.96    1.40
  24 -12   2   33.50    1.30
  24 -12  -2   32.66    1.30
   2 -24 -12   30.80    1.41
  24  12   2   32.69    1.46
  -2  24  14    1.19    0.94
  24 -14   2    1.58    0.47
  24  14  -2    2.26    0.60
  24  14  -2    0.89    0.63
  24  14   2    0.65    0.65
  24 -14  -2    1.30    0.46
   2 -24 -14    1.80    0.59
   2  24  14    1.14    0.66
  24 -16   2   57.55    1.89
  24  16  -2   53.05    2.08
   2  24  16   49.59    2.14
  24  16   2   56.90    2.15
  24 -16  -2   54.97    1.87
  24 -18   2    1.97    0.49
  24  18  -2    0.98    0.73
  24 -18  -2    1.39    0.49
  24  18   2    1.94    0.74
   2  24  18    0.72    0.76
  24 -20   2    7.05    0.65
  24  20  -2    8.45    0.92
  24  20   2    7.19    0.93
  24 -20  -2    7.54    0.65
  22   2 -24   -0.63    0.58
  24 -22   2    0.17    0.46
  24  22  -2   -0.49    0.71
  24 -22  -2    0.09    0.44
  24  22   2    0.81    0.78
  24   0  -4    5.55    0.56
   4 -24   0    6.72    0.71
  -4 -24   0    6.51    0.69
  24   0   4    5.53    0.57
   4 -24   2   14.00    0.95
  24   2  -4   13.33    0.90
  24  -2   4   14.97    0.87
  -4 -24  -2   14.78    0.99
  24  -2  -4   13.80    0.87
  24   2   4   12.81    0.93
  -4 -24   2   12.33    0.93
   4 -24  -2   14.45    1.02
   4 -24   4    0.33    0.50
   4 -24   4    0.37    0.36
  24  -4   4   -0.23    0.39
  -4 -24  -4    0.50    0.49
  24   4  -4    0.09    0.45
  -4 -24   4    0.30    0.53
  24   4   4   -0.32    0.46
   4 -24  -4    0.02    0.50
  24  -4  -4    0.54    0.40
  -4 -24  -6    4.06    0.61
  24   6  -4    4.53    0.59
  24  -6   4    2.86    0.49
   4 -24   6    3.82    0.65
   4 -24  -6    4.33    0.64
  24  -6  -4    3.77    0.54
  24   6   4    4.24    0.54
  -4 -24   6    2.48    0.62
   4 -24   8   -1.10    0.49
  24   8  -4    0.74    0.53
  -4 -24  -8    0.54    0.49
  24   8  -4   -0.23    0.48
  24  -8   4   -0.15    0.42
   4 -24  -8    0.26    0.53
  24  -8  -4   -0.24    0.43
  24   8   4    0.30    0.55
   4 -24  10    3.48    0.64
  -4 -24 -10    3.25    0.58
  24  10  -4    2.64    0.60
  24  10  -4    1.81    0.58
  24 -10   4    2.64    0.49
  24  10   4    2.69    0.66
  24 -10  -4    2.82    0.50
   4 -24 -10    2.87    0.61
  12  -4  24    1.40    0.18
  24  12  -4    1.83    0.62
  24 -12   4    1.07    0.45
   4 -24  12    0.97    0.59
  24  12   4    1.56    0.64
   4 -24 -12    1.63    0.58
  24 -12  -4    1.55    0.48
  14  -4  24    0.12    0.18
  24  14  -4    0.86    0.61
  24 -14   4    0.28    0.45
   4 -24 -14   -0.74    0.54
  24 -14  -4   -0.06    0.43
   4  24  14    0.08    0.70
  24  14   4    0.06    0.64
  16  -4  24    1.75    0.23
  24 -16   4    1.99    0.51
  24  16  -4    1.25    0.67
   4 -24 -16    1.49    0.64
  24 -16  -4    1.65    0.47
  24  16   4    2.99    0.76
   4  24  16    1.45    0.74
  24  18  -4   14.29    1.07
  24 -18   4   15.57    1.00
  18  -4  24   15.91    0.61
  24  18   4   14.98    1.12
  24 -18  -4   17.51    0.99
  24  20  -4    1.16    0.70
  24 -20   4    0.47    0.47
  24  20   4    1.35    0.78
  24 -20  -4    0.88    0.48
  24 -22   4   16.92    1.02
  24  22  -4   18.71    1.39
  24  22   4   17.54    1.23
  24 -22  -4   17.10    1.02
   6 -24   0   -0.65    0.48
  24   0  -6   -0.30    0.42
  -6 -24   0   -0.48    0.50
  24   0   6   -0.93    0.42
  24   2  -6   44.28    1.63
  -6 -24  -2   45.27    1.77
  24  -2   6   44.36    1.59
   6 -24   2   46.98    1.76
  24  -2  -6   45.77    1.61
   6 -24  -2   48.24    1.79
  -6 -24   2   46.36    1.77
  24   2   6   44.00    1.59
  -6 -24  -4    4.20    0.62
   6 -24   4    3.83    0.46
  24   4  -6    4.23    0.57
   6 -24   4    4.47    0.65
  24  -4   6    3.78    0.52
  24  -4  -6    4.76    0.54
   6 -24  -4    4.57    0.65
  -6 -24   4    3.94    0.65
  24   4   6    3.62    0.52
  -6 -24  -6  202.72    5.71
  24  -6   6  199.66    5.58
   6 -24   6  200.04    5.53
  24   6  -6  194.42    5.62
   6 -24   6  199.27    5.75
  24  -6  -6  195.06    5.60
   6 -24  -6  204.20    5.75
   6 -24   8    1.91    0.57
  24  -8   6    2.06    0.48
  -6 -24  -8    2.94    0.57
   6 -24   8    2.11    0.43
   6 -24  -8    2.30    0.62
  24  -8  -6    1.91    0.49
  24   8   6    1.70    0.62
  10  -6  24   33.55    0.93
   6 -24  10   32.67    1.24
   6 -24  10   33.33    1.50
  24 -10   6   32.15    1.30
   6 -24 -10   32.20    1.47
  24 -10  -6   33.42    1.32
  24  10   6   33.60    1.59
  12  -6  24   -0.09    0.13
  24 -12   6    0.11    0.43
   6 -24  12    0.09    0.54
  24 -12  -6    0.23    0.43
   6 -24 -12    0.39    0.53
  24  12   6    0.54    0.62
  14  -6  24   15.58    0.51
  24  14  -6   14.13    1.19
  24 -14   6   13.35    0.91
  24  14   6   14.43    1.07
  24 -14  -6   15.46    0.97
   6 -24 -14   14.33    1.01
   6  24  14   14.32    1.13
  24 -16   6    5.05    0.60
  16  -6  24    6.13    0.36
  24  16  -6    5.38    0.79
  24 -16  -6    5.30    0.57
   6  24  16    6.81    0.94
  24  16   6    6.57    0.87
   6 -24 -16    5.78    0.76
  24 -18   6   12.66    0.94
  18  -6  24   15.09    0.57
  24  18  -6   14.62    1.05
  24  18   6   16.21    1.18
  24 -18  -6   15.11    0.95
  24 -20   6    1.10    0.50
  20  -6  24    1.38    0.24
  24  20  -6    1.95    0.74
  24  20   6    1.63    0.81
  24 -20  -6    1.48    0.49
  24 -22   6    3.63    0.57
  24  22  -6    3.41    0.80
  24  22   6    4.14    0.88
   8 -24   0    7.66    0.74
  24   0   8    7.08    0.62
   0  -8  24    7.58    0.36
  -8 -24   0    6.82    0.73
  24   0  -8    6.63    0.65
   2  -8  24    0.02    0.12
  -8 -24  -2   -0.81    0.46
  24   2  -8   -0.48    0.44
   8 -24   2   -0.23    0.48
  24  -2   8   -0.13    0.45
   8 -24  -2   -0.09    0.51
  24  -2  -8    0.54    0.47
  24   2   8    0.99    0.44
   8 -24   4    0.09    0.34
  24   4  -8    0.30    0.48
  24  -4   8    0.20    0.52
   8 -24   4   -0.56    0.51
  -8 -24  -4   -0.64    0.50
  24  -4   8    0.56    0.43
   8 -24  -4   -0.18    0.50
  24  -4  -8    0.00    0.43
  24  -6   8    2.27    0.61
  -8 -24  -6    1.61    0.55
   8 -24   6    3.17    0.61
  24  -6   8    2.53    0.46
  24   6  -8    2.96    0.59
   8 -24   6    2.67    0.44
  24  -6  -8    2.42    0.49
   8 -24  -6    3.31    0.63
   8 -24   8   21.47    1.27
  24  -8   8   21.85    1.27
  24  -8   8   21.33    1.05
   8 -24   8   23.15    1.00
  24  -8  -8   22.86    1.13
   8 -24  -8   21.67    1.24
  24   8   8   25.18    1.34
   8 -24  10   12.40    0.80
   8 -24  10   12.14    0.93
  24 -10   8   11.77    0.88
  24  10   8   12.07    0.97
  24 -10  -8   12.04    0.87
   8 -24  12   18.26    1.21
  24 -12   8   18.47    1.04
   8 -24  12   20.04    0.99
   8  24  12   19.55    1.37
  24  12   8   20.64    1.34
  24 -12  -8   20.66    1.08
  14  -8  24    0.85    0.14
  24 -14   8    0.64    0.47
  24 -14  -8    0.84    0.48
  24  14   8    0.56    0.72
   8  24  14    1.34    0.77
  16  -8  24    5.31    0.31
  24 -16   8    5.29    0.61
  24  16   8    4.41    0.83
   8  24  16    4.46    0.91
  24 -16  -8    3.70    0.56
  24 -18   8   12.19    0.82
  18  -8  24   12.76    0.50
  24 -18  -8   12.50    0.79
  24  18   8   12.48    1.08
  20  -8  24   52.17    1.51
  24 -20   8   51.84    1.84
  24  20   8   54.14    2.21
  22  -8  24   26.36    0.87
  24 -22   8   26.23    1.23
  24  22   8   28.33    1.67
  10 -24   0    0.33    0.51
  24   0 -10    0.70    0.48
  24   0  10    0.57    0.43
   0 -10  24   -0.26    0.13
  24  -2  10    8.93    0.66
  10 -24   2    9.98    0.62
  10 -24   2    9.23    0.81
  24   2 -10    9.39    0.72
  10 -24  -2    8.04    0.76
  24  -2 -10    8.27    0.67
  10 -24   4    3.14    0.44
  24  -4  10    3.45    0.68
  10 -24   4    2.89    0.60
  24  -4  10    3.45    0.50
  24   4 -10    3.18    0.60
  10 -24  -4    3.64    0.66
  24  -4 -10    2.81    0.52
  10 -24   6   31.43    1.20
  24  -6  10   31.57    1.27
  24  -6  10   29.95    1.52
  10 -24   6   33.81    1.46
  10 -24  -6   33.13    1.50
  24  -6 -10   31.13    1.32
  10 -24   8   13.51    0.79
  24  -8  10   12.63    0.84
  24  -8  10   10.55    0.95
  10 -24   8   13.02    0.93
  24  -8 -10   13.62    0.90
  10 -24  10    4.72    0.52
  10 -24  10    4.61    0.67
  24 -10  10    4.86    0.56
  24 -10 -10    4.77    0.59
  24  10  10    5.64    0.81
  24 -12  10   23.90    1.13
  10 -24  12   23.33    1.07
  10  24  12   22.14    1.50
  24  12  10   21.37    1.41
  24 -12 -10   22.91    1.14
  10 -24  14   13.29    0.91
  24 -14  10   12.54    0.81
  24 -14 -10   13.25    0.83
  24  14  10   12.18    1.08
  10  24  14   11.63    1.11
  24 -16  10   10.74    0.76
  16 -10  24    9.95    0.39
  24  16  10    9.79    1.01
  24 -16 -10   11.58    0.75
  10  24  16   10.12    1.03
  24 -18  10    8.50    0.71
  18 -10  24    9.58    0.41
  24  18  10   10.37    1.03
  20 -10  24    0.52    0.21
  24 -20  10    0.72    0.50
  24  20  10    0.78    0.82
  24 -22  10    2.54    0.53
  22 -10  24    2.41    0.26
  24  22  10    3.76    0.89
  12 -24   0    0.14    0.50
   0 -12  24    0.02    0.12
  24   0 -12    0.83    0.49
  12 -24   2   32.53    1.21
  12 -24   2   31.05    1.47
  24   2 -12   32.08    1.34
  24  -2  12   29.38    1.24
  12 -24  -2   31.32    1.43
  24  -2 -12   30.62    1.35
  24  -4  12    1.51    0.43
  24   4 -12    1.56    0.57
  12 -24   4    1.89    0.42
  12 -24   4    1.26    0.54
  12 -24  -4    1.62    0.57
  24  -4 -12    1.28    0.48
  12 -24   6   -0.13    0.38
  12 -24   6   -0.51    0.51
  24  -6  12   -0.27    0.41
  24  -6  12    0.33    0.57
  12 -24   6    0.24    0.52
  24  -6 -12   -0.14    0.44
  12 -24   8   18.61    1.15
  12 -24   8   20.42    0.99
  24  -8  12   18.20    0.99
  24  -8 -12   19.66    1.08
  24 -10  12   21.65    1.03
  12 -24  10   21.35    1.02
  24 -10 -12   21.51    1.10
  12 -24  12   12.74    0.84
  24 -12  12   11.22    0.77
  24 -12 -12   12.86    0.80
  12  24  12   11.89    1.13
  24  12  12   10.30    1.00
  12 -24  14   14.94    0.98
  24 -14  12   15.11    0.94
  24 -14 -12   14.97    1.01
  12  24  14   17.26    1.19
  24  14  12   14.62    1.13
  24 -16  12    5.90    0.64
  16 -12  24    6.32    0.58
  12 -24  16    6.41    0.62
  12  24  16    7.71    0.96
  24  16  12    6.06    0.95
  24 -18  12    0.91    0.50
  18 -12  24    0.11    0.16
  18 -12  24   -0.53    0.40
  24  18  12   -0.14    0.80
  24 -20  12   38.41    1.53
  20 -12  24   39.27    1.14
  24  20  12   41.36    2.00
  24 -22  12    4.24    0.57
  22 -12  24    4.24    0.29
  24  22  12    3.78    0.92
  14 -24   0    0.01    0.51
   0 -14  24    0.07    0.13
  24   0 -14    0.11    0.47
  14 -24   0   -0.18    0.42
  24   2 -14    1.56    0.55
  14 -24   2    2.03    0.58
  14 -24   2    1.52    0.43
  24  -2 -14    0.49    0.51
  14 -24  -2    0.97    0.54
  14 -24   4    0.06    0.39
  14 -24   4   -0.46    0.51
  24  -4  14    0.38    0.42
  14 -24  -4   -0.65    0.52
  24  -4 -14    0.20    0.48
  14 -24   6   13.34    0.95
  14 -24   6   13.91    0.83
  24  -6  14   13.55    0.88
  24  -6 -14   14.16    0.93
  14 -24   8    1.16    0.43
  24  -8  14    0.08    0.44
  24  -8 -14    0.95    0.49
  24 -10  14   10.30    0.72
  14 -24  10   13.26    0.84
  14  24  10   10.89    1.09
  24 -10 -14   12.81    0.80
  24 -12  14   14.27    0.60
  24 -12  14   14.74    0.96
  14 -24  12   14.21    0.93
  14  24  12   14.72    1.16
  24 -14  14    4.67    0.59
  14 -24  14    5.79    0.62
  24 -14  14    4.50    0.30
  14  24  14    4.96    0.91
  24  14  14    5.28    0.90
  14 -24  16   14.03    0.98
  24 -16  14   13.90    0.98
  24  16  14   13.15    1.14
  14  24  16   15.00    1.20
  18 -14  24    1.06    0.44
  18 -14  24    0.63    0.15
  24 -18  14    0.78    0.50
  14  24  18    0.90    0.82
  24  18  14    1.59    0.84
  24 -20  14    1.48    0.51
  20 -14  24    1.21    0.44
  20 -14  24    1.72    0.20
  24  20  14    3.52    0.91
  24 -22  14    0.70    0.47
  22 -14  24    0.42    0.20
  22 -14  24    0.09    0.42
  24  22  14    0.13    0.80
  16 -24   0   11.83    0.92
   0 -16  24   11.54    0.41
  24   0 -16   11.48    0.81
  16 -24   0   12.62    0.85
  16 -24   2   51.79    2.01
  24   2 -16   54.60    1.92
  16 -24   2   55.82    1.80
  24  -2 -16   54.33    1.92
  16 -24  -2   52.45    2.04
  16 -24   4    0.91    0.45
  16 -24   4    1.19    0.56
  16 -24  -4    1.48    0.60
  24  -4 -16    1.21    0.53
  24  -6  16    7.28    0.61
  16 -24   6    5.26    0.56
  24  -6 -16    6.74    0.66
  24  -8  16    5.68    0.59
  16 -24   8    5.52    0.56
  16  24   8    4.51    0.88
  24  -8 -16    5.80    0.65
  16 -24  10    9.63    0.69
  24 -10  16    9.39    0.69
  16  24  10   10.43    1.04
  24 -12  16    6.56    0.63
  24 -12  16    6.39    0.35
  16 -24  12    6.87    0.63
  16  24  12    5.52    0.92
  24 -14  16   11.37    0.77
  16 -24  14   11.71    0.78
  24 -14  16   13.18    0.52
  16  24  14   11.93    1.11
  24 -16  16    0.10    0.19
  24 -16  16   -0.46    0.46
  16 -24  16    0.46    0.51
  16  24  16    0.20    0.83
  24 -18  16   -0.11    0.47
  24 -18  16    0.29    0.20
  16 -24  18   -0.04    0.47
  16  24  18   -0.28    0.79
  24  18  16    0.33    0.79
  24 -20  16    5.36    0.59
  20 -16  24    4.04    0.24
  24  20  16    3.86    0.88
  22 -16  24   -0.13    0.19
  24 -22  16   -0.62    0.45
  24  22  16   -0.40    0.76
  24   0 -18   -1.09    0.52
  18 -24   0    0.06    0.41
  18 -24   0   -0.71    0.50
   0 -18  24    0.14    0.15
  24   2 -18    1.58    0.60
  18 -24   2    1.50    0.46
  18 -24   2    1.85    0.61
  24  -2 -18    1.65    0.57
  18 -24  -2   -0.05    0.73
  18  24   2    1.68    0.78
  18 -24   4   15.60    0.90
  18  24   4   17.18    1.22
  24  -4 -18   16.18    1.04
  18 -24   6   15.28    0.94
  18  24   6   15.12    1.18
  24  -6 -18   15.89    1.04
  18 -24   8    9.45    0.70
  24  -8  18   12.26    0.76
  18  24  -8   11.96    1.01
  18  24   8   12.98    1.09
  24 -10  18    9.10    0.69
  18 -24  10    8.45    0.67
  24 -10  18    9.08    0.49
  18  24  10    9.12    1.00
  18 -24  12   -0.19    0.47
  24 -12  18    0.19    0.46
  24 -12  18    0.20    0.21
  18  24  12    0.66    0.81
  18 -24  14    1.00    0.49
  24 -14  18    1.03    0.49
  24 -14  18    0.69    0.22
  18  24  14    1.19    0.86
  24 -16  18    0.16    0.20
  18 -24  16   -0.24    0.49
  24 -16  18    0.25    0.47
  18  24  16    0.28    0.80
  24 -18  18    0.77    0.21
  24 -18  18    0.71    0.47
  18 -24  18    0.99    0.49
  18  24  18   -0.18    0.77
  24 -20  18    1.69    0.49
  20 -18  24    1.38    0.18
  24 -20  18    1.48    0.22
  24 -22  18    0.05    0.44
  24 -22  18    0.55    0.20
  22 -18  24    0.07    0.18
   0 -20  24   13.17    0.49
  20 -24   0   14.04    0.90
  24   0 -20   13.88    0.91
  20  24   0   13.79    1.11
  24   2 -20    8.58    0.77
  20 -24   2    8.12    0.65
  20  24  -2    7.53    0.92
  24  -2 -20    9.01    0.76
  20 -24  -2    7.04    0.62
  20  24   2    6.78    0.93
  24   4 -20    0.87    0.63
  20 -24   4    0.49    0.45
  20  24  -4   -0.65    0.69
  20  24   4    1.10    0.78
  24  -4 -20    0.88    0.56
  20  24  -6    1.79    0.74
  20 -24   6    1.57    0.48
  20  24   6    1.67    0.80
  20  24  -8   52.57    2.10
  20 -24   8   50.60    1.80
  20  24   8   54.79    2.27
  24 -10  20    0.25    0.45
  20 -24  10    0.92    0.49
  24 -10  20    0.66    0.23
  20  24  10   -0.05    0.82
  24 -12  20   38.31    1.48
  20 -24  12   40.23    1.51
  24 -12  20   38.74    1.18
  20  24  12   41.32    2.00
  24 -14  20    1.09    0.47
  20 -24  14    1.32    0.52
  24 -14  20    2.12    0.25
  20  24  14    1.25    0.84
  24 -16  20    3.05    0.52
  24 -16  20    3.61    0.27
  20 -24  16    3.70    0.56
  20  24  16    5.17    0.89
  20 -24  18    1.16    0.49
  24 -18  20    1.07    0.47
  24 -18  20    0.96    0.22
  20  24  18    0.88    0.79
  20 -20  24   66.99    1.78
  24 -20  20   62.85    2.07
  24 -20  20   64.99    1.82
  24 -22  20    0.11    0.42
  24 -22  20   -0.01    0.18
  22 -20  24   -0.67    0.17
  24   0 -22   -1.04    0.56
  22  24   0   -0.03    0.74
  22 -24   0   -0.21    0.44
   2 -22  24   -0.03    0.16
  24   2 -22   -0.23    0.57
  22 -24   2    0.25    0.46
  22  24  -2   -0.25    0.75
  22 -24  -2    0.37    0.44
  22  24   2   -0.27    0.75
  24  -2 -22    0.58    0.57
  22  24  -4   19.31    1.49
  22 -24   4   16.27    0.97
  24   4 -22   16.74    1.21
  22  24   4   14.67    1.18
  22  24  -6    2.90    0.82
  22 -24   6    3.03    0.54
  22  24   6    3.25    0.90
  22 -24   8   27.88    1.24
  22  24   8   27.47    1.73
  22 -24  10    0.66    0.50
  24 -10  22    2.07    0.27
  22  24  10    3.57    0.89
  22 -24  12    4.17    0.56
  24 -12  22    4.84    0.32
  24 -12  22    4.63    0.52
  22  24  12    4.85    0.92
  24 -14  22    0.13    0.42
  22 -24  14    0.32    0.48
  24 -14  22   -0.12    0.21
  22  24  14   -0.73    0.77
  24 -16  22    0.26    0.43
  22 -24  16    0.03    0.45
  24 -16  22    0.03    0.21
  22  24  16    0.07    0.78
  24 -18  22    0.31    0.42
  22 -24  18    0.44    0.44
  24 -18  22    0.18    0.20
  22  24  18   -0.34    0.74
  22 -24  20   -0.31    0.16
  24 -20  22    0.09    0.19
  20 -22  24   -0.15    0.14
  22 -24  22    0.53    0.16
  22 -22  24    0.43    0.16
  24 -22  22   -0.27    0.18
  24 -24   0   13.97    0.94
  24   0 -24   14.06    1.03
  24  24   0   14.08    1.12
   2 -24  24   13.63    0.52
  24  24  -2   15.40    1.12
  24 -24   2   14.97    0.96
  24   2 -24   15.53    0.94
  24 -24  -2   13.36    0.91
  24  24   2   15.02    1.16
  24 -24   4    0.67    0.46
  24   4 -24    0.94    0.60
  24  24  -4    0.20    0.72
  24  24   4    0.84    0.79
  24 -24   6    1.72    0.50
  24   6 -24    1.97    0.68
  24  24  -6    1.80    0.76
  24  24   6    0.94    0.80
  24 -24   8   31.35    1.32
  24  24   8   32.17    1.77
  24 -24  10    2.48    0.53
  24 -10  24    3.18    0.28
  24  24  10    1.49    0.82
  24 -24  12   27.27    1.18
  24 -12  24   24.92    0.84
  24  24  12   26.52    1.67
  24 -24  14    6.89    0.63
  24 -14  24    7.30    0.42
  24  24  14    7.36    0.95
  24 -24  16    4.40    0.55
  24 -24  16    3.70    0.27
  24 -16  24    3.45    0.27
  24  24  16    4.49    0.82
  24 -24  18    0.11    0.41
  24 -24  18    0.22    0.19
  24 -18  24    0.11    0.19
  -1 -25  -1    4.33    0.66
  25  -1   1    5.44    0.58
  25   1  -1    3.99    0.54
   1 -25   1    5.77    0.69
  25  -1  -1    4.58    0.54
  -1 -25   1    3.93    0.67
   1 -25  -1    5.05    0.69
  25   1   1    4.36    0.55
   1 -25   3    0.39    0.53
  25  -3   1    0.47    0.44
  25   3  -1    0.90    0.47
  -1 -25  -3    0.20    0.52
  25  -3  -1    0.52    0.46
   1 -25  -3    0.38    0.52
  -1 -25   3    0.30    0.52
  25   3   1    0.82    0.45
  -1 -25  -5    5.27    0.68
  25   5  -1    5.38    0.61
  25  -5   1    5.54    0.58
   1 -25   5    5.10    0.67
  25  -5  -1    5.22    0.57
   1 -25  -5    6.46    0.70
  25   5   1    6.39    0.61
  -1 -25   5    6.18    0.77
  -1 -25  -7    1.67    0.56
   1 -25   7    1.80    0.60
  25  -7   1    2.32    0.46
  25   7  -1    2.31    0.53
  25  -7  -1    2.16    0.48
   1 -25  -7    2.00    0.59
  25   7   1    1.50    0.50
  -1 -25   7    1.87    0.62
  25   9  -1   -0.22    0.55
  25  -9   1    0.11    0.45
  25   9  -1    0.34    0.50
  -1 -25  -9   -0.26    0.49
   1 -25   9    0.39    0.55
   1 -25  -9    0.19    0.53
  -1 -25   9    0.67    0.58
  25   9   1    0.42    0.50
  25  -9  -1   -0.12    0.42
  25   9   1    0.19    0.56
  25  11  -1   15.32    1.05
  25 -11   1   14.27    0.97
  25  11  -1   14.83    1.16
  -1 -25 -11   15.67    1.11
  25  11   1   14.39    1.12
  25 -11  -1   15.53    0.95
   1 -25 -11   17.34    1.09
  25  11   1   15.76    1.13
  25 -13   1   16.17    0.95
  25  13  -1   18.42    1.26
  -1  25  13   15.36    1.11
  25  13  -1   17.25    1.04
  25  13   1   17.09    1.22
   1 -25 -13   16.00    1.16
  25 -13  -1   16.78    0.96
   1  25  13   16.27    1.14
  25 -15   1   11.39    0.78
  25  15  -1   13.95    0.99
   1  25  15   11.24    1.01
  25 -15  -1   14.70    0.96
  25  15   1   14.24    1.03
  25  17  -1   42.47    1.78
  25 -17   1   42.23    1.55
  25  17   1   40.02    1.78
  25 -17  -1   44.52    1.59
   1  25  17   38.99    1.98
  25 -19   1    1.55    0.51
  25  19  -1    1.23    0.77
  25 -19  -1    1.61    0.49
  25  19   1    2.37    0.77
  25  21  -1    6.51    0.89
  25 -21   1    7.24    0.65
  25  21   1    7.19    0.93
  25 -21  -1    6.93    0.64
  23   1 -25   13.77    0.92
  25 -23   1   14.76    0.94
  25  23  -1   14.31    1.11
  25  23   1   13.92    1.11
  25 -23  -1   14.73    0.96
  25   1  -3    0.33    0.43
  25  -1   3    0.69    0.45
  -3 -25  -1    0.13    0.50
   3 -25   1    1.26    0.56
  25   1   3    1.03    0.47
   3 -25  -1    0.57    0.53
  -3 -25   1    0.18    0.51
  25  -1  -3    0.54    0.44
  25  -3   3   45.43    1.59
   3 -25   3   44.01    1.75
  25   3  -3   43.93    1.61
  -3 -25  -3   45.33    1.76
   3 -25  -3   45.20    1.75
  25  -3  -3   45.44    1.60
  25   3   3   43.31    1.61
  -3 -25   3   45.44    1.79
  25  -5   3   17.90    0.97
  25   5  -3   17.51    1.06
   3 -25   5   18.01    1.15
  -3 -25  -5   17.82    1.14
   3 -25  -5   20.83    1.21
  -3 -25   5   17.70    1.17
  25  -5  -3   19.14    1.01
  25   5   3   17.54    1.01
   3 -25   7   22.67    1.24
  -3 -25  -7   20.18    1.18
  25   7  -3   19.84    1.08
  25  -7   3   23.73    1.06
  -3 -25   7   20.83    1.27
  25   7   3   19.73    1.02
  25  -7  -3   20.18    1.05
   3 -25  -7   21.28    1.26
  25  -9   3    1.99    0.49
   3 -25   9    2.32    0.62
  -3 -25  -9    2.49    0.58
  25   9  -3    2.99    0.61
  25   9  -3    2.55    0.57
  25  -9  -3    2.58    0.48
   3 -25  -9    1.85    0.60
  25   9   3    2.93    0.64
  25  11  -3    3.16    0.59
  25 -11   3    3.12    0.53
   3 -25  11    4.70    0.71
  25  11  -3    2.82    0.65
  25 -11  -3    3.11    0.53
   3 -25 -11    3.06    0.65
  25  11   3    2.60    0.67
  25  13  -3   12.73    0.96
  25 -13   3   14.88    0.99
  25  13  -3   15.00    0.98
   3  25  13   13.68    1.09
  25  13   3   12.87    0.99
   3 -25 -13   13.20    0.97
  25 -13  -3   15.21    0.91
  25  15  -3   22.53    1.20
  25  15  -3   23.20    1.34
  25 -15   3   21.33    1.10
   3 -25 -15   22.13    1.32
   3  25  15   24.49    1.48
  25 -15  -3   22.74    1.12
  25  15   3   21.89    1.35
  25 -17   3   14.70    1.00
  25  17  -3   14.61    1.04
  25  17   3   15.46    1.11
  25 -17  -3   15.00    0.97
  25 -19   3   18.07    1.06
  25  19  -3   18.56    1.37
  25 -19  -3   16.84    1.04
  25  19   3   17.36    1.34
  25 -21   3   -0.45    0.45
  21   3 -25   -0.19    0.62
  25  21  -3   -0.38    0.70
  25 -21  -3    0.11    0.46
  25  21   3    0.48    0.74
  25  23  -3    3.00    0.80
  23   3 -25    2.64    0.65
  25 -23   3    1.71    0.51
  25 -23  -3    2.00    0.50
  25  23   3    0.17    0.78
  -5 -25  -1    7.24    0.75
   5 -25   1    6.91    0.74
  25  -1   5    6.24    0.58
  25   1  -5    5.11    0.58
  25  -1  -5    5.67    0.60
   5 -25  -1    6.83    0.73
  25   1   5    5.49    0.58
  -5 -25   1    5.29    0.71
  25   3  -5   14.41    1.03
   5 -25   3   18.03    1.13
  25  -3   5   17.41    0.98
  -5 -25  -3   19.16    1.10
  25   3   5   16.33    0.93
  -5 -25   3   17.58    1.16
   5 -25  -3   18.12    1.13
  25  -3  -5   17.77    0.97
  -5 -25  -5    5.15    0.66
  25   5  -5    4.91    0.61
   5 -25   5    6.67    0.75
  25  -5   5    6.39    0.62
  25  -5  -5    6.37    0.62
  -5 -25   5    5.36    0.75
   5 -25  -5    5.71    0.72
  25   5   5    6.41    0.60
  25   7  -5   20.56    1.15
   5 -25   7   21.61    1.23
  25  -7   5   23.60    1.11
  -5 -25  -7   19.79    1.19
  25  -7  -5   22.27    1.12
   5 -25  -7   22.80    1.23
  -5 -25  -9    2.81    0.61
   5 -25   9    2.97    0.65
  25  -9   5    3.51    0.53
  25   9  -5    3.78    0.60
  25   9  -5    3.34    0.66
  25   9   5    2.19    0.65
  25  -9  -5    3.04    0.53
   5 -25  -9    3.06    0.66
  25 -11   5    2.71    0.51
  25  11  -5    1.95    0.62
   5 -25  11    2.46    0.64
  25  11  -5    1.48    0.64
   5 -25 -11    1.94    0.62
  25 -11  -5    1.82    0.50
  25  11   5    2.05    0.69
  25  13  -5   -0.40    0.60
  25 -13   5   -0.13    0.46
  25  13  -5    1.55    0.60
  25  13   5    0.16    0.68
   5 -25 -13    0.15    0.56
   5  25  13   -0.38    0.71
  25 -13  -5    0.44    0.47
  25 -15   5    1.94    0.52
  25  15  -5    2.04    0.69
  25 -15  -5    2.62    0.53
  25  15   5    2.58    0.76
   5 -25 -15    2.17    0.65
   5  25  15    2.40    0.78
  25 -17   5    8.86    0.71
  25  17  -5    9.10    0.87
  25 -17  -5    8.95    0.70
  25  17   5    9.22    0.96
  25  19  -5    5.17    0.80
  25 -19   5    5.07    0.61
  25 -19  -5    5.16    0.59
  25  19   5    5.28    0.88
  25 -21   5    6.57    0.65
  25  21  -5    6.41    0.85
  25 -21  -5    5.96    0.61
  25  21   5    6.36    0.93
  23   5 -25    3.41    0.69
  25  23  -5    2.93    0.75
  25 -23   5    3.74    0.56
  25  23   5    2.64    0.84
  25  -1   7    1.77    0.50
   7 -25   1    1.16    0.55
  25   1  -7    1.77    0.52
  -7 -25  -1    2.47    0.59
  -7 -25   1    1.71    0.61
   7 -25  -1    3.87    0.64
  25  -1  -7    1.96    0.50
  25   1   7    2.21    0.50
  -7 -25  -3   19.55    1.15
  25  -3   7   18.86    1.01
   7 -25   3   21.55    1.20
  25   3  -7   20.20    1.07
  25   3   7   18.62    1.02
  25  -3  -7   20.86    1.04
   7 -25  -3   21.73    1.23
  25  -5   7   20.57    1.23
  -7 -25  -5   21.02    1.18
   7 -25   5   22.24    1.26
  25   5  -7   20.77    1.09
   7 -25   5   19.61    0.96
  25  -5   7   21.89    1.07
   7 -25  -5   20.72    1.21
  25  -5  -7   20.39    1.05
   7 -25   7   61.43    2.17
  25  -7   7   61.38    1.97
   7 -25   7   62.06    1.92
  25  -7   7   52.59    2.15
  -7 -25  -7   62.44    2.15
  25   7  -7   57.22    2.04
  25  -7  -7   61.16    2.01
   7 -25  -7   59.78    2.14
  25  -9   7    0.90    0.45
  25   9  -7    1.36    0.59
   9  -7  25    0.85    0.13
   7 -25   9    0.68    0.39
   7 -25   9    1.30    0.58
  25   9   7    0.26    0.63
  25  -9  -7    0.46    0.46
   7 -25  -9    1.15    0.61
   7 -25  11   23.20    1.37
  25 -11   7   26.09    1.16
  11  -7  25   25.90    0.75
  25  11   7   24.71    1.49
   7 -25 -11   25.10    1.41
  25 -11  -7   26.15    1.21
  25 -13   7    5.79    0.61
  13  -7  25    6.81    0.33
   7 -25 -13    6.96    0.78
  25  13   7    5.81    0.86
  25 -13  -7    5.78    0.64
   7  25  13    6.79    0.96
  25 -15   7    6.99    0.67
  15  -7  25    7.53    0.37
   7  25  15    6.86    1.00
  25  15   7    8.87    0.95
   7 -25 -15    6.90    0.85
  25 -15  -7    7.71    0.67
  17  -7  25    1.29    0.21
  25 -17   7    0.33    0.53
  25 -17  -7    2.64    0.52
  25  17   7    0.35    0.75
  19  -7  25   37.11    1.12
  25 -19   7   37.46    1.49
  25 -19  -7   38.13    1.45
  25  19   7   36.91    1.86
  25 -21   7   27.45    1.26
  25  21   7   29.84    1.70
  25 -23   7    9.24    0.71
  25  23   7    9.14    1.00
   1  -9  25    0.13    0.14
  25  -1   9    0.10    0.42
   9 -25   1   -0.70    0.49
  25   1  -9    0.42    0.48
   9 -25  -1    0.50    0.53
  25  -1  -9    0.44    0.47
  25   1   9   -0.31    0.45
  25  -3   9    2.27    0.50
  -9 -25  -3    3.64    0.63
  25   3  -9    2.91    0.55
   9 -25   3    2.65    0.43
   9 -25   3    3.01    0.63
   3  -9  25    2.34    0.16
   9 -25  -3    2.76    0.61
  25  -3  -9    2.32    0.53
  25   5  -9    2.85    0.57
  25  -5   9    2.50    0.50
   9 -25   5    2.91    0.64
  -9 -25  -5    3.29    0.64
  25  -5   9    2.69    0.65
   9 -25   5    3.41    0.46
   9 -25  -5    3.93    0.65
  25  -5  -9    3.24    0.53
   9 -25   7    1.43    0.58
   9 -25   7    0.87    0.41
  25  -7   9    0.75    0.44
  25   7  -9    0.39    0.55
  25  -7   9   -0.13    0.93
  25  -7  -9    1.02    0.49
   9 -25  -7    1.18    0.59
   9 -25   9    0.08    0.53
  25  -9   9    0.08    0.43
   9 -25   9    0.45    0.41
  25  -9  -9    0.06    0.47
   9 -25  -9    1.38    0.61
  25 -11   9    4.61    0.57
   9 -25  11    5.19    0.73
   9 -25  11    5.05    0.53
   9 -25 -11    4.19    0.71
  25  11   9    5.46    0.81
  25 -11  -9    4.01    0.58
   9 -25  13   13.03    0.85
  25 -13   9   10.79    0.76
  25  13   9   14.50    1.10
  25 -13  -9   13.64    0.83
   9  25  13   12.76    1.15
  15  -9  25   12.74    0.44
  25 -15   9   10.57    0.77
  25 -15  -9   12.79    0.92
  25  15   9   10.52    1.02
  17  -9  25   12.90    0.49
  25 -17   9   13.39    0.92
  25 -17  -9   12.18    0.82
  25  17   9   14.44    1.16
  19  -9  25    1.21    0.22
  25 -19   9    0.98    0.52
  25  19   9    2.13    0.84
  25 -21   9    0.25    0.49
  21  -9  25   -0.42    0.21
  25  21   9   -0.12    0.78
  25 -23   9    4.05    0.57
  23  -9  25    4.26    0.31
  25  23   9    4.62    0.91
  11 -25   1   16.61    1.11
  25   1 -11   16.99    1.02
   1 -11  25   16.00    0.52
  25  -1  11   15.05    0.93
  25  -1 -11   16.25    1.01
  11 -25  -1   16.46    1.11
  25   3 -11    2.32    0.54
  25  -3  11    2.86    0.49
  11 -25   3    2.59    0.44
  11 -25   3    1.91    0.58
  11 -25  -3    3.45    0.64
  25  -3 -11    1.73    0.49
  11 -25   5    2.87    0.63
  11 -25   5    2.35    0.44
  25  -5  11    2.19    0.46
  25   5 -11    2.61    0.59
  11 -25  -5    4.35    0.66
  25  -5 -11    2.82    0.53
  11 -25   7   23.66    1.07
  11 -25   7   24.43    1.34
  25  -7  11   22.99    1.07
  25  -7 -11   24.98    1.16
  11 -25  -7   23.82    1.31
  11 -25   9    4.73    0.52
  25  -9  11    3.56    0.53
  11 -25   9    3.90    0.67
  25  -9 -11    4.82    0.61
  25 -11  11   66.85    2.18
  11 -25  11   67.55    2.16
  11  25  11   63.54    2.53
  25  11  11   70.72    2.52
  25 -11 -11   69.14    2.22
  11 -25  13    4.48    0.55
  25 -13  11    3.74    0.57
  25 -13 -11    3.51    0.58
  25  13  11    4.14    0.84
  25 -15  11    7.53    0.68
  11  25  15    7.99    0.99
  25  15  11    6.43    0.93
  25 -15 -11    7.30    0.67
  25 -17  11   11.10    0.78
  17 -11  25   11.64    0.44
  11  25  17   12.43    1.08
  25  17  11   11.89    1.12
  19 -11  25    7.24    0.40
  25 -19  11    7.15    0.68
  25  19  11    7.93    1.01
  25 -21  11   27.83    1.26
  21 -11  25   28.01    0.89
  25  21  11   30.02    1.77
  23 -11  25   20.00    0.72
  25 -23  11   21.55    1.09
  25  23  11   23.40    1.65
  13 -25   1   17.80    1.02
  13 -25   1   14.59    1.09
   1 -13  25   16.15    0.50
  25   1 -13   13.47    0.99
  -1 -13  25   16.19    0.56
  13 -25  -1   14.66    1.00
  25  -1 -13   16.06    1.06
  25  -3  13   13.97    0.87
  25   3 -13   14.58    1.06
  13 -25   3   12.77    0.93
  13 -25   3   13.27    0.85
  13 -25  -3   12.73    0.94
  25  -3 -13   16.83    1.04
  25   5 -13    1.60    0.59
  13 -25   5    0.85    0.40
  13 -25   5    0.07    0.53
  25  -5  13    0.13    0.42
  25  -5 -13    0.93    0.48
  13 -25  -5    0.34    0.58
  13 -25   7    5.01    0.72
  13 -25   7    6.26    0.57
  25  -7  13    6.95    0.61
  25  -7 -13    5.30    0.62
  13 -25  -7    5.65    0.75
  13 -25   9   12.66    0.87
  25  -9  13   11.30    0.76
  25  -9 -13   13.77    0.84
  13 -25  11    2.70    0.50
  25 -11  13    3.61    0.55
  25 -11 -13    2.93    0.57
  25 -13  13   33.23    1.40
  13 -25  13   35.65    1.41
  25 -13 -13   33.17    1.40
  25  13  13   36.34    1.75
  13  25  13   34.70    1.84
  25 -15  13    0.04    0.48
  13 -25  15    0.33    0.47
  25  15  13    0.93    0.78
  13  25  15    1.23    0.83
  25 -17  13   17.41    1.07
  17 -13  25   19.04    0.59
  13  25  17   18.02    1.28
  25  17  13   20.53    1.34
  19 -13  25    0.16    0.18
  25 -19  13   -0.07    0.48
  25  19  13    0.48    0.80
  25 -21  13    0.61    0.49
  21 -13  25    0.46    0.20
  25  21  13    0.55    0.82
  23 -13  25    5.53    0.31
  25 -23  13    3.97    0.55
  25  23  13    4.50    0.89
  15 -25   1   15.00    1.02
  15 -25   1   14.44    0.87
  25   1 -15   13.31    0.87
   1 -15  25   13.34    0.44
  -1 -15  25   13.02    0.49
  15 -25  -1   12.29    0.95
  25  -1 -15   13.22    0.87
  25   3 -15   23.02    1.20
  15 -25   3   21.27    1.28
  15 -25   3   22.44    1.04
  25  -3 -15   22.36    1.14
  15 -25  -3   20.17    1.29
  15 -25   5    2.27    0.46
  25   5 -15    2.74    0.65
  25  -5  15    2.91    0.51
  15 -25   5    2.11    0.63
  15 -25  -5    2.48    0.64
  25  -5 -15    1.80    0.53
  25  -7  15    8.39    0.65
  15 -25   7    6.93    0.60
  25  -7 -15    8.38    0.71
  15 -25   9   12.29    0.87
  25  -9  15   11.13    0.75
  25  -9 -15   11.86    0.81
  15  25   9   13.64    1.14
  25 -11  15    6.22    0.63
  15 -25  11    7.86    0.65
  15  25  11    9.10    1.02
  25 -11 -15    7.79    0.70
  15 -25  13   -0.16    0.47
  25 -13  15    0.19    0.48
  15  25  13   -0.03    0.80
  25 -15  15   12.45    0.65
  25 -15  15   12.39    0.81
  15 -25  15   13.79    0.97
  15  25  15   14.07    1.18
  15 -25  17    1.62    0.52
  25 -17  15    1.74    0.24
  25 -17  15    1.19    0.51
  25  17  15    3.08    0.86
  15  25  17    1.59    0.84
  19 -15  25    1.99    0.19
  25 -19  15    1.79    0.24
  25 -19  15    1.73    0.52
  25  19  15    2.04    0.85
  25 -21  15    1.76    0.49
  21 -15  25    0.95    0.20
  25  21  15    2.35    0.81
  23 -15  25    1.78    0.23
  25 -23  15    2.43    0.49
  25  23  15    1.46    0.76
  25   1 -17   42.25    1.65
  17 -25   1   42.23    1.51
  -1 -17  25   39.89    1.20
  25  -1 -17   42.55    1.65
  25   3 -17   15.10    1.13
  17 -25   3   15.04    0.92
  25  -3 -17   16.33    1.08
  17 -25   5    7.89    0.63
  25   5 -17    9.57    0.84
  25  -5 -17    8.32    0.72
  17  25   5    7.75    0.99
  17 -25   7    1.44    0.46
  25  -7  17    0.75    0.47
  17  25   7   -0.47    0.75
  25  -7 -17    0.93    0.53
  17 -25   9    9.60    0.70
  25  -9  17   12.59    0.90
  17  25   9   12.71    1.11
  25  -9 -17   13.52    1.00
  17 -25  11   10.29    0.72
  25 -11  17   10.25    0.72
  17  25  11   11.40    1.08
  25 -13  17   16.26    0.63
  17 -25  13   16.43    0.99
  25 -13  17   16.00    1.00
  17  25  13   15.02    1.22
  25 -15  17    2.13    0.25
  17 -25  15    1.84    0.54
  25 -15  17    1.55    0.51
  17  25  15    0.20    0.82
  25 -17  17    0.66    0.22
  25 -17  17   -0.23    0.47
  17 -25  17    0.40    0.48
  17  25  17   -0.31    0.80
  25 -19  17    4.09    0.56
  25 -19  17    4.43    0.29
  19 -17  25    5.36    0.30
  17  25  19    4.91    1.30
  25 -21  17    1.76    0.48
  21 -17  25    1.50    0.20
  25 -21  17    2.20    0.23
  25 -23  17    2.66    0.48
  25 -23  17    2.39    0.24
  23 -17  25    2.38    0.22
  25   1 -19    1.81    0.62
  19  25  -1    2.41    0.78
  19 -25   1    1.73    0.47
   1 -19  25    1.05    0.18
  19 -25  -1    0.92    0.45
  25  -1 -19    1.64    0.59
  19  25   1    2.31    0.80
  25   3 -19   15.85    1.16
  19  25  -3   16.24    1.17
  19 -25   3   16.55    0.97
  25  -3 -19   18.19    1.12
  19  25   3   18.87    1.28
  19 -25   5    5.31    0.57
  19  25  -5    3.29    0.80
  25   5 -19    5.56    0.75
  25  -5 -19    5.81    0.66
  19  25   5    4.34    0.90
  19  25  -7   33.93    1.70
  19 -25   7   35.10    1.37
  19  25   7   35.96    1.89
  25  -9  19    1.35    0.48
  19 -25   9    1.20    0.48
  19  25   9    1.33    0.82
  25 -11  19    6.13    0.62
  19 -25  11    6.54    0.63
  19  25  11    8.06    1.03
  25 -13  19   -0.13    0.46
  19 -25  13    0.25    0.47
  25 -13  19    0.39    0.23
  19  25  13    0.93    0.83
  19 -25  15    1.14    0.51
  25 -15  19    1.80    0.50
  25 -15  19    1.81    0.25
  19  25  15    1.85    0.84
  25 -17  19    4.56    0.57
  19 -25  17    5.08    0.59
  25 -17  19    4.18    0.29
  19  25  17    5.12    0.87
  25 -19  19    6.53    0.59
  25 -19  19    8.02    0.44
  19 -19  25    7.48    0.33
  19  25  19    6.68    0.89
  21 -19  25    7.01    0.34
  25 -21  19    6.03    0.33
  25 -21  19    8.06    0.62
  25 -23  19    4.24    0.27
  23 -19  25    3.92    0.24
  25 -23  19    4.15    0.49
  21 -25   1    7.09    0.62
  21  25  -1    5.57    0.88
   1 -21  25    6.44    0.36
  25   1 -21    7.03    0.75
  21  25   1    6.02    0.91
  21 -25  -1    7.15    0.61
  25  -1 -21    7.91    0.74
   3 -21  25    0.01    0.15
  21  25  -3   -0.67    0.71
  21 -25   3    0.05    0.45
  25   3 -21   -0.56    0.58
  21  25   3   -0.12    0.77
  25  -3 -21   -0.59    0.53
  25   5 -21    6.37    0.78
  21 -25   5    6.41    0.62
  21  25  -5    4.98    0.85
  21  25   5    6.25    0.94
  21 -25   7   30.19    1.29
  21  25  -7   31.10    1.68
  21  25   7   30.82    1.81
  21 -25   9    0.09    0.46
  21  25   9   -0.24    0.80
  25 -11  21   29.52    1.10
  21 -25  11   28.94    1.25
  25 -11  21   26.36    1.19
  21  25  11   29.20    1.77
  25 -13  21    0.36    0.44
  25 -13  21    0.84    0.23
  21 -25  13    1.01    0.47
  21  25  13    0.56    0.80
  25 -15  21    1.15    0.44
  25 -15  21    1.43    0.24
  21 -25  15    1.42    0.50
  21  25  15    2.29    0.83
  21 -25  17    2.26    0.50
  25 -17  21    1.74    0.48
  25 -17  21    1.80    0.25
  21  25  17    1.68    0.80
  25 -19  21    7.39    0.58
  25 -19  21    7.50    0.42
  21  25  19    6.27    0.82
  21 -21  25   10.47    0.39
  21 -25  21   10.24    0.41
  25 -21  21   10.77    0.46
  25   1 -23   13.71    0.91
   1 -23  25   12.71    0.69
  23  25  -1   14.79    1.15
  23 -25   1   15.11    0.93
  23  25   1   13.41    1.12
  25  -1 -23   14.82    1.06
  23 -25  -1   14.43    0.93
  23  25  -3    2.71    0.81
   3 -23  25    2.45    0.21
  25   3 -23    2.40    0.63
  23 -25   3    1.78    0.50
  23  25   3    3.26    0.86
  25   5 -23    3.10    0.66
  23  25  -5    2.77    0.81
  23 -25   5    3.05    0.53
  23  25   5    3.30    0.85
  25   7 -23    9.98    0.87
  23  25  -7    9.46    0.95
  23 -25   7    9.87    0.70
  23  25   7    8.72    1.01
  23 -25   9    2.38    0.51
  23  25   9    3.46    0.86
  25 -11  23   20.99    0.78
  23 -25  11   20.89    1.06
  23  25  11   18.74    1.27
  23 -25  13    4.47    0.54
  25 -13  23    4.63    0.31
  23  25  13    3.86    0.87
  25 -15  23    1.81    0.44
  25 -15  23    1.87    0.25
  23 -25  15    1.89    0.49
  23  25  15    1.06    0.77
  23 -25  17    1.81    0.46
  25 -17  23    2.31    0.24
  23  25  17    2.04    0.73
  25 -19  23    4.07    0.26
  23 -25  19    3.96    0.24
  25  25  -1    0.90    0.76
  25 -25   1    1.03    0.46
  25   1 -25    1.45    0.56
  25 -25  -1    0.73    0.45
  25  25   1    2.37    0.80
   3 -25  25   18.82    0.62
  25  25  -3   16.79    1.17
  25 -25   3   19.39    1.00
  25   3 -25   17.82    1.14
  25 -25  -3   17.00    1.28
  25  25   3   21.69    1.49
   5 -25  25    8.32    0.38
  25 -25   5    8.94    0.66
  25   5 -25    8.18    0.76
  25  25  -5    8.39    0.91
  25  25   5    9.00    0.98
  25 -25   7   40.23    1.46
  25   7 -25   36.73    1.58
  25  25   7   39.73    1.85
  25 -25   9    7.46    0.62
  25   9 -25    7.08    0.76
  25  25   9    6.85    0.93
  25 -25  11    3.05    0.51
  25  11 -25    3.07    0.68
  25  25  11    2.82    0.85
  25 -25  13    1.59    0.46
  25 -13  25    1.28    0.23
  25  25  13    1.78    0.77
  25 -25  15    6.56    0.58
  25 -15  25    6.70    0.39
  25  25  15    6.08    0.83
  25 -25  17    0.79    0.40
  25 -25  17    0.82    0.20
  25 -17  25    0.69    0.19
   0 -26   0    0.67    0.55
  26   0   0   -0.60    0.45
   0 -26  -2   20.69    1.20
   0 -26   2   21.56    1.23
  26  -2   0   20.12    1.06
  26   2   0   20.36    1.05
   0 -26  -4   -0.04    0.52
   0 -26   4   -0.21    0.53
  26  -4   0    0.59    0.46
  26   4   0    0.01    0.45
  26   6   0   22.46    1.14
   0 -26   6   20.33    1.27
  26  -6   0   21.34    1.09
   0 -26  -6   21.61    1.22
  26   8   0    0.35    0.49
  26  -8   0    0.09    0.44
   0 -26  -8    0.09    0.53
   0 -26   8   -0.11    0.56
  26  10   0   13.89    0.97
  26 -10   0   15.25    0.96
  26  10   0   13.28    0.85
   0 -26 -10   15.40    1.06
  26  12   0    0.41    0.52
   0 -26 -12   -0.30    0.57
  26 -12   0    0.38    0.48
  26  12   0   -0.46    0.61
   0  26  14  112.09    3.83
  26  14   0  125.05    3.79
  26 -14   0  129.15    3.65
  26 -16   0    0.10    0.47
  26  16   0    0.69    0.70
  26  18   0  109.22    3.52
  26 -18   0  113.55    3.35
  26  20   0    0.38    0.70
  26 -20   0   -0.23    0.47
  26  22   0    3.06    0.81
  26 -22   0    3.79    0.55
  26  24   0    0.56    0.72
  26 -24   0    0.45    0.46
  26   0  -2   19.55    1.02
  -2 -26   0   19.96    1.17
  26   0   2   19.34    1.02
   2 -26   0   18.38    1.18
  26   2  -2    5.08    0.58
  26  -2   2    4.98    0.57
   2 -26   2    5.92    0.73
  -2 -26  -2    4.91    0.69
  26   2   2    4.17    0.57
   2 -26  -2    4.18    0.66
  26  -2  -2    4.88    0.57
  -2 -26   2    5.35    0.71
  26  -4   2   10.00    0.71
   2 -26   4    8.81    0.82
  -2 -26  -4    9.21    0.80
  26   4  -2   10.01    0.73
  -2 -26   4    7.53    0.80
  26   4   2    8.99    0.69
   2 -26  -4    9.50    0.83
  26  -4  -2    7.29    0.65
  -2 -26  -6   -0.35    0.50
  26   6  -2    0.05    0.49
  26  -6   2    0.25    0.44
   2 -26   6    0.74    0.57
  26   6   2   -0.24    0.44
   2 -26  -6    0.08    0.52
  -2 -26   6    0.44    0.59
  26  -6  -2    0.36    0.48
  26  -8   2    0.05    0.45
  -2 -26  -8    0.57    0.55
  26   8  -2    0.65    0.50
   2 -26   8    1.28    0.60
   2 -26  -8    0.58    0.58
  26  -8  -2   -0.47    0.43
  26   8   2    0.57    0.48
  26 -10   2    8.30    0.69
  26  10  -2    7.95    0.78
  26  10  -2    8.57    0.72
   2 -26  10    7.18    0.82
  -2 -26 -10    7.57    0.79
  26  10   2    7.61    0.81
  26 -10  -2    7.75    0.66
   2 -26 -10    8.47    0.81
  26  12  -2    0.01    0.62
  26 -12   2    0.04    0.45
  26  12  -2    0.33    0.52
   2 -26 -12   -0.82    0.53
  26 -12  -2   -0.50    0.45
  26  12   2    0.16    0.63
  26  14  -2    0.69    0.55
  26 -14   2    0.85    0.50
  26  14  -2   -0.38    0.65
  26  14   2    0.91    0.71
   2  26  14   -0.25    0.68
  26 -14  -2    0.17    0.45
   2 -26 -14    0.96    0.63
  26 -16   2    3.72    0.57
  26  16  -2    2.20    0.73
  26 -16  -2    2.71    0.54
  26  16   2    2.56    0.77
  26  18  -2    3.47    0.75
  26 -18   2    2.96    0.56
  26  18   2    1.56    0.76
  26 -18  -2    2.35    0.53
  26  20  -2    2.49    0.74
  26 -20   2    2.81    0.56
  26 -20  -2    3.66    0.56
  26  20   2    2.01    0.78
  26  22  -2    8.02    0.90
  26 -22   2    8.07    0.67
  22   2 -26    8.20    1.06
  26 -22  -2    7.02    0.63
  26  22   2    7.48    0.93
  26  24  -2    4.13    0.79
  24   2 -26    3.03    0.63
  26 -24   2    3.57    0.54
  26 -24  -2    4.51    0.55
  26  24   2    4.11    0.83
  -4 -26   0    0.21    0.56
   4 -26   0   -0.30    0.52
  26   0   4    0.22    0.43
  26   0  -4   -0.13    0.43
  26   2  -4    7.37    0.66
  -4 -26  -2   10.25    0.85
  26  -2   4    8.11    0.65
   4 -26   2    8.44    0.80
  26   2   4   10.40    0.71
  26  -2  -4   10.20    0.70
   4 -26  -2    9.35    0.82
  -4 -26   2    9.70    0.88
  26  -4   4   27.70    1.21
   4 -26   4   29.37    1.41
  26   4  -4   27.71    1.25
  -4 -26  -4   27.11    1.34
  26  -4  -4   30.38    1.30
  -4 -26   4   26.57    1.41
   4 -26  -4   29.22    1.43
  26   4   4   28.67    1.21
  26  -6   4   13.32    0.91
   4 -26   6   15.22    1.01
  26   6  -4   10.43    0.78
  -4 -26  -6   11.86    0.91
  26   6   4   12.22    0.79
  26  -6  -4   12.81    0.91
  -4 -26   6   12.96    1.01
   4 -26  -6   12.94    0.95
  26  -8   4   13.46    0.92
  -4 -26  -8   13.66    0.95
  26   8  -4   13.36    0.97
   4 -26   8   13.78    1.01
   4 -26  -8   14.42    0.98
  26  -8  -4   15.71    0.99
  26  10  -4    1.88    0.54
  26  10  -4    1.57    0.62
  26 -10   4    1.40    0.48
   4 -26  10    1.09    0.59
  26  10   4    1.65    0.66
   4 -26 -10    2.53    0.62
  26 -10  -4    1.25    0.49
  26  12  -4    2.86    0.71
  26 -12   4    1.51    0.50
  26  12  -4    2.43    0.59
   4 -26 -12    1.59    0.62
  26  12   4    1.64    0.70
  26 -12  -4    2.12    0.53
  26  14  -4   27.90    1.52
  26 -14   4   32.26    1.35
  26  14  -4   31.71    1.39
   4  26  14   29.91    1.70
   4 -26 -14   28.86    1.50
  26  14   4   30.74    1.64
  26 -14  -4   31.59    1.33
  26  16  -4    9.74    0.90
  26  16  -4    8.61    0.76
  26 -16   4    6.97    0.67
  26  16   4    7.22    0.92
  26 -16  -4    7.21    0.68
  26 -18   4   33.13    1.39
  26  18  -4   30.37    1.62
  26  18   4   34.46    1.74
  26 -18  -4   31.65    1.37
  26 -20   4    1.71    0.52
  26  20  -4    1.37    0.69
  26  20   4    1.89    0.78
  26 -20  -4    1.95    0.51
  26  22  -4    0.99    0.71
  26 -22   4    0.22    0.48
  22   4 -26    1.63    0.65
  26  22   4    1.31    0.79
  26 -22  -4    0.00    0.47
  26  24  -4    7.08    0.85
  24   4 -26    7.31    0.73
  26 -24   4    6.42    0.61
   4 -26  24    7.18    0.37
  26  24   4    7.24    0.93
  26 -24  -4    6.83    0.63
  26   0   6   21.43    1.08
   6 -26   0   21.01    1.22
  26   0  -6   21.25    1.09
  -6 -26   0   22.06    1.28
   6 -26   2    1.02    0.56
  26  -2   6    0.20    0.46
  -6 -26  -2    0.01    0.54
  26   2  -6   -0.01    0.47
  -6 -26   2   -0.18    0.55
  26   2   6   -0.02    0.45
  26  -2  -6   -0.26    0.43
   6 -26  -2   -0.49    0.54
  -6 -26  -4   12.37    0.94
  26   4  -6   10.25    0.77
   6 -26   4   12.99    0.96
  26  -4   6   12.69    0.80
  26  -4  -6   12.05    0.78
   6 -26  -4   11.09    0.91
  26   4   6   12.00    0.88
   6 -26   6    0.25    0.55
  26  -6   6   -0.10    0.45
  -6 -26  -6    0.26    0.52
  26   6  -6    0.35    0.50
   6 -26  -6   -0.77    0.51
  26  -6  -6   -0.36    0.45
  26  -8   6    6.19    0.60
  26   8  -6    6.60    0.68
   6 -26   8    5.34    0.73
   6 -26  -8    5.67    0.75
  26  -8  -6    5.39    0.61
  26 -10   6    1.45    0.50
  26  10  -6    2.14    0.57
   6 -26  10    0.65    0.58
  26  10   6    1.87    0.69
   6 -26 -10    1.65    0.62
  26 -10  -6    1.52    0.49
  26 -12   6    0.32    0.47
  26  12  -6    1.49    0.60
   6 -26  12    0.83    0.62
  26 -12  -6   -0.26    0.48
  26  12   6    1.05    0.71
   6  26  12    0.35    0.71
   6 -26 -12    0.54    0.57
  26 -14   6    1.65    0.53
  26  14  -6    1.72    0.62
   6  26  14    1.36    1.35
  26 -14  -6    1.18    0.51
  26  14   6    2.40    0.78
  26 -16   6   22.12    1.17
  26  16  -6   21.00    1.26
  26  16   6   23.86    1.50
  26 -16  -6   22.17    1.12
  26 -18   6    0.72    0.52
  26  18  -6    0.55    0.62
  26  18   6    1.77    0.81
  26 -18  -6    0.79    0.49
  26  20  -6   32.22    1.91
  26 -20   6   34.96    1.42
  26 -20  -6   36.36    1.42
  26  20   6   36.73    1.84
  26 -22   6    2.79    0.55
  26 -22  -6    2.47    0.72
  26  22   6    4.16    0.86
  26 -24   6   29.87    1.25
  24   6 -26   28.55    1.32
  26  24   6   28.84    1.69
   8 -26   0   -0.10    0.52
  26   0  -8   -0.15    0.47
  26   0   8   -0.57    0.47
  26   2  -8    0.40    0.48
  -8 -26  -2    1.33    0.58
   8 -26   2    1.38    0.57
  26  -2   8    0.19    0.45
   8 -26  -2    0.88    0.56
  26  -2  -8    0.22    0.46
  26   2   8    0.65    0.49
  26  -4   8   15.47    0.92
  26   4  -8   15.63    1.01
  -8 -26  -4   16.47    1.13
   8 -26   4   13.81    0.85
   8 -26   4   15.28    1.06
   8 -26  -4   16.57    1.11
  26  -4  -8   15.23    0.96
  26   6  -8    6.54    0.68
  26  -6   8    4.54    0.57
   8 -26   6    6.25    0.54
   8 -26   6    5.50    0.73
   8 -26  -6    4.96    0.72
  26  -6  -8    5.34    0.62
   8 -26   8   14.55    1.00
  26   8  -8   13.21    0.90
   8 -26   8   13.53    0.85
  26  -8   8   13.04    0.94
   8 -26  -8   12.18    0.95
  26  -8  -8   13.70    0.98
  26  10  -8   13.63    0.92
   8 -26  10   12.99    0.99
  26 -10   8   12.37    0.81
   8 -26 -10   14.52    1.04
  26 -10  -8   12.60    0.81
   8 -26  12    1.92    0.65
  26 -12   8    1.94    0.52
  12  -8  26    2.30    0.19
   8 -26 -12    2.52    0.68
  26  12   8    2.71    0.79
  26 -12  -8    1.97    0.54
   8  26  12    1.02    0.79
  26 -14   8   12.16    0.81
  14  -8  26   12.49    0.47
  26  14   8   13.33    1.11
  26 -14  -8   11.25    0.78
  26 -16   8    8.39    0.73
  16  -8  26   10.26    0.44
  26 -16  -8    9.90    0.72
  26  16   8   10.09    1.05
  26 -18   8    2.58    0.56
  18  -8  26    3.26    0.26
  26 -18  -8    2.61    0.54
  26  18   8    3.95    0.90
  26 -20   8    0.96    0.51
  26  20   8    0.20    0.78
  26 -22   8    0.06    0.47
  26  22  -8    0.79    0.66
  26  22   8   -0.96    0.78
  24   8 -26   10.28    0.84
  26 -24   8    8.81    0.68
  26  24   8   10.67    1.03
  26   0  10   13.51    0.92
  26   0 -10   14.84    1.03
  10 -26   0   14.86    1.09
   2 -10  26    7.54    0.32
  26   2 -10    6.70    0.68
  10 -26   2    6.66    0.75
  26  -2  10    6.20    0.61
  10 -26  -2    8.11    0.81
  26  -2 -10    6.66    0.65
   4 -10  26    1.49    0.15
  10 -26   4    1.36    0.58
  26   4 -10    0.86    0.52
  10 -26   4    1.99    0.41
  26  -4  10    1.56    0.49
  26  -4 -10    0.73    0.48
  10 -26  -4    2.02    0.60
  10 -26   6    1.04    0.58
  10 -26   6    1.24    0.43
  26  -6  10    1.37    0.46
  26   6 -10    2.12    0.57
  26  -6 -10    1.10    0.51
  10 -26  -6    1.28    0.59
  10 -26   8   14.71    0.90
  26  -8  10   12.90    0.88
  26   8 -10   15.55    1.07
  10 -26   8   13.05    0.98
  10 -26  -8   13.67    1.01
  26  -8 -10   14.03    1.00
  26 -10  10   24.70    1.14
  10 -26  10   26.15    1.14
  10 -26  10   23.18    1.40
  26 -10 -10   25.40    1.22
  10 -26 -10   24.08    1.43
  26 -12  10   26.53    1.21
  10 -26  12   26.36    1.18
  26  12  10   27.65    1.63
  26 -12 -10   26.76    1.25
  26 -14  10    2.62    0.56
  14 -10  26    2.56    0.18
  26  14  10    2.33    0.81
  26 -14 -10    1.53    0.53
  16 -10  26   -0.14    0.17
  26 -16  10   -0.22    0.48
  10  26  16    0.53    0.79
  26  16  10    0.68    0.79
  26 -16 -10   -0.29    0.47
  26 -18  10    7.12    0.68
  18 -10  26    8.24    0.42
  26  18  10    8.49    1.01
  26 -20  10   21.94    1.11
  20 -10  26   19.41    0.69
  26  20  10   20.61    1.34
  26 -22  10   18.39    1.06
  26  22  10   21.55    1.57
  26 -24  10   13.77    0.91
  26  24  10   13.59    1.10
   0 -12  26   -0.06    0.21
  26   0 -12   -0.19    0.51
  12 -26   0   -0.26    0.53
   2 -12  26    0.11    0.13
  12 -26   2    0.19    0.45
  26  -2  12    0.16    0.43
  12 -26   2    0.20    0.53
  26   2 -12    0.66    0.54
  12 -26  -2   -0.56    0.51
  26  -2 -12    0.22    0.48
  12 -26   4    2.49    0.64
  26  -4  12    2.12    0.48
  26   4 -12    1.74    0.56
  12 -26   4    1.64    0.44
  12 -26  -4    1.63    0.59
  26  -4 -12    1.31    0.51
  26   6 -12    0.98    0.59
  12 -26   6   -0.55    0.56
  12 -26   6    0.20    0.41
  26  -6  12    0.74    0.45
  26  -6 -12    0.59    0.48
  12 -26  -6    0.75    0.58
  26   8 -12    1.90    0.65
  12 -26   8    1.27    0.45
  26  -8  12    1.27    0.48
  12 -26   8    1.24    0.60
  12 -26  -8    2.02    0.65
  26  -8 -12    1.96    0.54
  26 -10  12   28.00    1.23
  12 -26  10   25.45    1.19
  26 -10 -12   28.54    1.27
  26 -12  12    0.15    0.48
  12 -26  12    0.65    0.45
  26 -12 -12    1.02    0.52
  26 -14  12   46.46    1.74
  12 -26  14   49.21    1.73
  26  14  12   48.68    2.12
  26 -14 -12   48.61    1.75
  12  26  14   51.18    2.15
  26 -16  12    0.01    0.54
  16 -12  26    0.38    0.16
  26  16  12    1.40    0.82
  12  26  16   -0.49    0.77
  26 -18  12   24.74    1.23
  18 -12  26   26.74    0.80
  26  18  12   26.09    1.69
  26 -20  12    0.41    0.48
  20 -12  26    0.49    0.20
  26  20  12   -0.68    0.78
  26 -22  12    0.64    0.48
  22 -12  26    1.05    0.22
  26  22  12    1.26    0.81
  26 -24  12    0.47    0.44
  26  24  12    0.51    0.75
  26   0 -14  122.40    3.60
  14 -26   0  115.85    3.71
   0 -14  26  119.41    3.22
   2 -14  26    0.90    0.15
  14 -26   2    0.48    0.42
  26   2 -14    0.63    0.55
  14 -26   2    0.41    0.55
  26  -2 -14    0.83    0.52
  14 -26  -2    0.64    0.58
  14 -26   4   26.98    1.41
  26  -4  14   30.25    1.24
  26   4 -14   30.93    1.35
  14 -26   4   29.95    1.20
  26  -4 -14   30.96    1.34
  14 -26  -4   26.30    1.42
  26   6 -14    1.46    0.64
  26  -6  14    2.37    0.50
  14 -26   6    1.00    0.64
  14 -26   6    1.48    0.46
  26  -6 -14    1.03    0.52
  14 -26   8   11.87    0.87
  26  -8  14   12.69    0.92
  26  -8 -14   12.53    0.83
  14 -26  10    2.26    0.49
  26 -10  14    2.34    0.52
  26 -10 -14    2.08    0.55
  26 -12  14   48.64    1.74
  14 -26  12   50.55    1.75
  14  26  12   48.21    2.17
  26 -12 -14   47.67    1.75
  26 -14  14   -0.16    0.47
  14 -26  14   -0.04    0.47
  14  26  14   -0.55    0.79
  26 -16  14    6.54    0.65
  14  26  16    8.95    1.04
  26 -18  14    0.28    0.49
  18 -14  26    0.81    0.17
  14  26  18    1.48    0.91
  20 -14  26    2.96    0.23
  26 -20  14    4.12    0.57
  26  20  14    4.85    0.89
  22 -14  26    2.50    0.23
  26 -22  14    2.29    0.50
  26  22  14    1.51    0.82
  26 -24  14    1.27    0.44
  26  24  14    0.08    0.70
   0 -16  26    0.31    0.17
  26   0 -16    0.16    0.56
  26   2 -16    3.10    0.65
   2 -16  26    3.45    0.20
  16 -26   2    4.42    0.53
  26  -2 -16    3.96    0.63
  16 -26   4    7.26    0.62
  26   4 -16    7.36    0.77
  26  -4 -16    8.39    0.72
  26   6 -16   23.99    1.29
  16 -26   6   21.48    1.07
  26  -6  16   22.31    1.09
  26  -6 -16   23.21    1.18
  26  -8  16    9.36    0.69
  16 -26   8    8.53    0.67
  26  -8 -16    9.60    0.75
  16  26   8    8.20    1.00
  26 -10  16    0.13    0.45
  16 -26  10   -0.33    0.43
  26 -10 -16    0.00    0.51
  16  26  10   -0.13    0.78
  16 -26  12    0.57    0.48
  26 -12  16    0.45    0.48
  16  26  12   -0.21    0.79
  26 -14  16    6.74    0.64
  16 -26  14    7.76    0.67
  16  26  14    8.27    1.01
  26 -16  16    3.99    0.57
  16 -26  16    3.55    0.56
  16  26  16    1.99    0.85
  26 -18  16    8.73    0.68
  18 -16  26    8.87    0.36
  16  26  18    7.12    0.93
  26 -20  16    0.36    0.46
  20 -16  26    1.12    0.18
  26 -22  16    0.58    0.44
  22 -16  26   -0.34    0.18
  24 -16  26    1.87    0.21
  26 -24  16    2.73    0.47
   0 -18  26  105.06    2.92
  18 -26   0  109.43    3.18
  26   0 -18  105.59    3.29
  18  26   0  110.99    3.53
  18 -26   2    3.02    0.50
   2 -18  26    2.43    0.19
  26   2 -18    2.45    0.61
  18  26   2    2.68    0.83
  26  -2 -18    2.49    0.60
  18 -26   4   33.71    1.34
  26   4 -18   34.88    1.53
  18  26   4   33.84    1.83
  26  -4 -18   34.75    1.44
  18  26  -6    0.37    0.74
  18 -26   6    1.55    0.46
  26   6 -18    0.14    0.64
  18  26   6   -1.30    0.78
  26  -6 -18    0.56    0.55
  18 -26   8    3.35    0.52
  18  26  -8    3.62    0.79
  26  -8  18    4.33    0.56
  18  26   8    1.96    0.84
  26  -8 -18    2.62    0.57
  26 -10  18    8.19    0.67
  18 -26  10    7.67    0.65
  18  26  10    7.74    1.00
  18 -26  12   25.65    1.18
  26 -12  18   26.63    1.20
  18  26  12   24.32    1.71
  26 -14  18    1.20    0.49
  18 -26  14    1.12    0.50
  18  26  14    0.69    0.84
  26 -16  18    7.57    0.66
  26 -16  18    7.94    0.48
  18 -26  16    8.42    0.67
  18  26  16    8.57    0.99
  26 -18  18    3.87    0.55
  26 -18  18    3.51    0.28
  18  26  18    3.95    0.83
  26 -20  18    0.31    0.42
  26 -20  18    0.50    0.22
  20 -18  26   -0.11    0.16
  26 -22  18    6.56    0.41
  22 -18  26    6.72    0.35
  26 -22  18    6.61    0.57
  20  26   0   -0.22    0.74
  26   0 -20   -0.21    0.57
  20 -26   0   -0.04    0.43
   2 -20  26    2.64    0.20
  20 -26   2    3.66    0.52
  20  26  -2    2.16    0.80
  26   2 -20    2.18    0.65
  26  -2 -20    3.22    0.62
  20  26   2    2.09    0.83
  20  26  -4    2.34    0.76
  20 -26   4    1.32    0.46
  26   4 -20    1.55    0.63
   4 -20  26    1.33    0.16
  26  -4 -20    2.75    0.59
  20  26   4    1.35    0.82
  26   6 -20   38.72    1.62
  20  26  -6   36.31    1.77
  20 -26   6   36.22    1.40
  20  26   6   35.70    1.88
  26  -6 -20   34.52    1.58
  20 -26   8    0.95    0.45
  20  26  -8   -0.05    0.69
  26   8 -20    0.47    0.67
  20  26   8    0.56    0.79
  26 -10  20   18.42    1.00
  20 -26  10   19.18    1.06
  20  26  10   21.26    1.37
  26 -12  20    0.99    0.46
  20 -26  12    0.42    0.46
  20  26  12    0.31    0.80
  26 -14  20    2.10    0.49
  26 -14  20    2.55    0.27
  20 -26  14    2.20    0.52
  20  26  14    3.11    0.87
  20 -26  16    0.16    0.46
  26 -16  20   -0.53    0.41
  26 -16  20    1.26    0.24
  20  26  16    0.85    0.77
  26 -18  20    0.29    0.42
  26 -18  20    0.30    0.23
  20  26  18    0.39    0.73
  26 -20  20    0.47    0.21
  26 -20  20   -0.22    0.40
  20 -20  26   -0.01    0.14
  22  26   0    4.88    0.89
  22 -26   0    2.73    0.50
  26   0 -22    5.00    0.66
   2 -22  26    7.11    0.36
  22  26  -2    6.92    0.93
  26   2 -22    7.42    0.76
  22 -26   2    6.71    0.61
  26  -2 -22    7.62    0.72
  22  26   2    8.39    0.98
  22  26  -4    1.45    0.79
   4 -22  26    1.08    0.16
  26   4 -22   -0.62    0.57
  22 -26   4    1.14    0.46
  22  26   4    0.36    0.81
  26   6 -22    2.33    0.65
  22 -26   6    2.74    0.51
  22  26  -6    2.75    0.80
  22  26   6    1.73    0.83
  22 -26   8    0.08    0.44
  26   8 -22   -0.20    0.62
  22  26   8   -0.37    0.77
  26  10 -22   17.76    1.25
  22 -26  10   18.79    1.03
  22  26  10   21.70    1.57
  22 -26  12    1.27    0.46
  22  26  12    0.95    0.78
  26 -14  22    2.57    0.47
  22 -26  14    3.19    0.52
  26 -14  22    2.31    0.27
  22  26  14    2.61    0.82
  26 -16  22    0.25    0.22
  26 -16  22   -0.36    0.40
  22 -26  16    0.06    0.42
  22  26  16    0.32    0.73
  26 -18  22    6.69    0.41
  26 -18  22    7.98    0.56
  22  26  18    5.70    0.80
  26   0 -24    0.66    0.54
  24  26   0    0.13    0.74
  24 -26   0   -0.26    0.42
  26   2 -24    5.27    0.66
  24  26  -2    4.76    0.86
  24 -26   2    3.45    0.53
   2 -24  26    4.52    0.28
  24  26   2    3.84    0.87
  24 -26   4    7.35    0.61
   4 -24  26    6.85    0.36
  24  26  -4    7.95    0.91
  26   4 -24    7.05    0.74
  24  26   4    7.35    0.94
   6 -24  26   28.88    0.85
  24  26  -6   27.88    1.61
  26   6 -24   29.14    1.37
  24 -26   6   29.48    1.24
  24  26   6   31.35    1.72
  24 -26   8    8.20    0.64
  26   8 -24    7.16    0.75
  24  26   8    7.58    0.93
  24 -26  10   12.99    0.90
  26  10 -24   15.12    1.08
  24  26  10   12.26    1.05
  26  12 -24   -0.16    0.60
  24 -26  12   -0.10    0.42
  24  26  12    0.33    0.75
  24 -26  14   -0.67    0.41
  26  14 -24   -0.55    0.59
  26 -14  24    0.20    0.21
  24  26  14   -0.73    0.69
  26  16 -24    2.24    0.61
  26 -16  24    1.99    0.23
  24 -26  16    1.86    0.44
  24 -26  16    2.59    0.23
  24  26  16    1.34    0.69
  26 -26   0   67.65    2.11
  26  26   0   67.47    2.41
  26  26  -2    0.66    0.70
  26 -26   2    1.20    0.44
  26   2 -26    0.68    0.52
  26 -26  -2    0.60    0.55
  26  26   2    1.47    0.74
   4 -26  26   15.80    0.56
  26 -26   4   16.78    0.94
  26   4 -26   15.39    1.01
  26  26  -4   17.29    1.27
  26  26   4   18.18    1.16
   6 -26  26    0.39    0.16
  26 -26   6    0.90    0.45
  26   6 -26   -0.54    0.52
  26  26   6   -0.31    0.73
   8 -26  26    1.79    0.16
  26 -26   8    1.88    0.46
  26   8 -26    1.28    0.54
  26  26   8    0.34    0.74
  26 -26  10    2.60    0.47
  26  10 -26    1.68    0.56
  26  26  10    1.90    0.76
  26 -26  12   19.92    0.96
  26  12 -26   23.08    1.10
  26  26  12   19.52    1.37
  -1 -27  -1   25.10    1.38
  27  -1   1   26.66    1.19
  27   1  -1   25.54    1.18
   1 -27   1   26.29    1.36
  27  -1  -1   26.17    1.24
  -1 -27   1   25.16    1.38
   1 -27  -1   24.74    1.38
  27   1   1   24.64    1.23
  27  -3   1    0.41    0.48
  -1 -27  -3    0.97    0.57
   1 -27   3    0.83    0.58
  27   3  -1   -0.07    0.46
  -1 -27   3    0.18    0.58
  27  -3  -1    0.26    0.46
  27   3   1   -0.30    0.47
   1 -27  -3   -0.31    0.52
  27   5  -1   24.40    1.15
   1 -27   5   21.87    1.33
  -1 -27  -5   21.92    1.26
  27  -5   1   24.55    1.16
  27  -5  -1   22.80    1.17
  27   5   1   23.96    1.17
   1 -27  -5   24.50    1.29
  -1 -27   5   22.95    1.33
  27   7  -1    3.65    0.59
   1 -27   7    3.82    0.72
  27  -7   1    3.65    0.56
  -1 -27  -7    4.36    0.69
  27  -7  -1    4.52    0.58
  -1 -27   7    4.17    0.76
  27   7   1    3.90    0.57
   1 -27  -7    3.36    0.66
  27  -9   1    6.16    0.66
   1 -27   9    6.38    0.83
  27   9  -1    6.35    0.66
  -1 -27  -9    4.49    0.72
  27   9   1    5.71    0.62
  27  -9  -1    4.72    0.61
   1 -27  -9    4.84    0.71
  -1 -27 -11    1.41    0.60
  27  11  -1   -0.02    0.63
  27 -11   1    0.45    0.49
  27  11  -1    0.23    0.52
   1 -27 -11    0.38    0.59
  27 -11  -1    0.97    0.51
  27  11   1    0.38    0.62
  27  11   1    1.15    0.66
  27  13  -1   51.58    1.89
  27 -13   1   54.69    1.85
  27  13  -1   57.33    2.08
  27 -13  -1   53.53    1.88
   1  27  13   49.48    2.16
  27  13   1   49.94    2.02
   1 -27 -13   51.62    2.33
  27  15  -1   28.10    1.55
  27 -15   1   30.55    1.33
  27  15   1   28.25    1.58
  27 -15  -1   28.93    1.29
  27  17  -1   42.11    1.90
  27 -17   1   42.44    1.63
  27  17   1   44.62    1.94
  27 -17  -1   43.42    1.65
  27 -19   1   22.52    1.16
  27  19  -1   22.63    1.50
  27  19   1   22.57    1.53
  27 -19  -1   22.70    1.14
  27  21  -1    0.48    0.75
  27 -21   1    0.23    0.47
  27  21   1   -0.34    0.75
  27 -21  -1    0.86    0.49
  27  23  -1    1.90    0.79
  27 -23   1    3.05    0.52
  27 -23  -1    2.65    0.51
  27  23   1    2.04    0.79
  27  25  -1   15.70    1.11
  27 -25   1   18.59    0.94
  27 -25  -1   16.23    0.95
  27  25   1   17.94    1.17
  27   1  -3    0.33    0.45
  27  -1   3   -0.26    0.46
   3 -27   1    0.41    0.55
  -3 -27  -1    0.21    0.53
  -3 -27   1    0.78    0.61
  27  -1  -3    0.38    0.46
   3 -27  -1    0.91    0.57
  27   1   3    0.38    0.46
  27  -3   3    5.32    0.58
  -3 -27  -3    5.85    0.72
  27   3  -3    4.80    0.61
   3 -27   3    4.00    0.71
  -3 -27   3    4.93    0.72
  27   3   3    5.00    0.60
   3 -27  -3    5.45    0.73
  27  -3  -3    5.30    0.62
   3 -27   5    0.87    0.56
  27   5  -3   -0.18    0.48
  27  -5   3   -0.53    0.44
  -3 -27  -5    0.63    0.54
  27  -5  -3    0.58    0.49
   3 -27  -5    0.12    0.56
  -3 -27   5   -0.03    0.58
  27   5   3    0.28    0.51
  27   7  -3    5.14    0.64
   3 -27   7    7.10    0.83
  -3 -27  -7    6.11    0.75
  27  -7   3    6.76    0.67
  27   7   3    6.05    0.66
   3 -27  -7    6.09    0.77
  27  -7  -3    6.59    0.66
  27  -9   3    3.32    0.57
  27   9  -3    2.96    0.58
   3 -27   9    2.93    0.67
  -3 -27  -9    3.95    0.68
   3 -27  -9    1.61    0.64
  27  -9  -3    2.50    0.55
  27  11  -3    0.04    0.54
  27 -11   3    0.18    0.47
   3 -27 -11    0.13    0.59
  27  11   3   -0.24    0.64
  27 -11  -3    0.17    0.50
  27  13  -3   10.10    0.79
  27  13  -3    9.58    0.88
  27 -13   3    9.52    0.74
   3  27  13    7.29    1.02
  27 -13  -3    8.81    0.72
  27  13   3    8.15    0.89
   3 -27 -13    9.37    1.14
  27  15  -3   12.43    0.89
  27  15  -3   15.77    1.09
  27 -15   3   18.10    1.06
  27 -15  -3   14.84    1.02
  27  15   3   13.56    1.09
  27  17  -3    3.54    0.78
  27 -17   3    3.16    0.60
  27  17   3    3.93    0.84
  27 -17  -3    3.78    0.58
  27  19  -3   15.08    1.10
  27 -19   3   16.47    1.04
  27  19   3   14.10    1.14
  27 -19  -3   16.36    1.00
  27  21  -3    2.46    0.78
  27 -21   3    3.87    0.57
  27  21   3    3.46    0.86
  27 -21  -3    3.28    0.56
  27  23  -3    0.49    0.72
  27 -23   3    1.97    0.51
  27 -23  -3    1.34    0.48
  27  23   3    1.48    0.78
  27 -25   3    9.75    0.67
  27  25  -3    9.19    0.93
  25   3 -27   11.19    0.81
  27 -25  -3   10.77    0.70
  27  25   3   11.05    1.01
  27   1  -5   22.70    1.15
  27  -1   5   24.31    1.15
   5 -27   1   24.44    1.32
  -5 -27  -1   20.72    1.33
  27   1   5   24.10    1.11
  27  -1  -5   23.69    1.14
  -5 -27   1   22.92    1.32
   5 -27  -1   23.30    1.30
   5 -27   3    0.27    0.57
  27  -3   5    0.52    0.46
  27   3  -5    1.02    0.51
  -5 -27  -3    0.13    0.57
  -5 -27   3   -0.42    0.58
  27   3   5    0.54    0.47
  27  -3  -5   -0.08    0.46
   5 -27  -3   -0.30    0.53
  27  -5   5   31.44    1.29
  27   5  -5   31.65    1.37
   5 -27   5   29.71    1.47
  -5 -27  -5   28.98    1.47
  27  -5  -5   29.70    1.31
   5 -27  -5   28.04    1.44
  27   5   5   30.66    1.29
  -5 -27  -7    5.91    0.72
   5 -27   7    4.96    0.73
  27   7  -5    5.04    0.63
  27  -7   5    6.34    0.63
  27  -7  -5    5.02    0.61
   5 -27  -7    5.06    0.74
  27   9  -5    1.91    0.57
  27  -9   5    0.59    0.47
   5 -27   9    0.22    0.57
   5 -27  -9    1.62    0.64
  27  -9  -5    1.04    0.49
  27  11  -5   -0.20    0.53
  27 -11   5    0.03    0.48
   5 -27  11    0.57    0.62
   5 -27 -11    0.34    0.59
  27  11   5    1.28    0.69
  27 -11  -5    0.73    0.50
  27  13  -5   13.50    1.00
  27  13  -5   15.12    1.08
  27 -13   5   13.58    0.96
  27 -13  -5   15.32    0.96
  27  13   5   12.78    1.05
  27  15  -5    3.75    0.74
  27 -15   5    4.75    0.63
  27  15  -5    3.52    0.64
  27  15   5    4.36    0.84
  27 -15  -5    3.81    0.57
  27  17  -5   36.30    1.58
  27  17  -5   37.19    1.76
  27 -17   5   41.26    1.56
  27  17   5   41.55    1.92
  27 -17  -5   40.58    1.54
  27 -19   5    0.14    0.50
  27  19  -5   -0.23    0.70
  27  19   5    0.11    0.79
  27 -19  -5    0.52    0.48
  27  21  -5    4.24    0.82
  27 -21   5    7.41    0.66
  27  21   5    6.10    0.93
  27 -21  -5    5.77    0.61
  27 -23   5   15.81    0.96
  27  23  -5   13.92    1.07
  23   5 -27   15.25    1.02
  27 -23  -5   16.00    0.93
  27  23   5   15.20    1.14
  27 -25   5    1.38    0.46
   5 -27  25    0.39    0.18
  25   5 -27   -0.14    0.53
  27  25  -5    0.86    0.74
  27  25   5    1.54    0.78
  -7 -27  -1    4.05    0.70
   7 -27   1    5.13    0.74
  27   1  -7    4.28    0.60
  27  -1   7    4.43    0.58
   7 -27  -1    3.80    0.68
  27  -1  -7    4.05    0.58
  27   1   7    4.75    0.59
  -7 -27  -3    6.25    0.76
   7 -27   3    5.42    0.74
  27   3  -7    6.31    0.65
  27  -3   7    5.90    0.61
  27   3   7    5.82    0.62
  27  -3  -7    7.16    0.66
   7 -27  -3    6.24    0.76
  -7 -27  -5    4.91    0.72
   7 -27   5    5.59    0.75
  27  -5   7    6.60    0.63
  27   5  -7    4.87    0.65
  27  -5  -7    3.86    0.61
   7 -27  -5    4.67    0.73
  27  -7   7    3.56    0.55
   7 -27   7    4.24    0.70
  27   7  -7    2.78    0.60
  27  -7  -7    3.15    0.56
   7 -27  -7    3.69    0.68
   7 -27   9   -0.08    0.57
  27   9  -7    0.68    0.54
  27  -9   7    0.07    0.47
   7 -27  -9    0.40    0.57
  27  -9  -7    0.79    0.50
  27  11  -7    2.60    0.61
  27 -11   7    2.07    0.53
   7 -27  11    2.93    0.69
   7 -27 -11    1.63    0.82
  27 -11  -7    1.97    0.55
  27 -13   7   16.57    1.08
  27  13  -7   15.84    1.14
  27  13   7   17.66    1.20
  27 -13  -7   16.45    1.06
  27 -15   7    0.06    0.49
  27  15  -7   -0.70    0.55
  27 -15  -7   -0.37    0.47
  27  15   7    0.07    0.75
  27 -17   7   15.55    1.05
  27  17  -7   16.73    1.01
  27  17   7   16.43    1.20
  27 -17  -7   16.02    1.03
  27  19  -7    1.79    0.59
  27 -19   7    1.06    0.52
  27  19   7    1.76    0.83
  27 -19  -7    1.27    0.50
  27 -21   7    5.48    0.62
  27 -21  -7    4.76    0.63
  27  21   7    4.36    0.90
  23   7 -27    5.71    0.72
  27 -23   7    6.35    0.62
  27  23   7    6.51    0.94
  27 -25   7    0.50    0.44
  25   7 -27    0.49    0.53
   7 -27  25    0.07    0.16
  27  25   7   -0.31    0.72
  27   1  -9    5.77    0.64
  27  -1   9    5.78    0.60
   9 -27   1    4.82    0.70
   9 -27  -1    4.64    0.70
  27   1   9    4.76    0.58
  27  -1  -9    5.51    0.64
  27  -3   9    2.70    0.51
   9 -27   3    2.67    0.66
  27   3  -9    3.15    0.59
   9 -27  -3    2.78    0.68
  27  -3  -9    2.98    0.56
   9 -27   5    1.11    0.60
  27  -5   9    0.49    0.46
  27   5  -9    1.20    0.56
   9 -27   5    0.97    0.42
  27  -5  -9    0.74    0.50
   9 -27  -5    1.27    0.60
   9 -27   7    1.51    0.62
  27  -7   9    0.47    0.46
  27   7  -9    0.27    0.54
   9 -27   7    0.90    0.41
   9 -27  -7    0.01    0.58
  27  -7  -9    0.48    0.51
  27  -9   9   30.78    1.29
  27   9  -9   32.42    1.46
   9 -27   9   30.62    1.26
   9 -27   9   27.79    1.54
  27  -9  -9   33.37    1.37
   9 -27  -9   30.06    1.57
  27  11  -9    3.94    0.69
  27 -11   9    3.48    0.56
  27 -11  -9    3.53    0.58
  27  13  -9   22.08    1.30
  27 -13   9   22.96    1.18
  27 -13  -9   24.54    1.20
  27  13   9   24.74    1.60
  27 -15   9    2.49    0.57
  27  15  -9    2.54    0.69
  27 -15  -9    2.71    0.56
  27  15   9    3.56    0.87
  27 -17   9   -0.55    0.49
  27  17  -9   -1.45    0.59
  27  17   9   -0.10    0.78
  27 -17  -9   -0.07    0.49
  27  19  -9   13.91    0.96
  27 -19   9   16.30    1.03
  27  19   9   17.71    1.22
  27 -21   9   10.42    0.73
  27  21  -9    8.87    0.76
  27  21   9   10.39    1.03
  27 -23   9   12.97    0.92
  27  23   9   11.87    1.06
  27 -25   9    5.42    0.55
  25   9 -27    7.00    0.66
  27  25   9    5.41    0.88
  27   1 -11   -0.06    0.52
  11 -27   1    0.03    0.54
  27  -1  11    0.99    0.46
  27  -1 -11    1.21    0.51
  11 -27  -1    1.18    0.59
  27   3 -11    0.28    0.54
   3 -11  27    0.07    0.15
  11 -27   3    0.21    0.43
  27  -3  11   -0.12    0.44
  11 -27   3    0.58    0.56
  27  -3 -11    0.85    0.50
  11 -27  -3    0.15    0.57
  27  -5  11    0.06    0.44
  27   5 -11    0.69    0.55
   5 -11  27    0.82    0.14
  11 -27   5    0.12    0.42
  11 -27   5    0.52    0.59
  11 -27  -5    0.52    0.58
  27  -5 -11    0.84    0.50
  11 -27   7    1.22    0.63
  27   7 -11    1.08    0.60
  11 -27   7    1.34    0.44
  27  -7  11    1.90    0.49
  27  -7 -11    1.78    0.54
  11 -27  -7    3.01    0.95
  27  -9  11    2.94    0.54
  11 -27   9    3.27    0.50
  27   9 -11    3.65    0.69
  27  -9 -11    3.89    0.59
  27 -11  11   14.64    0.97
  27  11 -11   12.80    0.95
  11 -27  11   15.39    0.93
  27 -11 -11   15.30    1.03
  13 -11  27    6.68    0.32
  27 -13  11    6.06    0.65
  27 -13 -11    6.13    0.67
  15 -11  27   14.63    0.50
  27 -15  11   13.39    1.00
  27 -15 -11   13.87    0.85
  11  27  15   14.82    1.17
  27 -17  11    5.91    0.65
  17 -11  27    7.87    0.39
  11  27  17    7.50    1.16
  27  17  11    7.66    0.98
  27 -19  11    0.49    0.50
  27  19  11    1.16    0.81
  27 -21  11    0.75    0.48
  27  21 -11    1.45    0.63
  27  21  11   -0.93    0.75
  27  23 -11    2.41    0.59
  27 -23  11    3.12    0.52
  27  23  11    3.46    0.81
  25  11 -27    2.79    0.59
  27 -25  11    1.54    0.46
  27  25  11    1.76    0.74
   1 -13  27   52.96    1.44
  27   1 -13   51.83    1.86
  13 -27   1   45.77    2.05
  27  -1 -13   54.36    1.89
  13 -27  -1   47.71    2.29
  27  -3  13    9.30    0.69
   3 -13  27    9.24    0.37
  13 -27   3    9.28    0.65
  27   3 -13    9.05    0.79
  27  -3 -13    8.89    0.74
  13 -27   5   15.20    0.89
  27  -5  13   14.25    0.93
  27   5 -13   15.24    1.12
  27  -5 -13   13.76    1.03
  27   7 -13   15.47    1.11
  27  -7  13   15.80    0.98
  13 -27   7   16.64    0.94
  27  -7 -13   15.76    1.06
  13 -27   9   22.73    1.11
  27  -9  13   23.42    1.16
  27   9 -13   25.28    1.39
  27  -9 -13   24.47    1.21
  27  11 -13    7.15    0.83
  13 -27  11    5.09    0.59
  27 -11  13    6.99    0.64
  27 -11 -13    5.46    0.64
  13 -27  13   70.67    2.26
  27 -13  13   71.04    2.29
  27 -13 -13   70.10    2.30
  13  27  13   68.99    2.66
  27 -15  13    6.98    0.66
  15 -13  27    8.65    0.36
  13  27  15    8.47    1.02
  27 -17  13   22.71    1.16
  17 -13  27   23.98    0.73
  13  27  17   23.33    1.64
  27 -19  13   19.10    1.06
  19 -13  27   19.86    0.65
  27 -21  13    2.57    0.52
  27  23 -13    0.36    0.55
  27 -23  13   -0.07    0.43
  27 -25  13   12.00    0.77
  25  13 -27   11.31    0.79
  27  25 -13   11.82    0.82
   1 -15  27   27.32    0.84
  27   1 -15   29.59    1.38
  27  -1 -15   29.03    1.31
  27   3 -15   14.83    0.95
  15 -27   3   14.30    0.91
   3 -15  27   14.10    0.48
  27  -3 -15   14.97    1.05
  15 -27   5    4.02    0.54
  27  -5  15    3.99    0.56
  27   5 -15    4.14    0.68
  27  -5 -15    4.25    0.61
  27   7 -15    0.02    0.61
  27  -7  15    0.05    0.45
  15 -27   7   -0.59    0.41
  27  -7 -15   -0.30    0.52
  27  -9  15    3.21    0.54
  27   9 -15    5.18    0.76
  15 -27   9    3.02    0.51
  15  27   9    3.47    0.88
  27  -9 -15    3.50    0.60
  15 -27  11   12.67    0.94
  27 -11  15   14.48    0.96
  27 -11 -15   13.11    0.84
  15  27  11   15.39    1.19
  27 -13  15    6.38    0.64
  15 -27  13    7.64    0.66
  15  27  13    9.00    1.04
  27 -15  15    6.09    0.63
  15  27  15    7.53    1.00
  27 -17  15   -0.60    0.47
  17 -15  27    0.13    0.15
  15  27  17    0.52    0.79
  27 -19  15    0.74    0.48
  19 -15  27   -0.10    0.17
  21 -15  27    0.38    0.18
  27 -21  15    0.84    0.46
  27 -23  15    0.13    0.41
  27  23 -15    0.83    0.55
   1 -17  27   40.80    1.19
  27   1 -17   41.72    1.66
  17 -27   1   42.31    1.51
  27  -1 -17   41.54    1.66
  27   3 -17    2.51    0.64
  17 -27   3    3.79    0.50
   3 -17  27    3.04    0.21
  27  -3 -17    3.27    0.61
  17 -27   5   38.85    1.45
  27   5 -17   38.59    1.60
  17  27   5   38.23    1.89
  27  -5 -17   40.98    1.56
  27  -7  17   14.64    0.97
  27   7 -17   16.80    1.23
  17 -27   7   16.90    0.97
  17  27   7   18.50    1.28
  27  -7 -17   15.86    1.05
  27   9 -17    0.00    0.67
  27  -9  17   -0.22    0.46
  17 -27   9    0.28    0.45
  17  27   9    0.27    0.84
  27  -9 -17   -0.34    0.50
  27 -11  17    5.81    0.61
  17 -27  11    7.29    0.64
  17  27  11    5.79    0.95
  17 -27  13   24.72    1.14
  27 -13  17   21.53    1.13
  17  27  13   24.39    1.73
  17 -27  15   -0.41    0.45
  27 -15  17   -0.08    0.46
  17  27  15    1.11    0.81
  27 -17  17    8.76    0.67
  17  27  17    9.80    0.98
  27 -19  17    2.64    0.51
  19 -17  27    3.34    0.21
  27 -21  17    0.19    0.42
  21 -17  27   -0.33    0.16
  19 -27   1   22.91    1.06
  27   1 -19   22.59    1.23
   1 -19  27   20.75    0.70
  19  27  -1   22.07    1.58
  27  -1 -19   22.27    1.22
  19  27   1   23.23    1.62
  19 -27   3   15.34    0.90
   3 -19  27   14.63    0.50
  27   3 -19   15.07    0.96
  19  27  -3   13.50    1.08
  19  27   3   12.94    1.13
  27  -3 -19   13.92    1.02
  27   5 -19   -0.11    0.59
  19  27  -5   -0.07    0.72
  19 -27   5    0.22    0.42
  19  27   5    0.39    0.79
  27  -5 -19    0.33    0.53
  27   7 -19    2.23    0.67
  19 -27   7    2.45    0.49
  19  27  -7    0.90    0.72
  19  27   7    0.43    0.79
  27  -7 -19    0.95    0.54
  27  -9  19   15.40    1.09
  19 -27   9   17.31    0.98
  27   9 -19   15.70    1.03
  19  27   9   15.24    1.19
  27  11 -19    1.55    0.69
  27 -11  19    1.06    0.46
  19 -27  11    1.52    0.49
  19  27  11    1.45    0.86
  19 -27  13   18.10    1.02
  27 -13  19   18.95    1.01
  19  27  13   19.16    1.26
  27 -15  19    0.56    0.44
  19 -27  15   -0.20    0.43
  19  27  15    0.41    0.76
  27 -17  19    2.51    0.49
  19  27  17    3.88    0.82
  27 -19  19    1.83    0.45
  27  21 -19   -0.01    0.54
  27 -21  19    0.52    0.22
  27 -21  19    0.65    0.40
  27   1 -21    0.13    0.56
  21  27  -1   -0.29    0.74
  21 -27   1    0.24    0.43
  21  27   1    2.67    0.82
  27  -1 -21    0.08    0.55
  21 -27   3    3.84    0.52
  21  27  -3    3.36    0.81
   3 -21  27    3.08    0.21
  27   3 -21    2.76    0.65
  27  -3 -21    2.49    0.59
  21  27   3    1.78    0.83
  27   5 -21    6.56    0.73
   5 -21  27    6.25    0.30
  21 -27   5    5.56    0.57
  21  27  -5    4.87    0.86
  27  -5 -21    6.63    0.69
  21  27   5    6.94    0.95
  27   7 -21    6.49    0.74
  21 -27   7    5.18    0.58
  21  27  -7    5.49    0.84
  21  27   7    5.84    0.94
  27   9 -21   10.49    0.87
  21 -27   9    9.12    0.69
  21  27   9   11.60    1.06
  21 -27  11    1.00    0.46
  27  11 -21    0.10    0.66
  21  27  11    0.12    0.77
  21 -27  13    2.76    0.50
  27 -13  21    1.04    0.43
  27  13 -21    2.08    0.67
  21  27  13    1.43    0.80
  27  15 -21   -0.60    0.62
  21 -27  15    0.24    0.43
  27 -15  21   -0.02    0.40
  21  27  15    0.07    0.75
  27  17 -21    0.40    0.60
  27 -17  21   -0.31    0.21
  27 -17  21   -0.04    0.40
  21  27  17   -0.19    0.68
  27  19 -21    0.56    0.58
  27 -19  21    1.17    0.39
  27 -19  21    0.87    0.22
  23 -27   1    2.85    0.48
  23  27  -1    3.24    0.85
  27   1 -23    2.58    0.59
  23  27   1    2.29    0.85
  27  -1 -23    3.20    0.57
  27   3 -23    1.75    0.59
  23 -27   3    1.97    0.47
   3 -23  27    1.46    0.20
  23  27  -3    2.12    0.81
  23  27   3    2.09    0.82
   5 -23  27   14.36    0.49
  23  27  -5   13.87    1.09
  23 -27   5   13.49    0.88
  27   5 -23   14.19    0.92
  23  27   5   14.56    1.12
  23  27  -7    6.86    1.26
  23 -27   7    6.91    0.61
  27   7 -23    7.68    0.74
  23  27   7    6.20    0.91
  23 -27   9   12.49    0.85
  27   9 -23   12.31    0.87
  23  27   9   10.11    1.00
  27  11 -23    3.81    0.67
  23 -27  11    3.50    0.51
  23  27  11    2.89    0.79
  23 -27  13    0.75    0.44
  27  13 -23   -0.17    0.59
  23  27  13   -0.41    0.75
  23 -27  15    1.19    0.42
  27  15 -23    0.26    0.59
  27 -15  23   -0.31    0.55
  27 -15  23    0.48    0.24
  23  27  15    0.73    0.71
  25 -27   1   16.07    0.89
  25  27  -1   16.07    1.11
  27   1 -25   17.09    1.00
  25  27   1   17.77    1.38
  25 -27   3    9.89    0.65
  27   3 -25    8.94    0.73
   3 -25  27    9.22    0.43
  25  27  -3   10.59    0.93
  25  27   3   10.89    0.97
   5 -25  27    0.85    0.18
  25  27  -5    1.39    0.68
  27   5 -25    0.99    0.53
  25 -27   5    0.79    0.43
  25  27   5    0.18    0.72
   7 -25  27    0.39    0.14
  27   7 -25   -0.22    0.54
  25 -27   7    0.38    0.43
  25  27   7    1.17    0.73
  25 -27   9    5.80    0.55
  27   9 -25    7.17    0.68
  25  27   9    5.63    0.86
  25 -27  11    1.74    0.44
  27  11 -25    1.30    0.56
  25  27  11    1.85    0.76
  25 -27  13   12.38    0.78
  27  13 -25   13.17    0.93
  25  27  13   11.87    0.95
  27 -27   1   29.50    1.14
  27  27  -1   29.13    1.50
  27  27   1   27.78    1.56
  27 -27   3   -0.09    0.39
  27   3 -27    1.59    0.61
  27  27  -3   -0.24    0.66
  27  27   3    1.24    0.73
   5 -27  27   14.95    0.54
  27 -27   5   15.83    0.84
  27   5 -27   13.88    0.88
  27  27   5   15.19    1.06
   7 -27  27    9.34    0.38
  27 -27   7    8.85    0.61
  27   7 -27    8.99    0.67
  27  27   7    9.95    0.91
  27 -27   9    0.01    0.38
  27   9 -27   -0.49    0.47
  27  27   9   -0.68    0.64
   0 -28   0   54.81    2.13
  28   0   0   56.74    1.93
   0 -28  -2   -0.68    0.54
   0 -28   2   -0.03    0.57
  28  -2   0    0.12    0.46
  28   2   0   -0.49    0.49
   0 -28   4   26.51    1.46
  28  -4   0   26.42    1.22
  28   4   0   27.13    1.27
   0 -28  -4   27.02    1.39
  28  -6   0   -0.26    0.46
   0 -28   6   -0.27    0.59
   0 -28  -6   -0.19    0.57
  28   6   0   -0.51    0.47
  28  -8   0    5.25    0.63
  28   8   0    5.65    0.64
   0 -28  -8    6.91    0.79
   0 -28   8    6.50    0.84
   0 -28 -10    0.17    0.58
  28  10   0   -0.28    0.50
  28 -10   0    0.36    0.51
  28 -12   0   34.09    1.39
  28  12   0   31.50    1.42
  28  14   0   -1.27    0.66
  28 -14   0   -0.03    0.52
  28  16   0    2.99    0.78
  28 -16   0    2.14    0.56
  28  18   0    0.11    0.73
  28 -18   0    0.43    0.51
  28  20   0    7.09    0.92
  28 -20   0    6.80    0.67
  28 -22   0   -0.16    0.45
  28  22   0   -0.22    0.74
  28 -24   0    1.01    0.46
  28  24   0    1.28    0.75
  28  26   0   -0.29    0.66
  28 -26   0   -0.12    0.39
   2 -28   0    0.11    0.58
  -2 -28   0    1.52    0.62
  28   0  -2   -0.22    0.48
  28   0   2    0.15    0.48
  -2 -28  -2   -0.32    0.55
   2 -28   2   -0.04    0.56
  28  -2   2   -0.12    0.48
  28   2  -2    0.07    0.46
   2 -28  -2   -0.02    0.56
  -2 -28   2    0.14    0.58
  28  -2  -2    0.17    0.51
  28   2   2    0.62    0.48
  -2 -28  -4   33.26    1.53
   2 -28   4   35.44    1.61
  28   4  -2   31.93    1.37
  28  -4   2   33.98    1.40
  28  -4  -2   35.43    1.43
   2 -28  -4   29.68    1.55
  28   4   2   32.59    1.37
  -2 -28   4   32.67    1.62
  -2 -28  -6    0.04    0.55
   2 -28   6    0.95    0.62
  28   6  -2    0.11    0.49
  28  -6   2    0.58    0.50
   2 -28  -6   -0.14    0.53
  28   6   2   -0.26    0.51
  -2 -28   6    0.31    0.64
  28  -6  -2    0.79    0.50
  -2 -28  -8    2.68    0.66
   2 -28   8    3.00    0.70
  28  -8   2    3.51    0.58
  28   8  -2    2.89    0.57
  28  -8  -2    2.98    0.57
   2 -28  -8    2.99    0.66
  28   8   2    2.80    0.57
  28  10  -2    4.03    0.63
  28 -10   2    3.56    0.58
  -2 -28 -10    4.04    0.70
  28 -10  -2    3.50    0.60
   2 -28 -10    3.53    0.69
  28 -12   2   44.84    1.68
  28  12  -2   41.67    1.65
  28 -12  -2   44.66    1.67
  28 -14   2    4.75    0.63
  28  14  -2    5.42    0.65
  28  14  -2    4.62    0.79
  28  14   2    3.05    0.77
  28 -14  -2    4.36    0.61
  28  16  -2  111.69    3.62
  28 -16   2  115.93    3.46
  28  16   2  111.95    3.64
  28 -16  -2  119.08    3.46
  28  18  -2    1.80    0.76
  28 -18   2    0.75    0.52
  28 -18  -2    1.26    0.52
  28  18   2    1.70    0.80
  28  20  -2   10.24    0.99
  28 -20   2   10.14    0.73
  28 -20  -2    9.85    0.73
  28  20   2    8.73    0.98
  28 -22   2    0.20    0.47
  28  22  -2   -0.02    0.70
  28  22   2    0.75    0.76
  28 -22  -2   -0.21    0.44
  28 -24   2   29.23    1.17
  28  24  -2   25.70    1.56
  28  24   2   25.79    1.57
  28 -24  -2   26.75    1.14
  28  26  -2    2.27    0.70
  28 -26   2    2.30    0.44
  28  26   2    1.77    0.73
  28   0  -4   26.34    1.21
  -4 -28   0   26.58    1.41
  28   0   4   23.92    1.17
   4 -28   0   26.00    1.38
  -4 -28  -2   32.97    1.58
   4 -28   2   33.40    1.57
  28   2  -4   34.25    1.43
  28  -2   4   32.54    1.35
  -4 -28   2   31.57    1.58
   4 -28  -2   34.31    1.57
  28   2   4   32.33    1.38
  28  -2  -4   35.55    1.42
  28   4  -4    4.80    0.63
  -4 -28  -4    5.92    0.75
  28  -4   4    4.82    0.61
   4 -28   4    5.11    0.74
  28   4   4    4.77    0.60
  28  -4  -4    5.83    0.65
  -4 -28   4    4.98    0.78
   4 -28  -4    5.28    0.74
  28   6  -4    8.78    0.72
   4 -28   6    6.91    0.82
  -4 -28  -6    7.92    0.81
  28  -6   4    6.75    0.68
  28  -6  -4    6.91    0.69
   4 -28  -6    6.86    0.80
  28   6   4    6.22    0.65
  -4 -28  -8    6.69    0.79
  28   8  -4    6.37    0.68
  28  -8   4    6.82    0.68
   4 -28   8    5.30    0.76
   4 -28  -8    6.81    0.81
  28  -8  -4    6.30    0.64
  28 -10   4   -0.18    0.49
   4 -28  10    0.42    0.65
  28  10  -4    1.46    0.56
   4 -28 -10   -0.45    0.73
  28 -10  -4    1.11    0.52
  28  12  -4   10.15    0.81
  28 -12   4   12.70    0.83
  28 -12  -4   12.11    0.82
  28 -14   4    4.24    0.63
  28  14  -4    3.43    0.64
  28  14  -4    3.91    0.76
  28  14   4    4.91    0.84
  28 -14  -4    4.64    0.59
  28  16  -4    0.04    0.55
  28  16  -4    1.50    0.72
  28 -16   4    0.69    0.55
  28  16   4    0.61    0.75
  28 -16  -4    1.55    0.52
  28  18  -4    8.17    0.88
  28 -18   4    7.03    0.70
  28  18   4    7.88    0.94
  28 -18  -4    6.56    0.66
  28  20  -4    1.69    0.74
  28 -20   4    1.64    0.52
  28 -20  -4    2.59    0.53
  28  20   4    0.52    0.78
  28  22  -4    7.12    0.85
  28 -22   4    7.11    0.64
  28 -22  -4    6.68    0.61
  28  22   4    5.00    0.89
  28 -24   4    0.20    0.44
  28  24  -4    1.12    0.71
  28  24   4    0.21    0.75
  28 -24  -4    0.58    0.45
  28 -26   4    6.05    0.54
  28  26  -4    6.03    0.77
  28  26   4    5.74    0.81
  28   0  -6    0.40    0.49
   6 -28   0    0.47    0.57
  -6 -28   0    0.46    0.60
  28   0   6    0.71    0.49
   6 -28   2   -0.03    0.56
  28   2  -6   -0.29    0.49
  28  -2   6    0.88    0.51
  -6 -28  -2   -0.98    0.56
  28  -2  -6    0.51    0.49
  28   2   6    0.64    0.49
   6 -28  -2    1.44    0.59
  28  -4   6    6.07    0.65
   6 -28   4    7.59    0.82
  28   4  -6    7.69    0.71
  -6 -28  -4    6.53    0.79
   6 -28  -4    7.93    0.82
  28  -4  -6    6.03    0.67
  28   4   6    7.10    0.65
  28   6  -6   -0.16    0.51
  -6 -28  -6   -0.29    0.57
   6 -28   6    1.01    0.59
  28  -6   6   -0.32    0.46
   6 -28  -6    0.22    0.59
  28  -6  -6    0.31    0.51
  28  -8   6   10.20    0.75
  28   8  -6   10.65    0.82
   6 -28   8    7.31    0.87
  28  -8  -6    9.67    0.75
   6 -28  -8    9.75    0.90
  28  10  -6    3.62    0.64
  28 -10   6    3.49    0.57
  28 -10  -6    2.76    0.57
  28 -12   6    3.28    0.56
  28  12  -6    0.07    0.56
  28 -12  -6    0.25    0.50
  28  14  -6   14.42    1.07
  28 -14   6   15.63    1.05
  28  14   6   13.36    1.09
  28 -14  -6   15.93    1.04
  28  16  -6    3.34    0.63
  28 -16   6    3.45    0.60
  28  16   6    3.50    0.84
  28 -16  -6    3.64    0.59
  28  18  -6    6.96    0.70
  28 -18   6    7.13    0.69
  28 -18  -6    8.06    0.68
  28  18   6    6.88    0.95
  28 -20   6   -0.69    0.48
  28  20   6    0.80    0.77
  28 -20  -6    0.08    0.46
  28 -22   6   -0.58    0.44
  22   6 -28   -0.63    0.55
  28  22   6    0.04    0.74
  28 -22  -6    0.28    0.45
  24   6 -28    1.39    0.54
   6 -28  24    1.01    0.19
  28 -24   6    1.22    0.46
  28  24   6    1.53    0.75
  28 -26   6    4.55    0.49
   6 -28  26    4.52    0.24
  26   6 -28    4.04    0.55
  28  26   6    4.33    0.77
  28   0  -8    6.32    0.69
   8 -28   0    6.41    0.79
  28   0   8    6.28    0.64
   8 -28   2    2.97    0.69
  28   2  -8    2.59    0.58
  28  -2   8    2.02    0.53
   8 -28  -2    2.44    0.63
  28   2   8    3.64    0.57
  28  -2  -8    2.34    0.54
  -8 -28  -4    5.34    0.77
  28   4  -8    6.84    0.69
  28  -4   8    7.36    0.65
   8 -28   4    6.12    0.80
  28  -4  -8    5.58    0.66
   8 -28  -4    6.79    0.79
   8 -28   6    8.12    0.87
  28  -6   8    9.58    0.72
  28   6  -8    9.41    0.80
  28  -6  -8   10.20    0.78
   8 -28  -6    8.72    0.90
  28   8  -8   -0.55    0.56
  28  -8   8    1.03    0.50
  28  -8  -8    0.99    0.52
  28  10  -8    1.62    0.59
  28 -10   8    2.17    0.53
  28 -10  -8    2.07    0.55
  28 -12   8    9.73    0.75
  28  12  -8    8.65    0.79
  28 -12  -8    8.85    0.74
  28 -14   8    1.92    0.56
  28  14  -8    1.39    0.60
  28 -14  -8    1.95    0.54
  28  16  -8    1.16    0.58
  28 -16   8    1.95    0.54
  28  16   8    1.47    0.79
  28 -16  -8    0.40    0.51
  28 -18   8   13.99    0.99
  28  18  -8   13.85    0.89
  28 -18  -8   13.86    0.99
  28  18   8   12.78    1.14
  28  20  -8   -1.00    0.51
  28 -20   8   -0.03    0.48
  28  20   8   -0.51    0.74
  28 -20  -8   -0.49    0.46
  28 -22   8   16.52    0.97
  28  22   8   15.33    1.12
  24   8 -28    0.31    0.51
  28 -24   8   -0.37    0.42
  28  24   8   -0.73    0.69
  28 -26   8    5.03    0.52
   8 -28  26    5.37    0.30
  26   8 -28    5.31    0.57
  28  26   8    4.18    0.77
  10 -28   0   -0.40    0.56
  28   0 -10    0.04    0.52
  28   0  10   -0.55    0.45
  10 -28   2    4.22    0.72
  28   2 -10    3.24    0.61
  28  -2  10    4.11    0.57
  28  -2 -10    4.04    0.60
  10 -28  -2    2.59    0.69
  10 -28   4    0.51    0.43
  28   4 -10    0.37    0.55
  28  -4  10   -0.46    0.45
  10 -28   4    0.56    0.74
  28  -4 -10    0.34    0.51
  28   6 -10    3.06    0.64
  28  -6  10    2.89    0.53
  10 -28   6    2.54    0.46
  28  -6 -10    2.94    0.59
  28   8 -10    2.29    0.61
  28  -8  10    2.79    0.53
  10 -28   8    2.31    0.48
  28  -8 -10    2.37    0.57
  28 -10  10   -0.27    0.47
  28  10 -10   -0.51    0.57
  28 -10 -10    0.60    0.50
  28  12 -10   38.46    1.64
  28 -12  10   40.29    1.55
  28 -12 -10   39.44    1.57
  28 -14  10    1.56    0.55
  28  14 -10    0.64    0.61
  28 -14 -10    0.03    0.49
  28 -16  10   41.84    1.56
  28  16 -10   37.46    1.65
  10  28  16   40.62    1.96
  28 -16 -10   39.77    1.55
  28 -18  10    1.09    0.51
  28  18 -10    0.44    0.58
  28 -18 -10    0.60    0.64
  28  18  10    1.35    0.81
  28  20 -10    4.11    0.64
  28 -20  10    4.64    0.57
  28  20  10    5.13    0.89
  28 -22  10   -0.04    0.44
  28  22 -10   -0.55    0.49
  28  22  10    0.45    0.73
  24  10 -28    6.72    0.65
  28 -24  10    4.61    0.53
  28  24  10    4.81    0.82
  28   0 -12   33.60    1.46
  28  -2  12   41.57    1.54
  28   2 -12   42.87    1.65
  28  -2 -12   43.87    1.67
  28   4 -12    9.40    0.82
  12 -28   4   11.78    0.85
  28  -4  12   10.90    0.74
  28  -4 -12   10.92    0.78
  12 -28   6    0.09    0.41
  28   6 -12    0.08    0.57
  28  -6  12    0.30    0.47
  28  -6 -12    0.39    0.54
  12 -28   8    8.61    0.65
  28  -8  12    7.78    0.68
  28   8 -12    8.46    0.79
  28  -8 -12    6.96    0.69
  12 -28  10   38.24    1.44
  28  10 -12   37.08    1.63
  28 -10  12   39.49    1.50
  28 -10 -12   36.70    1.51
  28  12 -12   16.51    1.20
  28 -12  12   13.25    0.98
  28 -12 -12   13.83    1.01
  28  14 -12   16.15    1.20
  28 -14  12   16.15    1.03
  12  28  14   16.99    1.23
  28 -14 -12   17.42    1.05
  28 -16  12    0.60    0.51
  28  16 -12    1.71    0.67
  12  28  16    1.20    0.83
  28  18 -12    0.88    0.64
  28 -18  12    1.59    0.51
  28 -20  12    0.49    0.48
  28  20 -12    0.05    0.57
  28  22 -12   10.34    0.75
  28 -22  12    9.43    0.68
  24  12 -28    0.11    0.52
  28 -24  12    0.00    0.42
  28  24 -12   -0.55    0.47
  28   0 -14    0.65    0.55
  28   2 -14    4.99    0.68
   2 -14  28    4.24    0.25
  28  -2 -14    4.10    0.62
  28  -4  14    3.62    0.54
  14 -28   4    4.10    0.52
  28   4 -14    5.17    0.70
   4 -14  28    4.06    0.22
  28  -4 -14    3.38    0.61
  14 -28   6   14.52    0.94
   6 -14  28   14.80    0.47
  28  -6  14   14.76    0.98
  28   6 -14   13.61    0.94
  28  -6 -14   13.75    1.03
  28   8 -14    0.76    0.62
  28  -8  14    2.04    0.52
  14 -28   8    1.48    0.47
  28  -8 -14    2.01    0.57
  14 -28  10    0.50    0.46
  28  10 -14    0.25    0.65
  28 -10  14    0.43    0.48
  14  28  10    0.22    0.83
  28 -10 -14    0.80    0.53
  28 -12  14   16.74    1.02
  14 -28  12   17.80    1.02
  28  12 -14   16.96    1.25
  28 -12 -14   16.89    1.08
  14  28  12   17.45    1.25
  28  14 -14   29.88    1.47
  28 -14  14   28.28    1.28
  14  28  14   29.63    1.77
  28 -16  14   28.97    1.28
  28  16 -14   29.19    1.47
  14  28  16   29.99    1.70
  28 -18  14   15.53    0.97
  28  18 -14   16.13    1.15
  28  20 -14    3.23    0.67
  28 -20  14    3.93    0.54
  28  22 -14   -1.42    0.51
  28 -22  14   -0.95    0.42
  28   0 -16    1.59    0.59
  28   2 -16  113.04    3.42
  16 -28   2  113.19    3.36
   2 -16  28  109.91    3.04
  28  -2 -16  113.03    3.40
   4 -16  28    1.03    0.17
  28   4 -16    0.73    0.62
  16 -28   4    1.66    0.45
  28  -4 -16    0.10    0.53
  28   6 -16    2.95    0.67
  16 -28   6    2.81    0.50
  28  -6  16    3.46    0.54
  28  -6 -16    2.98    0.61
  16  28   6    3.44    0.91
  28  -8  16    1.49    0.49
  16 -28   8    1.10    0.46
  28   8 -16    0.64    0.63
  28  -8 -16    0.93    0.53
  16  28   8   -0.34    0.79
  28  10 -16   39.27    1.71
  16 -28  10   41.13    1.52
  28 -10  16   43.44    1.54
  16  28  10   37.42    1.97
  28 -10 -16   41.12    1.56
  28 -12  16    1.03    0.49
  16 -28  12    1.58    0.49
  28  12 -16    0.78    0.68
  16  28  12    1.87    0.87
  28  14 -16   30.84    1.50
  28 -14  16   30.64    1.32
  16  28  14   32.13    1.83
  28 -16  16   -0.45    0.46
  28  16 -16   -0.53    0.63
  16  28  16    0.37    0.78
  28  18 -16   -0.07    0.62
  28 -18  16   -0.02    0.45
  16  28  18    0.24    0.75
  28  20 -16   -0.56    0.57
  28 -20  16    1.36    0.45
  28 -22  16    4.53    0.50
  28  22 -16    4.38    0.60
  18  28   0   -1.60    0.74
  28   0 -18    0.02    0.54
  18  28  -2    0.93    0.77
  18 -28   2    0.61    0.45
  28   2 -18    1.14    0.59
   2 -18  28    1.36    0.20
  28  -2 -18    1.69    0.57
  18  28   2    1.00    0.79
  28   4 -18    6.42    0.77
  18  28  -4    6.46    0.92
   4 -18  28    7.61    0.34
  18 -28   4    7.75    0.62
  28  -4 -18    7.60    0.72
  18  28   4    7.45    0.98
  28   6 -18    6.91    0.76
  18  28  -6    5.75    0.88
  18 -28   6    5.37    0.57
  18  28   6    6.80    0.95
  28  -6 -18    7.35    0.69
  18 -28   8   12.38    0.88
  18  28  -8   11.50    1.00
  28   8 -18   13.52    0.93
  28  -8 -18   13.38    0.98
  18  28   8   10.90    1.06
  28  10 -18    1.64    0.65
  28 -10  18    1.10    0.48
  18 -28  10    0.39    0.47
  18  28  10    0.31    0.81
  28  12 -18    1.92    0.68
  28 -12  18    0.71    0.48
  18 -28  12    1.55    0.48
  18  28  12    2.21    0.83
  28  14 -18   17.74    1.06
  18 -28  14   15.82    0.96
  28 -14  18   15.87    0.95
  18  28  14   17.55    1.22
  28 -16  18    0.33    0.44
  28  16 -18   -0.32    0.62
  18  28  16    0.02    0.73
  28  18 -18    8.84    0.79
  28 -18  18    9.27    0.64
  18  28  18    7.51    0.88
  28 -20  18    0.15    0.40
  28  20 -18   -0.19    0.55
  20  28   0    6.02    0.92
  28   0 -20    6.63    0.71
   2 -20  28    9.34    0.42
  20 -28   2   10.94    0.68
  28   2 -20    9.77    0.80
  20  28  -2    9.93    0.99
  28  -2 -20    9.08    0.76
  20  28   2   10.64    1.03
  28   4 -20    1.04    0.60
  20 -28   4    1.74    0.48
  20  28  -4    0.47    0.75
   4 -20  28    1.56    0.18
  28  -4 -20    1.96    0.58
  20  28   4    1.79    0.79
  20 -28   6   -0.03    0.43
  28   6 -20   -0.71    0.59
  20  28  -6   -0.58    0.69
  20  28   6    1.06    0.77
  28  -6 -20    0.35    0.50
  20 -28   8   -0.18    0.42
  20  28  -8   -0.13    0.69
  28   8 -20    1.03    0.61
  20  28   8    0.98    0.80
  20 -28  10    3.38    0.53
  28  10 -20    5.27    0.73
  20  28  10    4.45    0.89
  28 -12  20    0.22    0.42
  28  12 -20   -0.45    0.61
  20 -28  12    0.65    0.45
  20  28  12   -0.39    0.76
  28 -14  20    3.33    0.49
  20 -28  14    3.35    0.50
  28  14 -20    3.10    0.67
  20  28  14    3.54    0.82
  28 -16  20    0.58    0.41
  28  16 -20   -0.31    0.58
  20  28  16   -0.35    0.71
  28 -18  20   -0.44    0.38
  28  18 -20   -0.21    0.56
  20  28  18   -0.33    0.64
  22  28   0    1.43    0.83
  28   0 -22   -0.10    0.52
  28   2 -22    1.07    0.57
  22 -28   2    0.71    0.42
   2 -22  28    0.13    0.20
  22  28  -2    1.50    0.81
  28  -2 -22    0.81    0.51
  22  28   2   -0.11    0.80
   4 -22  28    7.29    0.35
  22  28  -4    6.00    0.90
  28   4 -22    7.71    0.73
  22 -28   4    5.71    0.57
  22  28   4    6.25    0.93
  28  -4 -22    6.53    0.74
  28   6 -22    0.11    0.57
  22  28  -6   -0.84    0.70
   6 -22  28    0.49    0.15
  22 -28   6    0.71    0.44
  22  28   6    0.12    0.79
  22 -28   8   16.90    0.94
  28   8 -22   17.62    1.12
  22  28   8   14.93    1.16
  28  10 -22   -0.55    0.55
  22 -28  10    0.39    0.43
  22  28  10   -0.16    0.75
  28  12 -22    9.10    0.77
  22 -28  12    9.11    0.64
  22  28  12   11.32    0.98
  22 -28  14    0.30    0.41
  28  14 -22   -0.74    0.56
  28 -14  22   -1.06    0.53
  22  28  14   -1.27    0.69
  28 -16  22    3.54    0.44
  28  16 -22    2.09    0.59
  22  28  16    3.36    0.73
  28   0 -24    1.09    0.51
  24  28   0    0.67    0.76
  24  28  -2   27.59    1.54
  28   2 -24   25.11    1.21
  24 -28   2   25.11    1.11
  24  28   2   27.08    1.63
  28   4 -24    0.22    0.53
  24 -28   4    0.63    0.44
  24  28  -4    0.48    0.73
   4 -24  28    0.76    0.17
  24  28   4    0.74    0.75
  28   6 -24    0.39    0.53
   6 -24  28    1.28    0.17
  24 -28   6    1.12    0.44
  24  28  -6    1.18    0.68
  24  28   6    0.67    0.74
  24 -28   8    0.33    0.41
  28   8 -24    0.12    0.54
  24  28   8    0.11    0.71
  28  10 -24    6.57    0.68
  24 -28  10    5.45    0.54
  24  28  10    5.67    0.84
  28  12 -24   -0.27    0.52
  24 -28  12    0.24    0.39
  24  28  12    0.87    0.70
  26  28   0   -0.74    0.65
  26  28  -2    1.74    0.69
  28   2 -26    2.81    0.51
  26 -28   2    1.85    0.44
  26  28   2    0.69    0.70
  26 -28   4    5.56    0.53
   4 -26  28    5.56    0.35
  28   4 -26    5.31    0.59
  26  28  -4    6.56    0.81
  26  28   4    5.57    0.83
   6 -26  28    4.69    0.24
  28   6 -26    3.83    0.55
  26 -28   6    4.23    0.48
  26  28   6    3.85    0.79
  26 -28   8    6.05    0.52
   8 -26  28    6.28    0.30
  28   8 -26    6.89    0.62
  26  28   8    4.95    0.80
  -1 -29  -1    4.29    0.72
  29  -1   1    4.39    0.62
  29   1  -1    3.40    0.61
   1 -29   1    3.24    0.69
  29  -1  -1    4.71    0.63
  -1 -29   1    2.84    0.71
   1 -29  -1    3.99    0.73
  29   1   1    4.67    0.61
  -1 -29  -3   35.19    1.61
  29   3  -1   37.12    1.48
   1 -29   3   35.79    1.69
  29  -3   1   37.01    1.45
  29  -3  -1   34.59    1.46
   1 -29  -3   36.39    1.64
  29   3   1   36.37    1.49
  -1 -29   3   34.04    1.67
  29  -5   1    3.51    0.58
  29   5  -1    3.51    0.57
  -1 -29  -5    1.57    0.65
   1 -29   5    2.18    0.68
  29   5   1    3.07    0.59
   1 -29  -5    2.92    0.67
  -1 -29   5    2.74    0.73
  29  -5  -1    3.00    0.55
   1 -29   7    4.07    0.82
  29   7  -1    4.21    0.59
  -1 -29  -7    4.27    0.72
  29  -7   1    3.83    0.62
   1 -29  -7    3.77    0.71
  29  -7  -1    3.03    0.60
  29   7   1    4.34    0.62
  29   9  -1    8.25    0.71
  29  -9   1    7.06    0.70
  29  -9  -1    7.16    0.71
  29   9   1    7.92    0.71
  29  11  -1   18.19    1.11
  29 -11   1   18.89    1.13
  29 -11  -1   20.97    1.12
  29  13  -1    1.46    0.54
  29 -13   1    2.10    0.57
  29 -13  -1    1.15    0.53
  29 -15   1   35.25    1.49
  29  15   1   34.59    1.75
  29 -15  -1   36.81    1.49
  29 -17   1   19.64    1.12
  29  17  -1   19.63    1.41
  29 -17  -1   18.87    1.11
  29  17   1   18.07    1.20
  29 -19   1    3.83    0.59
  29  19  -1    3.50    0.80
  29 -19  -1    3.69    0.57
  29  19   1    3.80    0.82
  29 -21   1    1.54    0.50
  29  21  -1    0.94    0.74
  29  21   1    0.76    0.74
  29 -21  -1    1.11    0.48
  29 -23   1    5.48    0.58
  29  23  -1    6.39    0.84
  29  23   1    5.44    0.83
  29 -23  -1    6.27    0.59
  29 -25   1    7.63    0.59
  29  25  -1    8.66    0.85
  29 -25  -1    8.32    0.60
  29  25   1    9.24    0.87
  29  -1   3   36.99    1.48
  -3 -29  -1   34.92    1.67
  29   1  -3   37.55    1.49
   3 -29   1   34.13    1.65
   3 -29  -1   33.61    1.63
  -3 -29   1   34.23    1.68
  29   1   3   38.04    1.48
  29  -1  -3   38.00    1.54
  29  -3   3   44.38    1.67
  -3 -29  -3   41.00    1.84
   3 -29   3   41.01    1.80
  29   3  -3   45.47    1.67
   3 -29  -3   40.65    1.84
  29   3   3   44.40    1.65
  -3 -29   3   43.15    1.90
  29  -3  -3   46.13    1.70
  -3 -29  -5    2.66    0.65
   3 -29   5    2.03    0.68
  29   5  -3    0.75    0.52
  29  -5   3    1.94    0.56
   3 -29  -5    1.35    0.61
  29   5   3    2.42    0.54
  29  -5  -3    1.89    0.55
   3 -29   7    0.06    1.02
  29  -7   3   -0.43    0.50
  -3 -29  -7    0.46    0.60
  29   7  -3    0.04    0.52
  29   7   3   -0.86    0.51
  29  -7  -3    0.61    0.51
   3 -29  -7   -0.07    1.03
  29  -9   3    0.95    0.52
  29   9  -3    1.74    0.55
  29  -9  -3    0.45    0.52
  29 -11   3   49.10    1.79
  29  11  -3   46.11    1.78
  29 -11  -3   49.21    1.77
  29 -13   3    1.45    0.56
  29  13  -3    2.26    0.57
  29 -13  -3    2.16    0.56
  29 -15   3   59.28    1.99
  29  15  -3   52.00    1.93
  29 -15  -3   58.14    1.99
  29  15   3   55.15    2.23
  29 -17   3   11.76    0.80
  29  17  -3    9.85    0.95
  29 -17  -3   10.35    0.77
  29  17   3    9.88    1.00
  29 -19   3    4.68    0.61
  29  19  -3    3.14    0.77
  29  19   3    4.40    0.83
  29 -19  -3    4.47    0.60
  29 -21   3    0.05    0.48
  29  21  -3    1.07    0.70
  29 -21  -3   -0.18    0.46
  29  21   3    0.58    0.73
  29  23  -3    1.51    0.72
  29 -23   3    2.38    0.50
  29  23   3    4.01    0.80
  29 -23  -3    3.73    0.52
  29  25  -3   12.42    0.94
  29 -25   3   12.83    0.81
  29 -25  -3   11.14    0.87
  29  25   3   13.17    0.98
   5 -29   1    3.51    0.71
  29  -1   5    3.14    0.58
  29   1  -5    1.92    0.54
  -5 -29  -1    2.18    0.68
  29   1   5    2.42    0.55
  -5 -29   1    2.21    0.69
   5 -29  -1    2.08    0.67
  29  -1  -5    2.55    0.59
  -5 -29  -3    2.34    0.66
   5 -29   3    0.68    0.62
  29   3  -5    1.25    0.53
  29  -3   5    2.18    0.56
  29   3   5    1.76    0.53
   5 -29  -3    1.57    0.60
  29  -3  -5    1.33    0.56
  29   5  -5   19.34    1.11
  -5 -29  -5   19.06    1.31
   5 -29   5   16.50    1.24
  29  -5   5   19.70    1.13
  29  -5  -5   19.87    1.11
   5 -29  -5   16.13    1.19
  29   5   5   19.96    1.09
  29  -7   5    1.13    0.53
  29   7  -5    0.20    0.52
  29  -7  -5    1.38    0.53
  29  -9   5   14.14    1.02
  29   9  -5   12.92    0.86
  29  -9  -5   12.97    0.86
  29 -11   5    1.20    0.53
  29  11  -5    0.78    0.56
  29 -11  -5    0.93    0.55
  29  13  -5    2.13    0.60
  29 -13   5    1.47    0.56
  29 -13  -5    2.70    0.57
  29  15  -5    0.01    0.56
  29 -15   5   -1.30    0.50
  29 -15  -5   -0.15    0.51
  29 -17   5    3.25    0.61
  29  17  -5    3.12    0.61
  29 -17  -5    3.32    0.57
  29  17   5    2.31    0.81
  29 -19   5    2.69    0.56
  29 -19  -5    2.48    0.54
  29  19   5    3.20    0.83
  29 -21   5    1.12    0.50
  29  21   5    2.48    0.79
  29 -21  -5    2.47    0.52
  29 -23   5    3.51    0.53
  29  23   5    3.20    0.79
  29 -23  -5    4.60    0.53
  29 -25   5    0.77    0.42
  29  25   5    1.48    0.69
  29  -1   7    5.51    0.62
   7 -29   1    3.13    0.72
  29   1  -7    4.98    0.63
   7 -29  -1    3.53    0.73
  29   1   7    4.67    0.63
  29  -1  -7    5.07    0.63
  29  -3   7    1.17    0.52
  -7 -29  -3   -0.42    0.61
  29   3  -7   -0.75    0.52
  29  -3  -7    0.44    0.53
   7 -29  -3    0.48    0.82
  29   3   7   -0.58    0.48
  29   5  -7    0.67    0.54
  29  -5   7    0.48    0.49
  29  -5  -7    1.25    0.55
  29   7  -7    0.34    0.54
  29  -7   7    0.64    0.51
  29  -7  -7   -0.28    0.51
  29  -9   7    0.56    0.50
  29   9  -7    0.36    0.56
  29  -9  -7    0.07    0.51
  29 -11   7    0.77    0.51
  29  11  -7    0.63    0.57
  29 -11  -7    0.50    0.53
  29  13  -7   -0.52    0.54
  29 -13   7   -0.13    0.52
  29 -13  -7   -0.01    0.48
  29  15  -7    2.94    0.64
  29 -15   7    3.85    0.62
  29 -15  -7    3.73    0.59
  29  17  -7   -0.14    0.53
  29 -17   7   -0.14    0.50
  29 -17  -7   -0.40    0.48
  29  19  -7   -0.08    0.53
  29 -19   7    0.71    0.51
  29  19   7    0.78    0.77
  29 -19  -7    0.64    0.48
  21   7 -29    0.97    0.59
  29 -21   7   -0.54    0.46
  29 -21  -7   -0.03    0.45
  29  21   7   -0.67    0.72
  23   7 -29   -0.52    0.49
  29 -23   7   -0.48    0.43
  29  23   7    0.25    0.71
  29 -25   7    0.68    0.41
   7 -29  25    0.47    0.17
  25   7 -29    0.39    0.46
  29  25   7    0.01    0.66
  29  -1   9    7.93    0.67
  29   1  -9    7.29    0.72
  29   1   9    7.71    0.68
  29  -1  -9    7.28    0.70
  29   3  -9    0.34    0.54
  29  -3   9    0.49    0.50
  29  -3  -9    0.57    0.55
  29  -5   9   15.31    0.98
  29   5  -9   13.97    1.04
  29  -5  -9   15.91    1.09
  29  -7   9   -0.18    0.46
  29   7  -9    0.31    0.55
  29  -7  -9   -0.74    0.48
  29   9  -9    2.32    0.61
  29  -9   9    1.73    0.53
  29  -9  -9    0.18    0.51
  29  11  -9    8.89    0.80
  29 -11   9   10.80    0.78
  29 -11  -9   10.12    0.78
  29  13  -9    3.13    0.65
  29 -13   9    3.12    0.59
  29 -13  -9    2.98    0.58
  29  15  -9   12.53    0.88
  29 -15   9   13.48    0.99
   9  29  15   12.68    1.12
  29 -15  -9   12.75    0.81
  29  17  -9   -0.19    0.54
  29 -17   9   -0.03    0.49
  29 -17  -9    0.01    0.48
  29 -19   9   11.46    0.77
  29  19  -9   10.51    0.79
  29 -19  -9   11.34    0.74
  29 -21   9    2.32    0.50
  29  21  -9    1.61    0.55
  29 -23   9    1.97    0.47
  23   9 -29    1.35    0.55
  29  -1  11   18.35    1.02
  29   1 -11   19.76    1.18
  29  -1 -11   18.03    1.14
  29   3 -11   49.06    1.84
  29  -3  11   48.91    1.73
  29  -3 -11   47.95    1.80
  29  -5  11    1.37    0.49
  11 -29   5    1.67    0.45
  29   5 -11    0.57    0.60
  29  -5 -11    0.54    0.54
  29   7 -11   -0.39    0.57
  29  -7  11    0.04    0.48
  29  -7 -11   -0.56    0.52
  29   9 -11   10.56    0.85
  29  -9  11   10.44    0.76
  29  -9 -11   11.29    0.80
  29  11 -11   53.42    1.99
  29 -11  11   53.89    1.91
  29 -11 -11   56.97    1.93
  29  13 -11    1.91    0.62
  29 -13  11    1.18    0.52
  29 -13 -11    0.92    0.51
  11  29  13   -0.72    0.80
  29  15 -11   49.70    1.87
  29 -15  11   52.49    1.82
  29 -15 -11   51.57    1.79
  11  29  15   50.84    2.18
  29  17 -11   14.11    0.89
  29 -17  11   12.58    0.94
  29 -17 -11   13.66    0.90
  29 -19  11    4.41    0.57
  29  19 -11    4.13    0.64
  29 -21  11    3.63    0.53
  29  21 -11    1.96    0.55
  29 -23  11    3.23    0.50
  29  23 -11    3.63    0.59
  23  11 -29    4.36    0.62
  29   1 -13    0.42    0.57
  29  -1 -13    1.11    0.55
  29  -3  13    2.58    0.53
  29   3 -13    2.24    0.61
  29  -3 -13    2.06    0.57
  29   5 -13    2.57    0.67
  29  -5  13    2.12    0.51
  13 -29   5    2.09    0.47
  29  -5 -13    1.21    0.58
  29   7 -13    0.91    0.62
  29  -7  13   -0.10    0.48
  13 -29   7   -0.18    0.42
  29  -7 -13   -0.70    0.50
  29   9 -13    3.55    0.67
  29  -9  13    3.51    0.57
  13 -29   9    3.23    0.51
  29  -9 -13    3.40    0.60
  29 -11  13    0.12    0.49
  29  11 -13    1.42    0.63
  13  29  11    1.04    0.85
  29 -11 -13    1.05    0.53
  29 -13  13    0.33    0.49
  29  13 -13    1.41    0.64
  13  29  13    1.27    0.84
  29 -13 -13    1.29    0.51
  29 -15  13    1.13    0.51
  29  15 -13    0.05    0.61
  13  29  15    1.76    0.82
  29  17 -13   -0.22    0.57
  29 -17  13    0.38    0.48
  13  29  17   -0.71    0.74
  29 -19  13    1.02    0.48
  29  19 -13   -0.11    0.54
  29  21 -13    2.29    0.55
  29 -21  13    2.75    0.50
  23  13 -29    0.04    0.51
  29 -23  13    0.92    0.41
  29  23 -13    0.12    0.47
  29   1 -15   34.91    1.50
  29  -1 -15   34.21    1.47
   3 -15  29   53.68    1.50
  15 -29   3   49.47    2.07
  29   3 -15   54.65    1.96
  29  -3 -15   56.06    1.94
  15 -29   5    0.06    0.43
  29   5 -15    0.12    0.58
  29  -5  15    0.72    0.49
  29  -5 -15    0.60    0.55
  15 -29   7    3.81    0.52
  29   7 -15    3.04    0.67
  29  -7  15    3.25    0.54
  29  -7 -15    4.27    0.62
  29  -9  15   13.09    0.96
  29   9 -15   13.61    0.94
  15 -29   9   14.46    0.93
  15  29   9   12.76    1.13
  29  -9 -15   13.55    1.00
  29 -11  15   50.88    1.79
  29  11 -15   52.92    1.92
  15  29  11   50.90    2.23
  29 -11 -15   49.82    1.80
  29 -13  15    0.90    0.49
  29  13 -15   -0.10    0.61
  15  29  13    0.70    0.82
  29  15 -15   50.05    1.92
  29 -15  15   54.46    1.80
  15  29  15   49.48    2.14
  29  17 -15   20.10    1.14
  29 -17  15   18.35    1.01
  15  29  17   18.20    1.38
  29  19 -15    1.62    0.58
  29 -19  15    1.23    0.46
  29 -21  15    5.28    0.54
  29  21 -15    6.71    0.64
  29   1 -17   19.69    1.19
  29  -1 -17   21.30    1.18
   3 -17  29   10.71    0.43
  17 -29   3   11.88    0.82
  29   3 -17   11.01    0.84
  17  29   3    8.68    1.02
  29  -3 -17   11.20    0.80
  17 -29   5    2.87    0.50
   5 -17  29    2.50    0.19
  29   5 -17    2.81    0.66
  29  -5 -17    3.38    0.60
  17  29   5    2.45    0.84
  29   7 -17    0.22    0.61
  17 -29   7    0.01    0.43
   7 -17  29   -0.12    0.13
  29  -7 -17    0.29    0.50
  17  29   7    0.28    0.79
  17  29  -9   -0.55    0.68
  29  -9  17   -0.84    0.44
  17 -29   9    0.45    0.44
  29   9 -17    0.28    0.61
  17  29   9   -0.96    0.76
  29  -9 -17    0.15    0.50
  17 -29  11   12.65    0.87
  29 -11  17   11.82    0.88
  29  11 -17   12.86    0.91
  17  29  11   10.82    1.08
  29  13 -17    0.27    0.62
  29 -13  17   -0.39    0.46
  17  29  13   -0.90    0.77
  29 -15  17   18.90    1.02
  29  15 -17   22.85    1.21
  17  29  15   17.37    1.19
  29 -17  17    2.06    0.47
  29  17 -17    2.73    0.63
  17  29  17    1.44    0.72
  29  19 -17    1.46    0.56
  29 -19  17    1.52    0.45
  29   1 -19    4.03    0.64
  19  29  -1    3.43    0.84
  29  -1 -19    2.92    0.60
  19  29   1    3.16    0.85
   3 -19  29    4.13    0.25
  29   3 -19    3.83    0.65
  19 -29   3    5.34    0.53
  19  29  -3    4.14    0.84
  19  29   3    5.16    0.91
  29  -3 -19    3.92    0.61
   5 -19  29    2.26    0.19
  19 -29   5    2.22    0.47
  29   5 -19    2.01    0.63
  19  29  -5    2.60    0.79
  19  29   5    1.92    0.81
  29  -5 -19    2.85    0.57
   7 -19  29    0.61    0.14
  19 -29   7    0.75    0.45
  19  29  -7    0.58    0.71
  29   7 -19    0.23    0.60
  29  -7 -19    0.31    0.50
  19  29   7    1.31    0.81
  29   9 -19   11.68    0.86
  19 -29   9    9.95    0.69
  19  29   9   10.94    1.06
  19 -29  11    4.89    0.55
  29  11 -19    5.96    0.71
  29 -11  19    4.45    0.54
  19  29  11    5.28    0.89
  29  13 -19    0.82    0.60
  29 -13  19   -0.10    0.41
  19  29  13    1.27    0.78
  29  15 -19    1.74    0.60
  29 -15  19    1.89    0.46
  19  29  15    2.37    0.74
  29  17 -19    1.62    0.57
  29 -17  19    1.59    0.42
  19  29  17    1.69    0.70
  21  29  -1    2.48    0.80
  29   1 -21    1.34    0.56
  29  -1 -21    1.75    0.55
  21  29   1    0.83    0.77
  29   3 -21    0.64    0.55
  21  29  -3    1.47    0.77
  21 -29   3    0.47    0.42
   3 -21  29    0.44    0.18
  21  29   3    0.65    0.78
  29  -3 -21    0.37    0.51
   5 -21  29    1.89    0.18
  21 -29   5    2.52    0.47
  29   5 -21    2.09    0.58
  21  29  -5    1.31    0.76
  21  29   5    2.90    0.82
  29  -5 -21    1.64    0.52
  29   7 -21   -0.36    0.57
  21 -29   7    0.28    0.42
  21  29  -7    1.03    0.75
   7 -21  29    0.13    0.14
  21  29   7    0.12    0.75
  21 -29   9    2.15    0.47
  29   9 -21    3.44    0.64
  21  29   9    2.65    0.82
  21 -29  11    2.55    0.47
  29  11 -21    3.26    0.63
  21  29  11    3.58    0.82
  29  13 -21    3.36    0.62
  21  29  13    3.03    0.76
  29  15 -21    5.70    0.68
  29 -15  21    5.71    0.51
  21  29  15    6.47    0.83
  29   1 -23    5.33    0.61
  23  29  -1    7.01    0.90
  29  -1 -23    7.20    0.64
  23  29   1    4.49    0.86
  23 -29   3    2.69    0.47
  23  29  -3    3.84    0.82
   3 -23  29    2.72    0.22
  29   3 -23    3.24    0.58
  23  29   3    2.81    0.82
   5 -23  29    4.35    0.24
  23  29  -5    4.80    0.80
  23 -29   5    4.14    0.50
  29   5 -23    3.94    0.61
  23  29   5    4.03    0.83
  23 -29   7    0.04    0.41
  29   7 -23   -0.16    0.52
   7 -23  29    0.31    0.14
  23  29   7    0.20    0.73
  23 -29   9    0.62    0.42
  29   9 -23    2.33    0.59
  23  29   9    1.74    0.75
  23 -29  11    4.35    0.49
  29  11 -23    3.36    0.61
  23  29  11    3.66    0.77
  29  13 -23    0.08    0.52
  23  29  13   -0.08    0.66
  29   1 -25    8.03    0.63
  25  29  -1    7.79    0.82
  25  29   1    8.52    0.86
  29   3 -25   12.43    0.83
  25 -29   3   11.43    0.76
  25  29  -3   11.46    0.90
  25  29   3   10.83    0.92
  29   5 -25    1.13    0.49
  25 -29   5    0.99    0.40
   5 -25  29    0.88    0.17
  25  29  -5    0.94    0.65
  25  29   5   -0.24    0.67
   7 -25  29    0.82    0.15
  25 -29   7   -0.27    0.38
  29   7 -25    0.63    0.49
  25  29   7    0.96    0.72
  30   0   0   -0.75    0.48
  30  -2   0   18.31    1.07
  30   2   0   17.84    1.12
  30   4   0    0.17    0.52
  30  -4   0   -0.11    0.50
  30  -6   0   25.50    1.23
  30   6   0   23.04    1.23
  30   8   0   -0.51    0.52
  30  -8   0   -0.12    0.53
  30 -10   0    2.77    0.59
  30  10   0    3.23    0.59
  30 -12   0   -0.56    0.52
  30 -14   0   65.86    2.22
  30 -16   0   -0.57    0.50
  30 -18   0   44.56    1.67
  30 -20   0   -0.04    0.47
  30 -22   0    4.74    0.55
  30 -24   0   -0.01    0.42
  30   0  -2   18.03    1.09
  30   0   2   18.16    1.12
  30   2  -2   86.50    2.78
  30  -2   2   87.09    2.76
  30   2   2   87.31    2.74
  30  -2  -2   88.19    2.78
  30   4  -2    6.20    0.69
  30  -4   2    5.66    0.66
  30   4   2    5.18    0.64
  30  -4  -2    4.60    0.64
  30   6  -2    4.07    0.61
  30  -6   2    2.63    0.60
  30   6   2    3.92    0.62
  30  -6  -2    3.23    0.60
  30  -8   2    0.15    0.52
  30   8  -2   -0.43    0.51
  30   8   2    0.11    0.53
  30  -8  -2    0.36    0.54
  30 -10   2   34.63    1.47
  30  10  -2   34.90    1.48
  30 -10  -2   39.64    1.56
  30  12  -2    3.65    0.59
  30 -12   2    3.74    0.63
  30 -12  -2    3.17    0.62
  30 -14   2   18.23    1.08
  30  14  -2   17.54    1.09
  30 -14  -2   19.58    1.15
  30 -16   2    0.14    0.52
  30 -16  -2   -0.47    0.51
  30 -18   2   -0.06    0.52
  30 -18  -2    0.19    0.50
  30 -20   2    0.66    0.49
  30 -20  -2    0.39    0.49
  30 -22   2    2.11    0.49
  30 -22  -2    1.88    0.48
  30 -24   2   -0.07    0.40
  30 -24  -2   -0.11    0.40
  30   0   4    0.23    0.50
  30   0  -4   -0.28    0.52
  30  -2   4    5.29    0.65
  30   2  -4    5.70    0.67
  30   2   4    6.47    0.66
  30  -2  -4    6.12    0.69
  30   4  -4   11.38    0.82
  30  -4   4   11.77    0.84
  30  -4  -4   13.25    0.89
  30   4   4   12.33    0.81
  30  -6   4   11.45    0.82
  30   6  -4   10.07    0.79
  30  -6  -4   11.63    0.80
  30   6   4   10.22    0.77
  30  -8   4   20.33    1.15
  30   8  -4   17.53    1.08
  30  -8  -4   18.01    1.10
  30  10  -4    0.26    0.53
  30 -10   4   -0.07    0.51
  30 -10  -4    0.58    0.55
  30 -12   4   20.86    1.18
  30  12  -4   19.43    1.15
  30 -12  -4   22.33    1.18
  30 -14   4   15.35    1.06
  30  14  -4   15.36    1.06
  30 -14  -4   14.60    1.05
  30  16  -4    3.85    0.59
  30 -16   4    4.13    0.63
  30 -16  -4    5.00    0.63
  30 -18   4    9.76    0.76
  30 -18  -4    9.13    0.70
  30 -20   4    0.85    0.50
  30 -20  -4    0.65    0.49
  30 -22   4    0.26    0.45
  30 -22  -4    0.93    0.45
  30 -24   4    0.06    0.41
  30 -24  -4    0.05    0.49
  30   0  -6   26.73    1.26
  30   0   6   22.95    1.23
  30   2  -6    2.16    0.56
  30  -2   6    2.61    0.57
  30   2   6    3.57    0.59
  30  -2  -6    3.36    0.62
  30   4  -6   10.17    0.79
  30  -4   6   11.11    0.79
  30  -4  -6   11.16    0.84
  30   4   6   11.49    0.79
  30   6  -6    2.44    0.60
  30  -6   6    2.07    0.56
  30  -6  -6    3.16    0.60
  30   8  -6    0.69    0.55
  30  -8   6    0.31    0.51
  30  -8  -6   -0.70    0.51
  30 -10   6    5.60    0.68
  30  10  -6    7.12    0.72
  30 -10  -6    6.13    0.70
  30 -12   6    3.22    0.61
  30  12  -6    4.04    0.64
  30 -12  -6    4.54    0.62
  30  14  -6    3.19    0.62
  30 -14   6    4.11    0.63
  30 -14  -6    3.29    0.57
  30  16  -6    4.50    0.63
  30 -16   6    3.50    0.61
  30 -16  -6    3.52    0.58
  30 -18   6    4.33    0.60
  30  18  -6    4.24    0.59
  30 -18  -6    4.06    0.58
  30 -20   6   -0.29    0.46
  30 -20  -6    0.46    0.47
  30 -22   6    5.69    0.58
  30 -22  -6    5.93    0.55
  30 -24   6    0.49    0.41
  30   0  -8    0.83    0.55
  30   0   8   -0.14    0.49
  30  -2   8   -0.12    0.49
  30   2  -8   -0.56    0.52
  30   2   8   -0.37    0.51
  30  -2  -8    0.33    0.57
  30  -4   8   19.08    1.11
  30   4  -8   18.04    1.12
  30  -4  -8   20.23    1.19
  30   6  -8   -0.34    0.52
  30  -6   8    0.15    0.50
  30  -6  -8   -0.60    0.53
  30  -8   8    9.38    0.75
  30   8  -8   10.09    0.80
  30  -8  -8   11.19    0.80
  30 -10   8    2.08    0.55
  30  10  -8    1.60    0.60
  30 -10  -8    3.01    0.59
  30 -12   8    5.35    0.65
  30  12  -8    4.47    0.67
  30 -12  -8    6.03    0.65
  30  14  -8    7.70    0.75
  30 -14   8    8.36    0.74
  30 -14  -8    7.70    0.68
  30 -16   8    0.01    0.51
  30  16  -8    0.05    0.55
  30 -16  -8    0.52    0.49
  30  18  -8    6.00    0.66
  30 -18   8    4.70    0.60
  30 -18  -8    4.74    0.58
  30  20  -8   -0.34    0.49
  30 -20   8    0.35    0.46
  30 -20  -8    0.78    0.46
  22   8 -30    0.38    0.50
  30 -22   8    0.39    0.44
  30 -24   8    0.06    0.40
   8 -30  24    0.27    0.16
  24   8 -30   -0.08    0.56
  30   0  10    3.01    0.56
  30   0 -10    2.15    0.58
  30  -2  10   32.57    1.40
  30   2 -10   33.47    1.43
  30  -2 -10   32.85    1.47
  30   4 -10   -0.21    0.55
  30  -4  10    0.34    0.48
  30  -4 -10    0.33    0.54
  30  -6  10    6.92    0.66
  30   6 -10    5.52    0.69
  30  -6 -10    5.97    0.68
  30   8 -10    0.94    0.62
  30  -8  10    1.67    0.54
  30  -8 -10    1.30    0.54
  30 -10  10    6.36    0.67
  30  10 -10    6.31    0.75
  30 -10 -10    8.00    0.72
  30  12 -10    5.38    0.72
  30 -12  10    5.03    0.65
  30 -12 -10    6.05    0.66
  30 -14  10    7.10    0.68
  30  14 -10    8.19    0.76
  30 -14 -10    5.88    0.64
  10  30  14    6.04    0.94
  30  16 -10    0.11    0.55
  30 -16  10   -0.46    0.49
  30 -16 -10   -0.09    0.47
  10  30  16   -1.68    0.73
  30 -18  10    8.63    0.69
  30  18 -10    7.49    0.72
  30 -18 -10    7.20    0.63
  30 -20  10    2.10    0.50
  30  20 -10    0.91    0.52
  30 -22  10    3.98    0.52
  22  10 -30    4.30    0.60
  30   0 -12    0.09    0.54
  30   2 -12    3.30    0.64
  30  -2  12    2.28    0.53
  30  -2 -12    3.14    0.62
  30  -4  12   20.83    1.11
  30   4 -12   21.29    1.23
  30  -4 -12   21.24    1.21
  30  -6  12    4.00    0.58
  30   6 -12    3.63    0.65
  30  -6 -12    3.40    0.62
  30  -8  12    6.19    0.63
  30   8 -12    6.53    0.75
  30  -8 -12    5.71    0.66
  30 -10  12    4.75    0.61
  30  10 -12    5.51    0.73
  30 -10 -12    5.07    0.64
  30  12 -12   15.43    1.12
  30 -12  12   12.91    0.83
  30 -12 -12   14.55    1.01
  12  30  12   13.24    1.13
  30 -14  12   24.22    1.16
  30  14 -12   21.51    1.23
  12  30  14   24.11    1.64
  30 -14 -12   23.00    1.14
  30  16 -12   32.30    1.40
  30 -16  12   31.87    1.32
  30 -16 -12   32.39    1.43
  12  30  16   29.68    1.70
  30  18 -12   12.62    0.83
  30 -18  12   12.63    0.94
  30 -20  12    4.01    0.53
  30  20 -12    5.35    0.62
  30 -22  12    1.15    0.42
  30  22 -12    0.50    0.47
  22  12 -30    0.90    0.51
  30   0 -14   65.76    2.23
  30   2 -14   19.83    1.20
  30  -2 -14   18.20    1.15
  30   4 -14   15.21    1.13
  30  -4 -14   14.82    1.08
  30   6 -14    2.26    0.63
  30  -6  14    2.12    0.52
  14 -30   6    2.82    0.48
  30  -6 -14    3.35    0.60
  30   8 -14    7.46    0.80
  30  -8  14    8.05    0.67
  30  -8 -14    8.47    0.72
  30  10 -14    5.85    0.74
  30 -10  14    6.96    0.64
  30 -10 -14    6.36    0.66
  14  30  10    5.94    0.96
  30 -12  14   23.80    1.15
  30  12 -14   22.51    1.28
  14  30  12   24.97    1.67
  30 -12 -14   22.91    1.15
  30  14 -14    3.56    0.66
  30 -14  14    2.58    0.55
  14  30  14    2.99    0.85
  30  16 -14    0.64    0.58
  30 -16  14    1.90    0.50
  14  30  16    1.29    0.76
  30 -18  14    0.99    0.46
  30  18 -14   -0.33    0.53
  30 -20  14    6.74    0.57
  30  20 -14    6.40    0.64
  30   0 -16   -0.09    0.53
  30   2 -16    0.59    0.58
  30  -2 -16    0.44    0.54
  16 -30   4    3.66    0.51
  30   4 -16    3.05    0.64
  30  -4 -16    5.17    0.66
  16  30   4    3.67    0.91
  30   6 -16    2.50    0.64
  16 -30   6    3.03    0.49
  16  30   6    1.71    0.84
  30  -6 -16    3.00    0.59
  16 -30   8    0.47    0.43
  30  -8  16    0.11    0.46
  30   8 -16   -0.42    0.58
  30  -8 -16    0.12    0.49
  16  30   8    0.69    0.82
  30  10 -16    0.47    0.60
  30 -10  16    0.37    0.46
  16  30  10    0.46    0.78
  30 -10 -16   -0.11    0.48
  30 -12  16   32.30    1.31
  30  12 -16   32.67    1.46
  16  30  12   33.60    1.81
  30 -14  16    0.59    0.46
  30  14 -16    0.34    0.59
  16  30  14    2.08    0.79
  30  16 -16   43.98    1.63
  30 -16  16   43.83    1.53
  16  30  16   40.93    1.81
  30 -18  16    1.17    0.44
  30  18 -16    1.31    0.55
  30   0 -18   41.35    1.60
  18  30   0   41.67    1.96
  30   2 -18   -0.27    0.55
  18  30  -2    0.18    0.77
  18  30   2    0.14    0.78
  30  -2 -18   -0.21    0.52
  18  30  -4    7.67    0.94
  18 -30   4    8.39    0.62
  30   4 -18    9.73    0.78
  18  30   4    9.10    1.01
  30  -4 -18    9.10    0.73
  18 -30   6    3.76    0.50
  18  30  -6    4.19    0.81
  30   6 -18    4.27    0.66
  30  -6 -18    2.91    0.57
  18  30   6    3.49    0.87
  18  30  -8    3.62    0.80
  18 -30   8    5.03    0.54
  30   8 -18    4.53    0.70
  18  30   8    7.15    0.93
  30  -8 -18    5.98    0.62
  30  10 -18    8.28    0.77
  30 -10  18    7.72    0.63
  18  30  10    7.47    0.95
  30  12 -18   11.98    0.87
  30 -12  18   11.74    0.85
  18  30  12   14.49    1.08
  30  14 -18    0.24    0.57
  30 -14  18    0.15    0.42
  18  30  14   -1.64    0.67
  30  16 -18    0.12    0.54
  30 -16  18    0.62    0.42
  18  30  16    1.14    0.67
  30   0 -20   -0.51    0.50
  20  30   0   -0.07    0.75
  20  30  -2    1.06    0.76
  30   2 -20    0.96    0.54
  30  -2 -20    0.25    0.51
  20  30   2    0.70    0.77
  30   4 -20    1.31    0.57
  20  30  -4    0.12    0.72
  20 -30   4    0.47    0.42
  20  30   4    0.44    0.76
  30  -4 -20    0.88    0.51
  30   6 -20    0.63    0.55
  20 -30   6   -0.01    0.42
  20  30  -6   -0.03    0.70
  30  -6 -20   -0.49    0.46
  20  30   6   -1.33    0.75
  30   8 -20    0.32    0.57
  20 -30   8   -0.20    0.41
  20  30   8   -0.10    0.75
  30  10 -20    1.57    0.60
  20 -30  10    2.01    0.45
  20  30  10    2.06    0.79
  30  12 -20    4.27    0.65
  20  30  12    4.14    0.81
  30  14 -20    6.75    0.68
  30 -14  20    6.22    0.52
  20  30  14    7.28    0.82
  22  30   0    3.52    0.82
  30   0 -22    3.96    0.58
  30   2 -22    3.25    0.56
  22  30  -2    2.51    0.81
  30  -2 -22    2.21    0.52
  22  30   2    2.43    0.81
  22 -30   4    0.70    0.41
  30   4 -22   -0.45    0.50
  22  30  -4    0.64    0.74
  22  30   4    0.42    0.76
  30  -4 -22    1.12    0.50
  22 -30   6    4.67    0.51
  30   6 -22    5.99    0.64
  22  30  -6    5.64    0.83
  22  30   6    5.59    0.86
  30   8 -22    0.70    0.53
  22 -30   8    0.09    0.38
  22  30   8    0.55    0.71
  22 -30  10    3.65    0.46
  30  10 -22    4.70    0.62
  22  30  10    3.05    0.75
  30  12 -22    0.13    0.53
  22  30  12    0.97    0.68
  30   0 -24   -0.23    0.44
  24  30   0    0.11    0.67
  24  30  -2   -0.70    0.65
  30   2 -24    0.68    0.46
  24  30   2   -0.34    0.67
  30   4 -24    0.28    0.46
  24 -30   4   -0.17    0.37
  24  30  -4   -0.39    0.63
  24  30   4   -0.68    0.67
  24 -30   6    0.51    0.38
  30   6 -24   -0.29    0.47
  24  30   6    0.57    0.69
  30   8 -24    0.17    0.48
  24 -30   8    0.27    0.37
  24  30   8    0.76    0.67
  31   1  -1   55.30    1.96
  31  -1   1   55.47    1.94
  31  -1  -1   53.87    1.92
  31   1   1   53.14    1.93
  31   3  -1   15.59    1.08
  31  -3   1   13.63    1.00
  31  -3  -1   12.20    0.85
  31   3   1   14.21    1.06
  31   5  -1   21.55    1.24
  31  -5   1   22.14    1.25
  31   5   1   23.22    1.24
  31  -5  -1   22.77    1.24
  31   7  -1    1.26    0.58
  31  -7   1    1.46    0.57
  31  -7  -1    1.41    0.59
  31   7   1    1.63    0.57
  31  -9   1    7.79    0.73
  31   9  -1    7.86    0.73
  31  -9  -1    8.43    0.76
  31   9   1    8.31    0.74
  31  11  -1    2.83    0.59
  31 -11   1    3.73    0.62
  31 -11  -1    3.55    0.63
  31 -13   1   38.65    1.56
  31 -13  -1   38.62    1.58
  31 -15   1    1.98    0.58
  31 -15  -1    2.38    0.59
  31 -17   1   11.52    0.80
  31 -17  -1   12.53    0.82
  31 -19   1    6.24    0.63
  31 -19  -1    4.91    0.60
  31 -21   1    1.69    0.49
  31 -21  -1    1.74    0.48
  31 -23   1    0.54    0.42
  31 -23  -1    0.59    0.42
  31   1  -3   13.56    0.91
  31  -1   3   13.12    0.87
  31  -1  -3   16.43    1.11
  31   1   3   12.68    0.86
  31   3  -3    1.34    0.58
  31  -3   3    2.14    0.59
  31   3   3    1.54    0.55
  31  -3  -3    1.77    0.58
  31  -5   3   21.09    1.20
  31   5  -3   22.75    1.23
  31  -5  -3   22.22    1.21
  31   5   3   21.25    1.16
  31   7  -3   15.87    1.09
  31  -7   3   16.16    1.10
  31  -7  -3   15.56    1.09
  31   7   3   13.31    1.01
  31  -9   3    3.10    0.61
  31   9  -3    1.66    0.56
  31  -9  -3    2.50    0.61
  31 -11   3    5.40    0.66
  31  11  -3    5.41    0.65
  31 -11  -3    4.59    0.65
  31  13  -3    0.70    0.52
  31 -13   3    1.42    0.57
  31 -13  -3    1.26    0.56
  31  15  -3   -0.89    0.76
  31 -15   3    0.30    0.53
  31 -15  -3   -0.49    0.50
  31 -17   3    3.90    0.61
  31 -17  -3    2.93    0.58
  31 -19   3   -0.29    0.47
  31 -19  -3    0.47    0.47
  31 -21   3    0.03    0.45
  31 -21  -3    0.00    0.42
  31 -23   3    0.63    0.42
  31 -23  -3    0.63    0.42
  31   1  -5   24.60    1.29
  31  -1   5   21.79    1.21
  31   1   5   22.47    1.20
  31  -1  -5   22.04    1.27
  31   3  -5   21.86    1.24
  31  -3   5   22.20    1.21
  31  -3  -5   22.85    1.25
  31   3   5   23.18    1.21
  31  -5   5    0.38    0.54
  31   5  -5    0.40    0.54
  31   5   5    1.15    0.53
  31  -5  -5    0.18    0.54
  31  -7   5    0.28    0.52
  31   7  -5    0.56    0.54
  31  -7  -5    1.45    0.56
  31   9  -5   33.17    1.46
  31  -9   5   36.00    1.49
  31  -9  -5   35.96    1.48
  31 -11   5    0.94    0.55
  31  11  -5    1.19    0.55
  31 -11  -5    0.94    0.55
  31  13  -5   27.28    1.30
  31 -13   5   28.24    1.34
  31 -13  -5   29.80    1.33
  31 -15   5   -0.24    0.52
  31  15  -5   -0.08    0.49
  31 -15  -5   -0.37    0.50
  31  17  -5    0.76    0.71
  31 -17   5    1.00    0.52
  31 -17  -5    0.87    0.50
  31 -19   5    7.23    0.65
  31 -19  -5    7.90    0.64
  31 -21   5    3.69    0.53
  31 -21  -5    4.02    0.51
  31 -23   5    2.86    0.47
  31 -23  -5    2.73    0.63
  31   1  -7    0.72    0.57
  31  -1   7    1.54    0.55
  31  -1  -7    2.02    0.61
  31   1   7    0.97    0.53
  31  -3   7   17.99    1.07
  31   3  -7   14.51    1.05
  31  -3  -7   17.39    1.09
  31   3   7   15.43    1.04
  31  -5   7   -0.05    0.51
  31   5  -7    0.27    0.54
  31  -5  -7   -0.30    0.52
  31  -7   7   11.81    0.82
  31   7  -7   12.50    0.86
  31  -7  -7   12.76    0.86
  31  -9   7    4.58    0.64
  31   9  -7    5.28    0.68
  31  -9  -7    5.08    0.66
  31 -11   7    4.43    0.64
  31  11  -7    5.36    0.67
  31 -11  -7    4.24    0.63
  31 -13   7    4.28    0.63
  31  13  -7    5.36    0.66
  31 -13  -7    5.73    0.64
  31 -15   7   -0.07    0.52
  31  15  -7    0.03    0.52
  31 -15  -7    0.20    0.50
  31 -17   7    4.07    0.59
  31  17  -7    4.17    0.59
  31 -17  -7    4.72    0.59
  31 -19   7    0.33    0.48
  31 -19  -7    0.37    0.45
  31 -21   7    1.96    0.48
  31 -21  -7    1.94    0.46
  31 -23   7    0.51    0.41
  31  -1   9    9.61    0.74
  31   1  -9    9.03    0.77
  31   1   9    8.94    0.73
  31  -1  -9    7.30    0.76
  31   3  -9    1.66    0.57
  31  -3   9    2.05    0.55
  31  -3  -9    1.64    0.60
  31  -5   9   33.94    1.42
  31   5  -9   33.81    1.50
  31  -5  -9   35.72    1.50
  31  -7   9    5.35    0.62
  31   7  -9    5.44    0.67
  31  -7  -9    3.32    0.61
  31  -9   9    8.09    0.71
  31   9  -9    5.78    0.71
  31  -9  -9    6.35    0.68
  31 -11   9    0.75    0.52
  31  11  -9   -0.02    0.55
  31 -11  -9   -0.17    0.51
  31  13  -9    3.23    0.63
  31 -13   9    3.54    0.61
  31 -13  -9    3.97    0.60
  31  15  -9    2.47    0.58
  31 -15   9    2.56    0.55
   9  31  15    0.94    0.80
  31 -15  -9    2.67    0.56
  31  17  -9   15.74    1.01
  31 -17   9   17.14    1.03
  31 -17  -9   16.39    0.96
  31  19  -9   -0.55    0.47
  31 -19   9   -0.14    0.45
  31 -19  -9   -0.08    0.43
  31 -21   9    4.23    0.53
  31   1 -11    2.72    0.62
  31  -1  11    3.58    0.65
  31  -1 -11    2.54    0.62
  31   3 -11    5.53    0.68
  31  -3  11    4.43    0.59
  31  -3 -11    4.15    0.67
  31   5 -11    0.52    0.57
  31  -5  11    1.07    0.50
  31  -5 -11    0.65    0.56
  31  -7  11    4.47    0.60
  31   7 -11    4.55    0.67
  31  -7 -11    4.48    0.64
  31  -9  11    0.56    0.50
  31   9 -11    0.59    0.56
  31  -9 -11    0.93    0.54
  31 -11  11    1.24    0.52
  31  11 -11    0.18    0.59
  31 -11 -11    1.30    0.54
  31  13 -11    0.45    0.57
  31 -13  11   -0.57    0.47
  11  31  13    0.19    0.79
  31 -13 -11    0.07    0.48
  31 -15  11    0.87    0.50
  31  15 -11    1.56    0.59
  31 -15 -11    2.10    0.52
  11  31  15    0.44    0.76
  31 -17  11    1.18    0.49
  31  17 -11    2.03    0.56
  31 -17 -11    0.97    0.49
  31  19 -11    4.20    0.58
  31 -19  11    4.76    0.56
  31 -21  11    2.45    0.47
  31  21 -11    1.85    0.49
  21  11 -31    1.99    0.53
  31   1 -13   39.28    1.57
  31  -1 -13   35.61    1.55
  31   3 -13    1.20    0.59
  31  -3 -13    1.20    0.58
  31  -5  13   28.78    1.27
  31   5 -13   31.68    1.41
  31  -5 -13   27.86    1.36
  31   7 -13    6.15    0.72
  31  -7  13    4.34    0.59
  31  -7 -13    4.94    0.63
  31  -9  13    3.27    0.55
  31   9 -13    2.83    0.65
  31  -9 -13    4.14    0.60
  31 -11  13   -0.23    0.47
  31  11 -13   -0.51    0.58
  13  31  11    0.25    0.81
  31 -11 -13    0.02    0.50
  31 -13  13   45.08    1.59
  31  13 -13   43.31    1.67
  31 -13 -13   40.67    1.53
  13  31  13   39.17    1.91
  31  15 -13   11.59    0.83
  31 -15  13   13.03    0.92
  31 -15 -13   11.21    1.00
  13  31  15   11.58    1.02
  31  17 -13   24.72    1.20
  31 -17  13   25.45    1.13
  31  19 -13    8.07    0.67
  31 -19  13    8.76    0.63
  31   1 -15    2.90    0.61
  31  -1 -15    0.93    0.56
  31   3 -15    0.55    0.56
  31  -3 -15   -0.51    0.52
  31   5 -15    0.51    0.56
  31  -5 -15   -0.07    0.51
  31   7 -15   -0.33    0.54
  31  -7  15    0.23    0.46
  31  -7 -15   -0.29    0.49
  15  31   7    0.02    0.79
  31   9 -15    2.21    0.62
  31  -9  15    3.34    0.53
  15  31   9    2.60    0.84
  31  -9 -15    3.38    0.58
  31  11 -15    1.05    0.61
  31 -11  15    1.18    0.49
  15  31  11    0.61    0.77
  31 -11 -15    0.34    0.48
  31  13 -15   12.80    0.87
  31 -13  15   12.16    0.90
  15  31  13   10.52    1.01
  31  15 -15    4.66    0.67
  31 -15  15    4.58    0.55
  15  31  15    3.63    0.79
  31 -17  15    3.95    0.51
  31  17 -15    4.15    0.62
  31   1 -17   11.61    0.82
  17  31  -1   13.44    1.12
  31  -1 -17   12.01    0.83
  17  31   1   11.48    1.09
  17  31  -3    2.80    0.82
  31   3 -17    4.33    0.64
  31  -3 -17    3.78    0.61
  17  31   3    3.45    0.85
  17 -31   5   -0.06    0.40
  31   5 -17   -0.33    0.55
  17  31  -5    1.12    0.76
  31  -5 -17    0.63    0.51
  17  31   5   -0.65    0.78
  31   7 -17    4.81    0.67
  17  31  -7    4.91    0.83
  31  -7 -17    4.53    0.59
  17  31   7    5.48    0.90
  31   9 -17   16.35    1.13
  17  31  -9   14.59    1.05
  31  -9  17   15.73    0.94
  31  -9 -17   16.72    0.97
  17  31   9   16.13    1.15
  31  11 -17    0.97    0.60
  31 -11  17    0.48    0.45
  17  31  11    2.44    0.80
  31  13 -17   25.43    1.27
  31 -13  17   25.72    1.11
  17  31  13   26.02    1.51
  31 -15  17    3.20    0.49
  31  15 -17    4.07    0.63
  17  31  15    3.61    0.75
  31 -17  17    0.62    0.41
  31  17 -17   -0.42    0.49
  17  31  17   -0.22    0.63
  31   1 -19    4.11    0.62
  19  31  -1    5.73    0.88
  19  31   1    5.37    0.88
  31  -1 -19    5.92    0.66
  19  31  -3    0.71    0.74
  31   3 -19   -0.06    0.52
  19  31   3    1.14    0.77
  31  -3 -19   -0.41    0.49
  19 -31   5    7.99    0.58
  19  31  -5    6.78    0.89
  31   5 -19    8.02    0.73
  19  31   5    6.41    0.90
  31  -5 -19    9.34    0.69
  19  31  -7    0.16    0.69
  31   7 -19    0.29    0.54
  31  -7 -19    0.20    0.47
  19  31   7    0.99    0.78
  31   9 -19   -0.37    0.53
  19  31   9    0.29    0.74
  31  11 -19    3.70    0.62
  19  31  11    2.92    0.79
  31  13 -19    8.11    0.72
  31 -13  19    7.61    0.57
  19  31  13    8.68    0.88
  31   1 -21    2.14    0.53
  21  31  -1    1.64    0.80
  31  -1 -21    2.00    0.52
  21  31   1    1.51    0.80
  31   3 -21    0.36    0.50
  21  31  -3    0.63    0.75
  21  31   3   -0.27    0.74
  31  -3 -21    0.11    0.47
  21  31  -5    5.01    0.84
  31   5 -21    3.96    0.59
  21 -31   5    4.57    0.49
  31  -5 -21    3.87    0.54
  21  31   5    5.86    0.86
  21 -31   7    2.18    0.42
  21  31  -7    2.28    0.75
  31   7 -21    3.12    0.58
  21  31   7    1.43    0.77
  31   9 -21    4.82    0.63
  21  31   9    5.57    0.82
  31  11 -21    3.38    0.58
  21  31  11    0.91    0.68
  31   1 -23    0.38    0.46
  23  31  -1    0.99    0.69
  31  -1 -23    0.54    0.45
  23  31   1   -0.87    0.68
  23  31  -3    1.16    0.71
  31   3 -23    1.50    0.48
  23  31   3    0.82    0.71
  23  31  -5    1.40    0.68
  31   5 -23    2.56    0.51
  23 -31   5    2.80    0.42
  23  31   5    3.71    0.76
  31   7 -23    0.05    0.47
  23  31   7    0.13    0.66
  32   0   0  132.04    3.90
  32   2   0   -0.23    0.52
  32  -2   0    0.26    0.53
  32   4   0   58.75    2.02
  32  -4   0   55.54    2.01
  32   6   0    0.34    0.54
  32  -6   0   -0.58    0.53
  32  -8   0    2.22    0.60
  32   8   0    3.17    0.61
  32  10   0   -0.05    0.54
  32 -10   0    0.29    0.53
  32 -12   0   23.52    1.25
  32 -14   0   -0.32    0.52
  32 -16   0    6.24    0.66
  32 -18   0   -0.43    0.48
  32 -20   0    1.14    0.47
  32 -22   0   -0.61    0.40
  32   0  -2    0.50    0.55
  32   0   2   -0.10    0.52
  32  -2   2    3.26    0.61
  32   2  -2    3.10    0.62
  32  -2  -2    2.82    0.60
  32   2   2    2.12    0.57
  32   4  -2   11.68    0.87
  32  -4   2   13.53    0.91
  32  -4  -2   12.97    0.89
  32   4   2   13.91    1.01
  32  -6   2    9.68    0.80
  32   6  -2    9.86    0.80
  32   6   2   10.10    0.77
  32  -6  -2   10.98    0.82
  32   8  -2    6.56    0.71
  32  -8   2    6.90    0.70
  32  -8  -2    6.24    0.71
  32   8   2    6.25    0.66
  32 -10   2    9.86    0.80
  32  10  -2    9.19    0.78
  32 -10  -2    8.86    0.77
  32  12  -2    2.25    0.58
  32 -12   2    3.80    0.62
  32 -12  -2    1.26    0.57
  32 -14   2    1.99    0.58
  32 -14  -2    1.56    0.56
  32 -16   2    9.28    0.73
  32 -16  -2    9.02    0.73
  32 -18   2    0.08    0.49
  32 -18  -2    0.67    0.49
  32 -20   2   -0.11    0.45
  32 -20  -2   -0.09    0.43
  32 -22   2   -0.26    0.42
  32 -22  -2    0.21    0.40
  32   0  -4   57.03    2.05
  32   0   4   58.41    2.03
  32   2  -4   12.59    0.90
  32  -2   4   13.59    0.89
  32   2   4   14.86    0.90
  32  -2  -4   14.24    0.94
  32   4  -4    8.85    0.78
  32  -4   4    6.85    0.73
  32  -4  -4   10.01    0.79
  32   4   4   10.55    0.77
  32  -6   4    0.72    0.55
  32   6  -4    0.09    0.54
  32   6   4    0.64    0.52
  32  -6  -4    0.40    0.54
  32   8  -4   10.26    0.79
  32  -8   4    9.20    0.77
  32  -8  -4   12.10    0.87
  32  10  -4   19.06    1.14
  32 -10   4   19.49    1.15
  32 -10  -4   18.63    1.16
  32 -12   4   20.01    1.15
  32  12  -4   16.64    1.09
  32 -12  -4   18.26    1.12
  32  14  -4    3.25    0.58
  32 -14   4    4.01    0.62
  32 -14  -4    2.76    0.59
  32 -16   4    1.56    0.55
  32 -16  -4    2.30    0.55
  32 -18   4    7.44    0.66
  32 -18  -4    7.42    0.64
  32 -20   4    5.28    0.57
  32 -20  -4    5.17    0.55
  32 -22   4   12.45    0.80
  32 -22  -4    9.80    0.73
  32   0   6   -0.61    0.52
  32   0  -6   -0.24    0.54
  32   2  -6   10.99    0.86
  32  -2   6   10.30    0.79
  32  -2  -6   10.80    0.83
  32   2   6   10.81    0.79
  32  -4   6   -0.51    0.50
  32   4  -6    0.39    0.54
  32   4   6   -0.09    0.52
  32  -4  -6    0.34    0.54
  32  -6   6   41.87    1.63
  32   6  -6   40.89    1.64
  32  -6  -6   39.89    1.62
  32  -8   6    0.52    0.51
  32   8  -6   -0.37    0.52
  32  -8  -6   -0.52    0.52
  32 -10   6   30.84    1.38
  32  10  -6   32.00    1.42
  32 -10  -6   31.64    1.41
  32 -12   6    0.06    0.54
  32  12  -6   -0.09    0.53
  32 -12  -6    0.00    0.51
  32  14  -6    1.17    0.52
  32 -14   6    2.57    0.58
  32 -14  -6    1.70    0.56
  32 -16   6    0.77    0.51
  32  16  -6    0.39    0.49
  32 -16  -6   -0.25    0.48
  32 -18   6    0.16    0.48
  32 -18  -6    0.56    0.47
  32 -20   6    0.25    0.45
  32 -20  -6    0.07    0.42
  32 -22   6    1.14    0.43
  32   0   8    2.67    0.57
  32   0  -8    4.20    0.66
  32   2  -8    7.10    0.74
  32  -2   8    6.37    0.67
  32   2   8    6.52    0.70
  32  -2  -8    6.59    0.72
  32   4  -8   11.99    0.86
  32  -4   8   11.51    0.81
  32  -4  -8   10.71    0.83
  32   6  -8    0.38    0.54
  32  -6   8    0.49    0.52
  32  -6  -8    0.52    0.53
  32   8  -8    7.70    0.73
  32  -8   8    7.08    0.69
  32  -8  -8    7.66    0.72
  32  10  -8    9.73    0.78
  32 -10   8    9.97    0.77
  32 -10  -8    7.62    0.73
  32  12  -8    0.87    0.55
  32 -12   8    0.56    0.52
  32 -12  -8    1.11    0.53
  32  14  -8    2.71    0.58
  32 -14   8    2.88    0.57
   8  32  14    1.57    0.79
  32 -14  -8    1.37    0.54
  32 -16   8    4.98    0.60
  32  16  -8    5.35    0.63
  32 -16  -8    5.13    0.59
  32  18  -8    4.03    0.57
  32 -18   8    2.86    0.53
  32 -18  -8    3.19    0.51
  32 -20   8   16.84    0.91
  32 -20  -8   16.79    0.98
  32   0 -10   -0.76    0.57
  32   2 -10    7.23    0.74
  32  -2  10    8.79    0.71
  32  -2 -10    7.22    0.75
  32   4 -10   19.11    1.17
  32  -4  10   18.73    1.10
  32  -4 -10   18.34    1.15
  32  -6  10   31.53    1.35
  32   6 -10   32.04    1.42
  32  -6 -10   28.83    1.37
  32  -8  10    8.78    0.72
  32   8 -10    8.36    0.77
  32  -8 -10    7.99    0.73
  32 -10  10    8.08    0.71
  32  10 -10    7.58    0.71
  32 -10 -10    7.82    0.71
  32 -12  10    0.91    0.52
  32  12 -10    0.94    0.55
  32 -12 -10    1.04    0.51
  32  14 -10    8.61    0.73
  32 -14  10    9.12    0.70
  32 -14 -10    8.55    0.70
  10  32  14    8.58    0.96
  32 -16  10   12.06    0.77
  32  16 -10   11.76    0.79
  32 -16 -10   12.40    0.88
  32  18 -10    7.41    0.65
  32 -18  10    8.99    0.65
  32 -18 -10    8.18    0.65
  32 -20  10    0.85    0.44
  32  20 -10    0.97    0.47
  32   0 -12   22.15    1.24
  32   2 -12    2.31    0.60
  32  -2 -12    3.12    0.63
  32   4 -12   17.96    1.15
  32  -4  12   17.56    1.02
  32  -4 -12   16.26    1.10
  32  -6  12    0.04    0.48
  32   6 -12    0.12    0.56
  32  -6 -12   -0.29    0.51
  32  -8  12    1.11    0.51
  32   8 -12    0.74    0.57
  32  -8 -12    1.73    0.55
  32 -10  12    0.93    0.50
  32  10 -12    1.80    0.59
  12  32  10    2.41    0.85
  32 -10 -12    0.79    0.52
  32  12 -12   -0.04    0.54
  32 -12  12    0.00    0.49
  12  32  12   -0.11    0.75
  32 -12 -12   -0.69    0.45
  32  14 -12    0.32    0.54
  32 -14  12    0.72    0.48
  12  32  14    0.47    0.72
  32 -14 -12    0.18    0.46
  32 -16  12    4.15    0.54
  32  16 -12    3.51    0.60
  12  32  16    3.83    0.82
  32 -16 -12    4.01    0.65
  32 -18  12    0.85    0.45
  32  18 -12   -0.18    0.47
  32   0 -14   -0.47    0.54
  32   2 -14    2.32    0.59
  32  -2 -14    1.34    0.58
  32   4 -14    3.86    0.64
  32  -4 -14    3.16    0.60
  32   6 -14    1.65    0.59
  32  -6  14    2.22    0.50
  32  -6 -14    1.44    0.54
  32   8 -14    2.46    0.63
  32  -8  14    2.32    0.50
  32  -8 -14    2.57    0.56
  14  32   8    1.23    0.81
  32  10 -14    8.48    0.74
  32 -10  14    8.14    0.65
  32 -10 -14    8.90    0.70
  14  32  10    7.81    0.95
  32 -12  14    0.78    0.46
  32  12 -14    0.72    0.56
  32 -12 -14    0.66    0.46
  14  32  12    0.08    0.74
  32 -14  14   42.41    1.50
  32  14 -14   43.10    1.59
  14  32  14   39.25    1.82
  32 -16  14    3.66    0.52
  32  16 -14    3.56    0.58
  14  32  16    3.64    0.73
  32  18 -14   19.27    0.99
  32 -18  14   19.44    0.93
  32   0 -16    4.74    0.65
  32   2 -16    8.42    0.74
  32  -2 -16   10.05    0.76
  16  32   2    8.29    0.98
  32   4 -16    1.17    0.56
  32  -4 -16    1.38    0.53
  16  32   4    0.11    0.77
  32   6 -16    0.70    0.56
  32  -6 -16   -0.76    0.48
  16  32   6    0.53    0.78
  32  -8  16    5.15    0.57
  32   8 -16    6.55    0.69
  16  32  -8    5.27    0.82
  16  32   8    5.87    0.90
  32  -8 -16    6.00    0.61
  32 -10  16   10.99    0.71
  32  10 -16   10.72    0.79
  32 -10 -16   10.74    0.72
  16  32  10   12.71    1.04
  32 -12  16    4.59    0.54
  32  12 -16    4.36    0.63
  16  32  12    2.81    0.79
  32 -14  16    3.09    0.48
  32  14 -16    4.17    0.59
  16  32  14    2.74    0.72
  32 -16  16    0.32    0.39
  32  16 -16   -0.32    0.47
  16  32  16   -0.71    0.60
  32   0 -18    0.31    0.52
  18  32   0    0.43    0.75
  18  32  -2    0.71    0.75
  32   2 -18    0.71    0.52
  32  -2 -18    0.33    0.50
  18  32   2    0.24    0.75
  18  32  -4    6.62    0.89
  32   4 -18    8.36    0.71
  32  -4 -18    7.66    0.66
  18  32   4    8.51    0.95
  32   6 -18   -0.04    0.53
  18  32  -6   -0.40    0.69
  32  -6 -18    0.02    0.46
  18  32   6   -0.01    0.74
  32   8 -18    4.65    0.63
  18  32  -8    3.29    0.74
  18  32   8    2.52    0.79
  32  -8 -18    3.42    0.53
  32  10 -18    8.89    0.72
  18  32  10    6.11    0.87
  32  12 -18   -0.13    0.52
  32 -12  18    0.67    0.41
  18  32  12    1.66    0.70
  32  14 -18   21.72    1.06
  32 -14  18   18.15    0.88
  18  32  14   18.61    1.23
  20  32   0    1.40    0.74
  32   0 -20    1.39    0.52
  20  32  -2   -0.24    0.71
  32   2 -20    0.51    0.49
  32  -2 -20    0.62    0.48
  20  32   2    0.21    0.74
  20  32  -4    5.26    0.83
  32   4 -20    4.56    0.59
  20  32   4    5.19    0.86
  32  -4 -20    5.39    0.56
  20  32  -6    0.76    0.73
  32   6 -20    0.18    0.50
  20  32   6    0.95    0.75
  32  -6 -20    0.03    0.44
  32   8 -20   15.82    1.00
  20  32   8   17.26    1.34
  32  10 -20    1.46    0.53
  20  32  10    1.42    0.69
  22  32   0    0.28    0.69
  32   0 -22   -0.08    0.44
  32   2 -22   -0.17    0.45
  22  32  -2    0.03    0.66
  22  32   2   -0.18    0.68
  32  -2 -22   -0.26    0.42
  32   4 -22   11.69    0.81
  22  32  -4   10.15    0.89
  22  32   4    9.99    0.92
  22  32  -6    0.39    0.66
  32   6 -22    0.78    0.47
  22  32   6    1.42    0.71
  33   1  -1   10.90    0.82
  33  -1   1   13.29    0.88
  33  -1  -1   10.96    0.82
  33   1   1   12.13    0.84
  33  -3   1   30.72    1.43
  33   3  -1   31.71    1.44
  33   3   1   31.45    1.38
  33  -3  -1   30.50    1.42
  33  -5   1   -0.42    0.53
  33   5  -1   -0.21    0.53
  33   5   1   -0.25    0.52
  33  -5  -1    0.37    0.56
  33   7  -1   10.53    0.81
  33  -7   1   12.52    0.86
  33  -7  -1   12.02    0.87
  33   7   1   10.85    0.79
  33  -9   1    7.01    0.71
  33   9  -1    6.25    0.69
  33   9   1    6.76    0.68
  33  -9  -1    7.10    0.73
  33  11  -1   -0.48    0.51
  33 -11   1   -0.27    0.52
  33 -11  -1    0.34    0.54
  33 -13   1    1.57    0.56
  33 -13  -1    1.10    0.55
  33 -15   1    3.50    0.60
  33 -15  -1    3.09    0.59
  33 -17   1    0.32    0.49
  33 -17  -1    0.35    0.49
  33 -19   1   -0.13    0.44
  33 -19  -1    0.00    0.44
  33 -21   1    0.84    0.43
  33 -21  -1    0.33    0.42
  33  -1   3   31.89    1.42
  33   1  -3   30.96    1.43
  33   1   3   31.38    1.40
  33  -1  -3   31.29    1.42
  33  -3   3    7.01    0.72
  33   3  -3    6.55    0.72
  33  -3  -3    6.04    0.68
  33   3   3    6.26    0.68
  33   5  -3    3.75    0.65
  33  -5   3    5.03    0.67
  33  -5  -3    5.15    0.66
  33   5   3    5.85    0.65
  33  -7   3    8.93    0.76
  33   7  -3    9.83    0.79
  33  -7  -3    8.75    0.77
  33   7   3    8.27    0.71
  33   9  -3    5.32    0.68
  33  -9   3    5.42    0.68
  33  -9  -3    6.08    0.69
  33 -11   3   34.72    1.46
  33  11  -3   32.00    1.43
  33 -11  -3   32.74    1.42
  33  13  -3    2.91    0.59
  33 -13   3    4.65    0.64
  33 -13  -3    3.42    0.60
  33 -15   3    3.56    0.59
  33 -15  -3    3.64    0.58
  33 -17   3    0.91    0.51
  33 -17  -3    1.08    0.50
  33 -19   3    4.62    0.55
  33 -19  -3    4.41    0.54
  33 -21   3    8.10    0.60
  33 -21  -3    8.39    0.59
  33  -1   5   -0.09    0.51
  33   1  -5    0.57    0.57
  33  -1  -5    0.22    0.56
  33   1   5    0.87    0.55
  33  -3   5    6.14    0.68
  33   3  -5    4.66    0.69
  33  -3  -5    4.19    0.64
  33   3   5    5.55    0.66
  33  -5   5    7.09    0.70
  33   5  -5    5.99    0.72
  33   5   5    6.47    0.68
  33  -5  -5    6.96    0.71
  33   7  -5   11.48    0.86
  33  -7   5   12.45    0.84
  33  -7  -5   10.81    0.83
  33  -9   5    4.77    0.65
  33   9  -5    6.53    0.68
  33  -9  -5    4.28    0.65
  33 -11   5    9.10    0.76
  33  11  -5    8.68    0.74
  33 -11  -5   10.22    0.78
  33  13  -5    0.56    0.52
  33 -13   5    0.18    0.53
  33 -13  -5    1.19    0.53
  33  15  -5    0.35    0.50
  33 -15   5    0.18    0.51
  33 -15  -5    0.33    0.49
  33 -17   5    3.13    0.54
  33 -17  -5    2.89    0.52
  33 -19   5   -0.11    0.44
  33 -19  -5   -0.16    0.43
  33  -1   7   12.40    0.83
  33   1  -7   13.20    0.91
  33   1   7   12.35    0.82
  33  -1  -7   11.37    0.88
  33  -3   7    8.40    0.74
  33   3  -7    8.85    0.79
  33  -3  -7    8.95    0.75
  33   3   7    7.94    0.97
  33   5  -7   11.25    0.86
  33  -5   7   12.20    0.82
  33  -5  -7   11.04    0.82
  33  -7   7   53.98    1.94
  33   7  -7   55.71    1.98
  33  -7  -7   56.41    1.97
  33   9  -7    0.13    0.55
  33  -9   7   -0.33    0.52
  33  -9  -7   -0.03    0.52
  33 -11   7   38.66    1.54
  33  11  -7   37.76    1.52
  33 -11  -7   38.27    1.52
  33  13  -7    5.96    0.65
  33 -13   7    5.90    0.65
  33 -13  -7    5.30    0.64
  33  15  -7    0.44    0.49
  33 -15   7    0.55    0.49
  33 -15  -7    0.17    0.48
  33 -17   7    2.04    0.51
  33  17  -7    1.62    0.51
  33 -17  -7    1.47    0.48
  33 -19   7   25.17    1.09
  33 -19  -7   23.82    1.03
  33   1  -9    5.40    0.71
  33  -1   9    7.37    0.65
  33  -1  -9    5.04    0.68
  33   3  -9    6.54    0.72
  33  -3   9    6.19    0.64
  33  -3  -9    6.39    0.71
  33   5  -9    4.06    0.64
  33  -5   9    3.96    0.60
  33  -5  -9    4.90    0.64
  33  -7   9   -0.02    0.49
  33   7  -9   -0.34    0.53
  33  -7  -9    0.45    0.54
  33   9  -9    0.02    0.53
  33  -9   9    0.93    0.52
  33  -9  -9   -0.42    0.52
  33 -11   9    3.07    0.58
  33  11  -9    3.19    0.60
  33 -11  -9    2.89    0.56
  33 -13   9    1.03    0.51
  33  13  -9    0.16    0.51
  33 -13  -9    0.82    0.50
   9  33  13    0.62    0.76
  33 -15   9    1.54    0.51
  33  15  -9    1.29    0.52
  33 -15  -9    1.59    0.50
   9  33  15    1.01    0.72
  33  17  -9    0.22    0.46
  33 -17   9   -0.14    0.45
  33 -17  -9    0.83    0.44
  33 -19   9    1.45    0.45
  33  19  -9    0.38    0.45
  33   1 -11   -0.41    0.55
  33  -1 -11    0.12    0.56
  33  -3  11   31.43    1.32
  33   3 -11   30.50    1.43
  33  -3 -11   30.67    1.38
  33  -5  11    9.15    0.70
  33   5 -11    9.12    0.77
  33  -5 -11    8.20    0.72
  33   7 -11   37.79    1.57
  33  -7  11   37.53    1.46
  33  -7 -11   38.95    1.52
  33   9 -11    3.26    0.60
  33  -9  11    2.92    0.55
  33  -9 -11    2.67    0.58
  33 -11  11    2.20    0.52
  33  11 -11    1.08    0.57
  11  33  11    2.87    0.82
  33 -11 -11    2.40    0.54
  33 -13  11    6.58    0.62
  33  13 -11    4.81    0.63
  11  33  13    5.92    0.86
  33 -13 -11    5.59    0.60
  33 -15  11   14.83    0.92
  33  15 -11   12.95    0.94
  11  33  15   14.92    1.03
  33 -15 -11   15.23    0.88
  33 -17  11    2.82    0.50
  33  17 -11    3.93    0.55
  33   1 -13    0.71    0.58
  33  -1 -13    1.96    0.59
  33   3 -13    4.13    0.63
  33  -3 -13    2.33    0.58
  33  -5  13    0.10    0.46
  33   5 -13    1.15    0.56
  33  -5 -13    0.91    0.53
  33  -7  13    5.96    0.60
  33   7 -13    5.81    0.68
  33  -7 -13    5.61    0.62
  33  -9  13   -0.09    0.46
  33   9 -13    1.33    0.57
  33  -9 -13    0.99    0.52
  13  33   9    0.01    0.77
  33  11 -13    5.03    0.65
  33 -11  13    4.17    0.55
  13  33  11    5.72    0.86
  33 -11 -13    5.61    0.58
  33 -13  13    3.62    0.54
  33  13 -13    3.94    0.61
  13  33  13    2.84    0.76
  33 -13 -13    3.38    0.52
  33  15 -13    2.27    0.54
  33 -15  13    0.96    0.46
  13  33  15    1.49    0.69
  33   1 -15    3.01    0.62
  33  -1 -15    2.94    0.59
  33   3 -15    3.38    0.60
  15  33   3    4.35    0.87
  33  -3 -15    3.82    0.58
  33   5 -15   -0.12    0.53
  15  33   5    0.32    0.77
  33  -5 -15    0.52    0.49
  33  -7  15    0.73    0.48
  33   7 -15    0.28    0.52
  15  33   7    1.56    0.80
  33  -7 -15    0.97    0.49
  33  -9  15    1.08    0.46
  33   9 -15    1.22    0.56
  15  33  -9    1.61    0.73
  33  -9 -15    1.38    0.50
  15  33   9    3.11    0.81
  33  11 -15   14.05    0.87
  33 -11  15   14.92    0.87
  33 -11 -15   13.29    0.86
  15  33  11   15.84    1.08
  33 -13  15    1.74    0.45
  33  13 -15    1.61    0.53
  15  33  13    1.27    0.70
  33  15 -15   11.14    0.73
  33 -15  15   10.55    0.74
  15  33  15   10.20    0.86
  33   1 -17    0.05    0.52
  17  33  -1   -0.07    0.73
  33  -1 -17    0.52    0.51
  17  33   1    0.02    0.75
  33   3 -17    1.47    0.54
  17  33  -3    0.80    0.74
  33  -3 -17    1.24    0.51
  17  33   3    0.87    0.76
  17  33  -5    3.01    0.77
  33   5 -17    1.85    0.56
  17  33   5    3.45    0.82
  33  -5 -17    2.15    0.51
  17  33  -7    1.05    0.69
  33   7 -17    2.49    0.56
  17  33   7    1.75    0.77
  33  -7 -17    1.47    0.47
  33   9 -17    0.20    0.51
  33  -9 -17    0.40    0.44
  17  33   9    0.03    0.73
  33  11 -17    3.23    0.58
  33 -11  17    3.54    0.47
  17  33  11    2.94    0.73
  19  33  -1    0.31    0.70
  33   1 -19    0.12    0.48
  33  -1 -19   -0.05    0.45
  19  33   1   -0.84    0.69
  33   3 -19    4.52    0.60
  19  33  -3    3.82    0.77
  33  -3 -19    4.23    0.54
  19  33   3    5.01    0.86
  33   5 -19    0.69    0.50
  19  33  -5   -0.19    0.67
  33  -5 -19    0.86    0.45
  19  33   5    0.49    0.72
  19  33  -7   23.79    1.36
  33   7 -19   25.31    1.15
  19  33   7   26.78    1.50
  33  -7 -19   21.95    1.04
  33   9 -19    0.99    0.49
  19  33   9    1.29    0.71
  33   1 -21   -0.64    0.42
  21  33  -1    0.29    0.68
  21  33   1    0.44    0.68
  33  -1 -21    0.64    0.43
  21  33  -3    8.29    0.86
  33   3 -21    7.90    0.64
  33  -3 -21    8.57    0.59
  21  33   3    8.87    0.90
  34   0   0    0.07    0.54
  34   2   0    1.14    0.55
  34  -2   0    1.90    0.59
  34   4   0    0.34    0.52
  34  -4   0   -0.43    0.54
  34  -6   0   12.15    0.85
  34   6   0   13.25    0.85
  34   8   0    0.11    0.50
  34  -8   0    0.00    0.54
  34 -10   0    7.49    0.72
  34  10   0    7.98    0.68
  34 -12   0   -0.64    0.51
  34 -14   0    0.63    0.52
  34 -16   0    0.30    0.47
  34 -18   0   -0.32    0.43
  34   0   2    1.55    0.58
  34   0  -2    0.84    0.54
  34  -2   2   36.88    1.54
  34   2  -2   37.03    1.51
  34  -2  -2   35.16    1.51
  34   2   2   35.21    1.49
  34   4  -2   -0.58    0.52
  34  -4   2    0.00    0.54
  34   4   2   -0.04    0.52
  34  -4  -2   -0.66    0.53
  34   6  -2    2.23    0.59
  34  -6   2    2.63    0.59
  34   6   2    1.77    0.55
  34  -6  -2    1.72    0.60
  34  -8   2    7.81    0.73
  34   8  -2    9.32    0.74
  34   8   2    7.64    0.68
  34  -8  -2    9.78    0.76
  34 -10   2    7.65    0.72
  34  10  -2    6.33    0.66
  34 -10  -2    7.26    0.69
  34 -12   2    9.96    0.75
  34  12  -2    7.76    0.69
  34 -12  -2    8.83    0.72
  34 -14   2    3.19    0.59
  34 -14  -2    3.72    0.58
  34 -16   2    0.53    0.50
  34 -16  -2    1.02    0.50
  34 -18   2   -0.82    0.43
  34 -18  -2    0.10    0.44
  34   0  -4    0.07    0.53
  34   0   4   -0.18    0.52
  34   2  -4    0.43    0.56
  34  -2   4    0.47    0.54
  34  -2  -4    0.52    0.55
  34   2   4    0.24    0.53
  34  -4   4   23.98    1.23
  34   4  -4   20.98    1.24
  34  -4  -4   22.91    1.22
  34   4   4   21.05    1.15
  34   6  -4    0.22    0.56
  34  -6   4   -0.31    0.53
  34  -6  -4   -0.38    0.54
  34   6   4   -0.21    0.58
  34  -8   4   25.21    1.23
  34   8  -4   23.75    1.25
  34  -8  -4   23.11    1.24
  34 -10   4    0.57    0.54
  34  10  -4    0.02    0.53
  34 -10  -4    0.33    0.53
  34  12  -4    6.09    0.65
  34 -12   4    6.53    0.67
  34 -12  -4    5.10    0.65
  34 -14   4    1.54    0.54
  34  14  -4    1.88    0.54
  34 -14  -4    2.36    0.55
  34 -16   4    0.34    0.47
  34 -16  -4    0.48    0.47
  34 -18   4    1.81    0.48
  34 -18  -4    1.36    0.46
  34   0  -6   11.21    0.86
  34   0   6   13.92    1.02
  34  -2   6    2.49    0.58
  34   2  -6    2.72    0.63
  34  -2  -6    1.61    0.57
  34   2   6    2.62    0.57
  34  -4   6   -0.33    0.52
  34   4  -6    0.14    0.56
  34  -4  -6    0.74    0.53
  34  -6   6    2.57    0.58
  34   6  -6    2.68    0.62
  34  -6  -6    2.96    0.61
  34   8  -6   27.49    1.35
  34  -8   6   31.03    1.36
  34  -8  -6   29.13    1.34
  34 -10   6   11.72    0.80
  34  10  -6   10.52    0.80
  34 -10  -6   10.52    0.78
  34 -12   6   31.20    1.31
  34  12  -6   28.10    1.28
  34 -12  -6   29.18    1.29
  34  14  -6    2.90    0.57
  34 -14   6    2.71    0.56
   6  34  14    1.74    1.06
  34 -14  -6    4.06    0.57
  34  16  -6    1.77    0.51
  34 -16   6    1.65    0.49
  34 -16  -6    1.93    0.49
  34 -18   6    5.78    0.56
  34 -18  -6    4.71    0.52
  34   0  -8    0.07    0.55
  34   0   8   -0.65    0.48
  34   2  -8    9.86    0.79
  34  -2   8    7.81    0.69
  34  -2  -8    7.63    0.71
  34  -4   8   24.75    1.17
  34   4  -8   22.61    1.24
  34  -4  -8   22.35    1.20
  34   6  -8   27.98    1.34
  34  -6   8   27.77    1.27
  34  -6  -8   26.79    1.29
  34  -8   8   20.11    1.09
  34   8  -8   17.60    1.10
  34  -8  -8   17.93    1.10
  34 -10   8    6.87    0.65
  34  10  -8    8.35    0.71
  34 -10  -8    6.75    0.66
  34 -12   8    1.36    0.51
  34  12  -8    2.09    0.55
  34 -12  -8    1.41    0.52
  34  14  -8    1.66    0.52
  34 -14   8    1.65    0.50
  34 -14  -8    1.08    0.49
   8  34  14    1.30    0.71
  34 -16   8    1.27    0.46
  34  16  -8    0.76    0.47
  34 -16  -8    0.70    0.46
  34 -18   8    6.52    0.56
  34 -18  -8    5.69    0.53
  34   0 -10    7.41    0.74
  34  -2  10    8.04    0.67
  34   2 -10    6.69    0.73
  34  -2 -10    7.00    0.71
  34  -4  10    0.79    0.50
  34   4 -10    1.56    0.59
  34  -4 -10    0.76    0.52
  34  -6  10   11.17    0.77
  34   6 -10   10.86    0.82
  34  -6 -10   10.77    0.78
  34  -8  10    7.49    0.67
  34   8 -10    6.50    0.70
  34  -8 -10    7.97    0.70
  34  10 -10    0.98    0.55
  34 -10  10    1.14    0.49
  34 -10 -10    0.70    0.50
  34  12 -10   10.77    0.77
  34 -12  10    9.28    0.69
  34 -12 -10   10.79    0.73
  10  34  12   10.20    0.94
  34 -14  10    0.86    0.46
  34  14 -10   -0.44    0.49
  34 -14 -10   -0.18    0.44
  10  34  14    0.02    0.67
  34 -16  10   -0.42    0.42
  34  16 -10   -0.18    0.45
  34 -16 -10    0.18    0.41
  34   0 -12    0.22    0.52
  34   2 -12    8.00    0.75
  34  -2 -12    9.57    0.75
  34  -4  12    6.88    0.61
  34   4 -12    5.77    0.68
  34  -4 -12    5.80    0.64
  34   6 -12   29.07    1.31
  34  -6  12   27.29    1.19
  34  -6 -12   28.96    1.27
  34   8 -12    1.13    0.55
  34  -8  12    1.44    0.48
  34  -8 -12    1.58    0.53
  12  34   8    1.96    0.79
  34  10 -12   11.35    0.78
  34 -10  12   10.05    0.69
  34 -10 -12    9.53    0.70
  12  34  10   10.78    0.99
  34 -12  12    6.60    0.60
  34  12 -12    7.39    0.66
  34 -12 -12    5.85    0.59
  12  34  12    6.02    0.84
  34  14 -12    0.44    0.48
  34 -14  12    0.30    0.43
  34 -14 -12    1.00    0.44
  12  34  14   -0.43    0.64
  34   0 -14   -0.01    0.52
  34   2 -14    4.47    0.62
  34  -2 -14    2.52    0.56
  34   4 -14    0.40    0.54
  14  34   4    2.81    0.85
  34  -4 -14    1.32    0.52
  34   6 -14    3.02    0.59
  34  -6 -14    3.88    0.57
  14  34   6    2.68    0.81
  34   8 -14    1.16    0.55
  34  -8  14    1.22    0.45
  14  34   8    1.82    0.76
  34  -8 -14    1.47    0.51
  34 -10  14    0.07    0.42
  34  10 -14   -0.22    0.50
  34 -10 -14   -0.75    0.43
  14  34  10   -0.03    0.69
  34 -12  14    0.21    0.42
  34  12 -14    0.50    0.50
  34 -12 -14    0.50    0.44
  14  34  12    0.49    0.67
  16  34   0    0.92    0.76
  34   0 -16    0.79    0.50
  16  34  -2   -0.03    0.70
  34   2 -16    0.53    0.52
  16  34   2    1.05    0.76
  34  -2 -16    1.19    0.50
  34   4 -16    0.60    0.52
  16  34  -4   -0.54    0.70
  16  34   4    1.25    0.74
  34  -4 -16    0.17    0.46
  16  34  -6    3.97    0.77
  34   6 -16    2.30    0.55
  16  34   6    2.28    0.77
  34  -6 -16    1.51    0.48
  16  34  -8    0.08    0.66
  34   8 -16    1.37    0.52
  16  34   8    0.87    0.73
  34  -8 -16    2.08    0.48
  34 -10  16    0.51    0.41
  34  10 -16   -0.41    0.48
  16  34  10   -0.81    0.64
  34 -10 -16    0.32    0.42
  34   0 -18   -0.32    0.46
  18  34   0    0.00    0.69
  18  34  -2    0.47    0.68
  34   2 -18   -0.81    0.47
  18  34   2   -0.09    0.69
  34  -2 -18   -0.04    0.45
  34   4 -18    0.95    0.52
  18  34  -4    1.56    0.71
  18  34   4    1.08    0.72
  34  -4 -18    1.54    0.46
  18  34  -6    4.66    0.74
  34   6 -18    4.84    0.58
  34  -6 -18    4.33    0.51
  18  34   6    5.26    0.82
  34   8 -18    5.64    0.60
  34  -8 -18    4.97    0.51
  18  34   8    5.96    0.80
  35   1  -1    4.61    0.64
  35  -1   1    4.65    0.66
  35  -1  -1    5.52    0.65
  35   1   1    4.12    0.64
  35   3  -1    2.46    0.58
  35  -3   1    3.60    0.62
  35   3   1    2.77    0.57
  35  -3  -1    2.83    0.61
  35  -5   1    2.01    0.58
  35   5  -1    1.68    0.55
  35  -5  -1    1.99    0.58
  35   5   1    1.70    0.55
  35   7  -1    1.33    0.54
  35  -7   1    1.47    0.56
  35  -7  -1    1.63    0.58
  35   7   1    1.93    0.54
  35  -9   1   -0.16    0.52
  35   9  -1    0.03    0.49
  35  -9  -1   -0.01    0.51
  35 -11   1   10.46    0.76
  35 -11  -1    8.63    0.73
  35 -13   1   -1.03    0.48
  35 -13  -1    0.15    0.50
  35 -15   1    2.93    0.54
  35 -15  -1    1.89    0.51
  35 -17   1    1.33    0.46
  35 -17  -1    1.13    0.46
  35   1  -3    1.89    0.56
  35  -1   3    2.21    0.58
  35  -1  -3    1.51    0.57
  35   1   3    3.45    0.60
  35   3  -3   -0.07    0.51
  35  -3   3    0.61    0.54
  35   3   3   -0.19    0.51
  35  -3  -3   -0.50    0.53
  35  -5   3   15.30    1.04
  35   5  -3   12.40    0.84
  35   5   3   13.72    1.02
  35  -5  -3   15.31    1.07
  35  -7   3    0.62    0.54
  35   7  -3    0.14    0.51
  35  -7  -3   -0.24    0.53
  35  -9   3   16.10    1.04
  35   9  -3   15.11    1.04
  35  -9  -3   15.48    1.04
  35  11  -3    0.23    0.48
  35 -11   3   -0.11    0.52
  35 -11  -3   -0.40    0.51
  35 -13   3    7.25    0.66
  35 -13  -3    6.46    0.64
  35 -15   3    1.84    0.51
  35 -15  -3    2.87    0.52
  35 -17   3    0.68    0.44
  35 -17  -3    0.01    0.43
  35   1  -5    1.95    0.56
  35  -1   5    1.56    0.55
  35   1   5    1.40    0.53
  35  -1  -5    1.45    0.55
  35   3  -5   14.08    1.04
  35  -3   5   15.52    1.07
  35   3   5   14.03    1.01
  35  -3  -5   12.85    0.86
  35  -5   5   21.56    1.15
  35   5  -5   19.80    1.19
  35  -5  -5   21.41    1.19
  35  -7   5   -0.05    0.51
  35   7  -5    0.45    0.54
  35  -7  -5    0.00    0.52
  35   9  -5   44.00    1.68
  35  -9   5   47.65    1.68
  35  -9  -5   44.01    1.67
  35 -11   5   10.22    0.75
  35  11  -5   10.33    0.74
  35 -11  -5   10.63    0.75
  35 -13   5    7.21    0.65
  35  13  -5    5.80    0.61
  35 -13  -5    6.23    0.63
  35 -15   5    5.58    0.58
  35 -15  -5    4.70    0.56
  35 -17   5   14.18    0.82
  35 -17  -5   12.85    0.81
  35  -1   7    0.98    0.52
  35   1  -7    1.66    0.57
  35   1   7    1.80    0.55
  35  -1  -7    1.12    0.56
  35   3  -7    0.59    0.55
  35  -3   7    0.10    0.50
  35  -3  -7    0.11    0.52
  35   5  -7    0.55    0.54
  35  -5   7   -0.02    0.51
  35  -5  -7    0.87    0.54
  35   7  -7    2.33    0.58
  35  -7   7    2.60    0.57
  35  -7  -7    2.01    0.58
  35   9  -7    2.25    0.57
  35  -9   7    2.70    0.57
  35  -9  -7    3.23    0.56
  35 -11   7    2.58    0.55
  35  11  -7    3.02    0.57
  35 -11  -7    2.62    0.55
  35  13  -7    2.01    0.52
  35 -13   7    2.34    0.52
   7  35  13    1.48    0.72
  35 -13  -7    2.74    0.52
  35 -15   7    1.26    0.47
  35  15  -7    0.73    0.47
  35 -15  -7    0.03    0.43
  35  -1   9    0.03    0.48
  35   1  -9   -0.57    0.52
  35  -1  -9   -0.56    0.48
  35  -3   9   14.10    0.98
  35   3  -9   15.49    1.05
  35  -3  -9   16.04    1.02
  35  -5   9   43.59    1.64
  35   5  -9   44.83    1.69
  35  -5  -9   47.43    1.68
  35   7  -9    2.29    0.58
  35  -7   9    2.89    0.53
  35  -7  -9    1.85    0.55
  35  -9   9   45.44    1.63
  35   9  -9   43.66    1.65
  35  -9  -9   45.15    1.62
  35 -11   9    0.93    0.48
  35  11  -9    0.35    0.52
  35 -11  -9    0.58    0.49
   9  35  11    1.87    0.74
  35  13  -9    3.72    0.57
  35 -13   9    2.50    0.51
   9  35  13    3.02    0.73
  35 -13  -9    3.00    0.51
  35  15  -9    2.98    0.52
  35 -15   9    2.25    0.48
  35 -15  -9    2.07    0.45
  35   1 -11    7.62    0.71
  35  -1 -11    8.99    0.72
  35   3 -11    0.33    0.55
  35  -3  11    0.60    0.49
  35  -3 -11   -0.11    0.49
  35  -5  11   10.78    0.72
  35   5 -11   12.00    0.82
  35  -5 -11   11.20    0.77
  35   7 -11    2.90    0.60
  35  -7  11    3.02    0.52
  35  -7 -11    3.44    0.57
  35  -9  11    1.08    0.47
  35   9 -11    1.55    0.55
  35  -9 -11   -0.01    0.47
  11  35   9    1.74    0.75
  35 -11  11    8.29    0.64
  35  11 -11    9.03    0.70
  11  35  11    8.65    0.88
  35 -11 -11    8.53    0.65
  35  13 -11    0.78    0.49
  35 -13  11    0.82    0.44
  11  35  13   -0.53    0.61
  35 -13 -11   -0.18    0.41
  35   1 -13   -0.21    0.49
  35  -1 -13    0.24    0.49
  35   3 -13    5.51    0.65
  35  -3 -13    7.24    0.66
  35   5 -13    5.57    0.66
  35  -5 -13    6.69    0.62
  13  35   5    4.80    0.86
  35   7 -13    1.78    0.56
  35  -7  13    1.60    0.47
  13  35   7    1.63    0.77
  35  -7 -13    2.16    0.52
  35  -9  13    2.81    0.48
  35   9 -13    3.79    0.58
  35  -9 -13    3.91    0.53
  13  35   9    2.98    0.75
  35 -11  13   -0.55    0.40
  35  11 -13    0.57    0.49
  13  35  11    0.75    0.67
  35 -11 -13    0.37    0.44
  15  35  -1    2.72    0.78
  35   1 -15    2.60    0.55
  35  -1 -15    2.15    0.52
  15  35   1    2.86    0.79
  15  35  -3    2.72    0.78
  35   3 -15    2.46    0.55
  35  -3 -15    1.90    0.50
  15  35   3    2.00    0.77
  35   5 -15    4.25    0.60
  15  35  -5    3.73    0.76
  35  -5 -15    3.37    0.53
  15  35   5    4.17    0.82
  35   7 -15    0.91    0.51
  15  35  -7    0.48    0.67
  35  -7 -15    0.77    0.45
  15  35   7   -0.37    0.68
  35  -9  15    3.05    0.47
  35   9 -15    2.64    0.53
  15  35  -9    1.75    0.79
  35  -9 -15    2.24    0.47
  15  35   9    2.86    0.73
  35   1 -17    1.04    0.48
  17  35  -1    0.87    0.69
  35  -1 -17    1.38    0.47
  17  35   1    1.15    0.71
  35   3 -17   -0.69    0.45
  17  35  -3   -0.31    0.65
  35  -3 -17   -0.18    0.42
  17  35   3    0.42    0.69
  17  35  -5   11.41    0.91
  35   5 -17   12.67    0.88
  35  -5 -17   12.76    0.79
  17  35   5   10.88    0.96
  36   0   0    2.33    0.59
  36   2   0    0.14    0.53
  36  -2   0   -0.34    0.53
  36   4   0    1.73    0.54
  36  -4   0    1.11    0.55
  36   6   0    0.46    0.51
  36  -6   0   -0.62    0.51
  36  -8   0    0.69    0.53
  36   8   0    0.25    0.49
  36 -10   0   -0.19    0.49
  36 -12   0    0.57    0.49
  36 -14   0    0.08    0.47
  36   0   2   -0.86    0.50
  36   0  -2   -0.02    0.51
  36  -2   2    1.86    0.56
  36   2  -2    1.45    0.55
  36   2   2    1.12    0.54
  36  -2  -2    0.83    0.55
  36   4  -2    0.12    0.50
  36  -4   2    0.71    0.53
  36  -4  -2    1.52    0.56
  36   4   2    0.06    0.51
  36   6  -2    3.80    0.58
  36  -6   2    3.08    0.60
  36   6   2    3.25    0.57
  36  -6  -2    3.85    0.61
  36   8  -2    3.48    0.56
  36  -8   2    3.28    0.59
  36  -8  -2    4.15    0.60
  36  10  -2    0.67    0.47
  36 -10   2    1.36    0.53
  36 -10  -2    1.10    0.51
  36 -12   2   13.83    0.93
  36 -12  -2   13.58    0.93
  36 -14   2    0.13    0.47
  36 -14  -2    0.00    0.45
  36   0  -4    0.11    0.52
  36   0   4    1.45    0.54
  36   2  -4    0.15    0.52
  36  -2   4    0.46    0.52
  36   2   4    0.74    0.51
  36  -2  -4    0.41    0.53
  36   4  -4   -0.27    0.50
  36  -4   4    1.29    0.54
  36   4   4    1.32    0.51
  36  -4  -4   -0.34    0.51
  36  -6   4   17.01    1.04
  36   6  -4   16.54    1.06
  36  -6  -4   17.95    1.07
  36   8  -4    0.84    0.51
  36  -8   4    0.63    0.52
  36  -8  -4    0.64    0.51
  36 -10   4   33.95    1.35
  36  10  -4   32.03    1.31
  36 -10  -4   33.96    1.37
  36  12  -4    0.15    0.45
  36 -12   4    0.59    0.48
  36 -12  -4    0.90    0.50
  36 -14   4    3.18    0.53
  36 -14  -4    4.68    0.54
  36   0   6   -0.22    0.50
  36   0  -6   -0.21    0.50
  36   2  -6    3.06    0.59
  36  -2   6    4.00    0.59
  36  -2  -6    3.31    0.60
  36   2   6    3.09    0.58
  36   4  -6   15.91    1.02
  36  -4   6   15.66    0.99
  36  -4  -6   16.24    1.04
  36  -6   6   10.92    0.76
  36   6  -6   10.26    0.76
  36  -6  -6    9.47    0.76
  36  -8   6   11.43    0.76
  36   8  -6   11.35    0.77
  36  -8  -6   11.06    0.76
  36  10  -6    3.14    0.55
  36 -10   6    2.15    0.52
  36 -10  -6    3.88    0.56
  36  12  -6   -1.22    0.43
  36 -12   6    0.15    0.46
  36 -12  -6   -0.19    0.46
  36  14  -6    0.74    0.44
  36 -14   6    0.23    0.43
  36 -14  -6   -0.62    0.42
  36   0  -8   -0.40    0.49
  36   0   8    0.44    0.47
  36  -2   8    4.12    0.57
  36   2  -8    4.43    0.61
  36  -2  -8    4.23    0.59
  36   4  -8    0.46    0.52
  36  -4   8    0.08    0.48
  36  -4  -8    0.07    0.51
  36   6  -8   13.05    0.96
  36  -6   8   11.86    0.88
  36  -6  -8   11.88    0.80
  36  -8   8    3.61    0.55
  36   8  -8    3.28    0.58
  36  -8  -8    2.31    0.54
  36 -10   8   30.18    1.22
  36  10  -8   28.87    1.24
  36 -10  -8   29.00    1.23
  36  12  -8    1.22    0.48
  36 -12   8    1.74    0.47
  36 -12  -8    1.15    0.45
   8  36  12    1.09    0.67
  36   0 -10   -0.38    0.48
  36   2 -10    1.13    0.52
  36  -2 -10    1.41    0.53
  36  -4  10   31.53    1.29
  36   4 -10   33.16    1.37
  36  -4 -10   33.49    1.34
  36   6 -10    2.00    0.56
  36  -6  10    3.05    0.51
  36  -6 -10    2.10    0.54
  36  -8  10   30.10    1.17
  36   8 -10   28.34    1.24
  36  -8 -10   26.99    1.20
  36  10 -10    0.23    0.48
  36 -10  10    0.13    0.43
  36 -10 -10    0.67    0.46
  10  36  10    0.49    0.68
  36  12 -10    6.78    0.60
  36 -12  10    6.25    0.56
  36 -12 -10    6.00    0.56
  10  36  12    4.65    0.72
  36   0 -12    0.11    0.49
  36   2 -12   12.47    0.80
  36  -2 -12   12.35    0.90
  36   4 -12    1.31    0.51
  36  -4 -12   -0.15    0.47
  36  -6  12    0.16    0.42
  36   6 -12   -0.04    0.50
  12  36   6   -0.15    0.74
  36  -6 -12   -0.15    0.45
  36  -8  12    0.63    0.44
  36   8 -12    1.74    0.53
  36  -8 -12    0.75    0.47
  12  36   8    1.44    0.71
  36 -10  12    5.69    0.54
  36  10 -12    6.93    0.62
  36 -10 -12    5.60    0.55
  12  36  10    7.24    0.78
  36   0 -14   -0.69    0.44
  14  36   0   -1.62    0.69
  36   2 -14    0.75    0.48
  14  36  -2    0.16    0.72
  14  36   2    0.43    0.71
  36  -2 -14   -0.30    0.44
  14  36  -4    4.04    0.77
  36   4 -14    4.05    0.56
  36  -4 -14    3.92    0.54
  14  36   4    4.40    0.81
  14  36  -6    0.17    0.68
  36   6 -14    1.43    0.51
  36  -6 -14    0.47    0.44
  14  36   6   -0.44    0.66
  37   1  -1    0.82    0.52
  37  -1   1    1.10    0.52
  37  -1  -1    1.62    0.55
  37   1   1    0.21    0.51
  37   3  -1    0.08    0.51
  37  -3   1   -0.76    0.48
  37  -3  -1    0.34    0.51
  37   3   1    1.40    0.52
  37   5  -1    1.10    0.50
  37  -5   1    0.62    0.52
  37  -5  -1    0.57    0.52
  37   5   1    1.09    0.50
  37   7  -1    4.05    0.56
  37  -7   1    5.50    0.61
  37  -7  -1    4.50    0.60
  37   7   1    4.00    0.56
  37   9  -1    0.34    0.45
  37  -9   1   -0.42    0.47
  37  -9  -1    0.22    0.48
  37 -11   1   12.66    0.87
  37 -11  -1   11.42    0.75
  37 -13   1    0.04    0.44
  37 -13  -1   -0.08    0.44
  37  -1   3    0.46    0.51
  37   1  -3    0.66    0.51
  37   1   3   -0.41    0.49
  37  -1  -3   -0.49    0.49
  37   3  -3    1.85    0.54
  37  -3   3    1.96    0.55
  37   3   3    2.84    0.55
  37  -3  -3    2.31    0.56
  37  -5   3    0.60    0.50
  37   5  -3    0.27    0.49
  37  -5  -3    0.34    0.51
  37   5   3    0.28    0.48
  37  -7   3    6.66    0.64
  37   7  -3    5.72    0.60
  37  -7  -3    6.14    0.63
  37   9  -3    6.51    0.59
  37  -9   3    5.27    0.61
  37  -9  -3    4.93    0.60
  37  11  -3    0.14    0.43
  37 -11   3   -0.21    0.44
  37 -11  -3   -0.37    0.46
  37  -1   5   -0.07    0.48
  37   1  -5    0.97    0.52
  37  -1  -5    0.90    0.53
  37   1   5    0.75    0.52
  37   3  -5   -0.39    0.49
  37  -3   5   -0.31    0.47
  37   3   5    0.17    0.53
  37  -3  -5   -0.07    0.50
  37   5  -5    4.96    0.60
  37  -5   5    5.45    0.61
  37  -5  -5    4.71    0.61
  37  -7   5    5.03    0.59
  37   7  -5    2.92    0.54
  37  -7  -5    4.37    0.58
  37   9  -5    7.68    0.62
  37  -9   5    8.05    0.64
  37  -9  -5    5.73    0.62
  37 -11   5    7.86    0.63
  37  11  -5    6.84    0.58
  37 -11  -5    6.80    0.60
  37  -1   7    4.84    0.57
  37   1  -7    4.48    0.59
  37  -1  -7    4.41    0.60
  37   3  -7    5.70    0.61
  37  -3   7    5.99    0.61
  37  -3  -7    5.69    0.63
  37  -5   7    4.48    0.55
  37   5  -7    2.93    0.55
  37  -5  -7    2.37    0.54
  37   7  -7   33.22    1.30
  37  -7   7   31.03    1.27
  37  -7  -7   33.30    1.32
  37   9  -7    1.06    0.48
  37  -9   7    1.24    0.47
  37  -9  -7    1.34    0.49
  37  11  -7   13.70    0.83
  37 -11   7   14.84    0.85
   7  37  11   12.85    0.94
  37 -11  -7   13.91    0.82
  37   1  -9   -0.47    0.46
  37  -1  -9    0.11    0.49
  37   3  -9    4.48    0.58
  37  -3   9    5.73    0.56
  37  -3  -9    5.28    0.60
  37  -5   9    7.68    0.61
  37   5  -9    7.28    0.64
  37  -5  -9    6.78    0.64
  37   7  -9    1.16    0.50
  37  -7   9    1.48    0.46
  37  -7  -9    0.75    0.47
  37  -9   9   13.72    0.82
  37   9  -9   13.75    0.86
  37  -9  -9   12.90    0.85
   9  37   9   11.99    0.95
  37   1 -11   13.13    0.89
  37  -1 -11   11.99    0.87
  37   3 -11    0.27    0.47
  37  -3 -11    0.59    0.47
  37   5 -11    8.37    0.65
  37  -5  11    7.77    0.58
  37  -5 -11    7.65    0.63
  37  -7  11   13.32    0.82
  37   7 -11   14.16    0.89
  37  -7 -11   15.08    0.87
  11  37   7   13.77    1.00
  13  37  -1    0.71    0.71
  37   1 -13    0.73    0.46
  37  -1 -13    1.06    0.46
  13  37   1   -0.15    0.70
  38   0   0   -0.44    0.47
  38  -2   0    0.27    0.48
  38   2   0    0.24    0.48
  38   4   0   -0.15    0.45
  38  -4   0   -0.38    0.47
  38  -6   0    2.14    0.52
  38   6   0    2.48    0.51
  38  -8   0   -0.32    0.45
  38 -10   0   11.18    0.82
  38   0  -2   -0.16    0.48
  38   0   2    0.17    0.47
  38  -2   2    8.70    0.69
  38   2  -2    8.76    0.70
  38   2   2    8.46    0.66
  38  -2  -2    8.78    0.69
  38   4  -2    1.19    0.50
  38  -4   2    0.94    0.51
  38   4   2    0.12    0.46
  38  -4  -2    0.38    0.49
  38  -6   2   -0.43    0.45
  38   6  -2   -0.49    0.45
  38  -6  -2   -0.12    0.48
  38   8  -2    7.54    0.60
  38  -8   2    7.15    0.63
  38  -8  -2    7.20    0.63
  38   0   4    1.15    0.48
  38   0  -4    0.60    0.49
  38  -2   4    1.47    0.49
  38   2  -4    1.17    0.51
  38  -2  -4    1.60    0.52
  38   2   4    1.19    0.48
  38   4  -4    0.25    0.48
  38  -4   4    0.69    0.49
  38  -4  -4    1.12    0.49
  38   6  -4    1.33    0.48
  38  -6   4    1.97    0.50
  38  -6  -4    1.92    0.51
  38   8  -4   -0.44    0.43
  38  -8   4   -0.03    0.44
  38  -8  -4   -0.28    0.46
  38   0   6    2.02    0.48
  38   0  -6    2.17    0.53
  38   2  -6   -0.34    0.45
  38  -2   6   -0.32    0.45
  38  -2  -6    0.31    0.48
  38   4  -6    1.94    0.51
  38  -4   6    1.82    0.49
  38  -4  -6    1.96    0.52
  38   6  -6    0.22    0.46
  38  -6   6    0.45    0.44
  38  -6  -6    0.82    0.47
  38  -8   6   23.15    1.04
  38   8  -6   23.15    1.02
  38  -8  -6   23.01    1.06
  38   0  -8    0.54    0.47
  38   2  -8    7.09    0.63
  38  -2   8    6.97    0.57
  38  -2  -8    7.58    0.65
  38  -4   8    0.05    0.42
  38   4  -8    0.12    0.45
  38  -4  -8    0.03    0.45
  38   6  -8   23.01    1.05
  38  -6   8   22.87    1.00
  38  -6  -8   23.45    1.03
  38   0 -10    9.94    0.68
  39   1  -1    8.05    0.63
  39  -1   1    8.27    0.65
  39  -1  -1    8.49    0.64
  39   1   1    9.13    0.65
  39   3  -1    5.83    0.57
  39  -3   1    5.57    0.58
  39   3   1    5.75    0.56
  39  -3  -1    6.71    0.60
  39  -1   3    5.20    0.55
  39   1  -3    4.97    0.56
  39  -1  -3    5.48    0.58
  39   1   3    5.15    0.55
  39   3  -3    1.35    0.48
  39  -3   3    0.92    0.46
  39  -3  -3    2.07    0.48
  39   3   3    2.10    0.47
   0   0   0    0.00    0.00
;
_shelx_hkl_checksum              53278
_shelx_fab_file
;
    1    1    1   1059.51      0.00
    0    2    2    -20.57      0.00
    2    2    2   -551.45      0.00
    1    1    3   -210.67      0.00
    1    3    3    135.99      0.00
    3    3    3   -125.21      0.00
    2    2    4     89.09      0.00
    0    4    4    481.87      0.00
    2    4    4   -251.85      0.00
    4    4    4    254.47      0.00
    1    1    5    109.73      0.00
    1    3    5    105.91      0.00
    3    3    5   -223.11      0.00
    1    5    5    397.53      0.00
    3    5    5     94.34      0.00
    5    5    5      6.38      0.00
    0    2    6    188.51      0.00
    2    2    6   -123.05      0.00
    2    4    6    -94.81      0.00
    4    4    6   -136.54      0.00
    0    6    6    -71.17      0.00
    2    6    6     -2.42      0.00
    4    6    6    249.53      0.00
    6    6    6    -86.49      0.00
    1    1    7    -83.39      0.00
    1    3    7    139.32      0.00
    3    3    7   -143.13      0.00
    1    5    7    -36.25      0.00
    3    5    7     67.43      0.00
    5    5    7    -22.62      0.00
    1    7    7     46.83      0.00
    3    7    7     20.72      0.00
    5    7    7    -56.34      0.00
    7    7    7     65.97      0.00
    0    0    8    156.34      0.00
    2    2    8      1.67      0.00
    0    4    8   -109.46      0.00
    2    4    8     80.99      0.00
    4    4    8    -87.46      0.00
    2    6    8     13.83      0.00
    4    6    8   -113.32      0.00
    6    6    8     54.68      0.00
    0    8    8    401.24      0.00
    2    8    8    -75.96      0.00
    4    8    8    -15.66      0.00
    6    8    8     36.93      0.00
    8    8    8     59.43      0.00
    1    1    9    -13.45      0.00
    1    3    9    -20.77      0.00
    3    3    9    106.56      0.00
    1    5    9     55.88      0.00
    3    5    9    -63.04      0.00
    5    5    9    -47.49      0.00
    1    7    9    -49.49      0.00
    3    7    9    -33.68      0.00
    5    7    9     11.21      0.00
    7    7    9     46.30      0.00
    1    9    9     70.46      0.00
    3    9    9      3.90      0.00
    5    9    9     15.86      0.00
    7    9    9     26.54      0.00
    9    9    9   -142.91      0.00
    0    2   10     43.18      0.00
    2    2   10    -12.95      0.00
    2    4   10     57.87      0.00
    4    4   10    -17.43      0.00
    0    6   10    -62.03      0.00
    2    6   10     16.02      0.00
    4    6   10    -80.87      0.00
    6    6   10     16.90      0.00
    2    8   10     18.77      0.00
    4    8   10      6.08      0.00
    6    8   10     22.21      0.00
    8    8   10    -46.47      0.00
    0   10   10    -40.65      0.00
    2   10   10     -5.54      0.00
    4   10   10    129.33      0.00
    6   10   10    -46.91      0.00
    8   10   10     27.82      0.00
   10   10   10     -9.70      0.00
    1    1   11    -15.75      0.00
    1    3   11     23.14      0.00
    3    3   11    -12.99      0.00
    1    5   11      9.28      0.00
    3    5   11      2.04      0.00
    5    5   11    -29.47      0.00
    1    7   11    -24.77      0.00
    3    7   11    -29.47      0.00
    5    7   11     57.77      0.00
    7    7   11      5.92      0.00
    1    9   11    -55.26      0.00
    3    9   11     37.64      0.00
    5    9   11    -25.91      0.00
    7    9   11    -21.44      0.00
    9    9   11     49.94      0.00
    1   11   11     36.19      0.00
    3   11   11     -0.23      0.00
    5   11   11    -40.14      0.00
    7   11   11     14.31      0.00
    9   11   11    -39.63      0.00
   11   11   11     11.09      0.00
    0    0   12      0.87      0.00
    2    2   12    -23.84      0.00
    0    4   12    -42.12      0.00
    2    4   12     -1.59      0.00
    4    4   12    108.25      0.00
    2    6   12    -30.99      0.00
    4    6   12     -2.51      0.00
    6    6   12     41.05      0.00
    0    8   12    -77.63      0.00
    2    8   12     51.95      0.00
    4    8   12      9.75      0.00
    6    8   12    -22.31      0.00
    8    8   12    -14.64      0.00
    2   10   12     41.62      0.00
    4   10   12    -30.67      0.00
    6   10   12    -19.00      0.00
    8   10   12      0.13      0.00
   10   10   12     25.58      0.00
    0   12   12     85.50      0.00
    2   12   12      4.25      0.00
    4   12   12     -2.13      0.00
    6   12   12    -16.36      0.00
    8   12   12     -3.18      0.00
   10   12   12    -16.81      0.00
   12   12   12     32.08      0.00
    1    1   13    -47.93      0.00
    1    3   13    -14.23      0.00
    3    3   13      3.93      0.00
    1    5   13     16.22      0.00
    3    5   13      1.55      0.00
    5    5   13     -6.88      0.00
    1    7   13    -24.71      0.00
    3    7   13     55.47      0.00
    5    7   13    -24.78      0.00
    7    7   13      0.51      0.00
    1    9   13     48.22      0.00
    3    9   13     24.57      0.00
    5    9   13     -6.79      0.00
    7    9   13    -18.78      0.00
    9    9   13     15.29      0.00
    1   11   13     25.75      0.00
    3   11   13    -18.13      0.00
    5   11   13    -22.06      0.00
    7   11   13     -4.39      0.00
    9   11   13     -2.95      0.00
   11   11   13     -1.14      0.00
    1   13   13    -22.80      0.00
    3   13   13      0.12      0.00
    5   13   13     -2.12      0.00
    7   13   13     14.12      0.00
    9   13   13     -5.34      0.00
   11   13   13     33.69      0.00
   13   13   13    -60.76      0.00
    0    2   14    -33.37      0.00
    2    2   14      0.52      0.00
    2    4   14    -58.50      0.00
    4    4   14     47.31      0.00
    0    6   14     13.75      0.00
    2    6   14    -10.51      0.00
    4    6   14     47.26      0.00
    6    6   14    -17.60      0.00
    2    8   14     12.72      0.00
    4    8   14     -2.50      0.00
    6    8   14     17.46      0.00
    8    8   14     11.84      0.00
    0   10   14     -2.44      0.00
    2   10   14     34.45      0.00
    4   10   14    -52.03      0.00
    6   10   14      1.37      0.00
    8   10   14     -5.05      0.00
   10   10   14     11.98      0.00
    2   12   14    -59.48      0.00
    4   12   14     12.65      0.00
    6   12   14     27.33      0.00
    8   12   14    -12.57      0.00
   10   12   14     25.62      0.00
   12   12   14     -6.65      0.00
    0   14   14    -24.95      0.00
    2   14   14     -2.56      0.00
    4   14   14     21.72      0.00
    6   14   14    -25.27      0.00
    8   14   14     26.92      0.00
   10   14   14     -6.33      0.00
   12   14   14    -32.36      0.00
   14   14   14     -2.48      0.00
    1    1   15    -23.98      0.00
    1    3   15      8.59      0.00
    3    3   15     20.20      0.00
    1    5   15     -9.20      0.00
    3    5   15     -2.14      0.00
    5    5   15     12.37      0.00
    1    7   15      1.46      0.00
    3    7   15     24.35      0.00
    5    7   15     -6.62      0.00
    7    7   15    -20.62      0.00
    1    9   15     -5.06      0.00
    3    9   15     12.26      0.00
    5    9   15    -39.57      0.00
    7    9   15      4.94      0.00
    9    9   15     10.39      0.00
    1   11   15    -25.90      0.00
    3   11   15    -21.67      0.00
    5   11   15     28.18      0.00
    7   11   15      3.94      0.00
    9   11   15     11.35      0.00
   11   11   15     18.24      0.00
    1   13   15    -35.27      0.00
    3   13   15     35.07      0.00
    5   13   15     14.69      0.00
    7   13   15     -6.52      0.00
    9   13   15     15.57      0.00
   11   13   15    -26.33      0.00
   13   13   15      0.12      0.00
    1   15   15     -6.02      0.00
    3   15   15     13.00      0.00
    5   15   15     -5.45      0.00
    7   15   15     15.74      0.00
    9   15   15     -8.26      0.00
   11   15   15     -2.65      0.00
   13   15   15    -11.26      0.00
   15   15   15     38.57      0.00
    0    0   16     47.23      0.00
    2    2   16     -0.65      0.00
    0    4   16     20.66      0.00
    2    4   16     -8.45      0.00
    4    4   16    -59.92      0.00
    2    6   16     -4.56      0.00
    4    6   16     35.62      0.00
    6    6   16    -23.12      0.00
    0    8   16     69.83      0.00
    2    8   16    -11.04      0.00
    4    8   16     -6.18      0.00
    6    8   16    -34.03      0.00
    8    8   16     44.30      0.00
    2   10   16    -24.37      0.00
    4   10   16     -7.00      0.00
    6   10   16     -9.15      0.00
    8   10   16     -5.97      0.00
   10   10   16      2.23      0.00
    0   12   16    -67.65      0.00
    2   12   16     10.98      0.00
    4   12   16     -1.23      0.00
    6   12   16     12.98      0.00
    8   12   16     12.03      0.00
   10   12   16    -12.88      0.00
   12   12   16    -11.44      0.00
    2   14   16     13.41      0.00
    4   14   16      2.79      0.00
    6   14   16     -8.21      0.00
    8   14   16      5.07      0.00
   10   14   16     -3.81      0.00
   12   14   16      2.91      0.00
   14   14   16     26.36      0.00
    0   16   16     50.35      0.00
    2   16   16    -16.77      0.00
    4   16   16     -6.07      0.00
    6   16   16     29.77      0.00
    8   16   16     -2.62      0.00
   10   16   16     -4.43      0.00
   12   16   16     29.31      0.00
   14   16   16     -3.65      0.00
   16   16   16    -44.00      0.00
    1    1   17      8.02      0.00
    1    3   17     -8.57      0.00
    3    3   17      1.99      0.00
    1    5   17    -25.61      0.00
    3    5   17     21.25      0.00
    5    5   17     22.34      0.00
    1    7   17     23.14      0.00
    3    7   17      1.08      0.00
    5    7   17    -28.45      0.00
    7    7   17    -18.63      0.00
    1    9   17    -31.03      0.00
    3    9   17    -20.01      0.00
    5    9   17      4.86      0.00
    7    9   17     19.36      0.00
    9    9   17     -2.44      0.00
    1   11   17    -18.46      0.00
    3   11   17     18.79      0.00
    5   11   17     16.86      0.00
    7   11   17     33.52      0.00
    9   11   17     19.11      0.00
   11   11   17    -25.16      0.00
    1   13   17     15.71      0.00
    3   13   17      4.91      0.00
    5   13   17      0.70      0.00
    7   13   17    -21.27      0.00
    9   13   17     -4.31      0.00
   11   13   17    -16.13      0.00
   13   13   17      5.04      0.00
    1   15   17     11.30      0.00
    3   15   17    -14.67      0.00
    5   15   17      0.55      0.00
    7   15   17     -4.12      0.00
    9   15   17     -8.67      0.00
   11   15   17     12.52      0.00
   13   15   17      8.07      0.00
   15   15   17    -25.50      0.00
    1   17   17    -13.79      0.00
    3   17   17      6.15      0.00
    5   17   17      4.03      0.00
    7   17   17    -19.75      0.00
    9   17   17     -2.74      0.00
   11   17   17     36.32      0.00
   13   17   17    -14.35      0.00
   15   17   17     32.16      0.00
   17   17   17     21.15      0.00
    0    2   18     55.94      0.00
    2    2   18    -18.77      0.00
    2    4   18     17.40      0.00
    4    4   18      4.47      0.00
    0    6   18    -11.93      0.00
    2    6   18     19.79      0.00
    4    6   18    -21.64      0.00
    6    6   18    -12.69      0.00
    2    8   18     -6.85      0.00
    4    8   18    -10.63      0.00
    6    8   18      0.48      0.00
    8    8   18     20.76      0.00
    0   10   18      7.26      0.00
    2   10   18    -24.57      0.00
    4   10   18     22.67      0.00
    6   10   18     -8.46      0.00
    8   10   18      7.32      0.00
   10   10   18    -41.61      0.00
    2   12   18     12.78      0.00
    4   12   18     -8.55      0.00
    6   12   18    -18.31      0.00
    8   12   18      1.57      0.00
   10   12   18      4.14      0.00
   12   12   18     -0.52      0.00
    0   14   18     -2.45      0.00
    2   14   18      9.45      0.00
    4   14   18    -22.45      0.00
    6   14   18      9.45      0.00
    8   14   18    -19.98      0.00
   10   14   18    -11.24      0.00
   12   14   18     20.11      0.00
   14   14   18      9.17      0.00
    2   16   18     -7.35      0.00
    4   16   18     18.24      0.00
    6   16   18     -7.65      0.00
    8   16   18     -8.38      0.00
   10   16   18      2.29      0.00
   12   16   18      0.41      0.00
   14   16   18     -9.91      0.00
   16   16   18     12.51      0.00
    0   18   18     -2.52      0.00
    2   18   18     18.72      0.00
    4   18   18     10.66      0.00
    6   18   18    -10.37      0.00
    8   18   18     14.91      0.00
   10   18   18      4.80      0.00
   12   18   18    -25.45      0.00
   14   18   18     27.19      0.00
   16   18   18      6.68      0.00
   18   18   18     10.87      0.00
    1    1   19     11.54      0.00
    1    3   19      0.20      0.00
    3    3   19     18.81      0.00
    1    5   19     -0.19      0.00
    3    5   19     -2.22      0.00
    5    5   19     -6.02      0.00
    1    7   19    -16.86      0.00
    3    7   19    -21.69      0.00
    5    7   19      2.00      0.00
    7    7   19      1.09      0.00
    1    9   19     -4.58      0.00
    3    9   19    -21.93      0.00
    5    9   19      8.12      0.00
    7    9   19     18.36      0.00
    9    9   19    -21.87      0.00
    1   11   19    -11.59      0.00
    3   11   19     24.85      0.00
    5   11   19     -5.84      0.00
    7   11   19      0.99      0.00
    9   11   19     -5.12      0.00
   11   11   19     16.88      0.00
    1   13   19      5.71      0.00
    3   13   19      2.41      0.00
    5   13   19     -7.91      0.00
    7   13   19     -2.94      0.00
    9   13   19    -16.69      0.00
   11   13   19      1.76      0.00
   13   13   19     18.03      0.00
    1   15   19      2.10      0.00
    3   15   19     11.47      0.00
    5   15   19     23.89      0.00
    7   15   19    -36.21      0.00
    9   15   19     -4.41      0.00
   11   15   19      9.27      0.00
   13   15   19    -16.69      0.00
   15   15   19    -13.42      0.00
    1   17   19      0.98      0.00
    3   17   19      8.20      0.00
    5   17   19     -5.36      0.00
    7   17   19     -7.89      0.00
    9   17   19     15.90      0.00
   11   17   19      2.85      0.00
   13   17   19     -8.70      0.00
   15   17   19    -20.93      0.00
   17   17   19     22.24      0.00
    1   19   19    -11.69      0.00
    3   19   19     10.05      0.00
    5   19   19    -15.95      0.00
    7   19   19     21.09      0.00
    9   19   19     10.20      0.00
   11   19   19     -8.40      0.00
   13   19   19    -28.32      0.00
   15   19   19     20.68      0.00
   17   19   19     -0.36      0.00
   19   19   19     24.27      0.00
    0    0   20    -52.18      0.00
    2    2   20     40.39      0.00
    0    4   20      3.93      0.00
    2    4   20      1.76      0.00
    4    4   20     26.99      0.00
    2    6   20     -0.20      0.00
    4    6   20    -34.20      0.00
    6    6   20      5.66      0.00
    0    8   20    -30.89      0.00
    2    8   20     19.11      0.00
    4    8   20     11.07      0.00
    6    8   20     33.44      0.00
    8    8   20    -31.82      0.00
    2   10   20     -8.81      0.00
    4   10   20     20.54      0.00
    6   10   20      0.99      0.00
    8   10   20    -12.41      0.00
   10   10   20      8.57      0.00
    0   12   20     43.87      0.00
    2   12   20    -14.82      0.00
    4   12   20      8.29      0.00
    6   12   20    -12.71      0.00
    8   12   20     16.61      0.00
   10   12   20    -16.04      0.00
   12   12   20     11.69      0.00
    2   14   20      3.80      0.00
    4   14   20     13.83      0.00
    6   14   20     -0.60      0.00
    8   14   20      4.26      0.00
   10   14   20    -13.82      0.00
   12   14   20     -2.05      0.00
   14   14   20     -1.36      0.00
    0   16   20    -31.72      0.00
    2   16   20     17.42      0.00
    4   16   20    -16.09      0.00
    6   16   20    -21.41      0.00
    8   16   20      3.24      0.00
   10   16   20     12.35      0.00
   12   16   20     -7.92      0.00
   14   16   20     -0.14      0.00
   16   16   20      0.73      0.00
    2   18   20    -17.69      0.00
    4   18   20     -2.26      0.00
    6   18   20      0.66      0.00
    8   18   20     25.94      0.00
   10   18   20     -2.68      0.00
   12   18   20    -11.90      0.00
   14   18   20      8.48      0.00
   16   18   20    -30.52      0.00
   18   18   20     -4.74      0.00
    0   20   20     53.04      0.00
    2   20   20    -42.32      0.00
    4   20   20     13.39      0.00
    6   20   20     23.87      0.00
    8   20   20    -14.52      0.00
   10   20   20     -4.66      0.00
   12   20   20      2.80      0.00
   14   20   20    -25.53      0.00
   16   20   20    -11.36      0.00
   18   20   20     49.37      0.00
   20   20   20    -25.76      0.00
    1    1   21     16.50      0.00
    1    3   21     16.49      0.00
    3    3   21      3.80      0.00
    1    5   21     16.71      0.00
    3    5   21     -6.25      0.00
    5    5   21    -33.48      0.00
    1    7   21      7.42      0.00
    3    7   21    -19.44      0.00
    5    7   21     20.36      0.00
    7    7   21     27.59      0.00
    1    9   21    -13.38      0.00
    3    9   21     19.64      0.00
    5    9   21     18.40      0.00
    7    9   21    -16.64      0.00
    9    9   21     -6.89      0.00
    1   11   21     -6.80      0.00
    3   11   21     19.47      0.00
    5   11   21     19.71      0.00
    7   11   21      0.50      0.00
    9   11   21     -2.65      0.00
   11   11   21     16.75      0.00
    1   13   21    -10.25      0.00
    3   13   21     14.83      0.00
    5   13   21     -2.46      0.00
    7   13   21     27.30      0.00
    9   13   21     -2.24      0.00
   11   13   21      5.17      0.00
   13   13   21      8.78      0.00
    1   15   21      6.10      0.00
    3   15   21    -20.66      0.00
    5   15   21    -14.01      0.00
    7   15   21     -6.07      0.00
    9   15   21     14.45      0.00
   11   15   21     -9.77      0.00
   13   15   21      2.31      0.00
   15   15   21     -7.63      0.00
    1   17   21    -18.25      0.00
    3   17   21    -27.85      0.00
    5   17   21     -3.55      0.00
    7   17   21      6.26      0.00
    9   17   21      9.97      0.00
   11   17   21     10.54      0.00
   13   17   21     10.46      0.00
   15   17   21     -1.62      0.00
   17   17   21    -19.81      0.00
    1   19   21    -13.44      0.00
    3   19   21    -16.32      0.00
    5   19   21     24.05      0.00
    7   19   21     -6.41      0.00
    9   19   21    -24.69      0.00
   11   19   21      7.19      0.00
   13   19   21     20.45      0.00
   15   19   21     -3.59      0.00
   17   19   21     -3.69      0.00
   19   19   21     -2.02      0.00
    1   21   21     45.19      0.00
    3   21   21     -0.47      0.00
    5   21   21     10.42      0.00
    7   21   21    -21.02      0.00
    9   21   21     -9.54      0.00
   11   21   21     19.81      0.00
   13   21   21     -9.24      0.00
   15   21   21     29.16      0.00
   17   21   21    -12.66      0.00
   19   21   21     11.42      0.00
   21   21   21     -4.18      0.00
    0    2   22    -53.37      0.00
    2    2   22     15.94      0.00
    2    4   22    -25.22      0.00
    4    4   22    -30.65      0.00
    0    6   22    -20.54      0.00
    2    6   22    -14.27      0.00
    4    6   22      8.98      0.00
    6    6   22     -4.98      0.00
    2    8   22     14.69      0.00
    4    8   22     28.96      0.00
    6    8   22     -6.06      0.00
    8    8   22    -18.57      0.00
    0   10   22    -22.79      0.00
    2   10   22     -0.63      0.00
    4   10   22    -31.10      0.00
    6   10   22      0.38      0.00
    8   10   22      0.71      0.00
   10   10   22      2.72      0.00
    2   12   22      1.02      0.00
    4   12   22    -11.31      0.00
    6   12   22      2.39      0.00
    8   12   22    -25.83      0.00
   10   12   22      0.88      0.00
   12   12   22     10.55      0.00
    0   14   22     31.92      0.00
    2   14   22     -5.40      0.00
    4   14   22     13.55      0.00
    6   14   22      4.25      0.00
    8   14   22     43.44      0.00
   10   14   22      1.95      0.00
   12   14   22     13.02      0.00
   14   14   22     20.21      0.00
    2   16   22      4.56      0.00
    4   16   22    -11.10      0.00
    6   16   22     -5.08      0.00
    8   16   22      8.20      0.00
   10   16   22     -1.53      0.00
   12   16   22    -22.63      0.00
   14   16   22     -5.00      0.00
   16   16   22     10.45      0.00
    0   18   22     13.93      0.00
    2   18   22     -1.78      0.00
    4   18   22      5.80      0.00
    6   18   22     17.42      0.00
    8   18   22    -10.92      0.00
   10   18   22     -8.21      0.00
   12   18   22     38.51      0.00
   14   18   22    -14.09      0.00
   16   18   22     -3.08      0.00
   18   18   22     -6.46      0.00
    2   20   22     -3.61      0.00
    4   20   22      2.09      0.00
    6   20   22    -19.82      0.00
    8   20   22    -10.02      0.00
   10   20   22     14.00      0.00
   12   20   22      6.74      0.00
   14   20   22     10.50      0.00
   16   20   22     -5.88      0.00
   18   20   22     -0.20      0.00
   20   20   22     -9.99      0.00
    0   22   22    -37.58      0.00
    2   22   22      7.37      0.00
    4   22   22      5.07      0.00
    6   22   22     -7.16      0.00
    8   22   22    -12.44      0.00
   10   22   22     13.24      0.00
   12   22   22     -1.39      0.00
   14   22   22    -10.74      0.00
   16   22   22     26.12      0.00
   18   22   22    -11.71      0.00
   20   22   22    -18.51      0.00
   22   22   22     -2.71      0.00
    1    1   23     31.89      0.00
    1    3   23    -15.79      0.00
    3    3   23     -0.84      0.00
    1    5   23     10.19      0.00
    3    5   23     -5.09      0.00
    5    5   23      7.21      0.00
    1    7   23    -10.69      0.00
    3    7   23     12.65      0.00
    5    7   23    -22.67      0.00
    7    7   23     16.02      0.00
    1    9   23    -26.10      0.00
    3    9   23     11.98      0.00
    5    9   23     -2.34      0.00
    7    9   23    -16.59      0.00
    9    9   23     14.46      0.00
    1   11   23     -0.39      0.00
    3   11   23      0.26      0.00
    5   11   23    -23.86      0.00
    7   11   23     -1.23      0.00
    9   11   23      7.91      0.00
   11   11   23    -14.90      0.00
    1   13   23      5.36      0.00
    3   13   23      4.68      0.00
    5   13   23    -17.65      0.00
    7   13   23    -11.73      0.00
    9   13   23    -26.52      0.00
   11   13   23     15.55      0.00
   13   13   23    -11.67      0.00
    1   15   23    -19.05      0.00
    3   15   23     -7.56      0.00
    5   15   23    -13.82      0.00
    7   15   23     18.82      0.00
    9   15   23      4.44      0.00
   11   15   23    -12.59      0.00
   13   15   23     -9.49      0.00
   15   15   23     20.46      0.00
    1   17   23      5.40      0.00
    3   17   23     -6.79      0.00
    5   17   23      4.01      0.00
    7   17   23     17.71      0.00
    9   17   23     -6.48      0.00
   11   17   23    -25.15      0.00
   13   17   23     -3.64      0.00
   15   17   23     -0.88      0.00
   17   17   23      7.06      0.00
    1   19   23      8.12      0.00
    3   19   23     -1.24      0.00
    5   19   23     39.34      0.00
    7   19   23     -8.36      0.00
    9   19   23    -12.36      0.00
   11   19   23    -15.34      0.00
   13   19   23     -7.28      0.00
   15   19   23    -11.71      0.00
   17   19   23     14.43      0.00
   19   19   23     -7.34      0.00
    1   21   23      8.48      0.00
    3   21   23     11.13      0.00
    5   21   23     -9.58      0.00
    7   21   23     -3.51      0.00
    9   21   23      4.23      0.00
   11   21   23      0.52      0.00
   13   21   23    -17.80      0.00
   15   21   23     -3.36      0.00
   17   21   23     -3.36      0.00
   19   21   23      0.46      0.00
   21   21   23     -0.56      0.00
    1   23   23     21.23      0.00
    3   23   23      9.59      0.00
    5   23   23     19.70      0.00
    7   23   23     25.18      0.00
    9   23   23    -18.57      0.00
   11   23   23    -27.46      0.00
   13   23   23     21.03      0.00
   15   23   23     33.83      0.00
   17   23   23     17.55      0.00
   19   23   23     -2.50      0.00
   21   23   23    -11.14      0.00
    0    0   24      2.21      0.00
    2    2   24     -9.80      0.00
    0    4   24     -8.84      0.00
    2    4   24      6.80      0.00
    4    4   24     -9.81      0.00
    2    6   24      1.55      0.00
    4    6   24     13.13      0.00
    6    6   24     -4.44      0.00
    0    8   24     11.81      0.00
    2    8   24      0.83      0.00
    4    8   24     35.36      0.00
    6    8   24    -10.68      0.00
    8    8   24     18.95      0.00
    2   10   24      2.57      0.00
    4   10   24     -4.99      0.00
    6   10   24      4.26      0.00
    8   10   24     -0.72      0.00
   10   10   24    -14.61      0.00
    0   12   24     21.54      0.00
    2   12   24      8.86      0.00
    4   12   24    -27.19      0.00
    6   12   24     -5.51      0.00
    8   12   24     -9.40      0.00
   10   12   24      1.60      0.00
   12   12   24      5.82      0.00
    2   14   24    -19.54      0.00
    4   14   24     27.22      0.00
    6   14   24     -3.18      0.00
    8   14   24      3.43      0.00
   10   14   24     19.72      0.00
   12   14   24      8.79      0.00
   14   14   24     -7.66      0.00
    0   16   24     -2.86      0.00
    2   16   24    -12.05      0.00
    4   16   24     24.35      0.00
    6   16   24      6.89      0.00
    8   16   24    -17.86      0.00
   10   16   24    -21.43      0.00
   12   16   24     -0.36      0.00
   14   16   24     -1.67      0.00
   16   16   24     27.13      0.00
    2   18   24     24.34      0.00
    4   18   24      8.46      0.00
    6   18   24    -16.05      0.00
    8   18   24      3.05      0.00
   10   18   24     -4.12      0.00
   12   18   24     14.77      0.00
   14   18   24      1.62      0.00
   16   18   24      4.37      0.00
   18   18   24     -4.80      0.00
    0   20   24     -7.57      0.00
    2   20   24     12.42      0.00
    4   20   24    -23.99      0.00
    6   20   24     -5.14      0.00
    8   20   24     22.29      0.00
   10   20   24      7.79      0.00
   12   20   24     -4.60      0.00
   14   20   24      6.93      0.00
   16   20   24     20.57      0.00
   18   20   24     -6.99      0.00
   20   20   24     -3.13      0.00
    2   22   24    -21.37      0.00
    4   22   24     -4.95      0.00
    6   22   24     -8.94      0.00
    8   22   24      1.97      0.00
   10   22   24    -19.95      0.00
   12   22   24      4.95      0.00
   14   22   24     14.38      0.00
   16   22   24    -37.69      0.00
   18   22   24    -11.49      0.00
   20   22   24     30.93      0.00
   22   22   24    -12.15      0.00
    0   24   24    -14.86      0.00
    2   24   24     -3.88      0.00
    4   24   24     -2.48      0.00
    6   24   24     17.42      0.00
    8   24   24    -10.55      0.00
   10   24   24      0.53      0.00
   12   24   24     16.54      0.00
   14   24   24     -7.52      0.00
   16   24   24    -14.17      0.00
   18   24   24    -14.90      0.00
    1    1   25    -12.10      0.00
    1    3   25    -10.31      0.00
    3    3   25      8.06      0.00
    1    5   25     -8.25      0.00
    3    5   25      6.15      0.00
    5    5   25     10.18      0.00
    1    7   25     10.75      0.00
    3    7   25      3.81      0.00
    5    7   25      6.45      0.00
    7    7   25      1.17      0.00
    1    9   25      7.24      0.00
    3    9   25      8.44      0.00
    5    9   25    -13.55      0.00
    7    9   25     13.77      0.00
    9    9   25     21.03      0.00
    1   11   25     13.88      0.00
    3   11   25     -4.69      0.00
    5   11   25      4.63      0.00
    7   11   25    -11.68      0.00
    9   11   25     11.21      0.00
   11   11   25     12.03      0.00
    1   13   25     -5.75      0.00
    3   13   25     -8.79      0.00
    5   13   25     12.46      0.00
    7   13   25     -5.11      0.00
    9   13   25      7.87      0.00
   11   13   25     -9.92      0.00
   13   13   25      0.32      0.00
    1   15   25    -13.72      0.00
    3   15   25    -15.39      0.00
    5   15   25     15.19      0.00
    7   15   25     -1.72      0.00
    9   15   25     -2.13      0.00
   11   15   25    -12.74      0.00
   13   15   25     19.08      0.00
   15   15   25      8.91      0.00
    1   17   25      0.06      0.00
    3   17   25     11.32      0.00
    5   17   25    -17.43      0.00
    7   17   25      3.23      0.00
    9   17   25     -0.33      0.00
   11   17   25     22.66      0.00
   13   17   25     -3.85      0.00
   15   17   25    -11.55      0.00
   17   17   25     25.85      0.00
    1   19   25     -5.67      0.00
    3   19   25      0.67      0.00
    5   19   25      2.27      0.00
    7   19   25      7.11      0.00
    9   19   25     11.62      0.00
   11   19   25     -9.05      0.00
   13   19   25      4.94      0.00
   15   19   25     -7.02      0.00
   17   19   25      2.74      0.00
   19   19   25      9.89      0.00
    1   21   25      5.84      0.00
    3   21   25      4.24      0.00
    5   21   25     -2.73      0.00
    7   21   25      4.71      0.00
    9   21   25     33.41      0.00
   11   21   25     -0.13      0.00
   13   21   25     -2.13      0.00
   15   21   25     -5.52      0.00
   17   21   25      6.72      0.00
   19   21   25     -3.10      0.00
   21   21   25     -2.05      0.00
    1   23   25      8.64      0.00
    3   23   25    -18.60      0.00
    5   23   25      1.64      0.00
    7   23   25     -1.13      0.00
    9   23   25    -15.36      0.00
   11   23   25      1.29      0.00
   13   23   25    -15.65      0.00
   15   23   25     11.40      0.00
   17   23   25      5.89      0.00
   19   23   25      4.79      0.00
    1   25   25    -11.06      0.00
    3   25   25     -2.24      0.00
    5   25   25     -3.55      0.00
    7   25   25     -0.60      0.00
    9   25   25     21.25      0.00
   11   25   25    -23.16      0.00
   13   25   25     -2.97      0.00
   15   25   25     -9.74      0.00
   17   25   25     20.36      0.00
    0    2   26    -24.27      0.00
    2    2   26     19.07      0.00
    2    4   26     14.15      0.00
    4    4   26     12.81      0.00
    0    6   26    -13.52      0.00
    2    6   26    -17.40      0.00
    4    6   26     -6.18      0.00
    6    6   26    -21.31      0.00
    2    8   26     17.42      0.00
    4    8   26     -1.87      0.00
    6    8   26     -0.43      0.00
    8    8   26      6.57      0.00
    0   10   26      7.72      0.00
    2   10   26     -3.30      0.00
    4   10   26     -8.24      0.00
    6   10   26      3.30      0.00
    8   10   26    -15.81      0.00
   10   10   26     15.45      0.00
    2   12   26    -28.11      0.00
    4   12   26     -2.58      0.00
    6   12   26      7.43      0.00
    8   12   26      1.54      0.00
   10   12   26      6.53      0.00
   12   12   26    -37.79      0.00
    0   14   26    -18.26      0.00
    2   14   26     11.44      0.00
    4   14   26     -9.47      0.00
    6   14   26     15.27      0.00
    8   14   26      5.06      0.00
   10   14   26     16.89      0.00
   12   14   26    -12.68      0.00
   14   14   26    -20.88      0.00
    2   16   26      6.76      0.00
    4   16   26     -9.97      0.00
    6   16   26      4.65      0.00
    8   16   26     -4.16      0.00
   10   16   26    -24.72      0.00
   12   16   26      1.74      0.00
   14   16   26     15.60      0.00
   16   16   26    -14.95      0.00
    0   18   26      7.97      0.00
    2   18   26     -2.46      0.00
    4   18   26      2.90      0.00
    6   18   26     -7.17      0.00
    8   18   26      7.13      0.00
   10   18   26     -2.82      0.00
   12   18   26     -5.26      0.00
   14   18   26     -3.05      0.00
   16   18   26     -8.30      0.00
   18   18   26      6.86      0.00
    2   20   26     -9.90      0.00
    4   20   26      5.65      0.00
    6   20   26     -2.14      0.00
    8   20   26     -3.92      0.00
   10   20   26    -16.31      0.00
   12   20   26    -10.02      0.00
   14   20   26      0.97      0.00
   16   20   26     -5.55      0.00
   18   20   26     -8.69      0.00
   20   20   26     17.42      0.00
    0   22   26      7.45      0.00
    2   22   26     -1.80      0.00
    4   22   26      1.28      0.00
    6   22   26     10.07      0.00
    8   22   26     -3.85      0.00
   10   22   26      7.76      0.00
   12   22   26     14.90      0.00
   14   22   26      1.14      0.00
   16   22   26    -14.17      0.00
   18   22   26     -2.57      0.00
    2   24   26     -6.60      0.00
    4   24   26      0.13      0.00
    6   24   26      4.69      0.00
    8   24   26     -1.45      0.00
   10   24   26      0.90      0.00
   12   24   26     24.74      0.00
   14   24   26    -37.18      0.00
   16   24   26      1.85      0.00
    0   26   26      7.80      0.00
    2   26   26     -5.22      0.00
    4   26   26     -5.25      0.00
    6   26   26     18.70      0.00
    8   26   26     14.42      0.00
   10   26   26     22.81      0.00
   12   26   26     -3.52      0.00
    1    1   27     -6.50      0.00
    1    3   27    -36.85      0.00
    3    3   27     13.08      0.00
    1    5   27     -0.35      0.00
    3    5   27     -1.16      0.00
    5    5   27     -6.60      0.00
    1    7   27      4.29      0.00
    3    7   27    -13.58      0.00
    5    7   27      1.91      0.00
    7    7   27    -17.08      0.00
    1    9   27     16.90      0.00
    3    9   27     -9.90      0.00
    5    9   27     -7.64      0.00
    7    9   27    -10.99      0.00
    9    9   27     -2.01      0.00
    1   11   27     -3.31      0.00
    3   11   27     35.44      0.00
    5   11   27    -23.38      0.00
    7   11   27     11.63      0.00
    9   11   27    -18.81      0.00
   11   11   27     11.04      0.00
    1   13   27    -14.85      0.00
    3   13   27     20.49      0.00
    5   13   27     23.41      0.00
    7   13   27     -2.70      0.00
    9   13   27      5.12      0.00
   11   13   27    -15.69      0.00
   13   13   27     -4.23      0.00
    1   15   27      4.38      0.00
    3   15   27      8.69      0.00
    5   15   27      3.97      0.00
    7   15   27     -4.54      0.00
    9   15   27      2.09      0.00
   11   15   27     -0.52      0.00
   13   15   27      5.13      0.00
   15   15   27    -17.56      0.00
    1   17   27      5.67      0.00
    3   17   27    -20.30      0.00
    5   17   27      0.93      0.00
    7   17   27      1.04      0.00
    9   17   27      5.51      0.00
   11   17   27     -4.14      0.00
   13   17   27     -4.91      0.00
   15   17   27    -12.20      0.00
   17   17   27      7.02      0.00
    1   19   27     -1.03      0.00
    3   19   27      2.34      0.00
    5   19   27    -27.92      0.00
    7   19   27     23.38      0.00
    9   19   27      1.86      0.00
   11   19   27    -13.66      0.00
   13   19   27     -5.18      0.00
   15   19   27     34.84      0.00
   17   19   27      5.54      0.00
   19   19   27     -9.68      0.00
    1   21   27     25.66      0.00
    3   21   27      4.16      0.00
    5   21   27     13.12      0.00
    7   21   27     -5.48      0.00
    9   21   27    -16.11      0.00
   11   21   27     31.37      0.00
   13   21   27     17.76      0.00
   15   21   27      7.08      0.00
   17   21   27      2.68      0.00
   19   21   27     -8.41      0.00
    1   23   27     -3.07      0.00
    3   23   27     -1.58      0.00
    5   23   27      1.13      0.00
    7   23   27     -9.86      0.00
    9   23   27     14.79      0.00
   11   23   27     -0.24      0.00
   13   23   27      1.98      0.00
   15   23   27      2.37      0.00
    1   25   27     -5.05      0.00
    3   25   27     11.67      0.00
    5   25   27     -8.92      0.00
    7   25   27     -9.16      0.00
    9   25   27      0.84      0.00
   11   25   27    -10.99      0.00
   13   25   27     13.23      0.00
    1   27   27      5.14      0.00
    3   27   27      4.68      0.00
    5   27   27    -10.42      0.00
    7   27   27      4.01      0.00
    9   27   27     30.87      0.00
    0    0   28     -9.95      0.00
    2    2   28      8.33      0.00
    0    4   28     29.21      0.00
    2    4   28    -22.27      0.00
    4    4   28     22.48      0.00
    2    6   28     13.81      0.00
    4    6   28      7.34      0.00
    6    6   28    -13.84      0.00
    0    8   28    -11.77      0.00
    2    8   28      6.78      0.00
    4    8   28     -0.72      0.00
    6    8   28    -16.54      0.00
    8    8   28     33.57      0.00
    2   10   28    -26.40      0.00
    4   10   28      8.10      0.00
    6   10   28     15.09      0.00
    8   10   28      9.53      0.00
   10   10   28     21.12      0.00
    0   12   28      6.28      0.00
    2   12   28    -18.51      0.00
    4   12   28     12.67      0.00
    6   12   28    -13.42      0.00
    8   12   28      4.09      0.00
   10   12   28      2.85      0.00
   12   12   28     -8.85      0.00
    2   14   28     13.27      0.00
    4   14   28    -14.82      0.00
    6   14   28    -14.80      0.00
    8   14   28      8.50      0.00
   10   14   28     -5.26      0.00
   12   14   28      9.24      0.00
   14   14   28     14.61      0.00
    0   16   28     23.64      0.00
    2   16   28      8.49      0.00
    4   16   28    -22.51      0.00
    6   16   28    -15.95      0.00
    8   16   28     -0.13      0.00
   10   16   28     10.76      0.00
   12   16   28      1.79      0.00
   14   16   28      4.21      0.00
   16   16   28     -8.66      0.00
    2   18   28     -7.24      0.00
    4   18   28     -3.47      0.00
    6   18   28      4.59      0.00
    8   18   28    -12.48      0.00
   10   18   28     20.23      0.00
   12   18   28     32.21      0.00
   14   18   28      2.11      0.00
   16   18   28    -29.11      0.00
   18   18   28      5.44      0.00
    0   20   28    -10.27      0.00
    2   20   28    -10.13      0.00
    4   20   28     -1.97      0.00
    6   20   28    -39.26      0.00
    8   20   28      4.48      0.00
   10   20   28     -6.10      0.00
   12   20   28    -23.32      0.00
   14   20   28    -10.64      0.00
   16   20   28    -25.14      0.00
   18   20   28     -1.92      0.00
    2   22   28     13.16      0.00
    4   22   28     -0.87      0.00
    6   22   28     -2.40      0.00
    8   22   28      2.93      0.00
   10   22   28    -17.15      0.00
   12   22   28     15.10      0.00
   14   22   28    -14.37      0.00
   16   22   28     16.31      0.00
    0   24   28      0.44      0.00
    2   24   28     -8.68      0.00
    4   24   28     -4.76      0.00
    6   24   28      7.81      0.00
    8   24   28      9.55      0.00
   10   24   28     -0.62      0.00
   12   24   28    -27.53      0.00
    2   26   28      7.99      0.00
    4   26   28     -6.64      0.00
    6   26   28     -5.21      0.00
    8   26   28     -2.97      0.00
    1    1   29      9.40      0.00
    1    3   29      9.34      0.00
    3    3   29      2.39      0.00
    1    5   29     -8.86      0.00
    3    5   29      3.54      0.00
    5    5   29     12.33      0.00
    1    7   29     -3.15      0.00
    3    7   29     21.06      0.00
    5    7   29     -0.58      0.00
    7    7   29     17.56      0.00
    1    9   29      7.95      0.00
    3    9   29    -15.15      0.00
    5    9   29     -3.23      0.00
    7    9   29    -19.65      0.00
    9    9   29     26.18      0.00
    1   11   29    -19.08      0.00
    3   11   29      9.39      0.00
    5   11   29     12.07      0.00
    7   11   29    -11.71      0.00
    9   11   29     -2.26      0.00
   11   11   29     -9.34      0.00
    1   13   29      3.25      0.00
    3   13   29      5.86      0.00
    5   13   29      0.92      0.00
    7   13   29      7.10      0.00
    9   13   29     -6.18      0.00
   11   13   29     13.17      0.00
   13   13   29     -0.98      0.00
    1   15   29      2.76      0.00
    3   15   29      1.91      0.00
    5   15   29     26.23      0.00
    7   15   29      1.18      0.00
    9   15   29     11.61      0.00
   11   15   29      5.23      0.00
   13   15   29      7.01      0.00
   15   15   29     -0.72      0.00
    1   17   29     18.93      0.00
    3   17   29     18.99      0.00
    5   17   29     11.95      0.00
    7   17   29    -16.16      0.00
    9   17   29     15.69      0.00
   11   17   29    -20.96      0.00
   13   17   29    -41.65      0.00
   15   17   29     14.12      0.00
   17   17   29     -8.71      0.00
    1   19   29    -11.61      0.00
    3   19   29      1.15      0.00
    5   19   29      8.79      0.00
    7   19   29      9.56      0.00
    9   19   29     -8.16      0.00
   11   19   29     10.18      0.00
   13   19   29      9.39      0.00
   15   19   29     13.24      0.00
   17   19   29     -6.68      0.00
    1   21   29     -7.38      0.00
    3   21   29      5.46      0.00
    5   21   29     -4.29      0.00
    7   21   29     18.44      0.00
    9   21   29     -7.28      0.00
   11   21   29      8.51      0.00
   13   21   29      1.98      0.00
   15   21   29      5.87      0.00
    1   23   29     -3.04      0.00
    3   23   29      9.98      0.00
    5   23   29      2.35      0.00
    7   23   29    -28.10      0.00
    9   23   29     -7.00      0.00
   11   23   29    -20.07      0.00
   13   23   29      5.22      0.00
    1   25   29     -0.08      0.00
    3   25   29      8.94      0.00
    5   25   29     16.61      0.00
    7   25   29    -11.04      0.00
    0    2   30     -7.03      0.00
    2    2   30      0.66      0.00
    2    4   30      0.29      0.00
    4    4   30      1.49      0.00
    0    6   30     15.03      0.00
    2    6   30     -6.17      0.00
    4    6   30      1.83      0.00
    6    6   30    -29.16      0.00
    2    8   30    -46.56      0.00
    4    8   30     15.43      0.00
    6    8   30     -2.87      0.00
    8    8   30     -6.63      0.00
    0   10   30     -5.77      0.00
    2   10   30     10.86      0.00
    4   10   30     -9.41      0.00
    6   10   30      3.75      0.00
    8   10   30     -1.33      0.00
   10   10   30     -7.66      0.00
    2   12   30     -6.40      0.00
    4   12   30     -4.40      0.00
    6   12   30    -13.14      0.00
    8   12   30     -9.20      0.00
   10   12   30     -2.00      0.00
   12   12   30      8.40      0.00
    0   14   30     14.09      0.00
    2   14   30    -11.21      0.00
    4   14   30      1.50      0.00
    6   14   30      3.21      0.00
    8   14   30    -14.13      0.00
   10   14   30     -3.45      0.00
   12   14   30      2.70      0.00
   14   14   30     -6.73      0.00
    2   16   30    -16.89      0.00
    4   16   30      2.35      0.00
    6   16   30      4.38      0.00
    8   16   30    -13.79      0.00
   10   16   30    -14.10      0.00
   12   16   30      8.77      0.00
   14   16   30     15.90      0.00
   16   16   30     30.69      0.00
    0   18   30     -1.48      0.00
    2   18   30     18.66      0.00
    4   18   30      4.10      0.00
    6   18   30     -1.19      0.00
    8   18   30     -7.64      0.00
   10   18   30     -4.95      0.00
   12   18   30     15.65      0.00
   14   18   30     14.43      0.00
   16   18   30    -11.29      0.00
    2   20   30     -5.06      0.00
    4   20   30     -9.04      0.00
    6   20   30    -16.03      0.00
    8   20   30    -11.86      0.00
   10   20   30    -12.79      0.00
   12   20   30     -1.35      0.00
   14   20   30     -7.02      0.00
    0   22   30     -9.26      0.00
    2   22   30     -6.97      0.00
    4   22   30     21.36      0.00
    6   22   30     11.82      0.00
    8   22   30     46.92      0.00
   10   22   30     -2.85      0.00
   12   22   30      8.81      0.00
    2   24   30      6.51      0.00
    4   24   30    -34.18      0.00
    6   24   30     -0.66      0.00
    8   24   30      3.23      0.00
    1    1   31     -2.76      0.00
    1    3   31     -5.09      0.00
    3    3   31     12.55      0.00
    1    5   31      1.92      0.00
    3    5   31     -6.52      0.00
    5    5   31    -18.93      0.00
    1    7   31      7.67      0.00
    3    7   31     10.27      0.00
    5    7   31      1.71      0.00
    7    7   31     27.20      0.00
    1    9   31      3.03      0.00
    3    9   31     -3.24      0.00
    5    9   31     11.79      0.00
    7    9   31      2.48      0.00
    9    9   31      0.91      0.00
    1   11   31      6.01      0.00
    3   11   31     24.10      0.00
    5   11   31     14.61      0.00
    7   11   31    -14.67      0.00
    9   11   31      9.47      0.00
   11   11   31     -6.93      0.00
    1   13   31      9.96      0.00
    3   13   31    -17.20      0.00
    5   13   31     -1.68      0.00
    7   13   31    -15.84      0.00
    9   13   31     -3.87      0.00
   11   13   31    -13.45      0.00
   13   13   31     -6.74      0.00
    1   15   31     -1.57      0.00
    3   15   31     -7.25      0.00
    5   15   31     16.23      0.00
    7   15   31     17.30      0.00
    9   15   31      8.20      0.00
   11   15   31      5.57      0.00
   13   15   31    -14.28      0.00
   15   15   31     -6.45      0.00
    1   17   31      1.96      0.00
    3   17   31    -10.03      0.00
    5   17   31      1.12      0.00
    7   17   31    -14.47      0.00
    9   17   31     20.16      0.00
   11   17   31      0.40      0.00
   13   17   31    -15.38      0.00
   15   17   31     11.35      0.00
   17   17   31     64.47      0.00
    1   19   31     10.86      0.00
    3   19   31     14.70      0.00
    5   19   31     -5.78      0.00
    7   19   31     26.00      0.00
    9   19   31     35.83      0.00
   11   19   31    -13.48      0.00
   13   19   31     -8.83      0.00
    1   21   31     -4.05      0.00
    3   21   31     -9.14      0.00
    5   21   31      1.50      0.00
    7   21   31    -15.91      0.00
    9   21   31     -6.50      0.00
   11   21   31     -8.29      0.00
    1   23   31    -21.98      0.00
    3   23   31     10.52      0.00
    5   23   31     12.90      0.00
    7   23   31     -4.48      0.00
    0    0   32     -3.35      0.00
    2    2   32     -2.28      0.00
    0    4   32      6.03      0.00
    2    4   32      1.35      0.00
    4    4   32     10.49      0.00
    2    6   32      4.64      0.00
    4    6   32    -11.77      0.00
    6    6   32      0.57      0.00
    0    8   32     15.36      0.00
    2    8   32     -9.57      0.00
    4    8   32      4.53      0.00
    6    8   32     -2.82      0.00
    8    8   32     24.82      0.00
    2   10   32     -5.71      0.00
    4   10   32     11.41      0.00
    6   10   32      1.28      0.00
    8   10   32     -8.43      0.00
   10   10   32     -0.79      0.00
    0   12   32    -18.40      0.00
    2   12   32     -6.07      0.00
    4   12   32      2.17      0.00
    6   12   32     10.34      0.00
    8   12   32      7.41      0.00
   10   12   32      9.35      0.00
   12   12   32     27.57      0.00
    2   14   32      1.49      0.00
    4   14   32    -13.23      0.00
    6   14   32     -0.25      0.00
    8   14   32    -15.34      0.00
   10   14   32      9.89      0.00
   12   14   32      5.72      0.00
   14   14   32      2.43      0.00
    0   16   32    -16.19      0.00
    2   16   32      3.27      0.00
    4   16   32      0.77      0.00
    6   16   32     25.80      0.00
    8   16   32     -4.86      0.00
   10   16   32     -7.41      0.00
   12   16   32     -9.29      0.00
   14   16   32      2.93      0.00
   16   16   32    -49.63      0.00
    2   18   32     -5.40      0.00
    4   18   32    -21.99      0.00
    6   18   32     19.00      0.00
    8   18   32     -9.42      0.00
   10   18   32     -4.44      0.00
   12   18   32      6.72      0.00
   14   18   32      2.48      0.00
    0   20   32     30.01      0.00
    2   20   32      4.97      0.00
    4   20   32      1.76      0.00
    6   20   32     -2.24      0.00
    8   20   32      3.43      0.00
   10   20   32      5.86      0.00
    2   22   32     19.39      0.00
    4   22   32     -2.78      0.00
    6   22   32     14.42      0.00
    1    1   33     -8.46      0.00
    1    3   33     -2.84      0.00
    3    3   33     11.01      0.00
    1    5   33     -0.82      0.00
    3    5   33     -5.53      0.00
    5    5   33     -0.48      0.00
    1    7   33    -12.52      0.00
    3    7   33     -1.46      0.00
    5    7   33     -0.06      0.00
    7    7   33      6.70      0.00
    1    9   33      1.56      0.00
    3    9   33      0.89      0.00
    5    9   33    -13.40      0.00
    7    9   33    -30.44      0.00
    9    9   33     27.73      0.00
    1   11   33     -3.06      0.00
    3   11   33      5.81      0.00
    5   11   33      4.15      0.00
    7   11   33      3.96      0.00
    9   11   33      8.30      0.00
   11   11   33     -2.35      0.00
    1   13   33    -13.16      0.00
    3   13   33     -5.22      0.00
    5   13   33     17.93      0.00
    7   13   33    -10.51      0.00
    9   13   33     -8.75      0.00
   11   13   33    -20.39      0.00
   13   13   33     -2.69      0.00
    1   15   33      1.43      0.00
    3   15   33     15.59      0.00
    5   15   33    -40.52      0.00
    7   15   33    -13.45      0.00
    9   15   33     -6.05      0.00
   11   15   33      1.69      0.00
   13   15   33     -5.56      0.00
   15   15   33     -1.63      0.00
    1   17   33     -3.41      0.00
    3   17   33      9.92      0.00
    5   17   33    -44.07      0.00
    7   17   33     -8.37      0.00
    9   17   33     -5.32      0.00
   11   17   33     -1.02      0.00
    1   19   33    -40.60      0.00
    3   19   33      5.64      0.00
    5   19   33     -8.85      0.00
    7   19   33     -6.73      0.00
    9   19   33     -9.89      0.00
    1   21   33     -4.14      0.00
    3   21   33     -3.04      0.00
    0    2   34     14.21      0.00
    2    2   34     -1.63      0.00
    2    4   34     -3.51      0.00
    4    4   34     -5.26      0.00
    0    6   34      0.69      0.00
    2    6   34     -4.47      0.00
    4    6   34     10.75      0.00
    6    6   34      7.52      0.00
    2    8   34     -3.01      0.00
    4    8   34     -9.02      0.00
    6    8   34      2.44      0.00
    8    8   34     23.41      0.00
    0   10   34     22.48      0.00
    2   10   34     15.25      0.00
    4   10   34     -6.57      0.00
    6   10   34    -10.95      0.00
    8   10   34    -11.76      0.00
   10   10   34     -2.05      0.00
    2   12   34    -20.00      0.00
    4   12   34      8.47      0.00
    6   12   34      4.47      0.00
    8   12   34      4.87      0.00
   10   12   34      3.22      0.00
   12   12   34     -1.91      0.00
    0   14   34     15.23      0.00
    2   14   34     -2.93      0.00
    4   14   34      5.11      0.00
    6   14   34     12.87      0.00
    8   14   34     13.90      0.00
   10   14   34     26.28      0.00
   12   14   34      8.72      0.00
    2   16   34    -14.01      0.00
    4   16   34     56.84      0.00
    6   16   34      7.53      0.00
    8   16   34      9.05      0.00
   10   16   34      7.42      0.00
    0   18   34     57.87      0.00
    2   18   34      2.49      0.00
    4   18   34     14.21      0.00
    6   18   34     25.87      0.00
    8   18   34     -4.20      0.00
    1    1   35      3.19      0.00
    1    3   35     -2.25      0.00
    3    3   35     13.65      0.00
    1    5   35    -12.45      0.00
    3    5   35     -4.01      0.00
    5    5   35     -1.38      0.00
    1    7   35     -5.44      0.00
    3    7   35    -12.75      0.00
    5    7   35     24.73      0.00
    7    7   35    -13.36      0.00
    1    9   35    -11.08      0.00
    3    9   35     -2.92      0.00
    5    9   35     -5.14      0.00
    7    9   35     -8.48      0.00
    9    9   35     -0.58      0.00
    1   11   35     25.27      0.00
    3   11   35     27.84      0.00
    5   11   35     -3.57      0.00
    7   11   35      7.07      0.00
    9   11   35     -5.02      0.00
   11   11   35      0.04      0.00
    1   13   35      8.43      0.00
    3   13   35      0.58      0.00
    5   13   35     -6.02      0.00
    7   13   35      2.36      0.00
    9   13   35    -14.46      0.00
   11   13   35    -14.94      0.00
    1   15   35      1.19      0.00
    3   15   35    -22.83      0.00
    5   15   35      7.11      0.00
    7   15   35     -5.97      0.00
    9   15   35      6.28      0.00
    1   17   35     -9.65      0.00
    3   17   35    -38.98      0.00
    5   17   35     11.37      0.00
    0    0   36     -8.89      0.00
    2    2   36      2.34      0.00
    0    4   36      7.54      0.00
    2    4   36      5.41      0.00
    4    4   36     15.34      0.00
    2    6   36     -2.22      0.00
    4    6   36      2.32      0.00
    6    6   36     -5.90      0.00
    0    8   36      5.94      0.00
    2    8   36     14.63      0.00
    4    8   36    -19.53      0.00
    6    8   36      1.65      0.00
    8    8   36     17.39      0.00
    2   10   36    -11.36      0.00
    4   10   36     -3.55      0.00
    6   10   36     -9.84      0.00
    8   10   36      5.39      0.00
   10   10   36     -4.65      0.00
    0   12   36    -29.30      0.00
    2   12   36    -14.41      0.00
    4   12   36      8.96      0.00
    6   12   36     11.15      0.00
    8   12   36     -1.66      0.00
   10   12   36     -2.63      0.00
    2   14   36    -11.99      0.00
    4   14   36     -1.11      0.00
    6   14   36    -32.29      0.00
    1    1   37     -5.81      0.00
    1    3   37     -6.46      0.00
    3    3   37      6.54      0.00
    1    5   37    -30.43      0.00
    3    5   37      4.15      0.00
    5    5   37      1.41      0.00
    1    7   37     16.57      0.00
    3    7   37      0.50      0.00
    5    7   37      8.45      0.00
    7    7   37     11.51      0.00
    1    9   37     22.00      0.00
    3    9   37      6.15      0.00
    5    9   37     -7.50      0.00
    7    9   37      1.22      0.00
    9    9   37     -6.38      0.00
    1   11   37      4.05      0.00
    3   11   37     -9.77      0.00
    5   11   37      2.46      0.00
    7   11   37     -7.56      0.00
    1   13   37      2.77      0.00
    0    2   38      4.32      0.00
    2    2   38     -2.68      0.00
    2    4   38     -1.74      0.00
    4    4   38      6.68      0.00
    0    6   38      3.32      0.00
    2    6   38    -28.27      0.00
    4    6   38      3.61      0.00
    6    6   38    -42.00      0.00
    2    8   38     -2.10      0.00
    4    8   38     26.22      0.00
    6    8   38     -1.75      0.00
    0   10   38      5.54      0.00
    1    1   39     -1.58      0.00
    1    3   39      3.01      0.00
    3    3   39     15.93      0.00
    0    0    4    358.06      0.00
   23   23   23    -14.90      0.00
   20   24   24      1.52      0.00
   21   23   25     11.57      0.00
   20   22   26      6.14      0.00
   18   24   26     -2.43      0.00
   14   26   26     21.03      0.00
   17   23   27      3.37      0.00
   15   25   27     -3.25      0.00
   11   27   27     -8.00      0.00
   20   20   28      1.34      0.00
   18   22   28      6.03      0.00
   14   24   28    -15.58      0.00
   10   26   28    -15.63      0.00
    0   28   28      4.93      0.00
    2   28   28      2.31      0.00
    4   28   28      5.99      0.00
   19   19   29      4.06      0.00
   17   21   29    -12.85      0.00
   15   23   29      6.78      0.00
    9   25   29     -2.96      0.00
   11   25   29     -4.60      0.00
    1   27   29      5.00      0.00
    3   27   29     -8.46      0.00
    5   27   29      4.29      0.00
   18   18   30    -16.79      0.00
   16   20   30     -0.69      0.00
   14   22   30      9.62      0.00
   10   24   30     -3.61      0.00
    0   26   30      0.69      0.00
    2   26   30      0.50      0.00
    4   26   30     -4.22      0.00
   15   19   31      3.71      0.00
   13   21   31    -12.20      0.00
    9   23   31     12.51      0.00
    1   25   31      0.41      0.00
    3   25   31      4.80      0.00
   12   20   32      2.39      0.00
    8   22   32      7.19      0.00
   13   17   33     -3.17      0.00
   11   19   33      3.95      0.00
    5   21   33     -2.87      0.00
    7   21   33    -18.83      0.00
   14   14   34     12.61      0.00
   12   16   34      7.05      0.00
   10   18   34      5.28      0.00
    2   20   34    -14.14      0.00
    4   20   34     -0.98      0.00
    6   20   34     -2.11      0.00
   13   13   35     -6.54      0.00
   11   15   35      4.30      0.00
    7   17   35     -3.77      0.00
    9   17   35     -1.13      0.00
    1   19   35      9.05      0.00
    3   19   35      5.73      0.00
   12   12   36      1.58      0.00
    8   14   36      2.94      0.00
   10   14   36     10.66      0.00
    0   16   36     13.84      0.00
    2   16   36      6.87      0.00
    4   16   36     -7.52      0.00
    6   16   36     11.21      0.00
    9   11   37      3.34      0.00
    3   13   37     -0.08      0.00
    5   13   37     -2.67      0.00
    7   13   37     10.65      0.00
    1   15   37      1.61      0.00
    8    8   38      1.95      0.00
    2   10   38      8.60      0.00
    4   10   38     -1.35      0.00
    6   10   38      8.94      0.00
    2   12   38     -1.78      0.00
    1    5   39     -6.39      0.00
    3    5   39      0.33      0.00
    5    5   39     22.72      0.00
    1    7   39      3.44      0.00
    3    7   39    -16.82      0.00
    5    7   39      1.96      0.00
    0    0    0      0.00      0.00
# SQUEEZE RESULTS
# Note: Data are Listed for all Voids in the P1 Unit Cell
# i.e. Centre of Gravity, Solvent Accessible Volume,
# Recovered number of Electrons in the Void and
# Details about the Squeezed Material
loop_
  _platon_squeeze_void_nr
  _platon_squeeze_void_average_x
  _platon_squeeze_void_average_y
  _platon_squeeze_void_average_z
  _platon_squeeze_void_volume
  _platon_squeeze_void_count_electrons
  _platon_squeeze_void_content
   1  0.262 -0.055 -0.046     26335      5117 ' '
   2  0.125  0.125  0.125        97        18 ' '
   3  0.625  0.125  0.625        97        18 ' '
   4  0.875  0.375  0.375        97        18 ' '
   5  0.375  0.375  0.875        97        18 ' '
   6  0.625  0.625  0.125        97        18 ' '
   7  0.125  0.625  0.625        97        18 ' '
   8  0.375  0.875  0.375        97        18 ' '
   9  0.875  0.875  0.875        97        18 ' '
_platon_squeeze_void_probe_radius                  1.20
_platon_squeeze_details
(replace by semicolon in column 1 when used as .sqf)
TITL 808V1129  F d -3 m     R = 0.05
CELL   34.9765   34.9765   34.9765     90.00     90.00     90.00
SPGR Fd-3m
# Solvent Accessible Volume =   27184.6
# Electrons Found in S.A.V. =    5228.1
# Note: Atoms in Void as Cxxx and Qxxx all others
C101 0.163 0.085 0.164 !       3.57 eA-3
C102 0.875 0.398 0.368 !       1.83 eA-3
Q103 0.323 0.065 0.322 !       1.67 eA-3
Q104 0.216 0.321 0.086 !       1.61 eA-3
Q105 0.868 0.093 0.093 !       1.30 eA-3
Q106 0.991 0.125 0.366 !       1.29 eA-3
Q107 0.214 0.084 0.361 !       1.19 eA-3
Q108 0.939 0.143 0.271 !       1.19 eA-3
C109 0.366 0.371 0.359 !       1.08 eA-3
C110 0.499 0.780 0.999 !       1.07 eA-3
C111 0.999 0.280-0.001 !       1.07 eA-3
Q112 0.648 0.422 0.102 !       1.06 eA-3
Q113 0.094 0.320 0.359 !       1.05 eA-3
Q114 0.594 0.320 0.859 !       1.05 eA-3
Q115 0.977 0.186 0.229 !       1.00 eA-3
Q116 0.023 0.304 0.304 !       0.99 eA-3
C117 0.262 0.501 0.002 !       0.98 eA-3
Q118 0.912 0.108 0.909 !       0.97 eA-3
C119 0.376 0.188 0.370 !       0.96 eA-3
C120 0.525 0.023 0.227 !       0.95 eA-3
C121 0.775 0.275 0.774 !       0.94 eA-3
C122 0.578 0.499 0.302 !       0.94 eA-3
C123 0.443 0.062 0.284 !       0.93 eA-3
C124 0.776 0.030 0.001 !       0.89 eA-3
C125 0.276 0.030 0.501 !       0.89 eA-3
C126 0.776 0.530 0.501 !       0.89 eA-3
Q127 0.377 0.278 0.115 !       0.88 eA-3
C128 0.525 0.783 0.996 !       0.88 eA-3
C129 0.523 0.295 0.530 !       0.87 eA-3
C130 0.023 0.295 0.030 !       0.87 eA-3
C131 0.071 0.173 0.924 !       0.87 eA-3
C132 0.571 0.173 0.424 !       0.87 eA-3
C133 0.639 0.084 0.142 !       0.87 eA-3
C134 0.274 0.548 0.981 !       0.85 eA-3
C135 0.548 0.195 0.019 !       0.84 eA-3
Q136 0.044 0.203 0.214 !       0.84 eA-3
C137 0.101 0.102 0.463 !       0.83 eA-3
Q138 0.329 0.152 0.099 !       0.82 eA-3
C139 0.280 0.443 0.280 !       0.81 eA-3
C140 0.734 0.233 0.196 !       0.80 eA-3
C141 0.772 0.686 0.276 !       0.80 eA-3
C142 0.272 0.186 0.276 !       0.80 eA-3
C143 0.274 0.422 0.273 !       0.80 eA-3
Q144 0.821 0.434 0.132 !       0.80 eA-3
C145 0.568 0.834 0.044 !       0.80 eA-3
C146 0.068 0.334 0.044 !       0.80 eA-3
C147 0.521 0.184 0.025 !       0.79 eA-3
C148 0.234 0.256 0.319 !       0.79 eA-3
C149 0.366 0.372 0.218 !       0.79 eA-3
C150 0.021 0.450 0.235 !       0.78 eA-3
C151 0.768 0.451 0.001 !       0.77 eA-3
C152 0.725 0.249 0.224 !       0.77 eA-3
Q153 0.592 0.119 0.400 !       0.77 eA-3
C154 0.792 0.569 0.673 !       0.77 eA-3
C155 0.792 0.069 0.173 !       0.77 eA-3
Q156 0.709 0.366 0.211 !       0.76 eA-3
C157 0.307 0.053 0.450 !       0.76 eA-3
C158 0.252 0.498 0.452 !       0.76 eA-3
C159 0.421 0.537 0.423 !       0.75 eA-3
C160 0.747 0.477 0.977 !       0.73 eA-3
C161 0.252 0.501 0.248 !       0.73 eA-3
C162 0.744 0.118 0.244 !       0.72 eA-3
Q163 0.393 0.016 0.180 !       0.72 eA-3
C164 0.573 0.072 0.071 !       0.72 eA-3
C165 0.013 0.701 0.245 !       0.72 eA-3
C166 0.513 0.201 0.245 !       0.72 eA-3
Q167 0.600 0.102 0.335 !       0.72 eA-3
C168 0.305 0.438 0.293 !       0.72 eA-3
C169 0.078 0.062 0.432 !       0.70 eA-3
Q170 0.705 0.158 0.828 !       0.69 eA-3
Q171 0.205 0.158 0.328 !       0.69 eA-3
C172 0.529 0.181 0.256 !       0.68 eA-3
C173 0.707 0.312 0.930 !       0.68 eA-3
C174 0.459 0.291 0.188 !       0.68 eA-3
C175 0.766 0.171 0.267 !       0.67 eA-3
Q176 0.625 0.128 0.406 !       0.67 eA-3
C177 0.890 0.010 0.385 !       0.67 eA-3
Q178 0.134 0.397 0.123 !       0.67 eA-3
C179 0.554 0.251 0.964 !       0.66 eA-3
C180 0.520 0.462 0.520 !       0.65 eA-3
C181 0.020 0.462 0.020 !       0.65 eA-3
C182 0.404 0.326 0.409 !       0.65 eA-3
C183 0.471 0.110 0.059 !       0.64 eA-3
Q184 0.375 0.062 0.374 !       0.64 eA-3
C185 0.771 0.188 0.000 !       0.64 eA-3
C186 0.563 0.063 0.165 !       0.63 eA-3
C187 0.771 0.211 0.988 !       0.63 eA-3
C188 0.233 0.484 0.227 !       0.63 eA-3
C189 0.211 0.499 0.209 !       0.63 eA-3
C190 0.599 0.267 0.092 !       0.62 eA-3
C191 0.657 0.047 0.159 !       0.62 eA-3
C192 0.282 0.056 0.651 !       0.62 eA-3
C193 0.352 0.355 0.329 !       0.61 eA-3
C194 0.554 0.197 0.273 !       0.61 eA-3
C195 0.730 0.891 0.326 !       0.61 eA-3
C196 0.230 0.391 0.326 !       0.61 eA-3
C197 0.730 0.391 0.826 !       0.61 eA-3
C198 0.503 0.150 0.003 !       0.61 eA-3
C199 1.003 0.650 1.003 !       0.61 eA-3
(replace by semicolon in column 1 when used as .sqf)
;
_shelx_fab_checksum              392
loop_
_space_group_symop_operation_xyz
'x, y, z'
'x, z, y'
'y+1/4, -z, x+1/4'
'y+1/4, x+1/4, -z'
'x+1/4, -z, y+1/4'
'-z, y+1/4, x+1/4'
'z+1/4, x+1/4, -y'
'y+1/4, z+1/4, -x'
'z+1/4, y+1/4, -x'
'-z+1/4, x, -y+1/4'
'x+1/4, z+1/4, -y'
'y, -z+1/4, -x+1/4'
'x, -z+1/4, -y+1/4'
'-z+1/4, y, -x+1/4'
'x+1/4, -y, z+1/4'
'y+1/4, -x, z+1/4'
'x, -y+1/4, -z+1/4'
'y, -x+1/4, -z+1/4'
'-y, -z, -x'
'-x+1/4, -y+1/4, z'
'-y, -x, -z'
'-z, -x, -y'
'-z, -y, -x'
'z, -x+1/4, -y+1/4'
'x, y+1/2, z+1/2'
'x, z+1/2, y+1/2'
'y+1/4, -z+1/2, x+3/4'
'y+1/4, x+3/4, -z+1/2'
'x+1/4, -z+1/2, y+3/4'
'-z, y+3/4, x+3/4'
'z+1/4, x+3/4, -y+1/2'
'y+1/4, z+3/4, -x+1/2'
'z+1/4, y+3/4, -x+1/2'
'-z+1/4, x+1/2, -y+3/4'
'x+1/4, z+3/4, -y+1/2'
'y, -z+3/4, -x+3/4'
'x, -z+3/4, -y+3/4'
'-z+1/4, y+1/2, -x+3/4'
'x+1/4, -y+1/2, z+3/4'
'y+1/4, -x+1/2, z+3/4'
'x, -y+3/4, -z+3/4'
'y, -x+3/4, -z+3/4'
'-y, -z+1/2, -x+1/2'
'-x+1/4, -y+3/4, z+1/2'
'-y, -x+1/2, -z+1/2'
'-z, -x+1/2, -y+1/2'
'-z, -y+1/2, -x+1/2'
'z, -x+3/4, -y+3/4'
'x+1/2, y, z+1/2'
'x+1/2, z, y+1/2'
'y+3/4, -z, x+3/4'
'y+3/4, x+1/4, -z+1/2'
'x+3/4, -z, y+3/4'
'-z+1/2, y+1/4, x+3/4'
'z+3/4, x+1/4, -y+1/2'
'y+3/4, z+1/4, -x+1/2'
'z+3/4, y+1/4, -x+1/2'
'-z+3/4, x, -y+3/4'
'x+3/4, z+1/4, -y+1/2'
'y+1/2, -z+1/4, -x+3/4'
'x+1/2, -z+1/4, -y+3/4'
'-z+3/4, y, -x+3/4'
'x+3/4, -y, z+3/4'
'y+3/4, -x, z+3/4'
'x+1/2, -y+1/4, -z+3/4'
'y+1/2, -x+1/4, -z+3/4'
'-y+1/2, -z, -x+1/2'
'-x+3/4, -y+1/4, z+1/2'
'-y+1/2, -x, -z+1/2'
'-z+1/2, -x, -y+1/2'
'-z+1/2, -y, -x+1/2'
'z+1/2, -x+1/4, -y+3/4'
'x+1/2, y+1/2, z'
'x+1/2, z+1/2, y'
'y+3/4, -z+1/2, x+1/4'
'y+3/4, x+3/4, -z'
'x+3/4, -z+1/2, y+1/4'
'-z+1/2, y+3/4, x+1/4'
'z+3/4, x+3/4, -y'
'y+3/4, z+3/4, -x'
'z+3/4, y+3/4, -x'
'-z+3/4, x+1/2, -y+1/4'
'x+3/4, z+3/4, -y'
'y+1/2, -z+3/4, -x+1/4'
'x+1/2, -z+3/4, -y+1/4'
'-z+3/4, y+1/2, -x+1/4'
'x+3/4, -y+1/2, z+1/4'
'y+3/4, -x+1/2, z+1/4'
'x+1/2, -y+3/4, -z+1/4'
'y+1/2, -x+3/4, -z+1/4'
'-y+1/2, -z+1/2, -x'
'-x+3/4, -y+3/4, z'
'-y+1/2, -x+1/2, -z'
'-z+1/2, -x+1/2, -y'
'-z+1/2, -y+1/2, -x'
'z+1/2, -x+3/4, -y+1/4'
'-x, -y, -z'
'-x, -z, -y'
'-y-1/4, z, -x-1/4'
'-y-1/4, -x-1/4, z'
'-x-1/4, z, -y-1/4'
'z, -y-1/4, -x-1/4'
'-z-1/4, -x-1/4, y'
'-y-1/4, -z-1/4, x'
'-z-1/4, -y-1/4, x'
'z-1/4, -x, y-1/4'
'-x-1/4, -z-1/4, y'
'-y, z-1/4, x-1/4'
'-x, z-1/4, y-1/4'
'z-1/4, -y, x-1/4'
'-x-1/4, y, -z-1/4'
'-y-1/4, x, -z-1/4'
'-x, y-1/4, z-1/4'
'-y, x-1/4, z-1/4'
'y, z, x'
'x-1/4, y-1/4, -z'
'y, x, z'
'z, x, y'
'z, y, x'
'-z, x-1/4, y-1/4'
'-x, -y+1/2, -z+1/2'
'-x, -z+1/2, -y+1/2'
'-y-1/4, z+1/2, -x+1/4'
'-y-1/4, -x+1/4, z+1/2'
'-x-1/4, z+1/2, -y+1/4'
'z, -y+1/4, -x+1/4'
'-z-1/4, -x+1/4, y+1/2'
'-y-1/4, -z+1/4, x+1/2'
'-z-1/4, -y+1/4, x+1/2'
'z-1/4, -x+1/2, y+1/4'
'-x-1/4, -z+1/4, y+1/2'
'-y, z+1/4, x+1/4'
'-x, z+1/4, y+1/4'
'z-1/4, -y+1/2, x+1/4'
'-x-1/4, y+1/2, -z+1/4'
'-y-1/4, x+1/2, -z+1/4'
'-x, y+1/4, z+1/4'
'-y, x+1/4, z+1/4'
'y, z+1/2, x+1/2'
'x-1/4, y+1/4, -z+1/2'
'y, x+1/2, z+1/2'
'z, x+1/2, y+1/2'
'z, y+1/2, x+1/2'
'-z, x+1/4, y+1/4'
'-x+1/2, -y, -z+1/2'
'-x+1/2, -z, -y+1/2'
'-y+1/4, z, -x+1/4'
'-y+1/4, -x-1/4, z+1/2'
'-x+1/4, z, -y+1/4'
'z+1/2, -y-1/4, -x+1/4'
'-z+1/4, -x-1/4, y+1/2'
'-y+1/4, -z-1/4, x+1/2'
'-z+1/4, -y-1/4, x+1/2'
'z+1/4, -x, y+1/4'
'-x+1/4, -z-1/4, y+1/2'
'-y+1/2, z-1/4, x+1/4'
'-x+1/2, z-1/4, y+1/4'
'z+1/4, -y, x+1/4'
'-x+1/4, y, -z+1/4'
'-y+1/4, x, -z+1/4'
'-x+1/2, y-1/4, z+1/4'
'-y+1/2, x-1/4, z+1/4'
'y+1/2, z, x+1/2'
'x+1/4, y-1/4, -z+1/2'
'y+1/2, x, z+1/2'
'z+1/2, x, y+1/2'
'z+1/2, y, x+1/2'
'-z+1/2, x-1/4, y+1/4'
'-x+1/2, -y+1/2, -z'
'-x+1/2, -z+1/2, -y'
'-y+1/4, z+1/2, -x-1/4'
'-y+1/4, -x+1/4, z'
'-x+1/4, z+1/2, -y-1/4'
'z+1/2, -y+1/4, -x-1/4'
'-z+1/4, -x+1/4, y'
'-y+1/4, -z+1/4, x'
'-z+1/4, -y+1/4, x'
'z+1/4, -x+1/2, y-1/4'
'-x+1/4, -z+1/4, y'
'-y+1/2, z+1/4, x-1/4'
'-x+1/2, z+1/4, y-1/4'
'z+1/4, -y+1/2, x-1/4'
'-x+1/4, y+1/2, -z-1/4'
'-y+1/4, x+1/2, -z-1/4'
'-x+1/2, y+1/4, z-1/4'
'-y+1/2, x+1/4, z-1/4'
'y+1/2, z+1/2, x'
'x+1/4, y+1/4, -z'
'y+1/2, x+1/2, z'
'z+1/2, x+1/2, y'
'z+1/2, y+1/2, x'
'-z+1/2, x+1/4, y-1/4'
loop_
_atom_site_label
_atom_site_type_symbol
_atom_site_fract_x
_atom_site_fract_y
_atom_site_fract_z
_atom_site_U_iso_or_equiv
_atom_site_adp_type
_atom_site_occupancy
_atom_site_site_symmetry_order
_atom_site_calc_flag
_atom_site_refinement_flags_posn
_atom_site_refinement_flags_adp
_atom_site_refinement_flags_occupancy
_atom_site_disorder_assembly
_atom_site_disorder_group
C1 C 0.5775(2) 0.1725(2) 0.5290(3) 0.034(2) Uani 1 2 d S T P . .
H1 H 0.588186 0.161816 0.506417 0.041 Uiso 1 2 calc R U P . .
C2 C 0.5942(3) 0.20453(19) 0.54547(19) 0.033(2) Uani 1 2 d S T P . .
C3 C 0.6314(3) 0.2195(2) 0.5305(2) 0.034(2) Uani 1 2 d S T P . .
Hf1 Hf 0.70298(2) 0.27261(2) 0.54702(2) 0.0281(3) Uani 1 2 d S T P . .
O1 O 0.64571(12) 0.24735(13) 0.54768(12) 0.0301(10) Uani 1 1 d . . . . .
O2 O 0.73653(16) 0.3102(2) 0.51347(16) 0.054(2) Uani 1 2 d S T P . .
O3 O 0.7097(5) 0.2097(5) 0.5403(5) 0.031(5) Uiso 0.4998 6 d S . P . 1
O4 O 0.7228(4) 0.2228(4) 0.5272(4) 0.017(4) Uiso 0.4998 6 d S . P . 2
O5 O 0.716393 0.319901 0.589800 0.097(3) Uiso 0.8 1 d . . P . 2
O6 O 0.699203 0.319400 0.584300 0.100(14) Uiso 0.2 1 d . . P . 1
V1 V 0.6858(6) 0.3678(6) 0.5642(6) 0.033(5) Uani 0.08 2 d S TU P . 1
V2 V 0.6772(4) 0.3171(5) 0.5728(4) 0.028(4) Uani 0.09 2 d DS TU P . 2
O8 O 0.699(2) 0.366(2) 0.551(2) 0.07(4) Uiso 0.09 2 d DS . P . 2
O9 O 0.657(2) 0.3671(19) 0.593(2) 0.08(4) Uiso 0.09 2 d DS . P . 2
V3 V 0.6523(6) 0.3439(9) 0.5977(6) 0.061(7) Uani 0.08 2 d S TU P A 3
loop_
_atom_site_aniso_label
_atom_site_aniso_U_11
_atom_site_aniso_U_22
_atom_site_aniso_U_33
_atom_site_aniso_U_23
_atom_site_aniso_U_13
_atom_site_aniso_U_12
C1 0.039(4) 0.039(4) 0.025(5) -0.001(3) 0.001(3) -0.008(5)
C2 0.037(6) 0.030(3) 0.030(3) 0.001(4) 0.005(3) -0.005(3)
C3 0.045(6) 0.028(3) 0.028(3) -0.003(4) 0.004(3) -0.004(3)
Hf1 0.0263(3) 0.0316(3) 0.0263(3) 0.00131(13) 0.00480(18) -0.00131(13)
O1 0.027(2) 0.029(3) 0.035(3) -0.0037(19) 0.0096(19) -0.006(2)
O2 0.044(3) 0.075(6) 0.044(3) 0.032(3) -0.012(4) -0.032(3)
V1 0.036(7) 0.026(10) 0.036(7) -0.016(6) -0.013(10) 0.016(6)
V2 0.023(5) 0.037(9) 0.023(5) -0.001(5) -0.014(7) 0.001(5)
V3 0.067(9) 0.048(13) 0.067(9) -0.020(8) 0.013(12) 0.020(8)
loop_
_atom_type_symbol
_atom_type_description
_atom_type_scat_dispersion_real
_atom_type_scat_dispersion_imag
_atom_type_scat_source
C C 0.0181 0.0091 'International Tables Vol C Tables 4.2.6.8 and 6.1.1.4'
O O 0.0492 0.0322 'International Tables Vol C Tables 4.2.6.8 and 6.1.1.4'
V V 0.0687 2.1097 'International Tables Vol C Tables 4.2.6.8 and 6.1.1.4'
Hf Hf -6.1794 4.9776 'International Tables Vol C Tables 4.2.6.8 and 6.1.1.4'
H H 0.0000 0.0000 'International Tables Vol C Tables 4.2.6.8 and 6.1.1.4'
loop_
_geom_angle_atom_site_label_1
_geom_angle_atom_site_label_2
_geom_angle_atom_site_label_3
_geom_angle
_geom_angle_site_symmetry_1
_geom_angle_site_symmetry_3
C2 C1 C2 120.4(10) 100_665 .
C2 C1 H1 119.8 100_665 .
C2 C1 H1 119.8 . .
C1 C2 C1 119.6(10) . 104_665
C1 C2 C3 120.1(5) . .
C1 C2 C3 120.1(5) 104_665 .
O1 C3 O1 126.0(9) 37 .
O1 C3 C2 117.0(5) 37 .
O1 C3 C2 117.0(5) . .
O4 Hf1 V2 170.1(8) . .
O6 Hf1 O6 46.557(10) 14_656 .
O4 Hf1 O2 99.0(7) . .
V2 Hf1 O2 90.9(6) . .
O6 Hf1 O2 84.0(2) 14_656 .
O6 Hf1 O2 84.0(2) . .
O6 Hf1 O2 92.5(2) 14_656 108_655
O6 Hf1 O2 134.59(18) . 108_655
O2 Hf1 O2 70.8(2) . 108_655
O4 Hf1 O2 67.0(3) . 154_565
V2 Hf1 O2 116.9(3) . 154_565
O6 Hf1 O2 134.59(18) 14_656 154_565
O6 Hf1 O2 92.5(2) . 154_565
O2 Hf1 O2 70.8(2) . 154_565
O2 Hf1 O2 112.6(4) 108_655 154_565
O4 Hf1 O1 88.3(5) . .
V2 Hf1 O1 84.1(4) . .
O6 Hf1 O1 75.24(12) 14_656 .
O6 Hf1 O1 104.52(11) . .
O2 Hf1 O1 139.77(12) . .
O2 Hf1 O1 76.0(2) 108_655 .
O2 Hf1 O1 145.4(2) 154_565 .
O4 Hf1 O1 88.3(5) . 14_656
V2 Hf1 O1 84.1(4) . 14_656
O6 Hf1 O1 104.52(11) 14_656 14_656
O6 Hf1 O1 75.24(12) . 14_656
O2 Hf1 O1 139.77(12) . 14_656
O2 Hf1 O1 145.4(2) 108_655 14_656
O2 Hf1 O1 76.0(2) 154_565 14_656
O1 Hf1 O1 79.5(2) . 14_656
O6 Hf1 O3 147.6(4) 14_656 .
O6 Hf1 O3 147.6(4) . .
O2 Hf1 O3 119.8(7) . .
O2 Hf1 O3 77.0(4) 108_655 .
O2 Hf1 O3 77.0(4) 154_565 .
O1 Hf1 O3 72.5(5) . .
O1 Hf1 O3 72.5(5) 14_656 .
O6 Hf1 O5 15.895(2) 14_656 14_656
O6 Hf1 O5 61.326(12) . 14_656
O2 Hf1 O5 78.4(2) . 14_656
O2 Hf1 O5 76.6(2) 108_655 14_656
O2 Hf1 O5 141.62(16) 154_565 14_656
O1 Hf1 O5 72.20(12) . 14_656
O1 Hf1 O5 118.31(11) 14_656 14_656
O3 Hf1 O5 139.9(2) . 14_656
O4 Hf1 O5 142.06(8) . .
V2 Hf1 O5 40.24(17) . .
O2 Hf1 O5 78.4(2) . .
O2 Hf1 O5 141.62(16) 108_655 .
O2 Hf1 O5 76.6(2) 154_565 .
O1 Hf1 O5 118.31(11) . .
O1 Hf1 O5 72.20(12) 14_656 .
O5 Hf1 O5 75.141(14) 14_656 .
C3 O1 Hf1 132.6(5) . .
Hf1 O2 Hf1 108.9(3) . 154_565
Hf1 O2 Hf1 108.9(3) . 108_655
Hf1 O2 Hf1 103.8(4) 154_565 108_655
Hf1 O3 Hf1 101.4(8) 34_645 84_556
Hf1 O3 Hf1 101.4(8) 34_645 .
Hf1 O3 Hf1 101.4(8) 84_556 .
Hf1 O4 Hf1 119.0(2) 34_645 84_556
Hf1 O4 Hf1 119.0(2) 34_645 .
Hf1 O4 Hf1 119.0(2) 84_556 .
V2 O5 Hf1 60.2(7) . .
O6 O6 V1 64.0(3) 14_656 .
O6 O6 Hf1 66.717(5) 14_656 .
V1 O6 Hf1 118.9(5) . .
O6 V1 O6 51.9(6) . 14_656
O5 V2 O5 136.4(13) 14_656 .
O5 V2 O9 97.0(15) 14_656 .
O5 V2 O9 97.0(15) . .
O5 V2 Hf1 79.6(7) 14_656 .
O5 V2 Hf1 79.6(7) . .
O9 V2 Hf1 170(4) . .
O5 V2 O8 75.5(13) 14_656 .
O5 V2 O8 75.5(13) . .
O9 V2 O8 61(5) . .
Hf1 V2 O8 109(4) . .
loop_
_geom_bond_atom_site_label_1
_geom_bond_atom_site_label_2
_geom_bond_distance
_geom_bond_site_symmetry_2
C1 C2 1.388(7) 100_665
C1 C2 1.388(7) .
C1 H1 0.9500 .
C2 C3 1.496(14) .
C3 O1 1.250(6) 37
C3 O1 1.250(6) .
Hf1 O4 1.999(2) .
Hf1 V2 2.010(18) .
Hf1 O6 2.0965(4) 14_656
Hf1 O6 2.0967(4) .
Hf1 O2 2.117(7) .
Hf1 O2 2.189(5) 108_655
Hf1 O2 2.189(5) 154_565
Hf1 O1 2.189(4) .
Hf1 O1 2.189(4) 14_656
Hf1 O3 2.225(12) .
Hf1 O5 2.2792(4) 14_656
Hf1 O5 2.2793(4) .
O5 V2 1.497(7) .
O6 O6 1.65716(4) 14_656
O6 V1 1.893(19) .
V2 O9 2.01(2) .
V2 O8 2.01(2) .
V3 V3 2.70(6) 159_656
loop_
_geom_torsion_atom_site_label_1
_geom_torsion_atom_site_label_2
_geom_torsion_atom_site_label_3
_geom_torsion_atom_site_label_4
_geom_torsion
_geom_torsion_site_symmetry_1
_geom_torsion_site_symmetry_4
C2 C1 C2 C1 -3(2) 100_665 104_665
C2 C1 C2 C3 172.5(7) 100_665 .
C1 C2 C3 O1 1.4(14) . 37
C1 C2 C3 O1 176.7(9) 104_665 37
C1 C2 C3 O1 -176.7(9) . .
C1 C2 C3 O1 -1.4(14) 104_665 .
O1 C3 O1 Hf1 -13.2(16) 37 .
C2 C3 O1 Hf1 164.8(6) . .
Hf1 O6 V1 O6 39.6(9) . 14_656
Hf1 O5 V2 O5 -62.7(16) . 14_656
Hf1 O5 V2 O9 -170(4) . .
Hf1 O5 V2 O8 -112(4) . .
