#------------------------------------------------------------------------------
#$Date: 2019-11-26 03:59:51 +0200 (Tue, 26 Nov 2019) $
#$Revision: 242559 $
#$URL: file:///home/coder/svn-repositories/cod/cif/4/13/26/4132614.cif $
#------------------------------------------------------------------------------
#
# This file is available in the Crystallography Open Database (COD),
# http://www.crystallography.net/
#
# All data on this site have been placed in the public domain by the
# contributors.
#
data_4132614
loop_
_publ_author_name
'Otake, Ken-Ichi'
'Cui, Yuexing'
'Buru, Cassandra T.'
'Li, Zhanyong'
'Hupp, Joseph T.'
'Farha, Omar K.'
_publ_section_title
;
 Single-Atom-Based Vanadium Oxide Catalysts Supported on Metal-Organic
 Frameworks: Selective Alcohol Oxidation and Structure-Activity
 Relationship.
;
_journal_issue                   28
_journal_name_full               'Journal of the American Chemical Society'
_journal_page_first              8652
_journal_page_last               8656
_journal_paper_doi               10.1021/jacs.8b05107
_journal_volume                  140
_journal_year                    2018
_chemical_formula_moiety         'C18 H6 O34.4 Hf6 V1.44'
_chemical_formula_sum            'C18 H6 Hf6 O34.4 V1.44'
_chemical_formula_weight         1916.92
_space_group_crystal_system      cubic
_space_group_IT_number           227
_space_group_name_Hall           '-F 4vw 2vw 3'
_space_group_name_H-M_alt        'F d -3 m :2'
_atom_sites_solution_hydrogens   geom
_audit_creation_method           SHELXL-2017/1
_audit_update_record
;
2018-02-24 deposited with the CCDC.
2018-03-01 downloaded from the CCDC.
;
_cell_angle_alpha                90
_cell_angle_beta                 90
_cell_angle_gamma                90
_cell_formula_units_Z            16
_cell_length_a                   34.893(3)
_cell_length_b                   34.893(3)
_cell_length_c                   34.893(3)
_cell_measurement_reflns_used    1186
_cell_measurement_temperature    100(2)
_cell_measurement_theta_max      24.04
_cell_measurement_theta_min      2.54
_cell_volume                     42483(6)
_computing_cell_refinement       'Bruker SAINT'
_computing_data_collection       'Bruker APEX2'
_computing_data_reduction        'Bruker SAINT'
_computing_publication_material  'Yadokari-XG (Wakita, Nemoto et al., 2009)'
_computing_structure_refinement  'SHELXL-2017/1 (Sheldrick, 2017)'
_computing_structure_solution    'SHELXT 2014/5 (Sheldrick, 2014)'
_diffrn_ambient_temperature      100(2)
_diffrn_measured_fraction_theta_full 0.999
_diffrn_measured_fraction_theta_max 0.999
_diffrn_measurement_device_type  'Bruker APEX-II CCD'
_diffrn_measurement_method       '\f and \w scans'
_diffrn_radiation_type           MoK\a
_diffrn_radiation_wavelength     0.71073
_diffrn_reflns_av_R_equivalents  0.1025
_diffrn_reflns_av_unetI/netI     0.0640
_diffrn_reflns_Laue_measured_fraction_full 0.999
_diffrn_reflns_Laue_measured_fraction_max 0.999
_diffrn_reflns_limit_h_max       16
_diffrn_reflns_limit_h_min       -35
_diffrn_reflns_limit_k_max       42
_diffrn_reflns_limit_k_min       -12
_diffrn_reflns_limit_l_max       32
_diffrn_reflns_limit_l_min       -24
_diffrn_reflns_number            12914
_diffrn_reflns_point_group_measured_fraction_full 0.999
_diffrn_reflns_point_group_measured_fraction_max 0.999
_diffrn_reflns_theta_full        25.242
_diffrn_reflns_theta_max         25.570
_diffrn_reflns_theta_min         1.651
_diffrn_source                   'MoK\a I\mS microfocus source with MX Optics'
_exptl_absorpt_coefficient_mu    5.960
_exptl_absorpt_correction_type   multi-scan
_exptl_absorpt_process_details   '(SADABS-2014/5; Krause et al., 2015)'
_exptl_crystal_colour            'greenish yellow''
_exptl_crystal_density_diffrn    1.157
_exptl_crystal_density_method    'not measured'
_exptl_crystal_description       octahedron
_exptl_crystal_F_000             13104
_exptl_crystal_size_max          0.03
_exptl_crystal_size_mid          0.03
_exptl_crystal_size_min          0.03
_exptl_transmission_factor_max   0.7452
_exptl_transmission_factor_min   0.6583
_refine_diff_density_max         1.536
_refine_diff_density_min         -1.011
_refine_diff_density_rms         0.165
_refine_ls_extinction_method     none
_refine_ls_goodness_of_fit_ref   1.020
_refine_ls_hydrogen_treatment    constr
_refine_ls_matrix_type           full
_refine_ls_number_parameters     61
_refine_ls_number_reflns         1919
_refine_ls_number_restraints     0
_refine_ls_restrained_S_all      1.020
_refine_ls_R_factor_all          0.0608
_refine_ls_R_factor_gt           0.0403
_refine_ls_shift/su_max          0.001
_refine_ls_shift/su_mean         0.000
_refine_ls_structure_factor_coef Fsqd
_refine_ls_weighting_details
'w=1/[\s^2^(Fo^2^)+(0.0587P)^2^+211.7187P] where P=(Fo^2^+2Fc^2^)/3'
_refine_ls_weighting_scheme      calc
_refine_ls_wR_factor_gt          0.1063
_refine_ls_wR_factor_ref         0.1140
_reflns_Friedel_coverage         0.000
_reflns_number_gt                1386
_reflns_number_total             1919
_reflns_threshold_expression     'I > 2\s(I)'
_cod_data_source_file            ja8b05107_si_002.cif
_cod_data_source_block           Hf-MOF-808-V-HT
_cod_original_cell_volume        42483(10)
_cod_original_sg_symbol_H-M      'F d -3 m'
_cod_original_formula_sum        'C18 H6 O34.4 Hf6 V1.44'
_cod_database_code               4132614
_shelx_shelxl_version_number     2017/1
_shelx_space_group_comment
;
The symmetry employed for this shelxl refinement is uniquely defined
by the following loop, which should always be used as a source of
symmetry information in preference to the above space-group names.
They are only intended as comments.
;
_shelx_res_file
;
TITL 808V_HT_0m_a.res in Fd-3m
    808v_ht_0m_sq.res
    created by SHELXL-2017/1 at 22:45:50 on 07-Feb-2018
REM  Yadorkari-X generated
CELL 0.71073 34.8931 34.8931 34.8931 90.0000 90.0000 90.0000
ZERR 16.0 0.0028 0.0028 0.0028 0.0000 0.0000 0.0000
LATT 4
SYMM +X, +Z, +Y
SYMM 1/4+Y, -Z, 1/4+X
SYMM 1/4+Y, 1/4+X, -Z
SYMM 1/4+X, -Z, 1/4+Y
SYMM -Z, 1/4+Y, 1/4+X
SYMM 1/4+Z, 1/4+X, -Y
SYMM 1/4+Y, 1/4+Z, -X
SYMM 1/4+Z, 1/4+Y, -X
SYMM 1/4-Z, +X, 1/4-Y
SYMM 1/4+X, 1/4+Z, -Y
SYMM +Y, 1/4-Z, 1/4-X
SYMM +X, 1/4-Z, 1/4-Y
SYMM 1/4-Z, +Y, 1/4-X
SYMM 1/4+X, -Y, 1/4+Z
SYMM 1/4+Y, -X, 1/4+Z
SYMM +X, 1/4-Y, 1/4-Z
SYMM +Y, 1/4-X, 1/4-Z
SYMM -Y, -Z, -X
SYMM 1/4-X, 1/4-Y, +Z
SYMM -Y, -X, -Z
SYMM -Z, -X, -Y
SYMM -Z, -Y, -X
SYMM +Z, 1/4-X, 1/4-Y
REM  SPGR Fd-3m cubic
SFAC C O V Hf H
UNIT 288 512 16 96 0
TEMP -173.1
L.S. 25
FMAP 2
PLAN -31
ACTA
CONF
LIST 4

ABIN

WGHT    0.058700  211.718689
FVAR       0.01972
C1    1    0.327434    0.422566    0.471759    10.50000    0.02646    0.02646 =
         0.02002    0.00375   -0.00375   -0.00809
AFIX  43
H1    5    0.337765    0.412236    0.494733    10.50000   -1.20000
AFIX   0
C2    1    0.295405    0.405977    0.454595    10.50000    0.02226    0.02008 =
         0.02226    0.00920   -0.00018   -0.00920
C3    1    0.280325    0.369065    0.469675    10.50000    0.02305    0.02792 =
         0.02305    0.00411    0.00162   -0.00411
HF1   4    0.297106    0.297106    0.522588    10.50000    0.01474    0.01474 =
         0.02168    0.00009    0.00009   -0.00176
O1    2    0.297802    0.354564    0.497861    11.00000    0.02132    0.02273 =
         0.01481    0.00526   -0.00489   -0.00494
O2    2    0.263750    0.263750    0.560323    10.50000    0.03919
PART 1
O3    2    0.290762    0.290762    0.459238    10.08330    0.01411
PART 2
O4    2    0.276944    0.276944    0.473056    10.08330    0.01787
PART 1
V2    3   10.322309   10.322309   10.566700    10.10000    0.06046    0.06046 =
         0.13190    0.00866    0.00866    0.02393
O8    2    0.303969    0.303969    0.624259    10.10000    0.02570
O9    2    0.347582    0.347582    0.608009    10.10000    0.11881
PART 0
O5    2    0.287535    0.337999    0.572625    11.00000    0.14369
PART 3
V3    3    0.351821    0.351821    0.581077    10.01000    0.02508
PART 2
V1    3    0.324540    0.324540    0.608280    10.01000    0.00669
PART 0

HKLF 4 1 1 0 0 0 1 0 0 0 1




REM  808V_HT_0m_a.res in Fd-3m
REM R1 =  0.0403 for    1386 Fo > 4sig(Fo)  and  0.0608 for all    1919 data
REM     61 parameters refined using      0 restraints

END

WGHT      0.0586    212.7456

REM Highest difference peak  1.536,  deepest hole -1.011,  1-sigma level  0.165
Q1    1   0.2433  0.2933  0.5067  10.50000  0.05    1.54
Q2    1   0.2911  0.3359  0.6103  11.00000  0.05    1.28
Q3    1   0.2298  0.3279  0.5202  10.50000  0.05    1.18
Q4    1   0.3750  0.3750  0.6055  10.25000  0.05    1.10
Q5    1   0.3750  0.3750  0.5531  10.25000  0.05    1.01
Q6    1   0.3272  0.3272  0.6299  10.50000  0.05    0.80
Q7    1   0.3750  0.3750  0.4710  10.25000  0.05    0.79
Q8    1   0.3219  0.3219  0.5979  10.50000  0.05    0.71
Q9    1   0.3594  0.3416  0.5786  11.00000  0.05    0.70
Q10   1   0.3519  0.3519  0.6338  10.50000  0.05    0.69
Q11   1   0.3604  0.3276  0.5920  11.00000  0.05    0.66
Q12   1   0.3667  0.3206  0.5953  11.00000  0.05    0.66
Q13   1   0.2932  0.2836  0.6393  11.00000  0.05    0.62
Q14   1   0.3641  0.3273  0.5638  11.00000  0.05    0.57
Q15   1   0.3390  0.3593  0.5698  11.00000  0.05    0.57
Q16   1   0.2721  0.3018  0.6303  11.00000  0.05    0.57
Q17   1   0.3611  0.3362  0.6324  11.00000  0.05    0.54
Q18   1   0.3506  0.3506  0.5716  10.50000  0.05    0.53
Q19   1   0.2779  0.2906  0.5989  11.00000  0.05    0.51
Q20   1   0.3499  0.3405  0.5912  11.00000  0.05    0.51
Q21   1   0.2715  0.3000  0.5251  11.00000  0.05    0.51
Q22   1   0.3074  0.3931  0.4426  10.50000  0.05    0.50
Q23   1   0.3750  0.3750  0.5102  10.25000  0.05    0.49
Q24   1   0.2894  0.3647  0.4163  11.00000  0.05    0.49
Q25   1   0.2920  0.3722  0.5209  11.00000  0.05    0.48
Q26   1   0.3814  0.4206  0.5002  11.00000  0.05    0.48
Q27   1   0.2334  0.2882  0.5501  11.00000  0.05    0.47
Q28   1   0.2999  0.4225  0.4502  10.50000  0.05    0.47
Q29   1   0.3479  0.3629  0.5745  11.00000  0.05    0.45
Q30   1   0.2812  0.4031  0.4688  10.50000  0.05    0.45
Q31   1   0.2964  0.3187  0.5267  11.00000  0.05    0.45
;
_shelx_res_checksum              53180
_shelx_hkl_file
;
  -2   2   0   40.50    5.40
   2  -2   0   27.00    5.10
   2   0  -2   34.40    5.30
   2  -2   2 9123.79  335.57
  -2   2   2 9590.24  337.17
   2  -2  -2 9999.00  337.27
  -2   2  -2 9373.36  335.67
   1  -3   1 2732.53   96.59
   3  -1   1 2638.14   96.69
  -1   3   1 2731.83   97.29
   1  -3  -1 2558.44   97.09
  -3   1  -1 2545.05   96.69
   1  -1  -3 2711.03   96.19
   3  -1  -1 2721.83   97.49
  -1   3  -1 2695.93   96.59
  -3   1   3 1026.60   42.30
   3  -1   3 1092.69   40.50
  -3   3   1 1086.39   43.50
   3  -3   1 1076.59   42.70
  -1   3   3 1083.19   42.30
   1  -3  -3 1073.29   42.40
   3  -3  -1 1079.49   43.30
  -1   3  -3 1067.39   40.10
   3  -1  -3 1020.30   42.60
  -3   3  -1 1051.79   42.40
   3  -3   3  717.53   30.70
  -3   3   3  717.63   33.20
   3  -3  -3  783.12   33.20
  -3   3  -3  782.92   31.40
   0   0  -4 6223.28  216.88
   0   0   4 6095.19  216.88
   2   0  -4   -2.40    4.90
   4  -2   0    7.70    6.80
  -2   0   4   -2.30    4.10
  -4   2   0   11.70    6.70
   4   0  -2    1.50    6.40
   2  -4   0    2.10    6.10
  -2   4   0   -1.90    6.30
   0   2   4    5.00    4.40
   4  -2   2   73.99    9.30
  -4   2   2   68.89    9.60
  -2   4   2   69.99    9.80
  -2   2   4   73.69    9.10
   2  -4   2   61.29    7.90
   2  -2   4   81.09    6.00
  -2   2  -4   86.79    6.80
  -2   4  -2   84.19    9.40
   2  -2  -4   58.39    8.60
   2  -4  -2   62.69    9.60
   4  -2  -2   70.69    9.70
  -4   2  -2   58.79    8.10
  -4   0   4 1362.96   54.49
   0   4   4 1405.86   54.69
   4  -4   0 1391.76   55.69
   4   0  -4 1371.46   54.59
   4  -2   4   25.00    6.80
  -4   2   4   20.10    8.70
  -2   4   4    5.30    8.40
  -4   4   2   18.40    9.50
   2  -4   4   24.20    6.10
   4  -4   2   25.70    8.60
  -4   4  -2   12.30    8.10
  -2   4  -4   23.80    6.70
   4  -4  -2   27.60    9.00
   2  -4  -4   33.10    9.50
   4  -2  -4   27.80    9.00
  -4   2  -4   15.60    6.90
   4  -4   4  139.39   12.20
  -4   4   4  130.29   15.10
   4  -4  -4  134.39   14.50
  -4   4  -4  145.99   12.50
  -5   1   1  385.96   23.30
  -1   1   5  394.96   19.30
   1   1  -5  445.36   18.00
  -1   5   1  445.36   23.30
   5  -1   1  429.56   22.00
  -1   5  -1  442.96   21.70
   5  -1  -1  447.86   22.40
   1  -1  -5  416.96   19.50
   3   1  -5  107.99   10.30
  -1   5   3   80.59   11.30
   5  -3   1  117.99   12.70
  -5   3   1  107.19   13.40
  -3   1   5   95.59   10.60
  -1   5  -3   98.69   10.50
   5  -3  -1   94.99   12.00
   3  -1  -5  103.29   10.70
   1  -5  -3  108.69   12.10
  -5   3  -1   89.49   11.80
   5  -1   3   89.59   10.30
   3  -5   1  130.69   12.30
  -3   5   1   75.09   12.20
  -5   1   3   97.99   12.00
  -1   3   5  108.69   11.40
   5  -1  -3   98.59   12.40
  -1   3  -5   98.29    7.50
   1  -3  -5   97.69   10.50
  -3   5  -1   91.29   12.60
   3  -5  -1  113.49   12.90
   5  -3   3  236.38   17.10
  -5   3   3  197.68   17.90
  -3   5   3  182.58   17.70
  -3   3   5  229.18   18.70
   3  -5   3  236.38   16.50
   3  -3   5  232.78   13.10
  -3   3  -5  234.28   13.70
  -3   5  -3  247.68   18.30
   3  -3  -5  265.77   18.90
   3  -5  -3  241.68   18.70
   5  -3  -3  218.38   18.20
  -5   3  -3  222.58   17.40
  -5   1   5   -6.90    9.10
   5   1  -5   25.70   10.00
  -5   5   1    8.20   10.70
   5  -5   1   10.70    9.70
  -1   5   5   -6.60    9.50
   1  -5  -5    4.20   10.00
   5  -5  -1    5.60   10.10
  -1   5  -5   25.80    7.10
   5  -1  -5    7.80    8.80
  -5   5  -1   30.00   12.40
   5  -3   5  918.81   40.00
  -5   3   5  982.00   44.10
  -3   5   5 1008.00   45.20
  -5   5   3  932.81   44.80
   3  -5   5  984.50   39.60
   5  -5   3  950.00   42.40
  -5   5  -3  990.40   43.20
  -3   5  -5  956.30   40.00
   5  -5  -3  968.00   44.10
   3  -5  -5 1004.00   43.50
   5  -3  -5 1006.70   43.90
  -5   3  -5  947.31   40.40
   5  -5   5  569.44   28.60
  -5   5   5  573.24   32.60
   5  -5  -5  573.14   31.70
  -5   5  -5  604.54   29.30
   0   0  -6   -1.00    4.10
   0   0   6    2.40    4.10
   6  -2   0    5.80    8.70
  -2   0   6   16.60    6.70
   2   0  -6    7.60    6.40
  -6   2   0    8.00   10.20
  -4   0   6    5.00    8.00
   6  -4   0    0.90   10.10
  -6   4   0   -6.60   11.20
   4   0  -6    1.40    8.30
   2  -6   0   10.70    8.50
   0   2   6    6.00    6.20
   6   0  -2   24.10    8.70
  -2   6   0    2.80    9.90
  -2   2   6   -1.60    7.60
  -6   2   2    8.90    9.70
   6  -2   2   16.20    9.30
   2  -6   2   -3.90    8.00
  -2   6   2   10.60    9.70
   2  -2  -6  -12.20    7.30
   6  -2  -2   10.30    9.80
  -2   6  -2   -5.00    7.60
  -6   2  -2    7.50    9.40
   2  -6  -2   11.10    9.40
   6  -4   2   57.79   11.30
  -2   6   4   61.99   13.70
  -6   4   2   54.69   13.30
  -4   2   6   63.09   12.20
   4  -2   6   61.99    7.90
   2  -6  -4   56.59   12.10
   6  -4  -2   51.79   12.60
  -2   6  -4   58.39   10.20
   4  -2  -6   44.50   10.20
  -6   4  -2   66.59   13.00
   6   0  -4   -4.10    9.10
  -4   6   0   -2.20   11.40
   0   4   6    5.20    8.40
   4  -6   0   -2.00    9.50
   6  -2   4   63.89   10.50
   4  -6   2   89.99   13.30
  -2   4   6   67.69   12.00
  -6   2   4   59.99   12.50
  -4   6   2   64.69   13.60
  -4   6  -2   34.90   11.80
  -2   4  -6   48.40    7.20
   6  -2  -4   50.29   11.70
   2  -4  -6   53.59   11.70
   4  -6  -2   46.30   12.40
  -4   4   6 1950.20   77.09
  -6   4   4 1983.50   79.09
   6  -4   4 2068.09   75.59
  -4   6   4 1894.61   78.19
   4  -6   4 1894.71   74.69
   4  -4   6 1942.41   72.39
  -6   4  -4 1910.11   75.39
  -4   6  -4 1920.71   75.49
   4  -4  -6 1756.32   76.59
   4  -6  -4 1974.00   78.29
  -4   4  -6 1913.11   72.39
  -6   6   0  567.04   34.30
   0   6   6  627.24   31.60
   6  -6   0  533.05   31.20
   6   0  -6  538.15   30.50
  -6   2   6   71.89   13.70
   6  -2   6   74.89   10.20
  -6   6   2   44.30   14.60
   6  -6   2  102.99   15.30
  -2   6   6   89.19   14.10
   2  -6  -6   73.09   12.60
   6  -6  -2   70.79   14.20
  -2   6  -6   78.49   10.40
   6  -2  -6   59.19   13.00
  -6   6  -2   72.59   14.00
   6  -4   6  123.19   13.00
  -6   4   6  115.89   16.50
  -4   6   6  119.49   16.60
  -6   6   4   99.69   17.10
   4  -6   6  133.79   12.70
   6  -6   4   87.89   13.40
  -6   6  -4  159.88   16.70
  -4   6  -6  152.78   14.20
   6  -6  -4  135.49   16.70
   4  -6  -6  115.19   15.70
   6  -4  -6  125.99   16.20
  -6   4  -6  128.49   13.20
   6  -6   6  119.19   13.50
  -6   6   6  153.38   20.60
  -6   6  -6   97.19   13.60
  -1   1   7  337.07   18.00
   7  -1   1  349.27   23.70
  -1   7   1  312.17   22.80
   1   1  -7  370.06   16.30
   1  -1  -7  324.17   17.90
   1   1   7  346.17   16.50
   7  -1  -1  340.17   24.20
  -1   7  -1  334.07   22.00
  -3   1   7  181.08   14.80
   3   1  -7  197.58   15.00
  -1   7   3  178.88   17.80
   7  -3   1  218.98   18.50
  -7   3   1  185.08   18.90
   7  -3  -1  180.58   19.10
  -7   3  -1  206.08   18.90
   3  -1  -7  192.68   15.80
  -1   7   5   52.79   13.10
  -5   1   7   83.99   13.10
  -7   5   1   74.19   15.10
   7  -5   1   75.29   15.30
   5   1  -7   74.59   12.20
   5  -1  -7   66.19   11.90
   7  -5  -1   57.59   14.00
  -7   5  -1   74.09   16.10
  -1   3   7  214.28   16.10
  -7   1   3  174.88   17.20
   3  -7   1  187.68   16.40
   7  -1   3  180.58   15.30
  -3   7   1  202.18   19.80
  -1   3  -7  134.29    7.50
   1  -3  -7  175.88   14.10
  -3   7  -1  203.78   18.60
   3  -7  -1  214.48   18.40
   7  -1  -3  186.68   16.80
   3  -3   7  293.87   14.20
   7  -3   3  305.97   21.90
  -7   3   3  279.37   23.10
  -3   7   3  286.77   23.60
  -3   3   7  304.47   21.40
   3  -7   3  340.57   21.30
  -3   3  -7  289.87   14.60
   7  -3  -3  294.17   22.30
  -3   7  -3  291.97   22.00
   3  -3  -7  329.67   21.70
   3  -7  -3  277.67   21.60
  -7   3  -3  314.57   23.10
  -5   3   7   38.40   13.00
   3  -7   5   61.69   11.00
   7  -5   3   50.99   12.40
  -3   7   5   79.19   14.80
   5  -3   7   80.79    9.60
  -7   5   3   61.89   14.90
  -3   7  -5   56.49   11.40
   5  -3  -7   47.20   12.40
   3  -7  -5   58.29   12.50
  -7   5  -3   59.59   12.60
   7  -5  -3   48.20   12.50
   7   1  -5   89.09   13.20
  -5   7   1   96.09   17.10
  -7   1   5   87.99   13.90
  -1   5   7   56.49   12.30
   5  -7   1   76.99   15.00
   1  -5  -7   59.09   11.90
   7  -1  -5   63.49   13.30
   5  -7  -1   58.29   13.50
  -5   7  -1   65.89   13.90
   7  -3   5   63.49   11.50
   3  -5   7   78.69    8.50
  -7   3   5   43.80   13.80
   5  -7   3   72.09   12.20
  -5   7   3   58.59   15.70
  -3   5   7   42.20   13.40
   5  -7  -3   76.09   13.90
   7  -3  -5   62.79   14.10
  -3   5  -7   65.99    9.00
  -5   7  -3   54.19   14.20
   3  -5  -7   42.10   11.60
  -7   3  -5   55.29   11.60
   7  -5   5   34.60   11.30
  -7   5   5   37.70   13.60
  -5   7   5   47.20   15.70
  -5   5   7   35.40   14.30
   5  -7   5   33.10   10.90
   5  -5   7   33.70    8.10
  -5   5  -7   44.50    9.50
  -5   7  -5   35.50   11.90
   5  -5  -7   23.00   12.00
   5  -7  -5   24.50   12.70
   7  -5  -5   19.00   11.30
  -7   5  -5   41.00   11.80
  -7   1   7  859.41   44.20
   7   1  -7  949.31   43.10
  -7   7   1  913.91   46.70
  -1   7   7  999.40   45.10
   7  -7   1  985.80   45.80
   7  -7  -1  965.10   49.20
   7  -1  -7  867.01   42.90
  -7   7  -1  849.72   45.20
  -7   3   7  386.76   27.40
  -3   7   7  468.15   30.10
  -7   7   3  372.66   30.20
   7  -7   3  391.86   27.20
   7  -3   7  420.96   23.80
  -7   7  -3  401.96   28.70
  -3   7  -7  445.96   23.30
   7  -3  -7  409.46   28.80
   3  -7  -7  425.36   28.30
   7  -5   7 1611.34   65.89
  -7   5   7 1730.23   71.19
   5  -7   7 1554.84   64.69
  -7   7   5 1650.53   72.59
   7  -7   5 1673.33   67.79
  -5   7   7 1563.74   70.49
  -7   7  -5 1618.04   67.79
  -5   7  -7 1608.64   65.49
  -7   5  -7 1702.13   65.89
   7  -7   7 3001.10  111.89
  -7   7   7 2803.52  117.79
  -7   7  -7 2947.01  112.19
   0   0  -8 1911.41   67.99
   0   0   8 1804.32   68.09
  -2   0   8   -1.50    6.70
   2   0  -8    9.10    7.00
   8  -2   0   10.70   10.80
  -8   2   0    5.10   12.30
   8  -4   0  874.81   42.40
  -4   0   8  858.21   37.60
   4   0  -8  742.43   37.00
  -8   4   0  865.11   41.90
   6   0  -8   11.90   10.50
   8  -6   0    4.00   11.00
   0   8   6   16.90   13.40
  -6   0   8    3.50    9.70
  -8   6   0    7.00   13.30
  -2   8   0   -5.70   12.10
   8   0  -2   -2.30    9.10
   0   2   8    2.20    6.90
   0   2  -8    3.70    3.50
  -8   2   2  319.17   25.30
  -2   2   8  353.86   21.20
   8  -2   2  340.37   23.10
  -2   8   2  327.57   24.90
   2   2  -8  362.76   18.20
   2  -2  -8  345.97   20.00
   8  -2  -2  310.77   23.60
   2  -8  -2  360.46   23.80
  -2   8  -2  319.07   23.00
  -8   4   2  126.59   18.00
   4   2  -8  176.68   14.40
   8  -4   2  157.08   18.30
   4  -2   8  153.88   10.90
  -2   8   4  152.48   18.40
  -4   2   8  160.48   16.90
   4  -2  -8  143.79   15.30
   8  -4  -2  161.38   18.20
  -2   8  -4  173.78   16.50
  -8   4  -2  126.89   16.60
   2  -8  -4  161.58   17.00
   6  -2   8  713.53   32.60
   8  -6   2  828.12   40.00
  -8   6   2  833.22   41.60
  -6   2   8  755.62   38.20
   6   2  -8  725.53   36.00
  -2   8   6  723.13   39.00
   6  -2  -8  777.32   37.10
  -2   8  -6  744.33   35.20
  -8   6  -2  660.93   39.60
   2  -8  -6  708.23   37.30
   8   0  -4  747.53   38.90
   0   4   8  785.32   36.20
   4  -8   0  822.32   39.50
  -4   8   0  865.51   41.90
  -2   4   8  133.19   15.40
   4  -8   2  173.38   17.60
   8  -2   4  145.69   16.30
  -8   2   4  157.18   18.40
  -4   8   2  160.68   18.50
  -4   8  -2  158.08   16.90
   8  -2  -4  130.39   16.50
  -2   4  -8  150.18    9.90
   2  -4  -8  164.88   15.60
   4  -8  -2  171.08   18.20
  -8   4   4  103.69   18.10
   4  -8   4  113.39   14.70
  -4   4   8   99.49   14.20
  -4   8   4   88.69   16.70
   4  -4   8  106.59    9.40
   8  -4   4  106.39   14.20
   4  -4  -8   73.59   14.10
   4  -8  -4  135.49   18.50
   8  -4  -4  110.49   16.10
  -4   4  -8  122.79    9.80
  -8   4  -4  116.79   15.90
  -4   8  -4  103.29   14.60
   4  -8   6  848.12   38.20
  -6   4   8  856.21   42.20
  -8   6   4  812.22   44.20
   8  -6   4  904.01   41.30
  -4   8   6  843.92   44.00
   6  -4   8  872.41   36.40
  -6   4  -8  822.62   36.40
  -8   6  -4  854.51   42.10
   6  -4  -8  855.91   42.80
  -4   8  -6  780.52   39.00
  -6   8   0   -7.90   13.30
   0   6   8    3.70   10.50
   8   0  -6    6.50   10.60
   6  -8   0   17.90   11.70
  -8   2   6  804.72   41.20
   6  -8   2  806.42   39.60
   8  -2   6  732.53   36.00
  -6   8   2  775.52   41.70
  -2   6   8  720.73   38.50
   2  -6  -8  708.63   37.70
  -6   8  -2  783.52   41.20
   8  -2  -6  732.53   39.90
  -2   6  -8  769.32   32.20
   6  -8   4  833.52   40.70
   8  -4   6  844.92   39.30
   4  -6   8  862.31   35.30
  -4   6   8  799.92   42.50
  -6   8   4  865.11   45.00
  -8   4   6  857.31   43.40
  -8   4  -6  864.61   40.00
  -6   8  -4  849.32   42.10
   4  -6  -8  788.92   41.60
  -4   6  -8  772.22   35.80
   8  -6   6 2496.55   93.59
  -8   6   6 2432.76   97.69
   6  -8   6 2348.76   92.49
  -6   6   8 2283.87   97.09
   6  -6   8 2377.76   90.29
  -6   8   6 2408.26   98.09
  -6   6  -8 2375.76   90.39
  -6   8  -6 2264.07   92.79
  -8   6  -6 2346.87   93.19
  -8   8   0  -10.20   12.30
   0   8   8  -11.80   11.10
   8   0  -8    4.70   11.80
  -8   2   8  612.94   34.60
   8  -2   8  615.94   30.60
  -8   8   2  572.44   39.30
   8   2  -8  592.94   33.60
  -2   8   8  563.74   35.50
  -8   8  -2  650.33   36.30
  -2   8  -8  595.54   29.20
  -8   4   8   39.70   15.40
   8  -4   8   22.70   10.20
  -8   8   4    0.90   13.60
   8  -8   4   17.10   11.70
  -4   8   8   29.70   13.60
   4  -8   8    9.00    8.10
  -4   8  -8   20.00    9.70
  -8   8  -4   23.80   13.20
   8  -6   8  197.28   17.90
  -8   6   8  178.08   21.70
   6  -8   8  219.28   18.30
  -8   8   6  195.18   23.90
   8  -8   6  183.78   19.30
  -6   8   8  245.38   27.00
  -8   8  -6  232.88   21.60
  -6   8  -8  214.48   18.60
  -8   6  -8  216.98   18.80
   8  -8   8  119.39   15.10
  -8   8   8  115.29   20.20
  -8   8  -8  112.99   16.00
   1   1  -9  639.14   26.50
  -1   1   9  650.43   28.60
   1  -1   9  619.44   23.80
  -1   9   1  635.74   35.10
   9  -1   1  591.64   33.40
  -1   9  -1  632.64   33.80
   1  -1  -9  621.84   28.20
   1   1   9  612.64   26.90
   9  -1  -1  634.74   35.00
  -1  -1   9  662.93   26.40
  -9   3   1  519.85   32.40
  -3   1   9  585.44   27.00
  -1   9   3  497.05   31.40
   9  -3   1  533.15   32.40
   3   1  -9  525.05   25.50
   9  -3  -1  506.85   31.30
   3  -1  -9  503.45   26.90
  -9   3  -1  522.75   31.70
  -5   1   9  315.77   23.60
  -9   5   1  428.66   29.40
  -1   9   5  381.76   27.60
   5   1  -9  397.66   23.90
   9  -5   1  384.86   26.40
  -9   5  -1  348.97   27.40
   5  -1  -9  386.76   24.00
  -9   7   1   40.40   15.80
  -1   9   7   49.90   15.20
  -7   1   9   59.59   13.90
   7   1  -9   87.79   14.40
   7  -1  -9   49.00   14.20
  -9   7  -1   67.89   17.60
   3  -9   1  513.75   31.40
   9  -1   3  544.55   30.10
  -3   9   1  558.14   32.80
  -1   3   9  582.74   27.90
   3  -9  -1  539.85   31.20
  -3   9  -1  526.85   31.60
   1  -3  -9  530.85   26.70
   9  -1  -3  514.15   30.80
   1   3   9  549.35   26.60
   3  -3   9  119.89    7.50
  -3   9   3  131.49   18.30
  -3   3   9  133.49   15.20
   9  -3   3  129.79   15.80
  -9   3   3  119.79   17.30
  -3   9  -3   89.09   16.10
  -9   3  -3  123.99   16.20
   3  -3  -9  134.99   14.80
  -3   9   5 1665.93   70.79
  -5   3   9 1556.64   67.09
   5  -3   9 1544.05   60.59
  -9   5   3 1641.04   70.59
   9  -5   3 1611.74   67.59
  -3   9  -5 1624.04   66.19
   5  -3  -9 1562.84   66.59
  -9   5  -3 1652.73   68.99
  -9   7   3  224.68   24.10
  -7   3   9  214.58   21.70
   7  -3   9  216.48   17.00
  -3   9   7  240.68   23.40
  -3   9  -7  213.88   18.60
   7  -3  -9  223.88   21.50
  -9   7  -3  250.37   23.90
  -5   9   1  401.56   31.00
   5  -9   1  324.97   26.40
  -1   5   9  368.86   24.50
   9   1  -5  378.76   25.80
   1   5   9  353.76   23.20
  -1   5  -9  364.16   17.00
  -5   9  -1  308.17   26.20
   1  -5  -9  423.86   24.20
   9  -3   5 1535.65   67.29
   5  -9   3 1606.24   67.79
  -9   3   5 1737.03   71.19
  -5   9   3 1626.84   71.69
  -3   5   9 1674.93   68.39
   3  -5  -9 1597.54   67.39
  -5   9  -3 1663.33   69.89
  -3   5  -9 1624.24   60.89
  -9   5   5 1083.39   56.49
  -5   9   5 1271.47   58.39
   5  -5   9 1192.18   46.80
  -5   5   9 1125.59   54.49
   9  -5   5 1176.98   52.69
   5  -9   5 1147.69   51.49
   5  -5  -9 1199.18   53.99
  -5   9  -5 1218.48   53.19
  -5   5  -9 1154.78   46.80
  -9   5  -5 1187.58   53.19
   9  -7   5   26.40   12.20
  -9   7   5   58.69   16.00
  -5   9   7   21.70   16.10
   5  -9   7   23.00    9.70
  -7   5   9   16.10   12.40
   7  -5   9   24.70    8.90
  -9   7  -5   24.80   13.30
  -5   9  -7   28.00   11.60
  -7   5  -9   35.20    9.70
  -1   7   9   52.69   13.00
  -9   1   7   56.99   15.90
  -7   9   1   46.70   15.80
   1   7   9   65.49   13.10
  -7   9  -1   55.19   15.50
  -9   3   7  218.58   22.70
   9  -3   7  225.68   19.20
  -7   9   3  193.68   23.50
  -3   7   9  248.18   23.40
  -3   7  -9  214.98   16.40
  -7   9  -3  246.68   24.10
   9  -5   7   28.30   11.00
   7  -9   5   31.20   12.00
  -9   5   7   59.79   15.70
   5  -7   9   12.80    7.60
  -7   9   5   19.60   14.90
  -5   7   9   22.00   15.00
  -5   7  -9   18.80    8.90
  -7   9  -5   27.70   13.30
  -9   5  -7    0.80   10.50
   9  -7   7   -5.00   10.20
  -9   7   7   28.60   14.40
   7  -9   7    0.30   10.40
  -7   7   9   -8.00   12.80
   7  -7   9    8.90    8.70
  -7   9   7  -21.70   12.90
  -7   7  -9    4.60    9.00
  -7   9  -7    2.10   11.10
  -9   7  -7    1.90   10.60
  -9   1   9   11.70   13.10
  -1   9   9   -6.60   12.50
  -9   9   1   14.70   15.00
  -9   9  -1   20.80   14.90
   1   9   9   32.20   13.30
  -9   3   9  765.62   43.10
   9  -3   9  834.42   38.60
  -9   9   3  831.62   46.90
  -3   9   9  738.03   44.00
  -3   9  -9  841.22   37.90
  -9   9  -3  861.71   44.00
  -9   5   9 2452.75  101.39
   5  -9   9 2531.55   94.59
  -9   9   5 2395.66  104.59
   9  -5   9 2469.95   95.49
  -5   9   9 2356.36  101.19
  -9   9  -5 2434.16   99.59
  -5   9  -9 2497.05   95.29
   7  -9   9  657.53   33.50
  -9   7   9  644.34   41.60
  -7   9   9  657.43   42.40
  -9   9   7  644.04   42.00
   9  -7   9  680.73   34.50
  -9   9  -7  599.84   36.60
  -9   7  -9  654.73   34.50
  -7   9  -9  615.54   33.90
   9  -9   9 2713.43  107.29
  -9   9   9 2703.23  114.69
  -9   9  -9 2763.42  107.69
   0   0 -10    4.70    5.50
   0   0  10    7.70    6.00
   2   0  10  113.09    9.30
  -2   0  10  113.29   11.50
   2   0 -10  122.39   11.50
  -4   0  10    6.50    9.20
 -10   4   0    2.00   12.20
   4   0 -10  -16.80    8.00
   6   0 -10 1057.29   48.40
   0  10   6 1105.29   51.99
  -6   0  10 1045.10   47.60
 -10   6   0 1073.79   53.59
 -10   8   0   -6.10   13.30
   8   0 -10    7.10   11.20
   0  10   8   -3.50   11.70
   0   2  10  121.39   11.80
  -2  10   0  115.29   16.60
   0   2 -10  110.99    7.80
  -2  10   2 2538.35  105.99
 -10   2   2 2828.62  107.09
   2   2 -10 2682.73   97.69
  -2   2  10 2535.85  100.49
  -2  10  -2 2656.83  104.39
   2  -2 -10 2743.13  100.39
   4   2 -10   46.00   10.00
   4  -2  10   36.40    5.60
  -2  10   4   16.50   14.70
 -10   4   2   36.80   14.60
  -4   2  10   39.90   11.60
   4  -2 -10   33.50   11.00
 -10   4  -2   28.90   13.60
  -2  10  -4   39.20   12.70
   6  -2  10  284.77   16.90
 -10   6   2  360.46   29.30
  -2  10   6  258.37   24.50
   6   2 -10  227.18   20.00
  -6   2  10  257.87   22.30
 -10   6  -2  265.77   25.80
  -2  10  -6  253.47   21.00
   6  -2 -10  252.87   22.70
  -2  10   8  190.58   22.40
   8   2 -10  182.48   19.20
   8  -2  10  189.08   15.80
  -8   2  10  197.78   21.20
 -10   8   2  159.58   22.50
 -10   8  -2  178.88   21.90
  -2  10  -8  190.78   17.50
   0   4  10    3.60    8.70
  -4  10   0   -7.60   12.50
 -10   2   4   44.30   14.40
  -2   4  10   43.60   11.80
   4 -10   2   27.70   13.20
  10  -2   4   39.20   13.20
  -4  10   2   50.09   15.70
   2  -4 -10   50.19   11.40
  -4  10  -2   39.40   13.70
  -4  10   4 1951.30   82.79
  -4   4  10 1867.31   78.39
  10  -4   4 1979.90   79.89
   4  -4  10 1912.31   70.09
 -10   4   4 1930.41   82.79
   4 -10   4 1865.21   77.79
 -10   4  -4 1900.01   79.39
  -4  10  -4 1928.41   79.39
   4  -4 -10 1942.21   77.69
  -4  10   6  109.99   19.10
   6  -4  10  109.59   10.90
  -6   4  10  111.79   18.20
 -10   6   4  116.59   19.30
   6  -4 -10   98.59   18.20
  -4  10  -6   83.89   15.00
 -10   6  -4  127.99   17.30
  -8   4  10 1512.45   65.89
   8  -4  10 1394.86   59.29
 -10   8   4 1452.15   68.69
  -4  10   8 1505.15   68.19
 -10   8  -4 1478.55   66.39
  -4  10  -8 1460.55   61.29
  -6  10   0 1137.69   53.29
   0   6  10 1018.70   47.90
  -2   6  10  291.47   23.60
  -6  10   2  253.67   25.10
  10  -2   6  250.47   22.60
 -10   2   6  267.47   26.30
  -2   6 -10  273.17   15.30
  -6  10  -2  271.77   24.60
   2  -6 -10  274.77   21.10
   4  -6  10  122.99   10.30
  10  -4   6  102.79   15.60
  -4   6  10  114.89   16.60
 -10   4   6  137.79   20.30
  -6  10   4  117.09   20.10
  -4   6 -10  108.19   10.20
  -6  10  -4  120.79   18.40
   6 -10   6  117.89   15.40
  -6   6  10   85.59   17.70
   6  -6  10   76.09   10.30
  10  -6   6   78.79   16.80
  -6  10   6   69.39   17.60
 -10   6   6   41.60   16.20
  -6   6 -10   99.99   11.30
  -6  10  -6   87.59   16.00
 -10   6  -6   95.59   16.00
 -10   8   6 1140.59   57.79
   8  -6  10 1115.79   48.10
   6 -10   8 1142.79   50.19
  -8   6  10 1179.38   55.89
  -6  10   8 1067.09   56.39
 -10   8  -6 1043.20   52.79
  -6  10  -8 1137.19   51.69
  -8   6 -10 1151.68   48.50
   0   8  10   -8.00   11.20
  -8  10   0  -29.00   12.10
  10  -2   8  245.38   20.00
  -8  10   2  172.98   23.90
 -10   2   8  193.78   21.80
  -2   8  10  208.58   22.50
  -2   8 -10  175.78   14.70
  -8  10  -2  252.97   26.20
 -10   4   8 1408.66   67.79
  10  -4   8 1475.25   63.29
  -8  10   4 1558.64   71.19
  -4   8  10 1503.05   68.09
  -4   8 -10 1477.65   59.89
  -8  10  -4 1597.74   68.49
  10  -6   8 1110.49   50.89
 -10   6   8 1131.09   57.69
  -8  10   6 1147.69   57.99
   6  -8  10 1155.88   47.60
  -6   8  10 1118.29   55.69
  -6   8 -10 1076.49   47.60
 -10   6  -8 1157.78   51.49
  -8  10  -6 1058.49   53.49
   8  -8  10 1797.62   74.49
 -10   8   8 1872.61   84.29
  -8  10   8 1911.01   84.29
  -8   8  10 1728.83   81.99
  -8  10  -8 1849.61   77.99
  -8   8 -10 1930.21   75.49
 -10   8  -8 1889.21   78.29
 -10  10   0   -3.30   15.80
   0  10  10    1.10   12.10
 -10   2  10  453.65   33.30
  10  -2  10  477.25   27.40
 -10  10   2  482.65   35.80
  -2  10  10  411.16   31.30
  -2  10 -10  456.85   25.80
 -10  10  -2  465.85   33.20
 -10   4  10   -8.20   12.20
  10  -4  10   12.20    9.40
 -10  10   4   -6.50   15.80
  -4  10  10   20.30   13.90
  -4  10 -10   10.00    9.70
 -10  10  -4   -2.00   12.20
 -10   6  10  318.67   29.50
   6 -10  10  360.06   23.10
 -10  10   6  385.36   34.50
  10  -6  10  275.27   23.40
  -6  10  10  320.67   31.20
 -10  10  -6  379.96   29.80
  -6  10 -10  326.47   23.80
   8 -10  10  244.58   21.60
 -10   8  10  269.67   30.00
  -8  10  10  294.17   29.00
 -10  10   8  225.08   28.30
  10  -8  10  273.77   23.00
 -10  10  -8  269.27   25.40
 -10   8 -10  262.47   22.30
  -8  10 -10  261.77   22.30
 -10  10  10  122.29   22.10
 -10  10 -10  129.39   17.60
   1   1 -11  658.83   27.60
  -1   1  11  632.24   29.60
   1  -1  11  655.83   25.00
  -1  11   1  599.44   37.20
   1  -1 -11  678.93   29.40
  -1  11  -1  642.24   37.70
  -1  -1  11  636.74   27.30
   1   1  11  640.64   28.00
 -11   3   1 1397.76   65.49
  -1  11   3 1508.35   66.09
  -3   1  11 1494.85   59.59
   3   1 -11 1493.25   58.09
  -1  11  -3 1518.75   63.89
   3  -1 -11 1410.86   59.19
 -11   5   1   62.59   17.70
  -5   1  11   51.29   12.40
  -1  11   5   56.79   16.50
   5   1 -11   46.10   11.00
   5  -1 -11   50.39   12.20
 -11   5  -1   57.39   15.90
   7   1 -11  628.34   34.00
  -7   1  11  574.04   34.40
  -1  11   7  617.54   37.90
 -11   7   1  613.34   39.20
 -11   7  -1  663.93   39.10
   7  -1 -11  703.63   35.30
 -11   9   1  131.09   23.70
  -9   1  11  162.68   20.10
  -1  11   9  140.09   21.80
 -11   9  -1  127.19   21.40
   1  11   9  194.28   23.20
  -1  11  -9  145.39   15.90
  -1   3  11 1523.45   61.19
   1   3 -11 1523.35   56.19
  -3  11   1 1517.45   67.09
  -3  11  -1 1540.05   67.19
   1   3  11 1491.85   59.89
   1  -3 -11 1460.65   60.29
  -3   3  11  558.94   31.30
   3   3 -11  591.94   26.80
 -11   3   3  605.84   36.80
  -3  11   3  524.75   36.90
  -3  11  -3  543.95   33.10
   3  -3 -11  549.05   30.40
  -3  11   5  329.87   28.70
   5  -3  11  346.77   16.60
  -5   3  11  310.17   24.90
 -11   5   3  336.97   29.50
   5   3 -11  325.87   21.90
 -11   5  -3  337.77   28.40
  -3  11  -5  315.07   26.00
   5  -3 -11  361.76   24.70
   7   3 -11  114.19   15.80
 -11   7   3  108.59   20.60
  -7   3  11  133.09   18.20
   7  -3  11  121.99   11.80
  -3  11   7   83.39   17.80
  -3  11  -7   89.99   14.90
 -11   7  -3   91.29   17.80
   9  -3  11   59.29   10.80
  -9   3  11   83.19   17.30
  -3  11   9   75.19   18.40
 -11   9   3   42.90   18.10
  -3  11  -9   62.19   12.60
 -11   9  -3   42.00   15.80
  -1   5  11   51.19   12.70
  -5  11   1   46.00   15.10
   1   5  11   54.59   11.20
  -1   5 -11   44.00    5.30
  -5  11  -1   36.20   14.20
  -3   5  11  334.97   25.40
  -5  11   3  406.96   30.50
 -11   3   5  345.87   30.00
  -3   5 -11  318.27   14.80
   3  -5 -11  357.36   24.40
  -5  11  -3  309.47   26.30
 -11   5   5  754.52   42.60
  -5   5  11  673.63   37.80
   5  -5  11  692.53   29.20
  -5  11   5  777.92   44.10
 -11   5  -5  672.83   38.90
  -5  11  -5  655.13   38.40
 -11   7   5  716.83   42.60
  -5  11   7  610.64   42.30
  -7   5  11  643.34   39.60
   7  -5  11  691.23   31.10
   5 -11   7  703.33   35.50
  -5  11  -7  681.03   37.10
 -11   7  -5  660.63   38.20
   9  -5  11  206.28   17.60
 -11   9   5  174.88   24.20
  -9   5  11  170.88   22.70
  -5  11   9  160.78   23.60
  -5  11  -9  185.78   19.70
 -11   9  -5  184.78   22.90
  -7  11   1  608.64   39.60
  -1   7  11  603.34   35.30
  -7  11  -1  618.04   40.30
   1   7  11  697.93   35.70
  -1   7 -11  648.94   27.90
  -3   7  11  121.59   18.60
 -11   3   7  105.49   18.90
  -7  11   3  121.49   20.40
  11  -3   7  126.99   19.00
  -3   7 -11   94.49   10.00
  -7  11  -3   90.09   17.90
  -5   7  11  779.42   42.10
  -7  11   5  737.03   45.50
 -11   5   7  698.63   42.40
   5  -7  11  696.73   30.80
  -7  11  -5  768.62   41.00
  -5   7 -11  633.44   31.40
 -11   7   7 1828.12   82.09
  -7   7  11 1730.63   79.49
   7  -7  11 1885.21   71.29
  -7  11   7 1752.72   81.79
  -7   7 -11 1770.62   71.29
 -11   7  -7 1854.21   77.29
  -7  11  -7 1861.61   77.49
   9  -7  11    7.20    9.30
   7 -11   9    7.20   11.50
  -7  11   9    5.30   16.80
  -9   7  11   13.20   14.30
 -11   9   7    3.10   15.20
 -11   9  -7    2.10   12.60
  -7  11  -9    8.20   12.20
  -9   7 -11   15.00   10.50
  -9  11   1  134.19   21.90
  -1   9  11  130.49   19.40
  -1   9 -11  135.79   13.50
   1   9  11  140.69   19.40
  -9  11  -1  116.19   21.80
  11  -3   9   71.79   13.50
 -11   3   9   46.30   15.70
  -9  11   3   91.99   20.80
  -3   9  11   52.49   16.40
  -3   9 -11   65.09   10.50
  -9  11  -3   36.80   15.60
  11  -5   9  166.38   18.70
  -9  11   5  178.38   25.50
 -11   5   9  197.38   25.90
  -5   9  11  183.38   22.40
  -9  11  -5  160.98   21.00
  -5   9 -11  170.88   16.00
  -9  11   7    8.20   15.60
 -11   7   9   11.50   15.00
  -7   9  11   20.40   16.20
   7  -9  11   11.30    8.80
 -11   7  -9  -24.20   11.00
  -7   9 -11   -2.70    8.80
  -9  11  -7   17.20   13.20
   9  -9  11    0.00    9.10
 -11   9   9   29.00   18.80
  -9  11   9  -14.00   15.20
  -9   9  11    6.30   16.40
  -9  11  -9    9.60   12.00
  -9   9 -11   12.10   10.80
 -11   9  -9   17.20   12.70
  -1  11  11  227.88   26.20
 -11  11   1  278.17   30.20
  -1  11 -11  244.48   20.10
 -11  11  -1  309.77   29.50
   1  11  11  252.97   25.00
 -11   3  11 2221.18   94.59
  11  -3  11 2204.28   88.29
 -11  11   3 2276.57   98.99
  -3  11  11 2207.18   95.39
  -3  11 -11 2140.59   86.69
 -11  11  -3 2256.77   95.19
 -11   5  11  299.87   29.10
  11  -5  11  260.57   22.70
 -11  11   5  307.47   31.70
  -5  11  11  275.47   29.00
  -5  11 -11  274.47   22.70
 -11  11  -5  339.47   30.60
 -11   7  11 1470.65   69.79
   7 -11  11 1445.96   60.99
 -11  11   7 1382.26   70.99
  11  -7  11 1463.75   65.99
  -7  11  11 1522.75   70.89
 -11  11  -7 1404.36   66.99
  -7  11 -11 1334.07   61.89
 -11  11   9  276.77   30.80
 -11   9  11  266.47   31.90
  -9  11  11  324.27   33.00
 -11   9 -11  269.67   24.20
  -9  11 -11  268.77   24.10
 -11  11  -9  302.57   26.70
 -11  11  11  554.84   41.40
 -11  11 -11  563.84   35.20
   0   0  12 5502.85  196.58
   2   0 -12   -7.60    7.20
   2   0  12   -0.70    5.20
  -2   0  12  -10.50    6.70
   4   0 -12 2158.18   82.69
  -4   0  12 2131.89   82.79
 -12   4   0 2064.19   89.59
  -6   0  12   -4.10    8.90
   0  12   6   -1.50   13.10
   6   0 -12    9.00    9.50
 -12   6   0    1.30   15.10
 -12   8   0   12.90   14.80
   0  12   8    8.10   15.40
 -12  10   0   26.40   15.70
   0  12  10    6.20   13.20
   0   2 -12    5.10    4.00
  -2  12   0   10.10   12.80
   0   2  12   -5.80    7.10
   2   2 -12  145.59   11.60
  -2  12   2   81.59   17.80
  -2   2  12  135.79   14.40
   2   2  12  130.49   11.90
  -2  12  -2  110.49   18.90
   2  -2 -12  143.99   13.80
  -4   2  12  875.81   42.00
   4  -2  12  888.21   33.80
 -12   4   2  910.11   49.70
  -2  12   4  944.71   48.50
   4   2 -12  924.41   39.70
  -2  12  -4  917.31   44.90
   4  -2 -12  880.51   41.70
 -12   4  -2  872.71   46.40
  -6   2  12  330.27   25.30
   6   2 -12  344.37   23.10
   6  -2  12  328.77   18.20
  -2  12   6  360.76   31.00
 -12   6   2  359.46   31.70
 -12   6  -2  380.96   31.20
  -2  12  -6  384.26   27.20
   6  -2 -12  346.87   24.90
   8  -2  12  149.59   14.00
  -2  12   8  121.99   20.40
  -8   2  12  159.18   19.40
 -12   8   2  139.49   22.00
 -12   8  -2  139.69   22.80
  -2  12  -8  161.38   18.10
  10  -2  12  265.57   20.00
 -12  10   2  217.08   29.30
  -2  12  10  264.77   27.20
 -10   2  12  283.57   27.70
 -12  10  -2  322.27   31.80
  -2  12 -10  232.58   20.60
  -4  12   0 2101.99   88.09
   0   4  12 2000.60   81.39
   0   4 -12 2120.99   74.59
   2   4 -12  912.41   36.30
  -2   4  12  836.32   41.60
  -4  12   2  862.61   47.10
   2  -4 -12  911.41   40.70
  -4  12  -2  860.31   45.60
   2   4  12  859.71   39.40
  -4   4  12  354.86   25.50
   4   4 -12  315.17   20.50
 -12   4   4  307.17   28.70
  -4  12   4  377.36   30.40
  -4  12  -4  331.07   27.70
   4  -4 -12  310.87   23.80
  -6   4  12   17.40   13.20
   6   4 -12   39.10   11.00
 -12   6   4   -5.80   13.90
   6  -4  12   21.30    6.40
  -4  12   6   -1.70   13.60
 -12   6  -4    3.90   14.30
  -4  12  -6   19.30   12.40
 -12   8   4  169.18   25.60
  -8   4  12  146.89   20.70
   8  -4  12  196.18   15.90
  -4  12   8  163.78   23.40
  -4  12  -8  200.98   20.10
 -12   8  -4  138.39   21.80
 -12  10   4  479.45   38.60
  -4  12  10  545.15   37.30
  10  -4  12  517.35   28.60
 -10   4  12  556.94   37.40
  -4  12 -10  502.85   30.70
 -12  10  -4  551.34   36.70
  -6  12   0    8.20   14.50
   0   6  12   -8.10    8.90
  -2   6  12  375.06   26.40
  -6  12   2  329.87   30.30
  -2   6 -12  344.87   15.60
   2  -6 -12  297.07   23.60
  -6  12  -2  314.97   29.60
   2   6  12  326.17   24.40
  -6  12   4   33.20   16.30
 -12   4   6   21.70   14.70
  -4   6  12   14.00   12.70
  -6  12  -4    8.60   13.10
  -4   6 -12   25.50    6.00
   6  -6  12 1344.87   53.09
  -6   6  12 1354.46   63.49
 -12   6   6 1429.86   67.49
  -6  12   6 1353.46   67.69
  -6   6 -12 1409.46   53.29
 -12   6  -6 1414.56   62.99
  -6  12  -6 1206.28   61.39
  -6  12   8   34.90   17.50
 -12   8   6   -6.80   14.80
  -8   6  12  -17.70   13.00
   8  -6  12    4.10    7.90
 -12   8  -6   28.60   14.60
  -6  12  -8    2.40   11.70
 -12  10   6 1150.88   61.29
  -6  12  10 1122.09   59.59
 -10   6  12 1117.49   57.69
  10  -6  12 1143.79   50.79
  -6  12 -10 1137.89   52.59
 -12  10  -6 1151.68   57.49
  -8  12   0    8.00   14.90
   0   8  12   12.80   10.60
  -2   8  12  189.98   21.40
  -8  12   2  151.78   23.40
 -12   2   8  129.19   20.20
  -8  12  -2  175.38   24.10
  -2   8 -12  174.18   13.70
   2   8  12  141.89   18.10
  -8  12   4  162.78   25.10
  -4   8  12  162.08   21.40
 -12   4   8  188.28   23.30
  -8  12  -4  157.78   23.10
  -4   8 -12  176.68   13.90
 -12   6   8   -9.30   14.60
   6  -8  12   13.20    7.50
  -8  12   6   14.60   16.20
  -6   8  12    6.70   14.40
  -6   8 -12    8.50    8.10
  -8  12  -6   -4.70   12.90
  -8   8  12  118.99   21.30
   8  -8  12  118.59   13.60
 -12   8   8  103.79   22.60
  -8  12   8   92.59   20.90
 -12   8  -8  132.99   18.50
  -8  12  -8   92.89   17.00
  -8   8 -12   94.49   13.10
  -8  12  10  187.78   26.50
  10  -8  12  242.08   20.50
 -10   8  12  229.78   27.60
 -12  10   8  241.98   29.30
 -10   8 -12  264.27   21.60
 -12  10  -8  244.98   24.90
  -8  12 -10  193.88   22.30
   0  10  12  -14.40   12.10
 -10  12   0    9.90   16.50
 -12   2  10  244.38   26.30
 -10  12   2  252.67   31.00
  -2  10  12  272.67   26.40
   2  10  12  213.28   23.60
 -10  12  -2  220.08   27.60
  -2  10 -12  233.78   18.10
  -4  10  12  568.64   38.50
 -10  12   4  546.35   40.10
 -12   4  10  482.95   36.60
 -10  12  -4  557.94   37.70
  -4  10 -12  552.54   28.50
 -10  12   6 1181.88   62.69
 -12   6  10 1127.99   58.99
  -6  10  12 1178.08   58.69
 -10  12  -6 1118.99   56.99
  -6  10 -12 1058.89   49.10
 -10  12   8  288.37   31.60
  -8  10  12  243.88   28.10
   8 -10  12  242.28   19.40
 -12   8  10  223.28   27.50
 -12   8 -10  247.58   23.70
 -10  12  -8  177.08   22.00
  -8  10 -12  255.17   21.30
 -10  10  12   15.30   17.10
 -12  10  10   38.80   17.80
 -10  12  10   19.60   18.80
 -12  10 -10   56.99   15.20
 -10  12 -10   21.00   13.10
 -10  10 -12   19.90   11.80
 -12  12   0 1298.97   64.29
   0  12  12 1170.98   59.89
 -12   2  12 1173.88   60.39
  -2  12  12 1191.08   60.69
 -12  12   2 1227.28   63.79
  -2  12 -12 1179.08   52.99
 -12  12  -2 1264.67   62.79
   2  12  12 1312.97   60.99
 -12   4  12 1131.49   57.79
  -4  12  12 1212.28   60.19
 -12  12   4 1068.69   60.09
  -4  12 -12 1088.59   49.99
 -12  12  -4 1085.89   57.69
 -12   6  12    8.50   16.00
  -6  12  12   17.70   17.10
 -12  12   6   19.40   17.60
  -6  12 -12   12.90   11.00
 -12  12  -6   18.50   15.90
 -12   8  12    1.70   15.40
  -8  12  12   55.99   19.20
 -12  12   8   51.89   19.60
  -8  12 -12   36.50   12.90
 -12  12  -8   50.49   17.00
 -12  12  10  639.14   46.20
 -12  10  12  660.23   46.40
 -10  12  12  673.53   46.90
 -12  10 -12  694.53   38.40
 -10  12 -12  724.73   38.70
 -12  12 -10  698.63   40.90
 -12  12  12  167.08   28.70
 -12  12 -12  168.08   20.90
   1   1 -13 1880.31   69.19
  -1   1  13 1852.11   71.09
   1  -1  13 1840.22   67.19
  -1  13   1 1813.92   81.29
   1  -1 -13 1870.01   70.79
  -1  13  -1 1807.32   80.29
  -1  -1  13 1836.32   69.09
   1   1  13 1870.21   70.19
   3   1 -13  279.77   18.40
  -1  13   3  229.98   25.50
  -3   1  13  307.57   20.60
   3  -1  13  287.07   13.20
   3   1  13  294.97   16.50
   3  -1 -13  303.57   20.50
  -1  13  -3  267.07   24.70
 -13   5   1 1040.80   54.39
  -5   1  13 1022.30   47.10
   5   1 -13 1034.10   46.00
  -1  13   5 1014.90   53.49
   5  -1 -13 1112.29   47.80
  -1  13  -5 1099.69   51.49
 -13   5  -1  973.40   52.79
   7   1 -13   15.10   10.70
 -13   7   1   -3.30   13.90
  -7   1  13   17.40   11.70
  -1  13   7   27.00   16.20
   7  -1 -13  -10.90   18.90
  -1  13  -7   13.80   12.20
 -13   7  -1   40.30   15.80
  -1  13   9  198.08   24.80
 -13   9   1  162.98   24.40
  -9   1  13  182.58   21.40
  -1  13  -9  207.98   20.70
 -13   9  -1  202.78   25.50
   1  13   9  208.68   25.00
  -1  13  11    4.90   15.20
 -13  11   1   -7.90   15.40
   1  13  11   -6.20   13.30
 -13  11  -1   11.60   16.20
  -1  13 -11   10.60   10.90
  -3  13   1  287.47   28.00
   1   3 -13  317.97   15.70
  -1   3  13  313.97   22.00
   1   3  13  311.17   20.40
  -3  13  -1  365.06   28.60
   1  -3 -13  305.77   20.30
  -3   3  13  329.87   23.70
 -13   3   3  353.16   31.20
   3   3 -13  343.67   19.20
  -3  13   3  265.67   27.40
   3  -3 -13  320.97   21.90
  -3  13  -3  292.77   27.50
  -5   3  13  588.54   34.30
 -13   5   3  577.54   39.30
   5  -3  13  589.34   24.00
   5   3 -13  580.94   30.50
  -3  13   5  586.94   38.70
  -3  13  -5  626.84   35.50
 -13   5  -3  636.24   37.90
   5  -3 -13  574.44   33.50
  -7   3  13  434.56   30.90
   7  -3  13  475.35   23.30
  -3  13   7  509.95   36.00
 -13   7   3  499.35   37.10
   7   3 -13  470.45   29.10
  -3  13  -7  472.05   31.40
 -13   7  -3  520.55   34.50
 -13   9   3   -5.70   14.80
  -3  13   9   -1.10   13.40
   9  -3  13    0.60    7.90
  -9   3  13   -5.20   12.70
 -13   9  -3   18.30   16.20
  -3  13  -9   -8.00   10.60
 -13  11   3   34.30   18.10
 -11   3  13   74.49   18.10
  11  -3  13   40.70   11.10
  -3  13  11   21.70   17.90
  -3  13 -11   40.30   11.80
 -13  11  -3   26.80   16.30
  -1   5  13 1112.39   48.10
  -5  13   1  984.20   54.39
   1   5  13 1006.10   46.20
  -5  13  -1  982.80   52.29
  -3   5  13  542.75   33.10
 -13   3   5  644.94   39.20
  -5  13   3  639.94   40.40
  -5  13  -3  541.25   37.70
   3  -5 -13  585.24   32.90
  -5  13   5   73.19   19.10
  -5   5  13  114.09   17.50
 -13   5   5   83.89   19.10
   5  -5  13   88.99    7.10
  -5  13  -5   78.89   17.30
  -7   5  13    8.50   13.20
   7  -5  13    0.60    6.30
  -5  13   7  -15.10   13.50
 -13   7   5    1.00   14.50
 -13   7  -5   -9.40   13.40
  -5  13  -7  -21.30   10.20
  -5  13   9  685.43   43.60
  -9   5  13  516.95   37.50
   9  -5  13  553.44   29.50
 -13   9   5  636.04   42.40
  -5  13  -9  615.34   35.20
 -13   9  -5  590.74   39.60
 -11   5  13   96.29   18.80
 -13  11   5   66.09   20.70
  -5  13  11   78.59   20.10
  11  -5  13   78.69   13.50
 -13  11  -5  127.59   22.10
  -5  13 -11  102.19   16.20
  -1   7  13   19.40   12.30
  -7  13   1   21.20   14.90
  -1   7 -13    8.90    5.60
  -7  13  -1   11.40   14.60
   1   7  13   28.40   11.90
  -3   7  13  539.45   33.20
  -7  13   3  531.25   39.70
 -13   3   7  438.46   36.40
  -7  13  -3  499.25   35.00
  -3   7 -13  484.85   21.80
  -7  13   5  -10.30   15.60
  -5   7  13    6.30   13.10
 -13   5   7  -18.30   12.90
  -7  13  -5   -5.60   11.60
  -5   7 -13    8.90    6.20
  -7  13   7  730.23   46.10
  -7   7  13  670.13   42.70
   7  -7  13  740.23   32.70
 -13   7   7  716.83   45.90
 -13   7  -7  708.43   41.60
  -7   7 -13  726.83   32.60
  -7  13  -7  739.43   41.70
  -9   7  13  147.89   24.60
   9  -7  13  185.08   16.40
  -7  13   9  217.88   27.80
 -13   9   7  205.28   29.50
 -13   9  -7  131.79   20.40
  -7  13  -9  199.78   21.80
  -7  13  11  190.48   27.20
 -11   7  13  285.77   29.70
 -13  11   7  279.77   32.30
  11  -7  13  286.57   21.80
  -7  13 -11  248.58   24.30
 -13  11  -7  275.37   26.90
  -1   9  13  223.98   23.40
  -9  13   1  217.68   28.10
  -1   9 -13  188.38   14.80
  -9  13  -1  220.68   26.90
   1   9  13  208.28   22.40
 -13   3   9   -0.60   15.70
  -3   9  13    8.20   13.60
  -9  13   3   -1.20   17.30
  -3   9 -13    5.30    7.20
  -9  13  -3  -15.20   15.00
  -9  13   5  522.25   40.50
 -13   5   9  629.64   40.30
  -5   9  13  541.15   38.30
  -9  13  -5  612.14   38.20
  -5   9 -13  543.55   27.90
  -9  13   7  175.88   27.10
 -13   7   9  221.78   27.10
   7  -9  13  190.68   15.90
  -7   9  13  232.88   27.80
  -9  13  -7  197.28   23.70
  -7   9 -13  175.58   16.50
 -13   7  -9  189.88   21.80
   9  -9  13    1.90    8.80
  -9   9  13   -6.60   15.00
 -13   9   9    0.80   15.10
  -9  13   9    6.10   15.80
  -9  13  -9   -5.20   12.60
  -9   9 -13   10.00    9.50
 -13   9  -9   12.10   12.90
 -11   9  13   -2.50   14.20
 -13  11   9  -18.50   14.10
  -9  13  11   32.20   17.80
  -9  13 -11   25.40   13.60
 -11   9 -13   -7.80    9.80
 -13  11  -9   30.50   14.70
  -1  11  13   24.10   15.10
 -11  13   1   36.00   19.00
   1  11  13    7.80   14.10
 -11  13  -1  -14.50   15.20
  -1  11 -13   -1.50    8.20
 -11  13   3   25.50   17.70
  -3  11  13   32.10   16.80
 -13   3  11   57.19   17.20
  -3  11 -13   38.80   10.40
 -11  13  -3   28.40   16.10
  -5  11  13   63.59   18.90
 -11  13   5   92.29   23.00
 -13   5  11   96.69   21.20
  -5  11 -13   73.39   12.40
 -11  13  -5   72.59   18.20
  -7  11  13  302.27   31.80
 -13   7  11  231.38   28.30
 -11  13   7  245.98   31.20
 -11  13  -7  247.28   27.30
  -7  11 -13  262.47   21.20
   9 -11  13   10.70    9.40
 -11  13   9  -28.20   13.00
 -13   9  11   -6.70   17.10
  -9  11  13   -0.10   16.50
 -13   9 -11    2.40   12.00
  -9  11 -13    2.20    9.80
 -11  13  -9    6.60   13.60
 -11  11  13  238.78   29.80
 -13  11  11  219.88   30.10
 -11  13  11  190.78   31.30
 -13  11 -11  258.27   25.70
 -11  13 -11  230.68   25.40
 -11  11 -13  225.08   21.90
  -1  13  13 2722.23  111.79
 -13  13   1 2518.95  113.49
  -1  13 -13 2703.23  103.19
 -13  13  -1 2703.83  113.99
   1  13  13 2496.45  109.89
 -13   3  13  346.77   33.30
  -3  13  13  359.06   35.10
 -13  13   3  313.07   33.40
  -3  13 -13  330.27   24.30
 -13  13  -3  321.87   32.00
 -13   5  13 1401.96   68.79
  -5  13  13 1357.46   70.49
 -13  13   5 1383.86   71.59
  -5  13 -13 1376.76   60.39
 -13  13  -5 1384.96   68.89
 -13   7  13  272.07   30.70
  -7  13  13  269.97   32.90
 -13  13   7  325.37   34.10
  -7  13 -13  283.77   23.80
 -13  13  -7  291.67   29.70
 -13   9  13  389.46   38.60
  -9  13  13  318.47   34.20
 -13  13   9  328.77   36.00
  -9  13 -13  364.46   27.00
 -13  13  -9  351.86   31.90
 -13  13  11    3.60   16.10
 -13  11  13   54.79   22.40
 -11  13  13    9.50   16.30
 -13  11 -13   28.10   12.90
 -11  13 -13   55.79   14.80
 -13  13 -11   50.79   16.30
 -13  13  13 2481.25  114.49
 -13  13 -13 2519.15  104.79
   0   0  14    9.60    6.50
   2   0 -14  715.83   32.20
   2   0  14  721.53   29.30
  -2   0  14  697.83   32.20
   4   0 -14  -15.80    8.00
   0  14   4   -4.60   13.30
  -4   0  14    3.10    8.50
 -14   4   0   -6.10   13.00
 -14   6   0 1005.80   55.39
   0  14   6 1001.00   53.79
   6   0 -14 1043.50   47.30
  -6   0  14  964.60   46.00
 -14   8   0   -4.30   16.30
   0  14   8   13.40   14.20
   0  14  10  512.55   37.50
 -14  10   0  526.95   38.90
   0  14  12   -4.10   15.30
 -14  12   0    2.50   16.00
  -2  14   0  722.63   43.30
   0   2  14  700.33   33.00
   2   2 -14 1959.20   73.39
  -2  14   2 1985.60   85.39
  -2   2  14 1970.80   76.59
  -2  14  -2 1914.21   84.29
   2  -2 -14 1926.61   75.89
   2   2  14 1895.21   74.29
   4   2 -14  417.36   24.00
  -2  14   4  464.35   36.40
 -14   4   2  495.75   35.10
  -4   2  14  427.56   27.30
   4  -2 -14  452.05   27.00
  -2  14  -4  432.96   30.80
   6  -2  14   96.89    8.80
  -2  14   6   94.79   19.40
  -6   2  14   69.09   14.40
 -14   6   2  100.89   19.90
   6   2 -14   69.79   12.90
   6  -2 -14   65.29   14.30
  -2  14  -6   78.39   16.00
 -14   6  -2   60.49   17.70
   8  -2  14   26.90    8.30
  -8   2  14   31.50   13.40
  -2  14   8   52.89   16.60
 -14   8   2   44.10   18.30
 -14   8  -2   35.80   17.60
  -2  14  -8   13.80   12.60
 -14  10   2  680.23   46.30
  -2  14  10  784.42   46.30
 -10   2  14  794.72   43.50
  10  -2  14  767.12   35.80
 -14  10  -2  681.13   47.00
  -2  14 -10  690.63   38.80
 -12   2  14   81.89   18.60
  -2  14  12   83.99   20.70
 -14  12   2   72.29   23.10
  12  -2  14   88.99   14.50
  -2  14 -12   94.19   15.00
 -14  12  -2  113.19   21.60
   2  14  12   90.99   20.10
   0   4  14   -8.10    8.10
  -4  14   0    6.80   13.60
   2   4 -14  464.55   21.40
  -4  14   2  416.96   33.70
  -2   4  14  422.26   27.40
   2  -4 -14  429.66   26.20
   2   4  14  375.56   24.90
  -4  14  -2  512.05   33.70
  -4   4  14   91.29   15.70
   4   4 -14  113.39   12.50
 -14   4   4   95.69   22.00
  -4  14   4   91.09   19.90
  -4  14  -4  102.39   19.00
   4  -4 -14  104.59   15.40
  -4  14   6  808.42   47.80
   6  -4  14  780.72   32.20
   6   4 -14  838.82   39.40
  -6   4  14  858.91   43.70
  -4  14  -6  849.22   45.10
 -14   6  -4  772.92   45.10
   8  -4  14   32.40    8.30
 -14   8   4   36.90   19.40
  -4  14   8   21.60   17.90
  -8   4  14   24.90   14.10
 -14   8  -4   40.70   16.90
  -4  14  -8   44.90   14.60
 -14  10   4   56.39   19.30
  -4  14  10   65.69   19.90
  10  -4  14   66.89   11.50
 -10   4  14   52.49   15.60
  -4  14 -10   67.59   15.00
 -14  10  -4   53.39   17.20
 -12   4  14  287.37   29.00
  -4  14  12  302.67   32.30
  12  -4  14  283.87   23.00
 -14  12   4  276.37   35.40
  -4  14 -12  303.87   24.90
 -14  12  -4  299.57   31.30
   0   6  14 1041.50   47.70
  -6  14   0  972.40   53.39
  -2   6  14   68.69   14.60
  -6  14   2  111.99   20.90
   2   6  14   82.09   13.70
  -6  14  -2   71.69   19.40
 -14   4   6  781.92   47.90
  -6  14   4  835.82   49.10
  -4   6  14  850.31   43.90
  -6  14  -4  805.32   46.70
  -6  14   6   59.89   19.10
   6  -6  14  104.49    9.10
 -14   6   6  110.69   21.60
  -6   6  14   92.69   18.30
  -6  14  -6   92.49   19.00
  -8   6  14   67.09   17.70
  -6  14   8   57.59   19.30
   8  -6  14   84.79   10.50
 -14   8   6  114.39   23.70
  -6  14  -8   68.99   16.70
 -14   8  -6   88.89   19.30
  10  -6  14  254.37   19.10
 -14  10   6  224.28   29.40
 -10   6  14  236.38   27.50
  -6  14  10  236.68   29.20
 -14  10  -6  271.67   29.00
  -6  14 -10  277.37   25.10
 -12   6  14  167.88   24.20
  12  -6  14  173.58   18.30
 -14  12   6  177.68   27.30
  -6  14  12  138.09   24.20
  -6  14 -12  190.48   20.50
 -14  12  -6  147.59   22.50
   0   8  14   -5.60   11.00
  -8  14   0    5.50   15.10
  -8  14   2   13.50   16.60
  -2   8  14   18.10   12.90
  -8  14  -2   29.60   15.70
   2   8  14   22.10   12.20
  -2   8 -14   36.40    7.00
 -14   4   8   56.99   18.80
  -8  14   4   38.20   17.80
  -4   8  14   34.80   15.20
  -4   8 -14   42.50    7.50
  -8  14  -4   10.20   15.80
  -6   8  14   69.79   16.80
 -14   6   8   83.79   21.60
  -8  14   6   78.19   21.30
  -8  14  -6   40.70   16.70
  -6   8 -14   87.69   10.00
 -14   8   8  132.39   24.10
  -8  14   8  126.79   24.90
   8  -8  14  151.28   14.10
  -8   8  14  146.49   22.40
  -8  14  -8  146.79   21.40
  -8   8 -14  141.49   14.40
 -14   8  -8  156.08   21.90
  10  -8  14  320.37   22.10
  -8  14  10  379.56   36.40
 -14  10   8  283.37   32.90
 -10   8  14  291.67   31.90
 -14  10  -8  282.27   28.80
  -8  14 -10  297.87   27.30
  -8  14  12  202.98   29.80
 -14  12   8  154.88   26.60
 -12   8  14  197.68   27.80
 -14  12  -8  234.68   27.20
  -8  14 -12  136.29   19.50
   0  10  14  548.55   36.10
 -10  14   0  512.05   41.70
  -2  10  14  709.33   43.20
 -10  14   2  751.72   47.70
   2  10  14  789.32   42.70
  -2  10 -14  703.33   32.90
 -10  14  -2  712.73   45.80
 -10  14   4   58.79   19.90
  -4  10  14   48.80   16.60
 -14   4  10   34.80   17.50
  -4  10 -14   54.99   10.00
 -10  14  -4   63.19   17.10
 -14   6  10  297.37   32.00
 -10  14   6  241.88   30.60
  -6  10  14  264.47   29.90
 -10  14  -6  250.37   27.90
  -6  10 -14  261.27   19.40
  -8  10  14  281.37   31.50
 -14   8  10  319.07   33.20
 -10  14   8  300.67   33.20
   8 -10  14  330.57   21.40
 -14   8 -10  291.87   26.90
  -8  10 -14  314.47   22.20
 -10  14  -8  348.27   32.00
 -10  10  14  155.48   25.60
 -10  14  10  142.19   26.90
  10 -10  14  161.78   17.60
 -14  10  10  176.78   27.40
 -14  10 -10  118.59   20.30
 -10  14 -10  169.48   22.10
 -10  10 -14  154.48   17.10
 -14  12  10  418.76   41.00
 -10  14  12  318.57   36.40
 -12  10  14  477.65   42.40
 -12  10 -14  419.36   28.10
 -10  14 -12  369.96   30.20
 -14  12 -10  394.76   32.60
 -12  14   0    4.80   15.70
   0  12  14   -6.20   13.60
 -12  14   2   91.19   22.10
  -2  12  14   80.19   19.70
 -12  14  -2  107.69   23.50
   2  12  14   50.29   15.80
  -2  12 -14   83.19   12.60
 -14   4  12  302.37   32.30
  -4  12  14  220.58   27.60
 -12  14   4  334.57   35.10
  -4  12 -14  288.17   21.30
 -12  14  -4  311.77   32.10
  -6  12  14  112.19   21.70
 -14   6  12  139.99   23.50
 -12  14   6  214.38   29.20
 -12  14  -6  178.38   24.60
  -6  12 -14  183.78   17.70
  -8  12  14  138.99   25.40
 -14   8  12  152.38   25.50
 -12  14   8  154.28   27.40
  -8  12 -14  140.79   17.30
 -12  14  -8  160.08   23.20
 -10  12  14  413.46   39.60
 -12  14  10  368.66   38.40
 -14  10  12  375.46   37.30
 -12  14 -10  302.07   30.50
 -14  10 -12  366.06   30.20
 -10  12 -14  355.46   26.20
 -12  12  14  225.68   30.20
 -14  12  12  267.57   35.90
 -12  14  12  275.87   34.40
 -14  12 -12  235.98   26.40
 -12  14 -12  292.57   28.00
 -12  12 -14  237.18   23.60
 -14  14   0 5663.73  224.28
   0  14  14 5789.82  220.88
  -2  14  14  463.05   36.20
 -14  14   2  396.86   38.90
  -2  14 -14  404.06   27.50
 -14  14  -2  404.56   38.90
   2  14  14  466.15   35.20
 -14   4  14 1319.57   66.29
  -4  14  14 1219.98   65.49
 -14  14   4 1430.06   72.49
  -4  14 -14 1268.27   56.89
 -14  14  -4 1197.38   65.99
 -14   6  14   30.50   17.90
  -6  14  14   24.70   16.80
 -14  14   6   30.80   18.70
  -6  14 -14   36.90   12.40
 -14  14  -6   13.20   16.60
 -14   8  14  534.35   41.70
  -8  14  14  503.55   41.70
 -14  14   8  623.34   45.70
  -8  14 -14  584.54   34.40
 -14  14  -8  539.55   40.30
 -14  10  14  111.49   24.60
 -10  14  14  115.89   25.90
 -14  14  10  111.99   25.80
 -10  14 -14  123.59   19.00
 -14  14 -10  101.49   21.30
 -14  14  12 1581.14   82.79
 -14  12  14 1522.65   80.99
 -12  14  14 1582.74   81.29
 -14  12 -14 1566.54   70.99
 -12  14 -14 1498.45   69.99
 -14  14 -12 1508.65   72.59
 -14  14  14    9.00   18.10
 -14  14 -14   -9.20   12.10
  -1   1  15   20.00    8.40
   1   1 -15   16.90    6.60
  -1  15   1   14.90   14.00
   1  -1  15   22.70    4.90
   1  -1 -15   30.10    8.40
  -1  15  -1   21.00   14.70
   1   1  15   18.30    7.60
  -3   1  15  673.53   33.70
   3   1 -15  736.83   32.40
  -1  15   3  724.53   43.70
   3  -1 -15  697.03   33.60
  -1  15  -3  633.14   40.40
   3   1  15  677.33   30.10
  -1  15   5  409.36   35.40
  -5   1  15  430.16   26.20
   5   1 -15  376.36   24.70
 -15   5   1  419.26   34.00
 -15   5  -1  407.36   33.00
  -1  15  -5  386.66   31.70
   5  -1 -15  415.16   26.20
 -15   7   1   22.10   15.90
  -1  15   7   63.39   19.30
   7   1 -15    1.20   10.60
  -7   1  15   19.40   11.30
  -1  15  -7   12.20   14.20
   1  15   7    1.20   14.80
 -15   7  -1   32.10   16.40
 -15   9   1   48.50   20.30
  -9   1  15   80.79   16.10
  -1  15   9   58.79   18.60
  -1  15  -9   34.80   14.60
   1  15   9   50.89   19.40
 -15   9  -1   40.20   18.00
 -15  11   1  895.01   53.99
  -1  15  11  971.60   54.59
  -1  15 -11  944.81   46.60
 -15  11  -1  935.21   54.19
   1  15  11  857.91   51.89
 -15  13   1  555.84   43.50
  -1  15  13  569.74   42.60
  -1  15 -13  529.65   33.20
 -15  13  -1  587.04   42.90
   1  15  13  572.24   40.30
   1   3 -15  669.83   28.10
  -1   3  15  721.33   34.60
  -3  15   1  801.92   44.40
  -3  15  -1  616.54   41.10
   1   3  15  703.23   33.50
  -3   3  15 2211.78   85.49
   3   3 -15 2111.79   80.99
  -3  15   3 2040.30   92.89
  -3  15  -3 2146.69   92.19
   3  -3 -15 2160.38   84.89
   3   3  15 2123.69   82.39
  -3  15   5  -20.70   13.60
   5   3 -15   20.20    9.60
  -5   3  15   -0.80   10.00
 -15   5   3    2.30   14.70
  -3  15  -5   12.10   12.70
   5  -3 -15    5.20   11.30
 -15   7   3  452.55   36.70
  -7   3  15  479.55   31.40
  -3  15   7  494.75   36.80
   7  -3  15  440.76   21.40
   7   3 -15  438.76   28.20
 -15   7  -3  437.86   34.80
  -3  15  -7  446.56   32.40
   9  -3  15   52.59    9.90
  -9   3  15   49.60   15.00
  -3  15   9   75.79   19.60
 -15   9   3   60.69   21.00
  -3  15  -9   49.20   15.20
 -15   9  -3   65.69   18.10
 -11   3  15 1002.30   52.79
  -3  15  11  931.91   55.99
 -15  11   3  996.80   57.09
  11  -3  15  959.50   43.90
  -3  15 -11  970.90   48.50
 -15  11  -3  918.11   53.89
  -3  15  13  255.27   30.30
 -15  13   3  233.58   31.40
 -13   3  15  255.67   29.50
 -15  13  -3  340.27   35.20
  -3  15 -13  225.98   22.40
   3  15  13  248.78   28.90
   1   5 -15  383.36   17.50
  -5  15   1  399.26   34.40
  -1   5  15  346.87   25.60
   1   5  15  372.76   25.50
  -5  15  -1  331.77   31.20
   3   5 -15    8.20    6.90
  -5  15   3   18.30   16.40
  -3   5  15   19.40   11.60
  -5  15  -3   11.70   14.60
   3   5  15   11.40   10.00
   5   5 -15  887.11   41.20
  -5   5  15  945.81   46.40
 -15   5   5  860.41   51.69
  -5  15   5  914.01   52.39
  -5  15  -5  918.11   48.80
 -15   7   5   54.69   19.10
   7   5 -15   77.89   14.10
   7  -5  15   53.99    7.50
  -5  15   7   18.10   17.40
  -7   5  15   48.60   15.60
  -5  15  -7   81.69   17.20
 -15   7  -5   67.39   18.90
  -9   5  15  123.89   21.40
   9  -5  15  180.88   14.90
  -5  15   9  121.39   22.90
 -15   9   5  223.38   30.10
 -15   9  -5  171.58   24.60
  -5  15  -9  188.68   22.10
  11  -5  15   -2.10    8.60
 -15  11   5   30.60   17.60
  -5  15  11   27.30   16.90
 -11   5  15   32.70   16.20
 -15  11  -5   -5.20   15.40
  -5  15 -11   13.90   12.00
 -15  13   5   24.80   19.90
  -5  15  13    3.90   16.00
 -13   5  15   10.80   15.10
 -15  13  -5  -17.50   14.80
  -5  15 -13   10.70   11.30
  -1   7  15   16.00   12.40
  -7  15   1   24.10   16.80
  -7  15  -1   32.40   16.40
   1   7  15   18.80   11.60
  -1   7 -15   23.30    4.70
  -7  15   3  383.46   36.90
  -3   7  15  456.45   31.40
  -7  15  -3  400.26   35.30
   3   7  15  459.45   29.50
  -5   7  15   66.89   16.50
 -15   5   7   67.59   21.60
  -7  15   5   37.60   18.40
  -7  15  -5   63.19   18.60
  -7  15   7  345.37   36.30
 -15   7   7  369.06   35.90
   7  -7  15  319.57   17.80
  -7   7  15  378.96   32.00
  -7  15  -7  344.17   31.50
 -15   7  -7  283.87   27.90
   9  -7  15   21.00    8.40
 -15   9   7   30.50   17.90
  -7  15   9   -8.30   14.30
  -9   7  15   22.60   14.30
  -7  15  -9   18.70   14.90
 -15   9  -7   15.00   14.90
 -11   7  15  -23.50   12.10
  11  -7  15   -5.60    8.00
 -15  11   7   -4.20   15.80
  -7  15  11   -1.70   17.60
  -7  15 -11   -6.20   11.40
 -15  11  -7   -8.60   12.20
  -7  15  13   17.50   16.60
 -13   7  15   19.40   17.50
 -15  13   7   -3.80   17.00
 -15  13  -7    5.60   15.10
  -7  15 -13    4.70   12.50
  -1   9  15   52.39   15.40
  -9  15   1   76.19   20.90
   1   9  15   60.29   15.10
  -1   9 -15   62.49    8.70
  -9  15  -1   83.79   20.40
  -9  15   3   77.69   20.90
  -3   9  15   54.29   15.80
  -9  15  -3   61.69   18.40
  -3   9 -15   58.39    8.50
   3   9  15   63.39   15.60
  -9  15   5  178.18   28.50
  -5   9  15  177.08   23.90
 -15   5   9  165.38   24.70
  -5   9 -15  161.48   13.30
  -9  15  -5  135.39   22.10
 -15   7   9   14.60   16.80
  -7   9  15   41.20   17.70
  -9  15   7    3.40   18.10
  -7   9 -15   15.70    7.90
  -9  15  -7   11.60   13.60
  -9   9  15  172.38   24.30
 -15   9   9  171.98   26.80
   9  -9  15  189.48   16.10
  -9  15   9  173.48   27.30
  -9  15  -9  175.28   22.90
  -9   9 -15  175.78   16.50
 -15   9  -9  188.08   23.80
 -15  11   9  224.88   32.30
  11  -9  15  258.77   20.90
 -11   9  15  208.68   27.70
  -9  15  11  268.57   33.90
 -15  11  -9  231.78   27.40
  -9  15 -11  258.87   26.70
 -13   9  15  338.67   35.30
 -15  13   9  405.16   42.80
  -9  15  13  395.86   39.60
  -9  15 -13  356.16   30.10
 -15  13  -9  379.26   34.50
 -11  15   1  928.01   56.39
  -1  11  15  943.21   51.09
  -1  11 -15  934.01   40.60
   1  11  15  884.91   49.60
 -11  15  -1  932.31   55.69
 -11  15   3  970.20   56.99
  -3  11  15  975.10   52.29
 -11  15  -3 1004.80   55.49
   3  11  15  965.90   51.59
  -3  11 -15  942.51   42.00
 -15   5  11   10.00   16.00
 -11  15   5   23.50   17.40
  -5  11  15   15.00   15.70
  -5  11 -15   15.10    9.00
 -11  15  -5   20.40   17.50
  -7  11  15   15.60   16.20
 -11  15   7   -0.30   18.10
 -15   7  11   11.20   16.10
 -11  15  -7    7.10   15.50
  -7  11 -15   11.10    8.70
  -9  11  15  209.68   28.00
 -15   9  11  266.57   31.70
 -11  15   9  292.87   34.20
   9 -11  15  241.98   19.60
  -9  11 -15  250.37   21.20
 -11  15  -9  260.17   28.30
 -11  15  11 2267.37  102.29
 -15  11  11 2189.68  100.99
 -11  11  15 2184.88   98.39
 -11  15 -11 2041.90   91.99
 -11  11 -15 2091.99   86.79
 -15  11 -11 2071.09   92.79
 -11  15  13   35.60   19.00
 -15  13  11    8.00   18.80
 -13  11  15   32.00   18.50
 -11  15 -13    8.60   14.10
 -13  11 -15   33.70   13.00
 -15  13 -11   -0.20   15.20
 -13  15   1  536.55   44.90
  -1  13  15  561.94   40.50
  -1  13 -15  573.74   30.70
   1  13  15  580.14   40.30
 -13  15  -1  515.55   41.60
 -13  15   3  231.98   31.60
  -3  13  15  265.97   30.10
  -3  13 -15  266.27   20.90
 -13  15  -3  248.98   30.00
   3  13  15  254.37   28.70
  -5  13  15  -18.30   13.40
 -13  15   5   -3.10   18.80
 -15   5  13   22.00   15.10
 -13  15  -5   45.70   18.20
  -5  13 -15   -9.10    8.60
  -7  13  15   -3.60   15.70
 -13  15   7    0.50   16.60
 -15   7  13    3.10   15.50
  -7  13 -15    9.70   10.40
 -13  15  -7    7.20   15.70
  -9  13  15  421.36   40.70
 -15   9  13  352.56   37.30
 -13  15   9  382.86   42.00
 -13  15  -9  394.16   35.60
  -9  13 -15  362.76   26.80
 -11  13  15    7.00   18.60
 -13  15  11   37.80   22.10
 -15  11  13   20.90   17.90
 -13  15 -11   33.40   16.60
 -15  11 -13   24.40   13.40
 -11  13 -15    1.80   11.40
 -13  13  15  492.55   46.90
 -15  13  13  449.36   45.40
 -13  15  13  566.64   45.80
 -15  13 -13  539.95   38.00
 -13  15 -13  520.55   36.30
 -13  13 -15  521.45   34.60
  -1  15  15 1529.15   74.69
 -15  15   1 1520.65   78.29
  -1  15 -15 1514.25   65.29
 -15  15  -1 1531.85   78.09
   1  15  15 1474.55   73.89
  -3  15  15 1858.41   89.79
 -15  15   3 1921.51   93.09
  -3  15 -15 1980.40   79.89
 -15  15  -3 1896.81   91.39
   3  15  15 1897.91   88.39
 -15   5  15   17.10   15.20
  -5  15  15   15.60   15.70
 -15  15   5    8.30   18.30
  -5  15 -15   13.80   11.30
 -15  15  -5   13.10   15.60
 -15   7  15   75.19   21.10
  -7  15  15  106.89   24.10
 -15  15   7  141.49   27.30
  -7  15 -15  117.69   17.50
 -15  15  -7  158.08   26.10
 -15   9  15  563.54   43.30
  -9  15  15  553.24   43.70
 -15  15   9  613.84   53.09
  -9  15 -15  476.75   32.70
 -15  15  -9  488.85   42.00
 -15  11  15 1023.70   64.39
 -11  15  15 1011.70   63.69
 -15  15  11 1030.80   66.09
 -11  15 -15 1127.09   53.89
 -15  15 -11 1034.10   57.39
 -15  15  13  -17.40   19.70
 -15  13  15   14.00   18.60
 -13  15  15  -27.20   15.40
 -15  13 -15   -1.30   13.00
 -13  15 -15  -25.20   11.70
 -15  15 -13  -23.00   13.10
 -15  15  15  778.22   56.49
 -15  15 -15  779.32   46.60
   0   0  16  514.85   24.10
   2   0 -16   -2.20    6.80
   2   0  16    0.50    5.10
  -2   0  16    0.50    7.20
   0  16   2   -8.80   14.40
   0  16   4   18.30   17.40
   4   0 -16   48.40   10.90
   4   0  16   35.40    6.70
  -4   0  16   51.69   11.30
 -16   6   0    0.60   14.10
   6   0 -16   -7.70    9.50
   0  16   6  -17.90   15.30
 -16   8   0  276.57   30.00
   0  16   8  273.47   30.50
   0  16  10   16.00   15.90
 -16  10   0    6.00   15.20
 -16  12   0  286.77   33.80
   0  16  12  246.08   30.30
 -16  14   0    6.40   16.90
   0  16  14   12.00   16.50
   0  16 -14    3.40   11.40
  -2  16   0   -5.20   14.20
   0   2  16   12.20    8.30
   2   2 -16    7.70    6.80
  -2   2  16    9.50    9.30
  -2  16   2   21.30   17.30
  -2  16  -2   11.20   14.50
   2   2  16    7.00    7.50
   2  -2 -16   15.30    9.00
  -2  16   4 1929.41   89.19
  -4   2  16 1996.00   80.09
   4   2 -16 2022.70   77.39
   4   2  16 1926.41   75.79
   4  -2 -16 1987.20   79.59
  -2  16  -4 1966.40   86.99
   6   2 -16  161.28   16.50
  -2  16   6  127.29   23.10
   6  -2  16  122.59    9.70
  -6   2  16  101.69   16.40
 -16   6   2  148.29   25.00
  -2  16  -6  128.29   20.40
 -16   6  -2   95.79   22.30
  -2  16   8  119.69   23.80
  -8   2  16  136.39   18.90
 -16   8   2  117.69   22.30
   8  -2  16  129.79   11.90
 -16   8  -2   94.89   20.80
  -2  16  -8  126.09   19.90
 -10   2  16    9.80   12.30
  -2  16  10  -26.50   12.40
  10  -2  16   17.00    8.50
 -16  10   2   19.70   16.90
  -2  16 -10    7.40   12.20
 -16  10  -2   11.80   16.70
   2  16  10   -9.30   15.00
 -16  12   2 2226.48  102.89
  -2  16  12 2249.18  100.89
  12  -2  16 2305.97   89.69
  -2  16 -12 2188.08   92.89
   2  16  12 2164.98  100.79
 -16  12  -2 2293.77  101.89
 -16  14   2   94.89   23.40
  -2  16  14   49.10   18.90
   2  16  14   86.49   20.40
 -16  14  -2   82.29   21.90
  -2  16 -14   79.29   15.70
  -4  16   0   27.10   16.20
   0   4  16   58.89   11.80
  -4  16   2 2023.20   87.39
   2   4 -16 1871.41   71.29
  -2   4  16 1929.91   77.89
  -4  16  -2 1850.81   85.39
   2   4  16 1910.11   75.89
   2  -4 -16 1827.22   76.49
   4   4 -16   -6.00    7.50
  -4   4  16   -5.50   10.80
  -4  16   4   12.90   16.00
   4   4  16    4.80    9.30
  -4  16  -4   20.30   16.00
  -6   4  16  832.22   43.50
 -16   6   4  891.31   53.09
   6   4 -16  819.32   39.70
  -4  16   6  797.72   49.80
  -4  16  -6  791.62   46.50
   8  -4  16   69.69    9.30
  -4  16   8   53.09   19.40
 -16   8   4   73.09   20.70
  -8   4  16   89.79   17.10
 -16   8  -4   48.50   17.60
  -4  16  -8  100.89   18.20
 -16  10   4    0.10   15.60
 -10   4  16   16.50   13.40
  10  -4  16    6.90    7.80
  -4  16  10  -16.60   14.30
  -4  16 -10    6.90   12.70
 -16  10  -4    6.10   14.70
  12  -4  16  107.19   14.50
  -4  16  12   82.29   21.10
 -16  12   4   94.49   22.70
 -12   4  16  147.09   22.50
 -16  12  -4   93.89   21.20
  -4  16 -12  133.19   18.80
 -16  14   4  126.99   27.30
  -4  16  14  125.49   24.90
 -14   4  16  116.29   22.50
 -16  14  -4  100.49   22.40
  -4  16 -14  125.39   18.20
   0   6  16   -9.70   10.50
  -6  16   0    4.30   14.50
  -6  16   2  121.29   24.20
  -2   6  16  120.69   17.30
   2   6 -16  125.89   11.30
  -6  16  -2  150.18   22.60
   2   6  16  142.29   17.10
  -4   6  16  812.92   44.10
   4   6 -16  775.32   36.90
  -6  16   4  798.22   50.99
 -16   4   6  857.71   49.60
  -6  16  -4  835.12   47.00
  -6   6  16  563.54   35.80
 -16   6   6  480.05   39.50
  -6  16   6  504.05   39.60
   6   6 -16  491.75   29.30
  -6  16  -6  535.45   37.70
  -8   6  16  291.67   28.70
   8  -6  16  291.27   16.60
 -16   8   6  251.47   31.90
  -6  16   8  285.87   32.40
  -6  16  -8  238.48   26.20
 -16   8  -6  280.37   30.00
  -6  16  10   37.00   18.50
 -16  10   6   18.20   17.10
  10  -6  16   39.60    9.40
 -10   6  16   50.69   16.30
 -16  10  -6   21.20   16.90
  -6  16 -10   27.20   14.60
  12  -6  16   13.40    9.30
 -16  12   6    7.50   16.70
 -12   6  16  -10.60   14.50
  -6  16  12   25.40   18.90
 -16  12  -6    5.50   15.90
  -6  16 -12   -1.80   11.30
 -14   6  16  333.17   35.00
  -6  16  14  396.36   40.40
 -16  14   6  409.96   43.60
  -6  16 -14  426.66   30.10
 -16  14  -6  411.46   38.10
  -8  16   0  367.66   35.60
   0   8  16  321.57   27.80
  -2   8  16  118.69   18.80
  -8  16   2  135.39   25.30
   2   8  16  106.49   16.90
  -8  16  -2   80.29   21.60
  -8  16   4   62.29   20.00
  -4   8  16   70.29   16.30
 -16   4   8   91.39   20.50
  -8  16  -4   89.09   20.80
 -16   6   8  250.77   30.30
  -6   8  16  291.97   29.20
  -8  16   6  295.37   32.90
  -8  16  -6  274.17   29.40
   8  -8  16  100.89   10.80
 -16   8   8   90.79   22.70
  -8  16   8  129.99   26.80
  -8   8  16  118.89   21.20
  -8  16  -8  123.89   21.50
 -16  10   8  159.58   28.60
 -10   8  16  152.68   23.60
  10  -8  16  179.88   15.70
  -8  16  10  165.48   27.30
  -8  16 -10  153.68   22.00
 -16  10  -8  151.18   24.00
  -8  16  12  171.18   29.20
 -12   8  16  156.48   25.40
  12  -8  16  132.59   16.20
 -16  12   8  114.19   25.40
  -8  16 -12  173.58   22.50
 -16  12  -8  158.58   24.00
 -16  14   8    6.60   20.00
  -8  16  14   15.00   16.90
 -14   8  16   19.00   18.50
  -8  16 -14   11.90   12.60
 -16  14  -8    7.00   15.50
   0  10  16   -9.70   12.10
 -10  16   0  -10.20   15.30
  -2  10  16   15.80   12.60
 -10  16   2   28.60   17.20
 -10  16  -2   22.30   18.00
   2  10  16   18.20   13.30
  -2  10 -16    7.70    6.70
  -4  10  16   11.90   14.10
 -16   4  10   -1.30   16.50
 -10  16   4   -4.50   16.40
  -4  10 -16    6.90    6.90
 -10  16  -4   13.70   15.10
 -10  16   6   44.60   22.20
 -16   6  10   12.90   16.00
  -6  10  16   46.20   16.10
  -6  10 -16   38.60    8.70
 -10  16  -6   23.80   17.10
 -16   8  10  119.49   24.30
 -10  16   8  134.29   28.00
  -8  10  16  193.78   26.40
  -8  10 -16  138.69   14.40
 -10  16  -8  131.59   22.60
  10 -10  16   26.90    9.80
 -10  10  16   27.90   17.00
 -10  16  10   34.70   19.50
 -16  10  10   34.60   19.20
 -16  10 -10   42.10   16.40
 -10  16 -10   46.10   16.40
 -10  16  12 1353.96   77.29
 -12  10  16 1460.55   75.89
 -16  12  10 1544.75   78.49
 -16  12 -10 1389.46   70.09
 -10  16 -12 1462.75   69.39
 -16  14  10   -1.20   19.10
 -10  16  14   62.29   21.30
 -14  10  16   18.90   17.80
 -10  16 -14   27.80   14.50
 -16  14 -10   27.10   16.20
   0  12  16  260.07   27.80
 -12  16   0  294.17   32.70
 -12  16   2 2115.49  101.59
  -2  12  16 2292.47   97.89
 -12  16  -2 2097.29  100.39
  -2  12 -16 2229.38   85.79
   2  12  16 2310.37   96.19
 -16   4  12   97.49   23.70
  -4  12  16   93.79   21.20
 -12  16   4  122.19   25.10
   4  12  16  126.19   21.20
 -12  16  -4   97.89   21.70
  -4  12 -16   99.99   12.90
 -16   6  12  -13.20   14.30
 -12  16   6    5.90   16.80
  -6  12  16   -5.10   15.90
  -6  12 -16    3.30    8.70
 -12  16  -6  -14.80   12.70
 -12  16   8  115.69   25.20
  -8  12  16  107.49   23.30
 -16   8  12  149.59   28.00
  -8  12 -16  146.79   16.00
 -12  16  -8  126.29   22.60
 -12  16  10 1360.16   76.19
 -10  12  16 1563.34   75.59
  10 -12  16 1366.06   73.59
 -16  10  12 1421.56   75.99
 -10  12 -16 1402.66   61.59
 -12  16 -10 1420.86   69.79
 -12  12  16  304.87   34.40
 -16  12  12  248.18   33.60
 -12  16  12  214.68   32.00
 -12  12 -16  246.38   23.40
 -16  12 -12  287.77   29.90
 -12  16 -12  253.47   28.10
 -16  14  12  579.24   47.90
 -14  12  16  502.45   47.00
 -12  16  14  632.14   48.60
 -12  16 -14  499.75   36.10
 -16  14 -12  523.65   40.00
 -14  12 -16  521.25   34.30
 -14  16   0  -33.70   16.10
   0  14 -16  -23.10    8.50
   0  14  16   -8.90   12.70
 -14  16   2   55.39   22.70
  -2  14  16  110.99   22.50
 -14  16  -2   63.89   20.70
   2  14  16   83.99   20.10
  -2  14 -16   73.79   13.00
 -16   4  14  114.89   22.20
  -4  14  16  117.29   22.10
 -14  16   4   92.29   23.40
  -4  14 -16   90.09   14.40
   4  14  16   84.29   20.90
 -14  16  -4  128.39   23.70
 -14  16   6  345.97   38.60
  -6  14  16  398.46   39.00
 -16   6  14  387.26   38.60
 -14  16  -6  358.26   34.90
  -6  14 -16  373.96   25.60
  -8  14  16  -11.80   14.70
 -14  16   8   -4.90   17.60
 -16   8  14   14.40   20.40
 -14  16  -8   21.10   17.40
  -8  14 -16   -1.80   10.20
 -14  16  10   15.20   19.70
 -10  14  16   38.80   18.70
 -16  10  14   42.10   20.10
 -14  16 -10   38.80   18.00
 -10  14 -16   22.10   12.50
 -14  16  12  530.85   49.99
 -12  14  16  528.45   44.60
 -16  12  14  567.24   46.40
 -12  14 -16  575.64   35.40
 -16  12 -14  525.15   36.90
 -14  16 -12  581.64   40.20
 -14  14  16  144.69   30.20
 -16  14  14   84.39   25.70
 -14  16  14   84.69   28.10
 -16  14 -14  136.79   22.90
 -14  16 -14  120.99   22.10
 -14  14 -16  123.09   19.30
 -16  16   0  -35.50   15.20
   0  16 -16   -6.00   10.60
   0  16  16   -6.00   14.60
  -2  16  16 4321.17  178.78
 -16  16   2 4704.43  185.28
  -2  16 -16 4383.26  168.08
 -16  16  -2 4550.74  183.38
   2  16  16 4292.17  178.28
 -16   4  16    1.80   14.50
  -4  16  16    4.50   15.40
 -16  16   4   -9.60   17.20
  -4  16 -16   -2.10   10.90
 -16  16  -4   25.20   18.60
   4  16  16   20.80   18.30
 -16   6  16  232.48   30.50
  -6  16  16  268.27   34.30
 -16  16   6  202.68   32.50
  -6  16 -16  233.08   22.90
 -16  16  -6  197.68   28.20
 -16   8  16   -7.40   17.70
  -8  16  16    7.70   18.60
 -16  16   8  -27.30   15.40
  -8  16 -16   19.70   12.50
 -16  16  -8  -21.10   16.10
 -16  10  16 1139.49   68.09
 -10  16  16 1074.59   65.79
 -16  16  10 1144.59   70.89
 -10  16 -16 1099.19   55.89
 -16  16 -10 1180.18   63.99
 -16  12  16    2.70   20.10
 -12  16  16   27.70   20.20
 -16  16  12  -31.70   19.60
 -12  16 -16   -5.60   12.60
 -16  16 -12   12.40   16.00
 -16  16  14  688.33   54.29
 -16  14  16  656.23   58.79
 -14  16  16  658.03   54.29
 -16  14 -16  730.53   44.00
 -14  16 -16  684.33   43.10
 -16  16 -14  660.03   44.40
 -16  16  16    8.50   22.10
 -16  16 -16   17.00   15.90
  -1   1  17  290.57   19.10
   1   1 -17  274.47   15.90
  -1  17   1  234.78   27.90
  -1  17  -1  301.37   32.10
   1   1  17  286.97   18.00
  -1  17   3  367.36   33.70
   3   1 -17  329.97   20.80
  -3   1  17  326.47   22.20
   3   1  17  311.97   18.50
  -1  17  -3  371.86   33.90
   3  -1 -17  360.36   22.00
   5  -1  17  644.74   26.00
  -5   1  17  665.93   34.90
  -1  17   5  650.33   43.90
   5   1 -17  655.23   33.30
  -1  17  -5  646.44   42.00
   5  -1 -17  602.14   34.00
   5   1  17  626.94   29.00
  -7   1  17  371.06   27.90
 -17   7   1  322.57   34.80
  -1  17   7  356.16   34.90
   1  17   7  427.26   38.90
 -17   7  -1  425.26   37.80
  -1  17  -7  444.56   33.40
 -17   9   1   51.29   19.70
  -1  17   9   41.40   18.20
 -17   9  -1   36.20   17.50
   1  17   9   37.10   17.70
  -1  17  -9   48.60   16.40
  -1  17  11   92.09   21.10
 -17  11   1   84.79   22.40
 -17  11  -1   89.79   21.90
   1  17  11   63.29   19.50
  -1  17 -11  120.49   18.80
 -17  13   1 1347.57   72.29
  -1  17  13 1222.98   67.29
  -1  17 -13 1271.37   60.19
 -17  13  -1 1223.58   68.49
   1  17  13 1315.67   67.99
 -17  15   1 1204.38   70.89
  -1  17  15 1238.58   67.79
   1  17  15 1317.17   68.69
 -17  15  -1 1272.07   72.39
  -1  17 -15 1350.26   60.29
   1   3 -17  316.77   15.40
  -1   3  17  344.77   23.30
  -3  17   1  316.37   31.30
  -3  17  -1  290.27   29.50
   1   3  17  322.17   21.80
   3   3 -17  962.00   40.30
  -3  17   3  995.10   54.89
  -3   3  17  857.41   44.30
   3   3  17  917.41   41.60
   3  -3 -17 1013.10   44.60
  -3  17  -3  975.50   53.59
   5   3 -17   81.49   12.60
 -17   5   3   81.49   20.10
  -3  17   5   80.09   20.60
  -5   3  17   68.09   15.00
  -3  17  -5   95.69   20.30
 -17   7   3   79.39   23.10
   7   3 -17   95.69   15.20
   7  -3  17  100.99    8.20
  -7   3  17   77.39   15.70
  -3  17   7  100.09   21.80
  -3  17  -7   92.19   18.80
 -17   7  -3  101.49   20.10
  -3  17   9  284.87   32.00
 -17   9   3  262.17   32.60
   9  -3  17  356.26   19.40
  -9   3  17  347.47   29.80
  -3  17  -9  333.97   30.20
 -17   9  -3  272.47   33.20
  11  -3  17  140.09   14.70
 -17  11   3  143.99   27.30
 -11   3  17  116.59   20.40
  -3  17  11  153.88   25.10
 -17  11  -3  115.29   23.00
  -3  17 -11  104.59   18.50
  -3  17  13  284.77   33.30
 -17  13   3  320.47   36.10
 -13   3  17  329.67   31.40
 -17  13  -3  311.67   34.40
   3  17  13  298.97   33.50
  -3  17 -13  317.97   27.70
  -3  17  15  737.33   48.80
 -17  15   3  663.63   50.69
  -3  17 -15  657.13   39.10
   3  17  15  772.22   50.29
 -17  15  -3  659.33   49.90
   1   5 -17  647.84   25.90
  -1   5  17  648.24   35.70
  -5  17   1  604.74   45.00
   1   5  17  675.93   34.80
  -5  17  -1  646.34   43.10
   3   5 -17   95.99   10.70
  -5  17   3   72.99   20.70
  -3   5  17   74.69   15.20
   3   5  17   84.99   13.70
  -5  17  -3   46.80   17.90
  -5  17   5 1817.72   86.89
   5   5 -17 1826.92   73.89
  -5   5  17 1907.51   79.39
 -17   5   5 1798.42   87.29
  -5  17  -5 1899.01   83.99
   7   5 -17  282.47   23.20
 -17   7   5  211.08   28.70
  -7   5  17  282.07   26.80
  -5  17   7  311.67   34.50
  -5  17  -7  228.48   27.70
  -5  17   9  515.15   41.00
  -9   5  17  579.54   37.60
   9  -5  17  519.55   25.20
 -17   9   5  526.25   42.00
  -5  17  -9  529.95   36.70
 -17   9  -5  497.85   40.00
 -17  11   5   36.00   21.20
  -5  17  11   -2.70   15.70
 -11   5  17   -1.60   14.30
  11  -5  17    9.60    8.10
  -5  17 -11   11.30   13.10
 -17  11  -5  -30.20   13.90
  13  -5  17  260.27   22.10
 -13   5  17  252.87   28.90
 -17  13   5  277.17   35.00
  -5  17  13  293.57   33.20
 -17  13  -5  258.67   31.20
  -5  17 -13  233.48   25.00
 -15   5  17  417.56   40.20
 -17  15   5  326.07   39.80
  -5  17  15  478.15   44.30
 -17  15  -5  489.55   43.50
  -5  17 -15  448.36   32.20
   1   7 -17  401.36   19.20
  -7  17   1  397.66   37.80
  -1   7  17  427.26   30.10
  -7  17  -1  407.96   38.20
   1   7  17  402.26   28.10
   3   7 -17  112.99   11.70
  -3   7  17  103.89   17.80
  -7  17   3   70.59   20.40
  -7  17  -3   73.49   19.20
   3   7  17   70.49   15.00
   5   7 -17  300.57   21.00
  -7  17   5  279.07   32.50
  -5   7  17  265.97   27.40
 -17   5   7  311.07   33.20
  -7  17  -5  286.17   31.40
  -7  17   7   15.20   17.40
 -17   7   7   16.80   17.30
  -7   7  17   21.50   14.20
  -7  17  -7   54.69   17.60
  -7  17   9    8.00   16.70
 -17   9   7   21.70   17.80
  -9   7  17   12.80   14.20
   9  -7  17   14.30    7.10
 -17   9  -7    4.20   13.70
  -7  17  -9    1.30   14.50
 -11   7  17  -18.40   13.80
  11  -7  17  -10.60    6.70
 -17  11   7   17.80   17.90
  -7  17  11  -16.30   15.50
  -7  17 -11   -1.90   13.20
 -17  11  -7   -9.30   14.40
  13  -7  17  234.48   23.80
  -7  17  13  234.68   31.30
 -17  13   7  267.27   34.90
 -13   7  17  259.87   32.70
  -7  17 -13  262.07   26.70
 -17  13  -7  326.27   34.30
 -15   7  17   26.30   19.30
 -17  15   7    5.50   18.40
  -7  17  15   37.90   21.00
 -17  15  -7   28.40   18.60
  -7  17 -15   -1.40   12.20
  -1   9  17   50.49   15.20
  -9  17   1   52.89   18.80
   1   9  17   40.30   13.90
  -1   9 -17   42.80    6.90
  -9  17  -1   67.69   21.50
  -9  17   3  322.17   34.80
  -3   9  17  306.87   29.40
  -9  17  -3  340.77   35.70
   3   9  17  322.07   27.00
  -3   9 -17  328.87   15.30
 -17   5   9  520.15   44.90
  -5   9  17  482.35   36.80
  -9  17   5  529.35   45.90
  -9  17  -5  577.04   39.70
  -7   9  17   20.10   13.90
  -9  17   7    1.30   18.50
 -17   7   9    3.90   17.90
  -9  17  -7    5.80   15.50
   9  -9  17 1687.23   67.19
 -17   9   9 1722.13   86.99
  -9  17   9 1806.32   86.89
  -9   9  17 1634.14   80.59
  -9  17  -9 1750.62   80.29
  -9  17  11   -6.60   16.90
  11  -9  17    5.60    8.50
 -11   9  17   19.80   16.80
 -17  11   9    7.00   17.50
  -9  17 -11   21.10   15.40
 -17  11  -9   28.00   16.50
  -9  17  13  484.25   45.70
 -13   9  17  425.76   40.80
 -17  13   9  493.95   45.90
 -17  13  -9  508.65   39.50
  -9  17 -13  519.65   36.30
 -17  15   9   36.80   22.00
  -9  17  15   63.79   22.60
 -15   9  17   35.00   18.20
 -17  15  -9   35.50   16.80
  -9  17 -15   56.69   16.20
 -11  17   1  102.99   25.30
  -1  11  17   60.39   17.40
   1  11  17   96.89   19.00
  -1  11 -17  111.59   11.50
 -11  17  -1   96.99   23.80
  -3  11  17   93.99   20.50
 -11  17   3  122.99   25.00
  -3  11 -17  128.99   11.80
   3  11  17  146.09   20.90
 -11  17  -3   86.69   21.70
  -5  11  17  -10.10   13.90
 -11  17   5  -14.10   18.20
 -17   5  11   -1.00   15.20
 -11  17  -5   44.20   18.40
  -5  11 -17    3.20    7.10
 -11  17   7   -6.60   16.80
 -17   7  11    0.10   18.30
  -7  11  17   -4.20   14.60
  -7  11 -17    7.40    7.60
 -11  17  -7    0.70   15.70
  -9  11  17    6.40   16.60
 -17   9  11   -4.20   16.10
 -11  17   9   16.00   19.40
  -9  11 -17   24.50    9.40
 -11  17  -9   21.30   16.00
  11 -11  17  333.27   23.50
 -11  17  11  372.86   41.00
 -11  11  17  330.57   36.80
 -17  11  11  356.36   39.50
 -11  17 -11  340.37   33.60
 -17  11 -11  343.77   32.50
 -11  17  13  277.17   37.10
 -13  11  17  318.17   36.00
 -17  13  11  317.37   39.00
 -17  13 -11  297.97   31.80
 -11  17 -13  275.07   29.00
 -11  17  15  647.54   53.39
 -15  11  17  615.74   48.50
 -17  15  11  671.53   54.99
 -17  15 -11  692.23   47.70
 -11  17 -15  703.83   42.10
 -13  17   1 1055.79   65.69
  -1  13  17 1214.38   62.59
 -13  17  -1 1129.09   67.59
   1  13  17 1254.87   61.49
  -1  13 -17 1208.38   50.99
  -3  13  17  295.47   32.30
 -13  17   3  312.57   36.50
  -3  13 -17  321.87   21.50
 -13  17  -3  286.37   34.00
   3  13  17  381.86   33.20
 -17   5  13  290.97   35.50
 -13  17   5  270.57   35.00
  -5  13  17  292.77   31.00
 -13  17  -5  259.87   32.30
  -5  13 -17  286.27   20.80
  -7  13  17  268.27   31.60
 -13  17   7  252.97   34.80
 -17   7  13  232.58   31.50
  -7  13 -17  304.37   22.00
 -13  17  -7  246.28   30.90
 -17   9  13  501.35   47.10
  -9  13  17  551.14   44.20
 -13  17   9  482.85   46.80
  -9  13 -17  455.65   29.20
 -13  17  -9  534.75   40.00
 -13  17  11  287.47   37.60
 -17  11  13  226.78   33.90
 -11  13  17  215.18   32.50
 -11  13 -17  311.87   24.70
 -13  17 -11  314.77   32.40
 -13  13  17 1284.17   72.39
 -17  13  13 1204.08   71.69
 -13  17  13 1224.88   72.89
 -17  13 -13 1236.58   63.79
 -13  13 -17 1255.77   58.39
 -13  17 -13 1132.19   63.09
 -15  13  17   88.49   26.80
 -17  15  13   87.09   27.60
 -13  17  15   58.99   23.50
 -13  17 -15   52.29   16.40
 -17  15 -13   68.19   20.70
  -1  15  17 1278.37   68.89
 -15  17   1 1335.07   72.59
   1  15  17 1208.88   66.29
  -1  15 -17 1334.87   57.69
 -15  17  -1 1357.66   73.39
 -15  17   3  731.93   53.39
  -3  15  17  647.74   45.50
  -3  15 -17  677.13   35.70
 -15  17  -3  671.93   48.00
   3  15  17  690.73   47.00
 -15  17   5  364.06   40.80
  -5  15  17  369.16   37.70
 -17   5  15  420.56   39.60
 -15  17  -5  415.86   40.60
  -5  15 -17  421.06   27.10
 -15  17   7   39.10   20.10
  -7  15  17    6.10   19.60
 -17   7  15   25.40   18.30
  -7  15 -17   18.00   11.70
 -15  17  -7   64.49   21.50
 -17   9  15   43.10   22.30
  -9  15  17   65.19   21.50
 -15  17   9   61.49   23.30
  -9  15 -17   70.39   14.90
 -15  17  -9   54.09   20.10
 -11  15  17  611.64   51.49
 -15  17  11  677.63   54.69
 -17  11  15  734.43   52.29
 -15  17 -11  662.53   46.60
 -11  15 -17  626.84   38.30
 -13  15  17   36.10   21.00
 -15  17  13   49.99   23.60
 -17  13  15   57.19   24.60
 -13  15 -17   37.20   15.40
 -15  17 -13   57.39   18.30
 -15  15  17  296.47   39.80
 -17  15  15  340.37   42.20
 -15  17  15  365.76   42.90
 -17  15 -15  354.86   34.30
 -15  17 -15  297.97   31.90
 -15  15 -17  358.76   32.00
  -1  17  17 1082.59   60.69
 -17  17   1  909.31   62.29
  -1  17 -17 1020.20   49.80
 -17  17  -1 1054.19   65.99
   1  17  17 1002.90   60.19
  -3  17  17   65.49   22.30
 -17  17   3   55.99   23.40
  -3  17 -17   91.49   15.80
 -17  17  -3   66.79   23.80
   3  17  17   79.79   22.50
 -17   5  17  927.21   58.79
  -5  17  17  954.00   59.39
 -17  17   5  980.80   63.49
  -5  17 -17  954.80   48.00
 -17  17  -5  943.61   58.79
   5  17  17  976.80   57.79
 -17   7  17  296.57   34.50
  -7  17  17  255.47   35.70
 -17  17   7  200.48   33.90
  -7  17 -17  232.68   23.70
 -17  17  -7  240.38   32.10
 -17   9  17   87.69   24.50
  -9  17  17   67.19   22.70
 -17  17   9  105.29   28.20
  -9  17 -17  103.99   18.10
 -17  17  -9   86.09   23.10
 -17  11  17  253.67   37.00
 -11  17  17  254.67   36.10
 -17  17  11  365.56   44.60
 -11  17 -17  228.38   25.40
 -17  17 -11  280.87   33.60
 -17  13  17   65.09   23.80
 -13  17  17   39.40   22.90
 -17  17  13   79.79   28.40
 -13  17 -17   68.09   18.30
 -17  17 -13   93.29   22.60
 -17  17  15  -19.60   19.80
 -17  15  17   15.70   23.80
 -15  17  17   18.20   22.30
 -17  15 -17  -11.70   14.50
 -15  17 -17   12.70   15.70
 -17  17 -15   10.80   16.70
 -17  17  17   36.80   25.70
 -17  17 -17   24.80   17.30
   0   0  18    8.30    6.40
   0  18   0   24.20   17.30
   2   0  18  792.12   31.50
   2   0 -18  714.23   33.90
   0  18   2  736.03   47.80
  -2   0  18  786.52   35.00
   4   0 -18  -15.70    7.90
   0  18   4    2.00   17.40
   4   0  18    4.00    5.30
  -4   0  18   -9.90    8.00
   0  18   6  749.03   48.70
   6   0 -18  740.03   38.60
   0  18   8    9.80   16.50
 -18   8   0    6.80   17.30
   0  18  10  306.27   33.20
 -18  10   0  330.87   35.60
   0  18  12    5.70   16.80
   0  18 -12    7.60   12.00
 -18  12   0  -20.40   14.60
   0  18  14 3261.77  140.19
   0  18 -14 3194.58  130.89
 -18  14   0 3404.56  142.99
 -18  16   0  -20.90   16.20
   0  18  16    3.50   18.70
   0  18 -16   -9.10   12.00
   0   2  18  782.12   36.90
  -2  18   0  811.02   48.70
  -2   2  18  337.37   22.90
   2   2 -18  335.47   18.60
  -2  18   2  353.86   34.00
  -2  18  -2  331.97   32.20
   2   2  18  383.56   21.10
   2  -2 -18  317.77   21.80
   4   2 -18  322.37   21.00
  -4   2  18  304.17   23.90
  -2  18   4  334.97   33.40
  -2  18  -4  346.97   33.00
   4   2  18  338.47   20.20
   4  -2 -18  335.97   23.60
   6   2 -18  132.79   16.20
 -18   6   2  145.49   24.80
  -6   2  18  132.29   17.30
  -2  18   6  126.29   23.70
  -2  18  -6  131.59   22.10
  -8   2  18   58.49   15.00
  -2  18   8   63.59   21.20
 -18   8   2   43.30   19.40
   8  -2  18   57.59    8.30
 -18   8  -2   35.10   19.90
  -2  18  -8   63.49   18.00
  -2  18  10   53.49   22.00
 -10   2  18   85.79   18.10
  10  -2  18   89.09   11.50
 -18  10   2   90.79   22.20
 -18  10  -2   72.49   21.20
   2  18  10   70.69   20.30
  -2  18 -10   39.20   16.00
 -18  12   2    9.10   18.80
  12  -2  18   -3.00    8.70
  -2  18  12   28.60   18.50
 -18  12  -2   17.00   19.60
   2  18  12    0.20   16.00
  -2  18 -12    1.10   11.90
  -2  18  14   40.00   19.00
 -18  14   2   11.60   21.10
   2  18  14   28.70   17.90
 -18  14  -2   28.80   18.70
  -2  18 -14   37.70   14.10
  -2  18  16   20.00   18.00
 -18  16   2   38.70   22.90
 -18  16  -2   19.90   19.20
  -2  18 -16   22.10   13.20
   2  18  16   37.00   21.20
  -4  18   0  -18.00   14.20
   0   4  18   -0.50    9.30
   2   4 -18  335.07   17.50
  -4  18   2  294.67   32.30
  -2   4  18  353.06   25.70
   2   4  18  344.97   23.10
  -4  18  -2  387.96   35.40
  -4   4  18 1028.60   49.20
   4   4 -18  995.90   43.40
  -4  18   4 1008.30   57.79
   4   4  18  980.90   45.20
  -4  18  -4 1058.89   56.89
 -18   6   4  424.86   38.20
  -4  18   6  434.76   39.50
   6   4 -18  354.26   25.10
  -6   4  18  436.46   30.50
  -4  18  -6  437.96   37.40
  -8   4  18 1452.45   68.79
 -18   8   4 1450.05   77.39
  -4  18   8 1471.85   75.59
   8  -4  18 1458.45   55.69
 -18   8  -4 1444.56   72.69
  -4  18  -8 1613.24   71.69
 -18  10   4   46.50   19.60
 -10   4  18   38.10   15.40
  10  -4  18   17.80    7.60
  -4  18  10   13.90   19.20
 -18  10  -4   -6.80   14.60
  -4  18 -10   36.80   15.70
 -12   4  18   18.10   15.30
 -18  12   4  -40.50   13.20
  12  -4  18   24.30    9.30
  -4  18  12    4.70   18.30
  -4  18 -12    7.30   12.60
 -18  12  -4    5.80   17.50
 -18  14   4 1186.48   67.99
 -14   4  18 1041.70   58.79
  -4  18  14 1023.20   63.29
 -18  14  -4  985.10   61.89
  -4  18 -14 1004.30   52.79
 -18  16   4  356.96   42.40
  -4  18  16  334.17   37.00
   4  18  16  386.86   39.70
  -4  18 -16  336.67   28.70
 -18  16  -4  348.57   38.10
   0   6  18  770.02   39.80
  -6  18   0  676.13   46.60
   2   6 -18  148.69   12.00
  -6  18   2  161.38   27.70
  -2   6  18  144.39   19.00
   2   6  18  194.68   19.10
  -6  18  -2   71.89   20.20
   4   6 -18  458.15   24.50
  -6  18   4  438.86   41.20
  -4   6  18  438.16   32.00
  -6  18  -4  475.45   37.90
   4   6  18  412.16   27.80
   6   6 -18   56.99   12.10
  -6   6  18   54.09   15.60
 -18   6   6   48.90   18.90
  -6  18   6   43.90   18.30
  -6  18  -6   54.19   16.90
  -8   6  18  161.38   22.40
 -18   8   6  171.08   27.30
   8  -6  18  159.08   10.40
  -6  18   8  160.08   28.50
  -6  18  -8  145.39   22.70
 -10   6  18  282.37   30.70
  10  -6  18  283.57   17.80
 -18  10   6  270.37   35.00
  -6  18  10  327.47   37.40
  -6  18 -10  290.57   29.80
 -18  10  -6  269.67   31.00
 -18  12   6   -3.00   17.50
  12  -6  18   16.50    8.90
 -12   6  18   -3.80   15.60
  -6  18  12  -28.20   14.30
 -18  12  -6  -11.80   14.50
  -6  18 -12    1.00   12.70
 -14   6  18  104.89   21.50
  -6  18  14   78.99   23.40
 -18  14   6   65.29   23.50
  -6  18 -14   91.69   18.50
 -18  14  -6   66.99   19.70
 -18  16   6  189.88   32.60
 -16   6  18  190.98   30.10
  -6  18  16  149.19   28.10
 -18  16  -6  187.78   28.60
  -6  18 -16  201.78   23.30
   0   8  18    9.70   12.00
  -8  18   0   -9.30   16.50
  -8  18   2   43.90   21.50
   2   8 -18   39.50    8.00
  -2   8  18   33.80   14.20
  -8  18  -2   32.00   17.80
   2   8  18   38.30   13.80
  -8  18   4 1421.56   76.69
  -4   8  18 1468.05   70.49
  -8  18  -4 1484.35   74.09
   4   8  18 1616.54   67.99
 -18   6   8  117.79   24.40
  -6   8  18  182.08   23.90
  -8  18   6  215.08   29.70
  -8  18  -6  194.08   27.50
  -8  18   8 1475.25   76.49
 -18   8   8 1385.46   76.49
  -8   8  18 1438.86   70.09
  -8  18  -8 1428.26   70.69
 -18  10   8  405.26   41.70
  -8  18  10  412.46   40.50
 -10   8  18  412.66   36.90
  10  -8  18  400.76   22.20
  -8  18 -10  386.56   34.80
 -18  10  -8  348.37   33.80
 -18  12   8   -1.60   18.20
 -12   8  18    1.00   16.50
  -8  18  12  -20.10   15.00
  12  -8  18   -0.50    7.90
 -18  12  -8   -8.40   15.70
  -8  18 -12    2.80   13.60
  -8  18  14  251.77   35.60
 -18  14   8  257.97   35.90
 -14   8  18  314.57   35.10
 -18  14  -8  251.77   31.00
  -8  18 -14  249.28   27.40
 -18  16   8  422.76   45.80
  -8  18  16  487.75   46.60
 -16   8  18  493.85   45.60
  -8  18 -16  461.95   34.50
 -18  16  -8  443.46   43.70
   0  10 -18  315.07   17.40
 -10  18   0  333.77   35.40
   0  10  18  273.07   27.80
 -10  18   2   69.29   21.30
  -2  10  18   83.49   18.30
  -2  10 -18   68.99    7.60
 -10  18  -2   49.70   19.40
   2  10  18   50.69   16.40
 -10  18   4   39.40   20.40
  -4  10  18   37.20   16.00
  -4  10 -18   22.90    5.70
   4  10  18   17.30   13.10
 -10  18  -4   18.70   18.90
 -10  18   6  318.07   37.40
 -18   6  10  296.27   35.60
  -6  10  18  269.57   30.00
 -10  18  -6  322.77   34.40
  -8  10  18  332.27   34.20
 -10  18   8  328.77   38.90
 -18   8  10  441.26   43.40
 -10  18  -8  442.96   37.90
 -10  10  18  891.41   54.19
 -18  10  10  932.61   59.49
 -10  18  10  986.70   60.79
  10 -10  18  922.11   41.20
 -10  18 -10  931.21   53.59
 -18  12  10  310.17   38.00
 -12  10  18  295.87   33.70
 -10  18  12  254.27   35.00
  12 -10  18  262.47   22.10
 -10  18 -12  348.57   32.30
 -18  12 -10  361.36   34.60
 -18  14  10   26.50   20.90
 -10  18  14   17.20   20.80
 -14  10  18   83.59   22.40
 -18  14 -10   83.99   21.10
 -10  18 -14   57.09   17.50
 -18  16  10   55.99   25.80
 -16  10  18   54.09   23.50
 -10  18  16   -3.10   20.80
 -18  16 -10   36.00   18.70
 -10  18 -16   15.80   14.30
 -12  18   0   -6.40   16.40
   0  12 -18    0.80    7.20
   0  12  18  -15.80   12.50
 -12  18   2   -9.40   16.40
  -2  12  18   -9.60   13.80
   2  12  18   30.80   14.80
  -2  12 -18   -9.00    6.80
 -12  18  -2  -11.50   16.50
  -4  12  18   -6.30   14.30
 -12  18   4    5.50   20.60
  -4  12 -18   33.00    8.30
   4  12  18    8.30   15.20
 -12  18  -4   26.90   17.30
 -12  18   6   -0.50   18.60
 -18   6  12  -10.70   16.60
  -6  12  18    0.60   15.60
 -12  18  -6   -7.30   16.00
  -6  12 -18    4.40    7.40
  -8  12  18   -7.20   14.40
 -12  18   8    2.10   19.40
 -18   8  12   -3.40   18.50
  -8  12 -18    8.60    8.00
 -12  18  -8   24.30   17.30
 -12  18  10  408.06   41.70
 -10  12  18  336.97   37.60
 -18  10  12  329.77   39.00
 -12  18 -10  296.47   32.10
 -10  12 -18  310.77   23.20
 -12  18  12   45.70   22.20
 -18  12  12   37.20   21.00
 -12  12  18   50.39   21.90
 -18  12 -12   53.29   19.20
 -12  18 -12   21.10   16.30
 -18  14  12  926.71   64.59
 -14  12  18  879.41   58.59
 -12  18  14  901.51   61.49
 -12  18 -14  875.51   51.09
 -18  14 -12  999.40   55.69
 -12  18  16  105.39   27.70
 -18  16  12  143.39   30.70
 -16  12  18   93.99   28.10
 -18  16 -12  155.18   26.70
 -12  18 -16  148.69   23.40
   0  14  18 3311.47  136.49
   0  14 -18 3257.87  124.09
 -14  18   0 3204.48  142.99
 -14  18   2   24.40   20.20
  -2  14  18   19.00   15.40
 -14  18  -2  -33.00   13.80
  -2  14 -18    8.00    9.00
   2  14  18  -18.60   14.40
  -4  14  18  976.70   59.59
 -14  18   4 1104.09   65.99
  -4  14 -18 1048.70   46.70
 -14  18  -4 1011.40   62.69
   4  14  18 1058.39   58.49
 -18   6  14   90.19   22.90
 -14  18   6  109.09   27.20
  -6  14  18   93.69   21.60
 -14  18  -6   69.29   21.60
  -6  14 -18  102.79   14.00
 -18   8  14  252.27   33.80
  -8  14  18  251.67   33.00
 -14  18   8  246.98   36.10
 -14  18  -8  213.88   29.60
  -8  14 -18  279.97   21.90
 -14  18  10   64.29   23.50
 -18  10  14   10.30   20.90
 -10  14  18   64.19   22.70
 -10  14 -18   56.09   13.50
 -14  18 -10   46.50   19.30
 -12  14  18  888.81   58.99
 -14  18  12  928.41   62.09
 -18  12  14  784.92   59.89
 -14  18 -12  836.42   53.59
 -12  14 -18  850.51   44.40
 -18  14  14   -3.70   22.20
 -14  18  14   21.20   20.60
 -14  14  18   26.10   22.60
 -14  14 -18   -5.30   12.40
 -14  18 -14   -0.70   14.90
 -18  14 -14   21.90   16.00
 -18  16  14   50.39   25.20
 -16  14  18   50.59   25.80
 -14  18  16   62.49   25.50
 -14  18 -16   31.60   16.90
 -18  16 -14   52.09   19.70
 -16  18   0   -2.30   17.60
   0  16  18  -26.50   14.50
   0  16 -18  -18.00    9.40
 -16  18   2   55.89   21.90
  -2  16  18   39.80   20.10
 -16  18  -2   37.90   21.60
   2  16  18   62.59   20.10
  -2  16 -18   25.70   11.60
  -4  16  18  337.47   36.20
 -16  18   4  286.17   38.50
  -4  16 -18  373.26   26.30
   4  16  18  355.46   36.10
 -16  18  -4  393.96   42.40
 -18   6  16  196.88   29.60
 -16  18   6  133.89   29.00
  -6  16  18  171.78   28.90
  -6  16 -18  204.18   20.50
 -16  18  -6  184.48   29.00
  -8  16  18  465.65   45.80
 -16  18   8  443.76   48.30
 -18   8  16  410.06   44.40
 -16  18  -8  504.95   46.10
  -8  16 -18  425.46   29.40
 -16  18  10   11.80   20.30
 -10  16  18   15.50   18.20
 -18  10  16   38.50   23.30
 -10  16 -18   14.00   12.30
 -16  18 -10   49.10   20.40
 -16  18  12  120.09   28.80
 -18  12  16  101.49   26.70
 -12  16  18  139.09   30.70
 -12  16 -18  120.59   18.90
 -16  18 -12   85.99   21.90
 -14  16  18   48.20   25.40
 -16  18  14   79.39   26.40
 -18  14  16   96.99   27.50
 -16  18 -14   87.19   21.60
 -14  16 -18   39.10   16.40
 -16  16  18    0.70   19.40
 -18  16  16    3.70   25.40
 -16  18  16    4.30   22.10
 -18  16 -16   35.60   18.60
 -16  18 -16    4.30   16.40
 -16  16 -18   51.29   18.20
 -18  18   0 2293.37  110.99
   0  18 -18 2294.87   94.49
   0  18  18 2201.18  104.79
  -2  18  18   56.89   21.40
 -18  18   2  119.09   30.90
  -2  18 -18   57.29   15.60
 -18  18  -2   98.99   27.10
   2  18  18   64.49   20.80
  -4  18  18  569.64   51.49
 -18  18   4  635.94   51.89
  -4  18 -18  565.94   36.10
 -18  18  -4  651.13   51.09
   4  18  18  610.94   47.90
 -18   6  18  110.69   24.30
  -6  18  18  122.19   25.10
 -18  18   6   98.49   30.00
  -6  18 -18  111.19   18.00
 -18  18  -6   99.19   24.60
 -18   8  18   84.19   25.30
  -8  18  18   99.59   25.50
 -18  18   8  119.79   32.80
  -8  18 -18  127.89   19.40
 -18  18  -8  104.39   25.80
 -18  10  18  683.93   50.79
 -10  18  18  617.24   50.39
 -18  18  10  523.65   54.89
 -10  18 -18  580.54   38.70
 -18  18 -10  625.84   47.90
 -18  12  18  454.35   48.90
 -12  18  18  452.75   50.69
 -18  18  12  493.75   53.19
 -12  18 -18  438.36   34.90
 -18  18 -12  522.75   42.60
 -18  14  18   90.79   29.00
 -14  18  18   48.50   25.10
 -18  18  14   56.99   26.00
 -14  18 -18   85.79   20.00
 -18  18 -14   51.29   21.30
 -18  16  18   26.90   23.90
 -16  18  18   90.29   31.50
 -18  18  16   77.79   27.60
 -16  18 -18   56.99   19.00
 -18  18 -16   90.49   22.60
 -18  18  18  179.68   34.60
 -18  18 -18  159.88   26.00
  -1   1  19  583.44   28.90
  -1  19   1  640.64   43.30
  -1  19  -1  579.14   43.20
   1   1  19  556.54   27.20
  -1  19   3   55.39   19.30
  -3   1  19  104.19   13.50
   3   1 -19   99.89   11.90
   3   1  19  114.79   11.00
   3  -1 -19  112.29   13.40
  -1  19  -3   95.49   22.90
  -5   1  19  287.27   23.30
  -1  19   5  285.87   32.60
   5   1 -19  347.47   22.50
   5  -1 -19  303.87   23.20
   1  19   5  298.47   32.90
   5   1  19  302.17   18.20
  -1  19  -5  336.87   33.50
  -7   1  19  123.79   17.10
  -1  19   7  101.49   23.70
 -19   7   1   78.59   22.80
  -1  19  -7  117.59   22.00
 -19   7  -1   99.49   21.70
   1  19   7   65.19   22.90
 -19   9   1   -7.10   15.10
  -1  19   9    6.40   17.30
   1  19   9  -21.60   14.30
  -1  19  -9   31.00   15.70
 -19   9  -1   -8.70   14.60
 -19  11   1  191.78   29.40
  -1  19  11  217.68   31.20
  11  -1  19  215.78   17.80
  -1  19 -11  153.98   22.70
   1  19  11  224.78   29.80
 -19  11  -1  207.68   29.10
 -19  13   1  565.64   49.30
  -1  19  13  492.35   44.60
  -1  19 -13  468.45   34.80
   1  19  13  563.94   45.80
 -19  13  -1  507.65   47.90
  -1  19  15  178.68   29.60
 -19  15   1  120.99   27.50
 -19  15  -1  204.28   31.60
   1  19  15  208.08   31.10
  -1  19 -15  183.78   22.90
   1  19 -17  656.93   40.00
  -1  19  17  665.53   50.59
 -19  17   1  654.93   56.99
 -19  17  -1  586.74   49.20
  -1  19 -17  617.34   38.90
   1  19  17  561.04   46.00
  -1   3  19  147.19   15.80
  -3  19   1  112.59   22.60
   1   3  19  117.79   14.10
  -3  19  -1  109.69   22.40
  -3   3  19  473.45   29.50
  -3  19   3  442.16   40.10
   3   3 -19  478.35   23.90
   3   3  19  453.55   25.90
  -3  19  -3  461.05   36.70
   3  -3 -19  490.85   28.20
  -3  19   5  837.32   51.19
   5   3 -19  716.73   36.10
  -5   3  19  778.92   40.60
   5   3  19  786.02   36.10
  -3  19  -5  703.53   45.50
  -7   3  19  692.73   40.80
 -19   7   3  737.13   49.60
  -3  19   7  746.53   49.70
  -3  19  -7  760.12   46.20
  -3  19   9  268.27   34.60
   9  -3  19  254.27   15.90
  -9   3  19  267.17   26.80
 -19   9   3  201.38   30.60
 -19   9  -3  322.57   34.20
  -3  19  -9  272.97   29.30
  -3  19  11    5.10   17.10
  11  -3  19   -9.00    7.70
 -11   3  19    7.60   14.70
 -19  11   3  -34.50   14.10
 -19  11  -3   -5.10   15.40
  -3  19 -11   21.70   13.80
   3  19  11    6.40   16.70
  13  -3  19  284.27   22.20
 -19  13   3  258.37   35.40
 -13   3  19  306.17   30.60
  -3  19  13  316.77   36.30
  -3  19 -13  304.97   29.30
   3  19  13  341.17   38.70
 -19  13  -3  295.57   35.10
  -3  19  15  423.86   43.60
 -19  15   3  352.66   40.20
 -19  15  -3  325.07   37.40
   3  19  15  329.57   36.80
  -3  19 -15  303.77   28.70
 -19  17   3  574.64   54.09
  -3  19  17  543.65   44.60
 -19  17  -3  416.66   43.80
   3  19  17  500.85   46.40
  -3  19 -17  508.15   34.50
  -1   5  19  299.77   25.10
  -5  19   1  279.17   33.40
  -5  19  -1  305.37   32.60
   1   5  19  290.77   23.80
   3   5 -19  760.22   32.80
  -5  19   3  694.33   48.60
  -3   5  19  727.83   40.40
  -5  19  -3  799.22   48.20
   3   5  19  710.23   37.10
   5   5 -19  144.79   15.40
  -5  19   5  116.19   25.80
  -5   5  19  159.78   20.40
   5   5  19  161.18   17.40
  -5  19  -5  131.99   24.60
   7   5 -19  631.04   37.80
  -7   5  19  643.84   39.20
 -19   7   5  637.74   46.70
  -5  19   7  617.64   46.10
  -5  19  -7  660.93   42.00
  -9   5  19  470.05   37.00
   9  -5  19  508.75   22.90
 -19   9   5  568.64   44.40
  -5  19   9  454.85   44.10
  -5  19  -9  475.85   37.10
 -19   9  -5  606.74   42.90
  11  -5  19   15.60    8.00
 -19  11   5  -23.60   16.00
 -11   5  19   25.00   15.10
  -5  19  11    6.10   17.20
  -5  19 -11   25.40   15.10
 -19  11  -5   14.90   17.20
  -5  19  13  199.28   31.40
 -19  13   5  117.29   26.30
 -13   5  19  110.09   21.80
  13  -5  19  112.29   15.00
 -19  13  -5  104.89   23.10
  -5  19 -13  154.18   22.40
  -5  19  15  127.89   28.00
 -15   5  19   84.89   22.10
 -19  15   5  149.88   29.30
 -19  15  -5   79.99   23.00
  -5  19 -15   85.59   18.70
 -17   5  19    4.60   15.40
  -5  19  17    3.10   20.30
 -19  17   5   -2.70   19.20
   5  19  17    6.50   17.80
 -19  17  -5    3.20   19.50
  -5  19 -17   -1.80   12.40
  -1   7  19  111.99   18.00
  -7  19   1  145.99   27.30
   1   7  19   96.99   16.70
  -7  19  -1  146.19   25.60
  -3   7  19  711.43   42.50
   3   7 -19  783.52   33.60
  -7  19   3  736.33   49.60
   3   7  19  746.73   40.70
  -7  19  -3  772.02   48.50
  -7  19   5  655.33   47.10
   5   7 -19  603.34   31.90
  -5   7  19  644.94   39.70
  -7  19  -5  647.14   43.40
   5   7  19  614.84   35.90
 -19   7   7 2553.04  117.19
  -7   7  19 2665.83  110.89
  -7  19   7 2527.15  117.19
  -7  19  -7 2685.43  113.69
  -7  19   9   91.49   23.90
 -19   9   7   52.79   21.30
   9  -7  19   60.19    7.70
  -9   7  19   51.29   18.50
  -7  19  -9   45.90   17.50
  11  -7  19  747.53   34.60
 -11   7  19  759.02   48.30
  -7  19  11  753.62   52.69
 -19  11   7  768.42   55.79
  -7  19 -11  758.52   46.70
 -19  11  -7  747.33   50.09
  13  -7  19  100.39   14.20
 -19  13   7   54.89   22.50
  -7  19  13   81.69   23.80
 -13   7  19   83.99   22.60
  -7  19 -13   99.49   19.60
 -19  13  -7  106.29   23.50
  -7  19  15  203.08   31.30
 -19  15   7  144.79   29.30
 -15   7  19  157.58   27.70
  -7  19 -15  136.89   21.60
 -19  15  -7  153.28   28.30
  -7  19  17   39.20   21.30
 -19  17   7   38.20   23.60
 -17   7  19   34.30   20.30
  -7  19 -17   35.50   15.30
 -19  17  -7   20.70   20.20
  -1   9  19    7.20   12.20
  -9  19   1    4.20   16.70
   1   9  19  -10.30   10.30
  -9  19  -1   15.90   16.60
  -3   9  19  240.88   26.80
  -9  19   3  272.47   33.00
  -9  19  -3  259.77   30.70
   3   9  19  246.98   24.60
  -5   9  19  483.85   36.30
  -9  19   5  532.05   47.40
  -9  19  -5  497.75   42.90
   5   9  19  445.06   33.00
  -7   9  19   23.20   16.30
 -19   7   9   65.29   21.50
  -9  19   7   84.59   23.50
  -9  19  -7   88.19   21.60
  -9  19   9  256.67   33.80
  -9   9  19  252.67   31.00
 -19   9   9  281.97   34.90
  -9  19  -9  298.17   32.40
 -19  11   9  247.78   34.70
  11  -9  19  239.08   18.20
  -9  19  11  217.38   34.50
 -11   9  19  263.07   32.20
  -9  19 -11  236.58   28.40
 -19  11  -9  224.58   28.60
  -9  19  13   94.99   25.60
 -13   9  19   94.99   23.60
 -19  13   9   93.99   28.30
 -19  13  -9   86.29   22.10
  -9  19 -13  105.89   20.40
  -9  19  15  362.66   42.20
 -15   9  19  410.86   41.60
 -19  15   9  356.76   42.50
 -19  15  -9  306.17   35.90
  -9  19 -15  423.56   34.00
 -19  17   9  567.14   54.89
 -17   9  19  661.53   51.69
  -9  19  17  655.33   57.19
 -19  17  -9  596.24   48.50
  -9  19 -17  651.93   41.20
 -11  19   1  160.98   28.20
  -1  11  19  235.88   26.20
   1  11  19  245.38   26.30
  -1  11 -19  229.98   14.60
 -11  19  -1  198.08   31.50
 -11  19   3   32.90   19.60
  -3  11  19   20.90   14.60
   3  11  19  -11.80   12.60
  -3  11 -19   16.90    5.70
 -11  19  -3   28.50   19.60
 -11  19   5   -3.30   18.00
  -5  11  19   12.50   15.70
   5  11  19   18.00   14.10
  -5  11 -19   18.20    6.00
 -11  19  -5   21.80   19.70
 -11  19   7  804.92   54.79
 -19   7  11  722.43   52.29
  -7  11  19  741.73   47.80
 -11  19  -7  764.72   50.89
 -19   9  11  214.58   32.70
 -11  19   9  243.98   34.70
  -9  11  19  233.88   29.50
 -11  19  -9  226.28   29.20
 -11  19  11  971.20   62.29
 -11  11  19  875.81   57.79
 -19  11  11  952.60   63.59
 -11  19 -11  930.71   54.79
 -19  13  11   75.99   24.30
 -11  19  13   63.69   24.20
 -13  11  19   57.79   23.10
 -19  13 -11   70.19   20.60
 -11  19 -13   60.29   18.80
 -19  15  11   11.60   21.00
 -15  11  19   31.60   21.10
 -11  19  15   15.70   20.00
 -19  15 -11   11.80   17.10
 -11  19 -15    1.90   15.80
 -11  19  17  193.68   34.10
 -19  17  11  195.88   34.90
 -17  11  19  236.78   35.40
 -11  19 -17  252.77   27.80
 -19  17 -11  207.48   30.10
  -1  13  19  478.15   38.40
 -13  19   1  556.34   44.60
   1  13  19  479.45   37.30
  -1  13 -19  459.85   25.60
 -13  19  -1  488.75   44.50
 -13  19   3  339.37   39.30
  -3  13  19  299.87   31.90
 -13  19  -3  304.67   37.20
   3  13  19  268.87   30.20
  -3  13 -19  258.77   18.70
 -13  19   5  110.59   26.00
  -5  13  19  141.99   25.00
  -5  13 -19  128.99   13.00
 -13  19  -5   85.39   24.30
   5  13  19  114.19   21.80
 -19   7  13   95.89   24.30
  -7  13  19   62.49   22.00
 -13  19   7  115.09   26.60
 -13  19  -7  107.09   23.30
  -7  13 -19   93.09   12.50
 -13  19   9   90.69   25.50
  -9  13  19  107.19   25.60
 -19   9  13   81.59   24.20
  -9  13 -19  102.99   13.70
 -13  19  -9  113.99   23.70
 -11  13  19   67.89   23.60
 -13  19  11   48.00   23.20
 -19  11  13   79.69   24.40
 -11  13 -19   60.69   13.40
 -13  19 -11   74.59   20.60
 -13  13  19  440.36   44.60
 -13  19  13  492.15   51.59
 -19  13  13  450.35   49.70
 -19  13 -13  512.75   39.10
 -13  19 -13  517.75   40.70
 -19  15  13  173.98   32.30
 -13  19  15  112.59   29.30
 -15  13  19   82.19   28.20
 -13  19 -15   91.59   21.30
 -19  15 -13  104.69   22.60
 -19  17  13  404.36   48.30
 -13  19  17  571.64   55.59
 -17  13  19  388.06   44.80
 -19  17 -13  436.46   41.20
 -13  19 -17  447.76   36.30
 -15  19   1  200.58   32.00
   1  15 -19  213.58   19.80
  -1  15  19  273.47   31.90
 -15  19  -1  208.78   31.90
   1  15  19  224.18   29.40
  -1  15 -19  193.48   18.40
  -3  15  19  306.37   35.40
 -15  19   3  327.37   39.20
 -15  19  -3  374.56   41.00
  -3  15 -19  340.97   23.70
   3  15  19  370.46   36.20
  -5  15  19   75.89   22.20
 -15  19   5   88.99   26.00
  -5  15 -19  104.09   14.20
   5  15  19   81.89   22.10
 -15  19  -5   95.59   25.50
  -7  15  19  206.28   30.80
 -15  19   7  189.18   32.80
 -19   7  15  168.58   28.30
  -7  15 -19  147.79   17.00
 -15  19  -7  191.28   28.50
 -19   9  15  362.66   41.10
  -9  15  19  394.36   42.10
 -15  19   9  318.97   42.40
  -9  15 -19  368.76   26.30
 -15  19  -9  375.76   39.30
 -19  11  15   29.10   21.60
 -11  15  19    1.20   16.70
 -15  19  11    2.90   22.80
 -15  19 -11   23.20   17.80
 -11  15 -19   -3.10   10.40
 -15  19  13  137.89   31.50
 -19  13  15  151.28   32.30
 -13  15  19  147.19   30.40
 -15  19 -13  116.99   24.50
 -13  15 -19  109.69   18.10
 -15  15  19   41.30   23.10
 -19  15  15   10.40   22.20
 -15  19  15   47.60   25.10
 -19  15 -15   17.40   17.80
 -15  19 -15   16.00   16.30
 -15  19  17   10.40   21.30
 -19  17  15   10.60   22.80
 -17  15  19  -29.40   17.70
 -15  19 -17  -16.00   14.60
 -19  17 -15  -14.30   16.50
 -17  19   1  585.24   54.29
  -1  17  19  722.33   49.90
   1  17 -19  557.84   35.60
 -17  19  -1  547.55   52.39
  -1  17 -19  678.83   36.00
   1  17  19  653.13   47.50
 -17  19   3  539.45   49.99
  -3  17  19  437.96   43.70
   3  17  19  440.56   42.90
  -3  17 -19  498.95   30.80
 -17  19  -3  474.55   48.10
  -5  17  19   -3.60   18.60
 -17  19   5  -16.50   21.40
   5  17  19    8.90   17.80
 -17  19  -5  -29.30   17.70
  -5  17 -19    0.70   10.70
  -7  17  19   12.80   18.60
 -19   7  17   19.10   18.30
 -17  19   7    2.00   22.70
  -7  17 -19    0.70   11.70
 -17  19  -7   21.10   19.60
 -19   9  17  551.04   50.89
  -9  17  19  571.04   51.29
 -17  19   9  676.93   59.39
  -9  17 -19  562.14   35.80
 -17  19  -9  560.24   44.80
 -19  11  17  226.48   34.50
 -11  17  19  237.58   37.80
 -17  19  11  205.08   37.20
 -11  17 -19  241.88   24.70
 -17  19 -11  256.07   32.20
 -19  13  17  376.36   45.50
 -13  17  19  409.76   47.20
 -17  19  13  430.76   49.90
 -13  17 -19  461.75   33.50
 -17  19 -13  469.65   42.40
 -17  19  15   17.40   23.30
 -19  15  17   -5.70   22.70
 -15  17  19   -6.40   20.40
 -17  19 -15  -15.50   15.20
 -15  17 -19   18.40   13.70
 -17  17  19   21.30   25.00
 -19  17  17   35.50   27.80
 -17  19  17   16.50   25.50
 -19  17 -17   35.90   19.40
 -17  19 -17   14.40   16.90
 -17  17 -19    6.90   15.50
   1  19 -19   35.50   14.40
 -19  19   1   39.20   22.70
  -1  19  19   40.40   21.80
  -1  19 -19   38.20   14.10
 -19  19  -1   76.59   24.70
   1  19  19   34.10   21.90
  -3  19  19  122.79   27.40
 -19  19   3  224.78   36.00
  -3  19 -19  251.77   24.30
 -19  19  -3  219.18   34.00
   3  19  19  258.77   33.30
  -5  19  19   32.50   20.80
 -19  19   5   10.90   23.50
  -5  19 -19   34.70   14.20
 -19  19  -5   48.90   24.30
   5  19  19   30.30   21.00
 -19   7  19  584.44   52.29
  -7  19  19  501.05   48.70
 -19  19   7  514.65   52.99
  -7  19 -19  529.25   35.10
 -19  19  -7  442.66   45.30
 -19   9  19   23.60   22.10
  -9  19  19    7.50   23.30
 -19  19   9   39.50   26.90
  -9  19 -19  -15.60   11.50
 -19  19  -9   -9.60   17.90
 -19  11  19  358.36   44.80
 -11  19  19  495.65   49.50
 -19  19  11  442.46   50.99
 -11  19 -19  412.46   32.40
 -19  19 -11  450.05   44.10
 -19  13  19  -12.30   22.60
 -13  19  19   -5.00   23.00
 -19  19  13   17.30   22.80
 -13  19 -19   17.20   15.20
 -19  19 -13   53.19   21.50
 -19  15  19   32.70   23.60
 -15  19  19  -11.40   20.40
 -19  19  15   29.60   22.90
 -15  19 -19   -2.50   15.10
 -19  19 -15  -18.40   17.50
 -19  17  19  191.28   36.40
 -17  19  19  185.68   38.90
 -19  19  17  310.57   45.30
 -17  19 -19  215.88   43.30
 -19  19 -17  217.18   30.30
 -19  19  19   97.99   30.60
   0   0  20 1151.58   46.30
   0  20   0 1161.88   63.29
  -2   0  20   -3.60    7.00
   0  20  -2   -9.60   13.80
   0  20   2    2.50   16.70
   2   0 -20   -3.40    6.80
   2   0  20    1.00    5.00
   0  20   4  661.93   48.80
   4   0 -20  673.23   33.60
   4   0  20  673.53   28.00
   0  20  -4  698.53   45.10
   0  20   6    3.50   16.70
   0  20  -6  -15.90   12.90
   6   0  20    3.10    5.60
   0  20   8  238.68   31.60
 -20   8   0  241.78   31.20
   0  20  -8  287.87   30.30
   0  20  10  -13.90   15.70
 -20  10   0   18.20   19.20
   0  20 -10    2.80   14.00
   0  20  12   21.50   20.40
 -20  12   0   38.20   20.20
   0  20 -12   39.90   15.80
   0  20  14    0.40   16.50
 -20  14   0   43.40   20.90
   0  20 -14    4.20   12.60
   0  20  16  214.08   33.10
 -20  16   0  199.48   32.80
   0  20 -16  138.99   22.10
   0  20  18   22.70   21.30
 -20  18   0   17.60   20.00
   0  20 -18    9.10   13.30
   0   2  20  -13.20    7.40
  -2  20   0   10.10   15.90
   2   2 -20  267.47   16.00
  -2  20   2  253.77   31.30
  -2   2  20  259.37   20.60
  -2  20  -2  298.27   31.30
   2   2  20  267.87   18.40
  -4   2  20  186.28   18.50
   4   2 -20  143.39   14.70
  -2  20   4  135.39   25.20
   4  -2 -20  158.98   17.10
   4   2  20  151.08   13.80
  -2  20  -4  119.69   22.70
  -6   2  20 1130.59   54.09
  -2  20   6 1229.08   67.49
   6   2 -20 1132.59   51.99
   6   2  20 1157.28   48.70
  -2  20  -6 1199.08   61.69
  -2  20   8    6.90   16.90
   8  -2  20   14.50    5.60
  -8   2  20   13.50   12.40
 -20   8   2   35.90   19.70
 -20   8  -2   29.20   17.20
  -2  20  -8   17.90   13.90
   2  20   8   15.40   18.60
 -10   2  20  439.46   32.80
  10  -2  20  434.56   22.70
 -20  10   2  376.46   41.20
  -2  20  10  357.86   40.40
   2  20  10  392.86   39.50
 -20  10  -2  360.96   38.00
  -2  20 -10  431.06   36.50
 -20  12   2  214.78   31.70
  12  -2  20  244.18   19.40
  -2  20  12  253.87   34.90
 -20  12  -2  225.38   32.40
   2  20  12  282.97   36.00
  -2  20 -12  227.18   27.00
  -2  20  14   -0.30   19.80
 -20  14   2   11.50   20.60
 -20  14  -2  -17.80   16.30
  -2  20 -14   19.20   14.10
   2  20  14  -23.10   15.30
 -20  16   2  465.45   48.70
  -2  20  16  490.25   46.10
  -2  20 -16  444.86   34.60
   2  20  16  481.25   46.00
 -20  16  -2  447.86   45.70
 -20  18   2  101.29   29.60
  -2  20  18   40.20   20.80
  -2  20 -18   51.39   16.30
 -20  18  -2   92.09   28.10
   2  20  18   47.20   23.80
  -4  20   0  647.84   45.30
   0   4  20  637.74   34.40
   2   4 -20  167.28   11.10
  -2   4  20  133.59   17.50
  -4  20   2  133.29   25.40
  -4  20  -2  158.78   26.40
   2   4  20  129.79   15.70
   4   4 -20  169.38   15.20
  -4  20   4  157.88   26.00
  -4   4  20  197.58   21.00
  -4  20  -4  171.78   26.90
   4   4  20  200.18   18.10
  -6   4  20   46.20   14.50
   6   4 -20   69.39   12.60
  -4  20   6   39.50   22.10
  -4  20  -6   37.90   18.40
   6   4  20   56.69   11.70
  -8   4  20   19.00   13.50
  -4  20   8    1.90   19.50
 -20   8   4  -11.00   16.10
  -4  20  -8   30.40   16.50
  -4  20  10    2.30   16.60
  10  -4  20    4.80    6.30
 -20  10   4   10.40   18.50
 -10   4  20    3.10   13.30
 -20  10  -4   -7.90   16.50
  -4  20 -10   -9.70   14.00
 -12   4  20  128.99   23.60
  12  -4  20  178.98   15.90
 -20  12   4  242.18   33.30
  -4  20  12  185.98   31.70
 -20  12  -4  120.39   25.00
  -4  20 -12  179.38   24.10
 -20  14   4    7.30   19.80
 -14   4  20    7.20   15.40
  -4  20  14   31.30   21.20
  -4  20 -14   13.80   13.90
 -20  14  -4  -17.50   17.60
   4  20  14   15.70   18.40
 -20  16   4  102.99   28.80
  -4  20  16   73.49   25.70
  -4  20 -16   82.89   18.00
 -20  16  -4   65.69   22.90
   4  20  16   68.99   21.10
 -20  18   4   30.20   22.50
  -4  20  18   44.80   21.70
   4  20  18   34.50   23.40
  -4  20 -18   26.50   14.90
 -20  18  -4   55.59   24.70
   0   6  20    0.00   10.30
  -6  20   0   -1.90   15.40
  -6  20   2 1176.68   64.79
   2   6 -20 1105.39   43.80
  -2   6  20 1169.38   54.89
   2   6  20 1135.39   52.69
  -6  20  -2 1133.19   62.89
  -6  20   4   55.29   21.20
   4   6 -20   48.30   10.00
  -4   6  20   60.99   15.80
   4   6  20   52.09   13.30
  -6  20  -4   30.00   18.50
   6   6 -20 4896.01  181.68
  -6   6  20 4933.71  189.18
  -6  20   6 4806.52  197.78
   6   6  20 5067.79  184.28
  -6  20  -6 4748.02  193.38
 -20   8   6    0.80   17.60
  -8   6  20   22.10   15.00
  -6  20   8   33.20   19.50
  -6  20  -8   18.70   15.90
  10  -6  20 1145.49   45.40
  -6  20  10 1177.08   67.79
 -10   6  20 1229.38   61.79
 -20  10   6 1085.09   66.69
 -20  10  -6 1179.98   63.59
  -6  20 -10 1081.29   59.89
 -12   6  20   20.50   16.80
 -20  12   6   12.00   19.30
  -6  20  12    9.20   18.10
  12  -6  20   -6.40    7.10
  -6  20 -12  -21.90   12.40
 -20  12  -6    4.60   17.80
 -14   6  20  263.87   32.30
  -6  20  14  282.07   36.40
 -20  14   6  306.77   40.70
  -6  20 -14  201.08   26.20
 -20  14  -6  236.08   31.90
 -20  16   6   -8.00   18.70
  -6  20  16    7.80   21.30
 -16   6  20   36.80   19.60
  -6  20 -16    4.60   14.00
 -20  16  -6   20.60   18.60
 -18   6  20  302.57   35.70
 -20  18   6  295.77   40.80
  -6  20  18  272.47   37.40
 -20  18  -6  301.87   38.60
   6  20  18  280.97   37.30
  -6  20 -18  301.37   29.10
   0   8  20  237.38   24.70
  -8  20   0  241.78   31.60
  -2   8  20   19.90   13.30
   2   8 -20   16.90    6.40
  -8  20   2  -19.30   15.20
  -8  20  -2    7.20   18.90
   2   8  20   -2.50   11.10
   4   8 -20   16.40    8.40
  -8  20   4   29.20   20.20
  -4   8  20   42.10   15.30
  -8  20  -4   35.90   19.10
   4   8  20   16.90   12.10
 -20   6   8   38.50   19.30
  -6   8  20   23.70   15.60
   6   8 -20   56.49   12.40
  -8  20   6    6.20   18.30
  -8  20  -6   60.39   19.00
   6   8  20   39.70   14.20
  -8   8  20 1027.30   57.19
 -20   8   8 1016.50   63.29
  -8  20   8 1080.19   64.79
  -8  20  -8 1035.30   58.09
 -20  10   8    1.60   19.00
 -10   8  20    7.90   15.90
  -8  20  10   24.00   19.40
  10  -8  20   22.80    6.70
  -8  20 -10   30.00   16.50
 -20  12   8  609.24   53.79
  -8  20  12  577.64   47.70
 -12   8  20  605.84   44.60
 -20  12  -8  509.55   43.70
  -8  20 -12  607.54   41.50
 -20  14   8   38.70   21.60
 -14   8  20    2.80   17.10
  -8  20  14    8.90   19.20
  -8  20 -14   -1.10   14.80
 -20  14  -8    3.60   18.20
 -20  16   8  165.48   33.40
 -16   8  20  187.48   30.50
  -8  20  16  125.59   31.20
 -20  16  -8  188.38   30.90
  -8  20 -16  137.59   22.30
  -8  20  18   69.09   27.40
 -20  18   8   41.70   24.60
 -18   8  20   53.99   23.80
 -20  18  -8   34.90   23.50
  -8  20 -18   19.20   15.00
   0  10 -20   -1.50    4.50
 -10  20   0   -4.80   16.40
   0  10  20    6.00   13.10
  -2  10  20  443.26   33.80
 -10  20   2  430.46   42.30
 -10  20  -2  393.46   38.80
   2  10  20  383.76   30.80
 -10  20   4   -5.60   16.90
  -4  10  20    7.20   14.70
   4  10  20    0.10   12.80
 -10  20  -4  -11.20   15.30
 -10  20   6 1127.89   67.19
 -20   6  10 1140.69   65.79
  -6  10  20 1119.99   60.99
   6  10  20 1189.68   57.79
 -10  20  -6 1007.70   61.29
 -20   8  10   19.10   18.20
 -10  20   8   67.49   22.70
  -8  10  20   41.70   17.90
 -10  20  -8   14.80   17.90
 -20  10  10  145.59   28.30
 -10  10  20  157.98   27.30
 -10  20  10  118.69   27.40
 -10  20 -10  129.99   25.00
 -12  10  20  206.38   30.50
 -20  12  10  253.37   37.20
 -10  20  12  185.78   33.00
 -10  20 -12  214.58   28.40
 -20  12 -10  209.88   29.10
 -14  10  20  340.97   39.50
 -10  20  14  399.86   43.90
 -20  14  10  315.87   41.80
 -20  14 -10  369.06   37.70
 -10  20 -14  318.37   33.20
 -16  10  20  237.48   35.50
 -20  16  10  168.58   32.40
 -10  20  16  218.28   37.00
 -20  16 -10  208.38   31.00
 -10  20 -16  221.78   27.60
 -18  10  20  318.77   38.90
 -20  18  10  281.27   41.90
 -10  20  18  232.58   36.00
 -20  18 -10  272.67   36.20
 -10  20 -18  247.48   28.10
 -12  20   0   19.30   19.30
   0  12 -20   33.80    7.80
   0  12  20   -1.20   14.10
  -2  12  20  248.78   28.40
 -12  20   2  229.28   34.00
 -12  20  -2  271.67   35.50
  -2  12 -20  230.38   15.00
   2  12  20  206.48   26.20
  -4  12  20  204.68   28.20
 -12  20   4  164.98   30.00
   4  12  20  178.58   24.30
 -12  20  -4  164.78   27.70
  -4  12 -20  188.98   12.60
 -12  20   6  -17.20   19.30
  -6  12  20  -12.70   15.30
 -20   6  12   -9.10   15.70
 -12  20  -6   -4.50   15.30
  -6  12 -20    1.50    6.00
   6  12  20  -18.10   13.10
  -8  12  20  555.14   44.40
 -12  20   8  603.94   52.89
 -20   8  12  462.45   46.30
 -12  20  -8  566.04   44.60
 -10  12  20  168.28   26.70
 -12  20  10  187.08   34.60
 -20  10  12  194.88   33.90
 -12  20 -10  184.68   27.70
 -12  20  12  260.17   37.70
 -20  12  12  316.87   40.10
 -12  12  20  311.87   38.90
 -12  20 -12  361.96   36.20
 -12  20  14   50.89   25.60
 -14  12  20   63.89   24.60
 -20  14  12   36.00   22.70
 -20  14 -12   41.80   19.60
 -12  20 -14   45.60   19.30
 -16  12  20  130.79   30.00
 -12  20  16  225.58   36.90
 -20  16  12  192.28   36.10
 -20  16 -12   89.79   24.30
 -12  20 -16  136.69   24.20
 -20  18  12  -10.90   21.20
 -18  12  20  -16.50   21.40
 -12  20  18   20.40   21.80
 -20  18 -12   21.40   20.50
 -12  20 -18   39.30   16.40
   0  14  20   -1.70   15.70
   0  14 -20    4.20    8.30
 -14  20   0   13.40   21.60
 -14  20   2   -4.10   16.70
  -2  14  20   -7.60   15.30
 -14  20  -2    6.00   20.00
   2  14  20  -11.80   14.00
  -2  14 -20    6.20    7.80
  -4  14  20  -15.20   14.90
 -14  20   4   18.90   22.80
 -14  20  -4   33.50   21.10
  -4  14 -20    6.50    8.40
   4  14  20    1.40   15.20
 -20   6  14  257.57   35.40
  -6  14  20  217.58   29.90
 -14  20   6  227.78   34.80
   6  14  20  262.07   30.90
 -14  20  -6  235.28   34.40
  -6  14 -20  217.88   18.00
 -20   8  14    2.40   21.00
  -8  14  20   20.90   19.00
 -14  20   8    5.80   19.80
 -14  20  -8   24.00   18.90
  -8  14 -20   12.10    9.10
 -10  14  20  325.77   37.40
 -20  10  14  357.96   41.00
 -14  20  10  288.17   40.50
 -10  14 -20  339.37   23.90
 -14  20 -10  339.17   36.80
 -20  12  14   55.69   26.70
 -14  20  12   29.80   22.80
 -12  14  20   61.89   24.70
 -14  20 -12   25.30   19.00
 -14  20  14  227.28   38.60
 -20  14  14  331.07   44.40
 -14  14  20  281.97   38.10
 -14  20 -14  245.28   31.50
 -16  14  20   99.09   28.50
 -20  16  14  101.19   30.50
 -14  20  16  132.49   32.60
 -14  20 -16   98.19   22.60
 -20  16 -14  138.29   26.00
 -18  14  20  175.48   35.40
 -20  18  14  172.48   34.20
 -14  20  18  153.58   36.10
 -14  20 -18  108.19   23.30
 -20  18 -14  152.48   27.80
   0  16 -20  180.18   18.30
 -16  20   0  178.08   31.00
   0  16  20  130.99   26.90
  -2  16  20  398.66   38.90
 -16  20   2  458.55   47.10
   2  16  20  383.96   38.80
 -16  20  -2  435.96   44.20
  -2  16 -20  486.85   28.10
  -4  16  20   66.39   22.20
 -16  20   4   63.79   26.40
 -16  20  -4   53.09   21.70
   4  16  20   70.09   22.50
  -4  16 -20   47.70   12.20
  -6  16  20  -21.70   15.70
 -16  20   6   -8.80   20.20
  -6  16 -20   -9.90    9.10
   6  16  20    6.20   17.50
 -16  20  -6    2.30   17.70
 -20   8  16  185.48   32.50
  -8  16  20  190.58   30.50
 -16  20   8  147.49   31.70
  -8  16 -20  194.98   19.10
 -16  20  -8  126.39   26.60
 -20  10  16  202.18   33.40
 -16  20  10  236.58   36.80
 -10  16  20  226.38   33.50
 -16  20 -10  223.88   32.60
 -10  16 -20  214.88   21.30
 -12  16  20  134.29   30.70
 -20  12  16  130.19   32.70
 -16  20  12   68.29   28.10
 -16  20 -12  213.88   29.10
 -12  16 -20  170.38   20.60
 -20  14  16   95.99   32.30
 -14  16  20   76.79   25.70
 -16  20  14  105.39   31.40
 -14  16 -20   54.49   17.00
 -16  20 -14  101.59   24.50
 -16  20  16   16.20   21.60
 -16  16  20  -20.40   20.20
 -20  16  16   39.90   26.60
 -16  20 -16   33.10   18.80
 -16  20  18  -18.10   20.50
 -18  16  20   -2.00   21.30
 -20  18  16   18.80   23.90
 -20  18 -16    1.40   17.90
 -16  20 -18   -0.80   15.90
   0  18  20    4.30   19.00
 -18  20   0    5.60   19.90
   0  18 -20   -1.90   10.70
  -2  18  20  107.69   24.10
 -18  20   2   41.60   23.70
  -2  18 -20   82.59   15.20
   2  18  20   67.09   21.40
 -18  20  -2   57.89   26.10
  -4  18  20  -17.70   17.50
 -18  20   4   28.30   23.20
 -18  20  -4   73.79   26.30
   4  18  20   97.79   24.40
  -4  18 -20   48.80   13.70
  -6  18  20  365.06   41.80
 -18  20   6  298.47   42.40
 -18  20  -6  272.67   36.30
   6  18  20  283.37   35.50
  -6  18 -20  333.87   26.60
 -20   8  18   40.20   24.50
  -8  18  20   23.70   24.20
 -18  20   8   59.99   28.60
  -8  18 -20   31.70   13.70
 -18  20  -8   61.09   22.80
 -10  18  20  294.17   38.60
 -18  20  10  269.47   39.90
 -20  10  18  243.38   38.30
 -10  18 -20  243.68   24.90
 -18  20 -10  252.27   35.00
 -20  12  18   -3.10   20.10
 -18  20  12   15.90   22.30
 -12  18  20  -12.20   18.60
 -12  18 -20   15.40   18.40
 -18  20 -12   17.70   19.60
 -14  18  20  171.88   35.30
 -20  14  18   62.69   26.20
 -18  20  14   60.29   28.50
 -18  20 -14  177.18   28.70
 -16  18  20   21.50   24.30
 -18  20  16   -6.70   22.20
 -20  16  18   24.70   24.50
 -18  20 -16  -23.70   17.00
 -18  20  18   84.59   31.30
 -20  18  18   54.89   30.90
 -18  18  20   90.09   31.70
 -18  20 -18   60.89   21.50
 -20  18 -18   21.70   18.40
 -20  20   0  -11.90   20.00
   0  20 -20   21.10   13.30
   0  20  20    7.10   20.60
   2  20 -20   38.60   15.10
 -20  20   2   41.70   23.60
  -2  20  20   15.70   20.10
  -2  20 -20   54.59   15.40
 -20  20  -2  -21.10   19.10
   2  20  20   57.49   22.70
  -4  20  20  -10.90   20.50
 -20  20   4   34.20   24.70
  -4  20 -20   16.30   13.10
 -20  20  -4   62.99   24.40
   4  20  20  -12.90   20.40
  -6  20  20   30.70   23.90
 -20  20   6   25.90   23.70
  -6  20 -20   30.30   14.50
 -20  20  -6   31.10   23.90
   6  20  20    5.60   21.00
 -20   8  20 1163.38   76.29
  -8  20  20 1406.06   83.09
 -20  20   8 1437.66   86.79
  -8  20 -20 1525.25   69.09
 -20  20  -8 1514.25   81.89
 -20  10  20   -0.40   18.90
 -10  20  20   36.70   25.60
 -20  20  10   94.89   30.30
 -20  20 -10   32.00   22.30
 -20  12  20 1198.18   75.59
 -12  20  20 1106.09   76.09
 -20  20  12 1026.40   74.49
 -20  20 -12 1133.69   68.39
 -20  14  20   14.80   23.70
 -14  20  20   56.29   26.50
 -20  20  14   16.50   23.70
 -20  20 -14  -14.70   18.90
 -20  16  20  117.09   34.60
 -16  20  20  136.29   33.60
 -20  20  16  174.08   37.00
 -20  20 -16  112.79   26.40
 -20  18  20    2.40   23.40
 -18  20  20   18.40   23.70
 -20  20  18   10.40   28.90
 -20  20 -18    0.20   21.30
 -20  20  20 1894.51  109.09
  -1   1  21  106.19   12.60
  -1  21   1   93.19   24.00
  -1  21  -1  120.49   25.40
   1   1  21  103.29   11.30
   3   1 -21  461.25   25.00
  -1  21   3  492.35   40.90
  -3   1  21  513.25   28.00
   3   1  21  476.25   23.70
   1  21   3  451.35   42.50
   3  -1 -21  480.75   26.90
  -1  21  -3  472.05   38.90
  -5   1  21    8.40   10.00
   5   1 -21    5.30    9.00
  -1  21   5    0.40   15.90
  -1  21  -5    4.20   16.40
   1  21   5  -22.40   14.30
   5   1  21    3.10    6.30
   7  -1  21  423.06   18.40
   7  -1  21  373.66   18.20
  -1  21   7  443.96   41.80
  -1  21  -7  386.66   35.80
   7   1  21  415.26   22.10
   1  21   7  408.36   40.80
  -1  21   9    8.40   20.20
   9  -1  21    8.40    6.60
 -21   9   1    5.90   17.90
   1  21   9   10.30   20.10
  -1  21  -9   -5.10   14.20
 -21   9  -1  -12.80   15.60
  11  -1  21   10.80    8.20
 -21  11   1   -4.60   16.50
  -1  21  11   -6.80   16.60
   1  21  11   -7.10   19.40
  -1  21 -11   11.10   14.90
 -21  11  -1   16.10   18.50
  -1  21  13  -18.00   16.30
 -21  13   1   17.40   19.70
  -1  21 -13   -2.50   13.60
   1  21  13   10.20   18.50
 -21  13  -1   15.70   18.40
 -21  15   1   44.60   23.90
   1  21 -15  108.99   20.70
  -1  21  15  129.09   28.10
  -1  21 -15  114.39   20.00
 -21  15  -1  109.39   29.00
   1  21  15  162.68   29.80
 -21  17   1   12.50   20.50
  -1  21  17    7.50   18.50
   1  21 -17   -3.60   13.10
   1  21  17    6.50   20.50
  -1  21 -17   19.80   14.00
 -21  17  -1    1.70   19.30
   1  21 -19   40.20   16.20
 -21  19   1   20.60   25.30
  -1  21  19   46.50   22.30
 -21  19  -1   42.20   24.30
  -1  21 -19   42.50   15.80
   1  21  19   35.90   23.00
  -1   3  21  545.65   29.30
  -3  21   1  500.95   40.80
   1   3  21  472.65   27.60
  -3  21  -1  421.66   39.60
  -3   3  21   21.90   10.40
   3   3 -21   27.60    7.40
  -3  21   3   48.10   18.80
  -3  21  -3  -12.60   15.80
   3   3  21   23.40    9.30
  -5   3  21  996.80   48.50
  -3  21   5 1019.20   60.79
   5   3 -21  984.90   43.80
   5   3  21  986.10   43.40
  -3  21  -5  845.92   53.99
  -3  21   7  517.25   42.80
  -7   3  21  513.45   33.10
   7   3  21  444.96   26.70
  -3  21  -7  484.35   41.30
  -3  21   9  408.26   41.90
  -9   3  21  346.47   30.70
 -21   9   3  217.68   32.80
   9  -3  21  310.27   15.70
  -3  21  -9  315.37   32.30
 -21   9  -3  312.47   34.60
  11  -3  21  250.77   17.50
  -3  21  11  292.07   36.30
 -21  11   3  236.68   34.00
 -11   3  21  230.48   27.20
 -21  11  -3  238.58   32.30
   3  21  11  271.77   35.30
  -3  21 -11  223.78   28.40
 -21  13   3   55.69   24.50
  -3  21  13   15.40   19.50
  -3  21 -13   21.20   14.20
   3  21  13  -16.50   18.50
 -21  13  -3    5.90   20.20
 -21  15   3   11.60   22.60
  -3  21  15   20.40   20.30
  -3  21 -15  -10.80   13.40
 -21  15  -3   -2.30   17.80
   3  21  15    0.30   20.20
  -3  21  17   95.89   25.90
 -21  17   3   91.79   27.80
  -3  21 -17  125.19   20.60
   3  21  17  108.89   27.50
 -21  17  -3  109.89   28.70
 -21  19   3    3.40   24.00
  -3  21  19   39.50   21.60
   3  21  19   15.70   21.70
  -3  21 -19    7.00   13.70
 -21  19  -3   19.40   21.60
  -5  21   1   30.60   18.60
  -1   5  21    5.40   10.60
  -5  21  -1    0.50   17.60
   1   5  21   -2.20    9.40
  -3   5  21  981.60   48.90
  -5  21   3 1014.80   60.39
   3   5 -21  996.70   40.60
  -5  21  -3 1058.99   60.49
   3   5  21  952.70   46.40
   5   5 -21 1229.58   53.29
  -5   5  21 1303.97   60.29
  -5  21   5 1206.88   69.69
  -5  21  -5 1226.98   66.29
   5   5  21 1276.57   55.89
  -5  21   7  820.62   58.49
  -7   5  21  910.61   49.00
   7   5 -21  875.91   46.30
 -21   7   5  887.01   56.89
  -5  21  -7  931.21   54.99
 -21   9   5 1131.69   68.09
  -5  21   9 1039.10   65.99
  -9   5  21 1058.89   56.29
  -5  21  -9 1059.19   59.39
 -11   5  21   15.90   15.50
  11  -5  21    2.70    9.80
 -21  11   5  -10.30   16.90
  -5  21  11   31.00   19.00
 -21  11  -5    4.80   16.50
  -5  21 -11   14.00   15.90
  -5  21  13   48.00   22.10
 -13   5  21   39.80   16.90
 -21  13   5   32.00   24.30
 -21  13  -5   28.80   21.00
  -5  21 -13   28.10   15.60
 -21  15   5  197.58   35.50
  -5  21  15  178.58   31.30
 -15   5  21  172.08   27.80
   5  21  15  165.68   32.20
  -5  21 -15  122.79   22.10
 -21  15  -5  169.38   31.00
  -5  21  17  120.49   27.70
 -21  17   5  144.49   33.40
   5  21  17  195.18   31.30
 -21  17  -5  167.58   31.70
  -5  21 -17  140.99   22.40
 -21  19   5  -32.50   19.10
  -5  21  19   -8.70   21.20
   5  21  19    9.20   22.40
  -5  21 -19    3.80   13.80
 -21  19  -5    4.40   21.10
  -1   7  21  397.56   30.00
  -7  21   1  366.66   38.20
  -7  21  -1  374.86   38.10
   1   7  21  389.36   29.00
   3   7 -21  422.26   22.20
  -7  21   3  506.65   45.70
  -3   7  21  534.95   34.80
  -7  21  -3  488.85   43.80
   3   7  21  408.46   30.10
   5   7 -21  847.82   40.50
  -7  21   5  814.32   58.19
  -5   7  21  870.91   48.20
   5   7  21  982.70   46.60
  -7  21  -5  924.41   56.09
 -21   7   7 1852.31   92.89
  -7  21   7 1816.42   93.29
  -7   7  21 1872.21   85.69
  -7  21  -7 1994.10   90.59
  -7  21   9    1.60   18.40
 -21   9   7   30.30   19.40
  -9   7  21   16.30   15.40
  -7  21  -9   10.20   16.10
 -11   7  21  516.05   41.70
 -21  11   7  474.15   49.20
  -7  21  11  492.15   47.50
  -7  21 -11  524.35   39.90
 -21  11  -7  549.54   41.90
  -7  21  13  191.78   34.40
 -13   7  21  175.08   28.80
 -21  13   7  244.68   35.30
 -21  13  -7  223.88   30.60
  -7  21 -13  205.38   26.90
 -21  15   7   77.39   26.40
 -15   7  21  171.18   28.00
  -7  21  15   62.39   24.00
  -7  21 -15  150.88   23.50
 -21  15  -7  133.69   26.90
 -21  17   7   11.60   22.10
  -7  21  17   11.60   20.40
 -17   7  21   30.00   20.10
 -21  17  -7   24.30   22.40
  -7  21 -17   20.60   15.60
  -7  21  19  524.55   52.39
 -19   7  21  506.35   49.99
 -21  19   7  555.54   58.09
 -21  19  -7  523.35   50.09
   7  21  19  494.95   50.09
  -7  21 -19  555.64   38.90
  -1   9  21    2.80   12.70
  -9  21   1   36.00   19.00
   1   9  21    0.00   12.50
  -9  21  -1   33.40   18.50
  -9  21   3  285.27   35.50
   3   9 -21  283.37   18.90
  -3   9  21  361.16   32.00
  -9  21  -3  295.77   36.40
   3   9  21  299.67   27.70
  -5   9  21 1023.50   56.19
  -9  21   5 1091.79   66.69
   5   9 -21  995.90   46.20
  -9  21  -5 1017.30   59.89
   5   9  21 1059.09   52.79
  -7   9  21   49.90   17.20
  -9  21   7   -0.60   20.60
 -21   7   9  -18.00   16.50
  -9  21  -7  -20.80   16.20
  -9  21   9 1170.18   69.09
 -21   9   9  988.00   66.49
  -9   9  21 1148.59   62.99
  -9  21  -9 1192.78   64.29
  -9  21  11   50.79   25.40
 -21  11   9   58.99   23.50
 -11   9  21   54.49   20.30
  -9  21 -11   79.99   21.30
 -21  13   9    7.00   20.00
 -13   9  21    6.40   17.50
  -9  21  13   16.50   22.60
 -21  13  -9    9.80   18.20
  -9  21 -13   25.00   16.60
  -9  21  15  -20.70   20.40
 -21  15   9   16.40   21.80
 -15   9  21   -9.40   18.80
 -21  15  -9   35.70   21.10
  -9  21 -15   24.10   17.30
 -17   9  21  403.66   44.80
 -21  17   9  505.15   52.39
  -9  21  17  412.06   46.90
 -21  17  -9  439.36   44.40
  -9  21 -17  434.16   35.90
 -21  19   9  211.68   38.80
 -19   9  21  285.17   40.20
  -9  21  19  249.28   37.80
  -9  21 -19  300.07   30.40
 -21  19  -9  269.77   37.50
   1  11 -21    7.50    6.20
 -11  21   1    2.60   18.50
  -1  11  21   16.50   15.00
 -11  21  -1   23.70   20.40
   1  11  21   20.10   14.50
  -3  11  21  253.57   29.40
 -11  21   3  180.58   31.50
 -11  21  -3  246.68   34.60
   3  11  21  276.37   28.20
  -5  11  21    4.40   15.40
 -11  21   5   12.50   19.70
   5  11  21  -23.30   11.10
 -11  21  -5    3.30   16.20
  -7  11  21  505.05   40.60
 -11  21   7  439.26   45.70
 -21   7  11  491.65   46.30
 -11  21  -7  407.36   39.90
 -11  21   9   77.89   25.60
 -21   9  11   73.29   24.60
  -9  11  21   49.70   20.20
 -11  21  -9   77.79   22.10
 -11  21  11   42.60   25.20
 -21  11  11   61.69   23.90
 -11  11  21   24.50   20.00
 -11  21 -11   84.19   22.60
 -11  21  13  246.38   37.80
 -13  11  21  319.27   38.10
 -21  13  11  304.67   41.00
 -11  21 -13  277.47   32.30
 -11  21  15  279.37   39.50
 -15  11  21  272.07   37.20
 -21  15  11  251.57   39.20
 -11  21 -15  321.07   34.20
 -21  15 -11  320.27   36.60
 -11  21  17  -16.10   23.00
 -21  17  11   53.69   25.00
 -17  11  21    0.80   22.00
 -21  17 -11  -16.90   17.90
 -11  21 -17   -8.60   14.90
 -21  19  11  647.44   61.49
 -11  21  19  729.23   57.09
 -19  11  21  657.43   59.09
 -21  19 -11  671.93   52.89
 -11  21 -19  630.14   43.80
  -1  13  21   21.50   16.40
 -13  21   1   31.70   21.00
   1  13 -21   20.50    8.50
  -1  13 -21   24.50    7.60
 -13  21  -1   28.80   22.60
   1  13  21   -0.80   15.40
 -13  21   3   26.60   23.40
  -3  13  21   33.10   16.70
   3  13  21   17.20   16.40
 -13  21  -3    3.90   17.90
  -3  13 -21   15.10    6.60
  -5  13  21   41.40   19.60
 -13  21   5    4.60   22.40
  -5  13 -21   26.70    7.00
   5  13  21   13.80   15.10
 -13  21  -5   29.90   21.30
  -7  13  21  194.78   29.50
 -13  21   7  134.49   29.80
 -21   7  13  209.68   32.30
 -13  21  -7  215.18   32.40
 -13  21   9   -9.80   19.80
 -21   9  13   35.60   24.00
  -9  13  21   10.50   17.00
 -13  21  -9   32.70   20.30
 -11  13  21  284.67   36.20
 -13  21  11  292.17   39.70
 -21  11  13  328.97   42.40
 -13  21 -11  270.97   33.80
 -13  13  21  -10.10   19.00
 -13  21  13  -23.30   20.90
 -21  13  13    8.20   21.60
 -13  21 -13  -11.00   17.00
 -21  15  13   11.80   22.70
 -13  21  15   57.89   26.10
 -15  13  21   33.50   22.00
 -21  15 -13   13.20   18.40
 -13  21 -15   22.30   18.70
 -21  17  13  155.58   34.30
 -13  21  17  202.38   35.70
 -17  13  21  164.18   31.80
 -13  21 -17  156.28   26.60
 -21  17 -13  132.29   27.30
 -21  19  13   70.79   29.10
 -19  13  21   46.30   28.60
 -13  21  19   50.79   28.80
 -13  21 -19   98.09   24.20
 -21  19 -13   70.19   23.80
 -15  21   1  101.29   26.60
   1  15 -21   95.39   14.10
  -1  15  21   90.79   23.20
   1  15  21  106.09   23.10
  -1  15 -21  114.19   13.90
 -15  21  -1  126.89   28.80
  -3  15  21    5.30   15.20
 -15  21   3   19.20   23.20
 -15  21  -3   14.20   21.80
  -3  15 -21    4.80    8.70
   3  15  21   23.70   17.30
 -15  21   5  224.28   37.00
  -5  15  21  178.48   28.20
 -15  21  -5  204.98   32.60
   5  15  21  150.58   26.20
  -5  15 -21  200.98   16.70
 -21   7  15  168.18   31.50
  -7  15  21  133.19   27.90
 -15  21   7  122.39   29.50
  -7  15 -21  120.29   14.40
 -15  21  -7  113.29   28.00
   7  15  21  182.48   26.60
 -21   9  15   44.50   21.80
 -15  21   9    3.90   20.60
  -9  15  21   15.60   19.50
  -9  15 -21    0.70   14.10
 -15  21  -9    9.40   19.30
 -15  21  11  300.87   41.90
 -11  15  21  234.48   34.10
 -21  11  15  278.37   39.80
 -15  21 -11  300.27   35.50
 -13  15  21   35.40   22.10
 -21  13  15   67.39   26.60
 -15  21  13    9.20   24.40
 -15  21 -13   -1.50   17.40
 -21  15  15  110.19   32.90
 -15  15  21  166.28   33.30
 -15  21  15  139.39   32.90
 -15  21 -15  107.19   24.40
 -17  15  21   46.20   27.20
 -15  21  17   12.50   23.50
 -21  17  15   22.60   24.60
 -21  17 -15   41.00   20.40
 -15  21 -17   16.10   18.20
 -15  21  19   30.30   25.10
 -21  19  15    0.70   22.40
 -19  15  21  -31.00   18.80
 -21  19 -15  -16.50   19.10
   1  17 -21    5.10   10.60
 -17  21   1   -4.10   19.30
  -1  17  21   14.50   19.60
 -17  21  -1   -1.20   18.60
   1  17  21    7.00   18.30
  -1  17 -21  -24.30    8.60
 -17  21   3  109.19   28.50
  -3  17  21  148.09   28.30
 -17  21  -3  125.29   30.20
   3  17  21  150.38   27.90
  -3  17 -21   97.79   14.70
 -17  21   5  149.99   32.10
  -5  17  21  180.98   31.70
 -17  21  -5  133.49   29.50
   5  17  21  172.18   28.40
  -5  17 -21  138.39   17.10
 -21   7  17   14.20   22.00
 -17  21   7  -31.90   19.00
  -7  17  21   42.60   24.30
   7  17  21   11.40   20.10
 -17  21  -7   35.40   21.10
 -17  21   9  383.66   45.50
 -21   9  17  416.46   45.70
  -9  17  21  456.05   47.20
 -17  21  -9  437.16   43.70
 -17  21  11   24.80   23.40
 -21  11  17   39.80   25.40
 -11  17  21   -5.20   22.60
 -17  21 -11  -24.80   16.70
 -17  21  13  189.48   35.70
 -13  17  21  165.78   34.20
 -21  13  17  149.88   33.90
 -17  21 -13  203.88   30.00
 -15  17  21   53.19   28.30
 -21  15  17   43.00   25.50
 -17  21  15   55.39   27.90
 -17  21 -15   14.70   19.50
 -21  17  17   18.60   25.80
 -17  17  21  -15.20   23.70
 -17  21  17  -37.50   19.50
 -17  21 -17   20.70   17.80
 -19  17  21  186.18   36.70
 -17  21  19  232.28   39.70
 -21  19  17  213.58   40.00
 -21  19 -17  194.78   31.60
 -19  21   1   -5.20   21.90
   1  19 -21   37.00   13.50
  -1  19  21   52.29   20.80
   1  19  21   26.20   19.50
 -19  21  -1   39.10   23.70
  -1  19 -21   25.00   13.30
 -19  21   3   -2.90   21.10
  -3  19  21  -13.00   17.80
   3  19  21  -10.70   18.20
  -3  19 -21   31.00   12.90
 -19  21  -3  -10.90   20.80
  -5  19  21   12.50   19.90
 -19  21   5  -16.00   23.50
 -19  21  -5   17.20   21.90
   5  19  21  -10.70   15.90
  -7  19  21  519.95   52.59
 -19  21   7  581.44   59.69
 -19  21  -7  611.34   54.89
   7  19  21  541.25   50.09
 -19  21   9  304.57   45.10
 -21   9  19  312.57   42.40
  -9  19  21  344.57   43.30
 -19  21  -9  245.08   37.00
 -21  11  19  637.74   59.89
 -19  21  11  735.93   67.09
 -11  19  21  731.93   59.89
 -19  21 -11  693.23   53.49
 -19  21  13   35.60   27.50
 -13  19  21   81.39   30.50
 -21  13  19  123.69   32.30
 -19  21 -13   87.19   25.40
 -21  15  19  -26.30   22.10
 -19  21  15   -4.10   24.90
 -15  19  21   15.00   25.70
 -19  21 -15  -27.50   18.00
 -17  19  21  165.78   37.70
 -19  21  17  272.77   44.30
 -21  17  19  219.08   42.00
 -19  21 -17  119.19   27.50
 -21  19  19  410.16   53.29
 -19  19  21  273.67   43.70
 -19  21  19  342.27   50.79
   1  21 -21    2.10   13.30
 -21  21   1   10.10   24.70
  -1  21  21  -15.30   20.10
  -1  21 -21   -6.00   14.20
 -21  21  -1  -13.50   21.80
   1  21  21    6.10   22.40
  -3  21  21   61.19   27.00
 -21  21   3   42.10   29.00
 -21  21  -3   53.69   28.80
   3  21  21   60.49   25.90
  -5  21  21   54.59   24.60
 -21  21   5   63.39   26.60
 -21  21  -5   38.80   26.40
   5  21  21   39.80   22.80
  -7  21  21  119.39   29.80
 -21  21   7  178.18   36.80
 -21  21  -7  168.28   33.50
   7  21  21  146.79   31.00
 -21   9  21  575.44   53.99
  -9  21  21  433.86   49.20
 -21  21   9  499.15   55.59
 -21  21  -9  582.34   53.19
 -21  11  21  293.77   43.80
 -11  21  21  263.17   42.10
 -21  21  11  325.07   46.40
 -21  21 -11  305.57   39.40
 -21  13  21  231.88   40.20
 -13  21  21  310.77   42.90
 -21  21  13  224.28   40.70
 -21  21 -13  309.57   38.80
 -21  15  21   30.90   25.10
 -15  21  21   11.30   23.60
 -21  21  15  -22.20   23.80
 -21  21 -15   15.90   21.10
 -21  17  21   76.89   33.20
 -17  21  21   39.10   27.80
 -21  21  17   80.29   33.90
 -21  21 -17   84.29   24.80
 -21  19  21  544.85   60.49
 -21  21  19  589.54   61.99
 -19  21  21  478.75   59.49
 -21  21  21  674.53   70.09
   0  22   0    3.80   18.20
   0  22  -2    2.40   17.70
   0  22   2   21.60   16.70
   2   0  22    3.20    5.00
   0  22  -4  -24.20   13.20
   0  22   4  -19.00   18.20
   4   0 -22    1.20    8.80
   0  22  -6  -16.30   13.60
   0  22   6    6.10   19.50
   6   0  22    3.00    5.00
   0  22   8  -13.20   15.50
   8   0  22    6.80    6.30
   0  22  -8  -28.50   15.00
   0  22 -10   66.79   19.90
   0  22  10   44.40   22.80
 -22  10   0   48.70   20.70
   0  22  12  -17.00   19.90
 -22  12   0   11.70   18.20
   0  22 -12  -19.50   14.90
   0  22 -14  160.28   24.70
 -22  14   0  164.18   31.00
   0  22  14  160.18   31.00
   0  22  16   30.90   21.40
 -22  16   0  -27.20   20.60
   0  22 -16   -2.30   14.00
 -22  18   0   88.79   27.30
   0  22  18   89.29   26.20
   0  22 -18   69.69   18.80
   0  22 -20  -24.90   12.70
   0  22  20  -21.30   18.30
 -22  20   0   27.10   23.90
   0   2  22  -15.70    7.10
  -2  22   0   29.00   18.10
  -2  22   2  533.95   43.40
  -2   2  22  531.05   30.50
  -2  22  -2  650.33   46.80
   2   2  22  548.05   28.20
   4   2 -22    2.30    7.60
  -4   2  22    0.00   10.10
  -2  22   4    0.00   17.70
  -2  22  -4    9.00   17.80
   4   2  22    9.60    7.50
  -2  22   6  244.48   33.60
   6   2 -22  147.39   17.10
  -6   2  22  181.18   20.40
  -2  22  -6  169.48   27.10
   6   2  22  187.98   15.50
   2  22   6  201.68   30.50
  -8   2  22    5.10   12.40
  -2  22   8   -9.10   19.00
  -2  22  -8   -6.70   16.00
   2  22   8   18.60   19.50
  -2  22  10   20.80   19.30
  10  -2  22   -2.50   11.30
 -22  10   2   26.10   19.70
   2  22  10    4.30   18.00
  -2  22 -10    7.10   15.20
 -22  10  -2    1.30   19.30
 -22  12   2    5.20   19.20
  -2  22  12    3.50   18.30
  -2  22 -12    0.70   15.20
 -22  12  -2  -29.50   15.40
   2  22  12    1.50   20.70
 -22  14   2  149.29   32.00
  -2  22  14   97.89   26.90
 -22  14  -2  154.48   30.60
  -2  22 -14  105.89   21.80
   2  22  14  146.89   28.80
  -2  22  16   19.80   20.60
 -22  16   2   18.00   19.80
  -2  22 -16    3.10   15.00
   2  22  16   -4.10   20.40
 -22  16  -2  -40.30   17.90
 -22  18   2   82.59   27.60
   2  22 -18  105.49   21.10
  -2  22  18  128.29   30.30
   2  22  18  112.59   29.90
  -2  22 -18  114.99   21.00
 -22  18  -2  114.29   28.30
   2  22 -20    3.60   14.10
  -2  22  20   27.90   21.70
 -22  20   2   10.70   26.20
 -22  20  -2   14.20   24.70
  -2  22 -20  -12.40   13.00
   2  22  20  -10.70   21.70
  -4  22   0   -8.80   15.10
   0   4  22    2.90    9.80
  -2   4  22   -0.80   10.60
  -4  22   2    3.80   17.00
  -4  22  -2    3.30   16.30
   2   4  22   -1.00    9.30
   4   4 -22 2770.02  106.09
  -4  22   4 2869.81  126.59
  -4   4  22 2842.52  112.69
   4   4  22 2846.82  109.19
  -4  22  -4 2813.92  123.09
   6   4 -22   19.30    9.80
  -6   4  22   15.90   12.70
  -4  22   6   -7.50   19.50
   6   4  22  -13.30    8.40
  -4  22  -6    6.10   17.30
  -8   4  22 2781.42  113.79
  -4  22   8 2701.13  125.89
 -22   8   4 2902.61  125.89
  -4  22  -8 2661.63  119.19
 -10   4  22  -16.40   12.80
  -4  22  10   -1.30   20.10
 -22  10   4  -29.60   18.50
  -4  22 -10    9.00   15.90
  -4  22  12   63.49   23.80
 -22  12   4  117.09   29.90
 -12   4  22  111.99   22.40
 -22  12  -4   99.69   24.40
   4  22  12  156.38   31.70
  -4  22 -12   80.99   21.00
 -14   4  22    8.20   16.50
 -22  14   4   39.00   25.10
  -4  22  14   35.10   24.40
   4  22  14   21.70   20.80
  -4  22 -14   -4.60   14.70
 -22  14  -4    6.70   19.20
 -22  16   4  315.87   42.70
  -4  22  16  404.26   45.70
  -4  22 -16  406.26   33.70
 -22  16  -4  463.55   47.50
   4  22  16  389.56   43.30
  -4  22  18   46.90   24.40
 -22  18   4   92.09   28.20
 -22  18  -4   59.29   25.00
   4  22  18   75.79   24.40
  -4  22 -18   52.49   18.00
  -4  22  20  124.99   30.80
 -22  20   4   56.19   27.30
   4  22  20   54.89   26.30
  -4  22 -20   65.39   17.70
 -22  20  -4  115.09   31.00
  -6  22   0   -7.60   15.60
   0   6  22    9.10   11.00
  -2   6  22  153.78   20.30
  -6  22   2  252.67   35.20
   2   6  22  190.48   20.10
  -6  22  -2  175.48   28.40
  -4   6  22    7.40   12.30
   4   6 -22   -1.00    6.90
  -6  22   4   -9.70   18.80
   4   6  22    4.70   11.50
  -6  22  -4   -3.90   17.90
   6   6 -22  118.19   14.60
  -6   6  22  112.59   19.70
  -6  22   6   94.29   26.70
   6   6  22  126.89   17.00
  -6  22  -6  102.59   24.40
 -22   8   6   14.30   19.20
  -6  22   8   34.20   21.50
  -8   6  22   25.30   16.30
  -6  22  -8   -8.70   14.50
 -22  10   6  495.65   49.50
 -10   6  22  477.05   37.80
  -6  22  10  537.55   48.70
  -6  22 -10  451.15   40.20
 -12   6  22   43.10   18.70
  -6  22  12   29.20   21.00
 -22  12   6   37.30   21.50
  -6  22 -12   11.60   16.40
 -22  12  -6    0.00   18.50
  -6  22  14  137.69   31.40
 -22  14   6   86.19   29.30
 -14   6  22  101.79   23.50
 -22  14  -6   93.69   25.00
  -6  22 -14  132.59   24.00
  -6  22  16   33.10   22.00
 -16   6  22   22.80   19.80
 -22  16   6   32.90   23.60
   6  22  16    8.30   19.90
  -6  22 -16  -14.60   13.80
 -22  16  -6    0.40   20.90
 -18   6  22  209.48   31.40
 -22  18   6  239.68   40.70
  -6  22  18  266.17   38.90
 -22  18  -6  270.17   36.80
  -6  22 -18  257.17   28.70
   6  22  18  281.87   37.70
 -22  20   6   16.90   24.50
  -6  22  20   37.90   26.20
  -6  22 -20   59.09   22.50
 -22  20  -6   12.20   21.50
   6  22  20   60.59   26.60
   0   8  22   -5.50   11.60
  -8  22   0   21.70   18.60
   2   8 -22   12.60    4.70
  -8  22   2   28.40   19.40
  -2   8  22   33.60   14.80
  -8  22  -2    6.10   17.30
   2   8  22   -8.20   11.60
  -8  22   4 2749.02  127.29
  -4   8  22 2697.73  116.09
   4   8 -22 2768.22  104.89
  -8  22  -4 2871.41  124.09
   4   8  22 2804.32  112.59
  -8  22   6   35.30   23.80
   6   8 -22   36.20   11.00
  -6   8  22   49.30   17.30
   6   8  22   10.20   12.20
  -8  22  -6   44.60   18.70
  -8   8  22 2182.48   96.29
 -22   8   8 2120.09  103.09
  -8  22   8 2120.49  104.99
  -8  22  -8 1975.30   96.79
  -8  22  10  -26.70   17.70
 -10   8  22   -8.10   15.10
 -22  10   8   36.20   21.20
  -8  22 -10   20.40   17.60
 -22  12   8  -11.50   18.00
 -12   8  22    4.60   17.40
  -8  22  12   24.60   21.30
  -8  22 -12    2.80   15.70
 -14   8  22    8.10   17.80
  -8  22  14   20.80   21.20
 -22  14   8   -2.30   19.90
  -8  22 -14  -18.00   14.00
 -22  14  -8    0.90   19.00
 -22  16   8  466.35   51.19
 -16   8  22  476.25   45.60
  -8  22  16  440.56   49.00
  -8  22 -16  504.25   39.20
 -22  16  -8  461.65   45.40
 -18   8  22   -8.60   20.10
  -8  22  18   18.00   24.80
 -22  18   8   58.29   27.60
 -22  18  -8   -3.60   18.10
  -8  22 -18   -3.90   15.10
  -8  22  20   44.70   27.50
 -20   8  22   60.29   24.10
 -22  20   8   63.19   28.10
   8  22  20   73.09   25.70
 -22  20  -8   65.39   24.70
   0  10  22   45.60   16.80
 -10  22   0   39.70   21.40
   2  10 -22   -4.40    5.70
  -2  10  22    9.70   14.00
 -10  22   2  -10.50   16.80
 -10  22  -2    2.20   20.00
   2  10  22   24.70   14.40
  -4  10  22   -3.60   13.80
   4  10 -22   -5.50    7.90
 -10  22   4  -14.50   17.30
 -10  22  -4  -15.30   17.30
   4  10  22    9.60   13.00
 -10  22   6  452.95   46.10
   6  10 -22  519.95   33.20
  -6  10  22  497.65   39.70
   6  10  22  507.95   36.30
 -10  22  -6  528.25   47.00
 -22   8  10   13.30   20.00
 -10  22   8    5.20   18.60
  -8  10  22   16.40   17.20
 -10  22  -8   20.80   19.50
 -10  10  22  914.51   55.09
 -22  10  10  809.12   60.89
 -10  22  10  793.42   58.89
 -10  22 -10  770.72   52.99
 -12  10  22   60.39   20.50
 -10  22  12   30.70   22.40
 -22  12  10   36.70   22.50
 -10  22 -12   71.09   21.00
 -14  10  22   22.70   20.30
 -22  14  10  -13.30   19.40
 -10  22  14    7.90   21.20
 -10  22 -14   29.60   19.00
 -22  14 -10   23.10   18.50
 -16  10  22  -15.90   16.80
 -22  16  10    4.30   23.20
 -10  22  16    1.90   20.10
 -22  16 -10  -19.00   16.80
 -10  22 -16    4.10   16.40
 -10  22  18 1115.29   75.79
 -18  10  22 1002.70   68.59
 -22  18  10 1066.09   74.19
 -22  18 -10 1074.49   67.89
 -10  22 -18 1153.28   61.59
 -20  10  22    8.30   20.00
 -22  20  10   12.90   23.50
 -10  22  20  -10.70   21.50
 -22  20 -10   72.29   25.30
   0  12  22   -9.00   13.50
   0  12 -22    1.90    5.20
 -12  22   0    2.00   18.70
 -12  22   2    7.10   21.30
  -2  12  22   32.70   16.80
   2  12  22   12.20   14.20
 -12  22  -2   -8.40   17.30
  -4  12  22  120.39   23.60
 -12  22   4  121.49   30.10
 -12  22  -4   68.29   24.10
   4  12  22  122.69   20.60
  -6  12  22    6.20   17.90
 -12  22   6   27.40   20.50
   6  12  22   -4.50   15.00
 -12  22  -6  -24.80   14.50
  -8  12  22  -17.30   15.70
 -22   8  12    2.70   18.80
 -12  22   8   -8.80   19.50
 -12  22  -8   -4.90   18.40
 -12  22  10   19.10   23.00
 -22  10  12   59.49   23.90
 -10  12  22   48.30   21.30
 -12  22 -10   51.59   21.40
 -12  22  12  133.69   32.50
 -22  12  12  190.28   34.20
 -12  12  22  143.59   29.00
 -12  22 -12  207.48   30.00
 -12  22  14  -12.80   21.20
 -22  14  12   54.49   27.10
 -14  12  22    9.50   17.90
 -12  22 -14   46.50   19.50
 -12  22  16  370.76   46.10
 -16  12  22  345.37   42.40
 -22  16  12  325.07   45.60
 -12  22 -16  299.07   34.40
 -22  16 -12  436.36   42.40
 -18  12  22  -17.20   20.80
 -12  22  18   -2.10   20.40
 -22  18  12   21.10   23.80
 -22  18 -12    5.70   19.70
 -12  22 -18   36.20   18.30
 -20  12  22  -35.50   23.10
 -12  22  20   20.10   26.10
 -22  20  12    8.70   24.70
 -22  20 -12   33.60   24.00
 -14  22   0  187.88   33.20
   0  14  22  159.68   26.50
   0  14 -22  126.69   13.00
  -2  14  22  153.38   26.00
 -14  22   2  140.59   29.60
  -2  14 -22  145.59   13.90
   2  14  22  124.79   24.30
 -14  22  -2  128.69   30.20
  -4  14  22   31.40   18.80
 -14  22   4   16.20   23.50
   4  14  22   26.00   17.30
 -14  22  -4   30.90   20.60
 -14  22   6  119.89   29.30
  -6  14  22   96.49   24.50
   6  14  22  118.89   23.40
 -14  22  -6  149.09   28.80
  -8  14  22   -6.50   18.20
 -14  22   8   -1.90   19.40
 -22   8  14  -29.00   17.00
 -14  22  -8   18.10   21.90
 -22  10  14  -14.10   17.60
 -10  14  22  -16.50   18.40
 -14  22  10   35.20   23.10
 -14  22 -10  -12.60   18.90
 -12  14  22   57.09   24.70
 -14  22  12   17.70   26.30
 -22  12  14  -13.20   18.90
 -14  22 -12   26.50   20.00
 -14  22  14   24.90   22.70
 -14  14  22  -37.20   15.60
 -22  14  14   19.90   23.20
 -14  22 -14   16.30   19.00
 -22  16  14    7.60   23.60
 -16  14  22   13.10   19.70
 -14  22  16   18.70   25.90
 -14  22 -16   34.90   20.20
 -14  22  18   -3.80   24.30
 -18  14  22   63.39   28.10
 -22  18  14   74.79   32.50
 -22  18 -14   98.59   26.20
 -14  22 -18   60.09   21.10
 -20  14  22    4.20   24.60
 -22  20  14  -15.30   26.90
 -14  22  20    2.90   23.10
 -22  20 -14    8.00   21.30
   0  16  22    6.50   16.60
   0  16 -22   -7.70    8.00
 -16  22   0  -19.00   18.30
   2  16 -22    5.30    9.70
  -2  16  22  -24.40   15.90
 -16  22   2  -25.80   20.30
   2  16  22   -9.60   15.90
 -16  22  -2   14.50   22.80
 -16  22   4  304.67   41.80
  -4  16  22  379.46   41.30
   4  16  22  405.96   39.90
 -16  22  -4  351.36   41.90
  -6  16  22   -3.10   16.00
 -16  22   6  -18.10   20.00
   6  16  22    8.80   17.30
 -16  22  -6   14.50   19.50
  -8  16  22  428.46   44.50
 -22   8  16  491.15   48.40
 -16  22   8  452.25   52.69
   8  16  22  505.35   44.20
 -16  22  -8  483.35   47.60
 -16  22  10   37.20   25.50
 -10  16  22    6.30   20.00
 -22  10  16   15.60   22.40
 -16  22 -10    1.90   16.60
 -22  12  16  346.87   47.20
 -12  16  22  334.37   42.40
 -16  22  12  329.57   45.40
 -16  22 -12  373.66   40.40
 -16  22  14  -33.90   22.40
 -14  16  22  -22.90   21.20
 -22  14  16    1.70   23.30
 -16  22 -14   15.20   19.50
 -16  22  16  193.58   37.60
 -22  16  16  150.38   35.00
 -16  16  22  228.38   38.40
 -16  22 -16  199.98   29.80
 -16  22  18   -5.80   23.40
 -22  18  16   27.30   28.30
 -18  16  22   -1.30   24.40
 -22  18 -16  -13.80   16.80
 -16  22 -18    2.80   16.70
 -20  16  22    0.60   26.10
 -16  22  20   -7.40   23.50
 -22  20  16   34.10   29.80
 -22  20 -16   -4.40   20.60
 -18  22   0   60.19   29.00
   0  18  22  162.28   28.70
 -18  22   2  133.19   30.90
  -2  18  22  132.89   28.10
   2  18 -22  106.49   17.00
 -18  22  -2   79.99   26.90
   2  18  22  120.89   26.10
 -18  22   4   68.19   25.60
  -4  18  22   26.50   21.40
 -18  22  -4   29.40   24.60
   4  18  22   64.89   23.10
 -18  22   6  143.99   34.30
  -6  18  22  267.97   37.50
 -18  22  -6  199.78   33.40
   6  18  22  292.77   36.30
  -8  18  22    8.90   20.80
 -22   8  18  -20.90   19.20
 -18  22   8   -4.00   21.90
 -18  22  -8   -1.60   22.50
   8  18  22    7.30   19.50
 -22  10  18 1068.59   72.09
 -18  22  10 1249.97   77.79
 -10  18  22 1081.09   70.49
 -18  22 -10 1169.18   70.19
 -18  22  12   40.70   28.60
 -22  12  18   16.60   21.30
 -12  18  22   -5.90   20.10
 -18  22 -12  -18.90   18.40
 -18  22  14   48.20   29.80
 -14  18  22  136.89   32.80
 -22  14  18   49.70   27.00
 -18  22 -14   50.79   23.10
 -18  22  16  -39.80   20.40
 -16  18  22   57.09   27.10
 -22  16  18   -3.60   22.40
 -18  22 -16   -3.90   19.10
 -18  22  18  635.44   65.49
 -22  18  18  508.75   57.19
 -18  18  22  492.05   55.39
 -18  22  20  -46.80   25.50
 -20  18  22   -6.30   22.70
 -22  20  18   27.60   26.80
 -20  22   0   29.50   26.70
   0  20  22   -8.10   19.90
 -20  22   2  -23.90   22.20
  -2  20  22   -5.20   17.60
 -20  22  -2   16.00   21.80
   2  20  22   -5.90   19.60
 -20  22   4   86.59   30.10
  -4  20  22   78.89   27.30
   4  20  22   96.09   26.30
 -20  22  -4   74.89   29.20
 -20  22   6  -14.70   26.10
  -6  20  22   33.70   22.10
   6  20  22   35.90   20.00
 -20  22  -6   25.40   23.20
  -8  20  22   59.89   25.60
 -20  22   8   65.69   31.10
 -20  22  -8   96.39   28.50
   8  20  22   59.39   24.10
 -10  20  22   36.70   24.40
 -22  10  20   33.40   25.80
 -20  22  10    9.20   24.30
 -20  22 -10    9.70   22.60
 -12  20  22   25.40   27.00
 -20  22  12  -33.00   24.80
 -22  12  20   33.20   26.00
 -20  22 -12   90.79   27.20
 -14  20  22  -43.00   22.10
 -20  22  14  -12.20   25.20
 -22  14  20    5.90   23.80
 -20  22 -14  -11.10   18.30
 -20  22  16    9.00   24.60
 -16  20  22   15.90   28.90
 -22  16  20   13.80   24.30
 -20  22 -16    9.20   21.10
 -18  20  22    1.10   22.40
 -22  18  20   11.90   28.50
 -20  22  18   -8.20   22.80
 -22  20  20   43.10   32.20
 -20  20  22   49.60   30.50
 -20  22  20   -1.30   24.70
 -22  22   0   36.40   25.10
   0  22  22   97.89   27.10
  -2  22  22  177.58   33.10
 -22  22   2  241.68   40.20
 -22  22  -2  212.88   40.30
   2  22  22  194.08   33.80
  -4  22  22   -2.40   20.30
 -22  22   4   21.80   25.00
 -22  22  -4  -18.80   22.50
   4  22  22   16.70   20.40
  -6  22  22  377.66   46.70
 -22  22   6  475.25   56.39
 -22  22  -6  449.46   50.39
   6  22  22  469.75   50.09
  -8  22  22   12.30   25.50
 -22  22   8  -30.10   26.60
 -22  22  -8   -9.40   22.80
   8  22  22    6.10   23.30
 -22  10  22 1974.40  106.19
 -10  22  22 2147.89  107.79
 -22  22  10 1897.31  109.09
 -22  22 -10 1889.41  102.19
 -22  12  22  -15.90   20.40
 -12  22  22   24.60   26.70
 -22  22  12   -1.90   27.30
 -22  22 -12  -27.10   20.00
 -22  14  22  124.29   35.50
 -14  22  22  214.98   42.20
 -22  22  14  173.68   38.00
 -22  22 -14  155.58   32.40
 -22  16  22   15.90   28.50
 -16  22  22   51.59   29.10
 -22  22  16  -21.60   24.00
 -22  22 -16   21.20   21.60
 -22  18  22 1129.79   82.09
 -22  22  18 1131.49   85.09
 -18  22  22 1130.19   83.39
 -22  20  22   -4.50   27.50
 -22  22  20   17.20   30.10
 -20  22  22   -4.10   23.80
 -22  22  22 2944.01  149.39
  -1   1  23   62.59   10.40
   1  23  -1   47.90   20.40
  -1  23   1   52.19   21.00
   1   1  23   51.39    9.30
  -1  23  -1   66.79   23.50
   1  23   1   54.59   21.00
  -3   1  23  295.77   21.00
   3   1 -23  259.87   18.20
  -1  23   3  322.27   37.90
   1  23  -3  220.28   31.30
   1  23   3  217.18   32.20
  -1  23  -3  308.87   34.50
   3   1  23  273.87   16.60
   5   1 -23   26.90   10.00
  -1  23   5   26.60   19.30
   1  23  -5    9.40   17.20
   1  23   5    9.70   18.30
  -1  23  -5   15.20   17.90
   5   1  23   30.30    7.40
  -1  23   7  195.98   30.70
   1  23  -7  156.98   25.90
   1  23   7  227.88   33.10
   7   1  23  179.18   14.80
  -1  23  -7  121.39   25.10
   1  23  -9  -18.90   16.00
  -1  23   9   24.10   22.60
   9  -1  23   -1.80    5.50
  -1  23  -9   10.80   15.20
   1  23   9  -26.50   15.60
 -23  11   1    6.10   21.60
  -1  23  11   29.90   21.20
   1  23 -11  -25.20   15.90
   1  23  11   15.60   20.10
  -1  23 -11   21.50   17.50
 -23  11  -1   27.10   22.80
 -23  13   1    1.60   18.80
   1  23 -13   64.69   19.80
  -1  23  13   30.50   22.10
  -1  23 -13   36.20   18.80
 -23  13  -1   75.69   24.60
   1  23  13   25.40   20.90
   1  23 -15  428.36   38.30
  -1  23  15  414.06   44.70
 -23  15   1  382.86   44.70
 -23  15  -1  460.35   49.50
  -1  23 -15  450.05   36.70
   1  23  15  536.55   51.39
   1  23 -17   48.10   18.30
  -1  23  17   35.90   25.40
 -23  17   1   35.10   25.40
 -23  17  -1   36.60   23.40
  -1  23 -17   65.39   18.50
   1  23  17   57.29   25.40
   1  23 -19  174.38   25.20
  -1  23  19  143.09   31.40
 -23  19   1  183.38   36.20
   1  23  19  274.57   37.70
 -23  19  -1  140.29   34.00
  -1  23 -19  219.48   26.30
  -1  23  21   57.59   24.20
 -23  21   1   81.09   30.10
   1  23  21   75.09   25.40
 -23  21  -1   60.19   27.00
  -3  23   1  264.47   34.20
  -1   3  23  250.37   20.90
   1   3  23  251.27   20.40
  -3  23  -1  241.88   32.00
  -3  23   3    3.10   18.40
  -3   3  23   13.00   10.40
   3   3 -23    5.70    6.00
  -3  23  -3   24.20   18.10
   3   3  23    7.20    8.50
   5   3 -23  616.24   31.00
  -5   3  23  580.54   35.30
  -3  23   5  581.74   47.30
   5   3  23  578.84   30.30
  -3  23  -5  620.04   44.90
  -7   3  23  198.88   22.90
  -3  23   7  274.87   35.40
   7   3  23  215.78   18.60
  -3  23  -7  230.38   30.90
  -3  23   9  433.86   44.40
 -23   9   3  393.86   43.10
  -9   3  23  423.86   33.30
   3  23   9  413.36   44.70
  -3  23  -9  475.25   37.70
  -3  23  11  118.49   28.80
 -11   3  23  152.78   23.00
 -23  11   3  113.29   27.60
 -23  11  -3  116.19   25.80
   3  23  11  121.09   29.30
  -3  23 -11   87.69   21.50
 -23  13   3   52.39   24.20
  -3  23  13   -2.20   19.70
 -23  13  -3   38.70   20.80
   3  23  13    4.00   22.50
  -3  23 -13   -2.70   15.10
  -3  23  15   55.89   26.30
 -23  15   3   74.39   27.80
  -3  23 -15   77.29   20.60
 -23  15  -3   80.59   25.00
   3  23  15   88.89   26.60
 -23  17   3   47.80   24.90
  -3  23  17   57.09   23.50
   3  23  17   68.09   25.40
 -23  17  -3   -5.80   20.40
  -3  23 -17   17.70   17.20
  -3  23  19   69.79   27.30
 -23  19   3   29.60   25.40
   3  23  19  118.39   27.60
 -23  19  -3   93.19   28.90
  -3  23 -19   62.99   18.50
   3  23 -21   76.39   19.80
  -3  23  21   84.29   29.90
 -23  21   3   87.69   29.60
   3  23  21  104.09   28.40
 -23  21  -3   77.69   28.70
  -5  23   1   12.50   17.80
  -1   5  23   38.50   13.10
  -5  23  -1   55.79   22.50
   1   5  23   53.19   13.30
   3   5 -23  582.14   25.90
  -3   5  23  581.44   35.80
  -5  23   3  603.44   48.00
  -5  23  -3  662.83   47.10
   3   5  23  571.14   33.50
  -5  23   5 1391.96   77.19
  -5   5  23 1331.87   63.99
   5   5 -23 1400.46   57.39
   5   5  23 1413.36   60.89
  -5  23  -5 1353.56   74.29
   7   5 -23  693.53   48.30
  -7   5  23  598.74   39.70
  -5  23   7  649.04   50.49
  -5  23  -7  607.84   47.10
   7   5  23  605.64   34.30
 -23   9   5 1040.10   67.09
  -9   5  23 1014.30   54.79
  -5  23   9  929.11   63.69
  -5  23  -9 1097.79   61.19
 -11   5  23   20.50   15.70
 -23  11   5   -6.20   21.40
  -5  23  11    9.30   19.80
  -5  23 -11    1.70   15.30
 -13   5  23   -3.80   14.90
 -23  13   5  -17.70   18.70
  -5  23  13   -2.00   21.70
  -5  23 -13    3.70   16.60
 -23  13  -5  -12.40   17.10
  -5  23  15  254.87   37.60
 -15   5  23  244.78   31.40
 -23  15   5  269.47   41.10
 -23  15  -5  315.77   41.20
   5  23  15  181.08   33.20
  -5  23 -15  227.48   28.80
 -23  17   5  452.35   52.39
  -5  23  17  446.76   48.90
  -5  23 -17  434.36   39.40
 -23  17  -5  583.14   53.29
   5  23  17  486.25   48.70
 -23  19   5   18.00   24.30
  -5  23  19    2.20   20.70
 -23  19  -5  -20.10   22.90
  -5  23 -19   -3.50   14.40
   5  23  19  -46.50   17.20
  -5  23  21  228.38   38.30
 -23  21   5  127.59   34.00
   5  23  21  182.38   36.50
 -23  21  -5  160.38   32.70
  -1   7  23  189.08   22.60
  -7  23   1  144.89   28.30
   1   7  23  183.98   20.90
  -7  23  -1  126.09   26.30
  -7  23   3  204.08   32.10
   3   7 -23  181.38   12.70
  -3   7  23  223.38   25.40
  -7  23  -3  265.97   34.10
   3   7  23  183.68   21.30
  -7  23   5  603.54   53.89
  -5   7  23  524.75   38.10
   5   7 -23  565.44   29.50
  -7  23  -5  648.14   48.30
   5   7  23  558.94   35.00
  -7   7  23  826.42   48.80
  -7  23   7  752.62   56.19
  -7  23  -7  834.02   54.59
   7   7  23  798.02   43.30
  -9   7  23   43.10   17.50
 -23   9   7   86.09   24.40
  -7  23   9   61.09   23.80
  -7  23  -9   34.30   20.80
 -23  11   7  116.69   28.20
  -7  23  11   63.09   25.60
 -11   7  23  140.79   25.50
  -7  23 -11   93.39   22.80
 -13   7  23   82.89   22.90
  -7  23  13   85.89   27.00
 -23  13   7   63.09   27.60
 -23  13  -7   87.89   25.60
  -7  23 -13   95.89   22.80
 -23  15   7   35.60   24.00
  -7  23  15   76.99   29.30
 -15   7  23   76.29   23.20
  -7  23 -15   79.19   20.00
 -23  15  -7   76.89   24.70
  -7  23  17   50.19   25.60
 -17   7  23   18.70   21.20
 -23  17   7    0.40   22.50
 -23  17  -7   66.49   25.70
  -7  23 -17    8.30   16.40
 -19   7  23   99.89   28.50
 -23  19   7  196.08   39.00
  -7  23  19  125.89   31.50
 -23  19  -7  136.39   31.90
   7  23  19  136.89   32.90
  -7  23 -19  112.99   22.40
  -7  23  21   46.40   29.90
 -23  21   7   73.19   30.20
 -23  21  -7  128.69   33.10
   7  23  21   30.60   24.80
  -1   9  23   -4.80   12.40
  -9  23   1   -0.50   17.70
  -9  23  -1    3.50   20.20
   1   9  23   -9.00   12.40
  -3   9  23  399.36   33.00
  -9  23   3  424.56   46.10
   3   9  23  390.56   31.80
  -9  23  -3  445.96   43.00
  -5   9  23 1026.70   56.29
  -9  23   5  932.21   63.59
   5   9  23 1035.30   52.49
  -9  23  -5  953.20   60.29
  -9  23   7   37.30   22.20
  -7   9  23   60.99   20.00
   7   9  23   74.59   17.60
  -9  23  -7   69.79   22.90
 -23   9   9 1242.88   75.79
  -9   9  23 1376.06   69.89
  -9  23   9 1345.87   77.89
  -9  23  -9 1257.87   69.79
  -9  23  11   73.79   25.70
 -23  11   9   86.79   26.90
 -11   9  23   52.69   22.10
  -9  23 -11   81.49   21.90
  -9  23  13  107.19   29.20
 -13   9  23   96.79   25.00
 -23  13   9  128.19   30.20
  -9  23 -13  102.59   24.40
 -23  15   9   15.00   22.00
 -15   9  23   28.90   18.80
  -9  23  15   11.20   22.60
 -23  15  -9   40.40   23.30
  -9  23 -15   20.90   19.20
 -23  17   9  514.25   56.19
  -9  23  17  544.55   56.39
 -17   9  23  490.55   48.80
 -23  17  -9  586.74   53.19
  -9  23 -17  597.54   43.70
 -23  19   9  353.06   49.00
  -9  23  19  253.87   41.20
 -19   9  23  300.67   40.10
 -23  19  -9  291.97   40.40
  -9  23 -19  296.27   32.20
  -9  23  21  747.63   65.19
 -21   9  23  649.93   53.99
 -23  21   9  728.73   67.79
   9  23  21  634.94   58.89
 -23  21  -9  663.93   59.69
 -11  23   1    7.40   19.60
  -1  11  23   28.20   15.90
   1  11  23   30.80   16.30
 -11  23  -1   13.40   21.90
 -11  23   3   96.79   26.40
  -3  11  23  109.19   22.40
 -11  23  -3  105.19   25.90
   3  11  23  112.59   20.70
 -11  23   5    9.00   19.70
  -5  11  23   26.00   17.50
   5  11  23   26.70   15.60
 -11  23  -5   -2.50   20.10
  -7  11  23  108.39   24.50
 -11  23   7   89.59   27.50
 -11  23  -7  120.69   27.40
   7  11  23  164.48   23.40
 -11  23   9   90.39   27.20
 -23   9  11   74.99   26.30
  -9  11  23  114.39   24.50
 -11  23  -9   46.30   22.00
 -23  11  11   17.60   22.10
 -11  11  23   35.10   19.70
 -11  23  11   32.70   26.10
 -11  23 -11   66.09   22.40
 -13  11  23  122.09   27.70
 -23  13  11  164.68   32.80
 -11  23  13  137.59   31.60
 -11  23 -13  144.99   26.50
 -15  11  23  426.46   45.30
 -23  15  11  339.67   45.50
 -11  23  15  295.77   43.00
 -23  15 -11  426.86   42.40
 -11  23 -15  395.46   39.20
 -23  17  11   21.80   25.10
 -11  23  17   13.10   23.90
 -17  11  23  -18.80   18.50
 -11  23 -17   17.10   17.90
 -23  17 -11   19.80   21.40
 -11  23  19  498.75   54.79
 -19  11  23  390.56   46.30
 -23  19  11  411.56   51.89
 -23  19 -11  525.15   49.99
 -23  21  11  212.48   40.30
 -21  11  23  213.38   39.20
 -11  23  21  258.07   41.90
 -23  21 -11  191.28   35.60
 -13  23   1   53.39   24.60
  -1  13  23   27.80   18.00
   1  13  23   18.70   16.60
 -13  23  -1   43.20   22.30
  -3  13  23   61.79   20.30
 -13  23   3    1.50   20.70
   3  13  23   15.40   16.10
 -13  23  -3   16.20   20.30
  -5  13  23   -7.10   16.90
 -13  23   5  -20.20   18.40
   5  13  23   -6.40   14.60
 -13  23  -5   10.20   20.80
 -13  23   7   56.29   26.10
  -7  13  23   97.89   24.60
 -13  23  -7   90.29   26.20
   7  13  23  116.69   22.70
  -9  13  23  115.69   25.40
 -23   9  13   84.99   27.80
 -13  23   9   88.49   30.10
 -13  23  -9   95.29   25.50
 -23  11  13  133.29   33.50
 -11  13  23   99.49   27.10
 -13  23  11  133.29   33.90
 -13  23 -11  179.38   30.00
 -23  13  13   26.30   26.70
 -13  13  23   54.99   23.80
 -13  23  13   63.69   26.30
 -13  23 -13   82.89   24.60
 -23  15  13   21.60   23.30
 -15  13  23   -2.70   20.40
 -13  23  15   58.99   26.90
 -13  23 -15    6.80   18.90
 -13  23  17   12.10   26.60
 -23  17  13   27.20   28.30
 -17  13  23   22.10   24.90
 -23  17 -13   -3.20   19.90
 -13  23 -17    5.30   18.70
 -19  13  23  130.09   33.90
 -13  23  19   78.29   29.40
 -23  19  13  120.69   33.70
 -23  19 -13   71.89   25.50
 -13  23  21  284.77   45.70
 -21  13  23  258.67   42.00
 -23  21  13  217.98   44.50
 -23  21 -13  191.88   34.60
 -15  23   1  427.16   47.80
  -1  15  23  430.36   41.60
 -15  23  -1  402.66   46.20
   1  15  23  465.45   41.90
 -15  23   3  106.99   28.40
  -3  15  23   53.89   20.90
 -15  23  -3  142.59   29.90
   3  15  23   83.89   22.00
 -15  23   5  232.88   39.40
  -5  15  23  221.58   32.50
   5  15  23  273.27   32.70
 -15  23  -5  269.77   37.20
  -7  15  23   75.39   23.70
 -15  23   7   63.19   25.30
 -15  23  -7   91.19   24.80
   7  15  23   36.70   19.70
 -23   9  15   24.20   24.80
 -15  23   9   40.80   27.80
  -9  15  23   33.30   22.60
 -15  23  -9   12.40   22.40
 -23  11  15  324.77   43.10
 -15  23  11  297.67   46.10
 -11  15  23  368.26   42.70
 -15  23 -11  426.46   43.10
 -23  13  15  -12.50   20.10
 -13  15  23   37.60   22.50
 -15  23  13   45.00   24.90
 -15  23 -13   14.10   20.30
 -23  15  15  125.29   34.40
 -15  23  15  202.38   38.40
 -15  15  23  195.48   35.60
 -15  23 -15  210.18   31.80
 -15  23  17    3.50   23.50
 -23  17  15   67.29   27.60
 -17  15  23   62.89   26.20
 -15  23 -17   83.69   22.90
 -19  15  23   34.70   27.40
 -23  19  15   47.10   27.90
 -15  23  19   -1.00   23.30
 -23  19 -15   12.10   21.70
 -15  23  21   19.80   27.90
 -21  15  23   44.10   28.50
 -23  21  15  -16.90   27.20
 -23  21 -15   28.30   22.00
 -17  23   1   38.10   27.60
  -1  17  23   57.39   23.40
 -17  23  -1   48.60   27.10
   1  17  23   51.49   20.40
  -3  17  23    8.10   20.00
 -17  23   3   49.50   25.90
   3  17  23   67.09   22.40
 -17  23  -3   18.00   21.80
 -17  23   5  533.15   55.69
  -5  17  23  479.25   47.70
   5  17  23  481.75   44.90
 -17  23  -5  476.15   49.10
  -7  17  23   17.40   22.60
 -17  23   7   -2.60   22.10
   7  17  23    8.00   19.90
 -17  23  -7   34.30   22.80
 -23   9  17  482.35   52.29
  -9  17  23  472.25   49.00
 -17  23   9  537.35   56.09
 -17  23  -9  526.35   49.90
 -17  23  11    0.90   22.70
 -11  17  23    9.10   21.60
 -23  11  17   43.90   23.90
 -17  23 -11   -8.60   19.30
 -13  17  23   15.80   25.00
 -17  23  13   38.20   26.70
 -23  13  17   59.29   26.70
 -17  23 -13   24.10   20.90
 -15  17  23   58.49   28.20
 -17  23  15   45.00   30.70
 -23  15  17   38.60   26.60
 -17  23 -15   60.59   23.50
 -23  17  17   -0.80   28.10
 -17  23  17   18.10   24.00
 -17  17  23   16.20   22.50
 -17  23 -17   41.60   21.10
 -19  17  23  115.19   34.00
 -23  19  17  100.29   33.50
 -17  23  19   77.49   30.60
 -23  21  17  162.98   42.30
 -21  17  23  123.49   36.00
 -17  23  21  223.48   40.90
 -23  21 -17  112.29   29.50
  -1  19  23  212.78   33.60
 -19  23   1  156.18   36.00
 -19  23  -1  203.58   39.00
   1  19  23  211.98   33.00
  -3  19  23  133.59   29.20
 -19  23   3   72.39   27.40
 -19  23  -3   48.30   27.20
   3  19  23   61.49   23.80
  -5  19  23   20.50   20.60
 -19  23   5   -1.80   24.70
   5  19  23    3.10   20.40
 -19  23  -5   20.50   22.10
  -7  19  23  142.29   33.10
 -19  23   7  101.89   33.30
   7  19  23   73.29   25.20
 -19  23  -7  177.38   33.90
 -23   9  19  366.86   45.80
 -19  23   9  301.57   45.10
  -9  19  23  313.37   42.90
   9  19  23  346.17   41.10
 -19  23  -9  367.06   43.90
 -23  11  19  433.56   51.49
 -19  23  11  442.66   52.39
 -11  19  23  404.86   47.70
 -19  23 -11  416.96   45.40
 -19  23  13   69.49   28.90
 -13  19  23   85.99   29.50
 -23  13  19  138.79   35.20
 -19  23 -13  118.09   28.80
 -15  19  23  -14.00   22.70
 -19  23  15   47.10   28.90
 -23  15  19   36.70   29.10
 -19  23 -15   20.70   20.40
 -19  23  17   60.69   30.20
 -23  17  19   99.79   35.70
 -17  19  23   75.19   29.30
 -19  23 -17  128.19   27.70
 -23  19  19  194.08   43.70
 -19  23  19  140.29   38.50
 -19  19  23  169.18   38.30
 -19  23  21  379.26   54.09
 -21  19  23  397.96   54.69
 -23  21  19  397.16   54.39
 -21  23   1   64.19   29.10
  -1  21  23   76.49   27.30
   1  21  23   48.90   26.50
 -21  23  -1   89.79   29.30
 -21  23   3   75.89   29.00
  -3  21  23   80.39   28.60
   3  21  23   48.10   24.50
 -21  23  -3   77.29   28.40
 -21  23   5  140.59   35.70
  -5  21  23  213.28   36.10
 -21  23  -5  130.59   33.20
   5  21  23  143.89   30.90
 -21  23   7   89.69   34.50
  -7  21  23   55.59   28.30
   7  21  23   62.29   26.30
 -21  23  -7   35.90   27.90
  -9  21  23  768.22   63.49
 -21  23   9  764.92   71.59
   9  21  23  771.12   59.89
 -21  23  -9  762.32   60.89
 -23  11  21  173.18   35.70
 -11  21  23  251.07   41.30
 -21  23  11  185.18   40.20
 -21  23 -11  269.67   40.00
 -21  23  13  195.28   40.80
 -13  21  23  200.18   37.00
 -23  13  21  226.78   39.90
 -21  23 -13  134.19   31.10
 -23  15  21   75.29   29.70
 -21  23  15    8.20   25.40
 -15  21  23   12.60   27.30
 -21  23 -15  -34.50   18.40
 -21  23  17  106.89   34.50
 -23  17  21  121.99   37.60
 -17  21  23  173.68   39.80
 -21  23  19  384.66   53.89
 -19  21  23  354.26   52.09
 -23  19  21  322.37   49.30
 -23  21  21  504.55   64.39
 -21  21  23  584.74   65.19
 -21  23  21  552.24   65.59
  -1  23  23  -23.50   20.00
 -23  23   1    0.60   22.80
 -23  23  -1   20.60   28.00
   1  23  23   -8.40   24.10
  -3  23  23  183.78   37.20
 -23  23   3  137.29   33.60
 -23  23  -3  113.69   32.20
   3  23  23   80.09   31.10
  -5  23  23  383.36   47.80
 -23  23   5  402.66   51.39
 -23  23  -5  330.67   45.60
   5  23  23  340.17   43.10
  -7  23  23   -4.80   25.10
 -23  23   7  -19.50   26.70
 -23  23  -7  -18.60   22.40
   7  23  23   20.80   25.70
  -9  23  23  736.43   62.99
 -23  23   9  923.21   80.19
 -23  23  -9  835.22   65.29
   9  23  23  908.11   66.29
 -23  11  23  -12.90   23.80
 -11  23  23   58.49   29.00
 -23  23  11   40.10   29.20
 -23  23 -11   44.40   24.20
 -23  13  23  138.99   32.60
 -13  23  23  116.09   33.90
 -23  23  13  136.09   38.20
 -23  23 -13  107.99   31.70
 -23  15  23    5.80   24.80
 -15  23  23   44.30   27.10
 -23  23  15  -13.60   24.00
 -23  23 -15  -21.50   20.10
 -23  17  23  126.39   37.80
 -23  23  17  197.18   45.40
 -17  23  23  149.49   39.90
 -23  19  23  301.67   49.30
 -23  23  19  364.26   52.69
 -19  23  23  316.07   49.90
 -23  21  23  512.15   63.79
 -23  23  21  486.95   62.89
 -21  23  23  579.54   65.69
 -23  23  23  626.04   70.19
   0  24   0  359.56   39.30
   0  24   2   11.40   19.00
   0  24  -2   -4.40   16.40
   0  24   4   89.19   27.00
   4   0 -24   85.49   12.80
   0  24  -4   85.19   25.20
   0  24   6   -9.60   19.80
   0  24  -6   10.60   18.40
   0  24  -8  108.59   24.20
   0  24   8  136.29   30.50
   8   0  24  119.89   12.00
   0  24 -10   10.90   17.00
   0  24  10   -8.20   18.70
   0  24  12   33.90   20.80
 -24  12   0  -11.40   18.60
   0  24 -12   -4.40   16.70
   0  24  14    5.20   23.30
   0  24 -14    2.00   17.10
 -24  14   0  -10.40   19.60
 -24  16   0  220.28   36.00
   0  24  16  208.18   35.40
   0  24 -16  178.48   26.90
   0  24 -18  -28.30   14.50
   0  24  18   14.90   24.00
 -24  18   0   -0.80   22.30
   0  24  20  289.77   40.50
   0  24 -20  233.68   29.00
 -24  20   0  321.47   45.10
 -24  22   0    7.40   24.40
   0  24  22   -4.60   21.50
  -2  24   0   -7.40   16.70
   0   2  24   -4.80    8.10
  -2   2  24  145.49   16.00
  -2  24   2  133.19   27.80
   2   2  24  154.18   14.30
   2  24   2  164.08   29.80
  -2  24  -2  130.09   27.60
   4   2 -24  163.18   15.10
  -2  24   4  137.99   28.20
  -4   2  24  198.58   19.50
   4   2  24  204.48   16.10
   2  24   4  185.88   33.50
  -2  24  -4  204.08   29.70
  -6   2  24  630.64   36.70
   6   2 -24  598.24   34.20
  -2  24   6  624.54   49.80
   6   2  24  660.93   30.60
   2  24   6  576.64   53.39
  -2  24  -6  602.74   47.90
  -2  24   8  -12.90   20.70
   8   2  24   12.50    8.60
  -2  24  -8    9.30   18.40
   2  24   8    8.50   19.40
  -2  24  10   75.79   25.50
 -24  10   2  113.89   27.10
   2  24  10  123.89   30.10
  -2  24 -10  112.69   24.50
 -24  12   2  589.74   53.59
  -2  24  12  525.35   51.19
 -24  12  -2  515.95   50.19
   2  24  12  453.55   48.20
  -2  24 -12  551.24   42.40
   2  24 -14   25.50   17.00
 -24  14   2    5.60   20.80
  -2  24  14   11.80   21.60
  -2  24 -14   27.80   19.40
 -24  14  -2   37.20   22.40
   2  24  14   43.90   26.10
   2  24 -16  914.81   55.29
  -2  24  16  909.61   64.89
 -24  16   2 1061.99   68.39
  -2  24 -16  919.91   54.49
 -24  16  -2  815.82   62.19
   2  24  16  995.90   65.29
   2  24 -18   31.60   18.10
 -24  18   2    3.10   24.20
  -2  24  18   13.00   25.20
  -2  24 -18   39.90   17.10
 -24  18  -2   42.50   25.40
   2  24  18   67.89   28.40
  -2  24  20  117.29   30.50
 -24  20   2  192.48   40.00
   2  24 -20  123.39   22.80
 -24  20  -2   47.40   28.30
   2  24  20  141.09   34.00
  -2  24 -20  123.29   23.10
  -2  24  22  -65.69   20.80
 -24  22   2   52.29   26.10
 -24  22  -2  -23.90   23.10
   2  24  22    5.60   23.80
  -4  24   0   97.39   24.00
   0   4  24  106.69   14.90
  -4  24   2  159.88   31.90
  -2   4  24  212.88   20.90
   2   4  24  181.38   18.30
  -4  24  -2  170.28   31.70
  -4  24   4    5.30   17.90
  -4   4  24  -13.10   10.70
   4   4 -24    9.50    7.40
  -4  24  -4   12.30   17.20
   4   4  24   -5.40    8.70
  -4  24   6  109.69   27.30
  -6   4  24   56.19   15.40
   6   4  24   87.89   13.90
  -4  24  -6   64.09   23.10
  -4  24   8    2.20   18.90
  -8   4  24  -26.40   11.50
   8   4  24    2.00    9.30
  -4  24  -8    6.80   17.50
 -24  10   4   52.29   25.40
  -4  24  10   83.09   25.70
 -10   4  24   63.89   18.10
  -4  24 -10  100.99   23.30
   4  24  10   80.29   26.20
  -4  24  12   40.30   23.00
 -12   4  24   31.50   17.00
 -24  12   4   33.90   22.60
  -4  24 -12   26.90   18.00
 -24  12  -4    8.10   19.10
   4  24  12    2.70   20.10
  -4  24  14   -6.00   22.40
 -24  14   4  -26.80   19.00
  -4  24 -14    9.20   16.10
 -24  14  -4  -44.00   18.70
   4  24  14   14.90   23.30
  -4  24  16   26.80   23.50
 -24  16   4   29.40   27.50
 -24  16  -4   23.50   23.80
   4  24  16   51.69   24.70
  -4  24 -16   62.49   20.00
 -24  18   4  335.27   44.90
  -4  24  18  235.88   39.80
  -4  24 -18  244.28   29.70
   4  24  18  280.77   41.80
 -24  18  -4  273.97   39.50
  -4  24  20    7.30   24.90
 -24  20   4    7.90   27.30
 -24  20  -4  -13.90   24.30
   4  24  20    5.60   25.40
 -24  22   4  351.16   48.20
  -4  24  22  287.27   41.90
   4  24  22  265.57   39.80
 -24  22  -4  362.86   48.50
  -6  24   0  -12.50   17.30
   0   6  24   -0.30   11.10
  -2   6  24  641.44   38.50
  -6  24   2  650.63   52.49
  -6  24  -2  660.13   49.10
   2   6  24  606.84   36.70
  -6  24   4  103.69   26.20
  -4   6  24   73.09   17.50
   4   6  24   56.29   14.40
  -6  24  -4  106.79   25.50
  -6   6  24 2497.25  108.19
  -6  24   6 2663.73  122.59
   6   6  24 2677.63  104.49
  -6  24  -6 2511.05  117.39
  -8   6  24   57.09   18.20
  -6  24   8   21.10   21.80
  -6  24  -8   82.79   23.30
   8   6  24   60.19   14.60
 -10   6  24  582.44   41.90
 -24  10   6  577.24   55.49
  -6  24  10  566.74   54.19
  -6  24 -10  474.15   44.30
 -24  12   6   23.50   21.40
  -6  24  12    0.70   23.20
 -12   6  24    4.10   16.00
  -6  24 -12   -3.00   16.60
 -14   6  24  222.98   30.70
 -24  14   6  244.98   38.60
  -6  24  14  251.07   38.10
 -24  14  -6  286.57   39.30
  -6  24 -14  194.58   28.90
 -24  16   6   83.39   29.70
 -16   6  24   95.69   24.70
  -6  24  16   66.59   29.40
 -24  16  -6   99.19   28.50
   6  24  16   56.59   27.60
  -6  24 -16   95.49   22.60
  -6  24  18  259.47   39.70
 -24  18   6  247.58   41.10
 -24  18  -6  210.58   35.80
  -6  24 -18  262.37   30.70
   6  24  18  297.17   41.50
  -6  24  20   27.20   26.40
 -24  20   6   -2.20   22.80
   6  24  20   24.10   26.40
 -24  20  -6   45.60   24.80
  -6  24  22   57.09   31.00
 -24  22   6   37.00   32.30
 -24  22  -6   11.20   25.80
   6  24  22   69.39   28.20
  -8  24   0  103.79   27.00
   0   8  24  129.49   20.70
  -8  24   2    3.60   19.20
  -2   8  24   13.30   14.20
   2   8  24    0.00   12.00
  -8  24  -2   15.60   18.60
  -8  24   4   18.40   22.60
  -4   8  24    0.50   14.00
   4   8  24    3.80   12.10
  -8  24  -4    7.40   17.70
  -8  24   6   36.40   25.70
  -6   8  24   23.70   16.30
  -8  24  -6   29.60   19.50
   6   8  24   74.49   16.50
  -8  24   8  423.06   46.80
  -8   8  24  441.36   36.70
  -8  24  -8  447.86   43.50
   8   8  24  398.86   31.60
 -24  10   8  134.49   29.40
 -10   8  24  174.48   27.10
  -8  24  10  175.18   31.90
  -8  24 -10  173.38   28.00
 -24  12   8  326.87   43.40
  -8  24  12  313.57   41.50
 -12   8  24  191.48   30.20
  -8  24 -12  280.57   34.40
 -14   8  24  -11.10   17.90
 -24  14   8   31.30   26.80
  -8  24  14  -25.50   19.80
 -24  14  -8  -18.80   16.60
  -8  24 -14   12.10   17.40
  -8  24  16  124.39   32.60
 -16   8  24  110.19   27.60
 -24  16   8   76.79   31.00
  -8  24 -16  105.79   24.20
 -24  16  -8   92.59   28.40
  -8  24  18  199.38   37.40
 -18   8  24  196.98   33.30
 -24  18   8  233.28   40.30
  -8  24 -18  218.58   29.20
 -24  18  -8  169.78   32.40
 -20   8  24  896.51   62.69
 -24  20   8  834.12   67.89
  -8  24  20  727.23   62.39
 -24  20  -8  888.41   62.59
   8  24  20  827.92   65.29
 -24  22   8  408.66   54.09
  -8  24  22  456.75   51.59
 -24  22  -8  412.96   50.29
   8  24  22  399.26   47.40
 -10  24   0   -3.60   20.40
   0  10  24  -17.90   12.20
 -10  24   2  174.18   32.50
  -2  10  24   90.79   20.30
 -10  24  -2  138.19   27.70
   2  10  24  117.19   21.10
  -4  10  24   73.29   19.80
 -10  24   4   64.29   23.80
 -10  24  -4   20.40   19.50
   4  10  24   27.60   15.70
 -10  24   6  481.05   51.39
  -6  10  24  500.25   40.70
 -10  24  -6  535.35   49.00
   6  10  24  490.25   36.50
 -10  24   8  147.19   33.10
  -8  10  24  172.58   28.30
 -10  24  -8  175.58   31.10
   8  10  24  203.28   24.60
 -10  10  24   92.99   23.40
 -24  10  10  118.49   31.60
 -10  24  10   77.99   27.70
 -10  24 -10   43.30   22.10
 -12  10  24  348.57   39.20
 -24  12  10  381.76   46.40
 -10  24  12  400.46   47.50
 -10  24 -12  374.76   39.10
 -10  24  14  200.88   36.30
 -14  10  24  210.88   33.40
 -24  14  10  106.29   33.30
 -10  24 -14  191.58   29.90
 -24  16  10  185.38   38.90
 -10  24  16  175.48   35.60
 -16  10  24  239.98   36.40
 -10  24 -16  197.78   29.50
 -24  16 -10  210.38   34.50
 -18  10  24  167.88   33.90
 -24  18  10  144.99   35.40
 -10  24  18  192.28   39.30
 -24  18 -10  153.98   32.30
 -10  24 -18  136.89   25.70
 -10  24  20   26.20   28.20
 -24  20  10   54.79   27.70
 -20  10  24   42.60   25.70
 -24  20 -10    1.90   24.20
 -24  22  10   54.39   32.50
 -10  24  22   20.50   23.30
 -22  10  24    6.80   25.50
  10  24  22   -1.40   24.90
 -24  22 -10  -16.00   22.20
   0  12  24    3.60   14.20
 -12  24   0  -16.70   18.40
 -12  24   2  559.04   54.19
  -2  12  24  508.75   40.20
   2  12  24  513.65   39.70
 -12  24  -2  465.65   49.40
 -12  24   4   -4.00   19.70
  -4  12  24   23.80   18.50
   4  12  24   68.79   19.50
 -12  24  -4   62.39   24.40
 -12  24   6  -29.60   17.90
  -6  12  24   -4.30   16.40
   6  12  24  -11.50   13.70
 -12  24  -6  -38.30   18.40
  -8  12  24  314.17   34.00
 -12  24   8  276.97   39.50
 -12  24  -8  264.17   37.70
   8  12  24  254.87   29.70
 -24  10  12  401.16   48.30
 -12  24  10  364.16   45.50
 -10  12  24  387.46   41.50
 -12  24 -10  331.07   39.10
 -12  12  24  155.58   28.20
 -24  12  12  155.08   33.50
 -12  24  12  158.78   34.50
 -12  24 -12  184.68   30.60
 -14  12  24  228.88   35.60
 -24  14  12  201.08   37.90
 -12  24  14  233.28   39.10
 -12  24 -14  291.87   35.90
 -12  24  16  108.19   30.80
 -16  12  24   69.59   27.30
 -24  16  12  127.59   35.30
 -12  24 -16  118.89   25.50
 -12  24  18  -24.70   21.00
 -18  12  24   15.50   20.60
 -24  18  12   11.60   25.30
 -12  24 -18    0.50   17.40
 -24  18 -12   14.90   21.90
 -20  12  24  651.13   60.89
 -24  20  12  574.34   61.99
 -12  24  20  613.64   63.59
 -24  20 -12  719.33   56.19
 -24  22  12   86.29   32.20
 -12  24  22   82.69   29.20
 -22  12  24   82.59   31.00
 -24  22 -12  135.49   31.70
 -14  24   0  -24.70   19.10
   0  14  24   10.60   17.00
 -14  24   2   68.79   29.00
  -2  14  24   47.40   19.70
 -14  24  -2   60.29   24.20
   2  14  24   46.40   18.90
  -4  14  24  -12.90   16.10
 -14  24   4  -34.40   19.30
   4  14  24   -6.40   16.10
 -14  24  -4   23.00   20.80
  -6  14  24  190.28   30.10
 -14  24   6  179.38   37.10
   6  14  24  253.07   30.70
 -14  24  -6  199.98   33.70
  -8  14  24  -10.80   18.30
 -14  24   8  -19.50   21.70
   8  14  24   29.80   18.40
 -14  24  -8   44.90   23.20
 -14  24  10  177.28   34.90
 -24  10  14  250.67   38.40
 -10  14  24  199.08   31.10
 -14  24 -10  135.29   29.70
 -12  14  24  289.87   39.00
 -24  12  14  298.17   42.80
 -14  24  12  179.78   35.70
 -14  24 -12  225.38   33.80
 -24  14  14   66.89   28.10
 -14  24  14   60.09   30.50
 -14  14  24   53.69   23.50
 -14  24 -14   53.19   22.90
 -14  24  16  134.79   34.60
 -16  14  24  192.58   34.90
 -24  16  14  254.77   41.40
 -14  24 -16  206.98   31.30
 -18  14  24   47.40   22.90
 -24  18  14   49.40   27.40
 -14  24  18    5.80   23.10
 -14  24 -18    5.40   20.50
 -20  14  24   40.90   25.30
 -24  20  14   24.00   26.80
 -14  24  20   -1.70   27.10
 -24  20 -14   38.00   24.00
 -24  22  14   37.20   31.30
 -14  24  22  -14.50   23.00
 -22  14  24   11.90   25.70
 -24  22 -14    5.70   22.90
 -16  24   0  273.57   42.40
   0  16  24  231.38   32.90
  -2  16  24  918.41   60.89
 -16  24   2 1019.30   68.89
 -16  24  -2  857.81   66.69
   2  16  24  911.51   58.09
 -16  24   4   17.60   25.60
  -4  16  24   41.60   22.60
 -16  24  -4   28.20   23.30
   4  16  24   17.20   18.90
 -16  24   6   95.29   32.00
  -6  16  24  104.79   27.60
 -16  24  -6  109.49   28.50
   6  16  24   87.29   23.80
 -16  24   8   96.99   30.10
  -8  16  24   92.29   26.60
   8  16  24   67.99   23.30
 -16  24  -8  116.09   29.20
 -16  24  10  230.58   41.10
 -10  16  24  115.49   28.60
 -24  10  16  175.68   36.10
 -16  24 -10  137.59   30.30
 -12  16  24   83.19   28.00
 -16  24  12  113.79   35.10
 -24  12  16  167.98   36.90
 -16  24 -12   96.19   27.00
 -24  14  16  223.78   39.70
 -14  16  24  221.18   37.70
 -16  24  14  176.68   39.00
 -16  24 -14  240.58   35.30
 -16  16  24    1.10   23.00
 -16  24  16    6.50   28.40
 -24  16  16   -9.20   23.80
 -16  24 -16   38.30   21.80
 -16  24  18   29.40   28.20
 -24  18  16  -31.10   24.60
 -18  16  24   10.70   21.60
 -16  24  20   97.99   33.40
 -24  20  16   62.39   32.30
 -20  16  24  140.59   33.60
 -24  20 -16   75.19   25.80
 -24  22  16  -24.80   27.90
 -22  16  24   -0.50   27.90
 -16  24  22  -51.79   25.40
 -24  22 -16  -24.20   22.20
   0  18  24  -34.90   17.40
 -18  24   0    4.50   25.30
 -18  24   2    4.40   21.70
  -2  18  24   55.79   23.10
 -18  24  -2   12.40   21.50
   2  18  24   55.99   23.20
 -18  24   4  279.67   43.10
  -4  18  24  246.08   36.40
   4  18  24  242.18   35.80
 -18  24  -4  321.17   43.50
 -18  24   6  254.27   41.10
  -6  18  24  268.97   38.40
   6  18  24  288.07   36.20
 -18  24  -6  285.57   41.10
 -18  24   8  234.58   43.20
  -8  18  24  200.68   34.40
 -18  24  -8  224.48   36.00
   8  18  24  196.88   32.70
 -24  10  18  190.98   37.30
 -18  24  10  146.49   34.90
 -10  18  24  113.89   31.90
 -18  24 -10  163.18   31.80
 -18  24  12   17.40   24.40
 -24  12  18   -2.60   26.20
 -12  18  24    6.40   20.70
 -18  24 -12   39.50   23.10
 -24  14  18  -17.70   23.10
 -18  24  14   35.40   27.00
 -14  18  24   -6.00   24.10
 -18  24 -14   50.59   24.10
 -16  18  24   29.20   23.60
 -24  16  18  -16.40   22.30
 -18  24  16   49.99   31.20
 -18  24 -16  -41.20   18.30
 -18  24  18  -16.70   25.00
 -18  18  24   26.40   28.00
 -24  18  18   -1.80   24.20
 -18  24  20  -10.50   25.20
 -20  18  24  -22.70   24.40
 -24  20  18   31.00   29.70
 -22  18  24  -22.80   27.40
 -24  22  18   19.40   32.60
 -18  24  22   -8.10   23.90
 -20  24   0  180.18   36.60
   0  20  24  258.47   37.30
  -2  20  24  101.29   30.10
 -20  24   2  178.88   39.20
 -20  24  -2  120.89   34.70
   2  20  24  163.68   31.60
  -4  20  24   17.90   23.40
 -20  24   4  -25.60   20.70
 -20  24  -4   32.20   26.90
   4  20  24   44.40   24.50
  -6  20  24   -9.90   22.80
 -20  24   6    4.50   27.70
   6  20  24   33.00   24.20
 -20  24  -6   21.30   24.10
  -8  20  24  913.01   66.49
 -20  24   8  869.41   68.89
   8  20  24  817.72   60.69
 -20  24  -8  816.42   61.39
 -24  10  20    5.80   22.00
 -20  24  10  -26.90   23.40
 -10  20  24   -8.00   22.90
 -20  24 -10    3.30   19.90
  10  20  24   13.60   22.90
 -12  20  24  746.53   66.89
 -20  24  12  532.95   60.89
 -24  12  20  578.14   59.69
 -20  24 -12  693.43   55.79
 -14  20  24   19.10   28.70
 -20  24  14   39.10   26.80
 -24  14  20   18.40   27.60
 -20  24 -14   19.10   24.20
 -24  16  20  114.39   37.00
 -16  20  24  136.39   34.50
 -20  24  16   -6.00   26.10
 -20  24 -16  103.29   29.60
 -18  20  24  -14.00   26.00
 -20  24  18   36.60   31.40
 -24  18  20    3.00   29.80
 -20  20  24 1099.99   83.09
 -24  20  20 1165.48   86.89
 -20  24  20 1197.28   84.99
 -24  22  20    6.70   26.80
 -22  20  24   -8.60   30.70
 -20  24  22    5.70   26.00
   0  22  24   -9.10   22.20
 -22  24   0    2.80   27.40
 -22  24   2  -31.10   23.70
  -2  22  24    2.60   23.70
   2  22  24   -1.90   23.00
 -22  24  -2   -9.30   23.60
  -4  22  24  234.38   37.70
 -22  24   4  330.57   47.30
   4  22  24  295.57   41.40
 -22  24  -4  364.76   47.90
 -22  24   6   96.89   34.80
  -6  22  24   50.59   29.30
   6  22  24   50.49   27.30
 -22  24  -6   49.30   27.00
  -8  22  24  372.46   48.80
 -22  24   8  455.95   57.79
 -22  24  -8  480.05   53.09
   8  22  24  410.76   46.30
 -10  22  24   45.00   28.80
 -22  24  10    5.10   25.60
 -22  24 -10   -1.30   23.40
  10  22  24   68.09   29.20
 -12  22  24   79.49   33.70
 -24  12  22   38.30   30.20
 -22  24  12   98.49   35.80
 -22  24 -12   76.39   28.90
 -24  14  22   26.90   26.80
 -22  24  14   21.60   26.70
 -14  22  24  -89.19   19.40
 -22  24 -14   20.60   24.10
 -22  24  16    1.40   29.60
 -16  22  24  -32.10   21.20
 -24  16  22   41.40   31.70
 -22  24 -16  -21.10   21.50
 -24  18  22   21.30   27.70
 -18  22  24   27.50   25.10
 -22  24  18   19.80   34.30
 -22  24  20    9.20   26.40
 -20  22  24    6.70   27.10
 -24  20  22   71.29   32.50
 -24  22  22   -6.00   30.50
 -22  22  24   19.00   29.10
 -22  24  22  -37.60   23.10
 -24  24   0  302.07   48.40
   0  24  24  197.08   37.90
  -2  24  24  321.47   46.30
 -24  24   2  325.77   51.29
 -24  24  -2  299.37   45.30
   2  24  24  302.57   44.20
  -4  24  24   27.30   24.30
 -24  24   4   18.80   26.70
 -24  24  -4   40.00   26.20
   4  24  24   31.00   26.10
  -6  24  24   15.50   24.60
 -24  24   6   30.30   30.50
 -24  24  -6   28.20   25.90
   6  24  24   54.49   29.10
  -8  24  24  520.55   57.79
 -24  24   8  423.56   54.09
 -24  24  -8  498.45   55.79
   8  24  24  432.66   52.09
 -10  24  24   42.70   28.80
 -24  24  10    7.80   30.20
 -24  24 -10   70.49   29.70
  10  24  24   94.29   29.60
 -24  12  24  416.06   52.89
 -12  24  24  282.87   45.30
 -24  24  12  508.45   59.49
 -24  24 -12  497.15   52.49
 -24  14  24  146.49   36.50
 -14  24  24   80.99   35.40
 -24  24  14  149.19   43.80
 -24  24 -14  109.79   32.50
 -24  16  24    9.20   28.80
 -24  24  16   71.19   36.40
 -16  24  24   45.50   29.00
 -24  18  24  -39.60   24.10
 -24  24  18    1.20   32.00
 -18  24  24  -12.10   29.90
 -24  20  24  640.24   68.49
 -24  24  20  775.32   75.59
 -20  24  24  818.02   77.39
 -24  22  24    0.50   31.50
 -24  24  22   57.59   32.20
 -22  24  24    3.10   29.90
 -24  24  24  609.44   71.19
  -1   1  25   70.39   11.10
   1  25  -1   41.20   21.20
  -1  25   1   98.89   26.60
   1   1  25   72.59    9.70
  -1  25  -1  101.19   28.10
   1  25   1   48.00   22.10
   1  25  -3    8.50   19.60
  -1  25   3   15.50   22.40
   3   1  25    2.90    5.90
   1  25   3  -20.00   18.80
  -1  25  -3    1.30   17.60
   1  25  -5   46.70   21.00
  -1  25   5   50.89   23.50
  -1  25  -5   44.10   20.90
   1  25   5   39.20   22.50
  -1  25   7   12.20   19.80
   1  25  -7   42.10   21.20
   1  25   7   43.80   22.60
  -1  25  -7    6.90   19.10
   1  25  -9   31.00   19.80
  -1  25   9   12.20   20.90
   1  25   9  -29.30   19.70
  -1  25  -9  -12.30   17.30
   1  25 -11  287.77   34.20
 -25  11   1  279.57   40.00
  -1  25  11  261.87   37.60
  -1  25 -11  280.17   33.80
   1  25  11  334.87   41.10
  -1  25  13  255.57   38.40
   1  25 -13  350.56   36.70
 -25  13   1  239.48   37.20
   1  25  13  237.58   38.00
  -1  25 -13  268.97   32.50
 -25  13  -1  235.38   36.70
  -1  25  15  177.08   34.20
   1  25 -15  249.97   31.40
 -25  15   1  215.28   38.60
   1  25  15  238.78   36.40
 -25  15  -1  196.58   35.30
  -1  25 -15  210.88   29.30
   1  25 -17  808.52   50.99
 -25  17   1  846.12   62.49
  -1  25  17  739.13   59.59
   1  25  17  728.13   59.19
  -1  25 -17  691.53   49.60
 -25  17  -1  720.13   59.69
  -1  25  19   21.90   26.20
 -25  19   1   45.20   29.70
   1  25 -19   -0.10   17.00
 -25  19  -1  -11.10   21.50
   1  25  19    1.80   25.00
  -1  25 -19   13.90   17.10
 -25  21   1  109.09   35.40
  -1  25  21   98.69   29.50
 -25  21  -1  134.59   33.80
   1  25  21  107.49   32.30
  -1  25  23  380.46   48.00
 -25  23   1  334.17   48.50
   1  25  23  319.87   45.60
 -25  23  -1  154.48   37.70
  -3  25   1  -16.50   17.70
  -1   3  25   10.30    9.40
  -3  25  -1   11.30   20.60
   1   3  25   -1.80    8.70
  -3   3  25  624.54   35.60
  -3  25   3  682.43   51.69
  -3  25  -3  632.04   48.60
   3   3  25  623.74   32.40
  -3  25   5  327.67   39.50
  -5   3  25  270.57   24.60
   5   3  25  245.78   19.90
  -3  25  -5  249.28   35.60
  -7   3  25  313.17   28.70
  -3  25   7  313.77   40.20
  -3  25  -7  316.37   36.20
   3  25   7  378.06   43.60
   7   3  25  331.87   22.90
  -9   3  25   35.60   15.50
  -3  25   9   37.10   25.60
   3  25   9   47.40   23.50
   9   3  25   32.20   11.40
  -3  25  -9   47.80   21.20
 -25  11   3   -2.10   20.00
  -3  25  11   13.70   22.30
  -3  25 -11   55.89   21.00
   3  25  11   35.50   24.20
  -3  25  13  266.07   38.90
 -25  13   3  283.37   42.20
 -25  13  -3  320.47   41.30
  -3  25 -13  209.88   30.80
   3  25  13  175.48   35.40
 -25  15   3  425.36   49.20
  -3  25  15  426.46   48.80
   3  25  15  409.16   47.40
 -25  15  -3  468.25   50.59
  -3  25 -15  434.66   40.40
  -3  25  17  232.28   38.50
 -25  17   3  263.37   40.50
   3  25  17  245.78   41.00
 -25  17  -3  266.47   40.00
  -3  25 -17  255.67   31.70
  -3  25  19  230.18   39.10
   3  25 -19  236.58   31.00
 -25  19   3  255.27   45.30
  -3  25 -19  323.17   33.60
 -25  19  -3  251.97   39.90
   3  25  19  315.97   42.20
  -3  25  21   20.20   27.70
 -25  21   3  -17.60   25.70
   3  25  21    9.90   24.10
 -25  21  -3    3.70   26.90
  -3  25  23   39.70   26.10
 -25  23   3   39.60   29.20
   3  25  23   30.20   26.20
 -25  23  -3   41.40   27.30
  -5  25   1   80.69   27.40
  -1   5  25   66.29   14.80
   1   5  25   74.89   14.40
  -5  25  -1   76.89   24.10
  -3   5  25  278.77   26.10
  -5  25   3  303.57   39.20
   3   5  25  282.17   23.80
  -5  25  -3  228.38   33.80
  -5   5  25   43.30   15.40
  -5  25   5   32.70   22.70
   5   5  25   54.69   12.90
  -5  25  -5   47.90   24.30
  -7   5  25  303.87   30.00
  -5  25   7  341.77   43.00
   7   5  25  265.67   23.00
  -5  25  -7  309.97   37.20
  -9   5  25   39.40   17.00
  -5  25   9   69.89   24.60
   9   5  25   20.00   12.70
  -5  25  -9   22.80   19.40
  -5  25  11   25.00   23.20
 -25  11   5   28.30   25.50
 -11   5  25   20.50   16.60
  -5  25 -11   50.19   20.10
  -5  25  13   37.50   27.10
 -13   5  25   19.50   18.20
 -25  13   5   16.00   24.70
  -5  25 -13   25.60   18.40
   5  25  13   19.80   23.20
  -5  25  15   21.80   24.40
 -25  15   5   16.90   23.50
   5  25  15   56.89   28.50
  -5  25 -15   46.60   20.80
 -25  15  -5   77.79   25.20
  -5  25  17  111.39   34.60
 -25  17   5   72.39   29.10
 -25  17  -5  124.79   33.40
  -5  25 -17  104.79   23.90
   5  25  17  161.28   33.00
  -5  25  19  140.19   35.20
 -25  19   5  135.29   38.20
  -5  25 -19   86.99   22.40
 -25  19  -5   98.09   31.40
   5  25  19   94.19   29.20
  -5  25  21  147.59   35.70
 -25  21   5  153.88   36.80
   5  25  21  105.39   31.20
 -25  21  -5  174.58   35.50
  -5  25  23   31.70   26.20
 -25  23   5  144.59   36.70
 -25  23  -5   62.19   28.10
   5  25  23   96.79   30.80
  -1   7  25   47.60   15.60
  -7  25   1   58.59   23.50
  -7  25  -1   60.09   23.00
   1   7  25   46.20   14.50
  -7  25   3  370.86   44.60
  -3   7  25  336.07   30.90
   3   7  25  401.66   30.00
  -7  25  -3  321.47   38.30
  -5   7  25  282.17   29.70
  -7  25   5  307.97   39.70
  -7  25  -5  343.77   38.40
   5   7  25  338.47   27.90
  -7  25   7 1069.29   70.09
  -7   7  25  943.21   55.09
   7   7  25 1014.50   50.59
  -7  25  -7 1050.59   64.29
  -7  25   9    7.00   20.70
  -9   7  25    9.70   16.30
   9   7  25   12.10   12.10
  -7  25  -9  -18.00   14.50
 -11   7  25  424.06   39.10
 -25  11   7  393.66   47.10
  -7  25  11  463.55   50.89
  -7  25 -11  378.06   41.20
 -13   7  25   66.79   21.10
  -7  25  13  119.19   32.50
 -25  13   7  107.79   30.00
  -7  25 -13   60.09   22.30
 -25  15   7   96.09   31.00
 -15   7  25  100.79   25.80
  -7  25  15  179.28   35.20
 -25  15  -7  143.39   31.10
  -7  25 -15  139.89   27.20
 -17   7  25   41.90   22.60
  -7  25  17   14.20   25.10
 -25  17   7   -7.00   25.00
  -7  25 -17   18.80   17.40
   7  25  17   39.90   24.60
 -25  17  -7   20.80   23.90
  -7  25  19  696.03   62.09
 -25  19   7  560.64   60.49
  -7  25 -19  634.04   51.89
 -25  19  -7  577.74   57.29
   7  25  19  648.74   60.39
 -25  21   7  389.16   52.89
  -7  25  21  436.96   51.49
 -25  21  -7  526.35   54.99
   7  25  21  507.05   52.89
 -25  23   7  122.09   35.50
  -7  25  23  152.38   38.20
   7  25  23  126.39   35.40
 -25  23  -7  146.89   36.80
  -9  25   1    3.00   21.50
  -1   9  25  -15.40   12.60
  -9  25  -1   19.90   22.30
   1   9  25  -17.70   12.10
  -9  25   3   46.50   26.00
  -3   9  25   57.59   17.60
  -9  25  -3   19.70   20.50
   3   9  25   49.99   16.50
  -9  25   5   25.50   22.70
  -5   9  25   44.20   18.00
   5   9  25   34.40   15.80
  -9  25  -5   30.30   19.90
  -9  25   7   12.20   21.20
  -7   9  25    0.50   16.20
  -9  25  -7    1.10   19.60
   7   9  25   -1.50   13.10
  -9  25   9   12.50   22.10
  -9   9  25    3.50   16.70
  -9  25  -9   -5.60   18.90
   9   9  25   10.70   13.40
 -25  11   9   60.29   26.70
 -11   9  25  105.09   23.80
  -9  25  11   68.29   26.60
  -9  25 -11   82.39   23.20
 -25  13   9  119.39   32.40
  -9  25  13  216.48   39.80
 -13   9  25  247.48   33.80
  -9  25 -13  204.48   31.20
 -25  15   9  140.39   33.10
  -9  25  15  209.28   40.00
 -15   9  25  146.99   28.70
  -9  25 -15  189.58   29.70
  -9  25  17  219.88   39.10
 -25  17   9  216.88   39.20
 -17   9  25  184.58   31.80
  -9  25 -17  174.28   28.90
 -25  17  -9  177.58   33.70
  -9  25  19   56.99   31.60
 -25  19   9   49.00   29.10
 -19   9  25   55.09   26.30
 -25  19  -9   28.40   26.10
 -21   9  25    6.50   23.60
  -9  25  21    6.80   27.90
 -25  21   9    1.10   25.90
 -25  21  -9  -17.70   23.50
   9  25  21   -6.70   24.70
  -9  25  23   47.30   31.80
 -25  23   9  100.09   35.30
 -25  23  -9   37.00   28.20
   9  25  23   61.49   28.20
 -11  25   1  269.47   39.70
  -1  11  25  332.97   33.30
   1  11  25  250.17   29.20
 -11  25  -1  251.37   37.00
 -11  25   3   42.00   26.10
  -3  11  25   33.20   18.80
   3  11  25   34.80   15.70
 -11  25  -3   26.20   23.90
  -5  11  25   -8.00   16.30
 -11  25   5    5.10   22.10
 -11  25  -5   15.80   20.00
   5  11  25   38.80   16.10
 -11  25   7  451.95   50.49
  -7  11  25  381.66   38.60
   7  11  25  392.26   34.90
 -11  25  -7  377.56   43.60
  -9  11  25   71.09   23.70
 -11  25   9   29.30   27.20
   9  11  25   93.29   20.20
 -11  25  -9   35.40   22.40
 -11  11  25 1095.59   66.19
 -25  11  11 1107.39   73.59
 -11  25  11 1112.19   74.89
 -11  25 -11 1178.48   69.29
 -13  11  25   17.40   21.40
 -25  13  11   73.79   27.90
 -11  25  13   52.69   30.00
 -11  25 -13   73.19   23.90
 -11  25  15  146.99   33.30
 -25  15  11  165.98   36.70
 -15  11  25   70.39   27.10
 -11  25 -15  182.68   29.80
 -17  11  25  202.68   36.00
 -25  17  11  186.88   39.30
 -11  25  17  215.08   41.90
 -25  17 -11  228.88   35.90
 -11  25 -17  233.38   32.20
 -19  11  25  129.59   31.90
 -11  25  19  170.48   35.70
 -25  19  11  181.58   38.50
 -25  19 -11  175.78   34.90
 -25  21  11  439.06   58.39
 -11  25  21  560.54   60.79
 -21  11  25  447.46   51.79
 -25  21 -11  620.44   57.39
 -25  23  11  363.76   51.99
 -11  25  23  389.86   49.90
 -23  11  25  330.87   44.30
 -25  23 -11  227.58   39.80
  11  25  23  368.46   49.70
  -1  13  25  314.57   34.10
 -13  25   1  262.97   39.50
 -13  25  -1  211.08   36.30
   1  13  25  300.87   33.10
 -13  25   3  175.48   34.50
  -3  13  25  287.27   33.70
 -13  25  -3  252.37   37.40
   3  13  25  268.37   31.60
  -5  13  25  -22.20   16.90
 -13  25   5   20.90   24.70
 -13  25  -5    0.40   21.00
   5  13  25   20.40   17.40
 -13  25   7  104.19   31.00
  -7  13  25   68.49   24.20
   7  13  25   91.89   21.60
 -13  25  -7   66.99   24.50
 -13  25   9  130.29   35.60
  -9  13  25  223.88   33.00
 -13  25  -9  214.68   34.20
   9  13  25  173.98   26.50
 -11  13  25   49.40   24.00
 -25  11  13   43.20   25.40
 -13  25  11   26.30   23.30
 -13  25 -11   32.30   22.40
 -25  13  13  545.45   57.79
 -13  13  25  460.55   47.10
 -13  25  13  443.46   52.49
 -13  25 -13  515.15   48.00
 -25  15  13   -4.60   23.10
 -15  13  25   -4.00   18.30
 -13  25  15   20.50   25.50
 -13  25 -15   16.70   20.80
 -25  17  13  311.67   47.90
 -17  13  25  252.87   40.00
 -13  25  17  257.37   43.30
 -13  25 -17  298.17   35.40
 -19  13  25  -10.00   23.70
 -13  25  19  -30.00   22.00
 -25  19  13    6.80   28.80
 -25  19 -13   20.60   23.70
 -25  21  13    8.10   27.90
 -13  25  21   74.99   32.50
 -21  13  25   27.70   22.80
 -25  21 -13  -23.70   22.30
 -25  23  13   52.29   37.60
 -13  25  23  139.29   36.40
 -23  13  25   47.80   32.20
 -25  23 -13   97.89   30.90
  -1  15  25  188.68   30.10
 -15  25   1  234.28   38.80
 -15  25  -1  293.17   42.50
   1  15  25  218.58   30.90
  -3  15  25  456.35   44.00
 -15  25   3  536.95   56.49
   3  15  25  386.56   40.60
 -15  25  -3  467.05   51.39
  -5  15  25   74.89   24.20
 -15  25   5   83.49   31.00
 -15  25  -5   31.10   25.80
   5  15  25   48.30   20.30
  -7  15  25   82.59   25.80
 -15  25   7  136.89   34.10
 -15  25  -7  187.68   34.40
   7  15  25  150.88   25.60
 -15  25   9  199.88   41.50
  -9  15  25  276.07   37.70
 -15  25  -9  206.48   36.20
   9  15  25  213.48   30.80
 -15  25  11  165.58   36.40
 -11  15  25  119.29   29.20
 -25  11  15   91.69   29.60
 -15  25 -11  118.09   30.20
 -13  15  25   26.20   23.90
 -15  25  13   -1.90   25.20
 -25  13  15   -6.50   23.50
 -15  25 -13    4.90   20.00
 -15  15  25  278.07   40.00
 -15  25  15  223.98   41.00
 -25  15  15  163.58   37.10
 -15  25 -15  202.48   32.70
 -25  17  15   18.20   26.10
 -17  15  25   81.39   31.50
 -15  25  17  -24.00   24.30
 -15  25 -17   44.00   22.90
 -15  25  19   27.00   26.60
 -19  15  25   22.40   26.80
 -25  19  15  -11.30   25.40
 -21  15  25  -19.60   26.60
 -25  21  15   19.30   31.00
 -15  25  21   54.69   29.40
 -25  21 -15   -6.40   22.00
 -25  23  15   62.29   35.30
 -15  25  23   42.20   33.30
 -23  15  25   62.69   28.60
 -25  23 -15   49.60   27.60
 -17  25   1  816.62   62.69
  -1  17  25  785.92   55.69
   1  17  25  689.13   52.99
 -17  25  -1  697.33   64.29
 -17  25   3  236.68   42.50
  -3  17  25  307.97   38.80
 -17  25  -3  221.38   37.80
   3  17  25  217.78   32.90
  -5  17  25  129.69   30.20
 -17  25   5  136.79   33.80
   5  17  25  136.09   27.90
 -17  25  -5  141.09   33.60
 -17  25   7  112.79   34.20
  -7  17  25   10.30   22.50
 -17  25  -7  -12.10   18.90
   7  17  25    4.70   19.00
  -9  17  25  220.18   36.20
 -17  25   9  154.98   37.80
 -17  25  -9  180.88   35.30
   9  17  25  201.58   31.70
 -11  17  25  247.48   38.90
 -17  25  11  259.37   44.10
 -25  11  17  298.97   44.60
 -17  25 -11  240.58   37.50
 -13  17  25  209.78   38.80
 -25  13  17  197.18   38.30
 -17  25  13  343.37   48.40
 -17  25 -13  308.07   39.80
 -17  25  15    8.10   26.20
 -15  17  25   10.30   26.40
 -25  15  17    7.50   24.80
 -17  25 -15   48.10   23.70
 -25  17  17   21.40   26.40
 -17  17  25    4.90   26.30
 -17  25  17   -6.50   28.00
 -17  25 -17  -21.00   19.80
 -19  17  25   83.39   30.40
 -17  25  19   67.09   33.10
 -25  19  17   37.50   29.50
 -17  25  21   27.40   34.10
 -25  21  17   66.19   35.30
 -21  17  25  105.79   34.00
 -25  23  17   49.30   35.00
 -23  17  25    9.50   29.90
 -17  25  23   94.69   37.90
 -19  25   1   -8.30   24.20
  -1  19  25    0.00   20.70
 -19  25  -1  -50.29   22.70
   1  19  25    1.20   19.90
  -3  19  25  269.27   36.40
 -19  25   3  243.28   40.90
 -19  25  -3  266.27   41.00
   3  19  25  280.57   38.30
 -19  25   5   79.49   30.30
  -5  19  25   88.89   29.20
 -19  25  -5  147.99   32.00
   5  19  25   90.89   28.00
  -7  19  25  458.05   50.39
 -19  25   7  593.84   61.09
 -19  25  -7  584.24   56.29
   7  19  25  589.14   52.19
  -9  19  25   34.90   25.50
 -19  25   9   53.49   28.90
 -19  25  -9   31.70   25.10
   9  19  25   25.30   23.50
 -25  11  19  202.18   39.80
 -11  19  25  143.09   35.50
 -19  25  11   71.49   31.20
  11  19  25  168.28   31.80
 -19  25 -11  168.48   34.00
 -19  25  13  -25.80   26.20
 -25  13  19   21.00   26.40
 -13  19  25   14.30   25.90
 -19  25 -13  -16.10   19.90
 -25  15  19   -9.40   24.70
 -19  25  15    0.70   25.40
 -15  19  25  -12.40   21.80
 -19  25 -15    9.00   21.90
 -19  25  17   70.69   32.70
 -25  17  19   90.39   35.50
 -17  19  25   63.79   33.40
 -19  25  19  122.49   37.40
 -25  19  19  124.09   38.60
 -19  19  25  155.38   38.70
 -19  25  21   88.59   36.70
 -25  21  19  116.19   34.10
 -21  19  25  253.67   46.40
 -25  23  19  145.19   43.80
 -19  25  23  148.29   38.80
 -23  19  25   41.90   33.10
 -21  25   1  115.29   32.80
  -1  21  25  103.19   30.60
   1  21  25  104.19   29.60
 -21  25  -1   73.69   30.00
  -3  21  25  -47.90   14.90
 -21  25   3  -28.90   24.00
   3  21  25    1.00   21.80
 -21  25  -3  -25.20   23.90
 -21  25   5  124.09   34.30
  -5  21  25   71.79   27.80
 -21  25  -5  130.89   35.20
   5  21  25  113.59   31.10
 -21  25   7  443.56   56.59
  -7  21  25  480.05   53.19
 -21  25  -7  541.25   56.39
   7  21  25  542.55   52.79
  -9  21  25  -13.10   23.00
 -21  25   9  -15.60   25.40
   9  21  25    1.50   23.10
 -21  25  -9   -2.30   23.90
 -11  21  25  438.46   51.19
 -21  25  11  491.45   60.59
 -25  11  21  508.85   54.49
  11  21  25  442.66   49.50
 -21  25 -11  476.25   51.49
 -13  21  25   -2.90   23.70
 -25  13  21   37.60   28.60
 -21  25  13   29.20   28.50
 -21  25 -13   20.00   23.60
 -15  21  25    0.80   28.30
 -21  25  15   25.90   29.20
 -25  15  21   -0.60   28.80
 -21  25 -15   35.30   24.90
 -17  21  25   36.40   28.30
 -21  25  17   59.69   32.80
 -25  17  21   -1.70   24.90
 -21  25  19  116.39   34.90
 -19  21  25  171.98   38.00
 -25  19  21  154.28   39.60
 -21  21  25  261.27   44.90
 -21  25  21  292.47   50.19
 -25  21  21  202.88   46.30
 -23  21  25  127.29   42.40
 -21  25  23  203.98   44.60
 -25  23  21  188.78   43.60
 -23  25   1  306.67   47.00
  -1  23  25  311.47   44.60
   1  23  25  212.38   38.40
 -23  25  -1  322.27   47.10
 -23  25   3   74.59   32.50
  -3  23  25  118.19   32.20
 -23  25  -3   34.90   26.30
   3  23  25   36.80   27.80
 -23  25   5   46.70   30.20
  -5  23  25   52.29   27.20
   5  23  25   55.49   25.70
 -23  25  -5   50.59   30.70
 -23  25   7  135.79   39.10
  -7  23  25  141.39   37.30
   7  23  25  166.18   35.30
 -23  25  -7  144.09   34.40
 -23  25   9   90.29   31.80
  -9  23  25   53.39   30.90
 -23  25  -9   57.39   27.90
   9  23  25   74.89   28.00
 -11  23  25  369.16   52.79
 -23  25  11  357.66   52.29
  11  23  25  369.06   48.20
 -23  25 -11  421.06   48.50
 -23  25  13   73.29   33.10
 -13  23  25   60.59   31.40
 -25  13  23    9.20   28.40
 -23  25 -13   77.49   29.00
 -15  23  25   10.10   30.30
 -23  25  15   22.80   32.20
 -25  15  23   42.50   29.40
 -23  25 -15   49.00   26.90
 -23  25  17   31.60   30.50
 -17  23  25   24.80   27.80
 -25  17  23   36.00   31.10
 -19  23  25   51.29   32.90
 -25  19  23  -17.60   31.60
 -23  25  19   71.79   33.60
 -21  23  25  209.08   46.60
 -23  25  21  230.08   50.09
 -25  21  23  117.59   38.50
 -25  23  23   60.89   33.90
 -23  23  25  201.68   46.40
 -23  25  23   80.19   38.00
  -1  25  25   44.10   30.20
 -25  25   1   34.80   28.30
 -25  25  -1   39.40   28.90
   1  25  25   43.30   28.40
  -3  25  25  316.37   46.90
 -25  25   3  345.27   50.39
 -25  25  -3  347.17   52.19
   3  25  25  357.86   47.50
  -5  25  25   66.49   33.00
 -25  25   5   96.99   37.00
 -25  25  -5  165.88   39.80
   5  25  25   89.59   33.30
  -7  25  25  670.73   65.59
 -25  25   7  589.94   65.39
 -25  25  -7  640.44   62.49
   7  25  25  563.54   58.19
  -9  25  25   65.39   34.70
 -25  25   9  112.89   37.20
 -25  25  -9  119.79   35.90
   9  25  25   97.49   34.30
 -11  25  25   85.59   33.50
 -25  25  11   87.89   37.50
 -25  25 -11   10.60   25.00
  11  25  25   20.50   27.30
 -25  13  25   33.30   31.40
 -13  25  25   11.30   30.90
 -25  25  13   -2.80   27.40
 -25  25 -13   32.30   27.20
  13  25  25   -5.50   29.50
 -25  15  25  163.88   38.60
 -15  25  25   94.99   33.90
 -25  25  15   63.89   37.20
 -25  25 -15  122.59   32.10
 -25  17  25    7.50   29.60
 -25  25  17   15.60   33.60
 -17  25  25  -23.30   28.80
 -25  19  25  205.58   47.30
 -25  25  19  121.09   39.40
 -25  21  25   85.39   36.00
 -25  25  21  118.89   42.50
 -21  25  25   98.99   35.70
 -25  23  25   23.80   30.80
 -25  25  23    1.90   30.20
 -23  25  25   -2.10   34.60
   0  26   0   34.20   22.90
   0  26   2  317.47   40.70
   0  26  -2  303.57   38.50
   0  26   4    8.20   19.30
   0  26  -4    4.00   20.60
   0  26  -6  342.77   40.60
   0  26   6  297.27   40.60
   0  26  -8   24.60   18.80
   0  26   8    9.20   21.90
   0  26 -10  250.77   33.00
   0  26  10  251.77   37.60
   0  26  12   -0.50   19.40
   0  26 -12   31.90   19.80
 -26  12   0  -12.90   18.30
   0  26  14 2347.67  116.09
 -26  14   0 2292.47  114.89
   0  26 -14 2202.38  105.09
 -26  16   0  -18.80   24.30
   0  26  16   12.10   21.90
   0  26 -16    3.00   18.20
   0  26  18 1540.35   94.19
   0  26 -18 1860.91   86.09
 -26  18   0 1761.32   98.39
 -26  20   0    2.30   26.70
   0  26  20  -30.50   23.00
 -26  22   0   63.99   32.70
   0  26  22   98.79   32.00
 -26  24   0  -16.30   25.40
   0  26  24   -2.80   26.90
   2  26   0  290.87   38.60
  -2  26   0  294.97   39.10
   0   2  26  256.07   19.70
   2  26  -2   73.99   26.00
  -2  26   2   88.59   27.30
  -2   2  26   76.89   13.40
  -2  26  -2   68.19   24.00
   2  26   2   34.00   21.40
  -4   2  26  121.49   16.40
   2  26  -4  109.39   26.30
  -2  26   4  126.39   30.40
  -2  26  -4  166.38   29.00
   2  26   4   98.69   26.10
   2  26  -6  -23.80   16.30
  -2  26   6   -6.40   19.80
   2  26   6   -7.20   19.80
  -2  26  -6   -8.80   18.90
  -2  26   8   26.90   22.40
   2  26  -8   16.00   20.90
  -2  26  -8   51.49   20.70
   2  26   8   13.00   21.70
   2  26 -10  170.28   28.00
  -2  26  10  152.38   31.40
   2  26  10  110.39   31.60
  -2  26 -10  125.79   28.40
  -2  26  12  -20.00   19.10
 -26  12   2   13.30   22.10
   2  26 -12  -12.20   16.60
  -2  26 -12   13.70   19.10
   2  26  12   -2.10   21.40
 -26  14   2   -5.80   23.90
  -2  26  14   34.10   25.50
   2  26 -14   -9.00   16.90
 -26  14  -2    3.80   20.80
   2  26  14   -6.20   21.20
  -2  26 -14    7.50   19.50
   2  26 -16   72.49   23.00
  -2  26  16   40.00   29.10
 -26  16   2   39.80   25.50
   2  26  16   22.50   27.10
 -26  16  -2  127.89   33.10
  -2  26 -16  120.49   24.00
  -2  26  18   87.19   31.40
   2  26 -18   60.79   21.90
 -26  18   2   27.20   26.70
  -2  26 -18   29.30   18.50
 -26  18  -2   75.69   31.30
   2  26  18   80.89   28.40
  -2  26  20   74.39   28.30
   2  26 -20   52.09   21.00
 -26  20   2   11.00   26.40
   2  26  20   97.89   31.80
 -26  20  -2   41.30   26.60
 -26  22   2  144.39   40.10
  -2  26  22  152.28   38.50
 -26  22  -2  116.49   32.60
   2  26  22  122.69   33.10
  -2  26  24   45.10   28.50
 -26  24   2  103.59   34.30
   2  26  24  109.89   34.50
 -26  24  -2   86.09   34.80
   0   4  26   11.60   10.60
  -4  26   0   -4.10   18.30
  -2   4  26  138.89   17.80
  -4  26   2  175.08   33.70
  -4  26  -2  177.28   29.80
   2   4  26  136.19   16.60
  -4  26   4  529.65   51.29
  -4   4  26  466.65   31.90
   4   4  26  453.55   28.80
  -4  26  -4  476.85   45.80
  -6   4  26  184.08   22.80
  -4  26   6  232.98   36.20
  -4  26  -6  129.39   28.20
  -4  26   8  225.88   35.90
  -8   4  26  219.38   25.70
  -4  26  -8  260.17   35.50
   4  26   8  291.07   39.30
  -4  26  10   38.00   24.40
 -10   4  26   11.30   15.80
   4  26  10   33.90   22.90
  -4  26 -10    8.20   17.10
  -4  26  12   27.50   23.70
 -26  12   4   20.90   23.60
   4  26  12   31.50   25.80
  -4  26 -12   15.40   19.80
 -26  14   4  469.75   51.69
  -4  26  14  547.05   57.79
  -4  26 -14  613.14   46.10
   4  26  14  564.44   56.29
 -26  14  -4  472.65   52.29
 -26  16   4  148.59   34.20
  -4  26  16  119.49   32.30
   4  26  16  107.89   29.60
 -26  16  -4  134.09   31.40
  -4  26 -16  107.09   25.40
  -4  26  18  509.45   54.79
 -26  18   4  529.85   56.99
   4  26  18  486.05   54.99
 -26  18  -4  508.25   54.09
  -4  26 -18  557.24   42.70
   4  26 -20    3.80   16.70
 -26  20   4   49.60   29.20
  -4  26  20   33.00   26.40
   4  26  20   25.60   26.10
 -26  20  -4   10.50   24.30
  -4  26  22   71.09   32.20
 -26  22   4    6.30   28.20
   4  26  22   26.50   28.60
 -26  22  -4   -7.00   23.70
  -4  26  24  125.59   32.90
 -26  24   4   93.39   33.80
   4  26  24  111.69   35.70
 -26  24  -4   87.19   34.20
  -6  26   0  320.27   40.40
   0   6  26  328.97   27.40
  -2   6  26    8.80   13.30
  -6  26   2  -22.10   17.60
  -6  26  -2   25.30   21.10
   2   6  26   -1.30   11.50
  -4   6  26  232.78   25.00
  -6  26   4  201.68   36.10
  -6  26  -4  189.98   33.00
   4   6  26  203.38   21.60
  -6  26   6    9.20   23.00
  -6   6  26   -3.10   13.10
  -6  26  -6   -0.80   20.30
   6   6  26    7.40   11.40
  -8   6  26  127.59   22.00
  -6  26   8  132.79   30.00
  -6  26  -8  122.09   27.80
   8   6  26  104.49   16.90
 -10   6  26   34.50   18.20
  -6  26  10  -18.10   23.20
  10   6  26   23.20   18.20
  -6  26 -10   11.00   20.40
 -26  12   6  -28.80   19.80
  -6  26  12   23.80   24.30
 -12   6  26    2.40   16.70
  -6  26 -12   21.10   20.90
 -26  14   6   -9.80   21.60
 -14   6  26   14.90   19.10
  -6  26  14   24.90   27.50
  -6  26 -14   29.90   21.10
   6  26  14   28.00   27.10
 -26  16   6  378.96   48.10
  -6  26  16  417.76   49.60
  -6  26 -16  302.97   36.70
 -26  16  -6  411.96   47.70
   6  26  16  348.07   45.70
 -26  18   6  -15.90   26.50
  -6  26  18   61.49   30.90
   6  26  18    0.70   26.00
  -6  26 -18   20.40   18.50
 -26  18  -6   22.80   25.80
 -26  20   6  639.14   65.59
  -6  26  20  680.83   66.19
   6  26  20  591.54   60.79
 -26  20  -6  587.04   59.89
  -6  26  22   96.59   33.30
 -26  22   6   39.30   28.80
   6  26  22   18.70   27.10
 -26  22  -6    2.20   28.50
 -26  24   6  538.25   62.59
  -6  26  24  403.66   51.69
 -26  24  -6  455.55   56.49
   6  26  24  603.14   59.99
   0   8  26  -18.60   12.30
  -8  26   0  -24.40   20.00
  -2   8  26   13.80   14.20
  -8  26   2   14.00   22.20
   2   8  26   45.20   15.60
  -8  26  -2   21.70   21.30
  -8  26   4  224.98   35.60
  -4   8  26  248.58   28.10
   4   8  26  191.28   23.30
  -8  26  -4  280.87   38.50
  -6   8  26  113.99   22.20
  -8  26   6  117.09   30.00
   6   8  26  102.29   18.40
  -8  26  -6   80.49   27.00
  -8   8  26  199.78   28.00
  -8  26   8  181.08   35.30
   8   8  26  204.78   23.60
  -8  26  -8  215.38   31.90
  -8  26  10  247.48   41.30
 -10   8  26  255.17   31.80
  10   8  26  245.58   26.10
  -8  26 -10  240.08   33.60
 -26  12   8   10.90   23.30
  -8  26  12   32.90   25.00
 -12   8  26   20.60   19.80
  -8  26 -12   15.40   20.40
 -26  14   8  186.68   36.70
  -8  26  14  207.28   38.00
 -14   8  26  132.79   28.80
  -8  26 -14  202.38   31.10
 -26  16   8  227.88   40.60
 -16   8  26  134.19   29.60
  -8  26  16  217.88   40.20
  -8  26 -16  201.68   31.00
 -26  16  -8  195.88   34.00
 -18   8  26   45.30   23.70
 -26  18   8    8.10   24.90
  -8  26  18   55.39   28.80
   8  26  18   68.79   28.00
  -8  26 -18   43.60   21.40
 -26  18  -8   87.89   29.50
  -8  26  20    3.90   27.90
 -26  20   8   36.10   29.20
   8  26  20  -24.80   20.80
 -26  20  -8   39.90   26.30
 -26  22   8  -35.20   28.50
  -8  26  22    7.60   27.80
   8  26  22    8.20   25.30
 -26  22  -8  -14.30   24.10
 -26  24   8  211.28   46.10
  -8  26  24   89.29   31.10
   8  26  24  146.39   36.70
 -26  24  -8  102.79   34.90
 -10  26   0  269.17   40.20
   0  10  26  297.57   31.70
  -2  10  26  162.68   25.10
 -10  26   2   97.79   29.40
   2  10  26  120.39   22.00
 -10  26  -2  189.38   33.10
  -4  10  26  -19.00   14.90
 -10  26   4   10.20   21.20
 -10  26  -4   11.20   20.20
   4  10  26   18.10   15.10
 -10  26   6   37.20   26.10
  -6  10  26    8.20   15.50
 -10  26  -6  -11.50   20.70
   6  10  26   24.00   14.70
 -10  26   8  317.77   45.10
  -8  10  26  273.17   33.40
   8  10  26  223.78   26.60
 -10  26  -8  237.18   34.40
 -10  10  26  320.07   36.90
 -10  26  10  336.77   46.00
 -10  26 -10  383.86   43.60
  10  10  26  390.56   34.60
 -12  10  26  390.46   42.30
 -10  26  12  462.65   51.49
 -26  12  10  394.86   48.40
 -10  26 -12  412.56   43.30
 -26  14  10   47.00   28.60
 -14  10  26   42.20   22.40
 -10  26  14   33.60   26.40
 -10  26 -14   83.79   24.60
 -26  16  10   28.30   28.40
 -16  10  26    5.40   20.70
 -10  26  16  -35.00   20.30
 -10  26 -16   17.00   20.60
 -26  18  10  129.29   34.10
 -10  26  18  111.69   32.30
 -18  10  26  159.58   32.30
 -26  18 -10  162.88   32.60
 -10  26 -18  132.79   27.30
 -26  20  10  308.47   49.60
 -20  10  26  317.77   44.00
 -10  26  20  364.36   49.60
 -26  20 -10  419.76   47.30
 -22  10  26  239.08   40.30
 -10  26  22  377.66   52.09
 -26  22  10  372.56   54.69
 -26  22 -10  289.77   43.80
  10  26  22  328.77   47.80
 -10  26  24  200.08   44.50
 -26  24  10  245.28   48.00
 -26  24 -10  246.18   42.80
  10  26  24  221.78   41.70
 -12  26   0   -4.80   23.20
   0  12  26   -3.90   16.30
  -2  12  26    5.30   15.30
 -12  26   2   -1.30   20.80
 -12  26  -2    6.10   20.70
   2  12  26   -8.30   15.50
  -4  12  26   75.79   21.60
 -12  26   4   37.60   25.10
   4  12  26   31.80   17.30
 -12  26  -4   14.20   21.40
 -12  26   6   11.00   23.20
  -6  12  26   16.50   19.40
   6  12  26   24.60   17.10
 -12  26  -6   -0.60   20.80
  -8  12  26   19.50   19.40
 -12  26   8   42.10   28.20
   8  12  26   21.20   17.30
 -12  26  -8   41.00   23.70
 -10  12  26  431.06   43.90
 -12  26  10  428.56   52.39
  10  12  26  419.96   37.90
 -12  26 -10  415.16   43.70
 -26  12  12  -31.30   20.70
 -12  26  12    8.10   23.20
 -12  12  26   12.90   20.20
 -12  26 -12   33.20   21.30
 -12  26  14  825.62   73.79
 -26  14  12  792.32   72.29
 -14  12  26  791.82   59.59
 -12  26 -14  869.91   58.59
 -16  12  26   -9.10   20.70
 -26  16  12   -5.50   25.10
 -12  26  16   26.70   29.40
 -12  26 -16   35.50   20.70
 -18  12  26  483.05   51.49
 -12  26  18  406.36   53.49
 -26  18  12  411.36   53.29
 -12  26  20   28.80   26.20
 -20  12  26    9.70   24.70
 -26  20  12   -1.10   28.50
 -26  20 -12  -11.90   22.80
 -22  12  26  -40.60   21.70
 -12  26  22   69.89   33.60
 -26  22  12   28.30   28.20
 -26  22 -12  -14.30   23.20
 -24  12  26  -12.90   26.70
 -26  24  12   23.00   29.50
 -12  26  24   -3.40   21.70
 -26  24 -12    6.70   24.70
  12  26  24  -18.40   25.90
   0  14  26 1883.31   92.89
 -14  26   0 2056.09  105.29
  -2  14  26   -0.40   16.90
 -14  26   2   21.20   26.00
 -14  26  -2   61.39   25.40
   2  14  26   16.00   17.70
  -4  14  26  538.75   47.40
 -14  26   4  571.04   57.99
 -14  26  -4  531.95   52.39
   4  14  26  479.25   42.90
  -6  14  26   32.10   20.40
 -14  26   6   28.90   25.60
   6  14  26   47.70   19.60
 -14  26  -6   24.60   24.30
  -8  14  26  121.59   27.90
 -14  26   8  149.69   36.70
 -14  26  -8  183.38   34.30
   8  14  26  196.28   28.60
 -10  14  26   33.80   23.90
 -14  26  10   43.90   27.30
 -14  26 -10   41.70   24.00
  10  14  26   48.70   20.00
 -26  12  14  785.92   64.29
 -12  14  26  877.71   61.59
 -14  26  12  810.12   71.79
 -14  26 -12  840.02   61.19
 -26  14  14  -29.00   19.70
 -14  14  26   20.50   23.10
 -14  26  14   16.80   23.80
 -14  26 -14  -12.50   20.20
 -14  26  16  143.39   39.30
 -26  16  14  107.19   32.60
 -16  14  26   93.49   30.50
 -14  26 -16   86.59   26.80
 -14  26  18   35.30   30.10
 -26  18  14   -3.20   25.70
 -18  14  26   17.60   25.00
 -20  14  26   39.70   29.30
 -14  26  20   39.60   33.30
 -26  20  14   39.40   29.00
 -22  14  26   27.50   25.80
 -14  26  22   98.29   33.50
 -26  22  14   76.49   37.30
 -26  22 -14   56.99   28.50
 -14  26  24  -21.00   29.30
 -24  14  26   10.20   28.20
 -26  24  14   12.30   32.50
 -26  24 -14    0.30   24.20
   0  16  26   -0.50   18.90
 -16  26   0   17.20   23.70
 -16  26   2   37.00   29.80
  -2  16  26   72.19   24.30
 -16  26  -2   66.69   26.90
   2  16  26   83.09   23.50
 -16  26   4  138.09   36.10
  -4  16  26  219.78   33.90
 -16  26  -4  183.08   37.90
   4  16  26  164.78   28.70
  -6  16  26  269.37   37.00
 -16  26   6  240.08   44.70
 -16  26  -6  323.07   44.30
   6  16  26  338.37   37.20
 -16  26   8  166.48   36.20
  -8  16  26  142.89   31.40
 -16  26  -8  235.38   38.60
   8  16  26  132.19   26.50
 -16  26  10   47.00   26.30
 -10  16  26   17.10   22.10
 -16  26 -10  -25.00   22.00
  10  16  26   25.80   20.20
 -12  16  26  -21.10   20.20
 -16  26  12   23.20   28.60
 -26  12  16   25.30   24.80
 -16  26 -12   27.10   23.40
 -14  16  26  123.09   30.40
 -26  14  16  153.18   39.20
 -16  26  14   80.69   32.70
 -16  26 -14  116.99   29.30
 -16  26  16  137.59   39.20
 -26  16  16  103.79   33.60
 -16  16  26   87.19   29.80
 -16  26 -16   67.29   26.50
 -16  26  18  156.28   39.00
 -26  18  16  130.49   41.00
 -18  16  26  153.58   36.70
 -26  20  16   31.30   28.40
 -16  26  20   13.50   26.10
 -20  16  26   36.20   30.30
 -22  16  26   -3.50   23.60
 -26  22  16  -21.30   27.40
 -16  26  22  -22.70   29.20
 -16  26  24   56.39   32.80
 -24  16  26   82.89   36.40
 -26  24  16   56.99   36.50
   0  18  26 1824.32   93.09
 -18  26   0 1737.93   99.59
  -2  18  26   47.50   24.60
 -18  26   2   60.09   32.40
 -18  26  -2   45.80   28.40
   2  18  26   56.19   23.50
  -4  18  26  544.95   52.19
 -18  26   4  506.45   56.29
 -18  26  -4  563.84   57.29
   4  18  26  546.15   49.40
  -6  18  26  -11.30   20.90
 -18  26   6  -21.50   23.20
 -18  26  -6   -4.90   25.50
   6  18  26   25.60   22.10
  -8  18  26   96.99   27.40
 -18  26   8   53.39   29.70
 -18  26  -8   74.79   26.60
   8  18  26   84.19   25.70
 -10  18  26  150.18   35.20
 -18  26  10  171.18   39.00
 -18  26 -10  151.78   35.10
  10  18  26   75.19   25.90
 -18  26  12  505.05   61.09
 -12  18  26  587.14   57.19
 -26  12  18  402.16   50.59
 -18  26 -12  432.16   47.80
 -18  26  14   -1.40   25.70
 -14  18  26    4.10   24.60
 -26  14  18   10.40   30.30
 -18  26 -14    8.70   22.80
 -16  18  26  155.08   34.30
 -18  26  16  156.58   38.80
 -26  16  18  191.88   40.00
 -18  26 -16   93.99   28.00
 -26  18  18   22.90   33.10
 -18  26  18   45.80   34.10
 -18  18  26   80.19   30.90
 -26  20  18  -20.80   25.10
 -20  18  26   44.30   28.80
 -18  26  20  -26.10   29.70
 -18  26  22  174.98   44.40
 -26  22  18  127.09   41.40
 -22  18  26   98.19   37.40
 -26  24  18  -38.10   29.60
 -18  26  24  -67.79   21.40
 -24  18  26   -4.50   26.40
 -20  26   0  -17.40   26.40
   0  20  26    7.40   22.10
 -20  26   2   13.00   24.70
  -2  20  26   21.10   23.00
 -20  26  -2   57.69   29.20
   2  20  26   73.19   26.00
 -20  26   4   45.90   32.20
  -4  20  26   18.50   24.00
   4  20  26   28.90   22.30
 -20  26  -4  -28.70   23.70
 -20  26   6  554.64   59.39
  -6  20  26  592.04   56.79
 -20  26  -6  630.04   62.19
   6  20  26  650.33   52.89
  -8  20  26    2.10   25.20
 -20  26   8   23.40   26.30
   8  20  26   30.30   22.50
 -20  26  -8   11.90   23.60
 -20  26  10  375.86   51.59
 -10  20  26  283.87   43.40
 -20  26 -10  387.66   47.00
  10  20  26  318.07   41.70
 -12  20  26    5.50   24.50
 -26  12  20  -14.90   22.80
 -20  26  12  -25.40   27.90
  12  20  26   -8.80   21.70
 -20  26 -12   14.40   23.20
 -20  26  14    6.90   31.10
 -26  14  20   59.19   30.90
 -14  20  26   75.19   33.30
 -20  26 -14   29.50   27.10
 -20  26  16  -45.30   26.40
 -26  16  20   26.70   27.80
 -16  20  26   17.00   24.20
 -20  26 -16  -28.20   20.60
 -26  18  20   45.60   29.90
 -20  26  18  -12.40   26.50
 -18  20  26  -31.00   25.20
 -26  20  20   23.90   28.60
 -20  26  20  -24.20   27.40
 -20  20  26   16.80   26.00
 -26  22  20   16.90   30.60
 -22  20  26   -8.50   29.60
 -20  26  22   46.60   32.70
 -26  24  20   80.29   33.90
 -20  26  24   15.90   28.80
 -24  20  26  -63.49   28.90
   0  22  26   65.99   28.10
 -22  26   0    9.00   25.40
  -2  22  26  141.79   32.80
 -22  26   2  171.08   39.50
 -22  26  -2  234.68   41.20
   2  22  26  175.58   35.00
 -22  26   4  -34.50   25.10
  -4  22  26   -5.70   24.50
 -22  26  -4   11.10   27.00
   4  22  26   16.10   23.50
 -22  26   6   33.40   28.90
  -6  22  26   50.79   28.90
   6  22  26   18.70   24.90
 -22  26  -6   79.59   31.40
  -8  22  26   13.90   25.40
 -22  26   8   54.09   31.10
 -22  26  -8   41.10   27.70
   8  22  26    0.00   22.60
 -22  26  10  228.98   48.70
 -10  22  26  277.67   42.60
 -22  26 -10  329.47   45.80
  10  22  26  444.76   48.30
 -26  12  22    8.60   27.40
 -22  26  12   21.80   27.30
 -12  22  26  -72.79   21.60
  12  22  26    8.80   24.60
 -22  26 -12  -35.90   21.40
 -22  26  14   45.10   27.90
 -26  14  22   68.79   33.80
 -14  22  26   52.59   31.40
 -22  26 -14   94.29   29.80
 -26  16  22  -14.90   27.80
 -16  22  26   25.80   29.90
 -22  26  16   25.10   27.70
 -18  22  26   43.00   33.40
 -22  26  18  134.19   38.20
 -26  18  22  117.39   37.90
 -26  20  22    2.20   32.60
 -20  22  26    0.60   31.00
 -22  26  20    4.10   27.90
 -22  22  26  364.96   57.09
 -22  26  22  309.47   54.79
 -26  22  22  284.67   52.79
 -24  22  26   41.20   31.50
 -26  24  22  -29.90   30.70
 -22  26  24   23.20   35.10
 -24  26   0   -2.30   25.60
   0  24  26  -61.49   21.30
  -2  24  26   21.20   28.00
 -24  26   2  172.38   39.40
 -24  26  -2   50.09   31.00
   2  24  26  138.69   33.60
  -4  24  26  169.58   37.80
 -24  26   4  149.59   38.00
   4  24  26  129.29   34.00
 -24  26  -4  154.68   38.00
  -6  24  26  452.05   55.59
 -24  26   6  616.14   66.99
 -24  26  -6  524.15   57.19
   6  24  26  503.95   55.39
  -8  24  26   72.69   33.50
 -24  26   8  167.98   44.10
 -24  26  -8  146.79   37.80
   8  24  26  145.09   35.10
 -24  26  10  235.28   46.30
 -10  24  26  192.38   41.80
  10  24  26  230.88   40.60
 -24  26 -10  258.27   43.40
 -12  24  26    1.20   29.20
 -24  26  12  -65.69   22.60
 -24  26 -12  -52.39   22.20
  12  24  26  -33.80   21.90
 -26  14  24   -2.90   28.00
 -14  24  26  -35.00   25.60
 -24  26  14    4.70   27.60
 -24  26 -14    8.00   25.40
 -16  24  26   44.60   34.20
 -24  26  16   61.89   34.20
 -26  16  24   50.99   33.90
 -26  18  24  -29.80   26.50
 -24  26  18  -15.00   26.30
 -18  24  26   12.40   26.00
 -24  26  20  -18.00   30.20
 -20  24  26  -29.00   29.20
 -26  20  24   34.10   34.10
 -22  24  26   62.69   37.80
 -26  22  24  -63.29   23.60
 -24  26  22   28.90   32.10
 -26  26   0 1422.46   95.99
   0  26  26 1339.37   88.19
  -2  26  26   -3.10   23.60
 -26  26   2   35.80   29.50
 -26  26  -2   16.00   30.90
   2  26  26   28.90   28.10
  -4  26  26  339.57   48.00
 -26  26   4  383.36   56.69
 -26  26  -4  397.86   54.59
   4  26  26  398.26   49.50
  -6  26  26    7.40   28.80
 -26  26   6    0.30   27.60
 -26  26  -6   49.20   31.00
   6  26  26   20.80   27.90
  -8  26  26    7.70   28.70
 -26  26   8   77.09   33.70
 -26  26  -8   40.70   27.10
   8  26  26   32.30   27.70
 -10  26  26   18.40   30.00
 -26  26  10    3.00   28.60
 -26  26 -10   17.80   25.90
  10  26  26  -40.90   21.80
 -12  26  26  393.76   54.29
 -26  26  12  418.06   59.29
 -26  26 -12  412.06   52.29
  12  26  26  533.65   58.49
 -26  14  26   34.30   32.30
 -14  26  26  -39.30   29.60
 -26  26  14   -1.20   28.50
 -26  26 -14    0.60   25.70
  14  26  26   43.90   29.20
 -26  16  26  138.69   41.80
 -26  26  16  159.58   43.00
 -16  26  26  184.48   44.80
 -26  18  26   30.00   33.30
 -26  26  18    5.00   29.00
 -18  26  26   -9.50   33.00
 -26  20  26   17.20   34.80
 -26  26  20   24.40   31.80
 -20  26  26  -28.10   26.90
   1  27  -1  357.06   41.50
  -1  27   1  333.57   43.10
  -1  27  -1  345.67   41.20
   1  27   1  309.97   40.80
   1  27  -3   -5.70   21.20
  -1  27   3   20.90   24.90
  -1  27  -3  -12.30   20.80
   1  27   3    4.00   21.50
   1  27  -5  445.16   44.50
  -1  27   5  362.26   44.00
   1  27   5  428.26   48.30
  -1  27  -5  412.46   45.30
  -1  27   7  113.69   30.90
   1  27  -7   52.19   24.20
   1  27   7   53.59   26.00
  -1  27  -7  107.49   26.40
  -1  27   9   93.19   30.60
   1  27  -9   70.39   22.60
   1  27   9   93.79   30.80
  -1  27  -9  119.69   28.50
  -1  27  11  -28.00   21.50
   1  27 -11   44.40   21.60
  -1  27 -11   16.50   19.40
   1  27  11   27.20   24.00
  -1  27  13  877.81   66.29
   1  27 -13  947.61   60.79
 -27  13   1  924.41   66.39
  -1  27 -13  958.60   61.89
   1  27  13  912.71   69.19
  -1  27  15  574.24   57.09
   1  27 -15  540.45   47.10
 -27  15   1  496.65   55.49
  -1  27 -15  488.65   45.80
   1  27  15  525.75   55.69
 -27  15  -1  424.66   50.49
   1  27 -17  688.53   50.39
  -1  27  17  790.82   67.79
 -27  17   1  667.83   66.09
 -27  17  -1  601.04   60.29
   1  27  17  661.53   64.29
  -1  27 -17  647.54   49.00
   1  27 -19  338.57   38.00
  -1  27  19  380.96   48.60
 -27  19   1  400.96   51.49
  -1  27 -19  406.56   39.60
   1  27  19  464.15   54.79
 -27  19  -1  489.05   56.79
  -1  27  21  -27.40   22.70
 -27  21   1   -0.70   25.90
 -27  21  -1   12.30   28.50
   1  27  21   31.00   28.90
  -1  27  23   48.40   28.90
 -27  23   1   32.60   30.70
 -27  23  -1   85.39   32.90
   1  27  23   16.50   26.80
  -1  27  25  320.87   50.09
 -27  25   1  284.97   48.00
   1  27  25  310.17   45.10
 -27  25  -1  285.47   48.60
  -3  27   1   15.70   20.50
  -3  27  -1   13.80   20.50
  -3   3  27   59.89   13.80
  -3  27   3   56.29   24.30
   3  27   3   66.29   25.50
  -3  27  -3   76.69   27.20
  -3  27   5   -2.20   20.20
  -5   3  27   -3.80   11.60
  -3  27  -5   15.80   19.90
   3  27   5  -19.10   21.80
  -3  27   7  115.39   28.10
  -7   3  27   81.39   17.70
  -3  27  -7   95.09   27.50
   3  27   7  167.08   33.40
  -3  27   9   42.60   26.70
  -3  27  -9   69.29   25.00
   3  27   9   62.49   26.60
  -3  27  11    2.40   24.90
   3  27  11   -8.10   22.50
  -3  27 -11   25.00   20.70
  -3  27  13  189.88   36.60
 -27  13   3  152.68   36.60
   3  27  13  141.69   33.50
  -3  27 -13  167.08   30.70
  -3  27  15  214.78   38.90
 -27  15   3  281.67   42.30
   3  27 -15  271.27   35.40
 -27  15  -3  344.67   44.10
   3  27  15  269.07   42.00
  -3  27 -15  290.87   35.10
   3  27 -17   25.40   22.30
  -3  27  17   46.60   27.40
 -27  17   3   39.40   26.90
  -3  27 -17   60.19   23.60
   3  27  17   27.10   25.30
 -27  17  -3   36.50   27.30
 -27  19   3  299.37   45.40
  -3  27  19  296.57   44.20
   3  27 -19  240.48   33.60
  -3  27 -19  339.77   37.70
   3  27  19  240.38   43.10
 -27  19  -3  316.17   46.10
 -27  21   3   80.59   32.80
  -3  27  21   71.29   31.90
 -27  21  -3   48.80   27.70
   3  27  21   92.29   33.20
  -3  27  23   -2.40   27.80
 -27  23   3   39.20   33.30
   3  27  23   17.90   28.10
 -27  23  -3   49.80   32.80
 -27  25   3  153.78   42.20
  -3  27  25  227.78   42.90
 -27  25  -3  236.88   44.70
   3  27  25  203.28   42.00
  -1   5  27  370.06   28.70
  -5  27   1  349.96   43.30
   1   5  27  404.76   30.60
  -5  27  -1  411.46   44.90
  -3   5  27   12.80   12.80
  -5  27   3    8.30   21.80
  -5  27  -3    6.70   20.20
  -5   5  27  421.66   32.10
  -5  27   5  472.75   50.59
  -5  27  -5  452.25   47.40
  -7   5  27   44.00   16.50
  -5  27   7   68.99   25.60
  -5  27  -7   80.79   26.40
  -5  27   9   26.90   26.00
  -9   5  27   26.50   16.50
  -5  27  -9   25.70   21.20
 -11   5  27   32.50   17.30
  -5  27  11    4.00   25.20
   5  27  11    5.10   23.30
  -5  27 -11    1.50   19.70
  -5  27  13  223.98   40.90
 -27  13   5  280.57   42.10
  -5  27 -13  264.77   34.90
   5  27  13  225.98   38.40
  -5  27  15   82.79   30.30
 -27  15   5  106.99   32.60
  -5  27 -15  105.69   25.30
 -27  15  -5   80.49   27.40
   5  27  15   89.49   30.30
  -5  27  17  707.13   67.29
 -27  17   5  685.83   65.39
 -27  17  -5  717.43   63.49
   5  27  17  638.84   62.09
  -5  27 -17  566.34   50.29
  -5  27  19  -16.60   23.20
 -27  19   5   21.40   27.20
 -27  19  -5   25.10   27.70
   5  27  19   -2.30   23.50
 -27  21   5  126.89   36.30
  -5  27  21  202.38   40.30
   5  27  21  114.49   36.60
 -27  21  -5  204.48   40.20
  -5  27  23  241.98   44.10
 -27  23   5  331.77   52.19
   5  27  23  256.77   45.40
 -27  23  -5  252.87   46.20
  -5  27  25   82.69   31.20
 -27  25   5   13.40   32.00
 -27  25  -5   24.40   26.50
   5  27  25   34.90   26.50
  -7  27   1   80.09   26.20
  -1   7  27  105.89   19.30
  -7  27  -1   59.09   24.40
   1   7  27   71.19   17.40
  -7  27   3  160.18   33.80
  -3   7  27  115.29   20.20
  -7  27  -3   37.50   25.50
   3   7  27   96.29   17.50
  -7  27   5   82.19   28.40
  -5   7  27   78.09   18.90
   5   7  27   89.69   20.20
  -7  27  -5  108.59   26.70
  -7  27   7   56.09   27.90
  -7   7  27   82.69   19.90
  -7  27  -7   33.20   24.30
  -7  27   9   -2.50   21.10
  -9   7  27    6.30   16.60
  -7  27  -9   29.80   21.50
  -7  27  11   64.19   28.50
 -11   7  27   63.49   20.90
  -7  27 -11   54.89   22.70
 -13   7  27  339.47   36.70
  -7  27  13  220.48   39.50
 -27  13   7  248.18   43.40
  -7  27 -13  244.78   34.60
  -7  27  15   -7.30   25.40
 -15   7  27   33.90   21.20
 -27  15   7  -32.50   21.20
  -7  27 -15  -15.70   18.40
   7  27  15  -33.80   20.60
  -7  27  17  162.98   37.70
 -27  17   7  278.67   46.80
  -7  27 -17  262.37   34.50
 -27  17  -7  314.27   43.60
   7  27  17  209.18   40.90
  -7  27  19    7.60   26.60
 -27  19   7   40.10   29.50
   7  27  19    3.20   27.00
 -27  19  -7   73.19   29.70
 -27  21   7   60.19   34.70
  -7  27  21   64.59   32.50
   7  27  21  161.68   35.60
 -27  21  -7  112.99   31.60
 -27  23   7   65.89   32.80
  -7  27  23  137.89   38.40
 -27  23  -7   61.09   29.40
   7  27  23  257.47   42.80
  -7  27  25   40.40   32.40
 -27  25   7   -6.30   28.50
 -27  25  -7   -5.90   27.90
   7  27  25   -4.00   27.70
  -1   9  27  114.39   21.60
  -9  27   1   67.99   26.30
   1   9  27   94.09   19.60
  -9  27  -1  115.99   28.90
  -3   9  27   42.90   18.60
  -9  27   3   72.49   27.40
   3   9  27   66.59   18.30
  -9  27  -3   68.79   27.80
  -5   9  27   30.10   18.00
  -9  27   5  -16.50   20.80
  -9  27  -5   74.49   26.00
   5   9  27   -7.10   13.80
  -9  27   7    9.10   26.20
  -7   9  27  -16.00   15.50
   7   9  27   32.40   15.40
  -9  27  -7  -16.80   19.50
  -9  27   9  457.25   52.99
  -9   9  27  651.73   46.50
   9   9  27  549.65   44.00
  -9  27  -9  544.25   50.89
  -9  27  11   14.60   24.20
 -11   9  27   12.90   19.60
  -9  27 -11   44.90   22.30
 -27  13   9  402.16   49.70
  -9  27  13  371.66   48.90
 -13   9  27  446.56   43.40
  -9  27 -13  415.26   43.80
  -9  27  15   95.89   31.70
 -15   9  27   20.30   21.00
 -27  15   9   52.69   28.50
  -9  27 -15   50.29   23.90
 -17   9  27  -13.60   19.20
 -27  17   9  -24.30   23.40
  -9  27  17   -4.00   23.60
  -9  27 -17   13.90   20.60
 -27  19   9  268.77   46.40
 -19   9  27  265.07   38.90
  -9  27  19  318.37   48.70
 -27  19  -9  310.37   43.90
   9  27  19  321.97   45.60
 -27  21   9  119.59   37.30
  -9  27  21  183.78   39.30
   9  27  21  190.08   37.90
 -27  21  -9   98.69   32.70
 -27  23   9  217.58   43.40
  -9  27  23  154.08   36.90
   9  27  23  188.08   39.20
 -27  23  -9  129.89   34.30
 -27  25   9   61.59   34.30
  -9  27  25  194.78   42.00
 -27  25  -9  172.88   39.90
   9  27  25   24.50   31.40
  -1  11  27   39.10   17.60
 -11  27   1   14.80   25.10
   1  11  27   12.80   16.00
 -11  27  -1   16.10   22.60
  -3  11  27   24.80   17.70
 -11  27   3   -7.80   24.90
 -11  27  -3  -12.80   22.90
   3  11  27    0.00   15.80
  -5  11  27   47.40   20.00
 -11  27   5   24.90   22.80
   5  11  27  -11.70   14.00
 -11  27  -5    9.30   23.10
 -11  27   7   53.49   29.60
  -7  11  27   32.80   19.40
 -11  27  -7   14.40   22.80
   7  11  27   15.80   16.40
  -9  11  27   10.80   18.40
 -11  27   9   31.60   28.80
 -11  27  -9   35.50   24.80
   9  11  27   53.69   19.10
 -11  11  27  193.88   32.00
 -11  27  11  183.98   37.10
 -11  27 -11  207.78   33.90
  11  11  27  186.38   27.00
 -11  27  13   55.89   32.00
 -13  11  27   74.79   26.20
 -27  13  11   45.20   28.00
 -11  27 -13  107.49   28.50
 -27  15  11  150.98   36.70
 -11  27  15  213.08   39.60
 -15  11  27  146.19   31.70
 -11  27 -15  227.58   34.20
 -27  17  11  182.98   40.20
 -17  11  27  173.18   32.90
 -11  27  17  138.69   36.30
 -11  27 -17  195.68   30.40
 -11  27  19   48.50   33.70
 -27  19  11   23.80   28.00
 -19  11  27  -11.10   24.20
 -27  19 -11  -33.10   21.80
 -11  27  21    1.10   25.70
 -21  11  27   32.80   29.00
 -27  21  11   26.40   32.50
  11  27  21   12.00   25.30
 -27  21 -11   31.30   27.20
 -27  23  11   -3.60   26.60
 -11  27  23   89.39   33.90
  11  27  23   51.49   29.10
 -27  23 -11  101.39   31.80
 -11  27  25   11.30   31.00
 -27  25  11    2.50   32.20
 -27  25 -11   -1.40   27.00
  11  27  25   41.60   31.30
  -1  13  27  920.41   57.59
 -13  27   1  848.52   65.49
   1  13  27  894.21   56.39
 -13  27  -1  992.00   70.89
  -3  13  27  166.98   28.50
 -13  27   3  116.29   31.30
   3  13  27  139.49   25.50
 -13  27  -3  104.09   32.20
  -5  13  27  224.68   32.50
 -13  27   5  241.18   39.20
 -13  27  -5  239.98   40.30
   5  13  27  199.28   29.30
  -7  13  27  295.97   36.30
 -13  27   7  279.57   44.80
 -13  27  -7  189.08   36.40
   7  13  27  258.37   31.40
 -13  27   9  404.96   49.80
  -9  13  27  343.07   40.10
   9  13  27  334.57   35.30
 -13  27  -9  440.76   48.50
 -11  13  27   79.09   24.70
 -13  27  11   81.89   33.20
 -13  27 -11   75.69   26.60
  11  13  27   85.49   22.70
 -13  13  27 1310.27   76.79
 -27  13  13 1221.58   82.19
 -13  27  13 1277.97   84.09
 -13  27 -13 1245.18   75.49
 -13  27  15  137.59   38.40
 -27  15  13  120.19   33.50
 -15  13  27  141.09   34.20
 -13  27 -15  174.48   31.80
 -13  27  17  319.87   48.80
 -27  17  13  424.66   55.99
 -17  13  27  363.66   46.10
 -13  27 -17  391.76   42.90
 -19  13  27  339.77   44.90
 -13  27  19  415.36   52.69
 -27  19  13  366.46   54.39
 -27  21  13    8.90   27.90
 -13  27  21   55.09   32.70
 -21  13  27   23.30   26.80
 -27  21 -13   34.50   27.10
 -23  13  27    8.20   27.60
 -13  27  23   38.40   29.00
 -27  23  13   27.80   31.50
 -27  23 -13  -39.90   23.90
 -13  27  25  194.28   43.50
 -25  13  27  228.98   44.80
 -27  25  13  285.47   51.49
 -27  25 -13  266.77   43.20
  13  27  25  180.98   41.60
 -15  27   1  490.95   53.29
  -1  15  27  547.55   47.80
 -15  27  -1  462.55   52.29
   1  15  27  589.14   46.90
 -15  27   3  251.17   40.30
  -3  15  27  188.18   32.00
 -15  27  -3  247.18   39.60
   3  15  27  239.88   32.30
  -5  15  27  131.49   27.60
 -15  27   5  136.29   32.60
 -15  27  -5   70.39   27.20
   5  15  27   79.89   22.80
  -7  15  27    9.10   20.70
 -15  27   7   47.60   26.60
 -15  27  -7   28.70   22.90
   7  15  27    4.40   18.10
  -9  15  27   95.19   27.40
 -15  27   9   97.29   31.70
   9  15  27   93.39   23.70
 -15  27  -9   78.69   28.60
 -11  15  27  197.68   35.50
 -15  27  11  150.08   37.60
  11  15  27  214.68   30.70
 -15  27 -11  177.28   34.80
 -13  15  27  130.19   31.20
 -27  13  15   62.29   32.90
 -15  27  13  135.99   35.60
 -15  27 -13  130.99   32.00
 -15  15  27  139.39   33.10
 -27  15  15  117.29   37.30
 -15  27  15  147.29   39.00
 -15  27 -15   97.39   28.20
 -17  15  27   11.60   26.10
 -15  27  17   31.80   27.40
 -27  17  15   40.90   27.60
 -19  15  27  -28.60   24.10
 -27  19  15   10.80   28.80
 -15  27  19   14.70   27.40
 -15  27  21   16.00   27.80
 -27  21  15   29.60   33.80
 -21  15  27   43.40   28.60
 -15  27  23  -28.40   27.60
 -27  23  15  -23.20   24.60
 -23  15  27  -34.70   26.00
 -27  23 -15  -42.20   22.40
 -15  27  25   -6.30   27.40
 -25  15  27  -22.00   27.60
 -27  25  15   -9.80   32.60
 -17  27   1  690.63   64.99
  -1  17  27  606.34   53.49
   1  17  27  640.74   51.29
 -17  27  -1  656.83   65.79
 -17  27   3  111.89   35.60
  -3  17  27   22.40   22.10
   3  17  27   49.70   22.40
 -17  27  -3   59.29   27.60
 -17  27   5  661.93   67.19
  -5  17  27  603.64   54.79
 -17  27  -5  786.72   68.19
   5  17  27  625.24   49.60
 -17  27   7  322.17   49.70
  -7  17  27  259.07   37.80
 -17  27  -7  241.38   40.20
   7  17  27  322.67   38.20
 -17  27   9    2.80   24.90
  -9  17  27  -11.30   21.40
   9  17  27    2.40   20.70
 -17  27  -9   46.70   26.40
 -11  17  27  112.99   30.60
 -17  27  11   97.49   33.40
  11  17  27   91.59   26.30
 -17  27 -11  118.49   31.80
 -13  17  27  404.06   47.40
 -17  27  13  339.37   51.59
 -27  13  17  400.66   51.89
 -17  27 -13  328.47   43.20
 -15  17  27  -28.70   23.50
 -17  27  15  -33.10   22.90
 -27  15  17   -4.30   28.20
 -17  27 -15   19.20   23.70
 -17  27  17  192.68   45.60
 -17  17  27  158.48   38.30
 -27  17  17  277.07   46.30
 -19  17  27   62.99   31.00
 -17  27  19   -2.50   31.80
 -27  19  17  140.19   38.50
 -17  27  21  -10.10   28.80
 -27  21  17  -55.29   26.20
 -21  17  27   14.90   30.20
 -17  27  23   -8.30   30.50
 -27  23  17   35.30   31.90
 -23  17  27  -27.30   26.40
 -27  25  17   64.79   38.00
 -25  17  27   32.80   29.60
 -17  27  25   76.29   36.00
 -19  27   1  381.76   52.09
  -1  19  27  376.16   43.70
 -19  27  -1  302.17   46.80
   1  19  27  400.56   45.40
 -19  27   3  274.87   44.70
  -3  19  27  312.97   40.70
 -19  27  -3  284.67   46.20
   3  19  27  273.47   37.10
 -19  27   5  -19.50   26.10
  -5  19  27  -12.70   21.40
 -19  27  -5  -18.70   24.20
   5  19  27   -3.70   21.70
  -7  19  27   82.39   27.60
 -19  27   7   10.20   26.50
 -19  27  -7  -19.20   25.90
   7  19  27   34.80   23.70
  -9  19  27  239.28   39.90
 -19  27   9  260.47   44.70
   9  19  27  312.97   39.40
 -19  27  -9  275.37   41.50
 -19  27  11   43.90   29.00
 -11  19  27  -13.10   20.30
  11  19  27    8.90   21.60
 -19  27 -11   15.70   23.80
 -27  13  19  430.56   54.79
 -19  27  13  392.46   54.29
 -13  19  27  309.27   46.70
 -19  27 -13  412.36   47.80
 -19  27  15  -62.99   20.90
 -27  15  19  -33.70   26.20
 -15  19  27   25.80   26.70
 -19  27 -15  -18.80   20.80
 -19  27  17   20.60   31.00
 -17  19  27   56.99   30.10
 -27  17  19   65.49   31.60
 -19  27  19  -18.90   26.30
 -19  19  27   16.90   29.50
 -27  19  19   74.49   31.80
 -19  27  21  -31.50   29.20
 -21  19  27   44.60   32.70
 -27  21  19   -1.40   32.50
 -23  19  27   -4.40   31.70
 -19  27  23   26.80   32.10
 -27  23  19   13.80   32.80
 -25  19  27   -8.30   27.30
 -19  27  25   40.40   30.90
 -27  25  19   37.40   36.30
 -21  27   1    9.50   29.70
  -1  21  27   46.20   26.20
 -21  27  -1  -26.20   26.70
   1  21  27  -42.30   21.50
  -3  21  27   29.50   26.00
 -21  27   3   31.90   28.60
 -21  27  -3   33.90   28.10
   3  21  27  100.99   28.70
  -5  21  27  101.09   30.50
 -21  27   5   70.49   34.60
   5  21  27  221.18   35.30
 -21  27  -5  159.38   38.10
  -7  21  27  128.79   33.50
 -21  27   7  120.39   39.00
   7  21  27  119.99   30.80
 -21  27  -7  126.59   32.30
 -21  27   9  242.98   44.70
  -9  21  27  160.08   36.40
 -21  27  -9  185.78   39.20
   9  21  27   77.19   29.70
 -11  21  27   11.50   28.40
 -21  27  11  -14.50   28.30
  11  21  27  -25.50   23.00
 -21  27 -11   24.00   26.10
 -27  13  21    6.30   30.00
 -21  27  13   40.80   32.10
 -13  21  27   33.90   29.40
  13  21  27   46.70   27.50
 -21  27 -13   12.90   24.60
 -27  15  21   21.60   26.60
 -15  21  27   18.90   29.60
 -21  27  15   27.00   29.80
 -21  27 -15  -13.80   22.30
 -17  21  27  -13.50   28.70
 -27  17  21   18.50   31.80
 -21  27  17   32.10   34.40
 -19  21  27   24.20   31.70
 -27  19  21  -14.20   30.30
 -21  27  19   17.90   29.80
 -21  27  21    5.60   32.30
 -27  21  21   11.60   30.40
 -21  21  27   25.40   33.50
 -23  21  27    5.10   29.50
 -21  27  23   10.50   32.90
 -27  23  21    3.50   35.50
 -25  21  27  -61.09   28.90
 -21  27  25  -45.10   31.90
 -27  25  21  -20.60   31.80
 -23  27   1  124.69   35.90
  -1  23  27   90.99   31.50
   1  23  27   46.40   29.10
 -23  27  -1  -26.20   26.40
 -23  27   3   39.90   28.00
  -3  23  27   66.89   26.90
 -23  27  -3   24.00   27.90
   3  23  27   39.90   25.40
  -5  23  27  251.97   42.40
 -23  27   5  265.37   47.40
 -23  27  -5  233.18   41.40
   5  23  27  270.47   40.80
 -23  27   7   98.29   35.20
  -7  23  27  100.79   34.50
 -23  27  -7  113.99   31.80
   7  23  27  183.38   35.70
 -23  27   9  191.98   43.90
  -9  23  27  222.28   39.60
   9  23  27   98.89   32.30
 -23  27  -9  158.78   38.60
 -23  27  11   40.50   27.30
 -11  23  27   -3.40   27.60
  11  23  27   36.10   28.00
 -23  27 -11   32.40   26.90
 -23  27  13   -5.60   30.10
 -13  23  27   -2.00   28.10
  13  23  27   19.90   25.40
 -23  27 -13  -20.40   24.50
 -27  15  23   26.90   31.90
 -23  27  15  -19.00   25.30
 -15  23  27  -10.00   29.00
 -23  27 -15  -13.50   26.80
 -17  23  27   -5.80   27.00
 -23  27  17   12.40   31.80
 -27  17  23    6.30   26.70
 -27  19  23   10.20   29.80
 -23  27  19   57.29   35.20
 -19  23  27   -5.00   30.00
 -27  21  23  -12.70   32.60
 -21  23  27   10.50   33.20
 -23  27  21  -11.10   31.10
 -23  27  23   24.20   31.90
 -23  23  27  -13.30   32.10
 -27  23  23    0.90   33.80
 -25  27   1  293.17   48.80
  -1  25  27  279.37   43.70
   1  25  27  313.27   47.20
 -25  27  -1  320.77   51.19
  -3  25  27  192.08   38.80
 -25  27   3  277.67   49.00
   3  25  27  207.28   40.30
 -25  27  -3  142.89   38.50
 -25  27   5   29.90   29.80
  -5  25  27   11.40   28.30
 -25  27  -5   71.09   32.00
   5  25  27   37.70   27.80
  -7  25  27  -41.60   26.50
 -25  27   7   16.40   31.60
 -25  27  -7  -16.10   23.40
   7  25  27   30.50   27.80
 -25  27   9  129.19   41.90
  -9  25  27   43.40   29.10
 -25  27  -9  131.99   35.70
   9  25  27  107.49   34.50
 -25  27  11   -6.80   25.90
 -11  25  27   45.50   32.10
  11  25  27  -30.40   24.30
 -25  27 -11   -3.60   27.40
 -25  27  13  244.18   50.89
 -13  25  27  172.48   40.10
  13  25  27  260.77   42.90
 -25  27 -13  211.08   41.90
 -27  15  25   42.20   33.50
 -25  27  15  -24.30   26.90
 -15  25  27   15.20   28.20
  15  25  27  -12.20   27.70
 -25  27  17   61.99   36.10
 -17  25  27   62.39   33.30
 -27  17  25   43.70   31.80
 -19  25  27   25.40   34.90
 -27  19  25   46.10   32.60
 -25  27  19   -8.10   33.50
 -27  21  25   -3.60   33.20
 -25  27  21    5.80   35.50
 -21  25  27   11.30   35.20
  -1  27  27  657.03   67.29
 -27  27   1  653.53   71.39
 -27  27  -1  637.94   68.09
   1  27  27  527.75   60.69
  -3  27  27   -4.40   27.70
 -27  27   3   23.10   32.80
 -27  27  -3   71.99   35.30
   3  27  27   47.60   30.60
  -5  27  27  363.16   52.69
 -27  27   5  273.27   49.99
 -27  27  -5  421.36   54.99
   5  27  27  296.27   47.70
  -7  27  27  145.69   42.10
 -27  27   7  168.08   42.10
 -27  27  -7  152.68   40.60
   7  27  27  140.69   38.10
  -9  27  27   19.10   32.30
 -27  27   9   37.10   31.60
 -27  27  -9   15.40   30.20
   9  27  27   42.80   28.60
 -11  27  27  120.29   37.70
 -27  27  11   78.09   36.00
 -27  27 -11  125.19   35.90
  11  27  27   72.99   34.00
 -13  27  27  461.15   58.99
 -27  27  13  468.55   64.49
 -27  27 -13  453.75   55.09
  13  27  27  396.26   52.99
 -27  15  27   27.50   33.40
 -27  27  15   12.10   32.50
 -15  27  27   66.59   34.50
  15  27  27   99.29   36.00
 -27  17  27  228.78   46.40
 -27  27  17  277.17   52.09
 -17  27  27  246.88   50.39
   0  28   0 1035.60   67.89
   0  28   2  -24.30   18.60
   0  28  -2    1.20   22.30
   0  28  -4  409.96   45.10
   0  28   4  476.25   48.80
   0  28   6  -20.70   22.80
   0  28  -6    9.20   21.50
   0  28   8  116.89   32.60
   0  28  -8   91.89   27.10
   0  28 -10    4.30   20.40
   0  28  10   15.50   25.10
   0  28 -12  449.46   45.80
   0  28  12  492.65   53.19
   0  28 -14   -9.70   19.60
   0  28  14   32.90   25.20
 -28  14   0    3.90   22.20
   0  28  16   13.00   25.70
   0  28 -16    1.90   20.10
 -28  16   0   56.59   29.90
   0  28 -18  -22.50   18.80
 -28  18   0  -33.50   21.30
   0  28  18   -8.10   22.20
 -28  20   0  116.79   37.60
   0  28  20  137.29   37.00
   0  28  22   12.00   24.40
 -28  22   0   -0.70   24.80
 -28  24   0   43.10   33.40
   0  28  24    3.00   28.80
   0  28  26   28.20   30.80
 -28  26   0   37.50   33.90
  -2  28   0   12.70   24.10
   2  28   0    3.30   23.10
   2  28  -2   -3.00   18.50
  -2  28   2  -20.80   19.40
  -2  28  -2  -11.80   18.90
   2  28   2   27.90   23.20
  -2  28   4  455.65   48.80
   2  28  -4  453.55   49.50
  -2  28  -4  543.25   49.50
   2  28   4  452.15   49.20
  -2  28   6    7.80   25.40
   2  28  -6   35.80   22.90
   2  28   6    8.90   20.80
  -2  28  -6   11.30   21.70
  -2  28   8   91.49   28.40
   2  28  -8   81.09   26.20
  -2  28  -8   24.20   23.00
   2  28   8   19.70   24.60
  -2  28  10   54.99   26.50
   2  28 -10   42.30   23.00
  -2  28 -10   53.99   24.50
   2  28  10   56.99   28.00
  -2  28  12  628.84   62.29
   2  28 -12  831.62   57.59
   2  28  12  865.91   67.19
  -2  28 -12  740.43   55.09
   2  28 -14   42.70   22.90
  -2  28  14   68.79   28.10
 -28  14   2   43.10   26.20
   2  28  14   69.09   28.20
  -2  28 -14   98.49   24.80
   2  28 -16 1901.71   95.39
  -2  28  16 2180.38  111.59
 -28  16   2 1867.71  105.29
 -28  16  -2 1913.01  106.29
  -2  28 -16 1847.82   93.89
   2  28  16 1808.32  103.79
 -28  18   2   57.69   30.90
  -2  28  18   52.89   28.60
   2  28 -18  -12.60   19.00
  -2  28 -18   -5.60   20.90
   2  28  18   58.09   28.50
 -28  18  -2    1.90   26.40
 -28  20   2   93.29   35.80
  -2  28  20  201.18   41.10
 -28  20  -2  217.28   42.80
   2  28  20  189.98   39.20
 -28  22   2    1.00   28.10
  -2  28  22  -15.70   27.60
   2  28  22  -29.20   25.00
 -28  22  -2   -2.90   29.40
  -2  28  24  490.55   56.99
 -28  24   2  609.74   66.79
 -28  24  -2  473.15   58.19
   2  28  24  544.75   58.49
 -28  26   2   99.09   39.20
  -2  28  26   57.29   29.00
 -28  26  -2   48.70   30.30
   2  28  26   22.20   26.90
  -4  28   0  470.55   49.30
  -4  28   2  554.54   54.19
  -4  28  -2  505.95   50.69
  -4  28   4   71.79   28.60
  -4  28  -4  124.39   28.40
  -4  28   6  126.99   32.30
  -6   4  28  122.79   20.00
   4  28   6  103.99   29.90
  -4  28  -6   60.99   27.40
  -8   4  28  107.09   20.40
  -4  28   8   95.89   29.50
  -4  28  -8   84.19   27.10
   4  28   8   93.89   29.70
  -4  28  10   -4.70   22.50
   4  28  10    2.40   24.20
  -4  28 -10  -22.10   19.40
  -4  28  12  192.48   37.10
  -4  28 -12  192.08   32.70
   4  28  12  161.88   35.90
 -28  14   4   92.89   30.30
  -4  28  14   84.69   29.60
  -4  28 -14   70.59   23.70
   4  28  14   48.20   27.60
 -28  16   4  -15.30   24.50
  -4  28  16   25.30   30.20
  -4  28 -16   31.40   21.00
 -28  16  -4    2.30   22.20
   4  28  16  -10.60   22.70
  -4  28  18  122.49   34.30
   4  28 -18  121.29   27.50
 -28  18   4  134.19   36.80
   4  28  18  132.79   36.30
  -4  28 -18  201.88   31.10
 -28  18  -4  129.39   32.90
 -28  20   4   43.00   29.20
  -4  28  20   89.09   32.00
   4  28  20    5.80   24.60
 -28  20  -4   58.49   30.80
  -4  28  22  275.17   46.40
 -28  22   4  216.78   45.80
 -28  22  -4  233.48   45.50
   4  28  22  128.69   38.50
 -28  24   4   18.10   33.50
  -4  28  24  -15.60   27.40
   4  28  24   26.90   29.10
 -28  24  -4   19.60   29.50
 -28  26   4  185.38   44.40
  -4  28  26   79.39   33.90
 -28  26  -4   66.89   35.20
   4  28  26  111.19   37.90
  -6  28   0    3.70   19.70
  -2   6  28   10.20   20.70
  -6  28   2   22.70   22.90
  -6  28  -2   -2.80   20.20
  -4   6  28  121.09   20.00
  -6  28   4  156.48   33.70
  -6  28  -4  104.79   29.80
  -6   6  28    6.00   13.80
  -6  28   6    8.70   22.20
  -6  28  -6   12.50   19.80
  -6  28   8  138.49   32.60
  -8   6  28  171.38   24.90
  -6  28  -8  155.48   31.20
 -10   6  28   83.29   20.20
  -6  28  10   18.30   25.20
  -6  28 -10   91.59   25.00
  -6  28  12   16.30   27.00
 -12   6  28   -6.30   17.40
  -6  28 -12   -3.90   19.50
   6  28  12  -14.50   23.90
 -14   6  28  268.67   34.10
  -6  28  14  283.87   46.30
 -28  14   6  210.38   40.00
   6  28  14  207.38   39.10
  -6  28 -14  234.38   34.40
  -6  28  16   28.80   27.00
 -28  16   6   47.30   28.40
  -6  28 -16   55.99   22.20
   6  28  16  116.09   35.60
 -28  18   6  148.89   39.40
  -6  28  18  109.49   35.90
   6  28  18   58.29   30.50
  -6  28 -18  146.39   28.40
 -28  18  -6  168.98   36.90
  -6  28  20   26.80   25.20
 -28  20   6    8.30   28.40
 -28  20  -6  -12.20   23.00
   6  28  20   36.10   29.20
  -6  28  22   18.20   25.50
 -28  22   6  -30.40   25.60
   6  28  22   -9.60   26.40
 -28  22  -6    2.40   26.90
  -6  28  24   37.30   32.90
 -28  24   6   37.60   31.80
   6  28  24   22.60   30.20
 -28  24  -6   37.10   26.70
 -28  26   6   63.99   35.90
  -6  28  26   88.49   36.40
   6  28  26   80.79   34.50
 -28  26  -6   58.29   31.00
   0   8  28  111.59   20.50
  -8  28   0  131.09   33.50
  -8  28   2   53.19   25.80
  -2   8  28    5.50   15.10
  -8  28  -2   16.60   22.40
  -4   8  28  109.19   21.30
  -8  28   4   88.79   29.30
  -8  28  -4  124.99   31.80
  -8  28   6  101.29   30.50
  -6   8  28  153.28   24.80
  -8  28  -6  135.99   31.50
  -8   8  28    8.00   16.10
  -8  28   8   27.90   25.00
  -8  28  -8   19.00   22.40
  -8  28  10   55.79   30.20
 -10   8  28   34.90   19.70
  -8  28 -10   51.59   24.50
  -8  28  12   84.99   29.30
 -12   8  28   74.99   24.40
  -8  28 -12  149.88   30.00
 -14   8  28   23.70   20.40
 -28  14   8  -17.00   23.60
  -8  28  14   13.70   24.50
  -8  28 -14   -6.30   18.40
  -8  28  16   14.40   24.70
 -16   8  28   31.10   22.60
 -28  16   8   44.40   30.10
   8  28  16   30.40   27.10
  -8  28 -16   12.20   21.40
 -28  18   8  290.27   45.20
  -8  28  18  259.87   45.00
   8  28  18  217.58   43.20
 -28  18  -8  268.07   42.40
  -8  28 -18  249.68   50.79
 -28  20   8  -32.50   24.60
  -8  28  20  -28.50   22.40
   8  28  20   -4.90   25.60
 -28  20  -8  -30.80   24.70
 -28  22   8  403.96   58.09
  -8  28  22  246.38   46.00
   8  28  22  371.86   49.00
 -28  22  -8  355.56   49.30
  -8  28  24    4.40   26.20
 -28  24   8   19.80   31.80
 -28  24  -8   -8.20   25.70
   8  28  24  -27.90   24.50
  -8  28  26   68.29   32.40
 -28  26   8  109.89   39.10
 -28  26  -8  142.89   39.80
   8  28  26  137.39   38.80
   0  10  28   -2.30   15.40
 -10  28   0  -22.40   21.30
  -2  10  28   73.39   20.40
 -10  28   2   44.90   26.60
   2  10  28   72.39   19.50
 -10  28  -2   83.99   29.50
  -4  10  28   -8.30   15.50
 -10  28   4   30.30   26.90
   4  10  28   -4.50   15.40
 -10  28  -4  -10.60   21.30
 -10  28   6   35.40   26.80
  -6  10  28   71.49   22.60
 -10  28  -6   81.19   28.40
 -10  28   8   24.80   24.60
  -8  10  28   19.60   19.90
 -10  28  -8    6.10   22.40
 -10  10  28   11.30   18.60
 -10  28  10   -4.70   22.60
 -10  28 -10   -1.70   20.70
 -10  28  12  732.93   68.89
 -12  10  28  775.52   53.09
 -28  12  10  583.64   60.29
 -10  28 -12  567.94   53.29
 -10  28  14   45.40   28.50
 -28  14  10   13.60   26.10
 -14  10  28   46.20   22.80
 -10  28 -14   38.50   23.20
 -10  28  16  562.14   61.69
 -16  10  28  703.43   54.69
 -28  16  10  725.63   68.59
 -10  28 -16  602.64   53.69
 -28  18  10  -26.90   23.30
 -18  10  28   25.40   23.80
 -10  28  18   42.20   31.80
 -28  20  10   81.99   34.40
 -20  10  28   86.39   29.90
 -10  28  20   96.39   34.70
 -28  20 -10   73.89   30.90
  10  28  20   49.50   33.00
 -10  28  22  -42.30   25.80
 -28  22  10  -33.90   28.10
  10  28  22  -10.30   27.00
 -28  22 -10  -18.70   24.30
 -10  28  24   71.59   37.00
 -28  24  10  172.88   45.00
 -28  24 -10  101.19   32.00
  10  28  24  117.49   38.70
 -28  26  10  -19.90   27.20
 -10  28  26    7.70   30.60
  10  28  26   24.10   27.00
 -28  26 -10   15.90   28.50
   0  12  28  512.25   43.00
 -12  28   0  626.14   60.79
  -2  12  28  894.41   53.89
 -12  28   2  761.92   62.09
 -12  28  -2  696.43   63.39
   2  12  28  721.23   49.20
  -4  12  28  204.48   30.00
 -12  28   4  216.58   39.60
   4  12  28  180.48   26.90
 -12  28  -4  182.08   35.00
  -6  12  28   -4.70   17.80
 -12  28   6   11.60   23.50
   6  12  28  -23.40   15.30
 -12  28  -6   49.70   26.10
 -12  28   8  142.59   37.70
  -8  12  28  108.39   26.40
 -12  28  -8  169.38   33.60
 -12  28  10  667.53   65.29
 -10  12  28  578.74   51.19
 -12  28 -10  585.54   55.79
 -12  12  28  276.37   36.80
 -28  12  12  231.28   40.80
 -12  28  12  189.98   39.80
 -12  28 -12  247.08   37.60
 -14  12  28  292.07   39.80
 -12  28  14  299.97   48.10
 -28  14  12  223.48   42.00
 -12  28 -14  319.07   40.00
 -16  12  28    2.80   21.90
 -28  16  12    9.30   30.00
 -12  28  16   24.40   27.60
 -12  28 -16   30.90   23.90
 -28  18  12   25.80   29.30
 -12  28  18   29.00   28.90
 -18  12  28  -12.00   21.40
 -28  20  12   -6.60   27.20
 -20  12  28   19.60   25.70
 -12  28  20   42.70   33.60
 -28  22  12  169.28   42.50
 -22  12  28  125.29   35.70
 -12  28  22  128.19   37.10
 -28  22 -12  129.09   36.20
  12  28  22  208.98   44.50
 -28  24  12  -17.40   27.40
 -12  28  24  -26.90   27.70
  12  28  24   50.39   29.40
 -28  24 -12  -43.80   25.80
 -28  26  12  -74.99   23.80
 -12  28  26   13.80   29.70
  12  28  26   -9.20   28.10
 -28  26 -12   -0.40   27.00
 -14  28   0   10.90   25.70
   0  14  28   -9.90   17.20
  -2  14  28   25.60   20.30
 -14  28   2   61.49   29.70
   2  14  28   64.79   22.40
 -14  28  -2  102.39   32.40
  -4  14  28   67.49   24.40
 -14  28   4   63.09   29.50
 -14  28  -4   97.59   33.10
   4  14  28  111.29   24.90
  -6  14  28  290.67   37.60
 -14  28   6  245.48   44.20
 -14  28  -6  213.38   37.70
   6  14  28  306.47   34.70
  -8  14  28   11.90   21.20
 -14  28   8   36.20   26.30
 -14  28  -8   29.40   22.30
   8  14  28   20.50   18.80
 -10  14  28   47.20   24.70
 -14  28  10   31.70   27.50
 -14  28 -10   10.80   23.90
  10  14  28   31.00   23.90
 -12  14  28  294.17   40.80
 -14  28  12  262.77   44.90
 -14  28 -12  275.57   39.90
 -14  14  28  491.85   49.99
 -14  28  14  535.15   59.79
 -28  14  14  436.26   56.49
 -14  28 -14  452.65   49.40
 -28  16  14  513.15   59.29
 -14  28  16  621.54   63.79
 -16  14  28  496.75   53.09
 -14  28 -16  509.65   50.39
 -14  28  18  225.88   45.70
 -18  14  28  354.36   45.10
 -28  18  14  296.47   49.80
 -28  20  14   54.09   30.80
 -14  28  20   71.29   32.10
 -20  14  28  101.69   31.50
 -14  28  22   -2.80   28.90
 -28  22  14   35.30   32.60
 -22  14  28   15.20   27.10
 -24  14  28  125.79   38.00
 -28  24  14  150.38   43.20
 -14  28  24  165.08   41.70
 -28  24 -14   86.09   34.60
 -28  26  14  360.06   56.59
 -14  28  26  179.38   46.70
  14  28  26  298.87   49.20
 -28  26 -14  308.67   60.89
   0  16  28   14.80   21.80
 -16  28   0   -9.00   25.80
  -2  16  28 1861.11   95.69
 -16  28   2 1948.51  105.99
   2  16  28 1775.52   92.79
 -16  28  -2 1889.71  105.79
 -16  28   4    7.50   24.40
  -4  16  28    1.00   21.20
   4  16  28   42.20   20.90
 -16  28  -4   28.00   26.50
  -6  16  28   40.30   23.80
 -16  28   6   50.59   29.00
   6  16  28   66.39   22.90
 -16  28  -6   48.30   29.20
  -8  16  28  -36.90   19.10
 -16  28   8   34.30   31.30
   8  16  28   47.50   22.20
 -16  28  -8   17.20   26.60
 -16  28  10  567.14   61.49
 -10  16  28  555.74   54.49
  10  16  28  688.43   51.49
 -16  28 -10  599.14   57.09
 -16  28  12    5.00   25.30
 -12  16  28   57.49   25.10
  12  16  28   44.30   24.50
 -16  28 -12   17.20   25.00
 -14  16  28  580.54   58.09
 -28  14  16  584.64   62.99
 -16  28  14  559.74   63.59
 -16  28 -14  581.94   54.79
 -16  16  28  -32.50   22.60
 -28  16  16   11.90   30.10
 -16  28  16   23.90   27.80
 -16  28 -16  -18.30   21.90
 -28  18  16   -9.30   26.60
 -18  16  28   33.70   27.00
 -16  28  18   16.40   32.50
 -16  28  20   36.00   32.10
 -28  20  16   24.80   32.20
 -20  16  28   19.90   29.00
 -16  28  22    2.20   33.20
 -28  22  16   63.49   36.20
 -22  16  28   74.09   32.70
 -24  16  28  -11.10   24.40
 -28  24  16   24.10   32.10
 -16  28  24   35.50   31.40
 -16  28  26   18.50   35.80
 -28  26  16  -19.50   33.20
 -26  16  28   90.59   33.90
   0  18  28   10.80   21.00
 -18  28   0  -11.40   24.40
 -18  28   2   -9.70   27.90
  -2  18  28    7.30   22.60
   2  18  28    9.90   22.40
 -18  28  -2   -6.60   24.60
  -4  18  28  134.29   31.50
 -18  28   4  171.88   38.70
   4  18  28  162.28   30.30
 -18  28  -4  201.98   40.70
  -6  18  28  119.29   30.90
 -18  28   6   73.29   32.40
 -18  28  -6  168.78   38.20
   6  18  28  182.58   31.50
  -8  18  28  293.77   41.60
 -18  28   8  295.07   50.29
 -18  28  -8  222.78   40.20
   8  18  28  228.88   34.70
 -10  18  28   -4.90   23.20
 -18  28  10   40.20   29.50
 -18  28 -10   19.30   25.00
  10  18  28   23.00   23.10
 -12  18  28   28.80   25.90
 -18  28  12   35.30   29.50
  12  18  28    6.50   20.20
 -18  28 -12   51.19   27.30
 -28  14  18  329.97   49.50
 -14  18  28  331.47   45.80
 -18  28  14  317.27   49.99
 -18  28 -14  258.77   41.40
 -28  16  18    9.40   27.50
 -18  28  16  -10.30   26.80
 -16  18  28    5.80   26.90
 -28  18  18  159.08   41.30
 -18  18  28  212.88   40.80
 -18  28  18  201.18   43.00
 -28  20  18  -38.00   29.00
 -20  18  28   61.79   31.70
 -18  28  20  -36.80   27.60
 -28  22  18  -31.60   25.90
 -18  28  22   51.49   37.80
 -22  18  28   -2.40   29.40
 -18  28  24   13.40   31.10
 -28  24  18   11.60   30.70
 -24  18  28    9.40   30.90
 -26  18  28  203.58   47.30
 -18  28  26  125.29   42.50
 -20  28   0   98.29   35.50
   0  20  28  143.59   32.50
 -20  28   2  210.68   41.00
  -2  20  28  145.29   33.50
   2  20  28  176.48   33.60
 -20  28  -2  182.78   41.40
  -4  20  28   58.89   27.90
 -20  28   4  -20.30   27.70
 -20  28  -4   25.30   26.80
   4  20  28   33.40   23.30
 -20  28   6  -13.50   24.00
  -6  20  28   13.60   24.90
 -20  28  -6    7.10   23.90
   6  20  28   -6.40   20.20
  -8  20  28  -23.10   21.20
 -20  28   8   12.70   30.20
   8  20  28   77.89   26.20
 -20  28  -8   19.00   26.10
 -10  20  28  102.79   32.60
 -20  28  10   51.29   31.40
  10  20  28  109.69   30.00
 -20  28 -10  131.99   33.60
 -12  20  28  -12.40   25.40
 -20  28  12   -1.40   30.50
  12  20  28    8.50   22.90
 -20  28 -12  -19.60   23.00
 -14  20  28  113.89   34.40
 -28  14  20   72.79   33.00
 -20  28  14   53.59   35.70
 -20  28 -14   71.19   28.60
  14  20  28   -3.20   23.50
 -16  20  28  -41.90   25.10
 -28  16  20   29.30   33.40
 -20  28  16   20.60   34.00
 -20  28  18   12.40   30.40
 -28  18  20   12.00   30.60
 -18  20  28   45.50   27.90
 -20  20  28   29.70   30.40
 -20  28  20   43.30   30.80
 -28  20  20  -18.20   29.50
 -20  28  22   51.09   36.60
 -22  20  28  -13.50   30.80
 -28  22  20  -32.80   29.80
 -28  24  20  -29.60   27.60
 -20  28  24    6.30   31.70
 -24  20  28  -22.20   30.90
   0  22  28  -22.50   22.50
 -22  28   0    8.30   29.80
 -22  28   2  -60.99   20.60
  -2  22  28   23.10   25.10
   2  22  28  -11.40   24.10
 -22  28  -2    9.30   28.90
  -4  22  28  129.89   33.30
 -22  28   4  109.09   35.10
   4  22  28  202.98   37.10
 -22  28  -4  188.88   41.20
 -22  28   6   23.10   27.40
  -6  22  28   24.00   26.90
 -22  28  -6   50.19   29.90
   6  22  28   12.00   26.60
 -22  28   8  241.18   45.90
  -8  22  28  330.67   46.60
   8  22  28  284.17   41.50
 -22  28  -8  281.77   46.90
 -10  22  28  -24.90   25.60
 -22  28  10  -37.00   24.80
 -22  28 -10  -27.60   24.00
  10  22  28   13.20   24.70
 -22  28  12  207.68   44.30
 -12  22  28  205.98   40.90
  12  22  28  116.59   33.30
 -22  28 -12  195.98   39.60
 -28  14  22    7.40   29.70
 -22  28  14  -11.90   26.70
 -14  22  28   -8.00   27.20
 -22  28 -14  -26.10   22.20
  14  22  28  -16.90   24.10
 -16  22  28   62.19   33.00
 -28  16  22  125.89   37.50
 -22  28  16   74.29   35.20
 -22  28  18   10.00   27.00
 -18  22  28   30.30   31.50
 -28  18  22    7.40   31.10
 -22  28  20    0.40   32.30
 -20  22  28  -22.40   29.90
 -28  20  22   10.50   26.90
 -28  22  22   15.80   33.50
 -22  28  22  -79.29   30.10
 -22  22  28   11.90   27.20
   0  24  28   20.10   26.50
 -24  28   0  -26.80   30.70
  -2  24  28  658.33   61.79
 -24  28   2  513.75   64.39
   2  24  28  542.15   56.69
 -24  28  -2  469.25   61.49
  -4  24  28   26.50   23.00
 -24  28   4   65.09   31.70
 -24  28  -4   70.39   29.50
   4  24  28    7.50   27.20
 -24  28   6   39.20   32.40
  -6  24  28  112.79   34.80
   6  24  28    0.30   25.90
 -24  28  -6   10.80   26.40
 -24  28   8  -12.00   29.20
  -8  24  28   12.80   26.80
   8  24  28   13.40   27.10
 -24  28  -8  -25.60   25.60
 -10  24  28  165.68   40.30
 -24  28  10  134.59   42.70
 -24  28 -10  151.38   37.90
  10  24  28  113.19   35.10
 -24  28  12   -3.00   29.50
 -12  24  28    5.40   29.50
 -24  28 -12   72.99   31.70
  12  24  28  -17.90   25.10
 -24  28  14  190.58   46.60
 -14  24  28  200.98   43.70
  14  24  28  198.08   37.80
 -24  28 -14  109.69   35.20
 -28  16  24   28.60   34.00
 -16  24  28   61.39   32.70
 -24  28  16   26.20   31.70
 -24  28  18   15.10   30.50
 -18  24  28  -10.20   32.40
 -28  18  24   41.90   34.60
 -28  20  24   27.50   33.70
 -20  24  28   -5.30   30.10
 -24  28  20   31.70   34.40
   0  26  28  -12.20   27.10
 -26  28   0   57.79   32.60
  -2  26  28    7.10   29.10
 -26  28   2    0.50   29.30
 -26  28  -2   16.60   27.40
   2  26  28  -35.60   25.30
  -4  26  28   95.39   34.80
 -26  28   4   93.29   36.50
 -26  28  -4  163.38   40.60
   4  26  28  166.58   39.10
  -6  26  28  116.29   37.50
 -26  28   6   27.00   31.70
 -26  28  -6   70.39   35.60
   6  26  28   64.79   31.30
  -8  26  28   92.89   35.70
 -26  28   8  141.39   42.50
 -26  28  -8   59.29   31.90
   8  26  28  217.78   41.40
 -26  28  10   57.39   34.30
 -10  26  28  108.59   36.00
  10  26  28   47.60   28.90
 -26  28 -10   37.10   27.20
 -26  28  12  -28.20   29.70
 -12  26  28   -9.70   31.00
  12  26  28   -4.50   27.20
 -26  28 -12  -26.80   26.80
 -26  28  14  298.57   54.09
 -14  26  28  257.77   50.29
  14  26  28  274.07   48.20
 -16  26  28   35.20   35.10
 -26  28  16   32.80   37.30
 -28  16  26    7.30   33.60
  16  26  28   10.30   31.60
 -28  18  26   85.79   41.30
 -18  26  28  171.08   42.90
 -28  28   0  154.98   42.30
   0  28  28  157.38   41.30
  -2  28  28 1034.70   78.49
 -28  28   2  845.12   82.19
 -28  28  -2 1040.30   83.59
   2  28  28  828.32   75.49
  -4  28  28   27.40   32.40
 -28  28   4   38.60   31.20
 -28  28  -4  -11.30   27.70
   4  28  28   82.29   33.40
  -6  28  28   23.80   31.90
 -28  28   6  -11.50   27.70
 -28  28  -6   -3.10   29.60
   6  28  28   13.10   29.80
  -8  28  28   72.09   37.10
 -28  28   8   42.10   36.00
 -28  28  -8   49.50   35.20
   8  28  28   62.99   32.60
 -10  28  28  296.17   52.89
 -28  28  10  363.46   61.69
 -28  28 -10  354.86   53.39
  10  28  28  396.16   53.59
 -12  28  28   41.10   34.80
 -28  28  12   84.69   38.40
 -28  28 -12   77.39   35.60
  12  28  28  105.19   37.10
 -14  28  28  150.78   42.80
  14  28  28  164.58   43.10
   1  29  -1   66.19   26.50
  -1  29   1  109.89   32.70
  -1  29  -1   43.40   25.10
   1  29   1  123.49   31.70
  -1  29   3  719.03   63.19
   1  29  -3  607.94   58.19
   1  29   3  622.04   58.89
  -1  29  -3  571.34   55.09
  -1  29   5   38.80   25.40
   1  29  -5   61.79   25.30
  -1  29  -5   72.29   24.30
   1  29   5   33.70   24.40
  -1  29   7   83.99   28.30
   1  29  -7   73.09   28.50
   1  29   7   30.50   24.30
  -1  29  -7   71.89   27.00
  -1  29   9   35.00   25.50
   1  29  -9   93.39   28.00
   1  29   9  147.99   34.70
  -1  29  -9  131.19   29.30
   1  29 -11  382.76   43.30
  -1  29  11  296.57   44.40
  -1  29 -11  409.46   45.30
   1  29  11  357.86   47.60
  -1  29  13   98.09   32.60
   1  29 -13   61.79   24.10
  -1  29 -13   18.10   21.90
   1  29  13    7.70   25.00
 -29  15   1  566.24   58.29
  -1  29  15  530.45   58.19
   1  29 -15  606.04   52.69
   1  29  15  516.35   57.49
  -1  29 -15  540.95   50.29
 -29  17   1  298.77   45.50
  -1  29  17  323.87   49.80
   1  29 -17  334.07   39.30
  -1  29 -17  358.76   40.10
   1  29  17  339.17   47.40
 -29  17  -1  345.07   48.40
 -29  19   1   28.10   27.70
   1  29 -19   43.50   24.80
  -1  29  19   35.80   31.40
 -29  19  -1   44.40   31.20
   1  29  19  -18.10   21.80
 -29  21   1   18.30   28.20
  -1  29  21   -4.60   23.20
 -29  21  -1   63.29   33.40
   1  29  21   40.00   29.90
  -1  29  23   93.99   36.50
 -29  23   1  184.08   44.60
   1  29  23   84.29   33.30
 -29  23  -1  105.99   35.50
  -1  29  25  162.08   39.40
 -29  25   1  228.08   48.00
   1  29  25  198.58   43.50
 -29  25  -1  184.08   44.00
  -1  29  27  159.78   40.30
 -29  27   1   98.29   40.90
 -29  27  -1  112.49   38.50
   1  29  27  102.39   38.90
  -3  29   1  677.93   54.89
   3  29  -1  565.54   54.79
  -3  29  -1  547.15   55.59
   3  29   1  507.65   53.39
  -3  29   3  680.93   63.69
   3  29  -3  698.23   56.59
  -3  29  -3  710.83   61.89
   3  29   3  728.43   58.59
   3  29  -5   43.20   24.50
  -3  29   5   24.70   23.90
   3  29   5   37.70   26.60
  -3  29  -5   17.00   23.70
  -3  29   7  -26.80   19.90
   3  29  -7   14.80   20.90
   3  29   7   33.20   24.40
  -3  29  -7   26.30   24.40
   3  29  -9   36.70   24.70
  -3  29   9   33.70   25.00
   3  29   9   24.80   27.10
  -3  29  -9   23.30   22.50
  -3  29  11  866.11   69.09
   3  29 -11  836.72   59.59
   3  29  11  655.93   64.89
  -3  29 -11  722.33   54.29
  -3  29  13    3.60   24.70
   3  29 -13   25.20   21.70
   3  29  13  -27.50   21.40
  -3  29 -13   70.19   25.90
  -3  29  15  774.72   66.19
 -29  15   3  984.10   70.09
   3  29 -15  924.81   61.59
   3  29  15  829.42   67.59
  -3  29 -15  818.52   59.49
 -29  17   3  225.78   41.60
  -3  29  17  352.96   49.30
   3  29 -17  266.57   36.80
   3  29  17  265.87   42.20
  -3  29 -17  208.58   33.50
 -29  17  -3  274.87   42.50
 -29  19   3   59.49   31.90
  -3  29  19   59.99   34.30
   3  29 -19   95.49   27.20
   3  29  19  144.49   37.40
 -29  19  -3   81.59   34.60
  -3  29  21   18.00   30.30
 -29  21   3    5.60   27.60
 -29  21  -3    6.80   28.40
   3  29  21   29.30   26.70
  -3  29  23  111.39   36.70
 -29  23   3   83.69   38.40
 -29  23  -3   91.79   37.20
   3  29  23    7.20   30.50
 -29  25   3  235.58   48.70
  -3  29  25  275.67   48.00
 -29  25  -3  210.78   45.60
   3  29  25  346.27   51.89
 -29  27   3   47.50   33.80
  -3  29  27   48.20   30.40
   3  29  27   45.90   32.70
 -29  27  -3    9.00   34.10
  -5  29   1   73.39   27.90
  -5  29  -1   35.40   25.10
  -5  29   3   -1.00   22.30
  -5  29  -3   37.80   24.00
  -5  29   5  394.66   48.70
  -5  29  -5  264.77   40.70
  -5  29   7   60.99   27.50
  -5  29  -7   30.90   25.10
   5  29   7   22.70   24.40
  -5  29   9  215.08   38.30
  -9   5  29  278.07   45.10
   5  29   9  254.17   41.70
  -5  29  -9  220.48   34.70
  -5  29  11   17.90   25.60
   5  29  11    6.40   23.90
  -5  29 -11   13.30   21.80
  -5  29  13   35.80   27.20
   5  29  13    2.20   28.20
  -5  29 -13   22.00   21.70
 -29  15   5  -14.50   26.10
  -5  29  15   15.60   26.00
  -5  29 -15  -12.50   19.10
   5  29  15  -11.30   27.70
 -29  17   5   39.70   28.80
  -5  29  17   43.00   30.60
  -5  29 -17   60.19   25.70
   5  29  17   46.80   31.50
   5  29 -19   48.90   25.70
  -5  29  19   19.80   27.40
 -29  19   5   65.99   31.20
 -29  19  -5    8.40   28.60
   5  29  19   48.30   29.20
  -5  29  21   93.19   33.80
 -29  21   5   34.90   29.80
 -29  21  -5  114.19   36.00
   5  29  21   52.09   30.20
  -5  29  23  138.39   38.90
 -29  23   5  136.59   41.60
   5  29  23   72.29   35.40
 -29  23  -5  122.09   36.80
 -29  25   5   19.00   33.20
  -5  29  25   12.20   30.30
   5  29  25  -40.10   24.80
 -29  25  -5  -15.30   29.00
 -29  27   5   78.89   34.90
  -5  29  27    7.90   27.20
   5  29  27  -25.90   24.70
 -29  27  -5   62.89   36.20
  -7  29   1   98.69   31.30
  -7  29  -1  111.79   32.20
  -7  29   3    1.70   22.70
  -7  29  -3  -19.60   19.60
  -7  29   5  -26.70   20.10
  -7  29  -5   11.60   23.40
  -7   7  29    7.10   16.40
  -7  29   7  -26.80   21.00
  -7  29  -7  -10.60   22.10
  -9   7  29   -9.20   15.60
  -7  29   9   -4.80   22.30
  -7  29  -9   19.10   20.50
 -11   7  29    1.00   16.50
  -7  29  11  -24.20   26.40
  -7  29 -11   23.90   22.10
  -7  29  13   20.60   27.40
 -13   7  29   -0.50   19.50
   7  29  13  -16.30   22.90
  -7  29 -13   -7.20   19.30
 -29  15   7   27.80   27.30
 -15   7  29   33.90   22.30
  -7  29  15   87.79   31.60
   7  29  15   99.69   30.80
  -7  29 -15   49.20   23.50
 -29  17   7  -26.80   23.80
  -7  29  17  -21.90   25.50
   7  29  17  -33.50   22.80
  -7  29 -17   15.00   19.80
  -7  29  19   37.90   26.30
 -29  19   7   18.60   26.70
   7  29  19   20.30   30.00
 -29  19  -7  -12.10   26.70
 -29  21   7   -7.50   29.90
  -7  29  21   -3.20   24.30
 -29  21  -7  -49.20   19.20
   7  29  21   23.20   29.80
  -7  29  23  -14.60   26.30
 -29  23   7   13.80   28.80
 -29  23  -7    3.10   28.20
   7  29  23   11.70   29.20
  -7  29  25   32.40   30.70
 -29  25   7   27.60   32.50
 -29  25  -7    8.00   28.80
   7  29  25   34.60   31.90
 -29  27   7   17.50   30.10
  -7  29  27   -1.00   30.90
   7  29  27   -7.30   26.40
 -29  27  -7   -3.30   29.20
  -9  29   1  167.48   33.70
  -9  29  -1   74.39   28.30
  -9  29   3    5.10   23.50
  -3   9  29   30.20   21.20
  -9  29  -3   30.50   25.50
  -9  29   5  252.67   42.10
  -5   9  29  244.18   30.80
  -9  29  -5  355.86   44.60
  -7   9  29    3.50   16.60
  -9  29   7   27.90   26.70
  -9  29  -7   -7.20   21.40
  -9  29   9   49.50   30.90
  -9   9  29   52.09   21.30
  -9  29  -9   83.59   27.50
  -9  29  11  155.98   35.40
 -11   9  29  138.99   27.80
  -9  29 -11  135.49   31.50
 -13   9  29   70.69   23.80
  -9  29  13   80.99   33.40
  -9  29 -13   24.40   22.30
 -15   9  29  225.38   34.30
  -9  29  15  256.67   45.40
 -29  15   9  197.68   42.90
  -9  29 -15  270.97   37.50
 -29  17   9  -22.50   23.40
  -9  29  17  -43.20   25.40
 -17   9  29  -26.10   20.10
  -9  29 -17  -11.80   18.80
   9  29  17   22.30   28.00
 -29  19   9  242.18   44.60
  -9  29  19  196.38   41.10
   9  29  19  197.38   42.80
 -29  21   9   14.70   30.10
  -9  29  21   49.60   34.80
   9  29  21   41.70   33.60
 -29  21  -9   42.30   30.90
 -29  23   9   63.09   33.70
  -9  29  23  108.99   34.40
   9  29  23   55.99   34.20
 -29  23  -9   22.60   29.00
  -9  29  25  113.99   38.00
 -29  25   9   66.29   34.50
   9  29  25  116.39   38.10
 -29  25  -9   61.59   34.60
 -29  27   9   21.60   34.60
  -9  29  27  -35.90   28.30
   9  29  27  -22.30   23.70
 -29  27  -9   15.20   32.20
  -1  11  29  362.96   36.30
 -11  29   1  297.67   43.60
 -11  29  -1  408.26   49.90
 -11  29   3  717.03   65.19
  -3  11  29  766.02   51.39
 -11  29  -3  767.72   60.19
 -11  29   5   18.50   26.90
  -5  11  29    3.00   18.00
 -11  29  -5   27.80   24.50
 -11  29   7  -11.40   22.10
  -7  11  29   21.60   18.20
 -11  29  -7   25.80   25.30
 -11  29   9  139.09   35.00
  -9  11  29  129.99   27.10
 -11  29  -9  122.49   31.70
 -11  29  11  854.61   68.49
 -11  11  29  909.31   59.29
 -11  29 -11  810.72   62.79
 -29  13  11   17.70   26.30
 -13  11  29    2.60   20.30
 -11  29  13   20.20   25.60
 -11  29 -13   23.50   24.00
 -15  11  29 1017.60   65.99
 -11  29  15 1011.50   79.09
 -29  15  11  932.41   72.99
 -11  29 -15  811.92   61.89
 -11  29  17  242.08   45.70
 -17  11  29  282.07   39.80
 -29  17  11  325.97   49.60
 -11  29 -17  292.97   44.20
 -19  11  29  122.29   32.90
 -29  19  11   93.09   33.50
 -11  29  19   91.39   37.10
 -21  11  29   27.70   27.70
 -11  29  21   50.89   30.80
 -29  21  11   44.80   32.60
  11  29  21   42.00   28.20
 -29  23  11   33.40   32.40
 -11  29  23  103.39   38.00
  11  29  23  116.59   34.40
 -29  23 -11   63.39   33.30
 -11  29  25  188.78   46.60
 -29  25  11  144.59   41.10
 -29  25 -11  234.28   43.90
  11  29  25  221.48   42.40
 -11  29  27  140.29   43.40
 -29  27  11   69.39   38.30
  11  29  27  138.89   39.50
 -29  27 -11  145.59   39.60
 -13  29   1    6.00   24.80
  -1  13  29   21.20   19.90
 -13  29  -1   45.10   29.20
   1  13  29    2.20   17.90
 -13  29   3   24.50   25.30
  -3  13  29    9.10   19.50
   3  13  29   40.50   22.70
 -13  29  -3   46.40   29.00
  -5  13  29    9.20   18.70
 -13  29   5   13.60   26.00
 -13  29  -5  -21.70   24.60
 -13  29   7   35.50   29.90
  -7  13  29  -30.10   17.50
 -13  29  -7   15.40   22.90
 -13  29   9   21.70   29.30
  -9  13  29  107.09   26.20
 -13  29  -9   36.00   26.50
 -11  13  29   -8.90   19.40
 -13  29  11  -23.80   26.40
 -13  29 -11   31.60   24.80
 -13  29  13    0.50   25.50
 -13  13  29   43.40   24.00
 -29  13  13  -12.50   23.30
 -13  29 -13   -4.10   24.20
 -13  29  15   33.00   29.20
 -29  15  13   19.90   28.90
 -15  13  29   19.50   26.00
 -13  29 -15   60.49   25.20
 -17  13  29  -10.00   24.00
 -29  17  13   17.60   27.60
 -13  29  17   19.90   28.30
 -29  19  13   55.39   31.20
 -19  13  29   21.60   25.70
 -13  29  19   41.60   29.70
 -21  13  29   64.39   30.30
 -29  21  13   34.50   34.80
 -13  29  21   54.49   35.70
 -23  13  29   14.00   28.30
 -13  29  23   17.50   28.20
 -29  23  13   15.30   35.30
  13  29  23   10.80   33.30
 -29  25  13   52.99   37.20
 -13  29  25   47.80   34.40
  13  29  25  -14.60   25.20
 -29  25 -13    0.80   28.70
 -29  27  13    2.80   32.60
 -13  29  27  -11.40   33.70
 -29  27 -13   14.50   32.50
  13  29  27  -15.30   30.20
  -1  15  29  621.14   50.19
 -15  29   1  511.25   57.19
   1  15  29  570.94   46.50
 -15  29  -1  584.14   61.49
 -15  29   3  930.71   73.79
  -3  15  29  869.31   59.09
   3  15  29  837.42   57.49
 -15  29  -3  879.11   69.49
 -15  29   5   55.89   32.00
  -5  15  29  -18.50   18.20
 -15  29  -5   24.60   27.60
   5  15  29  -10.20   17.60
 -15  29   7   33.40   28.20
  -7  15  29   10.20   22.60
 -15  29  -7   66.49   31.00
  -9  15  29  252.17   36.70
 -15  29   9  260.37   46.50
 -15  29  -9  265.17   42.00
 -15  29  11  937.51   76.89
 -11  15  29  878.51   63.39
 -15  29 -11  928.81   68.19
 -15  29  13   33.40   30.30
 -13  15  29   -4.10   23.10
 -15  29 -13    6.70   25.20
 -29  15  15  910.71   73.19
 -15  29  15 1079.99   79.19
 -15  15  29  934.51   68.69
 -15  29 -15  816.62   63.69
 -15  29  17  370.86   56.79
 -29  17  15  496.95   61.59
 -17  15  29  362.36   47.70
 -29  19  15   43.90   35.00
 -15  29  19   62.79   33.40
 -19  15  29   75.29   31.70
 -15  29  21   98.39   38.90
 -21  15  29   91.19   32.90
 -29  21  15  155.18   40.50
 -29  23  15  141.79   42.50
 -15  29  23   86.99   38.00
 -23  15  29  177.18   40.50
 -25  15  29  135.29   37.40
 -29  25  15  187.78   47.60
 -15  29  25  194.08   47.40
  15  29  25  186.88   43.30
 -15  29  27   51.19   38.50
  15  29  27   75.79   37.80
  -1  17  29  383.26   42.50
 -17  29   1  304.37   49.20
 -17  29  -1  298.47   46.80
   1  17  29  334.27   39.80
  -3  17  29  235.58   35.90
 -17  29   3  286.07   45.60
   3  17  29  205.88   34.10
 -17  29  -3  266.97   43.80
  -5  17  29   53.89   25.80
 -17  29   5   50.59   29.00
   5  17  29   52.39   24.20
 -17  29  -5    0.60   27.70
  -7  17  29  -15.40   19.50
 -17  29   7   48.40   30.40
 -17  29  -7  -38.30   24.00
   7  17  29  -26.30   16.90
 -17  29   9  -24.70   27.10
  -9  17  29    4.10   22.80
 -17  29  -9  -39.90   23.70
 -17  29  11  285.17   50.49
 -11  17  29  320.37   44.20
 -17  29 -11  324.57   44.70
 -13  17  29   28.80   26.00
 -17  29  13   49.40   34.40
 -17  29 -13  -33.40   21.60
 -15  17  29  312.97   45.90
 -29  15  17  373.76   53.69
 -17  29  15  371.46   56.59
 -17  29 -15  376.66   46.80
 -29  17  17   -2.90   31.90
 -17  29  17   56.19   34.40
 -17  17  29   51.79   29.40
 -17  29  19   16.90   29.50
 -29  19  17   62.39   37.10
 -19  17  29  -22.00   26.10
 -29  21  17   28.50   30.70
 -21  17  29    2.50   28.80
 -17  29  21  -27.40   26.50
 -29  23  17   21.10   36.60
 -17  29  23  -48.90   22.90
 -23  17  29    9.70   28.20
 -25  17  29  116.79   40.20
 -29  25  17   42.90   34.70
 -17  29  25  100.39   42.00
  -1  19  29   51.29   26.60
 -19  29   1    7.30   30.00
   1  19  29   56.49   26.60
 -19  29  -1   59.09   34.70
 -19  29   3   44.70   31.00
  -3  19  29  112.39   31.70
   3  19  29   78.49   28.80
 -19  29  -3   54.49   31.50
  -5  19  29   24.10   25.80
 -19  29   5   25.20   27.50
 -19  29  -5   81.29   32.60
   5  19  29   10.70   22.50
 -19  29   7   10.10   28.40
  -7  19  29   43.90   24.40
 -19  29  -7   16.40   26.80
   7  19  29   68.89   25.30
  -9  19  29  197.88   38.10
 -19  29   9  198.38   45.50
 -19  29  -9  217.88   41.60
   9  19  29  215.68   34.90
 -11  19  29  103.59   32.80
 -19  29  11  124.29   37.50
 -19  29 -11   36.20   29.10
 -13  19  29   22.00   25.80
 -19  29  13   -1.20   28.40
 -19  29 -13   54.49   27.50
 -19  29  15  -21.50   25.20
 -15  19  29   23.00   28.20
 -29  15  19   26.30   32.80
 -19  29 -15   42.10   27.80
 -19  29  17   19.90   32.50
 -29  17  19   41.30   33.60
 -17  19  29  -14.00   25.00
 -19  29  19   25.80   32.60
 -19  19  29   45.90   32.20
 -29  19  19   59.19   36.40
 -29  21  19   56.19   34.00
 -21  19  29  106.69   34.20
 -19  29  21   79.59   35.00
 -29  23  19  112.59   39.40
 -19  29  23   95.49   39.80
 -23  19  29  103.69   39.00
 -21  29   1  -33.20   27.80
  -1  21  29   34.30   26.60
   1  21  29   59.89   27.80
 -21  29  -1   30.30   32.30
  -3  21  29  -25.60   23.50
 -21  29   3    1.40   25.40
 -21  29  -3   -6.80   25.50
   3  21  29  -19.90   23.50
  -5  21  29   94.69   31.10
 -21  29   5   64.99   32.90
 -21  29  -5   74.59   35.60
   5  21  29   39.70   26.00
 -21  29   7    8.50   26.10
  -7  21  29   19.80   26.50
   7  21  29  -12.10   19.80
 -21  29  -7  -23.70   24.20
  -9  21  29   60.79   30.90
 -21  29   9   -8.80   26.00
   9  21  29   73.29   26.40
 -21  29  -9   38.50   25.80
 -21  29  11   85.29   37.30
 -11  21  29   28.30   27.90
 -21  29 -11   -9.10   25.80
  11  21  29   20.20   28.10
 -21  29  13   42.10   32.80
 -13  21  29   -4.60   26.40
 -21  29 -13   22.60   28.50
 -15  21  29   87.49   29.30
 -29  15  21   62.89   32.00
 -21  29  15   64.99   36.50
 -29  17  21  -41.50   27.50
 -17  21  29  -35.50   18.90
 -21  29  17   -4.40   31.90
 -29  19  21  137.19   43.10
 -19  21  29   72.19   36.90
 -21  29  19   56.19   34.60
 -21  21  29   45.70   32.40
 -29  21  21   82.69   36.60
 -21  29  21   92.19   39.00
 -23  29   1   57.49   32.50
  -1  23  29   97.99   33.00
 -23  29  -1   87.79   34.90
   1  23  29  145.49   35.10
  -3  23  29   77.69   32.20
 -23  29   3   21.30   29.10
 -23  29  -3   44.00   31.10
   3  23  29   85.49   31.60
  -5  23  29   27.50   29.80
 -23  29   5  144.79   41.20
   5  23  29   94.79   32.40
 -23  29  -5  101.79   37.20
  -7  23  29   38.70   28.40
 -23  29   7   -0.80   27.80
 -23  29  -7   -5.20   29.40
   7  23  29   76.19   27.70
  -9  23  29   41.40   28.20
 -23  29   9    5.20   32.90
 -23  29  -9   19.10   27.00
   9  23  29   67.29   29.30
 -11  23  29  188.68   40.50
 -23  29  11  104.29   36.90
 -23  29 -11   61.49   31.20
  11  23  29   52.49   29.80
 -23  29  13   14.60   33.80
 -13  23  29   -3.10   28.70
 -23  29 -13   10.20   27.50
  13  23  29   10.80   39.30
 -23  29  15  152.38   42.50
 -15  23  29  282.67   48.80
 -17  23  29  -50.39   28.90
 -29  17  23  -30.80   24.60
 -23  29  17   48.40   36.10
 -23  29  19   57.39   37.00
 -29  19  23   53.49   35.40
 -19  23  29   75.79   39.70
 -25  29   1  110.79   38.80
  -1  25  29  163.98   39.00
   1  25  29  202.08   40.00
 -25  29  -1  116.39   36.80
 -25  29   3  261.47   49.10
  -3  25  29  243.98   44.50
   3  25  29  352.26   48.70
 -25  29  -3  279.47   50.89
 -25  29   5  -10.30   27.80
  -5  25  29    9.00   26.70
   5  25  29   24.60   29.60
 -25  29  -5   12.60   28.70
 -25  29   7  -21.90   31.30
  -7  25  29  -41.20   25.30
 -25  29  -7  -23.30   27.40
   7  25  29   63.29   28.80
 -25  29   9   99.69   42.60
  -9  25  29  125.99   35.00
   9  25  29  107.49   32.70
 -25  29  -9   80.49   31.70
 -11  25  29  224.78   45.50
 -25  29  11  330.97   54.89
 -25  29 -11  249.38   44.30
  11  25  29  149.69   35.80
 -25  29  13  -15.40   31.40
 -13  25  29  -32.70   27.50
 -25  29 -13   65.59   32.50
  13  25  29  -73.49   22.60
 -15  25  29  264.87   49.50
 -25  29  15  151.18   43.60
 -29  17  25   73.09   37.90
 -25  29  17   89.59   38.80
 -17  25  29  123.49   36.30
 -27  29   1  147.69   43.50
  -1  27  29   97.39   30.80
 -27  29  -1  112.69   40.60
   1  27  29  139.69   39.10
  -3  27  29  131.99   37.80
 -27  29   3  103.99   41.60
   3  27  29   61.49   33.60
 -27  29  -3   65.59   34.60
 -27  29   5   50.79   33.90
  -5  27  29  -21.80   28.80
 -27  29  -5   27.10   32.90
   5  27  29   83.69   32.40
  -7  27  29  -12.70   23.30
 -27  29   7   18.90   35.70
   7  27  29   -0.10   26.00
 -27  29  -7    3.20   25.50
  -9  27  29   -8.90   28.10
 -27  29   9  -70.09   29.60
 -27  29  -9   -7.00   30.80
   9  27  29  -20.80   28.70
 -27  29  11   13.70   31.90
 -11  27  29  173.08   43.60
 -27  29 -11   64.29   36.70
  11  27  29   94.29   34.50
 -27  29  13   -8.70   37.90
 -13  27  29  -55.29   29.80
 -27  29 -13   -2.30   29.60
  13  27  29    3.50   28.60
 -15  27  29   24.60   31.80
  -1  29  29  429.06   56.69
 -29  29   1  396.06   59.29
 -29  29  -1  461.35   63.39
   1  29  29  404.46   56.79
  -3  29  29  517.55   63.59
 -29  29   3  509.15   67.49
 -29  29  -3  420.36   58.09
   3  29  29  501.75   61.39
  -5  29  29    7.80   32.10
 -29  29   5   -9.60   29.50
 -29  29  -5  -15.90   28.20
   5  29  29   35.70   31.70
  -7  29  29  -43.20   20.50
 -29  29   7    2.10   34.00
 -29  29  -7   76.09   35.50
   7  29  29  -38.20   28.30
  -9  29  29   89.49   40.20
 -29  29  -9   91.49   38.10
   9  29  29  140.69   40.50
   0  30   0   -3.60   24.60
   0  30  -2  217.58   37.20
   0  30   2  232.08   38.10
   0  30  -4    9.00   21.60
   0  30   4  -14.20   23.10
   0  30   6  509.35   55.69
   0  30  -6  516.25   51.19
   0  30   8   38.30   27.50
   0  30  -8   20.80   24.30
   0  30  10   45.50   27.40
   0  30 -10   74.59   27.00
   0  30 -12   10.80   20.30
   0  30  12   -4.40   28.00
   0  30  14 1120.69   77.49
   0  30 -14 1028.70   67.39
   0  30  16  -16.00   24.20
 -30  16   0    3.80   24.50
   0  30 -16    2.30   20.50
   0  30 -18  688.83   54.19
 -30  18   0  884.51   76.49
   0  30  18  657.53   68.29
 -30  20   0   26.90   31.50
   0  30  20  -21.60   27.40
   0  30  22   96.19   34.90
 -30  22   0   38.80   30.40
   0  30  24    6.90   31.00
 -30  24   0   16.90   31.90
 -30  26   0  645.74   73.09
   0  30  26  866.91   76.49
 -30  28   0    2.50   31.30
   0  30  28   68.99   37.80
  -2  30   0  293.57   43.00
   2  30   0  252.97   39.40
  -2  30   2 1481.65   85.79
   2  30  -2 1314.57   81.89
   2  30   2 1317.37   85.29
  -2  30  -2 1440.16   83.59
  -2  30   4   79.19   27.90
   2  30  -4   51.59   28.50
  -2  30  -4  102.39   28.50
   2  30   4  138.89   32.50
  -2  30   6   57.99   27.70
   2  30  -6  -35.40   22.60
   2  30   6   61.99   29.40
  -2  30  -6   48.00   27.20
   2  30  -8    0.60   19.70
  -2  30   8   -5.30   21.50
   2  30   8   28.70   26.80
  -2  30  -8    4.40   23.60
   2  30 -10  526.05   51.79
  -2  30  10  619.64   62.29
  -2  30 -10  537.65   52.69
  -2  30  12   45.20   31.40
   2  30 -12   65.79   26.00
   2  30  12  104.99   34.00
  -2  30 -12   39.00   23.40
  -2  30  14  393.46   52.49
   2  30 -14  443.16   46.70
   2  30  14  361.76   48.90
  -2  30 -14  349.47   42.30
   2  30 -16  -12.60   20.90
  -2  30  16  -19.20   24.70
 -30  16   2   27.30   26.40
   2  30  16   68.79   30.10
  -2  30 -16    0.20   22.40
 -30  18   2  -16.90   24.50
  -2  30  18    4.10   24.10
   2  30 -18    6.40   22.00
  -2  30 -18  -38.30   18.50
   2  30  18  -17.60   24.80
 -30  18  -2  -41.80   24.80
 -30  20   2   18.90   26.60
  -2  30  20   26.60   28.10
   2  30  20   42.10   28.20
 -30  20  -2   43.70   31.10
 -30  22   2  164.28   41.30
  -2  30  22   85.99   34.10
   2  30  22   53.99   33.70
 -30  22  -2   65.69   36.20
  -2  30  24   -8.10   31.00
 -30  24   2   44.10   33.70
 -30  24  -2    6.30   28.30
   2  30  24    4.20   26.60
  -2  30  26   50.79   31.00
 -30  26   2   57.29   37.00
   2  30  26   53.49   33.30
 -30  26  -2   36.10   31.00
 -30  28   2    9.50   31.30
  -2  30  28  -30.30   30.60
   2  30  28   24.60   30.60
 -30  28  -2  -34.50   32.00
  -4  30   0  -23.30   23.70
   4  30   0   -3.80   22.90
  -4  30   2   82.89   29.00
  -4  30  -2   79.39   31.30
   4  30   2   78.79   29.50
  -4  30   4  294.37   42.60
  -4  30  -4  302.57   41.90
   4  30   4  229.48   39.20
  -4  30   6  166.48   36.50
   4  30   6  174.38   36.00
  -4  30  -6  197.88   35.00
  -4  30   8  371.36   48.10
  -4  30  -8  355.46   44.20
   4  30   8  232.78   40.90
  -4  30  10  -26.70   21.00
   4  30  10   15.00   27.60
  -4  30 -10   -1.10   22.50
   4  30 -12  353.86   44.10
  -4  30  12  323.17   46.90
  -4  30 -12  333.17   42.40
   4  30  12  392.66   51.09
   4  30 -14  256.27   37.40
  -4  30  14  262.67   45.20
  -4  30 -14  289.37   39.30
   4  30  14  277.37   45.20
 -30  16   4  115.89   36.40
   4  30 -16   77.49   26.70
  -4  30  16  112.39   33.90
  -4  30 -16  103.59   28.00
   4  30  16   78.29   31.30
   4  30 -18  186.18   32.30
 -30  18   4  142.39   37.00
  -4  30  18  132.29   36.00
  -4  30 -18  159.08   45.60
 -30  18  -4  169.58   39.50
   4  30  18  203.98   41.20
  -4  30  20   21.80   32.00
 -30  20   4   14.90   27.00
 -30  20  -4   13.30   31.60
   4  30  20   34.20   32.90
 -30  22   4   52.29   34.90
  -4  30  22   37.60   32.10
 -30  22  -4   65.49   34.80
   4  30  22   16.20   29.40
  -4  30  24  -19.60   26.90
 -30  24   4  -35.60   30.50
 -30  24  -4   20.70   27.20
   4  30  24  -15.10   23.10
  -4  30  26  160.58   39.10
 -30  26   4  170.98   46.20
   4  30  26  149.49   39.60
 -30  26  -4  182.18   42.30
  -4  30  28   68.99   38.10
 -30  28   4   77.39   37.60
   4  30  28   54.89   33.20
 -30  28  -4  106.39   38.30
  -6  30   0  519.45   55.39
  -6  30   2   70.49   27.90
  -6  30  -2   21.40   24.60
  -6  30   4  193.18   36.60
  -6  30  -4  170.08   33.20
  -6  30   6   57.29   30.40
  -6  30  -6   58.09   25.20
  -6  30   8    2.40   23.30
  -6  30  -8    0.10   21.00
  -6  30  10   83.19   31.40
  -6  30 -10  141.69   32.00
   6  30  10  150.98   36.30
  -6  30  12   80.99   31.00
  -6  30 -12   65.69   26.50
   6  30  12   86.89   31.70
  -6  30  14   19.30   25.90
  -6  30 -14    4.60   22.60
   6  30  14   19.30   26.50
 -30  16   6   56.99   33.00
  -6  30  16    1.50   26.60
   6  30  16   51.69   30.00
  -6  30 -16   41.00   22.70
  -6  30  18  100.89   37.00
 -30  18   6   64.29   32.00
   6  30  18   58.49   30.00
 -30  20   6  -13.30   28.70
  -6  30  20    8.80   25.20
 -30  20  -6  -34.50   25.00
   6  30  20   -7.20   29.10
 -30  22   6  141.29   38.80
  -6  30  22  138.29   36.60
   6  30  22  152.28   38.10
 -30  22  -6  157.38   39.80
  -6  30  24  -20.40   25.10
 -30  24   6   24.10   30.50
   6  30  24   37.70   30.20
 -30  24  -6   24.60   29.60
  -6  30  26    0.80   31.60
 -30  26   6   14.80   32.10
   6  30  26   61.79   30.90
 -30  26  -6   27.10   28.20
  -6  30  28   35.90   35.80
 -30  28   6   51.19   38.20
   6  30  28    8.90   32.80
 -30  28  -6   98.89   36.90
  -8  30   0   -5.10   20.70
  -8  30   2   -5.60   23.20
  -8  30  -2   -1.80   22.10
  -8  30   4  308.67   47.50
  -8  30  -4  344.37   46.70
  -8  30   6    4.90   24.60
  -8  30  -6   26.50   25.60
  -8  30   8  209.28   40.40
  -8  30  -8  147.69   31.40
  -8  30  10   87.99   33.60
  -8  30 -10   36.50   25.90
  -8  30  12   63.99   30.10
 -12   8  30  106.79   29.10
  -8  30 -12  119.59   29.80
  -8  30  14  148.79   36.30
 -14   8  30  159.48   30.50
   8  30  14  173.38   38.20
  -8  30 -14  164.78   32.50
 -30  16   8    7.30   28.30
 -16   8  30  -19.50   19.30
  -8  30  16    8.20   27.50
   8  30  16   14.20   26.20
  -8  30 -16    6.90   21.10
 -30  18   8   39.80   30.10
  -8  30  18   45.20   30.30
   8  30  18  111.39   35.40
  -8  30  20  -15.90   28.40
 -30  20   8  -15.60   24.90
   8  30  20  -14.30   27.30
  -8  30  22   -5.50   28.50
 -30  22   8   38.10   34.20
   8  30  22  -13.90   29.20
 -30  22  -8  -24.70   27.10
 -30  24   8   11.40   35.80
  -8  30  24   50.09   33.30
   8  30  24  -20.90   30.70
 -30  24  -8   44.10   31.60
 -30  26   8   57.89   35.10
  -8  30  26   48.10   37.50
   8  30  26   -3.50   32.50
 -30  26  -8   97.89   37.70
  -8  30  28  -34.80   30.80
 -30  28   8  -44.60   32.60
 -30  28  -8   15.60   32.60
   8  30  28   24.30   31.50
 -10  30   0   32.20   25.70
 -10  30   2  497.55   55.59
 -10  30  -2  593.44   59.39
 -10  30   4    2.20   23.60
 -10  30  -4   12.70   22.50
 -10  30   6  114.19   32.20
 -10  30  -6  183.08   36.40
 -10  30   8   52.89   27.70
  -8  10  30   41.20   33.10
 -10  30  -8  -16.40   21.80
 -10  10  30   66.09   22.10
 -10  30  10   57.49   30.40
 -10  30 -10   74.49   28.40
 -12  10  30   76.89   24.90
 -10  30  12   83.99   31.30
 -10  30 -12  100.59   29.10
 -14  10  30  137.39   29.30
 -10  30  14   77.49   32.60
 -10  30 -14  126.99   30.50
 -16  10  30  -12.80   22.30
 -10  30  16  -54.89   19.40
 -30  16  10   -4.50   26.30
 -10  30 -16   10.10   24.40
 -10  30  18  174.98   41.00
 -18  10  30   87.39   29.50
 -30  18  10  198.18   43.40
  10  30  18  142.39   39.60
 -10  30  20  -12.60   23.90
 -30  20  10   78.69   34.50
  10  30  20   -5.80   24.70
 -10  30  22   98.09   39.20
 -30  22  10   99.69   38.80
  10  30  22    5.90   29.60
 -30  22 -10  177.78   39.00
 -30  24  10   -9.20   33.30
 -10  30  24   54.09   36.00
  10  30  24  -21.40   26.40
 -30  24 -10    3.90   30.50
 -30  26  10  121.49   46.80
 -10  30  26  113.39   41.00
  10  30  26   68.59   34.10
 -30  26 -10   51.69   33.90
 -10  30  28    5.10   34.60
  10  30  28   -3.90   31.90
 -30  28 -10    2.80   30.60
 -12  30   0  -36.60   20.40
 -12  30   2   24.00   25.20
 -12  30  -2   28.20   28.30
 -12  30   4  319.87   46.10
 -12  30  -4  351.66   48.90
  -6  12  30   90.39   25.20
 -12  30   6   76.39   30.90
 -12  30  -6   85.69   32.30
 -12  30   8  145.69   36.80
  -8  12  30   85.69   24.10
 -12  30  -8  122.19   33.30
 -12  30  10   99.19   32.80
 -10  12  30   53.39   23.90
 -12  30 -10   75.89   30.50
 -12  30  12  243.88   44.40
 -12  12  30  210.68   34.40
 -12  30 -12  255.97   39.80
 -12  30  14  467.15   57.29
 -14  12  30  350.26   44.30
 -12  30 -14  374.06   44.70
 -12  30  16  572.24   65.99
 -30  16  12  695.23   70.59
 -16  12  30  508.15   53.79
 -12  30 -16  729.23   58.49
 -18  12  30  267.77   40.80
 -12  30  18  216.38   46.10
 -30  18  12  244.78   47.90
 -20  12  30  105.19   33.20
 -30  20  12   72.19   33.80
 -12  30  20  137.39   42.30
 -22  12  30    4.30   26.30
 -30  22  12   32.00   34.00
 -12  30  22  -14.80   24.40
  12  30  22   36.00   32.80
 -30  24  12  130.29   45.50
 -12  30  24  159.98   46.00
 -30  24 -12  160.88   40.20
  12  30  24  226.78   47.40
 -30  26  12  246.58   52.09
 -12  30  26  326.67   53.79
 -30  26 -12  213.58   44.60
  12  30  26  278.77   51.29
 -14  30   0 1008.50   73.89
 -14  30   2  373.06   51.89
  -2  14  30  294.37   43.70
 -14  30  -2  389.56   52.29
 -14  30   4  275.17   47.40
  -4  14  30  265.47   35.40
 -14  30  -4  237.38   43.30
 -14  30   6    6.10   25.60
  -6  14  30    6.70   21.20
 -14  30  -6   33.40   27.00
  -8  14  30  139.29   30.40
 -14  30   8  162.28   38.20
 -14  30  -8  172.28   36.20
 -14  30  10   95.69   33.50
 -10  14  30  123.59   30.10
 -14  30 -10  151.08   33.10
 -12  14  30  439.96   48.10
 -14  30  12  353.16   52.09
 -14  30 -12  437.96   49.80
 -14  14  30   38.50   26.40
 -14  30  14   -6.30   30.50
 -14  30 -14   61.79   27.00
 -16  14  30    7.10   25.00
 -14  30  16   12.00   28.20
 -30  16  14   52.99   32.60
 -14  30 -16   51.49   32.60
 -30  18  14  -30.10   26.30
 -18  14  30   75.09   30.50
 -14  30  18   19.30   30.10
 -30  20  14  125.69   38.50
 -20  14  30  128.29   34.50
 -14  30  20  224.68   43.00
 -30  22  14   30.30   31.40
 -22  14  30   17.00   29.30
 -14  30  22   54.99   30.90
 -24  14  30   -6.60   27.70
 -14  30  24  -15.50   30.90
 -30  24  14   22.50   33.40
  14  30  24   28.90   35.60
 -14  30  26  -21.60   34.40
  14  30  26   21.80   30.00
 -16  30   0   -8.00   27.60
   0  16  30   17.00   20.90
  -2  16  30   -4.40   21.20
 -16  30   2  -29.00   23.80
 -16  30  -2  -11.60   23.60
 -16  30   4   69.69   32.00
  -4  16  30   89.49   27.10
 -16  30  -4   88.89   33.20
  -6  16  30   86.59   28.30
 -16  30   6   53.59   31.10
 -16  30  -6   50.09   25.60
 -16  30   8   -6.90   27.40
  -8  16  30   25.00   22.50
 -16  30  -8   35.50   27.70
 -10  16  30   -1.60   23.10
 -16  30  10   34.60   30.00
 -16  30 -10  -32.10   23.50
 -12  16  30  607.74   57.69
 -16  30  12  617.64   66.29
 -16  30 -12  574.74   57.79
 -16  30  14  100.99   34.40
 -14  16  30   18.40   26.30
 -16  30 -14   46.30   28.70
 -16  16  30  801.92   67.49
 -30  16  16  995.30   85.89
 -16  30  16  780.62   80.59
 -30  18  16   44.50   34.00
 -18  16  30   23.70   27.50
 -16  30  18  -20.70   26.10
 -16  30  20    7.90   30.40
 -20  16  30   76.79   34.10
 -30  20  16   92.89   36.80
 -16  30  22    4.40   29.70
 -30  22  16   22.40   34.70
 -22  16  30   -5.30   27.00
 -16  30  24  187.18   49.00
 -24  16  30  151.08   41.70
 -30  24  16   68.49   41.30
   0  18  30  735.93   56.59
 -18  30   0  742.33   73.49
  -2  18  30   32.70   23.10
 -18  30   2  -22.00   22.40
   2  18  30    1.60   20.70
 -18  30  -2  -39.70   24.90
  -4  18  30  212.68   36.30
 -18  30   4  103.59   34.80
 -18  30  -4  134.19   35.50
 -18  30   6   70.39   30.90
  -6  18  30  101.69   29.00
 -18  30  -6   77.79   34.40
  -8  18  30  113.49   31.60
 -18  30   8   44.00   31.20
 -18  30  -8   34.00   30.20
 -10  18  30  148.69   34.60
 -18  30  10  132.79   38.20
 -18  30 -10  121.09   35.00
 -12  18  30  248.68   42.00
 -18  30  12  187.48   46.10
 -18  30 -12  257.97   41.10
 -14  18  30   -3.80   27.20
 -18  30  14  -44.90   29.00
 -18  30 -14  -18.50   22.70
 -16  18  30   19.10   28.50
 -30  16  18    7.60   31.50
 -18  30  16   -8.60   26.00
 -30  18  18  103.39   41.70
 -18  18  30  111.99   36.20
 -18  30  18  119.39   43.20
 -20  18  30   68.89   33.40
 -30  20  18  147.29   42.80
 -18  30  20   39.80   33.10
 -22  18  30  124.49   40.00
 -30  22  18  184.28   50.29
 -18  30  22  147.69   43.30
 -20  30   0  -36.80   21.50
   0  20  30   27.50   26.00
  -2  20  30  -23.20   22.40
 -20  30   2   10.50   27.80
 -20  30  -2    9.60   27.10
   2  20  30   15.40   23.30
 -20  30   4   22.00   28.30
  -4  20  30   36.40   25.80
   4  20  30   28.10   24.30
 -20  30  -4   19.70   30.40
  -6  20  30   10.50   25.20
 -20  30   6  -19.70   29.00
 -20  30  -6   10.40   25.20
  -8  20  30   11.30   26.90
 -20  30   8  -19.40   24.70
 -20  30  -8   25.10   26.40
 -10  20  30   19.60   27.10
 -20  30  10   41.20   32.00
 -20  30 -10   42.10   29.40
 -12  20  30   81.89   34.30
 -20  30  12   28.70   28.90
 -20  30 -12   62.39   29.10
 -20  30  14  103.09   37.90
 -14  20  30  162.38   37.80
 -20  30 -14  120.79   36.50
 -20  30  16   90.59   37.30
 -16  20  30   99.19   34.70
 -30  16  20   69.59   37.00
 -30  18  20   78.09   40.80
 -18  20  30   99.89   34.50
 -20  30  18   16.70   34.70
 -20  20  30  -10.80   27.00
 -30  20  20   28.60   30.80
 -20  30  20  -49.30   24.60
 -22  20  30   49.90   34.90
 -30  22  20   24.90   37.40
 -20  30  22  -13.60   29.20
 -22  30   0   39.60   32.90
   0  22  30   76.39   30.30
  -2  22  30  -43.70   21.70
 -22  30   2   58.19   33.10
   2  22  30   73.69   31.90
 -22  30  -2   87.09   33.10
 -22  30   4   35.30   32.40
  -4  22  30  -16.50   24.30
   4  22  30   30.10   25.30
 -22  30  -4    0.00   31.10
 -22  30   6  112.09   36.40
  -6  22  30  110.89   34.40
 -22  30  -6  170.68   38.00
   6  22  30   98.59   30.90
 -22  30   8   67.59   35.20
  -8  22  30   31.00   28.80
 -22  30  -8   -8.90   26.80
 -22  30  10   16.40   35.60
 -10  22  30  121.29   37.30
 -22  30 -10   80.69   34.60
 -22  30  12    3.40   30.00
 -12  22  30  -46.20   23.30
 -22  30 -12  -44.90   22.00
 -22  30  14    1.50   29.00
 -14  22  30   49.80   30.40
 -22  30 -14   -2.50   27.30
 -16  22  30  -54.29   22.40
 -22  30  16  112.49   38.10
 -30  16  22  -51.79   22.30
 -18  22  30  291.37   50.29
 -22  30  18  281.77   54.49
 -30  18  22  272.07   50.09
 -20  22  30   48.40   36.50
 -22  30  20   41.20   38.50
 -30  20  22  -22.80   28.30
   0  24  30   59.89   30.00
 -24  30   0  -22.80   28.90
 -24  30   2   65.79   33.20
  -2  24  30   -0.10   27.10
 -24  30  -2   28.80   33.90
   2  24  30   -1.00   25.60
 -24  30   4   66.19   33.80
  -4  24  30   17.30   27.10
   4  24  30   29.80   27.20
 -24  30  -4   20.60   29.00
 -24  30   6    1.80   30.40
  -6  24  30   51.09   30.90
 -24  30  -6   -5.10   24.70
   6  24  30   -6.10   26.20
  -8  24  30   37.90   29.10
 -24  30   8   35.60   32.30
   8  24  30   -6.60   26.40
 -24  30  -8  -12.30   28.30
 -10  24  30   -9.70   24.20
 -24  30  10   35.10   30.90
 -24  30 -10  -16.20   27.10
 -24  30  12  227.08   49.40
 -12  24  30  224.48   45.60
 -24  30 -12  210.98   42.00
 -14  24  30   24.20   32.60
 -24  30  14   30.70   32.70
 -24  30  16  189.88   46.20
 -16  24  30  272.57   46.30
 -26  30   0  682.43   73.79
   0  26  30  721.63   69.09
  -2  26  30   17.00   28.50
 -26  30   2    0.30   28.50
   2  26  30   96.89   34.30
 -26  30  -2   60.59   33.30
  -4  26  30  199.78   42.50
 -26  30   4  250.17   47.50
   4  26  30  207.38   41.90
 -26  30  -4  222.18   46.60
 -26  30   6   74.19   34.40
  -6  26  30   29.80   29.50
   6  26  30   57.29   31.70
 -26  30  -6   -9.50   31.90
  -8  26  30   37.10   33.40
 -26  30   8   86.09   40.40
   8  26  30   86.69   33.40
 -26  30  -8   16.60   33.00
 -10  26  30   61.59   33.80
 -26  30  10   72.69   37.00
 -26  30 -10   98.79   36.50
 -12  26  30  213.98   46.50
 -26  30  12  194.88   45.80
 -26  30 -12  242.58   46.10
 -14  26  30   42.70   36.10
   0  28  30   39.60   30.60
 -28  30   0  -18.90   29.20
  -2  28  30    1.10   28.70
 -28  30   2   38.70   32.20
   2  28  30   34.20   32.90
 -28  30  -2   -5.00   33.40
  -4  28  30   -5.70   30.50
 -28  30   4   12.50   30.60
 -28  30  -4   29.80   31.20
   4  28  30   70.99   34.70
 -28  30   6  -11.70   28.50
  -6  28  30   65.19   36.80
 -28  30  -6   28.20   33.60
   6  28  30   -2.20   29.80
 -28  30   8    8.60   33.70
  -8  28  30  -19.30   30.50
 -28  30  -8   22.80   32.60
   8  28  30   -2.30   27.70
 -10  28  30   47.60   35.30
 -28  30 -10  -62.59   27.20
  10  28  30  -24.50   33.10
   1  31  -1  915.91   69.59
  -1  31   1  905.11   66.99
  -1  31  -1  980.00   70.09
   1  31   1  809.02   65.19
  -1  31   3  245.38   40.00
   1  31  -3  208.08   37.30
   1  31   3  195.08   37.70
  -1  31  -3  338.67   42.40
  -1  31   5  294.17   44.30
   1  31  -5  262.07   39.80
   1  31   5  308.27   47.10
  -1  31  -5  357.26   45.10
   1  31  -7  -36.80   22.80
  -1  31   7   60.09   28.70
  -1  31  -7   34.10   26.60
   1  31   7   47.40   28.40
  -1  31   9  145.99   34.40
   1  31  -9   77.99   30.50
  -1  31  -9  149.59   34.00
   1  31   9  173.18   37.10
   1  31 -11   64.89   28.20
  -1  31  11   48.60   27.10
   1  31  11   23.60   25.30
  -1  31 -11   54.39   26.70
   1  31 -13  591.64   55.39
  -1  31  13  560.94   60.49
  -1  31 -13  571.34   54.59
   1  31  13  678.13   64.19
  -1  31  15   12.60   28.00
   1  31 -15   28.70   23.60
  -1  31 -15   93.99   28.40
   1  31  15   12.40   29.90
   1  31 -17  205.98   34.50
 -31  17   1  229.68   42.30
  -1  31  17  222.28   43.50
   1  31  17  218.88   44.50
  -1  31 -17  252.37   36.60
  -1  31  19  131.69   38.80
 -31  19   1  117.49   39.00
 -31  19  -1  163.48   38.00
   1  31  19  134.69   39.40
  -1  31  21   14.00   30.90
 -31  21   1   14.20   29.00
   1  31  21   49.50   34.20
 -31  21  -1   12.20   31.30
  -1  31  23    7.10   28.80
 -31  23   1    2.20   31.90
 -31  23  -1   12.20   28.20
   1  31  23   46.40   30.80
 -31  25   1   41.40   37.90
  -1  31  25    5.50   34.30
   1  31  25  102.69   40.80
 -31  25  -1  126.59   43.00
  -1  31  27  266.97   49.20
 -31  27   1  345.17   56.19
   1  31  27  345.87   53.99
 -31  27  -1  216.68   48.20
  -3  31   1  218.88   41.20
   3  31  -1  192.08   36.90
   3  31   1  151.28   33.80
  -3  31  -1  224.28   37.10
   3  31  -3   -1.30   25.20
  -3  31   3   16.50   25.50
   3  31   3   14.70   24.80
  -3  31  -3   48.10   25.30
  -3  31   5  314.57   45.90
   3  31  -5  388.56   48.00
   3  31   5  317.37   49.20
  -3  31  -5  475.55   51.29
  -3  31   7  294.67   46.40
   3  31  -7  291.07   43.10
   3  31   7  246.68   40.60
  -3  31  -7  243.78   38.00
  -3  31   9   77.09   31.30
   3  31  -9    1.40   21.60
  -3  31  -9   88.09   28.80
   3  31   9   32.20   27.20
   3  31 -11   77.19   27.10
  -3  31  11   38.50   30.10
   3  31  11  123.09   33.20
  -3  31 -11  124.39   31.10
   3  31 -13   12.30   24.70
  -3  31  13   33.70   28.10
   3  31  13   37.50   30.90
  -3  31 -13    5.00   23.50
   3  31 -15   15.20   23.10
  -3  31  15  -29.70   21.40
   3  31  15   -7.50   24.50
  -3  31 -15   10.80   21.90
 -31  17   3   32.50   32.90
  -3  31  17   54.19   35.20
   3  31 -17   67.79   26.90
  -3  31 -17   68.29   25.20
   3  31  17   73.39   31.20
  -3  31  19  -31.90   24.10
 -31  19   3    5.60   29.50
 -31  19  -3    2.60   25.80
   3  31  19  -26.00   23.90
  -3  31  21  -23.70   25.70
 -31  21   3    8.80   28.80
 -31  21  -3   12.00   27.40
   3  31  21   55.59   32.50
  -3  31  23   33.30   30.80
 -31  23   3   59.89   32.00
   3  31  23   23.60   33.60
 -31  23  -3   -0.30   32.10
  -3  31  25    0.80   30.60
 -31  25   3   -8.10   29.50
   3  31  25    0.20   33.70
 -31  25  -3   34.20   32.90
  -3  31  27   81.29   33.60
 -31  27   3   87.49   41.60
 -31  27  -3  127.29   42.40
   3  31  27   68.79   37.60
  -5  31   1  363.96   50.09
  -5  31  -1  318.97   44.60
  -5  31   3  424.16   49.99
  -5  31  -3  404.06   50.49
   5  31   3  373.66   48.20
  -5  31   5   21.00   25.10
  -5  31  -5   10.20   22.20
   5  31   5   41.60   25.90
  -5  31   7   50.29   27.40
  -5  31  -7   -7.50   23.20
   5  31   7  -14.70   26.00
  -5  31   9  410.86   52.19
  -5  31  -9  567.04   53.19
   5  31   9  565.94   59.99
  -5  31  11    0.80   24.90
   5  31  11   20.10   25.60
  -5  31 -11   41.60   25.40
  -5  31  13  419.76   54.29
   5  31  13  426.56   54.09
  -5  31 -13  478.65   48.00
  -5  31  15   -0.40   25.80
   5  31 -15   12.80   24.20
  -5  31 -15    2.70   21.50
   5  31  15   20.70   27.30
 -31  17   5   10.50   29.50
  -5  31  17   18.80   29.10
   5  31 -17    3.20   22.40
  -5  31 -17   25.60   24.30
   5  31  17  -31.90   22.90
  -5  31  19  169.38   42.10
   5  31 -19  203.88   49.50
 -31  19   5  135.19   40.50
   5  31  19  147.09   37.00
  -5  31  21   62.39   33.90
 -31  21   5  113.09   35.40
 -31  21  -5   79.09   35.60
   5  31  21   36.80   32.60
 -31  23   5   66.49   37.00
  -5  31  23   63.89   33.90
   5  31  23   29.50   29.60
 -31  23  -5   78.79   35.30
 -31  25   5   29.20   35.10
  -5  31  25   52.19   36.70
 -31  25  -5   27.80   32.50
   5  31  25   86.49   36.30
 -31  27   5   62.49   35.90
  -5  31  27   71.19   35.50
   5  31  27   49.99   36.80
 -31  27  -5   25.90   34.60
  -7  31   1   21.20   25.70
  -7  31  -1   12.70   24.90
  -7  31   3  181.68   40.30
  -7  31  -3  312.87   44.80
  -7  31   5    8.70   24.70
  -7  31  -5   64.19   28.40
  -7  31   7  272.87   43.10
  -7  31  -7  255.87   41.20
  -7  31   9   60.59   33.00
  -7  31  -9   89.29   29.70
  -7  31  11  151.98   36.90
   7  31  11  100.59   37.40
  -7  31 -11   49.10   27.20
  -7  31  13  117.29   36.20
   7  31  13  115.59   34.10
  -7  31 -13   53.49   26.60
  -7  31  15   40.40   31.40
   7  31  15   14.80   28.40
  -7  31 -15   12.80   22.70
 -31  17   7  106.49   35.60
  -7  31  17  100.79   37.00
  -7  31 -17   74.09   29.70
   7  31  17  116.79   36.10
 -31  19   7   28.20   29.10
  -7  31  19   11.80   27.90
   7  31  19   -9.30   26.40
 -31  21   7   27.50   29.90
  -7  31  21   17.80   32.30
   7  31  21   89.09   35.20
 -31  21  -7   18.80   25.50
 -31  23   7   10.60   28.80
  -7  31  23   36.40   33.20
 -31  23  -7  -33.60   24.50
   7  31  23   10.20   30.00
  -7  31  25   48.90   37.40
 -31  25   7  -14.20   28.60
   7  31  25  -25.60   25.60
 -31  25  -7   24.60   33.20
  -7  31  27  102.89   39.50
 -31  27   7   42.60   38.70
 -31  27  -7   -1.90   29.30
   7  31  27   41.70   33.60
  -9  31   1   76.89   30.10
  -9  31  -1  154.88   34.40
  -9  31   3   70.39   28.10
  -9  31  -3   52.89   29.10
  -9  31   5  529.45   58.49
  -9  31  -5  589.04   59.99
  -9  31   7   88.59   35.80
  -9  31  -7   63.49   28.30
  -9  31   9   52.29   32.70
  -9  31  -9  206.38   36.40
  -9  31  11    3.80   25.30
  -9  31 -11   23.50   24.80
  -9  31  13    0.80   28.90
  -9  31 -13   47.40   28.30
  -9  31  15  -30.60   26.00
   9  31  15   42.40   30.30
  -9  31 -15   61.89   26.30
  -9  31  17  356.86   53.69
 -31  17   9  368.66   53.79
   9  31  17  256.37   45.10
 -31  19   9   -7.40   32.40
  -9  31  19   79.69   35.50
   9  31  19  -11.30   28.40
  -9  31  21   68.49   35.50
 -31  21   9   66.19   35.40
   9  31  21   66.29   34.10
  -9  31  23  180.48   46.70
 -31  23   9  120.09   43.80
 -31  23  -9  169.38   39.00
   9  31  23  150.48   43.40
 -31  25   9   36.80   31.50
  -9  31  25  -44.20   32.20
   9  31  25   45.40   35.90
 -31  25  -9  -33.50   30.30
  -9  31  27  243.68   50.09
   9  31  27  179.88   45.30
 -31  27  -9  222.68   46.90
 -11  31   1   -6.10   25.50
 -11  31  -1   91.99   30.90
 -11  31   3  107.49   33.40
 -11  31  -3   47.20   27.50
 -11  31   5    3.40   24.90
 -11  31  -5  -13.40   25.10
 -11  31   7   70.49   31.10
 -11  31  -7   -4.60   22.30
 -11  31   9   -5.40   26.30
 -11  31  -9  -36.80   21.20
 -11  31  11   12.00   27.10
 -11  31 -11   32.60   25.70
 -11  31  13    1.60   29.10
 -11  31 -13   24.30   24.30
 -15  11  31   47.60   29.90
 -11  31  15   17.80   28.40
 -11  31 -15   35.50   25.00
 -11  31  17    7.60   26.10
 -17  11  31   -2.50   23.20
 -31  17  11   -2.60   27.10
 -19  11  31   96.89   32.00
 -11  31  19  144.39   39.50
 -31  19  11   53.19   36.90
  11  31  19  117.89   36.30
 -11  31  21    3.30   31.10
 -31  21  11  104.29   37.00
  11  31  21  122.19   38.00
 -11  31  23    2.10   30.20
 -31  23  11  -12.90   33.60
  11  31  23  -11.40   33.00
 -11  31  25   58.09   35.60
 -31  25  11   53.89   35.20
  11  31  25  -32.50   30.70
 -31  25 -11    6.90   30.80
 -13  31   1  625.24   65.79
 -13  31  -1  567.44   59.59
 -13  31   3   38.80   30.70
 -13  31  -3   -2.40   26.90
 -13  31   5  584.84   63.29
 -13  31  -5  415.66   52.09
 -13  31   7  128.59   37.00
 -13  31  -7  115.49   34.90
 -13  31   9   46.30   30.30
 -13  31  -9   79.29   31.10
 -13  31  11  -14.50   23.80
 -11  13  31  -20.80   34.00
 -13  31 -11   -8.50   22.40
 -13  31  13  660.33   69.79
 -13  13  31  766.72   61.89
 -13  31 -13  712.03   64.29
 -13  31  15  270.77   50.39
 -15  13  31  291.77   42.00
 -13  31 -15  241.68   40.10
 -13  31  17  445.36   59.99
 -31  17  13  420.96   60.09
 -17  13  31  481.95   53.29
 -31  19  13  137.49   43.70
 -19  13  31  211.78   40.10
 -13  31  19  191.08   44.50
 -21  13  31    3.90   27.40
 -13  31  21  -36.00   31.50
 -31  21  13  -14.60   28.50
  13  31  21    5.90   32.60
 -31  23  13   10.80   31.80
 -13  31  23   39.80   31.50
  13  31  23   49.40   34.90
 -13  31  25  155.58   44.80
  13  31  25  155.88   44.80
 -15  31   1   66.59   31.10
 -15  31  -1   25.60   30.30
 -15  31   3   -1.40   25.20
 -15  31  -3   35.10   29.60
 -15  31   5   13.50   27.80
 -15  31  -5   18.20   26.30
 -15  31   7  -44.10   23.90
 -15  31  -7    0.20   26.50
  -9  15  31   48.10   26.80
 -15  31   9   65.59   31.80
 -15  31  -9   67.79   31.40
 -15  31  11   -2.80   29.10
 -11  15  31   32.70   25.50
 -15  31 -11   21.50   26.90
 -13  15  31  221.28   38.60
 -15  31  13  220.58   44.40
 -15  31 -13  293.07   43.70
 -15  31  15   76.39   35.40
 -15  15  31   91.39   32.50
 -15  31 -15  107.59   33.20
 -31  17  15   23.60   28.90
 -15  31  17  114.69   36.80
 -17  15  31  112.39   34.50
 -31  19  15  123.29   39.30
 -19  15  31  100.29   34.40
 -15  31  19  157.18   44.90
 -31  21  15   32.80   36.20
 -21  15  31   26.60   28.90
 -15  31  21   35.20   34.30
 -31  23  15   27.80   34.80
 -23  15  31   11.50   30.10
 -15  31  23  -30.70   27.90
 -17  31   1  160.38   37.90
 -17  31  -1  150.88   37.50
 -17  31   3   25.20   27.80
 -17  31  -3   29.60   27.60
 -17  31   5   40.40   28.70
  -5  17  31   65.99   30.40
 -17  31  -5   13.10   28.60
  -7  17  31   71.99   29.40
 -17  31   7  147.09   37.10
 -17  31  -7   97.39   31.20
 -17  31   9  336.67   53.89
  -9  17  31  290.67   42.20
 -17  31  -9  395.06   51.09
 -17  31  11   80.69   31.70
 -11  17  31   52.39   26.30
 -17  31 -11   16.30   27.30
 -17  31  13  509.85   62.39
 -13  17  31  477.45   53.19
 -17  31 -13  547.05   55.39
 -17  31  15   29.00   32.00
 -15  17  31   56.29   30.80
 -17  31 -15  101.89   35.30
 -31  17  17    4.50   33.00
 -17  17  31   31.50   28.50
 -17  31  17   12.70   30.90
 -31  19  17  204.98   48.50
 -19  17  31  246.98   44.60
 -17  31  19  259.17   53.29
 -21  17  31  134.79   40.30
 -17  31  21  173.58   46.70
 -31  21  17  199.48   45.10
 -17  31  23   66.39   40.00
 -23  17  31   41.10   32.30
 -19  31   1  125.89   39.30
 -19  31  -1  103.59   35.50
  -3  19  31  -20.20   24.20
 -19  31   3   23.40   27.60
 -19  31  -3  -29.50   24.00
 -19  31   5  177.38   44.50
  -5  19  31  136.89   33.70
 -19  31  -5  111.99   37.60
  -7  19  31   -9.70   23.00
 -19  31   7  -10.00   25.80
 -19  31  -7   13.10   29.90
 -19  31   9  -49.00   25.10
  -9  19  31   -8.00   23.80
 -19  31  -9  -32.70   25.20
 -11  19  31   36.80   27.20
 -19  31  11   41.80   34.20
 -19  31 -11  111.29   36.00
 -19  31  13  127.79   43.00
 -13  19  31  249.58   42.50
 -19  31 -13  200.08   40.40
 -15  19  31  139.49   37.90
 -19  31  15   59.49   35.30
 -31  17  19  272.07   50.49
 -19  31  17  185.48   43.70
 -17  19  31  316.87   48.00
 -19  31  19  -15.90   32.00
 -19  19  31  -12.70   29.30
 -31  19  19  -18.40   32.00
 -31  21  19   87.99   36.10
 -19  31  21   74.19   38.60
 -21  19  31   26.40   33.40
 -21  31   1    4.50   28.60
  -1  21  31   21.20   27.10
 -21  31  -1   27.90   28.60
 -21  31   3  -36.30   27.20
  -3  21  31    9.00   25.80
 -21  31  -3   18.10   31.00
 -21  31   5   77.89   37.60
  -5  21  31  134.89   33.30
 -21  31  -5   24.00   31.70
 -21  31   7   36.40   33.20
  -7  21  31   37.60   28.70
 -21  31  -7   32.30   31.50
 -21  31   9   63.59   36.50
  -9  21  31   77.79   33.20
 -21  31  -9  107.99   32.40
 -11  21  31   34.10   30.30
 -21  31  11   22.00   31.90
 -21  31 -11   94.29   32.30
 -21  31  13  -21.70   27.50
 -13  21  31   33.60   28.80
 -21  31 -13   -8.30   29.10
 -21  31  15  -10.50   26.50
 -15  21  31  -12.90   28.40
 -17  21  31  136.59   40.30
 -21  31  17  170.88   46.50
 -31  17  21  161.28   44.30
 -19  21  31   35.60   33.00
 -31  19  21   -8.50   36.70
 -21  31  19   22.80   38.10
  -1  23  31  -15.20   25.80
 -23  31   1   23.70   28.50
 -23  31  -1   18.20   31.40
   1  23  31   54.49   31.60
  -3  23  31   17.40   27.20
 -23  31   3   40.40   32.60
 -23  31  -3   41.30   31.20
 -23  31   5   58.89   34.20
  -5  23  31   25.50   28.80
 -23  31  -5   83.59   35.70
 -23  31   7  -12.10   30.30
  -7  23  31   20.50   26.90
 -23  31  -7    0.50   30.50
 -23  31   9  184.98   44.60
  -9  23  31  211.18   42.50
 -23  31  -9   70.49   32.80
 -23  31  11    8.00   32.90
 -11  23  31   48.30   31.50
 -23  31 -11   12.60   30.50
 -23  31  13   62.09   35.60
 -13  23  31   71.79   34.90
 -23  31 -13   60.89   32.60
 -15  23  31  -13.70   25.90
 -23  31  15    9.90   27.90
 -17  23  31   72.89   31.40
  -1  25  31   50.89   30.50
 -25  31   1   45.00   33.20
 -25  31  -1   53.79   37.60
   1  25  31   53.09   29.90
  -3  25  31   31.00   30.70
 -25  31   3   49.00   37.00
 -25  31  -3   60.99   36.10
   3  25  31   -3.70   40.60
 -25  31   5   60.79   34.40
  -5  25  31  -19.90   27.10
 -25  31  -5   13.60   33.00
 -25  31   7   41.10   33.50
  -7  25  31    5.20   30.00
 -25  31  -7  -35.20   29.00
  -9  25  31   21.00   29.10
 -25  31   9   69.49   36.20
 -25  31  -9   14.50   32.60
 -25  31  11  -37.80   26.10
 -11  25  31   38.60   34.00
 -25  31 -11   54.69   35.50
 -13  25  31  116.99   39.60
 -27  31   1  279.67   53.19
  -1  27  31  396.26   54.69
 -27  31  -1  423.56   61.69
   1  27  31  443.66   56.39
  -3  27  31   31.40   33.80
 -27  31   3   96.59   42.70
 -27  31  -3   68.69   33.50
   3  27  31   73.09   35.20
 -27  31   5   18.40   33.10
  -5  27  31   10.80   30.80
 -27  31  -5  -16.40   28.90
  -7  27  31   17.70   29.70
 -27  31   7   63.79   36.60
 -27  31  -7   -2.50   31.00
  -9  27  31  214.18   43.30
 -27  31  -9  290.07   49.99
   0  32   0 2419.46  123.29
   0  32   2  -24.20   20.30
   0  32  -2   34.70   27.60
   0  32  -4  940.31   70.59
   0  32   4  890.61   68.69
   0  32   6   12.80   24.60
   0  32  -6  -22.50   22.10
   0  32   8   42.60   32.00
   0  32  -8   42.60   27.50
   0  32  10   -3.70   24.60
   0  32 -10  -28.40   21.00
   0  32 -12  507.95   52.19
   0  32  12  450.55   56.09
   0  32 -14  -16.70   21.90
   0  32  14    4.00   28.50
   0  32  16  121.69   35.40
   0  32 -16  167.38   33.60
   0  32  18  -16.30   28.90
   0  32  20   71.99   34.90
 -32  20   0   21.20   30.00
   0  32  22  -45.80   25.60
 -32  22   0  -37.90   30.70
 -32  24   0   19.80   33.10
   0  32  24    3.60   29.30
 -32  26   0   11.20   33.30
   0  32  26  -28.90   31.60
  -2  32   0  -33.60   23.90
   2  32   0   19.30   24.20
  -2  32   2   42.10   26.10
   2  32  -2   35.40   26.80
   2  32   2  -12.20   27.40
  -2  32  -2   65.99   28.50
  -2  32   4  140.99   35.10
   2  32  -4  197.98   36.60
   2  32   4  247.28   41.20
  -2  32  -4  217.68   40.20
  -2  32   6  187.58   38.10
   2  32  -6  222.38   37.50
  -2  32  -6  211.08   38.80
   2  32   6  139.79   36.00
   2  32  -8   99.09   31.90
  -2  32   8  145.99   37.10
  -2  32  -8   83.09   28.70
   2  32   8  135.59   34.00
   2  32 -10  151.08   33.40
  -2  32  10   86.49   32.80
  -2  32 -10  156.88   34.00
   2  32  10  239.28   43.40
  -2  32  12   79.69   32.30
   2  32 -12  -10.60   21.70
  -2  32 -12   81.99   29.30
   2  32  12   96.19   32.40
  -2  32  14   43.70   30.40
   2  32 -14    3.20   23.90
   2  32  14   46.00   31.90
  -2  32 -14   29.40   26.40
   2  32 -16  197.28   34.80
  -2  32  16  243.18   44.20
  -2  32 -16  125.69   33.00
   2  32  16  152.48   39.50
  -2  32  18   13.00   27.70
   2  32 -18  -15.10   22.10
 -32  18   2   25.30   28.50
   2  32  18   29.50   31.30
  -2  32  20  -27.40   26.40
 -32  20   2  -25.50   26.20
 -32  20  -2  -11.00   25.90
   2  32  20   -4.50   28.60
 -32  22   2  -12.70   26.60
  -2  32  22   -8.00   26.00
   2  32  22  -22.40   28.00
 -32  22  -2   -8.40   29.20
 -32  24   2  128.49   38.80
  -2  32  24  103.89   37.90
   2  32  24  165.38   40.80
 -32  24  -2   71.39   36.00
  -2  32  26   -6.60   32.70
 -32  26   2  -77.59   23.40
 -32  26  -2  -11.50   26.00
   2  32  26  -19.30   32.50
  -4  32   0  967.10   70.09
   4  32   0  856.01   75.49
   4  32  -2  195.78   37.10
  -4  32   2  243.18   43.20
  -4  32  -2  168.38   36.50
   4  32   2  199.98   39.80
  -4  32   4   79.99   31.70
   4  32  -4  181.58   38.10
  -4  32  -4  201.48   38.30
   4  32   4  165.08   35.40
  -4  32   6  -44.70   21.40
   4  32  -6    7.60   27.20
  -4  32  -6   18.50   23.40
   4  32   6  -11.60   24.80
  -4  32   8  209.58   43.70
   4  32  -8  182.68   34.30
  -4  32  -8  129.99   34.10
   4  32   8  186.38   38.20
   4  32 -10  286.67   42.30
  -4  32  10  278.77   44.40
   4  32  10  319.47   47.10
  -4  32 -10  294.97   41.80
   4  32 -12  374.16   46.40
  -4  32  12  308.17   48.10
  -4  32 -12  432.76   47.70
   4  32  12  435.96   54.49
   4  32 -14   46.00   25.70
  -4  32  14   38.30   29.60
  -4  32 -14   95.49   28.60
   4  32  14   52.89   31.60
   4  32 -16   -4.80   21.80
  -4  32  16   11.10   27.80
  -4  32 -16    2.90   25.30
   4  32  16   43.00   31.40
   4  32 -18  130.69   33.20
  -4  32  18  138.09   42.10
 -32  18   4  109.19   39.60
   4  32  18  245.98   46.30
  -4  32  20   59.49   33.40
 -32  20   4   38.20   30.40
   4  32  20   52.69   34.30
  -4  32  22  181.68   42.70
 -32  22   4  249.38   46.80
   4  32  22  255.57   44.50
 -32  22  -4  162.88   38.80
  -4  32  24   79.19   34.40
 -32  24   4   21.60   31.70
   4  32  24   48.30   37.00
 -32  24  -4   24.80   32.10
  -4  32  26   -1.00   30.40
 -32  26   4  -50.69   27.40
 -32  26  -4  124.79   38.70
   4  32  26  -54.29   30.20
  -6  32   0   61.29   27.80
  -6  32   2  195.48   38.10
  -6  32  -2  172.28   36.20
  -6  32   4  -12.20   27.00
  -6  32  -4   -0.30   25.50
  -6  32   6  787.92   72.49
   6  32   6  700.23   66.39
  -6  32  -6  690.93   62.59
  -6  32   8  -12.60   27.70
   6  32   8   -0.80   23.20
  -6  32  -8   13.80   24.70
  -6  32  10  506.45   57.99
  -6  32 -10  584.24   56.19
   6  32  10  479.35   56.49
  -6  32  12   -4.70   29.00
   6  32  12  -23.00   24.50
  -6  32 -12    8.00   24.00
  -6  32  14    3.80   31.80
  -6  32 -14   56.49   25.50
   6  32  14   14.30   27.70
  -6  32  16   42.40   33.60
  -6  32 -16   51.99   25.40
   6  32  16   15.20   32.40
   6  32 -18  -41.00   22.20
 -32  18   6   -6.00   26.90
  -6  32  18    8.30   27.50
   6  32  18   28.70   33.10
 -32  20   6  -11.60   27.00
  -6  32  20    7.80   30.70
   6  32  20   13.10   27.70
 -32  22   6   69.89   37.20
  -6  32  22   66.99   31.40
 -32  22  -6   22.10   31.20
   6  32  22   52.59   30.20
 -32  24   6   48.60   35.40
  -6  32  24  -12.90   29.40
 -32  24  -6   -9.30   27.40
   6  32  24  -40.90   24.80
  -6  32  26   24.30   32.60
 -32  26   6  -26.30   33.70
   6  32  26  -10.00   32.00
 -32  26  -6   10.40   29.10
  -8  32   0   56.89   31.90
  -8  32   2   78.19   33.80
  -8  32  -2  142.89   34.50
  -8  32   4  165.48   37.80
  -8  32  -4  178.98   39.00
  -8  32   6   -1.50   24.90
  -8  32  -6   17.10   25.20
  -8  32   8  128.09   35.80
  -8  32  -8  162.68   36.20
  -8  32  10  206.98   40.20
  -8  32 -10  137.89   33.90
  -8  32  12   42.10   31.50
  -8  32 -12    9.90   25.00
   8  32  12   -1.10   29.10
  -8  32  14   42.80   29.80
   8  32  14   44.60   28.70
  -8  32 -14   39.60   26.00
  -8  32  16  117.59   37.00
   8  32  16   81.49   33.40
  -8  32 -16  119.29   31.00
  -8  32  18   94.49   35.00
 -32  18   8   98.49   35.60
   8  32  18   68.99   34.00
 -32  20   8  377.06   58.09
  -8  32  20  304.97   53.59
   8  32  20  475.65   58.19
  -8  32  22  152.28   40.30
 -32  22   8  144.29   41.30
   8  32  22  242.98   48.00
  -8  32  24  139.69   42.00
 -32  24   8  229.28   47.30
   8  32  24  191.98   45.10
 -32  24  -8  215.48   46.50
  -8  32  26   33.70   32.00
 -32  26   8  -20.80   45.50
 -32  26  -8  -43.90   31.60
   8  32  26   23.80   34.40
 -10  32   0    9.70   25.10
 -10  32   2  166.08   38.70
 -10  32  -2  200.28   41.00
 -10  32   4  249.88   44.80
 -10  32  -4  323.77   46.80
 -10  32   6  484.85   56.99
 -10  32  -6  492.85   54.99
 -10  32   8  132.59   35.10
 -10  32  -8  154.28   34.70
 -10  32  10   91.19   33.60
 -10  32 -10  132.09   34.60
 -10  32  12   -7.40   25.90
 -10  32 -12   12.70   24.40
 -10  32  14  195.28   41.60
 -10  32 -14  252.17   39.00
 -10  32  16  264.47   49.60
 -10  32 -16  151.68   35.30
  10  32  16  318.27   51.39
 -10  32  18  136.49   42.70
 -32  18  10  120.79   38.20
  10  32  18  130.99   43.10
 -10  32  20  -41.50   24.60
 -32  20  10   29.50   31.30
  10  32  20    7.60   27.20
 -32  22  10   63.69   36.20
 -10  32  22  -58.09   24.50
  10  32  22   11.40   33.30
 -32  24  10   78.89   40.00
 -10  32  24  154.98   41.70
  10  32  24   74.39   38.50
 -12  32   0  474.55   55.19
 -12  32   2   76.39   33.80
 -12  32  -2  -30.80   25.20
 -12  32   4  184.98   40.70
 -12  32  -4  299.97   44.60
 -12  32   6  -20.70   23.70
 -12  32  -6   13.70   27.50
 -12  32   8   -0.80   27.20
 -12  32  -8   24.30   23.50
 -12  32  10   55.49   31.50
 -12  32 -10    2.00   23.10
 -12  32  12   40.80   30.20
 -12  32 -12   37.90   26.70
 -12  32  14   -7.90   28.40
 -12  32 -14   22.50   25.90
 -12  32  16   72.49   35.90
 -12  32  18  -25.50   26.10
 -32  18  12  -25.00   26.50
 -12  32  20   73.89   36.70
 -32  20  12  125.69   39.50
  12  32  20   55.19   34.80
 -32  22  12   26.80   31.90
 -12  32  22   11.60   33.00
  12  32  22   -4.20   34.20
 -32  24  12   73.39   44.20
 -12  32  24   64.39   37.10
  12  32  24   73.49   40.30
 -14  32   0   -5.20   25.10
 -14  32   2    0.90   26.90
 -14  32  -2    7.40   24.80
 -14  32   4   18.90   29.30
 -14  32  -4  131.49   33.30
 -14  32   6   16.20   26.70
 -14  32  -6   13.50   28.80
 -14  32   8   62.09   31.80
 -14  32  -8  109.19   32.80
 -14  32  10  183.88   44.10
 -14  32 -10  172.88   38.10
 -14  32  12  -20.10   28.20
 -14  32 -12   18.60   25.60
 -14  32  14  707.53   75.59
 -14  32 -14 1021.10   70.79
 -14  32  16   40.80   33.70
 -14  32  18  407.86   56.99
 -32  18  14  410.86   58.39
 -14  32  20  -46.50   27.00
 -32  20  14   -4.70   34.10
 -32  22  14   68.39   33.90
 -14  32  22  102.59   38.40
  14  32  22  -82.59   29.90
 -14  32  24   39.10   37.20
  14  32  24   43.70   35.00
 -16  32   0  138.39   39.60
 -16  32   2  142.69   37.50
 -16  32  -2  166.08   41.30
 -16  32   4    5.10   25.90
 -16  32  -4   11.00   29.40
 -16  32   6   -8.20   25.60
 -16  32  -6   35.20   25.70
 -16  32   8   58.39   34.20
 -16  32  -8   13.10   28.80
 -16  32  10  290.07   49.40
 -16  32 -10  259.97   42.00
 -16  32  12   67.09   33.60
 -16  32 -12   63.49   31.10
 -16  32  14   85.69   34.80
 -16  32 -14   44.20   30.80
 -16  32  16   27.70   32.20
 -16  16  32    6.10   43.00
 -18  16  32   14.60   35.00
 -16  32  18   42.90   33.90
 -32  18  16   42.10   36.20
 -16  32  20   96.89   37.50
 -32  20  16  148.89   41.40
 -20  16  32  109.59   35.50
 -32  22  16  109.29   45.70
 -16  32  22  155.48   44.00
 -22  16  32  199.38   42.50
 -18  32   0  -12.50   31.10
 -18  32   2   58.29   32.00
 -18  32  -2   -2.60   31.00
 -18  32   4  142.99   39.40
 -18  32  -4  136.89   39.80
 -18  32   6  -23.70   25.20
 -18  32  -6   28.00   31.10
 -18  32   8  102.69   37.90
 -18  32  -8  128.39   37.60
 -18  32  10  203.38   44.90
 -18  32 -10  155.98   37.90
 -18  32  12   -6.10   31.20
 -12  18  32   11.30   42.10
 -18  32 -12  -24.40   27.20
 -14  18  32  381.96   53.39
 -18  32  14  471.65   64.59
 -18  32 -14  511.65   56.49
 -18  32  16   91.69   37.60
 -16  18  32  118.59   35.70
 -18  18  32   99.99   35.60
 -18  32  18  150.38   46.10
 -32  18  18  163.58   47.90
 -32  20  18    4.10   33.50
 -18  32  20   12.30   32.40
 -20  18  32  -25.20   27.90
 -20  32   0  -10.40   29.50
 -20  32   2  -59.79   22.30
 -20  32  -2  -41.00   25.90
 -20  32   4  137.79   43.00
 -20  32  -4   62.79   34.70
 -20  32   6  -28.70   29.50
 -20  32  -6   34.80   33.40
 -20  32   8  357.56   58.29
 -20  32  -8  323.87   51.69
 -20  32  10  -10.70   29.60
 -10  20  32  -23.50   31.00
 -20  32 -10   23.90   30.40
 -20  32  12  159.38   41.90
 -12  20  32  115.79   35.00
 -20  32 -12  151.78   38.70
 -14  20  32  -10.70   26.60
 -20  32  14  -37.40   25.50
 -20  32  16   93.99   39.60
 -16  20  32  111.39   37.50
 -18  20  32  -33.30   29.00
 -32  18  20  -12.50   32.80
 -20  32  18   15.60   32.20
 -22  32   0   15.50   30.60
 -22  32   2  -27.10   30.00
 -22  32  -2   -2.50   30.40
 -22  32   4  240.98   47.10
 -22  32  -4  196.18   45.20
 -22  32   6    0.10   29.90
 -22  32  -6   16.30   30.00
 -22  32   8  140.99   42.40
  -8  22  32   97.99   40.40
 -22  32  -8  180.48   41.40
 -22  32  10  -17.30   28.90
 -10  22  32   37.30   29.20
 -22  32 -10   16.10   27.70
 -12  22  32   -4.90   29.40
 -22  32  12   20.00   33.40
 -22  32 -12   17.40   29.50
 -22  32  14    4.20   31.30
 -14  22  32   10.00   27.70
 -16  22  32   98.09   39.10
 -24  32   0  -30.30   28.90
 -24  32   2  108.89   37.90
 -24  32  -2   96.39   35.70
 -24  32   4   10.00   31.50
 -24  32  -4   50.49   37.00
 -24  32   6   -2.10   29.00
  -6  24  32    8.70   32.30
 -24  32  -6  -34.20   27.10
 -24  32   8  212.08   47.10
  -8  24  32  223.58   43.70
 -24  32  -8  263.77   49.40
 -24  32  10   81.79   39.90
 -10  24  32   54.69   35.20
 -24  32 -10   91.19   36.50
 -12  24  32   36.00   32.90
 -24  32  12   45.90   38.70
 -24  32 -12   33.50   32.00
 -14  24  32  -29.80   26.50
 -26  32   0    3.30   30.10
 -26  32   2   45.60   33.80
 -26  32  -2  -35.40   30.70
 -26  32   4    2.80   33.90
  -4  26  32   35.30   37.00
 -26  32  -4   -1.70   34.00
  -6  26  32   24.90   30.90
 -26  32   6  -40.80   27.50
 -26  32  -6   28.70   34.90
  -8  26  32   50.59   31.20
 -26  32   8   -4.00   35.60
 -26  32  -8   57.99   33.40
   1  33  -1  267.57   44.40
  -1  33   1  232.18   40.60
  -1  33  -1  257.97   42.60
   1  33   1  216.08   39.00
   1  33  -3  470.15   51.99
  -1  33   3  383.86   51.39
   1  33   3  511.35   56.89
  -1  33  -3  588.54   59.49
   1  33  -5  -20.20   21.50
  -1  33   5   -4.80   24.60
  -1  33  -5  -10.20   25.60
   1  33   5   -7.60   23.90
  -1  33   7  156.08   37.90
   1  33  -7  159.68   37.20
   1  33   7  204.88   42.10
  -1  33  -7  162.28   35.80
  -1  33   9  196.18   38.40
   1  33  -9  149.29   35.70
   1  33   9   59.99   30.70
  -1  33  -9  103.39   33.00
  -1  33  11   -3.70   28.50
   1  33 -11  -56.99   20.70
  -1  33 -11  -21.00   23.10
   1  33  11   -9.00   26.70
  -1  33  13   -4.10   29.50
   1  33 -13   40.70   26.70
   1  33  13   27.80   29.50
  -1  33 -13   39.90   25.50
   1  33 -15   58.89   26.80
  -1  33  15   80.19   33.50
   1  33  15   96.69   37.70
  -1  33 -15   74.69   27.80
   1  33 -17  -18.30   21.40
  -1  33  17  -25.20   26.30
  -1  33 -17  -17.50   24.90
   1  33  17   -1.40   26.20
  -1  33  19   16.90   26.30
   1  33  19   25.80   28.50
  -1  33  21   41.50   35.20
 -33  21   1  -14.50   32.00
   1  33  21  -44.70   24.80
 -33  21  -1  -13.90   27.10
  -1  33  23  -12.60   28.30
 -33  23   1  -11.60   27.20
   1  33  23   32.50   29.00
 -33  23  -1  -14.80   33.80
 -33  25   1   25.10   30.40
  -1  33  25   60.89   35.70
   1  33  25   48.10   37.60
 -33  25  -1   27.90   37.50
  -3  33   1  525.95   57.99
   3  33  -1  437.96   54.59
   3  33   1  464.45   53.39
  -3  33  -1  456.95   53.39
   3  33  -3   42.20   27.80
  -3  33   3  120.09   34.00
  -3  33  -3  117.39   31.80
   3  33   3   53.89   29.60
  -3  33   5   15.10   26.40
   3  33  -5   58.99   28.20
   3  33   5   81.79   34.00
  -3  33  -5  144.39   36.30
   3  33  -7  225.78   38.60
  -3  33   7  135.89   36.40
  -3  33  -7  193.68   36.40
   3  33   7  157.98   38.50
   3  33  -9  135.69   35.10
  -3  33   9  133.89   39.20
   3  33   9   94.59   33.40
  -3  33  -9   85.59   31.20
   3  33 -11  600.74   59.09
  -3  33  11  471.65   59.29
   3  33  11  637.14   65.29
  -3  33 -11  610.54   59.59
  -3  33  13   68.29   31.40
   3  33 -13   76.89   30.30
   3  33  13   54.29   30.10
  -3  33 -13   70.79   30.40
   3  33 -15   57.89   28.70
  -3  33  15   93.59   33.10
  -3  33 -15  117.89   31.20
   3  33  15  121.19   36.80
   3  33 -17   17.00   25.10
  -3  33  17   13.50   33.90
   3  33  17  -24.30   25.40
  -3  33 -17   58.69   32.90
 -33  19   3   84.49   34.50
  -3  33  19  107.59   37.20
   3  33  19   68.49   32.20
 -33  21   3  268.57   46.90
  -3  33  21  171.28   46.20
   3  33  21  103.09   36.70
  -3  33  23   58.69   37.30
 -33  23   3   17.40   31.00
 -33  23  -3   44.50   32.60
   3  33  23  155.78   43.40
  -3  33  25   19.20   31.30
 -33  25   3    4.50   28.80
   3  33  25  -13.30   31.10
 -33  25  -3   33.10   31.70
  -5  33   1    9.30   25.30
   5  33  -1   -1.20   25.80
   5  33   1  -22.20   25.80
  -5  33  -1    1.90   28.00
  -5  33   3   45.40   29.10
   5  33  -3   66.79   29.40
   5  33   3   87.49   33.50
  -5  33  -3   66.69   29.60
   5  33  -5   55.09   29.80
  -5  33   5  106.39   33.50
   5  33   5   74.89   31.30
  -5  33  -5  136.69   34.20
  -5  33   7  211.48   40.80
   5  33  -7  200.48   38.00
   5  33   7  194.68   41.70
  -5  33  -7  184.08   36.60
   5  33  -9  119.89   34.20
  -5  33   9   97.99   33.90
   5  33   9   78.49   36.30
  -5  33  -9   83.69   30.60
  -5  33  11  162.08   38.70
   5  33 -11  204.88   38.90
  -5  33 -11  195.78   35.40
   5  33  11  200.88   44.70
   5  33 -13    8.90   24.50
  -5  33  13  109.19   37.90
   5  33  13   35.00   29.00
  -5  33 -13   30.90   26.10
   5  33 -15    1.60   23.20
  -5  33  15  -26.50   28.60
   5  33  15    5.10   30.10
  -5  33 -15   13.30   25.30
  -5  33  17   62.89   32.20
   5  33 -17   22.00   24.50
   5  33  17   33.30   30.00
 -33  19   5  -16.80   26.50
  -5  33  19  -15.10   26.00
   5  33  19   16.30   29.80
  -5  33  21   60.69   33.90
 -33  21   5   29.90   32.80
   5  33  21   87.29   39.50
  -5  33  23   44.50   36.70
 -33  23   5   53.59   33.60
 -33  23  -5   -1.70   31.10
   5  33  23   14.20   34.30
  -5  33  25  -39.70   31.70
 -33  25   5   58.39   35.20
 -33  25  -5  -15.90   27.40
   5  33  25   53.09   37.60
  -7  33   1  204.98   40.30
  -7  33  -1  152.78   36.00
  -7  33   3  197.08   42.90
  -7  33  -3  157.48   38.50
  -7  33   5  196.78   40.10
  -7  33  -5  224.78   39.60
  -7  33   7  934.01   74.59
  -7  33  -7  908.71   71.69
   7  33   7 1095.59   81.69
  -7  33   9  -12.00   27.90
   7  33   9   28.40   31.00
  -7  33  -9   13.60   26.00
  -7  33  11  594.54   68.59
  -7  33 -11  768.12   62.59
   7  33  11  746.53   73.69
  -7  33  13  147.09   38.60
   7  33  13  140.59   36.90
  -7  33 -13  127.49   32.70
  -7  33  15   22.60   28.20
  -7  33 -15   -8.90   22.40
   7  33  15  -29.90   28.70
  -7  33  17   -1.70   26.00
   7  33  17  -39.40   27.70
  -7  33  19  564.14   65.49
 -33  19   7  374.16   55.89
   7  33  19  455.35   60.79
  -7  33  21  572.24   67.59
 -33  21   7  573.64   69.99
   7  33  21  527.65   64.19
 -33  23   7  167.48   46.30
  -7  33  23  146.59   44.00
   7  33  23  167.18   44.70
 -33  25   7  240.48   59.59
  -7  33  25  373.66   60.89
   7  33  25  270.57   50.19
 -33  25  -7  290.07   51.09
  -9  33   1  182.68   40.90
  -9  33  -1  122.49   34.30
  -9  33   3  139.69   37.70
  -9  33  -3  119.09   33.40
  -9  33   5  138.99   37.70
  -9  33  -5   92.09   29.90
  -9  33   7   18.10   26.20
  -9  33  -7   13.10   26.50
  -9  33   9    6.30   25.90
  -9  33  -9    9.60   25.30
  -9  33  11   90.29   35.00
  -9  33 -11  108.09   30.40
  -9  33  13  -38.80   22.00
   9  33  13   31.20   33.40
  -9  33 -13    5.60   24.50
  -9  33  15   60.19   35.10
   9  33  15   63.09   32.70
  -9  33 -15   47.00   28.10
  -9  33  17   -7.20   30.60
   9  33  17   33.10   29.30
  -9  33  19    2.40   34.40
 -33  19   9  -21.50   27.50
   9  33  19   13.50   30.40
 -33  21   9   26.80   32.20
  -9  33  21  -16.20   28.80
   9  33  21  -42.00   30.70
 -33  23   9   -3.20   29.90
  -9  33  23   -2.70   32.60
   9  33  23   -3.70   29.40
  -9  33  25  -13.30   34.00
   9  33  25   21.70   32.90
 -11  33   1  -15.40   23.50
 -11  33  -1  -40.80   23.00
 -11  33   3  564.24   62.39
 -11  33  -3  565.94   60.69
 -11  33   5  242.18   45.30
 -11  33  -5  178.88   37.90
 -11  33   7  641.44   66.49
 -11  33  -7  619.64   61.79
 -11  33   9   25.80   30.40
 -11  33  -9   45.60   28.70
 -11  33  11   18.40   28.80
 -11  33 -11    9.70   25.80
 -11  33  13  108.79   36.00
 -11  33 -13  146.49   35.50
 -11  33  15  292.07   50.29
 -11  33 -15  347.77   45.40
 -11  33  17   52.39   35.20
  11  33  17   16.50   30.40
 -33  19  11  318.87   55.59
 -11  33  19  382.76   59.89
  11  33  19  276.67   48.90
 -33  21  11   99.09   38.40
 -11  33  21   68.79   35.10
  11  33  21   92.39   40.30
 -11  33  23  -33.10   32.90
 -33  23  11   -3.30   32.30
  11  33  23  -42.20   27.00
 -13  33   1   52.19   33.30
 -13  33  -1   35.50   30.40
 -13  33   3   97.29   34.00
 -13  33  -3   50.49   33.10
 -13  33   5  -31.50   27.70
 -13  33  -5   55.19   32.90
 -13  33   7   22.50   28.20
 -13  33  -7   86.89   32.20
 -13  33   9    0.00   29.80
 -13  33  -9   24.60   29.00
 -13  33  11  117.69   40.30
 -13  33 -11  112.89   32.00
 -13  33  13  102.09   38.80
 -13  33 -13  147.59   35.70
 -13  33  15   86.99   34.90
 -13  33 -15   57.89   31.00
 -13  33  17  119.39   38.70
 -13  33  19   -7.90   28.10
 -33  19  13    2.30   30.50
  13  33  19  -33.50   31.00
 -13  33  21   33.20   32.20
 -33  21  13   66.79   37.80
  13  33  21  135.49   41.70
 -13  33  23   66.29   37.90
  13  33  23   85.89   40.50
 -15  33   1   30.20   32.70
 -15  33  -1   43.10   31.00
 -15  33   3  100.29   35.00
 -15  33  -3   35.20   29.40
 -15  33   5  -17.10   29.80
 -15  33  -5   20.00   24.20
 -15  33   7   -6.20   29.70
 -15  33  -7   -2.30   28.60
 -15  33   9   72.99   35.30
 -15  33  -9   54.09   30.70
 -15  33  11  211.68   45.60
 -15  33 -11  300.97   45.30
 -15  33  13   13.30   29.30
 -15  33 -13   24.00   29.40
 -15  33  15  216.28   49.80
 -15  33  17  191.28   45.30
 -33  19  15   -9.40   31.00
 -15  33  19   48.80   33.10
 -15  33  21  104.99   37.60
 -33  21  15   74.99   46.40
 -17  33   1   62.09   33.60
 -17  33  -1  -17.00   23.90
 -17  33   3   93.99   34.80
 -17  33  -3   61.69   31.10
 -17  33   5   57.49   31.20
 -17  33  -5  -16.20   26.60
 -17  33   7   32.60   31.30
 -17  33  -7   16.70   26.30
 -17  33   9   49.90   31.40
 -17  33  -9   28.70   27.20
 -17  33  11   97.39   38.30
 -17  33 -11   42.90   32.40
 -17  33  13  130.69   41.90
 -17  33 -13  155.38   39.20
 -17  33  15  252.07   50.29
 -17  33  17  157.68   43.80
 -33  19  17   26.30   38.20
 -17  33  19   66.79   37.80
 -19  33   1   46.40   34.60
 -19  33  -1   -5.40   27.30
 -19  33   3  104.79   37.60
 -19  33  -3   30.70   29.60
 -19  33   5   12.80   29.70
 -19  33  -5  -18.30   28.70
 -19  33   7  425.26   60.49
 -19  33  -7  506.15   60.59
 -19  33   9    2.50   30.30
 -19  33  -9  -15.20   27.70
 -19  33  11  460.05   63.29
 -19  33 -11  272.27   47.00
 -19  33  13  -14.30   28.90
 -19  33 -13   23.10   31.00
 -19  33  15  -32.00   26.90
 -19  33  17  -11.20   32.20
 -21  33   1   15.40   32.10
 -21  33  -1  -27.60   26.60
 -21  33   3  116.49   40.90
 -21  33  -3  133.59   40.20
 -21  33   5   53.29   33.20
 -21  33  -5   90.99   37.90
 -21  33   7  374.66   56.19
 -21  33  -7  616.94   65.99
 -21  33   9   -6.40   33.70
 -21  33  -9  -20.50   28.50
 -21  33  11   54.29   34.50
 -21  33 -11   83.19   33.20
 -21  33  13   34.80   33.10
 -21  33 -13   61.29   34.90
 -21  33  15   74.89   42.40
 -23  33   1   11.10   32.90
 -23  33  -1   -5.90   32.40
 -23  33   3   49.60   34.20
 -23  33  -3  194.38   45.40
 -23  33   5   41.30   37.40
 -23  33  -5   23.30   28.40
 -23  33   7  150.68   45.40
 -23  33  -7  113.39   36.40
 -23  33   9    0.70   33.50
 -23  33  -9  -63.09   29.00
 -23  33  11    9.00   31.60
 -23  33 -11  -18.70   27.20
 -25  33   1   66.99   35.80
 -25  33  -1   79.89   40.50
 -25  33   3   39.80   33.30
 -25  33  -3   15.30   31.60
 -25  33   5   79.79   37.00
 -25  33  -5  -40.50   29.60
 -25  33   7  343.37   63.79
 -25  33  -7  317.97   54.59
 -25  33  -9  -14.30   30.10
   0  34   0   23.70   29.00
   0  34   2   16.40   26.80
   0  34  -2   17.80   25.40
   0  34  -4   24.50   26.00
   0  34   4   -0.10   24.00
   0  34  -6  225.68   41.30
   0  34   6  202.78   40.80
   0  34   8   27.30   28.90
   0  34  -8  -37.60   20.90
   0  34 -10  170.08   34.70
   0  34  10  187.28   42.60
   0  34 -12    5.70   26.30
   0  34  12  -15.30   25.00
   0  34  14   28.70   31.20
   0  34 -14   11.30   25.80
   0  34  16   22.60   33.80
   0  34 -16   29.00   24.40
   0  34  18    9.70   28.40
   0  34  20   -4.00   26.00
 -34  22   0  -17.80   28.40
   0  34  22  -14.70   27.80
   0  34  24   -1.30   32.20
 -34  24   0  -40.90   28.60
   2  34   0   20.20   27.40
  -2  34   0   11.40   26.10
   2  34  -2  564.04   60.19
  -2  34   2  691.23   65.69
   2  34   2  729.03   69.99
  -2  34  -2  650.83   65.19
  -2  34   4  -13.10   24.00
   2  34  -4   -1.30   24.40
  -2  34  -4   -2.20   26.90
   2  34   4    9.10   28.70
   2  34  -6   18.20   26.00
  -2  34   6   28.10   28.80
  -2  34  -6   89.89   30.50
   2  34   6   45.00   29.90
  -2  34   8  107.09   35.40
   2  34  -8  155.78   38.20
   2  34   8   93.59   34.70
  -2  34  -8  226.58   40.50
   2  34 -10  200.48   39.40
  -2  34  10   99.49   35.20
  -2  34 -10  138.59   34.00
   2  34  10  149.69   37.20
   2  34 -12  143.29   36.50
  -2  34  12   92.79   38.30
   2  34  12  157.58   39.20
  -2  34 -12  137.29   33.70
   2  34 -14  160.48   35.60
  -2  34  14  113.49   40.30
  -2  34 -14  110.39   32.20
   2  34  14   22.80   31.10
  -2  34  16   61.59   31.60
   2  34 -16   43.10   26.50
   2  34  16   26.80   31.90
  -2  34 -16   29.80   28.40
  -2  34  18   25.20   30.00
   2  34  18   44.00   33.50
  -2  34  20  264.87   49.80
   2  34  20  252.37   47.50
  -2  34  22   29.90   35.20
 -34  22   2   42.80   38.10
   2  34  22  -17.90   30.00
  -2  34  24   75.39   41.70
 -34  24   2  175.58   48.80
   2  34  24  149.49   44.10
 -34  24  -2   17.20   36.40
  -4  34   0  -14.50   23.30
   4  34   0   -3.80   23.90
   4  34  -2   -0.30   28.50
  -4  34   2  -18.20   25.20
   4  34   2   -3.30   24.40
  -4  34  -2   -9.30   23.90
  -4  34   4  401.06   53.09
   4  34  -4  345.97   47.70
  -4  34  -4  424.66   51.49
   4  34   4  422.36   53.59
  -4  34   6  -13.60   25.90
   4  34  -6   17.50   24.80
  -4  34  -6  -22.50   25.40
   4  34   6   28.20   31.50
   4  34  -8  452.05   53.49
  -4  34   8  349.17   51.09
   4  34   8  424.96   56.69
  -4  34  -8  439.46   53.09
   4  34 -10   29.80   27.60
  -4  34  10   20.90   29.90
  -4  34 -10   -0.90   24.70
   4  34  10   -0.20   26.40
  -4  34  12  121.59   36.80
   4  34 -12  140.59   36.20
   4  34  12   92.89   35.90
  -4  34 -12  167.68   35.60
   4  34 -14   26.70   27.00
  -4  34  14   39.80   32.30
   4  34  14   19.20   29.20
  -4  34 -14   38.60   27.20
   4  34 -16  -21.40   23.80
  -4  34  16   -7.60   28.80
  -4  34 -16  -17.60   22.70
   4  34  16    7.30   26.20
  -4  34  18   16.90   30.20
   4  34  18  -20.90   30.30
 -34  20   4    3.70   28.30
  -4  34  20  106.59   37.20
   4  34  20   -5.80   32.80
 -34  22   4  -36.70   32.00
  -4  34  22   38.50   34.60
   4  34  22   32.10   35.50
  -4  34  24  -10.90   32.60
 -34  24   4   73.69   39.90
   4  34  24   34.90   34.30
 -34  24  -4  -26.40   30.60
  -6  34   0   99.59   32.30
   6  34   0  147.09   37.10
   6  34  -2    4.90   26.70
  -6  34   2   63.39   32.60
   6  34   2   33.20   31.90
  -6  34  -2   20.50   26.00
  -6  34   4  -18.40   24.00
  -6  34  -4  -21.10   25.70
   6  34   4  -20.90   22.50
  -6  34   6   30.10   32.40
   6  34   6   75.49   33.30
  -6  34  -6   64.89   31.30
  -6  34   8  561.04   63.19
   6  34   8  403.96   55.09
  -6  34  -8  493.25   55.69
  -6  34  10  150.08   39.40
   6  34 -10  178.68   38.00
   6  34  10  177.88   41.10
  -6  34 -10  178.38   37.50
  -6  34  12  610.24   67.49
   6  34 -12  458.35   53.79
  -6  34 -12  486.85   54.19
   6  34  12  490.25   60.09
  -6  34  14   30.90   30.10
   6  34 -14   72.89   30.20
   6  34  14   60.49   35.70
  -6  34 -14   94.39   30.30
   6  34 -16   84.49   31.60
  -6  34  16   16.00   28.50
  -6  34 -16   10.60   28.20
   6  34  16   10.40   30.20
  -6  34  18  148.29   41.90
   6  34 -18   83.49   48.50
   6  34  18   18.80   29.40
  -6  34  20  928.51   84.89
 -34  20   6  885.21   82.79
   6  34  20  848.72   80.69
  -6  34  22  245.88   50.49
 -34  22   6  185.98   46.30
   6  34  22  180.98   45.70
 -34  24   6  528.45   77.89
  -6  34  24  452.85   62.69
   6  34  24  558.24   69.79
  -8  34   0  -12.10   29.00
  -8  34   2  265.67   48.20
  -8  34  -2  275.87   45.50
  -8  34   4  475.95   57.69
  -8  34  -4  412.66   53.29
  -8  34   6  563.04   64.89
  -8  34  -6  562.04   58.99
  -8  34   8  319.57   51.69
  -8  34  -8  426.76   52.99
   8  34   8  392.66   55.59
  -8  34  10   68.39   37.50
   8  34  10  118.99   39.00
  -8  34 -10  180.38   37.10
  -8  34  12   65.69   32.40
  -8  34 -12   47.00   25.00
   8  34  12  -33.30   30.50
  -8  34  14   76.29   37.20
   8  34  14  105.29   36.00
  -8  34 -14   33.10   26.70
  -8  34  16   19.70   32.70
   8  34  16    9.10   30.30
  -8  34  18  142.79   43.40
   8  34  18  136.49   43.90
 -34  20   8  -22.20   29.10
  -8  34  20   22.00   30.10
   8  34  20   43.60   36.60
  -8  34  22   33.50   32.50
 -34  22   8    9.60   36.20
   8  34  22  -18.90   25.40
  -8  34  24    7.50   33.80
   8  34  24   92.19   40.30
 -10  34   0  203.38   43.80
 -10  34   2  116.79   37.30
 -10  34  -2  164.58   37.30
 -10  34   4   58.59   29.40
 -10  34  -4  -41.40   23.70
 -10  34   6  164.48   42.40
 -10  34  -6  127.79   35.10
 -10  34   8   56.69   32.20
 -10  34  -8  173.18   36.40
 -10  34  10   26.10   29.20
 -10  34 -10   -1.50   25.00
 -10  34  12  261.87   48.50
 -10  34 -12  149.09   36.50
 -10  34  14   28.40   30.30
 -10  34 -14   -0.60   24.10
  10  34  14   -7.30   28.70
 -10  34  16   15.50   32.70
  10  34  16   63.39   36.10
 -10  34  18  306.67   55.79
  10  34  18  237.28   51.59
 -34  20  10  136.89   47.80
 -10  34  20  236.78   47.80
  10  34  20  183.18   47.10
 -34  22  10  178.88   47.40
 -10  34  22  165.48   44.00
  10  34  22  167.18   43.60
 -12  34   0   -5.10   26.60
 -12  34   2   97.09   35.80
 -12  34  -2  188.88   42.40
 -12  34   4   78.69   33.00
 -12  34  -4  104.49   32.40
 -12  34   6  414.06   56.49
 -12  34  -6  532.85   60.59
 -12  34   8   18.10   29.70
 -12  34  -8   25.40   28.20
 -12  34  10  210.58   45.40
 -12  34 -10  215.98   40.80
 -12  34  12  133.59   41.00
 -12  34 -12  109.19   35.00
 -12  34  14  -43.50   23.60
 -12  34 -14   -4.10   28.10
 -12  34  16  291.67   53.09
 -12  34  18   20.20   36.20
  12  34  18   46.60   36.40
 -12  34  20   35.40   36.20
 -34  20  12   67.89   40.20
  12  34  20   48.00   32.90
 -12  34  22  -10.50   29.50
  12  34  22  -22.80   34.40
 -14  34   0  -47.30   24.00
 -14  34   2   53.39   32.70
 -14  34  -2   31.40   32.60
 -14  34   4   26.50   30.90
 -14  34  -4   14.20   29.90
 -14  34   6   17.80   31.60
 -14  34  -6   -3.50   25.90
 -14  34   8   59.89   35.50
 -14  34  -8   45.70   31.90
 -14  34  10   20.50   31.00
 -14  34 -10   20.50   28.70
 -14  34  12   -8.40   28.00
 -14  34 -12   -5.80   25.60
 -14  34  14   19.50   34.40
 -14  34 -14  101.39   32.30
 -14  34  16  -30.60   27.00
 -14  34  18   -3.10   29.90
 -34  20  14   73.69   46.60
 -14  34  20   56.29   41.20
  14  34  20   17.10   38.00
 -16  34   0   10.70   26.70
 -16  34   2   84.19   35.80
 -16  34  -2   37.10   32.30
 -16  34   4   32.60   32.70
 -16  34  -4   22.20   29.30
 -16  34   6   88.79   38.10
 -16  34  -6   30.10   28.50
 -16  34   8   73.69   33.60
 -16  34  -8   28.30   26.30
 -16  34  10  -39.60   25.30
 -16  34 -10  -15.90   26.80
 -16  34  12  285.17   52.99
 -16  34 -12  243.98   45.30
 -16  34  14   96.19   35.50
 -16  34 -14   12.30   32.40
 -16  34  16  243.28   49.60
 -16  34  18   27.30   33.60
 -18  34   0   35.90   30.80
 -18  34   2   -4.40   29.80
 -18  34  -2    8.40   32.10
 -18  34   4  100.89   36.50
 -18  34  -4   55.49   31.60
 -18  34   6  103.89   37.80
 -18  34  -6   96.09   38.70
 -18  34   8  146.29   43.30
 -18  34  -8   69.19   34.10
 -18  34  10  127.69   42.30
 -18  34 -10  120.79   40.00
 -18  34  12   86.59   36.70
 -18  34 -12   10.40   29.80
 -18  34  14   63.99   36.50
 -18  34  16   11.60   34.00
 -20  34   0   31.60   34.90
 -20  34   2  379.76   55.79
 -20  34  -2  197.18   47.60
 -20  34   4   30.20   36.60
 -20  34  -4  -23.10   27.30
 -20  34   6 1013.40   91.59
 -20  34  -6  915.01   82.39
 -20  34   8  -14.10   28.60
 -20  34  -8  -16.70   29.30
 -20  34  10   86.49   39.70
 -20  34 -10  208.48   44.10
 -20  34  12   26.20   34.70
 -20  34 -12   81.39   35.80
 -20  34  14   40.60   39.50
 -22  34   0   12.80   30.30
 -22  34   2    1.50   33.30
 -22  34  -2   -0.90   29.20
 -22  34   4  -29.00   27.20
 -22  34  -4   12.60   33.70
 -22  34   6  181.68   44.70
 -22  34  -6  120.39   38.00
 -22  34   8   -8.20   29.30
 -22  34  -8   71.99   33.50
 -22  34  10   59.99   43.70
 -22  34 -10  289.87   49.00
 -22  34 -12  -29.40   28.90
 -24  34   0   11.80   32.60
 -24  34   2  115.89   42.50
 -24  34  -2  153.68   44.40
 -24  34   4   71.69   37.10
 -24  34  -4   64.79   32.40
 -24  34   6  430.46   71.79
 -24  34  -6  525.45   65.69
 -24  34  -8   23.70   33.80
   1  35  -1  151.58   38.60
  -1  35   1  126.29   37.90
  -1  35  -1   68.59   31.50
   1  35   1  136.99   37.50
   1  35  -3   57.29   29.10
  -1  35   3   12.30   27.70
   1  35   3   88.69   34.90
  -1  35  -3   21.10   26.20
   1  35  -5   16.70   26.90
  -1  35   5   15.90   27.70
   1  35   5   59.69   33.30
  -1  35  -5   18.30   29.50
   1  35  -7   20.80   28.50
  -1  35   7   30.30   28.70
  -1  35  -7   35.70   29.40
   1  35   7   32.30   28.40
  -1  35   9    6.80   26.60
   1  35  -9   48.30   28.80
   1  35   9   31.40   34.40
  -1  35  -9   -8.20   25.70
  -1  35  11  129.49   42.00
   1  35 -11  219.68   40.80
   1  35  11  224.08   44.80
  -1  35 -11  119.59   32.60
   1  35 -13   -1.60   25.50
  -1  35  13  -37.80   24.90
   1  35  13   53.19   31.10
  -1  35 -13   -7.90   24.70
   1  35 -15  106.19   33.40
  -1  35  15   57.99   35.90
  -1  35 -15   43.60   27.80
   1  35  15   69.69   37.30
  -1  35  17   34.50   34.90
   1  35  17   10.60   29.50
  -1  35  19   12.80   30.00
   1  35  19   52.69   37.70
  -1  35  21   42.40   33.80
   1  35  21   78.19   37.00
  -1  35  23    6.60   31.50
 -35  23   1   12.80   35.60
   1  35  23  -20.90   32.60
  -3  35   1   26.80   31.70
   3  35  -1   78.09   33.40
   3  35   1   67.19   31.30
  -3  35  -1   47.50   30.30
   3  35  -3  -31.40   24.10
  -3  35   3  -13.20   24.20
   3  35   3   -8.40   25.50
  -3  35  -3   15.90   25.00
   3  35  -5  212.28   41.80
  -3  35   5  219.88   42.90
  -3  35  -5  315.47   48.90
   3  35   5  211.78   43.00
  -3  35   7   -0.90   26.80
   3  35  -7    5.90   28.90
   3  35   7   -3.30   25.40
  -3  35  -7  -16.00   26.30
  -3  35   9  254.87   46.70
   3  35  -9  283.57   43.20
  -3  35  -9  263.87   44.10
   3  35   9  338.87   52.09
   3  35 -11  -22.40   21.60
  -3  35  11   13.60   30.60
  -3  35 -11   32.80   29.70
   3  35  11   -8.10   27.70
  -3  35  13  125.09   39.90
   3  35 -13   70.89   30.50
  -3  35 -13   85.39   32.00
   3  35  13  162.88   41.30
   3  35 -15   46.20   29.00
  -3  35  15   74.99   38.50
   3  35  15   65.29   37.10
  -3  35 -15  100.59   30.20
  -3  35  17  -47.30   30.80
   3  35 -17  -28.00   24.90
   3  35  17   19.00   30.80
  -3  35  19  200.48   45.30
   3  35  19  144.99   40.40
  -3  35  21  101.59   41.40
   3  35  21   68.69   37.20
  -3  35  23   99.89   43.60
 -35  23   3   83.59   38.80
   3  35  23  103.19   39.00
  -5  35   1   63.79   32.50
   5  35  -1   17.10   25.20
   5  35   1   44.00   29.00
  -5  35  -1   55.49   28.30
  -5  35   3  342.57   50.59
   5  35  -3  298.77   46.30
  -5  35  -3  271.47   47.70
   5  35   3  300.47   46.90
   5  35  -5  307.47   48.90
  -5  35   5  428.06   57.49
  -5  35  -5  325.17   47.40
   5  35   5  228.68   44.50
   5  35  -7   -4.60   27.30
  -5  35   7  -34.10   28.00
   5  35   7  -49.00   22.30
  -5  35  -7  -33.30   23.70
   5  35  -9  830.72   68.99
  -5  35   9  868.71   80.69
   5  35   9  773.12   77.09
  -5  35  -9  821.62   65.69
   5  35 -11  201.18   37.50
  -5  35  11  170.38   41.40
  -5  35 -11  211.38   40.70
   5  35  11  132.59   40.70
   5  35 -13   85.59   32.80
  -5  35  13  146.99   43.30
   5  35  13  147.89   42.00
  -5  35 -13  135.89   35.50
   5  35 -15   75.59   32.10
  -5  35  15   78.59   39.40
   5  35  15   67.19   35.50
  -5  35 -15   73.09   31.70
   5  35 -17  336.57   47.00
  -5  35  17  293.37   55.99
   5  35  17  278.87   51.79
  -5  35  19  270.27   49.50
   5  35  19  238.68   49.20
  -5  35  21  391.16   59.39
   5  35  21  362.16   57.39
  -5  35  23  423.16   61.79
 -35  23   5  490.05   91.79
   5  35  23  560.94   69.49
  -7  35   1   10.40   30.90
   7  35   1   47.20   31.10
  -7  35  -1   83.69   34.50
  -7  35   3   -5.50   27.60
   7  35   3  -41.20   23.60
  -7  35  -3  -23.00   26.70
  -7  35   5   26.30   29.00
   7  35   5    1.00   30.30
  -7  35  -5  -54.39   25.60
  -7  35   7   73.29   34.40
   7  35   7   60.09   31.70
  -7  35  -7   75.79   33.90
  -7  35   9   53.99   32.20
  -7  35  -9   47.10   32.00
   7  35   9   77.19   32.50
  -7  35  11   57.69   35.60
  -7  35 -11   36.70   27.80
   7  35  11    1.30   27.70
   7  35 -13    5.30   28.90
  -7  35  13   19.60   30.90
  -7  35 -13   31.70   27.30
   7  35  13   64.59   34.20
   7  35 -15  -10.10   26.50
  -7  35  15   21.80   28.10
   7  35  15  -17.70   29.70
  -7  35 -15   37.10   27.60
  -7  35  17   44.50   35.30
   7  35 -17   25.50   28.90
   7  35  17  -33.90   26.70
  -7  35  19  185.78   43.10
   7  35  19  124.29   39.60
  -7  35  21  124.09   40.30
 -35  21   7   46.80   34.30
   7  35  21   42.80   35.00
  -9  35   1   33.50   32.70
  -9  35  -1  -26.30   27.80
  -9  35   3  384.16   54.89
  -9  35  -3  344.37   49.10
  -9  35   5  947.51   74.49
  -9  35  -5  695.23   70.89
  -9  35   7   90.89   33.70
  -9  35  -7   87.19   32.00
  -9  35   9  849.52   82.69
   9  35   9 1048.60   83.79
  -9  35  -9  967.80   74.39
  -9  35  11    2.20   27.30
   9  35  11   83.59   37.90
  -9  35 -11   51.29   29.60
  -9  35  13   79.69   34.80
  -9  35 -13   31.20   30.00
   9  35  13   49.90   31.70
  -9  35  15   55.79   33.40
   9  35  15   46.70   33.00
  -9  35 -15   69.99   31.00
  -9  35  17  404.56   59.39
   9  35  17  313.77   52.99
  -9  35  19  124.89   40.30
   9  35  19  113.39   41.30
 -35  21   9  278.17   63.89
  -9  35  21  299.87   54.09
   9  35  21  295.77   51.69
 -11  35   1  135.19   41.50
 -11  35  -1  196.18   42.60
 -11  35   3   33.30   32.30
 -11  35  -3   30.70   31.30
 -11  35   5  140.69   39.10
 -11  35  -5  186.28   41.40
 -11  35   7   55.09   36.10
 -11  35  -7   61.19   31.10
 -11  35   9  -16.90   27.90
 -11  35  -9    2.80   25.00
 -11  35  11  150.38   41.50
 -11  35 -11  133.59   36.90
 -11  35  13  -35.60   29.70
  11  35  13    7.90   31.30
 -11  35 -13  -27.30   26.90
 -11  35  15   36.20   32.90
  11  35  15  -30.20   31.40
 -11  35  17  -18.70   26.00
  11  35  17  -15.50   28.80
 -11  35  19  -18.50   33.10
  11  35  19   39.10   34.10
 -11  35  21  -41.80   26.90
  11  35  21   46.80   38.20
 -13  35   1   -6.50   29.80
 -13  35  -1  -21.20   22.70
 -13  35   3   33.30   35.50
 -13  35  -3  126.69   40.60
 -13  35   5   64.49   36.20
 -13  35  -5  170.78   40.90
 -13  35   7   -1.50   29.30
 -13  35  -7   71.19   31.20
 -13  35   9   50.19   35.90
 -13  35  -9   15.70   31.70
 -13  35  11   34.20   35.50
 -13  35 -11   31.80   28.90
 -13  35  13  -42.50   25.90
 -13  35 -13   20.80   29.80
 -13  35  15   27.60   31.80
 -13  35  17   57.59   34.60
  13  35  17   16.70   37.00
 -13  35  19   43.70   40.60
  13  35  19   29.50   35.40
 -15  35   1   58.69   35.60
 -15  35  -1   74.29   33.90
 -15  35   3   28.80   31.70
 -15  35  -3   26.70   33.10
 -15  35   5   61.29   34.90
 -15  35  -5  124.99   38.40
 -15  35   7   38.10   34.60
 -15  35  -7   -9.90   29.90
 -15  35   9   20.10   32.20
 -15  35  -9   18.80   26.80
 -15  35  11  122.69   40.80
 -15  35 -11  123.89   37.20
 -15  35  13  138.09   39.60
 -15  35 -13   70.49   32.80
 -15  35  15   24.70   31.10
 -15  35  17   26.40   32.80
 -17  35   1  -12.90   26.50
 -17  35  -1   42.20   36.20
 -17  35   3   60.59   31.40
 -17  35  -3   32.70   29.90
 -17  35   5  277.97   53.39
 -17  35  -5  329.77   53.69
 -17  35   7   14.00   30.20
 -17  35  -7   14.70   31.60
 -17  35   9  341.17   55.79
 -17  35  -9  364.56   54.29
 -17  35  11    8.30   29.50
 -17  35 -11  -31.80   29.10
 -17  35  13   94.19   38.60
 -17  35 -13   19.60   31.20
 -17  35  15   23.10   32.40
 -19  35   1  -17.80   31.30
 -19  35  -1  -41.40   30.80
 -19  35   3  106.29   38.70
 -19  35  -3  217.98   48.80
 -19  35   5  179.18   44.50
 -19  35  -5  189.28   45.40
 -19  35   7  193.78   46.60
 -19  35  -7  100.09   40.30
 -19  35   9  180.58   49.10
 -19  35  -9   86.29   38.70
 -19  35  11  -21.90   29.80
 -19  35 -11   -6.30   30.00
 -21  35   1    6.50   28.00
 -21  35  -1  -35.70   27.00
 -21  35   3   70.79   38.50
 -21  35  -3  105.19   37.40
 -21  35   5  326.17   58.09
 -21  35  -5  342.97   52.59
 -21  35   7   45.80   35.40
 -21  35  -7   52.89   35.70
 -21  35   9  302.07   60.79
 -21  35  -9  237.58   48.30
 -21  35 -11   12.40   31.70
 -23  35   1   16.50   35.70
 -23  35  -1   27.50   34.90
 -23  35   3  120.99   42.40
 -23  35  -3  128.99   42.90
 -23  35   5  373.76   69.19
 -23  35  -5  565.64   65.99
   0  36   0   67.89   31.40
   0  36   2   39.10   29.80
   0  36  -2  -17.80   24.30
   0  36  -4    3.40   24.90
   0  36   4   54.19   32.90
   0  36   6  -15.30   29.90
   0  36  -6  -32.40   25.30
   0  36  -8    6.40   23.90
   0  36   8   37.00   28.40
   0  36 -10   24.20   27.90
   0  36  10  -10.00   29.90
   0  36  12  -11.30   29.10
   0  36 -12   44.80   27.40
   0  36 -14   24.30   28.80
   0  36  14    6.00   29.10
   0  36  16    9.80   35.00
   0  36 -16    3.10   25.90
   0  36  18   36.40   30.40
   0  36  20   16.40   35.60
   0  36  22  -49.00   30.90
   2  36   0  -15.00   27.80
  -2  36   0   34.90   29.40
  -2  36   2   14.70   27.50
   2  36  -2   55.29   32.20
   2  36   2   54.59   33.50
  -2  36  -2   56.09   33.00
   2  36  -4    0.10   24.20
  -2  36   4  -41.30   23.10
   2  36   4  -20.60   24.80
  -2  36  -4   37.50   28.90
  -2  36   6   13.80   28.30
   2  36  -6  -61.99   24.50
  -2  36  -6   85.29   34.60
   2  36   6   69.49   34.80
  -2  36   8   31.60   31.00
   2  36  -8  137.79   34.70
  -2  36  -8  158.38   35.40
   2  36   8  150.48   39.00
   2  36 -10   51.29   32.40
  -2  36  10   -4.70   33.40
  -2  36 -10   57.39   31.40
   2  36  10    5.60   30.00
   2  36 -12  305.17   45.50
  -2  36  12  237.58   47.20
  -2  36 -12  285.17   46.30
   2  36  12  241.98   48.10
   2  36 -14  -33.20   24.20
  -2  36  14   33.80   29.50
   2  36  14  -23.40   28.90
  -2  36 -14  -56.79   25.20
   2  36 -16  191.48   40.00
  -2  36  16  202.78   44.50
   2  36  16  303.17   51.79
  -2  36 -16  211.68   59.09
  -2  36  18   28.90   36.90
   2  36  18  -29.90   27.60
  -2  36  20   60.09   35.10
   2  36  20  -36.90   30.10
  -2  36  22  -23.90   35.00
   2  36  22  -42.10   27.60
   4  36   0   25.70   31.50
  -4  36   0   -9.20   30.00
  -4  36   2   17.90   27.10
   4  36  -2   44.70   30.50
  -4  36  -2   71.29   33.80
   4  36   2   34.60   29.60
   4  36  -4    7.50   30.20
  -4  36   4  -14.10   28.30
   4  36   4  -17.30   25.00
  -4  36  -4  -13.00   23.90
   4  36  -6  288.47   48.90
  -4  36   6  352.96   52.79
  -4  36  -6  355.06   52.29
   4  36   6  352.86   54.49
   4  36  -8  -17.50   24.60
  -4  36   8   14.00   32.30
   4  36   8   35.80   30.60
  -4  36  -8   29.10   27.70
   4  36 -10  577.54   61.39
  -4  36  10  519.15   64.19
  -4  36 -10  716.13   66.09
   4  36  10  719.33   73.49
  -4  36  12    7.30   32.50
   4  36 -12   33.40   29.90
   4  36  12   25.90   33.80
  -4  36 -12   44.90   30.00
  -4  36  14    3.10   30.90
   4  36 -14   83.49   33.90
  -4  36 -14   30.50   29.40
   4  36  14   18.20   32.20
  -4  36  16   -2.20   29.30
   4  36 -16   43.30   28.70
   4  36  16  -39.00   27.00
  -4  36  18  600.74   70.59
   4  36  18  463.15   62.69
  -4  36  20   14.10   33.50
   4  36  20   21.70   36.20
  -4  36  22 1010.40   93.89
   4  36  22 1137.29   92.99
  -6  36   0   -0.10   30.20
   6  36   0  -30.80   24.80
   6  36  -2   43.30   30.10
  -6  36   2   90.59   34.40
  -6  36  -2   54.29   33.80
   6  36   2   65.29   31.70
   6  36  -4  304.67   49.30
  -6  36   4  290.07   48.90
   6  36   4  258.57   46.40
  -6  36  -4  292.87   46.70
   6  36  -6  197.98   42.70
  -6  36   6  207.08   43.60
  -6  36  -6  176.08   40.10
   6  36   6  148.29   42.50
  -6  36   8  197.88   43.40
   6  36  -8  170.88   41.00
   6  36   8  150.88   40.50
  -6  36  -8  172.58   39.90
   6  36 -10   85.99   32.00
  -6  36  10   69.09   35.00
  -6  36 -10   60.89   31.40
   6  36  10   84.79   34.80
   6  36 -12    5.10   24.90
  -6  36  12   -4.50   34.00
   6  36  12  -50.19   26.80
  -6  36 -12   11.50   26.10
   6  36 -14  -18.10   25.50
  -6  36  14   10.70   32.20
   6  36  14    4.30   35.20
  -6  36 -14   11.40   25.70
  -6  36  16  136.49   41.40
   6  36 -16  159.78   37.60
   6  36  16  131.39   42.20
  -6  36  18   95.19   35.50
   6  36  18   17.80   34.30
  -6  36  20  -37.50   30.60
   6  36  20   26.10   36.10
  -8  36   0    0.00   31.60
  -8  36   2  109.39   38.80
  -8  36  -2  137.09   39.90
  -8  36   4   23.70   29.00
  -8  36  -4   43.20   32.20
   8  36   4   31.00   29.60
  -8  36   6  334.57   53.29
  -8  36  -6  210.78   41.10
   8  36   6  167.18   41.80
  -8  36   8   63.99   35.90
   8  36   8   75.89   33.00
  -8  36  -8   56.49   32.00
  -8  36  10  587.24   68.09
  -8  36 -10  486.05   57.19
   8  36  10  579.54   66.79
  -8  36  12   24.10   29.70
   8  36  12  -20.40   27.50
  -8  36 -12   -8.20   25.50
  -8  36  14   89.59   37.90
   8  36  14   74.79   35.60
  -8  36 -14  103.79   34.30
  -8  36  16   51.09   33.10
   8  36 -16   12.10   30.30
   8  36  16   42.90   38.20
  -8  36  18  474.95   63.49
   8  36  18  476.95   64.19
  -8  36  20   93.39   39.60
   8  36  20  142.69   44.80
 -10  36   0   20.70   30.30
 -10  36   2   13.90   30.80
 -10  36  -2  -35.10   21.60
 -10  36   4  603.14   68.49
 -10  36  -4  517.65   61.89
 -10  36   6   65.09   31.60
 -10  36  -6   18.50   30.20
 -10  36   8  542.25   63.79
 -10  36  -8  440.06   55.99
 -10  36  10  -17.60   27.60
  10  36  10   -6.40   33.40
 -10  36 -10  -32.40   26.00
 -10  36  12  199.68   45.20
  10  36  12  152.28   40.80
 -10  36 -12  170.78   39.20
 -10  36  14   93.69   39.80
 -10  36 -14   28.80   28.80
  10  36  14    9.80   29.80
 -10  36  16   24.90   32.70
  10  36  16   59.29   40.10
 -10  36  18  -11.70   30.00
  10  36  18   26.60   38.70
 -10  36  20  -25.10   32.50
  10  36  20  -15.70   35.30
 -12  36   0   -1.30   32.00
 -12  36   2  228.18   44.80
 -12  36  -2  223.38   44.90
 -12  36   4    8.20   28.60
 -12  36  -4   -3.40   30.10
 -12  36   6  -39.20   27.50
 -12  36  -6  -38.80   27.40
 -12  36   8   18.70   30.40
 -12  36  -8   94.49   34.60
 -12  36  10   18.90   32.50
 -12  36 -10   87.49   32.00
 -12  36  12  -11.00   27.50
 -12  36 -12   37.20   31.50
 -12  36  14   25.50   33.90
 -12  36 -14   29.50   35.30
  12  36  14   90.39   43.00
 -12  36  16   73.09   37.20
  12  36  16   -0.90   29.90
 -12  36  18  -20.90   32.90
  12  36  18   -1.40   31.40
 -14  36   0   18.30   29.90
 -14  36   2  -44.30   24.30
 -14  36  -2  -40.10   29.60
 -14  36   4   64.09   34.60
 -14  36  -4   63.59   36.20
 -14  36   6  -43.30   24.10
 -14  36  -6  -27.10   27.70
 -14  36   8    1.90   34.10
 -14  36  -8   43.00   35.30
 -14  36  10   20.10   36.50
 -14  36 -10   32.40   31.20
 -14  36  12   59.39   37.10
 -14  36 -12  108.49   38.40
 -14  36  14   -9.50   35.90
 -14  36  16   20.80   32.60
 -16  36   0   26.40   29.50
 -16  36   2  228.28   47.80
 -16  36  -2  268.97   49.99
 -16  36   4   -8.50   31.00
 -16  36  -4  -24.10   29.40
 -16  36   6  158.78   45.20
 -16  36  -6  167.68   39.20
 -16  36   8    8.00   28.60
 -16  36  -8   28.50   30.10
 -16  36  10  -16.00   33.70
 -16  36 -10    4.90   30.50
 -16  36  12  -37.70   31.80
 -16  36 -12    4.70   30.20
 -16  36  14   76.49   48.00
 -18  36   0  -14.60   31.20
 -18  36   2   23.30   29.00
 -18  36  -2   11.00   33.50
 -18  36   4  507.15   65.59
 -18  36  -4  468.35   63.99
 -18  36   6   -1.30   28.70
 -18  36  -6  -37.70   28.30
 -18  36   8  383.66   58.39
 -18  36  -8  333.67   55.39
 -18  36  10   57.59   38.90
 -18  36 -10   43.20   35.80
 -18  36 -12  -29.40   29.70
 -20  36   0  -79.19   24.80
 -20  36   2   -3.70   34.60
 -20  36  -2   -8.50   30.90
 -20  36   4  -23.20   30.30
 -20  36  -4   10.00   28.60
 -20  36   6   14.30   32.00
 -20  36  -6  -16.10   32.20
 -20  36   8    8.40   38.00
 -20  36  -8   69.59   38.60
 -20  36 -10   25.70   33.70
 -22  36   0   -5.20   34.90
 -22  36   2  -44.90   31.10
 -22  36  -2    4.40   36.20
 -22  36   4  732.93   91.39
 -22  36  -4  899.41   85.39
   1  37  -1   -6.30   26.10
  -1  37   1   56.99   30.60
  -1  37  -1   23.50   31.40
   1  37   1   57.39   34.00
   1  37  -3   11.70   26.30
  -1  37   3  115.49   38.30
  -1  37  -3   -7.20   28.00
   1  37   3  -40.60   24.20
   1  37  -5   13.60   28.80
  -1  37   5   13.10   30.50
  -1  37  -5  -22.50   23.30
   1  37   5   32.20   29.30
  -1  37   7  120.39   39.80
   1  37  -7   75.89   36.20
  -1  37  -7   25.90   32.20
   1  37   7   72.89   35.90
   1  37  -9   18.20   28.90
  -1  37   9   28.50   31.40
   1  37   9   12.70   29.60
  -1  37  -9   37.90   30.50
   1  37 -11  290.87   45.90
  -1  37  11  190.58   46.50
  -1  37 -11  316.47   48.80
   1  37  11  206.68   49.00
  -1  37  13   16.90   31.40
   1  37 -13   61.49   32.50
  -1  37 -13  -23.90   26.50
   1  37  13   42.30   34.30
  -1  37  15  121.39   39.70
   1  37 -15  114.99   35.90
   1  37  15   64.49   39.90
  -1  37 -15  102.59   36.50
  -1  37  17  119.59   40.90
   1  37  17  109.69   40.30
  -1  37  19    9.80   33.80
   1  37  19   25.30   33.00
   3  37  -1    8.30   25.90
  -3  37   1   39.50   33.50
   3  37   1   63.39   34.30
  -3  37  -1   40.70   30.30
  -3  37   3   73.99   33.20
   3  37  -3   61.19   34.50
   3  37   3   -3.40   26.90
  -3  37  -3   33.90   33.30
   3  37  -5    1.10   30.40
  -3  37   5  -29.40   29.60
  -3  37  -5  -14.50   30.20
   3  37   5   -4.40   26.50
   3  37  -7  129.29   36.20
  -3  37   7  182.18   45.20
   3  37   7  174.48   43.90
  -3  37  -7   66.39   36.10
  -3  37   9  105.89   37.70
   3  37  -9  137.49   39.00
  -3  37  -9  213.38   42.50
   3  37   9  189.28   42.40
  -3  37  11    8.90   29.80
   3  37 -11  -23.20   25.60
   3  37  11    3.80   29.00
  -3  37 -11    1.10   27.10
  -3  37  13  158.28   42.00
   3  37 -13  285.17   45.60
   3  37  13  161.78   43.50
  -3  37 -13  221.08   42.00
   3  37 -15  137.49   37.90
  -3  37  15  188.98   44.60
   3  37  15  171.58   43.70
  -3  37 -15  174.28   38.40
  -3  37  17   12.40   32.90
   3  37  17   38.50   33.90
  -3  37  19  157.68   44.50
   3  37  19  226.78   48.60
   5  37  -1    3.90   27.10
  -5  37   1   14.90   27.70
  -5  37  -1   77.89   31.50
   5  37   1  -25.10   30.10
   5  37  -3    6.40   30.90
  -5  37   3   28.40   31.90
   5  37   3   -9.00   27.10
  -5  37  -3   33.30   29.40
  -5  37   5   86.19   34.30
   5  37  -5   99.59   35.70
   5  37   5   89.89   38.00
  -5  37  -5   -6.40   29.90
   5  37  -7   98.79   37.00
  -5  37   7   83.89   35.40
   5  37   7  106.89   36.20
  -5  37  -7   72.29   34.20
  -5  37   9  149.88   42.20
   5  37  -9  166.08   38.90
  -5  37  -9  158.38   40.30
   5  37   9  161.88   43.70
  -5  37  11  240.78   49.20
   5  37 -11  113.99   37.50
   5  37  11  204.38   45.20
  -5  37 -11  178.18   40.00
  -5  37  13   -6.40   30.00
   5  37 -13   60.29   28.10
   5  37  13   -3.20   29.00
  -5  37 -13   12.70   29.30
  -5  37  15  -41.90   24.30
   5  37 -15  -12.00   27.80
   5  37  15  -15.30   30.50
  -5  37 -15   -1.00   30.80
  -5  37  17  119.39   43.50
   5  37  17   99.39   40.30
  -5  37  19  162.68   45.30
   5  37  19  153.28   47.70
  -7  37   1   94.99   35.70
   7  37  -1   52.39   31.20
   7  37   1   58.89   33.50
  -7  37  -1   62.19   33.80
   7  37  -3   90.39   37.20
  -7  37   3  103.39   37.00
   7  37   3  138.29   40.00
  -7  37  -3  127.29   36.40
   7  37  -5  132.99   40.00
  -7  37   5  114.29   41.30
   7  37   5   59.59   32.90
  -7  37  -5   35.60   32.50
  -7  37   7  655.03   69.39
   7  37  -7  635.74   67.09
  -7  37  -7  653.73   68.89
   7  37   7  623.44   68.89
   7  37  -9   37.00   31.20
  -7  37   9   -6.70   30.40
   7  37   9   52.89   35.00
  -7  37  -9   37.40   27.80
   7  37 -11  335.87   50.09
  -7  37  11  373.36   56.09
  -7  37 -11  218.78   43.50
   7  37  11  220.98   47.30
  -7  37  13  126.59   40.20
   7  37 -13  142.59   37.70
  -7  37 -13  139.19   36.50
   7  37  13   76.99   36.80
  -7  37  15   78.99   38.30
   7  37 -15   95.19   35.10
   7  37  15   96.29   41.90
  -7  37  17   31.00   36.70
   7  37  17  -35.40   26.80
  -7  37  19  364.26   68.09
   7  37  19  475.95   65.69
  -9  37   1   22.20   30.70
  -9  37  -1   59.39   34.10
  -9  37   3  147.29   41.50
  -9  37  -3   91.79   33.70
  -9  37   5   89.39   34.80
  -9  37  -5  125.59   39.00
   9  37   5  150.08   44.00
  -9  37   7   -8.70   30.60
   9  37   7  -18.40   28.10
  -9  37  -7  -44.20   23.90
  -9  37   9  299.57   53.99
  -9  37  -9  330.97   51.29
   9  37   9  290.17   49.80
  -9  37  11   -9.20   30.90
  -9  37 -11   26.00   29.30
   9  37  11   45.10   32.10
  -9  37  13   51.49   35.00
  -9  37 -13   60.39   32.70
   9  37  13   11.90   29.50
  -9  37  15  -34.90   29.70
   9  37  15  -28.40   33.10
   9  37 -17  -14.00   40.90
  -9  37  17  -24.40   31.50
   9  37  17   14.50   30.80
 -11  37   1  331.67   50.79
 -11  37  -1  198.68   46.30
 -11  37   3   22.70   30.20
 -11  37  -3   -0.30   28.40
 -11  37   5   63.29   38.40
 -11  37  -5  203.08   41.30
 -11  37   7  287.97   51.09
 -11  37  -7  321.27   50.09
 -11  37   9  -13.30   28.20
 -11  37  -9    5.40   28.70
 -11  37  11  374.46   57.99
  11  37  11  391.56   58.69
 -11  37 -11  427.16   55.39
 -11  37  13   41.00   34.20
 -11  37 -13   59.59   33.00
  11  37  13   51.69   36.20
 -11  37  15   12.10   36.90
  11  37  15  -60.69   29.10
  11  37  17  -29.20   28.70
 -13  37   1    4.80   28.80
 -13  37  -1   26.50   30.90
 -13  37   3   97.09   40.00
 -13  37  -3  210.18   43.40
 -13  37   5    1.10   27.90
 -13  37  -5   30.30   31.20
 -13  37   7   62.89   35.30
 -13  37  -7  153.98   41.00
 -13  37   9   73.49   36.50
 -13  37  -9   61.49   34.10
 -13  37  11   38.70   35.20
 -13  37 -11   87.09   35.50
 -13  37  13   45.70   35.20
 -13  37 -13   76.59   34.90
  13  37  15   51.69   35.50
 -15  37   1   37.80   37.50
 -15  37  -1   43.30   35.10
 -15  37   3  113.89   38.60
 -15  37  -3  113.79   39.90
 -15  37   5   44.50   32.00
 -15  37  -5   77.19   34.40
 -15  37   7   63.39   40.30
 -15  37  -7  116.89   38.90
 -15  37   9  -18.10   29.20
 -15  37  -9  -20.30   26.20
 -15  37  11   -7.90   29.90
 -15  37 -11   41.90   30.20
 -15  37 -13   19.40   46.80
 -17  37   1  133.89   38.80
 -17  37  -1   86.09   39.20
 -17  37   3   18.90   33.80
 -17  37  -3    6.10   29.30
 -17  37   5  173.48   46.90
 -17  37  -5  183.88   43.40
 -17  37   7   33.00   30.40
 -17  37  -7   36.20   30.50
 -17  37   9   48.10   32.90
 -17  37  -9   24.70   30.20
 -17  37 -11  -32.10   30.20
 -19  37   1   64.89   40.30
 -19  37  -1   14.10   32.50
 -19  37   3  173.88   47.30
 -19  37  -3  227.98   48.00
 -19  37   5   90.99   39.20
 -19  37  -5   67.19   39.00
 -19  37  -7  349.96   55.59
   0  38   0   37.40   30.00
   0  38  -2   88.89   37.30
   0  38   2   36.40   29.50
   0  38   4   44.80   31.00
   0  38  -4   -7.50   29.60
   0  38   6   77.69   35.10
   0  38  -6   20.00   27.40
   0  38   8  -14.50   27.10
   0  38  -8    1.30   28.90
   0  38  10  178.18   47.60
   0  38 -10  237.28   45.50
   0  38  12    2.80   33.50
   0  38 -12   23.00   25.50
   0  38 -14  422.26   54.29
   0  38  14  294.17   52.59
   0  38  16  -38.90   28.60
   0  38  18  144.69   46.10
  -2  38   0   31.50   30.70
   2  38   0   31.40   31.60
   2  38  -2  231.48   45.40
  -2  38   2  219.58   48.00
   2  38   2  158.68   39.10
  -2  38  -2  230.08   45.00
  -2  38   4   -1.00   28.90
   2  38  -4  -23.80   27.20
  -2  38  -4   43.90   30.10
   2  38   4   16.80   28.60
   2  38  -6   26.10   31.00
  -2  38   6  -45.90   26.30
  -2  38  -6  -60.39   27.70
   2  38   6   14.60   28.60
  -2  38   8  188.18   43.90
   2  38  -8  203.78   40.70
   2  38   8  218.88   47.40
  -2  38  -8  225.58   46.30
  -2  38  10  119.99   43.60
   2  38 -10  146.79   38.80
   2  38  10   77.69   35.00
  -2  38 -10   44.80   34.90
   2  38 -12   67.39   32.60
  -2  38  12  120.59   39.50
   2  38  12   80.39   36.00
  -2  38 -12  104.59   36.10
  -2  38  14  122.79   39.90
   2  38 -14   79.09   35.90
  -2  38 -14   81.39   34.50
   2  38  14   65.69   39.10
  -2  38  16   53.59   36.50
   2  38  16   38.40   34.70
  -2  38  18   45.40   37.10
   2  38  18   12.90   32.40
   4  38   0  -55.79   26.70
  -4  38   0   24.50   33.00
   4  38  -2  -13.10   27.30
  -4  38   2   14.20   29.00
  -4  38  -2  105.99   35.30
   4  38   2  -24.20   30.40
   4  38  -4   57.89   33.40
  -4  38   4   11.00   31.60
  -4  38  -4   16.60   27.20
   4  38   4    5.70   28.90
   4  38  -6   28.50   31.10
  -4  38   6   46.20   33.00
   4  38   6   44.20   33.20
  -4  38  -6   89.89   37.10
  -4  38   8   81.29   36.40
   4  38  -8    3.60   30.30
   4  38   8   14.40   31.20
  -4  38  -8   -4.80   28.90
   4  38 -10    0.70   30.10
  -4  38  10   -2.90   33.30
  -4  38 -10  -15.10   28.20
   4  38  10   -0.70   31.20
   4  38 -12   52.59   32.60
  -4  38  12  -45.30   27.00
   4  38  12  -20.70   27.10
  -4  38 -12  -37.20   26.70
   4  38 -14  198.88   41.70
  -4  38  14  171.98   46.60
  -4  38 -14  159.58   39.50
   4  38  14  104.69   42.30
  -4  38  16  102.89   43.50
   4  38 -16  111.69   47.30
   4  38  16  112.69   43.10
  -4  38  18  234.38   76.69
   4  38  18  117.29   40.60
   6  38   0   65.39   33.60
  -6  38   0   49.00   31.40
   6  38  -2  -53.89   25.80
  -6  38   2  -34.20   29.10
   6  38   2   21.10   32.60
  -6  38  -2  -15.20   30.40
   6  38  -4   -7.70   27.50
  -6  38   4  135.49   39.30
   6  38   4   18.30   34.20
  -6  38  -4   38.90   34.60
   6  38  -6    1.60   26.00
  -6  38   6   29.10   34.50
  -6  38  -6  -16.20   29.60
   6  38   6   48.80   32.60
   6  38  -8  667.73   68.19
  -6  38   8  460.75   61.79
  -6  38  -8  456.25   59.29
   6  38   8  488.05   64.89
   6  38 -10   57.29   31.00
  -6  38  10    2.20   34.30
   6  38  10    9.50   31.50
  -6  38 -10   23.80   30.00
   6  38 -12  368.56   50.19
  -6  38  12  352.66   55.59
   6  38  12  295.27   51.69
  -6  38 -12  278.47   47.60
   6  38 -14   33.00   31.20
  -6  38  14   -4.20   33.70
   6  38  14  -27.60   29.10
  -6  38 -14   27.20   29.90
  -6  38  16   56.79   35.10
   6  38 -16  184.58   42.60
   6  38  16  163.88   45.40
   8  38   0   71.69   36.40
  -8  38   0   -1.30   30.00
  -8  38   2  163.68   41.20
   8  38  -2  109.79   38.00
  -8  38  -2  159.88   40.10
   8  38   2  212.38   43.70
  -8  38   4  -23.60   26.00
   8  38  -4  -10.50   32.90
   8  38   4   33.70   31.60
  -8  38  -4   16.20   31.30
  -8  38   6  526.35   66.39
   8  38  -6  422.76   59.49
  -8  38  -6  702.93   69.69
   8  38   6  660.93   71.69
  -8  38   8  -21.80   31.70
   8  38  -8  -30.60   29.50
  -8  38  -8   -4.20   28.90
   8  38   8   -3.30   29.60
   8  38 -10  164.48   40.60
  -8  38  10  165.68   46.70
   8  38  10  161.88   43.80
  -8  38 -10  233.68   42.90
   8  38 -12   24.50   26.60
  -8  38  12   -1.10   29.10
  -8  38 -12   32.70   28.20
   8  38  12   59.99   34.80
   8  38 -14  -13.70   26.80
  -8  38  14   70.99   36.60
   8  38  14  -32.50   29.10
  -8  38 -14  -37.60   31.80
   8  38 -16   -1.00   30.10
  -8  38  16   47.30   38.80
   8  38  16   44.00   37.70
 -10  38   0  173.58   44.30
 -10  38   2  130.09   38.50
 -10  38  -2   68.09   35.50
 -10  38   4   -2.00   30.30
 -10  38  -4   67.49   34.70
 -10  38   6   14.40   28.60
 -10  38  -6  -12.10   29.90
  10  38   6  -30.90   30.60
 -10  38   8  150.18   45.20
 -10  38  -8  198.38   43.90
  10  38   8  138.19   41.80
 -10  38  10   63.09   39.00
  10  38  10   16.10   31.00
 -10  38 -10   31.70   33.00
 -10  38  12  253.87   54.59
 -10  38 -12  281.97   47.90
  10  38  12  306.27   50.89
 -10  38  14   22.80   33.80
  10  38  14    3.60   34.60
 -12  38   0  -38.20   24.60
 -12  38   2  118.39   39.10
 -12  38  -2  138.89   44.20
 -12  38   4   62.79   34.10
 -12  38  -4   11.60   29.40
 -12  38   6  278.97   50.49
 -12  38  -6  299.77   51.49
 -12  38   8   12.10   31.10
 -12  38  -8   14.50   30.90
 -12  38  10  401.06   64.69
 -12  38 -10  325.37   53.99
 -12  38  12   -8.20   33.70
  12  38  12    7.20   36.10
 -12  38 -12   10.50   30.50
 -14  38   0  377.56   59.49
 -14  38   2  101.49   39.50
 -14  38  -2   65.69   35.00
 -14  38   4  128.69   42.30
 -14  38  -4   73.39   36.00
 -14  38   6  -11.30   34.00
 -14  38  -6  -53.19   22.30
 -14  38   8  -16.50   31.50
 -14  38  -8    5.70   32.00
 -14  38  10   29.50   40.00
 -14  38 -10   47.60   34.30
 -14  38 -12  -13.60   31.20
 -16  38   0   30.10   33.40
 -16  38   2   67.19   37.50
 -16  38  -2   10.80   34.50
 -16  38   4  112.79   44.10
 -16  38  -4   72.79   39.30
 -16  38   6  123.99   43.20
 -16  38  -6  126.59   38.80
 -16  38   8   51.09   40.80
 -16  38  -8  114.19   37.40
 -18  38   0  178.48   47.70
 -18  38   2   54.99   34.60
 -18  38  -2   64.99   36.00
 -18  38   4  134.39   45.30
 -18  38  -4   67.39   38.70
   1  39  -1  175.38   42.80
  -1  39   1  238.48   49.10
  -1  39  -1  211.48   44.20
   1  39   1  112.39   42.30
  -1  39   3  121.39   39.40
   1  39  -3   71.29   34.60
   1  39   3  151.18   41.00
  -1  39  -3  145.89   40.00
   1  39  -5   76.39   34.00
  -1  39   5   -1.20   33.60
   1  39   5   10.20   30.10
  -1  39  -5  100.49   37.60
  -1  39   7   11.60   33.70
   1  39  -7  -67.59   29.30
  -1  39  -7   14.70   29.60
   1  39   7    8.00   29.60
  -1  39   9   -2.70   32.10
   1  39  -9   25.80   32.20
  -1  39  -9   95.49   38.00
   1  39   9   51.69   34.80
  -1  39  11   24.00   38.40
   1  39 -11  -13.70   27.20
   1  39  11   11.90   29.50
  -1  39 -11   27.00   31.70
   1  39 -13  285.57   46.60
  -1  39  13  250.87   50.69
   1  39  13  288.67   56.19
  -1  39 -13  304.77   49.80
  -1  39  15    9.10   31.80
   1  39 -15   18.40   31.50
   1  39  15  -27.00   32.30
  -3  39   1  149.09   43.90
   3  39  -1   85.89   35.90
   3  39   1  134.39   41.90
  -3  39  -1  115.09   40.30
  -3  39   3   40.80   32.00
   3  39  -3   37.50   35.80
  -3  39  -3   16.80   34.00
   3  39   3   89.19   35.60
  -3  39   5    0.10   29.50
   3  39  -5  -20.50   25.30
  -3  39  -5   -6.80   27.30
   3  39   5  -32.80   25.80
   3  39  -7   69.49   33.10
  -3  39   7  136.69   42.20
   3  39   7   63.99   35.40
  -3  39  -7   60.19   34.40
  -3  39   9  213.48   46.00
   3  39  -9  197.28   43.80
  -3  39  -9  248.38   47.90
   3  39   9  189.88   45.10
  -3  39  11  134.19   41.10
   3  39 -11  127.39   39.10
  -3  39 -11  141.59   37.00
   3  39  11   62.09   41.30
  -3  39  13   68.19   41.70
   3  39 -13  145.79   39.40
   3  39  13  171.28   43.10
  -3  39 -13  104.29   37.00
  -3  39  15   -2.10   38.30
   3  39 -15   30.60   32.70
   3  39  15   51.19   34.50
   5  39  -1  -38.20   27.60
  -5  39   1  -11.40   27.60
   5  39   1    1.90   28.60
  -5  39  -1   46.00   31.20
   5  39  -3  -32.80   24.20
  -5  39   3  -32.60   27.60
   5  39   3  -21.20   32.10
  -5  39  -3    8.40   28.50
  -5  39   5   83.69   37.50
   5  39  -5   71.29   33.20
   5  39   5   74.09   40.90
  -5  39  -5   87.89   38.20
  -5  39   7   16.40   35.70
   5  39  -7   39.50   31.30
   5  39   7   51.39   33.70
  -5  39  -7   -8.20   31.00
   5  39  -9   41.20   35.70
  -5  39   9   13.30   35.20
  -5  39  -9  -17.90   29.20
   5  39   9    7.30   33.20
   5  39 -11  153.68   40.80
  -5  39  11   86.39   38.90
  -5  39 -11  145.29   36.80
   5  39  11   71.19   38.00
   5  39 -13   46.90   33.10
  -5  39  13   16.20   37.80
   5  39  13   67.29   35.40
  -5  39 -13   62.69   34.50
   5  39 -15   55.09   33.80
   5  39  15   75.09   43.40
   7  39  -1  -42.50   29.10
  -7  39   1  -34.70   27.50
   7  39   1   25.20   32.10
  -7  39  -1   47.50   36.80
  -7  39   3   74.49   39.50
   7  39  -3   70.09   35.90
   7  39   3   24.00   32.00
  -7  39  -3   91.29   40.00
   7  39  -5    5.00   29.40
  -7  39   5    9.40   28.90
  -7  39  -5  -29.40   29.50
   7  39   5   75.09   39.50
  -7  39   7  369.86   59.99
   7  39  -7  405.66   56.39
  -7  39  -7  324.67   51.69
   7  39   7  396.86   61.59
  -7  39   9   25.70   35.50
   7  39  -9  -11.00   30.30
  -7  39  -9    3.30   29.80
   7  39   9  -20.60   29.80
  -7  39  11  134.09   46.40
   7  39 -11  186.28   45.90
  -7  39 -11  293.97   47.70
   7  39  11  195.78   46.20
   7  39 -13   24.50   34.70
  -7  39  13   17.50   33.30
   7  39  13   11.40   30.10
  -7  39 -13   14.80   30.20
   7  39 -15  -42.80   27.10
   9  39  -1  149.09   43.80
  -9  39   1  118.89   41.90
  -9  39  -1   98.49   38.00
   9  39   1   87.99   36.50
   9  39  -3  125.39   39.00
  -9  39   3  167.68   46.30
  -9  39  -3  177.98   41.80
   9  39   3  106.99   37.60
   9  39  -5    1.80   36.10
  -9  39   5   37.80   33.60
   9  39   5   30.60   31.70
  -9  39  -5   55.19   32.10
  -9  39   7   15.70   35.90
   9  39  -7  -53.69   28.50
  -9  39  -7   46.40   30.00
   9  39   7    6.80   34.10
  -9  39   9  264.77   51.69
   9  39  -9  212.48   43.40
   9  39   9  188.78   44.10
  -9  39  -9  127.69   39.30
   9  39 -11   59.89   35.70
  -9  39  11   74.69   39.90
  -9  39 -11   42.70   34.50
   9  39  11   85.29   39.20
   9  39 -13   96.29   36.80
  -9  39 -13  111.79   37.20
 -11  39   1   -5.60   30.30
 -11  39  -1  -20.90   31.60
 -11  39   3  158.28   42.20
 -11  39  -3  101.69   38.40
 -11  39   5   53.49   35.30
 -11  39  -5  130.79   41.20
 -11  39   7  128.19   41.80
 -11  39  -7  192.68   43.20
  11  39   7  179.98   46.40
 -11  39   9  115.99   43.00
  11  39   9   34.90   38.60
 -11  39  -9   22.00   34.40
 -11  39 -11  109.79   38.90
 -13  39   1  296.37   53.39
 -13  39  -1  191.68   44.80
 -13  39   3  145.99   45.30
 -13  39  -3  173.28   47.60
 -13  39   5   26.80   36.30
 -13  39  -5  -16.20   33.10
 -13  39   7   37.20   32.10
 -13  39  -7   -2.00   32.60
 -13  39  -9   79.99   36.80
 -15  39   1  -69.49   26.60
 -15  39  -1    8.00   34.90
 -15  39   3  -61.19   31.30
 -15  39  -3  -39.70   26.50
 -15  39   5   43.20   38.80
 -15  39  -5   86.79   34.60
 -15  39  -7   31.50   33.60
   0  40   0 1975.80  120.89
   0  40   2    7.50   29.70
   0  40  -2  -18.50   29.30
   0  40  -4  332.97   54.39
   0  40   4  307.07   53.99
   0  40   6   23.70   35.60
   0  40  -6   13.50   30.60
   0  40   8  119.59   44.10
   0  40  -8  177.88   42.30
   0  40  10   35.80   34.60
   0  40 -10  -50.59   27.70
   0  40  12  537.85   77.99
   0  40 -12  436.66   58.79
   0  40 -14  -61.49   29.30
  -2  40   0   16.30   35.70
   2  40   0  -52.29   27.80
  -2  40   2   35.10   32.80
   2  40  -2   13.50   32.50
   2  40   2  -38.00   26.50
  -2  40  -2  -38.10   30.60
   2  40  -4  -31.60   31.10
  -2  40   4  -41.60   29.90
  -2  40  -4    4.40   34.00
   2  40   4  -16.80   26.90
  -2  40   6  -31.80   28.90
   2  40  -6   -0.10   29.90
  -2  40  -6  -27.60   26.10
   2  40   6  -28.60   27.10
   2  40  -8   26.50   31.30
  -2  40   8   71.39   35.80
  -2  40  -8  -18.90   27.30
   2  40   8  -15.80   29.20
  -2  40  10   59.69   38.70
   2  40 -10   28.00   32.20
  -2  40 -10    5.40   26.90
   2  40  10   75.29   41.40
   2  40 -12   83.99   38.30
  -2  40  12   92.89   45.00
  -2  40 -12  139.19   39.90
   2  40  12   59.09   41.80
  -4  40   0  328.37   57.09
   4  40   0  328.97   52.59
   4  40  -2   -5.20   28.90
  -4  40   2  -15.90   28.50
  -4  40  -2  -21.40   30.30
   4  40   2  -19.70   30.70
   4  40  -4   55.99   37.20
  -4  40   4   46.90   37.30
  -4  40  -4   66.69   33.70
   4  40   4   26.50   33.20
  -4  40   6   86.09   37.60
   4  40  -6  164.88   43.40
  -4  40  -6   80.69   38.10
   4  40   6  163.88   43.80
  -4  40   8   -8.20   31.60
   4  40  -8   16.70   28.60
   4  40   8   64.99   38.10
  -4  40  -8   74.09   37.00
   4  40 -10  198.88   44.20
  -4  40  10  112.69   41.40
   4  40  10   98.49   40.10
  -4  40 -10  111.39   40.10
   4  40 -12  172.58   42.40
  -4  40 -12  240.28   47.40
  -6  40   0   -5.50   29.50
   6  40   0   34.90   35.60
  -6  40   2  -20.80   28.70
   6  40  -2  -17.60   26.40
  -6  40  -2  -16.40   27.80
   6  40   2    0.30   31.50
  -6  40   4   74.89   41.10
   6  40  -4   28.80   32.60
   6  40   4   66.69   35.30
  -6  40  -4  104.09   41.10
   6  40  -6   31.90   30.30
  -6  40   6   23.60   33.40
  -6  40  -6   57.59   35.00
   6  40   6   66.99   37.40
   6  40  -8  -18.40   29.70
  -6  40   8  109.79   42.40
  -6  40  -8   36.80   33.40
   6  40   8   85.89   41.90
   6  40 -10  208.08   42.70
  -6  40  10  135.09   43.30
  -6  40 -10  162.78   41.70
   6  40  10   92.09   40.20
   6  40 -12    9.30   30.80
  -6  40 -12   14.00   30.20
   8  40   0   62.79   34.80
  -8  40   0  179.98   42.30
   8  40  -2   82.49   39.50
  -8  40   2   72.69   35.40
  -8  40  -2   60.59   39.00
   8  40   2  -29.10   27.20
  -8  40   4  -14.70   34.90
   8  40  -4   39.10   35.40
   8  40   4   97.09   35.30
  -8  40  -4  110.89   35.20
  -8  40   6   35.90   30.90
   8  40  -6   65.29   36.20
   8  40   6    2.70   33.60
  -8  40  -6   25.20   29.90
   8  40  -8   12.30   32.20
  -8  40   8   36.90   33.60
   8  40   8   -3.10   33.90
  -8  40  -8   -1.90   26.80
   8  40 -10  153.58   42.20
  -8  40 -10  235.78   46.60
 -10  40   0   18.50   33.70
  10  40   0  -21.90   28.40
  10  40  -2   51.89   39.20
 -10  40   2   45.70   37.30
 -10  40  -2   95.39   36.30
  10  40   2  -40.40   28.30
  10  40  -4  175.68   46.90
 -10  40   4  216.78   51.19
  10  40   4  156.78   43.30
 -10  40  -4  184.18   44.80
  10  40  -6  122.99   40.30
 -10  40   6   90.09   38.10
  10  40   6  148.99   44.00
 -10  40  -6   57.49   36.60
 -10  40   8  237.58   75.39
  10  40  -8  180.78   45.90
 -10  40  -8  176.08   44.30
 -12  40   0  652.73   73.79
 -12  40   2   64.59   41.80
 -12  40  -2  144.29   44.30
 -12  40   4   66.29   39.70
 -12  40  -4  160.38   43.00
 -12  40  -6  -14.70   26.30
 -14  40   0    9.40   32.20
   1  41  -1  642.54   70.39
  -1  41   1  481.15   65.49
  -1  41  -1  683.03   75.49
   1  41   1  514.65   64.59
  -1  41   3  111.49   44.40
   1  41  -3  147.29   44.10
   1  41   3  171.28   48.10
  -1  41  -3  191.38   47.60
   1  41  -5   12.00   28.50
  -1  41   5   12.70   31.40
  -1  41  -5   63.39   34.20
   1  41   5   33.10   34.20
  -1  41   7   24.10   31.80
   1  41  -7  -37.30   28.80
  -1  41  -7   61.39   38.00
   1  41   7   32.50   35.20
   1  41  -9  154.78   39.70
  -1  41  -9   69.59   38.40
   3  41  -1  144.79   40.90
  -3  41   1  192.08   45.80
   3  41   1  146.49   44.10
  -3  41  -1  101.29   40.30
  -3  41   3   98.19   40.20
   3  41  -3   93.79   37.20
  -3  41  -3  133.49   42.30
   3  41   3   13.50   32.00
  -3  41   5   75.29   35.40
   3  41  -5   98.59   35.50
  -3  41  -5   44.20   29.70
   3  41   5   59.99   34.00
  -3  41   7   60.19   39.20
   3  41  -7   34.00   34.90
  -3  41  -7   30.70   29.40
   3  41   7  -40.30   26.90
   3  41  -9   33.70   30.50
  -3  41  -9   10.40   27.30
  -5  41   1   78.09   37.70
   5  41  -1   33.80   37.50
   5  41   1   65.49   33.90
  -5  41  -1   -4.40   36.30
   5  41  -3    9.40   34.40
  -5  41   3   48.50   37.30
  -5  41  -3   19.80   31.30
   5  41   3   49.60   34.10
  -5  41   5    3.90   36.40
   5  41  -5   50.79   37.70
   5  41   5   13.80   31.40
  -5  41  -5   75.99   41.60
  -5  41   7  -20.70   38.80
   5  41  -7  -23.90   30.70
   5  41   7   43.40   40.30
  -5  41  -7   39.30   35.70
   5  41  -9  271.67   49.70
  -5  41  -9  240.78   50.49
   7  41  -1   19.90   36.00
  -7  41   1  -11.00   30.00
  -7  41  -1  -23.60   27.40
   7  41   1   31.40   33.60
  -7  41   3    4.50   31.30
   7  41  -3    8.10   32.10
   7  41   3  -36.10   32.10
  -7  41  -3  -15.80   32.80
   7  41  -5    6.60   31.10
  -7  41   5   -4.80   33.10
  -7  41  -5   38.40   29.70
   7  41   5  -30.50   35.80
   7  41  -7   -6.40   29.10
  -7  41  -7  -16.70   28.40
  -9  41   1  122.29   41.50
   9  41  -1  109.29   40.20
  -9  41  -1   81.29   38.40
   9  41   1   72.59   36.50
  -9  41   3   -2.10   29.70
   9  41  -3   -3.30   29.30
   9  41   3  -12.10   32.20
  -9  41  -3   11.70   33.00
   9  41  -5  274.47   52.99
  -9  41   5  267.07   76.49
  -9  41  -5  389.16   56.99
   0  42   0   80.89   36.70
   0  42  -2   34.50   33.10
   0  42   2  -10.30   36.70
   0  42   4   27.80   39.10
   0  42  -4  -40.30   28.00
  -2  42   0   44.90   33.10
   2  42   0   30.90   37.70
   2  42  -2 1281.37   95.39
  -2  42   2 1072.09   88.99
  -2  42  -2 1051.29   88.19
   2  42   2 1177.68   91.99
   2  42  -4   40.30   35.80
  -2  42   4   80.99   58.99
   2  42   4   21.80   51.99
  -2  42  -4   -2.00   28.80
  -4  42   0  -42.00   33.20
   4  42   0   12.90   30.30
   4  42  -2  -30.40   27.40
  -4  42   2  -37.90   27.40
  -4  42  -2  -22.30   30.70
   4  42   2   13.00   39.90
   4  42  -4   71.19   39.50
  -4  42  -4   59.69   35.30
   0   0   0    0.00    0.00

_computing_structure_solution     'SHELXT 2014/5 (Sheldrick, 2014)'
;
_shelx_hkl_checksum              1192
_shelx_fab_file
;
    0    2    2     26.75      0.00
    2    2    2   -990.62      0.00
    1    1    3    362.89      0.00
    1    3    3   -292.83      0.00
    3    3    3     43.04      0.00
    0    0    4    139.68      0.00
    2    2    4    332.94      0.00
    0    4    4    498.05      0.00
    2    4    4   -389.08      0.00
    4    4    4    398.35      0.00
    1    1    5     36.59      0.00
    1    3    5   -175.24      0.00
    3    3    5    311.10      0.00
    1    5    5   -224.90      0.00
    3    5    5     -3.24      0.00
    5    5    5    -35.61      0.00
    0    2    6    420.59      0.00
    2    2    6   -112.54      0.00
    2    4    6    -77.76      0.00
    4    4    6    -54.73      0.00
    0    6    6    -37.91      0.00
    2    6    6    -61.51      0.00
    4    6    6    243.19      0.00
    6    6    6   -113.43      0.00
    1    1    7     87.93      0.00
    1    3    7    -56.24      0.00
    3    3    7    136.26      0.00
    1    5    7     -2.82      0.00
    3    5    7   -101.81      0.00
    5    5    7     43.69      0.00
    1    7    7    -57.73      0.00
    3    7    7     44.44      0.00
    5    7    7     39.45      0.00
    7    7    7    -85.41      0.00
    0    0    8    228.94      0.00
    2    2    8     38.20      0.00
    0    4    8   -130.48      0.00
    2    4    8     54.68      0.00
    4    4    8    -88.70      0.00
    2    6    8     25.54      0.00
    4    6    8   -132.32      0.00
    6    6    8     66.83      0.00
    0    8    8    228.88      0.00
    2    8    8    -72.15      0.00
    4    8    8      1.38      0.00
    6    8    8     67.83      0.00
    8    8    8     65.72      0.00
    1    1    9      2.27      0.00
    1    3    9      3.56      0.00
    3    3    9    -70.17      0.00
    1    5    9    -34.31      0.00
    3    5    9     58.89      0.00
    5    5    9     23.85      0.00
    1    7    9    -14.79      0.00
    3    7    9     31.85      0.00
    5    7    9     -3.41      0.00
    7    7    9    -22.99      0.00
    1    9    9    -33.80      0.00
    3    9    9    -41.49      0.00
    5    9    9    -38.40      0.00
    7    9    9     16.36      0.00
    9    9    9     63.08      0.00
    0    2   10     61.44      0.00
    2    2   10    -28.11      0.00
    2    4   10     82.67      0.00
    4    4   10    -87.91      0.00
    0    6   10    -70.71      0.00
    2    6   10     -0.11      0.00
    4    6   10    -50.72      0.00
    6    6   10     29.27      0.00
    2    8   10      9.46      0.00
    4    8   10     34.21      0.00
    6    8   10     20.97      0.00
    8    8   10    -86.59      0.00
    0   10   10    -85.88      0.00
    2   10   10    -20.23      0.00
    4   10   10     12.67      0.00
    6   10   10    -38.72      0.00
    8   10   10     53.10      0.00
   10   10   10    -54.05      0.00
    1    1   11     -3.67      0.00
    1    3   11    -16.38      0.00
    3    3   11      8.46      0.00
    1    5   11     14.61      0.00
    3    5   11     50.50      0.00
    5    5   11    -27.30      0.00
    1    7   11     11.16      0.00
    3    7   11     44.87      0.00
    5    7   11    -16.35      0.00
    7    7   11     -3.64      0.00
    1    9   11     22.74      0.00
    3    9   11    -47.88      0.00
    5    9   11     19.39      0.00
    7    9   11    -19.42      0.00
    9    9   11    -35.72      0.00
    1   11   11    -29.51      0.00
    3   11   11    -22.91      0.00
    5   11   11     43.05      0.00
    7   11   11    -12.51      0.00
    9   11   11     23.01      0.00
   11   11   11     -2.95      0.00
    0    0   12    -17.87      0.00
    2    2   12     -4.44      0.00
    0    4   12    -69.50      0.00
    2    4   12    -19.44      0.00
    4    4   12    133.88      0.00
    2    6   12      1.19      0.00
    4    6   12    -10.21      0.00
    6    6   12     28.48      0.00
    0    8   12    -80.51      0.00
    2    8   12     56.43      0.00
    4    8   12     10.13      0.00
    6    8   12    -55.01      0.00
    8    8   12     34.98      0.00
    2   10   12     47.99      0.00
    4   10   12     -7.55      0.00
    6   10   12    -19.17      0.00
    8   10   12    -13.33      0.00
   10   10   12     45.20      0.00
    0   12   12     69.92      0.00
    2   12   12      1.01      0.00
    4   12   12     -9.22      0.00
    6   12   12     33.42      0.00
    8   12   12     32.61      0.00
   10   12   12    -18.81      0.00
   12   12   12     82.11      0.00
    1    1   13     57.33      0.00
    1    3   13    -12.26      0.00
    3    3   13    -26.50      0.00
    1    5   13    -12.80      0.00
    3    5   13    -10.17      0.00
    5    5   13     40.18      0.00
    1    7   13      8.47      0.00
    3    7   13    -40.28      0.00
    5    7   13    -23.41      0.00
    7    7   13     -2.85      0.00
    1    9   13    -67.56      0.00
    3    9   13     14.90      0.00
    5    9   13     -3.90      0.00
    7    9   13     47.94      0.00
    9    9   13    -26.16      0.00
    1   11   13    -12.56      0.00
    3   11   13      5.60      0.00
    5   11   13      8.68      0.00
    7   11   13     18.22      0.00
    9   11   13     24.96      0.00
   11   11   13    -38.06      0.00
    1   13   13     59.65      0.00
    3   13   13     22.44      0.00
    5   13   13     -2.82      0.00
    7   13   13    -58.45      0.00
    9   13   13      4.30      0.00
   11   13   13     -4.67      0.00
   13   13   13     14.38      0.00
    0    2   14    -21.58      0.00
    2    2   14     30.28      0.00
    2    4   14    -43.61      0.00
    4    4   14     41.97      0.00
    0    6   14     -3.76      0.00
    2    6   14    -19.17      0.00
    4    6   14     33.71      0.00
    6    6   14    -42.61      0.00
    2    8   14     14.64      0.00
    4    8   14     20.51      0.00
    6    8   14      8.54      0.00
    8    8   14      9.88      0.00
    0   10   14      9.50      0.00
    2   10   14     33.72      0.00
    4   10   14    -75.69      0.00
    6   10   14     -2.52      0.00
    8   10   14    -25.72      0.00
   10   10   14    -20.41      0.00
    2   12   14    -34.43      0.00
    4   12   14      0.54      0.00
    6   12   14     -2.96      0.00
    8   12   14      5.54      0.00
   10   12   14     -0.94      0.00
   12   12   14      3.64      0.00
    0   14   14    -32.39      0.00
    2   14   14     16.43      0.00
    4   14   14     56.42      0.00
    6   14   14    -21.75      0.00
    8   14   14     30.08      0.00
   10   14   14     -3.88      0.00
   12   14   14    -44.41      0.00
   14   14   14      1.09      0.00
    1    1   15     36.77      0.00
    1    3   15    -19.62      0.00
    3    3   15    -11.88      0.00
    1    5   15     44.95      0.00
    3    5   15    -12.89      0.00
    5    5   15    -27.84      0.00
    1    7   15     22.93      0.00
    3    7   15    -10.36      0.00
    5    7   15     10.03      0.00
    7    7   15    -23.68      0.00
    1    9   15    -10.86      0.00
    3    9   15     14.92      0.00
    5    9   15     14.73      0.00
    7    9   15    -12.78      0.00
    9    9   15    -28.58      0.00
    1   11   15      3.39      0.00
    3   11   15      9.39      0.00
    5   11   15    -32.97      0.00
    7   11   15     36.95      0.00
    9   11   15     16.74      0.00
   11   11   15    -24.91      0.00
    1   13   15     27.43      0.00
    3   13   15    -32.43      0.00
    5   13   15      0.04      0.00
    7   13   15     36.33      0.00
    9   13   15    -11.01      0.00
   11   13   15     25.40      0.00
   13   13   15     13.58      0.00
    1   15   15     -0.35      0.00
    3   15   15    -36.33      0.00
    5   15   15     49.28      0.00
    7   15   15    -31.22      0.00
    9   15   15      4.95      0.00
   11   15   15    -11.79      0.00
   13   15   15     24.92      0.00
   15   15   15     27.78      0.00
    0    0   16    -28.84      0.00
    2    2   16      5.54      0.00
    0    4   16      5.13      0.00
    2    4   16      2.77      0.00
    4    4   16    -32.90      0.00
    2    6   16      5.13      0.00
    4    6   16     54.69      0.00
    6    6   16    -29.04      0.00
    0    8   16     78.67      0.00
    2    8   16     -7.88      0.00
    4    8   16    -15.84      0.00
    6    8   16    -18.98      0.00
    8    8   16     21.74      0.00
    2   10   16    -27.57      0.00
    4   10   16    -13.62      0.00
    6   10   16     14.23      0.00
    8   10   16      8.24      0.00
   10   10   16     21.15      0.00
    0   12   16    -76.88      0.00
    2   12   16     19.44      0.00
    4   12   16     28.13      0.00
    6   12   16     15.87      0.00
    8   12   16      4.52      0.00
   10   12   16     -9.01      0.00
   12   12   16     28.30      0.00
    2   14   16    -15.44      0.00
    4   14   16     -2.11      0.00
    6   14   16      6.18      0.00
    8   14   16      8.39      0.00
   10   14   16    -17.22      0.00
   12   14   16     20.41      0.00
   14   14   16     30.93      0.00
    0   16   16     66.62      0.00
    2   16   16     10.82      0.00
    4   16   16     23.30      0.00
    6   16   16      1.73      0.00
    8   16   16    -52.37      0.00
   10   16   16    -17.69      0.00
   12   16   16    -23.59      0.00
   14   16   16     20.40      0.00
   16   16   16    -14.97      0.00
    1    1   17      5.00      0.00
    1    3   17     17.00      0.00
    3    3   17    -42.85      0.00
    1    5   17     19.79      0.00
    3    5   17     10.20      0.00
    5    5   17    -20.66      0.00
    1    7   17    -44.52      0.00
    3    7   17     11.85      0.00
    5    7   17     51.22      0.00
    7    7   17     -8.38      0.00
    1    9   17     28.03      0.00
    3    9   17    -12.78      0.00
    5    9   17    -14.07      0.00
    7    9   17    -37.00      0.00
    9    9   17    -24.08      0.00
    1   11   17     25.00      0.00
    3   11   17     16.68      0.00
    5   11   17     -8.79      0.00
    7   11   17    -27.61      0.00
    9   11   17     15.06      0.00
   11   11   17     -3.10      0.00
    1   13   17    -16.02      0.00
    3   13   17     -3.02      0.00
    5   13   17    -14.57      0.00
    7   13   17      8.44      0.00
    9   13   17     18.44      0.00
   11   13   17      6.68      0.00
   13   13   17    -22.53      0.00
    1   15   17     16.10      0.00
    3   15   17     43.08      0.00
    5   15   17      2.77      0.00
    7   15   17      3.97      0.00
    9   15   17    -21.32      0.00
   11   15   17    -25.22      0.00
   13   15   17    -25.14      0.00
   15   15   17     14.60      0.00
    1   17   17     -7.95      0.00
    3   17   17    -64.05      0.00
    5   17   17     22.99      0.00
    7   17   17     10.09      0.00
    9   17   17     13.94      0.00
   11   17   17    -55.41      0.00
   13   17   17     44.95      0.00
   15   17   17    -51.05      0.00
   17   17   17      0.54      0.00
    0    2   18     17.16      0.00
    2    2   18    -24.69      0.00
    2    4   18      2.98      0.00
    4    4   18     -8.90      0.00
    0    6   18    -21.49      0.00
    2    6   18     12.50      0.00
    4    6   18     -1.78      0.00
    6    6   18    -13.12      0.00
    2    8   18     10.71      0.00
    4    8   18    -27.47      0.00
    6    8   18    -16.34      0.00
    8    8   18      8.53      0.00
    0   10   18     -8.48      0.00
    2   10   18     -9.86      0.00
    4   10   18      7.88      0.00
    6   10   18     -4.00      0.00
    8   10   18      4.43      0.00
   10   10   18    -16.59      0.00
    2   12   18     34.67      0.00
    4   12   18    -15.20      0.00
    6   12   18    -23.76      0.00
    8   12   18     35.40      0.00
   10   12   18      5.43      0.00
   12   12   18      4.22      0.00
    0   14   18     32.52      0.00
    2   14   18     19.62      0.00
    4   14   18    -16.35      0.00
    6   14   18     12.21      0.00
    8   14   18     13.77      0.00
   10   14   18      2.32      0.00
   12   14   18    -20.38      0.00
   14   14   18    -36.47      0.00
    2   16   18    -36.49      0.00
    4   16   18     30.15      0.00
    6   16   18     24.31      0.00
    8   16   18    -12.74      0.00
   10   16   18      0.27      0.00
   12   16   18     -1.82      0.00
   14   16   18    -29.08      0.00
   16   16   18     11.68      0.00
    0   18   18     14.59      0.00
    2   18   18     12.91      0.00
    4   18   18    -24.19      0.00
    6   18   18    -19.36      0.00
    8   18   18    -33.18      0.00
   10   18   18     16.04      0.00
   12   18   18    -38.68      0.00
   14   18   18     -6.83      0.00
   16   18   18     36.37      0.00
   18   18   18     -9.63      0.00
    1    1   19      9.70      0.00
    1    3   19    -14.79      0.00
    3    3   19    -46.53      0.00
    1    5   19      4.67      0.00
    3    5   19     -2.60      0.00
    5    5   19     20.86      0.00
    1    7   19     21.57      0.00
    3    7   19     44.31      0.00
    5    7   19    -16.04      0.00
    7    7   19     -7.33      0.00
    1    9   19    -15.62      0.00
    3    9   19    -20.42      0.00
    5    9   19      1.14      0.00
    7    9   19     -3.66      0.00
    9    9   19      0.80      0.00
    1   11   19     22.99      0.00
    3   11   19    -16.20      0.00
    5   11   19     25.47      0.00
    7   11   19     16.58      0.00
    9   11   19      5.25      0.00
   11   11   19     46.95      0.00
    1   13   19      6.24      0.00
    3   13   19     16.09      0.00
    5   13   19    -27.42      0.00
    7   13   19     17.44      0.00
    9   13   19      4.55      0.00
   11   13   19     -4.68      0.00
   13   13   19    -62.08      0.00
    1   15   19      1.23      0.00
    3   15   19     10.06      0.00
    5   15   19    -16.11      0.00
    7   15   19     27.16      0.00
    9   15   19      8.43      0.00
   11   15   19    -19.08      0.00
   13   15   19     18.43      0.00
   15   15   19     16.51      0.00
    1   17   19     21.90      0.00
    3   17   19      7.50      0.00
    5   17   19     -3.59      0.00
    7   17   19     -1.27      0.00
    9   17   19    -32.28      0.00
   11   17   19      6.81      0.00
   13   17   19     -8.72      0.00
   15   17   19     -0.29      0.00
   17   17   19    -24.57      0.00
    1   19   19      5.41      0.00
    3   19   19     -1.71      0.00
    5   19   19     35.18      0.00
    7   19   19    -10.43      0.00
    9   19   19     40.44      0.00
   11   19   19      0.61      0.00
   13   19   19     19.62      0.00
   15   19   19     29.02      0.00
   17   19   19     46.61      0.00
   19   19   19    -64.86      0.00
    0    0   20     24.59      0.00
    2    2   20     28.38      0.00
    0    4   20    -14.90      0.00
    2    4   20     12.00      0.00
    4    4   20     39.05      0.00
    2    6   20    -13.78      0.00
    4    6   20    -28.02      0.00
    6    6   20     16.41      0.00
    0    8   20    -15.56      0.00
    2    8   20     -4.68      0.00
    4    8   20     12.50      0.00
    6    8   20     -4.92      0.00
    8    8   20     26.47      0.00
    2   10   20     -7.74      0.00
    4   10   20     25.54      0.00
    6   10   20     -1.12      0.00
    8   10   20    -16.10      0.00
   10   10   20     44.52      0.00
    0   12   20     -2.88      0.00
    2   12   20     -2.48      0.00
    4   12   20     16.23      0.00
    6   12   20    -16.54      0.00
    8   12   20     13.90      0.00
   10   12   20      2.53      0.00
   12   12   20    -23.52      0.00
    2   14   20     37.02      0.00
    4   14   20    -23.54      0.00
    6   14   20    -10.89      0.00
    8   14   20    -42.08      0.00
   10   14   20     20.83      0.00
   12   14   20     -7.44      0.00
   14   14   20     -8.17      0.00
    0   16   20     -2.57      0.00
    2   16   20     19.22      0.00
    4   16   20    -19.03      0.00
    6   16   20      6.85      0.00
    8   16   20     -5.20      0.00
   10   16   20     11.48      0.00
   12   16   20      0.32      0.00
   14   16   20     10.08      0.00
   16   16   20    -78.53      0.00
    2   18   20    -14.94      0.00
    4   18   20    -28.13      0.00
    6   18   20      8.67      0.00
    8   18   20     13.26      0.00
   10   18   20     17.47      0.00
   12   18   20     32.11      0.00
   14   18   20    -23.78      0.00
   16   18   20    -16.90      0.00
   18   18   20     35.55      0.00
    0   20   20     23.60      0.00
    2   20   20     12.36      0.00
    4   20   20     31.17      0.00
    6   20   20     80.72      0.00
    8   20   20    -23.85      0.00
   10   20   20      8.98      0.00
   12   20   20     11.52      0.00
   14   20   20     49.99      0.00
   16   20   20     50.57      0.00
   18   20   20    -53.47      0.00
   20   20   20      5.81      0.00
    1    1   21     25.79      0.00
    1    3   21    -14.24      0.00
    3    3   21     18.11      0.00
    1    5   21    -31.38      0.00
    3    5   21    -14.54      0.00
    5    5   21     21.24      0.00
    1    7   21     -4.93      0.00
    3    7   21     53.49      0.00
    5    7   21     -9.72      0.00
    7    7   21    -12.85      0.00
    1    9   21    -24.09      0.00
    3    9   21     -7.28      0.00
    5    9   21    -15.08      0.00
    7    9   21     72.70      0.00
    9    9   21    -15.14      0.00
    1   11   21      3.54      0.00
    3   11   21    -24.15      0.00
    5   11   21      4.22      0.00
    7   11   21     17.05      0.00
    9   11   21     13.36      0.00
   11   11   21    -10.85      0.00
    1   13   21     15.12      0.00
    3   13   21     26.19      0.00
    5   13   21    -17.58      0.00
    7   13   21    -22.40      0.00
    9   13   21    -21.82      0.00
   11   13   21      0.82      0.00
   13   13   21    -46.26      0.00
    1   15   21    -34.21      0.00
    3   15   21    -33.08      0.00
    5   15   21      3.72      0.00
    7   15   21    -17.74      0.00
    9   15   21     12.69      0.00
   11   15   21      1.02      0.00
   13   15   21    -33.56      0.00
   15   15   21     -7.04      0.00
    1   17   21     -4.32      0.00
    3   17   21     -1.10      0.00
    5   17   21    -10.09      0.00
    7   17   21    -35.43      0.00
    9   17   21     -7.31      0.00
   11   17   21     22.23      0.00
   13   17   21    -16.57      0.00
   15   17   21    -62.32      0.00
   17   17   21     44.60      0.00
    1   19   21     26.47      0.00
    3   19   21     -7.71      0.00
    5   19   21      3.90      0.00
    7   19   21     -5.55      0.00
    9   19   21     -1.52      0.00
   11   19   21    -17.64      0.00
   13   19   21    -11.73      0.00
   15   19   21     64.14      0.00
   17   19   21    -17.66      0.00
   19   19   21     18.70      0.00
    1   21   21    -28.41      0.00
    3   21   21     -3.53      0.00
    5   21   21    -17.62      0.00
    7   21   21     38.39      0.00
    9   21   21     12.24      0.00
   11   21   21     54.16      0.00
   13   21   21     60.27      0.00
   15   21   21     32.67      0.00
   17   21   21     -8.37      0.00
   19   21   21    -28.40      0.00
   21   21   21    -33.63      0.00
    0    2   22     26.81      0.00
    2    2   22     15.82      0.00
    2    4   22    -38.41      0.00
    4    4   22    -11.73      0.00
    0    6   22    -40.49      0.00
    2    6   22      9.74      0.00
    4    6   22     49.34      0.00
    6    6   22     -7.22      0.00
    2    8   22     -7.31      0.00
    4    8   22      5.70      0.00
    6    8   22     21.62      0.00
    8    8   22     28.13      0.00
    0   10   22    -10.89      0.00
    2   10   22      3.19      0.00
    4   10   22     -5.80      0.00
    6   10   22     26.59      0.00
    8   10   22     -6.57      0.00
   10   10   22     -7.14      0.00
    2   12   22     11.28      0.00
    4   12   22     34.27      0.00
    6   12   22      1.78      0.00
    8   12   22    -22.53      0.00
   10   12   22      1.44      0.00
   12   12   22      1.59      0.00
    0   14   22      1.36      0.00
    2   14   22     26.41      0.00
    4   14   22    -31.60      0.00
    6   14   22    -37.95      0.00
    8   14   22      1.11      0.00
   10   14   22     18.73      0.00
   12   14   22    -49.39      0.00
   14   14   22    -25.99      0.00
    2   16   22    -22.37      0.00
    4   16   22     -9.73      0.00
    6   16   22      5.84      0.00
    8   16   22      8.26      0.00
   10   16   22    -36.22      0.00
   12   16   22    -12.00      0.00
   14   16   22     12.75      0.00
   16   16   22    -24.17      0.00
    0   18   22     -8.53      0.00
    2   18   22    -21.48      0.00
    4   18   22      3.32      0.00
    6   18   22      6.12      0.00
    8   18   22    -64.32      0.00
   10   18   22    -15.57      0.00
   12   18   22    -14.83      0.00
   14   18   22      5.52      0.00
   16   18   22     50.12      0.00
   18   18   22      3.89      0.00
    2   20   22    -14.13      0.00
    4   20   22      8.71      0.00
    6   20   22    -19.57      0.00
    8   20   22    -16.48      0.00
   10   20   22     -5.86      0.00
   12   20   22     64.13      0.00
   14   20   22     11.79      0.00
   16   20   22     37.35      0.00
   18   20   22     57.97      0.00
   20   20   22   -101.42      0.00
    0   22   22    -25.22      0.00
    2   22   22     33.38      0.00
    4   22   22    -96.72      0.00
    6   22   22    -13.39      0.00
    8   22   22    -46.85      0.00
   10   22   22     13.46      0.00
   12   22   22    -82.15      0.00
   14   22   22     15.08      0.00
   16   22   22    -51.64      0.00
   18   22   22     20.75      0.00
   20   22   22     26.02      0.00
   22   22   22    -75.69      0.00
    1    1   23     31.73      0.00
    1    3   23      6.01      0.00
    3    3   23     -5.49      0.00
    1    5   23    -19.91      0.00
    3    5   23     13.66      0.00
    5    5   23    -26.30      0.00
    1    7   23    -10.79      0.00
    3    7   23      8.26      0.00
    5    7   23     -7.73      0.00
    7    7   23      1.25      0.00
    1    9   23     43.58      0.00
    3    9   23      6.79      0.00
    5    9   23     17.90      0.00
    7    9   23     11.30      0.00
    9    9   23    -39.04      0.00
    1   11   23    -39.41      0.00
    3   11   23     -9.23      0.00
    5   11   23     25.73      0.00
    7   11   23     17.92      0.00
    9   11   23      4.32      0.00
   11   11   23     45.78      0.00
    1   13   23     34.00      0.00
    3   13   23     14.44      0.00
    5   13   23    -37.55      0.00
    7   13   23      2.35      0.00
    9   13   23     19.24      0.00
   11   13   23     -5.46      0.00
   13   13   23    -39.11      0.00
    1   15   23     14.04      0.00
    3   15   23     -3.37      0.00
    5   15   23      1.52      0.00
    7   15   23      4.38      0.00
    9   15   23     -9.06      0.00
   11   15   23    -19.58      0.00
   13   15   23     18.42      0.00
   15   15   23     45.06      0.00
    1   17   23      0.64      0.00
    3   17   23     -0.58      0.00
    5   17   23      6.07      0.00
    7   17   23     -9.59      0.00
    9   17   23    -23.96      0.00
   11   17   23     43.45      0.00
   13   17   23     36.82      0.00
   15   17   23      0.80      0.00
   17   17   23     30.97      0.00
    1   19   23    -19.48      0.00
    3   19   23    -10.83      0.00
    5   19   23    -33.62      0.00
    7   19   23      4.26      0.00
    9   19   23    -16.80      0.00
   11   19   23      3.13      0.00
   13   19   23     -2.61      0.00
   15   19   23      6.29      0.00
   17   19   23      2.28      0.00
   19   19   23     37.06      0.00
    1   21   23    -15.53      0.00
    3   21   23    -38.24      0.00
    5   21   23      6.45      0.00
    7   21   23    -18.70      0.00
    9   21   23     -1.53      0.00
   11   21   23     10.51      0.00
   13   21   23    -36.73      0.00
   15   21   23     42.47      0.00
   17   21   23      5.59      0.00
   19   21   23     11.62      0.00
   21   21   23     19.72      0.00
    1   23   23      2.35      0.00
    3   23   23    -45.96      0.00
    5   23   23    -12.78      0.00
    7   23   23      0.52      0.00
    9   23   23      3.37      0.00
   11   23   23    -35.32      0.00
   13   23   23     -3.78      0.00
   15   23   23    -20.39      0.00
   17   23   23     28.78      0.00
   19   23   23    -65.22      0.00
   21   23   23    -27.89      0.00
   23   23   23    -44.65      0.00
    0    0   24    -12.26      0.00
    2    2   24    -13.77      0.00
    0    4   24     -0.59      0.00
    2    4   24     -4.72      0.00
    4    4   24    -49.01      0.00
    2    6   24    -23.02      0.00
    4    6   24     18.06      0.00
    6    6   24    -12.08      0.00
    0    8   24      8.86      0.00
    2    8   24     56.53      0.00
    4    8   24     10.28      0.00
    6    8   24      5.41      0.00
    8    8   24    -15.63      0.00
    2   10   24     -8.43      0.00
    4   10   24     -1.22      0.00
    6   10   24     40.03      0.00
    8   10   24     23.37      0.00
   10   10   24      1.92      0.00
    0   12   24     -3.47      0.00
    2   12   24     17.85      0.00
    4   12   24    -21.03      0.00
    6   12   24      6.53      0.00
    8   12   24     10.44      0.00
   10   12   24      2.62      0.00
   12   12   24      6.48      0.00
    2   14   24    -53.37      0.00
    4   14   24    -16.62      0.00
    6   14   24     29.66      0.00
    8   14   24     17.01      0.00
   10   14   24     10.47      0.00
   12   14   24      7.21      0.00
   14   14   24     -8.65      0.00
    0   16   24    -15.98      0.00
    2   16   24    -12.14      0.00
    4   16   24      3.17      0.00
    6   16   24     20.16      0.00
    8   16   24     17.21      0.00
   10   16   24     11.44      0.00
   12   16   24     26.25      0.00
   14   16   24     -5.06      0.00
   16   16   24    -13.73      0.00
    2   18   24     20.75      0.00
    4   18   24      9.09      0.00
    6   18   24     -5.99      0.00
    8   18   24    -21.87      0.00
   10   18   24     -7.96      0.00
   12   18   24      4.53      0.00
   14   18   24    -30.25      0.00
   16   18   24    -12.80      0.00
   18   18   24     23.08      0.00
    0   20   24     19.95      0.00
    2   20   24     38.49      0.00
    4   20   24    -11.67      0.00
    6   20   24     21.57      0.00
    8   20   24     23.12      0.00
   10   20   24     33.25      0.00
   12   20   24    -46.97      0.00
   14   20   24     27.33      0.00
   16   20   24     -2.81      0.00
   18   20   24     44.06      0.00
   20   20   24     35.46      0.00
    2   22   24    -35.31      0.00
    4   22   24     10.75      0.00
    6   22   24     21.96      0.00
    8   22   24     30.44      0.00
   10   22   24    -36.44      0.00
   12   22   24     23.57      0.00
   14   22   24      1.77      0.00
   16   22   24    -17.93      0.00
   18   22   24    -29.39      0.00
   20   22   24    -80.12      0.00
   22   22   24     23.00      0.00
    0   24   24     38.43      0.00
    2   24   24    -15.15      0.00
    4   24   24    -38.06      0.00
    6   24   24     39.86      0.00
    8   24   24    -49.88      0.00
   10   24   24     40.04      0.00
   12   24   24     39.16      0.00
   14   24   24     38.86      0.00
   16   24   24    -10.48      0.00
   18   24   24    -79.54      0.00
   20   24   24     70.48      0.00
   22   24   24     13.78      0.00
   24   24   24    -94.25      0.00
    1    1   25     31.39      0.00
    1    3   25     17.37      0.00
    3    3   25    -40.50      0.00
    1    5   25     -1.20      0.00
    3    5   25      0.18      0.00
    5    5   25      9.43      0.00
    1    7   25    -29.98      0.00
    3    7   25     23.64      0.00
    5    7   25      6.45      0.00
    7    7   25     -7.86      0.00
    1    9   25     20.20      0.00
    3    9   25    -23.69      0.00
    5    9   25      6.84      0.00
    7    9   25     28.25      0.00
    9    9   25    -32.56      0.00
    1   11   25    -22.44      0.00
    3   11   25     -0.78      0.00
    5   11   25     38.81      0.00
    7   11   25     40.42      0.00
    9   11   25    -14.86      0.00
   11   11   25    -22.58      0.00
    1   13   25     20.94      0.00
    3   13   25     10.05      0.00
    5   13   25     -8.36      0.00
    7   13   25     -2.02      0.00
    9   13   25    -13.03      0.00
   11   13   25     43.90      0.00
   13   13   25    -19.17      0.00
    1   15   25     16.42      0.00
    3   15   25     -5.77      0.00
    5   15   25    -26.10      0.00
    7   15   25      9.49      0.00
    9   15   25     -3.19      0.00
   11   15   25     21.56      0.00
   13   15   25    -25.33      0.00
   15   15   25    -33.04      0.00
    1   17   25    -17.67      0.00
    3   17   25    -21.96      0.00
    5   17   25    -20.17      0.00
    7   17   25      4.08      0.00
    9   17   25     -6.59      0.00
   11   17   25    -12.79      0.00
   13   17   25    -15.26      0.00
   15   17   25     24.00      0.00
   17   17   25     -7.77      0.00
    1   19   25     85.62      0.00
    3   19   25      9.77      0.00
    5   19   25     33.73      0.00
    7   19   25    -14.09      0.00
    9   19   25      3.02      0.00
   11   19   25    -11.36      0.00
   13   19   25    -58.60      0.00
   15   19   25    -76.53      0.00
   17   19   25     13.34      0.00
   19   19   25      9.77      0.00
    1   21   25     30.12      0.00
    3   21   25      8.14      0.00
    5   21   25     16.74      0.00
    7   21   25      9.17      0.00
    9   21   25    -44.92      0.00
   11   21   25    -14.92      0.00
   13   21   25      1.68      0.00
   15   21   25     -1.92      0.00
   17   21   25    -33.74      0.00
   19   21   25     11.81      0.00
   21   21   25    -20.25      0.00
    1   23   25     19.05      0.00
    3   23   25     18.08      0.00
    5   23   25     16.19      0.00
    7   23   25     -0.42      0.00
    9   23   25    -14.46      0.00
   11   23   25     -2.32      0.00
   13   23   25    -19.60      0.00
   15   23   25     18.33      0.00
   17   23   25    -24.90      0.00
   19   23   25    -18.54      0.00
   21   23   25     39.10      0.00
   23   23   25     11.10      0.00
    1   25   25     -3.59      0.00
    3   25   25      0.17      0.00
    5   25   25     42.98      0.00
    7   25   25     23.66      0.00
    9   25   25     41.96      0.00
   11   25   25     -5.04      0.00
   13   25   25     38.22      0.00
   15   25   25     35.35      0.00
   17   25   25     46.88      0.00
   19   25   25     43.38      0.00
   21   25   25      7.23      0.00
   23   25   25    -29.89      0.00
    0    2   26    -30.65      0.00
    2    2   26     20.97      0.00
    2    4   26      7.96      0.00
    4    4   26     35.51      0.00
    0    6   26    -18.46      0.00
    2    6   26    -42.85      0.00
    4    6   26    -22.00      0.00
    6    6   26     54.74      0.00
    2    8   26     -7.39      0.00
    4    8   26     -4.97      0.00
    6    8   26      1.47      0.00
    8    8   26      3.18      0.00
    0   10   26      8.59      0.00
    2   10   26     -3.36      0.00
    4   10   26    -30.07      0.00
    6   10   26     47.81      0.00
    8   10   26    -22.35      0.00
   10   10   26     54.81      0.00
    2   12   26     -2.80      0.00
    4   12   26     12.11      0.00
    6   12   26    -13.31      0.00
    8   12   26    -11.91      0.00
   10   12   26     16.34      0.00
   12   12   26     19.68      0.00
    0   14   26      7.50      0.00
    2   14   26     11.04      0.00
    4   14   26    -22.37      0.00
    6   14   26     16.49      0.00
    8   14   26     27.57      0.00
   10   14   26    -18.02      0.00
   12   14   26    -43.12      0.00
   14   14   26     35.36      0.00
    2   16   26     11.20      0.00
    4   16   26    -18.47      0.00
    6   16   26    -18.63      0.00
    8   16   26    -41.84      0.00
   10   16   26    -25.50      0.00
   12   16   26     13.40      0.00
   14   16   26     47.78      0.00
   16   16   26     16.62      0.00
    0   18   26     14.62      0.00
    2   18   26     42.22      0.00
    4   18   26    -12.71      0.00
    6   18   26    -28.78      0.00
    8   18   26     -8.69      0.00
   10   18   26      6.90      0.00
   12   18   26     -9.91      0.00
   14   18   26    -25.02      0.00
   16   18   26    -45.85      0.00
   18   18   26     10.33      0.00
    2   20   26    -55.56      0.00
    4   20   26     12.40      0.00
    6   20   26    -52.96      0.00
    8   20   26      1.03      0.00
   10   20   26    -24.84      0.00
   12   20   26    -72.40      0.00
   14   20   26    -10.75      0.00
   16   20   26     -3.00      0.00
   18   20   26    -58.11      0.00
   20   20   26      6.64      0.00
    0   22   26     41.70      0.00
    2   22   26    -19.03      0.00
    4   22   26     17.89      0.00
    6   22   26     25.29      0.00
    8   22   26    -72.93      0.00
   10   22   26     15.81      0.00
   12   22   26    -67.44      0.00
   14   22   26     12.30      0.00
   16   22   26    -18.19      0.00
   18   22   26     23.91      0.00
   20   22   26     66.73      0.00
   22   22   26     24.09      0.00
    2   24   26     20.00      0.00
    4   24   26      9.62      0.00
    6   24   26      3.58      0.00
    8   24   26      5.01      0.00
   10   24   26     11.78      0.00
   12   24   26     13.56      0.00
   14   24   26    -80.14      0.00
   16   24   26     36.21      0.00
   18   24   26      0.29      0.00
   20   24   26     45.75      0.00
   22   24   26    -11.71      0.00
    0   26   26    -65.70      0.00
    2   26   26    -23.22      0.00
    4   26   26     29.05      0.00
    6   26   26     73.18      0.00
    8   26   26     -8.80      0.00
   10   26   26    -39.37      0.00
   12   26   26     44.12      0.00
   14   26   26     31.95      0.00
   16   26   26     46.37      0.00
   18   26   26     -7.64      0.00
   20   26   26     32.06      0.00
    1    1   27    -27.65      0.00
    1    3   27     27.73      0.00
    3    3   27    -27.77      0.00
    1    5   27      1.19      0.00
    3    5   27      8.24      0.00
    5    5   27     -5.14      0.00
    1    7   27    -42.23      0.00
    3    7   27      5.54      0.00
    5    7   27     -3.37      0.00
    7    7   27     35.29      0.00
    1    9   27    -20.79      0.00
    3    9   27     19.61      0.00
    5    9   27    -14.76      0.00
    7    9   27     -6.43      0.00
    9    9   27     28.05      0.00
    1   11   27      6.27      0.00
    3   11   27     -8.72      0.00
    5   11   27     23.32      0.00
    7   11   27     12.45      0.00
    9   11   27     -9.48      0.00
   11   11   27    -16.09      0.00
    1   13   27     -3.06      0.00
    3   13   27     -8.53      0.00
    5   13   27     -4.52      0.00
    7   13   27     29.43      0.00
    9   13   27    -25.08      0.00
   11   13   27      0.78      0.00
   13   13   27     22.72      0.00
    1   15   27      9.06      0.00
    3   15   27     -1.29      0.00
    5   15   27      7.01      0.00
    7   15   27    -25.13      0.00
    9   15   27    -33.65      0.00
   11   15   27     12.49      0.00
   13   15   27     22.71      0.00
   15   15   27     10.05      0.00
    1   17   27    -41.59      0.00
    3   17   27     18.34      0.00
    5   17   27     16.87      0.00
    7   17   27      4.94      0.00
    9   17   27     17.93      0.00
   11   17   27     10.74      0.00
   13   17   27      0.47      0.00
   15   17   27    -20.69      0.00
   17   17   27     24.35      0.00
    1   19   27      6.56      0.00
    3   19   27    -25.73      0.00
    5   19   27    -10.48      0.00
    7   19   27     11.04      0.00
    9   19   27      8.57      0.00
   11   19   27    -26.03      0.00
   13   19   27    -28.48      0.00
   15   19   27     -5.18      0.00
   17   19   27     -4.23      0.00
   19   19   27    -17.61      0.00
    1   21   27    -53.81      0.00
    3   21   27    -27.60      0.00
    5   21   27    -52.30      0.00
    7   21   27     20.74      0.00
    9   21   27     13.82      0.00
   11   21   27    -80.53      0.00
   13   21   27     21.59      0.00
   15   21   27     40.91      0.00
   17   21   27     18.89      0.00
   19   21   27     -2.29      0.00
   21   21   27     -4.99      0.00
    1   23   27      7.37      0.00
    3   23   27     20.67      0.00
    5   23   27     13.01      0.00
    7   23   27     -0.27      0.00
    9   23   27     13.06      0.00
   11   23   27    -24.27      0.00
   13   23   27      5.02      0.00
   15   23   27     -4.52      0.00
   17   23   27    -80.00      0.00
   19   23   27    -54.11      0.00
   21   23   27    -90.94      0.00
   23   23   27    140.85      0.00
    1   25   27     11.37      0.00
    3   25   27    -27.86      0.00
    5   25   27     56.61      0.00
    7   25   27    -55.88      0.00
    9   25   27      6.19      0.00
   11   25   27     54.26      0.00
   13   25   27    -38.24      0.00
   15   25   27    102.70      0.00
   17   25   27     14.34      0.00
   19   25   27     39.95      0.00
   21   25   27      0.59      0.00
    1   27   27     -6.21      0.00
    3   27   27    -42.83      0.00
    5   27   27     -4.95      0.00
    7   27   27    -28.76      0.00
    9   27   27     28.10      0.00
   11   27   27     31.08      0.00
   13   27   27    -40.73      0.00
   15   27   27     11.66      0.00
   17   27   27     63.48      0.00
    0    0   28    -35.27      0.00
    2    2   28      1.69      0.00
    0    4   28     17.21      0.00
    2    4   28     -1.00      0.00
    4    4   28     -0.56      0.00
    2    6   28    -25.41      0.00
    4    6   28     -3.22      0.00
    6    6   28     48.09      0.00
    0    8   28    -14.17      0.00
    2    8   28     55.99      0.00
    4    8   28    -15.13      0.00
    6    8   28    -15.85      0.00
    8    8   28    -57.72      0.00
    2   10   28    -20.61      0.00
    4   10   28    -33.33      0.00
    6   10   28     -9.58      0.00
    8   10   28     39.49      0.00
   10   10   28    -17.66      0.00
    0   12   28    -36.65      0.00
    2   12   28      7.82      0.00
    4   12   28     12.14      0.00
    6   12   28     58.65      0.00
    8   12   28    -19.57      0.00
   10   12   28    -27.64      0.00
   12   12   28      7.78      0.00
    2   14   28     26.87      0.00
    4   14   28      4.32      0.00
    6   14   28    -44.69      0.00
    8   14   28    -20.55      0.00
   10   14   28     20.01      0.00
   12   14   28      7.54      0.00
   14   14   28    -20.38      0.00
    0   16   28     11.33      0.00
    2   16   28      8.39      0.00
    4   16   28     18.39      0.00
    6   16   28    -25.99      0.00
    8   16   28     21.26      0.00
   10   16   28     24.07      0.00
   12   16   28     -5.85      0.00
   14   16   28     -4.59      0.00
   16   16   28     -5.32      0.00
    2   18   28     40.48      0.00
    4   18   28     21.72      0.00
    6   18   28     -0.28      0.00
    8   18   28     31.10      0.00
   10   18   28     13.86      0.00
   12   18   28    -51.81      0.00
   14   18   28     21.44      0.00
   16   18   28     19.93      0.00
   18   18   28     46.21      0.00
    0   20   28    -21.61      0.00
    2   20   28     -9.07      0.00
    4   20   28    -23.37      0.00
    6   20   28    -34.37      0.00
    8   20   28      7.05      0.00
   10   20   28     19.96      0.00
   12   20   28    -13.64      0.00
   14   20   28     28.18      0.00
   16   20   28      1.10      0.00
   18   20   28    -49.52      0.00
   20   20   28    -43.84      0.00
    2   22   28    -60.22      0.00
    4   22   28      6.65      0.00
    6   22   28     36.76      0.00
    8   22   28      2.20      0.00
   10   22   28     19.23      0.00
   12   22   28     55.60      0.00
   14   22   28     51.53      0.00
   16   22   28      0.28      0.00
   18   22   28    -45.67      0.00
   20   22   28    -34.14      0.00
   22   22   28    -20.34      0.00
    0   24   28     18.77      0.00
    2   24   28     -8.27      0.00
    4   24   28    -18.75      0.00
    6   24   28     14.13      0.00
    8   24   28     -9.47      0.00
   10   24   28     21.53      0.00
   12   24   28    -32.19      0.00
   14   24   28     47.52      0.00
   16   24   28     18.70      0.00
   18   24   28     39.89      0.00
   20   24   28    -70.88      0.00
    2   26   28    -21.40      0.00
    4   26   28     30.93      0.00
    6   26   28     -6.06      0.00
    8   26   28     36.32      0.00
   10   26   28    -37.44      0.00
   12   26   28     35.45      0.00
   14   26   28     24.24      0.00
   16   26   28     73.31      0.00
   18   26   28     12.01      0.00
    0   28   28     32.43      0.00
    2   28   28     -2.15      0.00
    4   28   28     19.36      0.00
    6   28   28      2.24      0.00
    8   28   28    -21.59      0.00
   10   28   28    -19.88      0.00
   12   28   28    -11.09      0.00
   14   28   28    -33.39      0.00
    1    1   29     17.33      0.00
    1    3   29    -16.55      0.00
    3    3   29     45.87      0.00
    1    5   29    -14.38      0.00
    3    5   29    -35.91      0.00
    5    5   29      5.09      0.00
    1    7   29      3.77      0.00
    3    7   29     11.18      0.00
    5    7   29      3.27      0.00
    7    7   29     -1.36      0.00
    1    9   29    -33.82      0.00
    3    9   29    -19.97      0.00
    5    9   29     17.22      0.00
    7    9   29     48.87      0.00
    9    9   29     -9.03      0.00
    1   11   29     20.77      0.00
    3   11   29     19.90      0.00
    5   11   29    -30.23      0.00
    7   11   29     27.33      0.00
    9   11   29     -6.64      0.00
   11   11   29     -3.48      0.00
    1   13   29    -27.45      0.00
    3   13   29    -42.72      0.00
    5   13   29    -57.72      0.00
    7   13   29    -44.45      0.00
    9   13   29     29.02      0.00
   11   13   29     35.85      0.00
   13   13   29    -54.67      0.00
    1   15   29     22.11      0.00
    3   15   29     14.62      0.00
    5   15   29    -63.23      0.00
    7   15   29     -2.38      0.00
    9   15   29      8.03      0.00
   11   15   29     17.98      0.00
   13   15   29    -15.33      0.00
   15   15   29    -13.49      0.00
    1   17   29    -15.00      0.00
    3   17   29     22.11      0.00
    5   17   29      8.36      0.00
    7   17   29     -5.81      0.00
    9   17   29     -9.76      0.00
   11   17   29    -29.83      0.00
   13   17   29     -6.92      0.00
   15   17   29     -9.24      0.00
   17   17   29     27.89      0.00
    1   19   29     46.43      0.00
    3   19   29     28.20      0.00
    5   19   29    -10.16      0.00
    7   19   29    -37.53      0.00
    9   19   29     27.01      0.00
   11   19   29    -20.01      0.00
   13   19   29     30.73      0.00
   15   19   29     21.96      0.00
   17   19   29     33.82      0.00
   19   19   29   -107.12      0.00
    1   21   29     12.89      0.00
    3   21   29    -43.72      0.00
    5   21   29    -32.46      0.00
    7   21   29      6.38      0.00
    9   21   29     23.21      0.00
   11   21   29     21.73      0.00
   13   21   29     -5.14      0.00
   15   21   29     55.31      0.00
   17   21   29     -2.92      0.00
   19   21   29     14.39      0.00
   21   21   29     45.00      0.00
    1   23   29     -4.58      0.00
    3   23   29     15.23      0.00
    5   23   29    -31.91      0.00
    7   23   29    -67.52      0.00
    9   23   29     45.96      0.00
   11   23   29     -7.45      0.00
   13   23   29      2.28      0.00
   15   23   29      3.30      0.00
   17   23   29    -43.64      0.00
   19   23   29    -28.63      0.00
    1   25   29     -0.51      0.00
    3   25   29      2.75      0.00
    5   25   29     63.37      0.00
    7   25   29     -0.05      0.00
    9   25   29     17.76      0.00
   11   25   29     -2.14      0.00
   13   25   29     -9.09      0.00
   15   25   29     12.00      0.00
   17   25   29     50.00      0.00
    1   27   29     -6.13      0.00
    3   27   29     -8.96      0.00
    5   27   29     16.53      0.00
    7   27   29      2.29      0.00
    9   27   29    -26.17      0.00
   11   27   29     -2.99      0.00
   13   27   29    -47.27      0.00
   15   27   29     54.47      0.00
    1   29   29    -10.27      0.00
    3   29   29    -20.65      0.00
    5   29   29     -6.92      0.00
    7   29   29      8.35      0.00
    9   29   29      5.44      0.00
    0    2   30     -0.37      0.00
    2    2   30     -2.39      0.00
    2    4   30     -2.00      0.00
    4    4   30    -36.47      0.00
    0    6   30    -29.53      0.00
    2    6   30     46.05      0.00
    4    6   30      2.23      0.00
    6    6   30     -5.41      0.00
    2    8   30     -3.52      0.00
    4    8   30      6.08      0.00
    6    8   30     73.22      0.00
    8    8   30     57.71      0.00
    0   10   30    -29.60      0.00
    2   10   30     16.06      0.00
    4   10   30    -42.33      0.00
    6   10   30     43.01      0.00
    8   10   30    -17.29      0.00
   10   10   30     -7.61      0.00
    2   12   30    -17.20      0.00
    4   12   30    -45.77      0.00
    6   12   30      9.47      0.00
    8   12   30    -19.08      0.00
   10   12   30      4.10      0.00
   12   12   30    -34.33      0.00
    0   14   30    -25.69      0.00
    2   14   30     44.27      0.00
    4   14   30     -3.83      0.00
    6   14   30    -61.68      0.00
    8   14   30    -15.64      0.00
   10   14   30      5.91      0.00
   12   14   30     -1.02      0.00
   14   14   30     13.17      0.00
    2   16   30    -26.90      0.00
    4   16   30    -19.54      0.00
    6   16   30    -41.06      0.00
    8   16   30    -32.21      0.00
   10   16   30      6.59      0.00
   12   16   30    -14.60      0.00
   14   16   30    -20.59      0.00
   16   16   30      4.88      0.00
    0   18   30     25.08      0.00
    2   18   30     44.08      0.00
    4   18   30     19.73      0.00
    6   18   30    -42.05      0.00
    8   18   30     27.39      0.00
   10   18   30     -3.75      0.00
   12   18   30     -7.16      0.00
   14   18   30     19.73      0.00
   16   18   30     26.54      0.00
   18   18   30     -2.22      0.00
    2   20   30    -44.02      0.00
    4   20   30    -25.89      0.00
    6   20   30    -38.84      0.00
    8   20   30     55.70      0.00
   10   20   30    -22.97      0.00
   12   20   30    -19.41      0.00
   14   20   30      5.83      0.00
   16   20   30    -10.60      0.00
   18   20   30      9.28      0.00
   20   20   30      6.16      0.00
    0   22   30      5.20      0.00
    2   22   30    -35.73      0.00
    4   22   30     18.07      0.00
    6   22   30    -27.92      0.00
    8   22   30     11.54      0.00
   10   22   30    -22.86      0.00
   12   22   30    -72.37      0.00
   14   22   30     70.05      0.00
   16   22   30    -10.10      0.00
   18   22   30     12.45      0.00
   20   22   30    -41.91      0.00
    2   24   30     62.60      0.00
    4   24   30     41.64      0.00
    6   24   30     14.58      0.00
    8   24   30    -10.87      0.00
   10   24   30    -38.15      0.00
   12   24   30    -26.88      0.00
   14   24   30    -17.41      0.00
   16   24   30     -6.43      0.00
    0   26   30     44.89      0.00
    2   26   30     -9.61      0.00
    4   26   30     -0.54      0.00
    6   26   30    -64.36      0.00
    8   26   30    -44.91      0.00
   10   26   30     29.10      0.00
   12   26   30     -6.61      0.00
   14   26   30     21.79      0.00
    2   28   30    -60.45      0.00
    4   28   30     27.51      0.00
    6   28   30    -18.65      0.00
    8   28   30     30.73      0.00
   10   28   30     30.96      0.00
    1    1   31     35.69      0.00
    1    3   31     -1.40      0.00
    3    3   31    -38.77      0.00
    1    5   31    -30.87      0.00
    3    5   31     33.43      0.00
    5    5   31    -13.91      0.00
    1    7   31      5.81      0.00
    3    7   31    -36.22      0.00
    5    7   31     67.78      0.00
    7    7   31     -6.87      0.00
    1    9   31     20.86      0.00
    3    9   31     -7.86      0.00
    5    9   31     11.31      0.00
    7    9   31    -30.40      0.00
    9    9   31      9.46      0.00
    1   11   31     36.71      0.00
    3   11   31    -21.12      0.00
    5   11   31     18.62      0.00
    7   11   31     -0.38      0.00
    9   11   31    -37.14      0.00
   11   11   31     32.37      0.00
    1   13   31     17.92      0.00
    3   13   31     47.50      0.00
    5   13   31     19.12      0.00
    7   13   31    -10.42      0.00
    9   13   31    -29.51      0.00
   11   13   31    -31.79      0.00
   13   13   31     -4.37      0.00
    1   15   31    -11.47      0.00
    3   15   31      6.35      0.00
    5   15   31    -78.90      0.00
    7   15   31     -0.73      0.00
    9   15   31     38.38      0.00
   11   15   31      4.79      0.00
   13   15   31     -7.70      0.00
   15   15   31     22.87      0.00
    1   17   31    -12.10      0.00
    3   17   31     30.18      0.00
    5   17   31    -45.49      0.00
    7   17   31     20.65      0.00
    9   17   31    -13.91      0.00
   11   17   31     24.82      0.00
   13   17   31    -19.57      0.00
   15   17   31     55.94      0.00
   17   17   31      3.33      0.00
    1   19   31     12.19      0.00
    3   19   31      3.22      0.00
    5   19   31     22.23      0.00
    7   19   31     14.19      0.00
    9   19   31    -81.66      0.00
   11   19   31     22.44      0.00
   13   19   31    -18.20      0.00
   15   19   31    -24.77      0.00
   17   19   31      1.36      0.00
   19   19   31    -53.06      0.00
    1   21   31    -11.07      0.00
    3   21   31    -17.67      0.00
    5   21   31    -33.80      0.00
    7   21   31     24.84      0.00
    9   21   31     -1.76      0.00
   11   21   31     22.90      0.00
   13   21   31     37.40      0.00
   15   21   31     23.80      0.00
   17   21   31    -14.92      0.00
   19   21   31    -16.07      0.00
    1   23   31    -14.96      0.00
    3   23   31     38.95      0.00
    5   23   31    -11.62      0.00
    7   23   31     32.54      0.00
    9   23   31    -57.38      0.00
   11   23   31     26.58      0.00
   13   23   31     35.53      0.00
   15   23   31    -47.62      0.00
   17   23   31     32.59      0.00
    1   25   31     -7.33      0.00
    3   25   31    -15.80      0.00
    5   25   31     -9.06      0.00
    7   25   31    -40.18      0.00
    9   25   31     -2.09      0.00
   11   25   31    -51.76      0.00
   13   25   31     28.69      0.00
    1   27   31    -12.12      0.00
    3   27   31     16.60      0.00
    5   27   31     30.14      0.00
    7   27   31      0.23      0.00
    9   27   31     11.11      0.00
    0    0   32     12.35      0.00
    2    2   32     38.09      0.00
    0    4   32    -13.17      0.00
    2    4   32    -18.29      0.00
    4    4   32    -13.54      0.00
    2    6   32     -1.66      0.00
    4    6   32    -72.77      0.00
    6    6   32     -0.19      0.00
    0    8   32    -12.90      0.00
    2    8   32    -10.77      0.00
    4    8   32      6.91      0.00
    6    8   32     17.76      0.00
    8    8   32     12.74      0.00
    2   10   32     -1.82      0.00
    4   10   32     -3.16      0.00
    6   10   32     19.40      0.00
    8   10   32    -18.98      0.00
   10   10   32    -41.16      0.00
    0   12   32     32.76      0.00
    2   12   32      7.97      0.00
    4   12   32     35.79      0.00
    6   12   32     25.72      0.00
    8   12   32    -32.32      0.00
   10   12   32     56.85      0.00
   12   12   32    -84.14      0.00
    2   14   32      9.35      0.00
    4   14   32    -18.59      0.00
    6   14   32     55.53      0.00
    8   14   32    -13.67      0.00
   10   14   32     88.34      0.00
   12   14   32      0.89      0.00
   14   14   32     16.95      0.00
    0   16   32     42.67      0.00
    2   16   32     -1.01      0.00
    4   16   32    -77.55      0.00
    6   16   32     -9.38      0.00
    8   16   32     -3.37      0.00
   10   16   32    -31.76      0.00
   12   16   32     30.40      0.00
   14   16   32      4.21      0.00
   16   16   32     62.07      0.00
    2   18   32    -19.11      0.00
    4   18   32    -46.00      0.00
    6   18   32     45.96      0.00
    8   18   32    -69.57      0.00
   10   18   32    -30.19      0.00
   12   18   32    -37.98      0.00
   14   18   32    -26.64      0.00
   16   18   32    -32.87      0.00
   18   18   32     15.21      0.00
    0   20   32    -21.20      0.00
    2   20   32    -78.91      0.00
    4   20   32     49.99      0.00
    6   20   32      7.98      0.00
    8   20   32    -19.38      0.00
   10   20   32     96.16      0.00
   12   20   32      2.27      0.00
   14   20   32     55.98      0.00
   16   20   32     57.01      0.00
   18   20   32    -50.74      0.00
    2   22   32     26.18      0.00
    4   22   32     16.35      0.00
    6   22   32    -24.34      0.00
    8   22   32      6.47      0.00
   10   22   32     51.34      0.00
   12   22   32     -1.09      0.00
   14   22   32     -5.01      0.00
   16   22   32    -20.82      0.00
    0   24   32    -19.77      0.00
    2   24   32    -26.73      0.00
    4   24   32    -40.62      0.00
    6   24   32    -51.27      0.00
    8   24   32    -43.23      0.00
   10   24   32     47.35      0.00
   12   24   32      3.59      0.00
   14   24   32    -25.79      0.00
    2   26   32    -18.58      0.00
    4   26   32     31.33      0.00
    6   26   32     15.90      0.00
    8   26   32     -5.12      0.00
    1    1   33    -15.10      0.00
    1    3   33    -22.06      0.00
    3    3   33    -33.17      0.00
    1    5   33      6.38      0.00
    3    5   33    -39.62      0.00
    5    5   33    -12.10      0.00
    1    7   33    -18.49      0.00
    3    7   33    -35.64      0.00
    5    7   33      1.40      0.00
    7    7   33    -23.89      0.00
    1    9   33     16.69      0.00
    3    9   33    -30.01      0.00
    5    9   33     47.30      0.00
    7    9   33    -50.05      0.00
    9    9   33    -26.97      0.00
    1   11   33    -11.45      0.00
    3   11   33    -29.01      0.00
    5   11   33     36.62      0.00
    7   11   33     -3.61      0.00
    9   11   33     24.97      0.00
   11   11   33     25.13      0.00
    1   13   33     27.48      0.00
    3   13   33      9.57      0.00
    5   13   33     32.97      0.00
    7   13   33     26.15      0.00
    9   13   33     98.03      0.00
   11   13   33    -15.54      0.00
   13   13   33    -22.99      0.00
    1   15   33     16.30      0.00
    3   15   33    -35.79      0.00
    5   15   33    -13.87      0.00
    7   15   33    -94.38      0.00
    9   15   33     50.33      0.00
   11   15   33    -14.51      0.00
   13   15   33    -18.66      0.00
   15   15   33     23.12      0.00
    1   17   33   -137.23      0.00
    3   17   33      3.19      0.00
    5   17   33    -27.69      0.00
    7   17   33    -42.86      0.00
    9   17   33   -113.41      0.00
   11   17   33     14.15      0.00
   13   17   33      2.18      0.00
   15   17   33    -25.57      0.00
   17   17   33    -56.28      0.00
    1   19   33     -5.65      0.00
    3   19   33    -11.00      0.00
    5   19   33     61.02      0.00
    7   19   33     11.08      0.00
    9   19   33    -40.46      0.00
   11   19   33     -1.47      0.00
   13   19   33    -32.34      0.00
   15   19   33     25.31      0.00
   17   19   33     38.39      0.00
    1   21   33    -69.17      0.00
    3   21   33    -31.92      0.00
    5   21   33    -56.33      0.00
    7   21   33     15.51      0.00
    9   21   33     28.20      0.00
   11   21   33     11.37      0.00
   13   21   33    -42.67      0.00
   15   21   33    -16.54      0.00
    1   23   33    -40.09      0.00
    3   23   33     -9.16      0.00
    5   23   33    -73.47      0.00
    7   23   33     10.40      0.00
    9   23   33    -16.48      0.00
   11   23   33    -57.09      0.00
   13   23   33     22.86      0.00
    1   25   33     -0.83      0.00
    3   25   33     39.70      0.00
    5   25   33    -33.05      0.00
    7   25   33     13.61      0.00
    9   25   33     25.77      0.00
    0    2   34     66.02      0.00
    2    2   34      7.43      0.00
    2    4   34    -64.87      0.00
    4    4   34    -37.48      0.00
    0    6   34    -24.05      0.00
    2    6   34    -25.08      0.00
    4    6   34      8.66      0.00
    6    6   34      0.23      0.00
    2    8   34     16.36      0.00
    4    8   34    -23.92      0.00
    6    8   34     -1.82      0.00
    8    8   34    -26.87      0.00
    0   10   34    -20.65      0.00
    2   10   34     -5.61      0.00
    4   10   34     27.78      0.00
    6   10   34    -47.41      0.00
    8   10   34     -7.28      0.00
   10   10   34    -13.49      0.00
    2   12   34      0.49      0.00
    4   12   34      9.14      0.00
    6   12   34      4.99      0.00
    8   12   34     13.16      0.00
   10   12   34      1.48      0.00
   12   12   34    -21.89      0.00
    0   14   34     62.95      0.00
    2   14   34    -11.74      0.00
    4   14   34    -15.08      0.00
    6   14   34    -33.84      0.00
    8   14   34    -32.91      0.00
   10   14   34     -3.01      0.00
   12   14   34     62.39      0.00
   14   14   34   -135.19      0.00
    2   16   34    -77.54      0.00
    4   16   34    -39.60      0.00
    6   16   34      0.06      0.00
    8   16   34    -18.31      0.00
   10   16   34     18.04      0.00
   12   16   34    -29.81      0.00
   14   16   34     34.46      0.00
   16   16   34    -13.86      0.00
    0   18   34   -117.19      0.00
    2   18   34     91.73      0.00
    4   18   34     -7.58      0.00
    6   18   34     35.10      0.00
    8   18   34    -51.46      0.00
   10   18   34    -49.96      0.00
   12   18   34    -18.37      0.00
   14   18   34   -117.15      0.00
   16   18   34     -9.44      0.00
    2   20   34    -24.19      0.00
    4   20   34    -29.86      0.00
    6   20   34    -17.98      0.00
    8   20   34    -53.98      0.00
   10   20   34     13.97      0.00
   12   20   34     39.12      0.00
   14   20   34    -56.86      0.00
    0   22   34     41.06      0.00
    2   22   34    -12.60      0.00
    4   22   34    -16.51      0.00
    6   22   34    -12.70      0.00
    8   22   34    -13.38      0.00
   10   22   34      1.90      0.00
   12   22   34    -69.42      0.00
    2   24   34    -10.38      0.00
    4   24   34    -63.05      0.00
    6   24   34     17.03      0.00
    8   24   34     -8.00      0.00
    1    1   35    -23.57      0.00
    1    3   35     10.04      0.00
    3    3   35    -35.52      0.00
    1    5   35     41.68      0.00
    3    5   35     38.53      0.00
    5    5   35     56.24      0.00
    1    7   35     21.21      0.00
    3    7   35    -41.96      0.00
    5    7   35     20.83      0.00
    7    7   35    -38.50      0.00
    1    9   35    -66.50      0.00
    3    9   35     14.98      0.00
    5    9   35     23.38      0.00
    7    9   35     25.66      0.00
    9    9   35    -81.52      0.00
    1   11   35      0.96      0.00
    3   11   35    -52.04      0.00
    5   11   35     -6.28      0.00
    7   11   35     -0.76      0.00
    9   11   35    -19.41      0.00
   11   11   35     71.82      0.00
    1   13   35    -23.87      0.00
    3   13   35      2.14      0.00
    5   13   35     19.70      0.00
    7   13   35    -34.97      0.00
    9   13   35     12.86      0.00
   11   13   35    -18.23      0.00
   13   13   35     16.11      0.00
    1   15   35    -12.29      0.00
    3   15   35     -5.94      0.00
    5   15   35    -19.96      0.00
    7   15   35      2.66      0.00
    9   15   35    -11.87      0.00
   11   15   35     33.84      0.00
   13   15   35    -98.93      0.00
   15   15   35    170.49      0.00
    1   17   35     -7.84      0.00
    3   17   35     14.09      0.00
    5   17   35     32.49      0.00
    7   17   35    -93.69      0.00
    9   17   35     -4.86      0.00
   11   17   35     -3.98      0.00
   13   17   35      7.73      0.00
   15   17   35    -83.98      0.00
    1   19   35    -41.51      0.00
    3   19   35     -3.73      0.00
    5   19   35     -2.39      0.00
    7   19   35     62.83      0.00
    9   19   35    -10.58      0.00
   11   19   35     77.69      0.00
   13   19   35    -99.40      0.00
    1   21   35    -13.87      0.00
    3   21   35     34.47      0.00
    5   21   35      1.09      0.00
    7   21   35     40.12      0.00
    9   21   35     13.00      0.00
   11   21   35     37.27      0.00
    1   23   35    -39.44      0.00
    3   23   35     20.91      0.00
    5   23   35    -31.10      0.00
    0    0   36    -63.04      0.00
    2    2   36    -31.02      0.00
    0    4   36     49.91      0.00
    2    4   36     29.64      0.00
    4    4   36     89.02      0.00
    2    6   36     75.24      0.00
    4    6   36    -10.87      0.00
    6    6   36     23.28      0.00
    0    8   36   -121.98      0.00
    2    8   36    -42.55      0.00
    4    8   36     53.12      0.00
    6    8   36     -5.32      0.00
    8    8   36     70.33      0.00
    2   10   36     52.35      0.00
    4   10   36    -29.08      0.00
    6   10   36     36.81      0.00
    8   10   36    -46.38      0.00
   10   10   36     97.27      0.00
    0   12   36   -114.02      0.00
    2   12   36      3.13      0.00
    4   12   36      8.19      0.00
    6   12   36      6.55      0.00
    8   12   36    -22.44      0.00
   10   12   36     46.86      0.00
   12   12   36      2.33      0.00
    2   14   36     -2.37      0.00
    4   14   36    -11.77      0.00
    6   14   36    -69.53      0.00
    8   14   36     27.98      0.00
   10   14   36     -7.01      0.00
   12   14   36    -30.39      0.00
   14   14   36    -65.52      0.00
    0   16   36     -1.64      0.00
    2   16   36    -11.05      0.00
    4   16   36    -27.58      0.00
    6   16   36     19.96      0.00
    8   16   36    -11.80      0.00
   10   16   36     47.78      0.00
   12   16   36     35.03      0.00
   14   16   36    118.05      0.00
    2   18   36     25.94      0.00
    4   18   36      8.89      0.00
    6   18   36     43.22      0.00
    8   18   36     16.05      0.00
   10   18   36    -25.31      0.00
   12   18   36     11.07      0.00
    0   20   36   -115.08      0.00
    2   20   36     77.53      0.00
    4   20   36    -31.15      0.00
    6   20   36     98.33      0.00
    8   20   36      2.60      0.00
   10   20   36     26.23      0.00
    2   22   36      7.29      0.00
    4   22   36    -37.76      0.00
    1    1   37     -8.51      0.00
    1    3   37     60.54      0.00
    3    3   37    -61.21      0.00
    1    5   37     11.98      0.00
    3    5   37      1.99      0.00
    5    5   37     34.11      0.00
    1    7   37    -54.54      0.00
    3    7   37     -3.93      0.00
    5    7   37    -14.88      0.00
    7    7   37     -0.41      0.00
    1    9   37    103.73      0.00
    3    9   37    -49.45      0.00
    5    9   37     23.89      0.00
    7    9   37     61.87      0.00
    9    9   37    -15.72      0.00
    1   11   37     -3.75      0.00
    3   11   37     19.53      0.00
    5   11   37    -10.06      0.00
    7   11   37     19.85      0.00
    9   11   37     58.99      0.00
   11   11   37    -51.95      0.00
    1   13   37     31.41      0.00
    3   13   37    -69.42      0.00
    5   13   37     -2.21      0.00
    7   13   37    -22.43      0.00
    9   13   37     45.35      0.00
   11   13   37     -9.69      0.00
   13   13   37   -102.28      0.00
    1   15   37     -2.67      0.00
    3   15   37      3.92      0.00
    5   15   37     -2.47      0.00
    7   15   37     25.04      0.00
    9   15   37     -5.43      0.00
   11   15   37     64.75      0.00
   13   15   37     78.63      0.00
    1   17   37     -9.59      0.00
    3   17   37     -2.92      0.00
    5   17   37      9.69      0.00
    7   17   37     21.38      0.00
    9   17   37    -15.18      0.00
   11   17   37     -2.31      0.00
    1   19   37    -39.36      0.00
    3   19   37      1.78      0.00
    5   19   37     41.30      0.00
    7   19   37    -25.09      0.00
    0    2   38    -91.96      0.00
    2    2   38     50.80      0.00
    2    4   38     -7.19      0.00
    4    4   38     -6.09      0.00
    0    6   38    -44.45      0.00
    2    6   38    -32.04      0.00
    4    6   38     18.23      0.00
    6    6   38    -57.61      0.00
    2    8   38     30.84      0.00
    4    8   38    -63.01      0.00
    6    8   38     49.82      0.00
    8    8   38     -9.03      0.00
    0   10   38     57.49      0.00
    2   10   38    -11.57      0.00
    4   10   38     73.03      0.00
    6   10   38    -55.21      0.00
    8   10   38      3.02      0.00
   10   10   38      9.56      0.00
    2   12   38     14.90      0.00
    4   12   38   -103.48      0.00
    6   12   38      9.44      0.00
    8   12   38     32.71      0.00
   10   12   38     18.49      0.00
   12   12   38     20.73      0.00
    0   14   38    -67.63      0.00
    2   14   38      5.27      0.00
    4   14   38     53.63      0.00
    6   14   38     20.60      0.00
    8   14   38     49.80      0.00
   10   14   38      1.67      0.00
   12   14   38   -104.08      0.00
    2   16   38    -16.38      0.00
    4   16   38     13.60      0.00
    6   16   38      9.65      0.00
    8   16   38     40.85      0.00
    0   18   38    -26.84      0.00
    2   18   38     11.29      0.00
    4   18   38    -25.90      0.00
    1    1   39     10.42      0.00
    1    3   39      3.31      0.00
    3    3   39      4.61      0.00
    1    5   39     -8.51      0.00
    3    5   39    -29.43      0.00
    5    5   39     16.01      0.00
    1    7   39     75.88      0.00
    3    7   39    -12.12      0.00
    5    7   39    -23.65      0.00
    7    7   39     15.93      0.00
    1    9   39    -20.99      0.00
    3    9   39      5.51      0.00
    5    9   39     32.79      0.00
    7    9   39    -51.77      0.00
    9    9   39    -18.88      0.00
    1   11   39     -0.93      0.00
    3   11   39      8.82      0.00
    5   11   39    -15.63      0.00
    7   11   39     38.02      0.00
    9   11   39     -2.70      0.00
   11   11   39    -28.29      0.00
    1   13   39      2.62      0.00
    3   13   39    -24.99      0.00
    5   13   39     12.77      0.00
    7   13   39     60.95      0.00
    9   13   39     -5.70      0.00
    1   15   39     78.04      0.00
    3   15   39     20.43      0.00
    5   15   39    -29.42      0.00
    7   15   39    -12.73      0.00
    0    0   40      8.54      0.00
    2    2   40     34.72      0.00
    0    4   40    -15.37      0.00
    2    4   40     42.47      0.00
    4    4   40    -51.08      0.00
    2    6   40    -15.98      0.00
    4    6   40     40.46      0.00
    6    6   40    -19.31      0.00
    0    8   40    -19.46      0.00
    2    8   40    -46.06      0.00
    4    8   40     26.60      0.00
    6    8   40    -70.02      0.00
    8    8   40    -42.78      0.00
    2   10   40     26.08      0.00
    4   10   40    -27.28      0.00
    6   10   40     20.14      0.00
    8   10   40     20.82      0.00
    0   12   40      4.22      0.00
    2   12   40     -2.65      0.00
    4   12   40     -2.61      0.00
    6   12   40    -10.43      0.00
    1    1   41      2.08      0.00
    1    3   41     23.25      0.00
    3    3   41     -5.97      0.00
    1    5   41     13.15      0.00
    3    5   41      0.67      0.00
    5    5   41     30.45      0.00
    1    7   41    -55.57      0.00
    3    7   41      1.13      0.00
    5    7   41    -29.04      0.00
    7    7   41    -46.56      0.00
    1    9   41    -13.09      0.00
    3    9   41    -24.62      0.00
    5    9   41    -32.29      0.00
    0    2   42     -9.60      0.00
    2    2   42     32.25      0.00
    2    4   42      0.41      0.00
    4    4   42     71.67      0.00
    1    1    1  -1084.96      0.00
   24   24   26    -43.56      0.00
   22   26   26    -21.76      0.00
   19   27   27     52.77      0.00
   22   24   28     33.04      0.00
   16   28   28     36.47      0.00
   21   23   29     -1.51      0.00
   19   25   29      2.05      0.00
   11   29   29     24.95      0.00
   13   29   29     16.91      0.00
   18   24   30      2.32      0.00
   16   26   30      8.26      0.00
   12   28   30     -1.30      0.00
    0   30   30     35.15      0.00
    2   30   30     -0.74      0.00
    4   30   30    -22.73      0.00
    6   30   30     34.22      0.00
   21   21   31     18.17      0.00
   19   23   31    -24.70      0.00
   15   25   31     16.94      0.00
   11   27   31    -16.18      0.00
    1   29   31      5.57      0.00
    3   29   31      2.47      0.00
    5   29   31     -2.45      0.00
    7   29   31     -2.68      0.00
   20   20   32     12.93      0.00
   18   22   32     19.71      0.00
   10   26   32      6.05      0.00
   12   26   32     30.91      0.00
    0   28   32    -13.80      0.00
    2   28   32     -6.86      0.00
    4   28   32     21.27      0.00
    6   28   32      0.01      0.00
   19   19   33     -0.49      0.00
   17   21   33     -3.93      0.00
   15   23   33    -21.28      0.00
   11   25   33     26.84      0.00
    1   27   33     12.87      0.00
    3   27   33      6.27      0.00
    5   27   33     16.36      0.00
   18   18   34     -8.28      0.00
   16   20   34    -10.82      0.00
   14   22   34     21.40      0.00
   10   24   34      6.92      0.00
    0   26   34     -2.61      0.00
    2   26   34      8.89      0.00
    4   26   34     -8.13      0.00
   17   17   35     -2.24      0.00
   15   19   35     -7.51      0.00
   13   21   35    -27.26      0.00
    7   23   35    -18.55      0.00
    9   23   35     -3.08      0.00
    1   25   35      9.48      0.00
   16   16   36    -19.66      0.00
   14   18   36    -41.20      0.00
   12   20   36    -21.09      0.00
    6   22   36     44.15      0.00
    8   22   36      7.66      0.00
   15   15   37     38.39      0.00
   13   17   37    -22.78      0.00
    9   19   37     23.29      0.00
   11   19   37      3.30      0.00
    1   21   37     24.96      0.00
    3   21   37    -17.32      0.00
    5   21   37     12.59      0.00
   14   14   38     18.45      0.00
   10   16   38    -10.09      0.00
   12   16   38     -3.37      0.00
    6   18   38     14.72      0.00
    8   18   38    -35.68      0.00
    2   20   38      8.23      0.00
   11   13   39    -16.22      0.00
    9   15   39     26.12      0.00
    1   17   39     -4.03      0.00
    3   17   39     18.94      0.00
    5   17   39    -14.97      0.00
   10   10   40     -7.54      0.00
    8   12   40     19.48      0.00
   10   12   40     -2.60      0.00
    2   14   40      1.12      0.00
    4   14   40      8.96      0.00
    6   14   40     27.34      0.00
    7    9   41      5.18      0.00
    9    9   41      7.89      0.00
    1   11   41     -3.36      0.00
    3   11   41     -4.66      0.00
    5   11   41     -0.89      0.00
    7   11   41     -8.77      0.00
    1   13   41      9.59      0.00
    0    6   42    -52.62      0.00
    2    6   42      4.47      0.00
    4    6   42    -10.65      0.00
    6    6   42    -34.74      0.00
    2    8   42    -27.49      0.00
    4    8   42    -25.62      0.00
    0    0    0      0.00      0.00
# SQUEEZE RESULTS
# Note: Data are Listed for all Voids in the P1 Unit Cell
# i.e. Centre of Gravity, Solvent Accessible Volume,
# Recovered number of Electrons in the Void and
# Details about the Squeezed Material
loop_
  _platon_squeeze_void_nr
  _platon_squeeze_void_average_x
  _platon_squeeze_void_average_y
  _platon_squeeze_void_average_z
  _platon_squeeze_void_volume
  _platon_squeeze_void_count_electrons
  _platon_squeeze_void_content
   1 -0.004 -0.007 -0.005     27050      7243 ' '
   2  0.625  0.125  0.125        96        49 ' '
   3  0.125  0.125  0.625        96        49 ' '
   4  0.375  0.375  0.375        96        49 ' '
   5  0.875  0.375  0.875        96        49 ' '
   6  0.125  0.625  0.125        96        49 ' '
   7  0.625  0.625  0.625        96        49 ' '
   8  0.875  0.875  0.375        96        49 ' '
   9  0.375  0.875  0.875        96        49 ' '
_platon_squeeze_void_probe_radius                  1.20
_platon_squeeze_details
(replace by semicolon in column 1 when used as .sqf)
TITL 808V_HT_0mF d -3 m     R = 0.05
CELL   34.8930   34.8930   34.8930     90.00     90.00     90.00
SPGR Fd-3m
# Solvent Accessible Volume =   27782.8
# Electrons Found in S.A.V. =    7610.7
# Note: Atoms in Void as Cxxx and Qxxx all others
C101 0.663 0.085 0.165 !       3.95 eA-3
Q102 0.823 0.026 0.224 !       2.68 eA-3
Q103 0.823 0.526 0.724 !       2.68 eA-3
Q104 0.323 0.026 0.724 !       2.68 eA-3
Q105 0.479 0.677 0.771 !       2.67 eA-3
C106 0.625 0.437 0.125 !       2.38 eA-3
C107 0.375 0.359 0.375 !       2.33 eA-3
C108 0.875 0.359 0.875 !       2.33 eA-3
C109 0.640 0.108 0.142 !       2.32 eA-3
Q110 0.912 0.073 0.459 !       2.31 eA-3
C111 0.875 0.376 0.890 !       2.29 eA-3
C112 0.125 0.063 0.125 !       2.26 eA-3
C113 0.139 0.108 0.142 !       2.08 eA-3
C114 0.490 0.495 0.255 !       2.06 eA-3
C115 0.788 0.288 0.288 !       2.00 eA-3
Q116 0.005 0.450 0.010 !       1.92 eA-3
C117 0.759 0.259 0.259 !       1.90 eA-3
Q118 0.686 0.561 0.689 !       1.88 eA-3
Q119 0.186 0.061 0.689 !       1.88 eA-3
Q120 0.686 0.061 0.189 !       1.88 eA-3
Q121 0.927 0.099 0.428 !       1.85 eA-3
C122 0.835 0.337 0.413 !       1.78 eA-3
C123 0.727 0.306 0.228 !       1.73 eA-3
Q124 0.819 0.321 0.928 !       1.72 eA-3
C125 0.875 0.375 0.375 !       1.72 eA-3
Q126 0.375 0.195 0.375 !       1.72 eA-3
C127 0.827 0.008 0.018 !       1.71 eA-3
C128 0.210 0.438 0.041 !       1.66 eA-3
C129 0.101 0.265 0.098 !       1.66 eA-3
Q130 0.608 0.194 0.110 !       1.64 eA-3
Q131 0.149 0.156 0.417 !       1.63 eA-3
C132 0.790 0.493 0.455 !       1.63 eA-3
Q133 0.326 0.423 0.119 !       1.62 eA-3
Q134 0.125 0.391 0.125 !       1.62 eA-3
C135 0.470 0.165 0.468 !       1.58 eA-3
C136 0.701 0.227 0.290 !       1.58 eA-3
C137 0.030 0.273 0.033 !       1.57 eA-3
Q138 0.855 0.209 0.094 !       1.52 eA-3
Q139 0.881 0.226 0.024 !       1.52 eA-3
C140 0.554 0.382 0.052 !       1.50 eA-3
Q141 0.962 0.132 0.420 !       1.47 eA-3
C142 0.812 0.196 0.337 !       1.46 eA-3
C143 0.241 0.244 0.155 !       1.46 eA-3
C144 0.779 0.280 0.474 !       1.45 eA-3
C145 0.125 0.242 0.123 !       1.45 eA-3
C146 0.062 0.273 0.061 !       1.44 eA-3
Q147 0.212 0.296 0.454 !       1.39 eA-3
C148 0.305 0.180 0.305 !       1.38 eA-3
Q149 0.837 0.048 0.334 !       1.38 eA-3
C150 0.905 0.353 0.233 !       1.37 eA-3
Q151 0.859 0.015 0.362 !       1.36 eA-3
Q152 0.698 0.175 0.196 !       1.35 eA-3
C153 0.091 0.286 0.093 !       1.34 eA-3
Q154 0.517 0.134 0.017 !       1.32 eA-3
Q155 0.807 0.198 0.306 !       1.31 eA-3
C156 0.101 0.078 0.111 !       1.30 eA-3
C157 0.258 0.256 0.227 !       1.30 eA-3
C158 0.758 0.256 0.727 !       1.30 eA-3
C159 0.758 0.756 0.227 !       1.30 eA-3
C160 0.221 0.007 0.959 !       1.30 eA-3
C161 0.221 0.507 0.459 !       1.30 eA-3
C162 0.721 0.507 0.959 !       1.30 eA-3
C163 0.721 0.007 0.459 !       1.30 eA-3
Q164 0.586 0.088 0.258 !       1.29 eA-3
C165 0.596 0.287 0.447 !       1.29 eA-3
C166 0.061 0.462 0.257 !       1.27 eA-3
C167 0.530 0.273 1.001 !       1.26 eA-3
Q168 0.835 0.178 0.334 !       1.26 eA-3
C169 0.500 0.430 0.070 !       1.26 eA-3
C170 0.055 0.274 0.226 !       1.25 eA-3
Q171 0.656 0.889 0.602 !       1.25 eA-3
Q172 0.156 0.389 0.602 !       1.25 eA-3
Q173 0.656 0.389 0.102 !       1.25 eA-3
Q174 0.600 0.890 0.657 !       1.24 eA-3
C175 0.016 0.157 0.352 !       1.24 eA-3
Q176 0.906 0.642 0.899 !       1.23 eA-3
C177 0.243 0.008 0.460 !       1.22 eA-3
Q178 0.427 0.276 0.144 !       1.22 eA-3
C179 0.744 0.391 0.114 !       1.22 eA-3
Q180 0.640 0.052 0.065 !       1.22 eA-3
C181 0.138 0.492 0.885 !       1.22 eA-3
C182 0.638 0.492 0.385 !       1.22 eA-3
C183 0.478 0.134 0.480 !       1.22 eA-3
C184 0.834 0.142 0.457 !       1.21 eA-3
C185 0.592 0.429 0.114 !       1.21 eA-3
C186 0.283 0.115 0.139 !       1.21 eA-3
Q187 0.960 0.132 0.464 !       1.19 eA-3
Q188 0.014 0.052 0.475 !       1.18 eA-3
C189 0.814 0.491 0.437 !       1.18 eA-3
C190 0.829 0.011 0.879 !       1.18 eA-3
C191 0.829 0.511 0.379 !       1.18 eA-3
C192 0.329 0.011 0.379 !       1.18 eA-3
C193 0.054 0.391 0.428 !       1.18 eA-3
C194 0.304 0.014 0.489 !       1.18 eA-3
C195 0.804 0.514 0.489 !       1.18 eA-3
C196 0.804 0.014 0.989 !       1.18 eA-3
C197 0.738 0.806 0.757 !       1.18 eA-3
C198 0.238 0.306 0.757 !       1.18 eA-3
Q199 0.412 0.334 0.416 !       1.17 eA-3
(replace by semicolon in column 1 when used as .sqf)
;
_shelx_fab_checksum              10618
loop_
_space_group_symop_operation_xyz
'x, y, z'
'x, z, y'
'y+1/4, -z, x+1/4'
'y+1/4, x+1/4, -z'
'x+1/4, -z, y+1/4'
'-z, y+1/4, x+1/4'
'z+1/4, x+1/4, -y'
'y+1/4, z+1/4, -x'
'z+1/4, y+1/4, -x'
'-z+1/4, x, -y+1/4'
'x+1/4, z+1/4, -y'
'y, -z+1/4, -x+1/4'
'x, -z+1/4, -y+1/4'
'-z+1/4, y, -x+1/4'
'x+1/4, -y, z+1/4'
'y+1/4, -x, z+1/4'
'x, -y+1/4, -z+1/4'
'y, -x+1/4, -z+1/4'
'-y, -z, -x'
'-x+1/4, -y+1/4, z'
'-y, -x, -z'
'-z, -x, -y'
'-z, -y, -x'
'z, -x+1/4, -y+1/4'
'x, y+1/2, z+1/2'
'x, z+1/2, y+1/2'
'y+1/4, -z+1/2, x+3/4'
'y+1/4, x+3/4, -z+1/2'
'x+1/4, -z+1/2, y+3/4'
'-z, y+3/4, x+3/4'
'z+1/4, x+3/4, -y+1/2'
'y+1/4, z+3/4, -x+1/2'
'z+1/4, y+3/4, -x+1/2'
'-z+1/4, x+1/2, -y+3/4'
'x+1/4, z+3/4, -y+1/2'
'y, -z+3/4, -x+3/4'
'x, -z+3/4, -y+3/4'
'-z+1/4, y+1/2, -x+3/4'
'x+1/4, -y+1/2, z+3/4'
'y+1/4, -x+1/2, z+3/4'
'x, -y+3/4, -z+3/4'
'y, -x+3/4, -z+3/4'
'-y, -z+1/2, -x+1/2'
'-x+1/4, -y+3/4, z+1/2'
'-y, -x+1/2, -z+1/2'
'-z, -x+1/2, -y+1/2'
'-z, -y+1/2, -x+1/2'
'z, -x+3/4, -y+3/4'
'x+1/2, y, z+1/2'
'x+1/2, z, y+1/2'
'y+3/4, -z, x+3/4'
'y+3/4, x+1/4, -z+1/2'
'x+3/4, -z, y+3/4'
'-z+1/2, y+1/4, x+3/4'
'z+3/4, x+1/4, -y+1/2'
'y+3/4, z+1/4, -x+1/2'
'z+3/4, y+1/4, -x+1/2'
'-z+3/4, x, -y+3/4'
'x+3/4, z+1/4, -y+1/2'
'y+1/2, -z+1/4, -x+3/4'
'x+1/2, -z+1/4, -y+3/4'
'-z+3/4, y, -x+3/4'
'x+3/4, -y, z+3/4'
'y+3/4, -x, z+3/4'
'x+1/2, -y+1/4, -z+3/4'
'y+1/2, -x+1/4, -z+3/4'
'-y+1/2, -z, -x+1/2'
'-x+3/4, -y+1/4, z+1/2'
'-y+1/2, -x, -z+1/2'
'-z+1/2, -x, -y+1/2'
'-z+1/2, -y, -x+1/2'
'z+1/2, -x+1/4, -y+3/4'
'x+1/2, y+1/2, z'
'x+1/2, z+1/2, y'
'y+3/4, -z+1/2, x+1/4'
'y+3/4, x+3/4, -z'
'x+3/4, -z+1/2, y+1/4'
'-z+1/2, y+3/4, x+1/4'
'z+3/4, x+3/4, -y'
'y+3/4, z+3/4, -x'
'z+3/4, y+3/4, -x'
'-z+3/4, x+1/2, -y+1/4'
'x+3/4, z+3/4, -y'
'y+1/2, -z+3/4, -x+1/4'
'x+1/2, -z+3/4, -y+1/4'
'-z+3/4, y+1/2, -x+1/4'
'x+3/4, -y+1/2, z+1/4'
'y+3/4, -x+1/2, z+1/4'
'x+1/2, -y+3/4, -z+1/4'
'y+1/2, -x+3/4, -z+1/4'
'-y+1/2, -z+1/2, -x'
'-x+3/4, -y+3/4, z'
'-y+1/2, -x+1/2, -z'
'-z+1/2, -x+1/2, -y'
'-z+1/2, -y+1/2, -x'
'z+1/2, -x+3/4, -y+1/4'
'-x, -y, -z'
'-x, -z, -y'
'-y-1/4, z, -x-1/4'
'-y-1/4, -x-1/4, z'
'-x-1/4, z, -y-1/4'
'z, -y-1/4, -x-1/4'
'-z-1/4, -x-1/4, y'
'-y-1/4, -z-1/4, x'
'-z-1/4, -y-1/4, x'
'z-1/4, -x, y-1/4'
'-x-1/4, -z-1/4, y'
'-y, z-1/4, x-1/4'
'-x, z-1/4, y-1/4'
'z-1/4, -y, x-1/4'
'-x-1/4, y, -z-1/4'
'-y-1/4, x, -z-1/4'
'-x, y-1/4, z-1/4'
'-y, x-1/4, z-1/4'
'y, z, x'
'x-1/4, y-1/4, -z'
'y, x, z'
'z, x, y'
'z, y, x'
'-z, x-1/4, y-1/4'
'-x, -y+1/2, -z+1/2'
'-x, -z+1/2, -y+1/2'
'-y-1/4, z+1/2, -x+1/4'
'-y-1/4, -x+1/4, z+1/2'
'-x-1/4, z+1/2, -y+1/4'
'z, -y+1/4, -x+1/4'
'-z-1/4, -x+1/4, y+1/2'
'-y-1/4, -z+1/4, x+1/2'
'-z-1/4, -y+1/4, x+1/2'
'z-1/4, -x+1/2, y+1/4'
'-x-1/4, -z+1/4, y+1/2'
'-y, z+1/4, x+1/4'
'-x, z+1/4, y+1/4'
'z-1/4, -y+1/2, x+1/4'
'-x-1/4, y+1/2, -z+1/4'
'-y-1/4, x+1/2, -z+1/4'
'-x, y+1/4, z+1/4'
'-y, x+1/4, z+1/4'
'y, z+1/2, x+1/2'
'x-1/4, y+1/4, -z+1/2'
'y, x+1/2, z+1/2'
'z, x+1/2, y+1/2'
'z, y+1/2, x+1/2'
'-z, x+1/4, y+1/4'
'-x+1/2, -y, -z+1/2'
'-x+1/2, -z, -y+1/2'
'-y+1/4, z, -x+1/4'
'-y+1/4, -x-1/4, z+1/2'
'-x+1/4, z, -y+1/4'
'z+1/2, -y-1/4, -x+1/4'
'-z+1/4, -x-1/4, y+1/2'
'-y+1/4, -z-1/4, x+1/2'
'-z+1/4, -y-1/4, x+1/2'
'z+1/4, -x, y+1/4'
'-x+1/4, -z-1/4, y+1/2'
'-y+1/2, z-1/4, x+1/4'
'-x+1/2, z-1/4, y+1/4'
'z+1/4, -y, x+1/4'
'-x+1/4, y, -z+1/4'
'-y+1/4, x, -z+1/4'
'-x+1/2, y-1/4, z+1/4'
'-y+1/2, x-1/4, z+1/4'
'y+1/2, z, x+1/2'
'x+1/4, y-1/4, -z+1/2'
'y+1/2, x, z+1/2'
'z+1/2, x, y+1/2'
'z+1/2, y, x+1/2'
'-z+1/2, x-1/4, y+1/4'
'-x+1/2, -y+1/2, -z'
'-x+1/2, -z+1/2, -y'
'-y+1/4, z+1/2, -x-1/4'
'-y+1/4, -x+1/4, z'
'-x+1/4, z+1/2, -y-1/4'
'z+1/2, -y+1/4, -x-1/4'
'-z+1/4, -x+1/4, y'
'-y+1/4, -z+1/4, x'
'-z+1/4, -y+1/4, x'
'z+1/4, -x+1/2, y-1/4'
'-x+1/4, -z+1/4, y'
'-y+1/2, z+1/4, x-1/4'
'-x+1/2, z+1/4, y-1/4'
'z+1/4, -y+1/2, x-1/4'
'-x+1/4, y+1/2, -z-1/4'
'-y+1/4, x+1/2, -z-1/4'
'-x+1/2, y+1/4, z-1/4'
'-y+1/2, x+1/4, z-1/4'
'y+1/2, z+1/2, x'
'x+1/4, y+1/4, -z'
'y+1/2, x+1/2, z'
'z+1/2, x+1/2, y'
'z+1/2, y+1/2, x'
'-z+1/2, x+1/4, y-1/4'
loop_
_atom_site_label
_atom_site_type_symbol
_atom_site_fract_x
_atom_site_fract_y
_atom_site_fract_z
_atom_site_U_iso_or_equiv
_atom_site_adp_type
_atom_site_occupancy
_atom_site_site_symmetry_order
_atom_site_calc_flag
_atom_site_refinement_flags_posn
_atom_site_refinement_flags_adp
_atom_site_refinement_flags_occupancy
_atom_site_disorder_group
C1 C 0.3274(2) 0.4226(2) 0.4718(3) 0.024(3) Uani 1 2 d S T P .
H1 H 0.337765 0.412236 0.494733 0.029 Uiso 1 2 calc R U P .
C2 C 0.2954(2) 0.4060(3) 0.4546(2) 0.022(3) Uani 1 2 d S T P .
C3 C 0.2803(2) 0.3691(4) 0.4697(2) 0.025(3) Uani 1 2 d S T P .
Hf1 Hf 0.29711(2) 0.29711(2) 0.52259(2) 0.01705(18) Uani 1 2 d S T P .
O1 O 0.29780(15) 0.35456(15) 0.49786(15) 0.0196(12) Uani 1 1 d . . . .
O2 O 0.26375(18) 0.26375(18) 0.5603(3) 0.039(2) Uiso 1 2 d S . P .
O3 O 0.2908(5) 0.2908(5) 0.4592(5) 0.014(6) Uiso 0.4998 6 d S . P 1
O4 O 0.2769(5) 0.2769(5) 0.4731(5) 0.018(6) Uiso 0.4998 6 d S . P 2
V2 V 0.322309 0.322309 0.566700 0.084(6) Uani 0.2 2 d S T P 1
O8 O 0.3040(8) 0.3040(8) 0.6243(12) 0.026(10) Uiso 0.2 2 d S . P 1
O9 O 0.3476(17) 0.3476(17) 0.608(2) 0.12(3) Uiso 0.2 2 d S . P 1
O5 O 0.2875(4) 0.3380(4) 0.5726(4) 0.144(5) Uiso 1 1 d . . . .
V3 V 0.352(2) 0.352(2) 0.581(3) 0.03(2) Uiso 0.02 2 d S . P 3
V1 V 0.3245(17) 0.3245(17) 0.608(2) 0.007(18) Uiso 0.02 2 d S . P 2
loop_
_atom_site_aniso_label
_atom_site_aniso_U_11
_atom_site_aniso_U_22
_atom_site_aniso_U_33
_atom_site_aniso_U_23
_atom_site_aniso_U_13
_atom_site_aniso_U_12
C1 0.026(4) 0.026(4) 0.020(7) 0.004(4) -0.004(4) -0.008(6)
C2 0.022(4) 0.020(7) 0.022(4) 0.009(4) 0.000(5) -0.009(4)
C3 0.023(4) 0.028(7) 0.023(4) 0.004(4) 0.002(6) -0.004(4)
Hf1 0.0147(2) 0.0147(2) 0.0217(3) 0.00009(14) 0.00009(14) -0.0018(2)
O1 0.021(3) 0.023(3) 0.015(3) 0.005(2) -0.005(2) -0.005(3)
V2 0.060(7) 0.060(7) 0.132(17) 0.009(8) 0.009(8) 0.024(9)
loop_
_atom_type_symbol
_atom_type_description
_atom_type_scat_dispersion_real
_atom_type_scat_dispersion_imag
_atom_type_scat_source
C C 0.0033 0.0016 'International Tables Vol C Tables 4.2.6.8 and 6.1.1.4'
O O 0.0106 0.0060 'International Tables Vol C Tables 4.2.6.8 and 6.1.1.4'
V V 0.3005 0.5294 'International Tables Vol C Tables 4.2.6.8 and 6.1.1.4'
Hf Hf -0.5830 6.1852 'International Tables Vol C Tables 4.2.6.8 and 6.1.1.4'
H H 0.0000 0.0000 'International Tables Vol C Tables 4.2.6.8 and 6.1.1.4'
loop_
_geom_angle_atom_site_label_1
_geom_angle_atom_site_label_2
_geom_angle_atom_site_label_3
_geom_angle
_geom_angle_site_symmetry_1
_geom_angle_site_symmetry_3
C2 C1 C2 118.8(12) 99_656 .
C1 C2 C1 121.1(12) . 103_665
C1 C2 C3 119.4(6) . .
C1 C2 C3 119.4(6) 103_665 .
O1 C3 O1 126.3(11) . 62
O1 C3 C2 116.8(5) . .
O1 C3 C2 116.8(5) 62 .
V2 Hf1 O2 90.3(2) . .
O4 Hf1 O2 98.7(9) . .
V2 Hf1 O1 83.93(13) . 117
O4 Hf1 O1 89.2(6) . 117
O2 Hf1 O1 139.49(15) . 117
V2 Hf1 O1 83.93(13) . .
O4 Hf1 O1 89.2(6) . .
O2 Hf1 O1 139.48(15) . .
O1 Hf1 O1 79.8(3) 117 .
V2 Hf1 O2 116.48(19) . 156
O4 Hf1 O2 67.1(4) . 156
O2 Hf1 O2 70.7(3) . 156
O1 Hf1 O2 146.2(3) 117 156
O1 Hf1 O2 76.2(3) . 156
V2 Hf1 O2 116.48(19) . 130
O4 Hf1 O2 67.1(4) . 130
O2 Hf1 O2 70.7(3) . 130
O1 Hf1 O2 76.3(3) 117 130
O1 Hf1 O2 146.2(3) . 130
O2 Hf1 O2 112.8(5) 156 130
V2 Hf1 O3 149.1(6) . .
O2 Hf1 O3 120.6(7) . .
O1 Hf1 O3 72.6(5) 117 .
O1 Hf1 O3 72.6(5) . .
O2 Hf1 O3 77.6(4) 156 .
O2 Hf1 O3 77.6(4) 130 .
V2 Hf1 O5 36.0(3) . .
O4 Hf1 O5 146.4(4) . .
O2 Hf1 O5 77.7(4) . .
O1 Hf1 O5 115.5(3) 117 .
O1 Hf1 O5 74.3(4) . .
O2 Hf1 O5 80.5(4) 156 .
O2 Hf1 O5 138.1(4) 130 .
O3 Hf1 O5 143.7(4) . .
V2 Hf1 O5 36.0(3) . 117
O4 Hf1 O5 146.4(4) . 117
O2 Hf1 O5 77.7(4) . 117
O1 Hf1 O5 74.3(4) 117 117
O1 Hf1 O5 115.5(3) . 117
O2 Hf1 O5 138.1(4) 156 117
O2 Hf1 O5 80.5(4) 130 117
O3 Hf1 O5 143.7(4) . 117
O5 Hf1 O5 66.2(6) . 117
O4 Hf1 V1 174.4(17) . .
O2 Hf1 V1 75.7(15) . .
O1 Hf1 V1 95.1(12) 117 .
O1 Hf1 V1 95.1(12) . .
O2 Hf1 V1 110.4(7) 156 .
O2 Hf1 V1 110.4(7) 130 .
O5 Hf1 V1 33.1(3) . .
O5 Hf1 V1 33.1(3) 117 .
V2 Hf1 Hf1 149.797(1) . 36
O4 Hf1 Hf1 30.43(13) . 36
O2 Hf1 Hf1 92.9(2) . 36
O1 Hf1 Hf1 74.24(13) 117 36
O1 Hf1 Hf1 111.72(14) . 36
O2 Hf1 Hf1 92.8(2) 156 36
O2 Hf1 Hf1 38.42(18) 130 36
O3 Hf1 Hf1 39.6(4) . 36
O5 Hf1 Hf1 169.8(3) . 36
O5 Hf1 Hf1 116.0(3) 117 36
V1 Hf1 Hf1 148.3(5) . 36
C3 O1 Hf1 132.1(6) . .
Hf1 O2 Hf1 109.0(3) . 130
Hf1 O2 Hf1 109.0(3) . 156
Hf1 O2 Hf1 103.2(4) 130 156
Hf1 O3 Hf1 100.7(8) . 36
Hf1 O3 Hf1 100.7(8) . 58
Hf1 O3 Hf1 100.7(8) 36 58
Hf1 O4 Hf1 119.1(3) . 36
Hf1 O4 Hf1 119.1(3) . 58
Hf1 O4 Hf1 119.1(3) 36 58
O5 V2 O5 135.1(11) . 117
O5 V2 O9 96.5(11) . .
O5 V2 O9 96.5(11) 117 .
O5 V2 Hf1 84.2(6) . .
O5 V2 Hf1 84.2(6) 117 .
O9 V2 Hf1 178(3) . .
O5 V2 O8 73.5(6) . .
O5 V2 O8 73.5(6) 117 .
O9 V2 O8 65(3) . .
Hf1 V2 O8 116.8(10) . .
V2 O5 Hf1 59.7(5) . .
V1 O5 Hf1 104.7(19) . .
Hf1 O5 V3 95(2) . .
V3 V3 O5 146.4(16) 100_665 .
V3 V3 O5 146.4(16) 100_665 117
O5 V3 O5 65(3) . 117
O5 V1 O5 84(4) . 117
O5 V1 Hf1 42.2(18) . .
O5 V1 Hf1 42.2(18) 117 .
loop_
_geom_bond_atom_site_label_1
_geom_bond_atom_site_label_2
_geom_bond_distance
_geom_bond_site_symmetry_2
C1 C2 1.394(8) 99_656
C1 C2 1.394(8) .
C2 C3 1.488(15) .
C3 O1 1.263(7) .
C3 O1 1.263(7) 62
Hf1 V2 1.9789(5) .
Hf1 O4 1.994(3) .
Hf1 O2 2.108(9) .
Hf1 O1 2.183(5) 117
Hf1 O1 2.183(5) .
Hf1 O2 2.195(5) 156
Hf1 O2 2.195(5) 130
Hf1 O3 2.233(12) .
Hf1 O5 2.279(13) .
Hf1 O5 2.279(13) 117
Hf1 V1 3.28(8) .
Hf1 Hf1 3.4392(9) 36
V2 O5 1.347(13) .
V2 O5 1.347(13) 117
V2 O9 1.91(8) .
V2 O8 2.20(4) .
O5 V1 1.85(6) .
O5 V3 2.31(9) .
V3 V3 2.3(2) 100_665
loop_
_geom_torsion_atom_site_label_1
_geom_torsion_atom_site_label_2
_geom_torsion_atom_site_label_3
_geom_torsion_atom_site_label_4
_geom_torsion
_geom_torsion_site_symmetry_1
_geom_torsion_site_symmetry_4
C2 C1 C2 C1 -5(3) 99_656 103_665
C2 C1 C2 C3 172.4(8) 99_656 .
C1 C2 C3 O1 0.1(18) . .
C1 C2 C3 O1 177.4(11) 103_665 .
C1 C2 C3 O1 -177.4(11) . 62
C1 C2 C3 O1 -0.1(18) 103_665 62
O1 C3 O1 Hf1 13.3(19) 62 .
C2 C3 O1 Hf1 -164.0(7) . .
O5 V2 O5 Hf1 -75.9(14) 117 .
O9 V2 O5 Hf1 178(2) . .
O8 V2 O5 Hf1 -120.2(10) . .
Hf1 O5 V1 O5 -1(3) . 117
