#------------------------------------------------------------------------------
#$Date: 2019-11-26 01:22:06 +0200 (Tue, 26 Nov 2019) $
#$Revision: 242263 $
#$URL: file:///home/coder/svn-repositories/cod/cif/4/13/22/4132267.cif $
#------------------------------------------------------------------------------
#
# This file is available in the Crystallography Open Database (COD),
# http://www.crystallography.net/
#
# All data on this site have been placed in the public domain by the
# contributors.
#
data_4132267
loop_
_publ_author_name
'Hua, Carol'
'Doheny, Patrick W.'
'Ding, Bowen'
'Chan, Bun'
'Yu, Michelle'
'Kepert, Cameron J.'
'D'Alessandro, Deanna M'
_publ_section_title
;
 Through-Space Intervalence Charge Transfer as a Mechanism for Charge
 Delocalization in Metal-Organic Frameworks.
;
_journal_issue                   21
_journal_name_full               'Journal of the American Chemical Society'
_journal_page_first              6622
_journal_page_last               6630
_journal_paper_doi               10.1021/jacs.8b02638
_journal_volume                  140
_journal_year                    2018
_chemical_formula_sum            'C33 H31 N5 O S2'
_chemical_formula_weight         577.75
_space_group_crystal_system      triclinic
_space_group_IT_number           2
_space_group_name_Hall           '-P 1'
_space_group_name_H-M_alt        'P -1'
_atom_sites_solution_hydrogens   mixed
_audit_creation_method           SHELXL-2014/7
_cell_angle_alpha                111.386(4)
_cell_angle_beta                 96.819(4)
_cell_angle_gamma                98.464(4)
_cell_formula_units_Z            2
_cell_length_a                   10.4690(5)
_cell_length_b                   11.9902(5)
_cell_length_c                   12.8629(6)
_cell_measurement_reflns_used    14743
_cell_measurement_temperature    150(2)
_cell_measurement_theta_max      76.1013
_cell_measurement_theta_min      3.7538
_cell_volume                     1460.78(13)
_computing_cell_refinement
;
CrysAlisPro, Agilent Technologies,
Version 1.171.35.19 (release 27-10-2011 CrysAlis171 .NET)
(compiled Oct 27 2011,15:02:11)
;
_computing_data_collection
;
CrysAlisPro, Agilent Technologies,
Version 1.171.35.19 (release 27-10-2011 CrysAlis171 .NET)
(compiled Oct 27 2011,15:02:11)
;
_computing_data_reduction
;
CrysAlisPro, Agilent Technologies,
Version 1.171.35.19 (release 27-10-2011 CrysAlis171 .NET)
(compiled Oct 27 2011,15:02:11)
;
_computing_molecular_graphics    'WinGX (Farrugia, 1999)'
_computing_structure_refinement  'SHELXL-2014/7 (Sheldrick, 2014)'
_computing_structure_solution    'SHELXT (Sheldrick, 2014)'
_diffrn_ambient_temperature      150(2)
_diffrn_detector_area_resol_mean 10.5861
_diffrn_measured_fraction_theta_full 0.999
_diffrn_measured_fraction_theta_max 0.988
_diffrn_measurement_device_type  'SuperNova, Dual, Cu at zero, Atlas'
_diffrn_measurement_method       '\w scans'
_diffrn_radiation_source         'SuperNova (Cu) X-ray Source'
_diffrn_radiation_type           CuK\a
_diffrn_radiation_wavelength     1.54178
_diffrn_reflns_av_R_equivalents  0.0582
_diffrn_reflns_av_unetI/netI     0.0363
_diffrn_reflns_Laue_measured_fraction_full 0.999
_diffrn_reflns_Laue_measured_fraction_max 0.988
_diffrn_reflns_limit_h_max       13
_diffrn_reflns_limit_h_min       -13
_diffrn_reflns_limit_k_max       15
_diffrn_reflns_limit_k_min       -15
_diffrn_reflns_limit_l_max       16
_diffrn_reflns_limit_l_min       -15
_diffrn_reflns_number            30399
_diffrn_reflns_point_group_measured_fraction_full 0.999
_diffrn_reflns_point_group_measured_fraction_max 0.988
_diffrn_reflns_theta_full        67.679
_diffrn_reflns_theta_max         76.147
_diffrn_reflns_theta_min         3.757
_exptl_absorpt_coefficient_mu    1.930
_exptl_absorpt_correction_T_max  1.00000
_exptl_absorpt_correction_T_min  0.57337
_exptl_absorpt_correction_type   multi-scan
_exptl_absorpt_process_details
;
CrysAlisPro, Agilent Technologies,
Version 1.171.35.19 (release 27-10-2011 CrysAlis171 .NET)
(compiled Oct 27 2011,15:02:11)
Empirical absorption correction using spherical harmonics,
 implemented in SCALE3 ABSPACK scaling algorithm.
;
_exptl_crystal_colour            Colourless
_exptl_crystal_density_diffrn    1.314
_exptl_crystal_density_meas      ?
_exptl_crystal_density_method    'not measured'
_exptl_crystal_description       Needle
_exptl_crystal_F_000             608
_exptl_crystal_size_max          0.26
_exptl_crystal_size_mid          0.06
_exptl_crystal_size_min          0.024
_refine_diff_density_max         1.003
_refine_diff_density_min         -0.601
_refine_diff_density_rms         0.084
_refine_ls_extinction_method     none
_refine_ls_goodness_of_fit_ref   1.032
_refine_ls_hydrogen_treatment    mixed
_refine_ls_matrix_type           full
_refine_ls_number_parameters     374
_refine_ls_number_reflns         6049
_refine_ls_number_restraints     0
_refine_ls_restrained_S_all      1.032
_refine_ls_R_factor_all          0.0717
_refine_ls_R_factor_gt           0.0635
_refine_ls_shift/su_max          0.000
_refine_ls_shift/su_mean         0.000
_refine_ls_structure_factor_coef Fsqd
_refine_ls_weighting_details
'w=1/[\s^2^(Fo^2^)+(0.0830P)^2^+2.8010P] where P=(Fo^2^+2Fc^2^)/3'
_refine_ls_weighting_scheme      calc
_refine_ls_wR_factor_gt          0.1670
_refine_ls_wR_factor_ref         0.1733
_reflns_Friedel_coverage         0.000
_reflns_number_gt                5266
_reflns_number_total             6049
_reflns_threshold_expression     'I > 2\s(I)'
_cod_data_source_file            ja8b02638_si_003.cif
_cod_data_source_block           shelx
_cod_depositor_comments
;
The following automatic conversions were performed:

data item '_exptl_crystal_density_meas' value 'not measured' was
changed to '?' -- the value is perceived as not measured.

Automatic conversion script
Id: cif_fix_values 6909 2019-04-08 15:41:33Z antanas 
;
_cod_original_cell_volume        1460.78(12)
_cod_database_code               4132267
_shelx_shelxl_version_number     2014/7
_shelx_space_group_comment
;
The symmetry employed for this shelxl refinement is uniquely defined
by the following loop, which should always be used as a source of
symmetry information in preference to the above space-group names.
They are only intended as comments.
;
_shelx_res_file
;

    shelx.res created by SHELXL-2014/7


TITL shelxt_a.res in P-1
CELL  1.54178  10.4690  11.9902  12.8629  111.386   96.819   98.464
ZERR     2.00   0.0005   0.0005   0.0006    0.004    0.004    0.004
LATT   1
SFAC  C    H    N    O    MG   S
UNIT  66 62 10 2 0 4
MERG   2
FMAP   2
PLAN   20
ACTA
BOND   $H
LIST   4
OMIT 2 -6 15
OMIT -5 4 11
OMIT 2 -5 14
OMIT 5 -5 14
L.S.  10
TEMP  -123.00
WGHT    0.083000    2.801000
FVAR       0.44847
S1    6    0.561948    0.174677    0.509414    11.00000    0.03133    0.02952 =
         0.02863    0.01711    0.01872    0.01071
S2    6    0.452902    0.167986    0.074156    11.00000    0.03682    0.02763 =
         0.02535    0.01694    0.02063    0.01274
N5    3    0.425863   -0.037047    0.105087    11.00000    0.02491    0.02848 =
         0.02188    0.01465    0.01358    0.00721
O1    4    0.535691    0.503253    0.737542    11.00000    0.04813    0.05176 =
         0.06035    0.04280    0.01373    0.00789
N4    3    0.582157   -0.046419    0.381237    11.00000    0.02616    0.03410 =
         0.02717    0.01883    0.01685    0.01170
N2    3   -0.001350    0.330046    0.701625    11.00000    0.03421    0.03148 =
         0.03057    0.01253    0.02144    0.00622
N1    3    1.098455    0.334634    0.006666    11.00000    0.03127    0.03939 =
         0.03829    0.02514    0.01774    0.00907
C26   1    0.340507    0.121357    0.244797    11.00000    0.02129    0.03066 =
         0.01667    0.01435    0.01074    0.00764
C28   1    0.403470    0.073839    0.145964    11.00000    0.01956    0.02841 =
         0.02089    0.01427    0.00966    0.00556
C14   1    0.615209    0.069422    0.395962    11.00000    0.02125    0.03250 =
         0.02316    0.01741    0.01054    0.01052
C33   1    0.512177    0.049161   -0.015563    11.00000    0.02191    0.02717 =
         0.02047    0.01438    0.01049    0.00639
C32   1    0.489033    0.053505    0.538458    11.00000    0.02482    0.03188 =
         0.02525    0.01837    0.01335    0.01103
C13   1    0.693451    0.112653    0.325298    11.00000    0.01982    0.03245 =
         0.02265    0.01619    0.00983    0.00790
C27   1    0.352481    0.245988    0.304604    11.00000    0.02282    0.02991 =
         0.02162    0.01792    0.01191    0.00751
AFIX  43
H27   2    0.403933    0.302237    0.282021    11.00000   -1.20000
AFIX   0
N3    3    0.549917    0.376169    0.831461    11.00000    0.05755    0.03758 =
         0.04129    0.02566    0.00958    0.01475
C21   1    0.204151    0.079549    0.371162    11.00000    0.02416    0.03094 =
         0.02486    0.01595    0.01355    0.00507
C7    1    0.839854    0.073154    0.189087    11.00000    0.02763    0.03003 =
         0.02485    0.01474    0.01351    0.01080
C22   1    0.290548    0.290437    0.397209    11.00000    0.02220    0.02891 =
         0.02069    0.01475    0.00962    0.00857
C12   1    0.697740    0.228852    0.323901    11.00000    0.02400    0.03231 =
         0.02521    0.01672    0.01374    0.01262
AFIX  43
H12   2    0.649672    0.281899    0.370282    11.00000   -1.20000
AFIX   0
C17   1    0.141166    0.250005    0.524768    11.00000    0.02342    0.02603 =
         0.02355    0.01244    0.01283    0.00517
C20   1    0.214354    0.205782    0.429501    11.00000    0.02032    0.03057 =
         0.01917    0.01413    0.00987    0.00756
C6    1    0.843477    0.191227    0.189143    11.00000    0.02041    0.03033 =
         0.02008    0.01418    0.00843    0.00712
C16   1    0.186626    0.256301    0.633052    11.00000    0.02660    0.03261 =
         0.02678    0.01769    0.01323    0.00743
AFIX  43
H16   2    0.267289    0.233204    0.649275    11.00000   -1.20000
AFIX   0
C15   1    0.113321    0.296568    0.717273    11.00000    0.03780    0.03427 =
         0.02106    0.01436    0.01438    0.00525
AFIX  43
H15   2    0.146715    0.300634    0.790825    11.00000   -1.20000
AFIX   0
C4    1    0.883468    0.241675    0.018531    11.00000    0.02387    0.03577 =
         0.02505    0.01577    0.01071    0.00802
AFIX  43
H4    2    0.793177    0.211335   -0.015631    11.00000   -1.20000
AFIX   0
C9    1    0.770963    0.268708    0.255983    11.00000    0.02374    0.02900 =
         0.02572    0.01502    0.01050    0.00926
C5    1    0.970272    0.291186   -0.034810    11.00000    0.03351    0.04044 =
         0.02662    0.02122    0.01534    0.01298
AFIX  43
H5    2    0.936045    0.294240   -0.105288    11.00000   -1.20000
AFIX   0
C3    1    0.930153    0.237064    0.122182    11.00000    0.02396    0.02592 =
         0.02435    0.01345    0.01205    0.00811
C11   1    0.764414    0.035543    0.256834    11.00000    0.02867    0.02788 =
         0.02790    0.01713    0.01400    0.01022
AFIX  43
H11   2    0.761112   -0.044189    0.256512    11.00000   -1.20000
AFIX   0
C18   1    0.021478    0.284746    0.507421    11.00000    0.02755    0.04033 =
         0.02567    0.01796    0.01253    0.01110
AFIX  43
H18   2   -0.014244    0.281963    0.434874    11.00000   -1.20000
AFIX   0
C19   1   -0.044541    0.323253    0.596931    11.00000    0.02717    0.03940 =
         0.03451    0.01879    0.01731    0.01195
AFIX  43
H19   2   -0.125858    0.346388    0.583183    11.00000   -1.20000
AFIX   0
C25   1    0.267681    0.038668    0.279713    11.00000    0.02665    0.02572 =
         0.02388    0.01141    0.01385    0.00515
AFIX  43
H25   2    0.261523   -0.046676    0.240384    11.00000   -1.20000
AFIX   0
C23   1    0.308164    0.426527    0.461144    11.00000    0.03607    0.02934 =
         0.03112    0.01613    0.01936    0.01030
AFIX  33
H23A  2    0.258626    0.442404    0.523273    11.00000   -1.50000
H23B  2    0.401633    0.462299    0.492406    11.00000   -1.50000
H23C  2    0.275694    0.463405    0.409341    11.00000   -1.50000
AFIX   0
C2    1    1.063405    0.281416    0.165428    11.00000    0.02733    0.05139 =
         0.02995    0.02521    0.00671    0.00524
AFIX  43
H2    2    1.100320    0.279692    0.235819    11.00000   -1.20000
AFIX   0
C29   1    0.491816    0.448852    0.793584    11.00000    0.03658    0.03452 =
         0.04082    0.02358    0.00818    0.00544
C8    1    0.915389   -0.012625    0.117079    11.00000    0.05079    0.03562 =
         0.04081    0.02281    0.03243    0.02080
AFIX  33
H8A   2    0.963153    0.027306    0.074730    11.00000   -1.50000
H8B   2    0.978052   -0.033973    0.165980    11.00000   -1.50000
H8C   2    0.854208   -0.087130    0.063580    11.00000   -1.50000
AFIX   0
C10   1    0.770753    0.394372    0.255296    11.00000    0.04668    0.03281 =
         0.04094    0.02265    0.02583    0.01821
AFIX  33
H10A  2    0.826730    0.408297    0.203491    11.00000   -1.50000
H10B  2    0.680776    0.399896    0.229752    11.00000   -1.50000
H10C  2    0.804618    0.456463    0.332199    11.00000   -1.50000
AFIX   0
C1    1    1.142721    0.328265    0.105915    11.00000    0.02522    0.05088 =
         0.04020    0.02613    0.01023    0.00206
AFIX  43
H1    2    1.233808    0.357572    0.137357    11.00000   -1.20000
AFIX   0
C24   1    0.123177   -0.012618    0.404679    11.00000    0.04210    0.02954 =
         0.03815    0.01458    0.02657    0.00299
AFIX  33
H24A  2    0.085071    0.030516    0.470244    11.00000   -1.50000
H24B  2    0.052480   -0.065161    0.340817    11.00000   -1.50000
H24C  2    0.179473   -0.062973    0.424709    11.00000   -1.50000
AFIX   0
C30   1    0.680393    0.357651    0.812445    11.00000    0.06395    0.06343 =
         0.06381    0.01909    0.00241    0.03550
AFIX  33
H30A  2    0.706557    0.301443    0.846389    11.00000   -1.50000
H30B  2    0.679771    0.322675    0.730575    11.00000   -1.50000
H30C  2    0.743005    0.436323    0.847525    11.00000   -1.50000
AFIX   0
C31   1    0.486276    0.317280    0.898934    11.00000    0.10870    0.05200 =
         0.05181    0.03819    0.01355    0.00710
AFIX  33
H31A  2    0.542764    0.267340    0.919455    11.00000   -1.50000
H31B  2    0.471776    0.380082    0.968202    11.00000   -1.50000
H31C  2    0.401668    0.264981    0.854329    11.00000   -1.50000
AFIX   0
H100  2    0.405715    0.458291    0.816852    11.00000    0.04757
HKLF    4

REM  shelxt_a.res in P-1
REM R1 =  0.0635 for    5266 Fo > 4sig(Fo)  and  0.0717 for all    6049 data
REM    374 parameters refined using      0 restraints

END

WGHT      0.0859      2.3601

REM Highest difference peak  1.003,  deepest hole -0.601,  1-sigma level  0.084
Q1    1   0.2397  0.5003  0.9457  11.00000  0.05    1.00
Q2    1   0.3588  0.4783  0.4271  11.00000  0.05    0.57
Q3    1   0.1631  0.0022  0.4929  11.00000  0.05    0.57
Q4    1   0.1354 -0.0987  0.3521  11.00000  0.05    0.57
Q5    1   0.2265  0.4510  0.4703  11.00000  0.05    0.56
Q6    1   0.8873 -0.0194  0.0461  11.00000  0.05    0.52
Q7    1   0.3563  0.4457  0.5395  11.00000  0.05    0.52
Q8    1   0.7123  0.4388  0.2974  11.00000  0.05    0.49
Q9    1   0.0296 -0.0014  0.3914  11.00000  0.05    0.49
Q10   1   0.6768  0.2647  0.7815  11.00000  0.05    0.48
Q11   1   1.0121  0.0256  0.1345  11.00000  0.05    0.44
Q12   1   0.8958 -0.0926  0.1314  11.00000  0.05    0.43
Q13   1   0.7520  0.3959  0.1868  11.00000  0.05    0.42
Q14   1   0.4798  0.2209  0.8626  11.00000  0.05    0.42
Q15   1   0.4220  0.1311  0.1239  11.00000  0.05    0.41
Q16   1   0.3867  0.3423  0.9159  11.00000  0.05    0.40
Q17   1   0.5590  0.3537  0.9713  11.00000  0.05    0.39
Q18   1   0.7101  0.3973  0.7525  11.00000  0.05    0.39
Q19   1   0.4327  0.2561  0.1028  11.00000  0.05    0.39
Q20   1   0.5896  0.0908  0.4831  11.00000  0.05    0.37
;
_shelx_res_checksum              61242
_shelx_hkl_file
;
   0   0  -1   46.90    1.60
   0   0   1   43.70    1.60
   0   0  -2    1.60    0.50
   0   0   2    1.10    0.80
   0   0   2    1.20    0.50
   0   0   2    1.40    0.40
   0   0  -2    1.70    0.70
   0   0  -3   96.29    3.10
   0   0   3   92.99    4.30
   0   0   3   88.79    3.00
   0   0   3   94.79    3.40
   0   0  -3   94.59    3.90
   0   0   4  102.19    3.90
   0   0   4   87.09    3.30
   0   0   4   93.29    3.90
   0   0   4   91.49    5.10
   0   0   4   80.69    3.90
   0   0  -4   93.99    3.50
   0   0  -4   95.19    4.60
   0   0   5  108.59    3.90
   0   0   5  111.39    4.70
   0   0   5  112.69    6.60
   0   0  -5  101.99    3.90
   0   0   5  107.79    5.20
   0   0  -5  103.59    5.40
   0   0   5  111.59    4.10
   0   0  -6    0.50    1.30
   0   0  -6    0.20    0.60
   0   0   6    0.40    0.90
   0   0   6   -0.60    1.90
   0   0   7    0.40    0.90
   0   0  -7    1.00    1.40
   0   0   7    0.40    2.00
   0   0   8  147.29   10.40
   0   0  -8  138.09    8.10
   0   0  -9  117.29    8.00
   0   0   9  118.99    4.60
   0   0   9  127.79    4.20
   0   0   9  126.39   10.50
   0   0   9  108.19    4.20
   0   0   9  115.99    4.40
   0   0  10  131.09    4.80
   0   0  10  123.29    5.00
   0   0  10  125.59   10.80
   0   0  10  120.09    4.70
   0   0  10  112.39    4.70
   0   0 -11    8.20    1.30
   0   0  11    9.60    1.60
   0   0  11    8.30    1.50
   0   0  11    9.60    1.50
   0   0  12   31.70    2.60
   0   0  12   28.60    2.40
   0   0  12   30.60    2.30
   0   0 -12   24.40    1.90
   0   0  12   26.90    2.40
   0   0  13    0.50    0.80
   0   0  13    0.00    0.90
   0   0 -14    4.90    1.60
   0   0  14    3.40    0.90
   0   0  14    2.10    0.80
   0  -1  15    8.40    0.90
   0  -1  15    9.90    0.90
   0   1 -15   10.50    1.10
   0  -1  14    7.60    1.10
   0  -1  14    7.10    1.20
   0  -1  13    3.20    1.10
   0  -1  13    5.30    1.20
   0  -1  13    4.80    1.30
   0  -1  12    7.40    1.50
   0  -1  12    7.60    1.50
   0  -1  12    6.70    1.40
   0  -1  12    7.90    1.50
   0  -1  11  164.08    5.90
   0  -1  11  151.88    4.50
   0  -1  11  157.68    5.60
   0  -1  11  161.08    5.70
   0  -1  11  152.78    5.70
   0   1 -10   50.49    5.60
   0  -1  10   64.99    3.10
   0  -1  10   46.40    2.50
   0  -1  10   55.39    3.20
   0  -1  10   56.19    3.20
   0  -1  10   53.59    3.20
   0  -1  10   56.29    7.10
   0  -1   9  117.19    9.50
   0   1  -9   99.79    7.40
   0   1  -8   96.59    6.80
   0  -1   8  111.29    6.70
   0  -1   8  106.89    8.30
   0  -1   7  202.58    8.60
   0   1  -7  185.08    8.70
   0  -1   7  187.98   10.00
   0  -1   6    0.60    1.80
   0  -1   6    0.80    1.20
   0  -1   6    0.40    0.80
   0   1  -6    1.00    1.30
   0   1  -6    1.90    0.70
   0  -1   5    4.00    1.80
   0   1  -5    3.70    0.80
   0  -1   5    4.30    1.10
   0   1  -5    3.60    1.50
   0  -1   5    5.30    1.40
   0  -1   4   79.89    4.40
   0   1  -4   81.29    3.30
   0   1  -4   78.99    4.10
   0  -1   4   74.09    3.50
   0  -1   4   81.79    4.10
   0   1  -3   26.10    2.10
   0  -1   3   25.90    1.90
   0   1  -3   30.20    1.90
   0  -1   3   29.30    2.20
   0  -1   3   27.50    2.20
   0  -1   2  568.74    8.70
   0  -1   2  551.24    9.00
   0   1  -1  262.47    3.50
   0  -1   1  274.47    4.10
   0  -1   1  268.77    3.60
   0  -1   1  270.77    3.80
   0   1   0 1188.38    9.90
   0  -1   0 1172.08    7.60
   0  -1   0 1097.49    7.30
   0  -1   0 1129.79    8.10
   0   1   1  994.60   13.50
   0   1   1 1004.70   14.20
   0  -1  -1  998.00   12.30
   0  -1  -1  988.50   12.40
   0   1   2   44.80    2.60
   0  -1  -2   45.00    2.10
   0   1   2   42.50    2.80
   0  -1  -2   44.40    2.30
   0   1   2   41.70    2.70
   0  -1  -3   11.60    1.60
   0   1   3   11.80    2.20
   0  -1  -3   12.40    1.30
   0   1   3   13.40    1.70
   0  -1  -4  536.05   11.90
   0   1   4  531.65    9.10
   0   1   4  565.54   11.60
   0   1   4  545.85   14.20
   0  -1  -4  531.95   10.00
   0  -1  -5   27.90    2.90
   0   1   5   34.00    3.40
   0   1   5   29.80    4.00
   0   1   5   29.70    2.70
   0  -1  -5   27.70    2.20
   0   1   5   20.20    2.40
   0  -1  -6   17.20    2.70
   0   1   6   14.60    2.10
   0   1   6   18.90    3.60
   0   1   7    0.80    2.00
   0  -1  -7   -0.30    0.80
   0  -1  -7   -0.20    1.30
   0   1   8   14.90    4.00
   0  -1  -8   11.00    2.50
   0   1   9   14.30    1.80
   0   1   9   21.50    4.80
   0   1   9   17.90    1.80
   0  -1  -9   14.40    1.60
   0   1   9   18.20    1.80
   0   1   9   17.60    1.90
   0  -1  -9   16.40    3.20
   0   1   9   15.10    1.80
   0   1  10    1.70    1.20
   0   1  10    1.70    1.10
   0   1  10    1.20    0.70
   0   1  10    1.90    1.00
   0  -1 -10    2.10    0.90
   0   1  10    1.30    0.90
   0   1  10    2.00    1.00
   0  -1 -11   74.29    3.50
   0   1  11   87.09    4.00
   0   1  11   79.49    4.10
   0   1  11   74.19    3.90
   0   1  12    1.40    1.00
   0   1  12    2.40    1.10
   0  -1 -12    1.30    0.80
   0   1  12    2.20    1.20
   0   1  13   -0.40    0.80
   0  -1 -13    0.60    0.50
   0   1  13    0.00    0.70
   0   1  14    3.00    0.70
   0   1  14    5.30    0.80
   0  -1 -14    3.20    1.30
   0  -2  15    7.80    1.40
   0  -2  15   10.90    1.10
   0  -2  15    9.20    1.00
   0   2 -15    9.40    1.20
   0  -2  14   11.30    1.40
   0  -2  14    8.30    1.30
   0  -2  13    6.10    1.30
   0  -2  13    7.10    1.40
   0  -2  13    9.00    1.60
   0  -2  12   49.10    3.30
   0  -2  12   53.19    3.30
   0  -2  12   48.60    3.00
   0  -2  12   47.80    3.20
   0  -2  11    4.10    1.30
   0  -2  11    1.90    1.00
   0  -2  11    2.50    0.90
   0  -2  11    3.10    1.00
   0  -2  11    2.90    1.00
   0  -2  10   82.39    3.80
   0  -2  10   83.79    3.70
   0  -2  10   82.79    8.10
   0  -2  10   84.19    4.00
   0   2 -10   84.69    7.10
   0  -2  10   75.39    3.10
   0  -2  10   88.39    4.00
   0  -2  10   71.59    3.20
   0   2  -9  117.69    8.00
   0  -2   9  123.19    9.30
   0   2  -8  106.79    7.10
   0  -2   8  114.59    8.00
   0  -2   8  102.29    6.70
   0  -2   7   84.29    5.70
   0   2  -7   88.49    5.90
   0  -2   7   82.89    4.90
   0  -2   7   90.09    6.50
   0  -2   6   25.60    3.20
   0  -2   6   25.70    2.70
   0   2  -6   24.60    2.20
   0   2  -6   22.80    2.90
   0  -2   6   26.60    3.00
   0  -2   5   72.39    4.50
   0   2  -5   77.79    3.90
   0   2  -5   72.89    4.50
   0  -2   5   68.49    4.00
   0  -2   5   72.99    4.40
   0  -2   4    0.10    0.90
   0  -2   4    0.30    0.20
   0  -2   4    0.00    0.80
   0  -2   4    0.10    1.00
   0   2  -4   -0.20    1.00
   0   2  -4    0.80    0.70
   0  -2   4    1.10    0.90
   0  -2   3   32.10    2.00
   0  -2   3   33.10    1.40
   0  -2   3   32.70    2.30
   0  -2   3   31.90    2.40
   0   2  -2   75.09    2.00
   0  -2   2   71.49    2.00
   0  -2   2   74.59    2.50
   0   2  -1 1390.76   16.60
   0  -2   1 1417.66   17.20
   0  -2   0  682.83    9.00
   0  -2   0  664.73    9.60
   0   2   1 1264.87   18.70
   0   2   1 1358.76   19.20
   0  -2  -1 1288.77   17.80
   0   2   1 1329.97   20.90
   0   2   2  788.12   15.40
   0  -2  -2  763.82   12.70
   0   2   2  768.22   14.40
   0   2   2  752.32   14.70
   0  -2  -3   -0.10    0.70
   0   2   3    0.70    1.60
   0  -2  -3    0.40    1.00
   0   2   3   -0.60    1.00
   0   2   3    0.30    1.10
   0  -2  -4  105.59    4.60
   0   2   4  116.29    5.70
   0  -2  -4  115.09    5.30
   0   2   4  112.29    6.80
   0  -2  -5  184.38    6.50
   0   2   5  205.88    7.80
   0  -2  -5  194.68    7.80
   0   2   5  204.78   10.30
   0   2   6  370.36   15.50
   0  -2  -6  333.77   11.40
   0  -2  -7    5.70    1.90
   0  -2  -7    4.90    1.60
   0   2   7    5.30    2.60
   0   2   8   -0.70    0.80
   0   2   8   -0.10    0.80
   0   2   8    0.40    0.80
   0  -2  -8    0.10    0.60
   0  -2  -8   -0.80    0.90
   0  -2  -8    1.00    1.20
   0   2   8    0.00    0.70
   0   2   8   -0.20    0.70
   0   2   8   -0.20    1.80
   0   2   9  190.38    6.20
   0  -2  -9  159.78    5.20
   0   2   9  172.78    6.00
   0   2   9  171.48    5.70
   0   2   9  179.48    6.10
   0   2   9  171.68    5.90
   0  -2  -9  175.08    5.70
   0   2  10    3.80    1.10
   0   2  10    5.50    1.40
   0   2  10    5.10    1.30
   0   2  10    6.80    1.40
   0   2  10    4.30    1.40
   0  -2 -10    3.70    1.20
   0   2  11   72.19    3.70
   0   2  11   74.69    3.70
   0   2  11   69.39    3.50
   0  -2 -11   72.09    3.40
   0   2  11   82.19    4.10
   0   2  12   11.10    1.60
   0   2  12    8.60    1.40
   0  -2 -12   10.30    1.20
   0   2  12   10.70    1.50
   0  -2 -13    9.60    0.80
   0   2  13   12.80    1.20
   0   2  13   11.20    1.30
   0  -3  15    0.20    0.60
   0  -3  15   -0.20    0.70
   0  -3  14  154.38    4.90
   0  -3  14  150.28    4.80
   0  -3  13   65.19    3.10
   0  -3  13    6.70    1.40
   0  -3  13   71.59    3.00
   0  -3  13    6.60    1.40
   0  -3  13    9.20    1.80
   0  -3  12  131.39    4.40
   0  -3  12  114.29    4.20
   0  -3  12  120.29    4.90
   0  -3  12  126.69    5.10
   0  -3  12  117.89    5.10
   0  -3  11   13.30    1.50
   0  -3  11   12.30    1.70
   0  -3  11   13.10    1.60
   0  -3  11   11.10    1.30
   0  -3  11   12.40    1.80
   0  -3  11   11.00    1.40
   0  -3  11   13.70    1.70
   0  -3  10    6.00    1.40
   0  -3  10    4.50    1.00
   0  -3  10    2.90    0.90
   0   3 -10    3.80    1.90
   0  -3  10    2.40    0.80
   0  -3  10    4.30    1.10
   0  -3  10    3.70    0.90
   0  -3  10    4.20    1.00
   0  -3   9  115.39    7.80
   0  -3   9  113.99    8.30
   0   3  -9  106.09    7.60
   0  -3   8   69.09    6.00
   0   3  -8   74.49    5.80
   0  -3   8   78.09    6.10
   0  -3   7  548.55   15.60
   0  -3   7  520.05   14.40
   0   3  -7  509.35   14.70
   0  -3   7  508.05   14.70
   0   3  -6   18.60    2.60
   0   3  -6   17.10    2.20
   0  -3   6   16.50    2.60
   0  -3   6   18.00    2.50
   0  -3   6   15.30    2.40
   0   3  -5  397.46   11.10
   0  -3   5  415.46   11.60
   0  -3   5  450.15   12.10
   0  -3   5  453.75   11.80
   0   3  -5  439.16   10.70
   0  -3   5  434.56   10.30
   0  -3   4  214.78    7.70
   0  -3   4  236.28    7.40
   0   3  -4  230.88    5.40
   0  -3   4  236.28    6.20
   0  -3   4  218.28    5.00
   0  -3   4  238.28    7.80
   0  -3   3    9.20    0.90
   0  -3   3   10.00    1.20
   0  -3   3    9.70    1.50
   0   3  -3   10.00    0.90
   0   3  -2  465.65    7.20
   0  -3   2  491.85    9.50
   0  -3   2  472.65    8.10
   0   3  -1  131.99    6.10
   0  -3   1  120.39    4.00
   0  -3   1  120.19    4.60
   0  -3   0  959.00   16.10
   0  -3   0  981.80   16.70
   0   3   0 1005.40   19.10
   0   3   0  961.20   14.30
   0   3   1  107.19    4.80
   0   3   1  110.79    6.20
   0  -3  -1  113.79    4.60
   0   3   1  116.99    5.10
   0   3   2   15.70    2.30
   0  -3  -2   18.80    1.90
   0  -3  -2   16.00    1.90
   0   3   2   14.20    2.60
   0   3   2   16.90    2.40
   0   3   3  234.58    9.10
   0   3   3  234.58    9.40
   0  -3  -3  258.47    7.60
   0   3   3  253.27    9.80
   0  -3  -3  231.88    7.50
   0   3   4  180.98    8.30
   0   3   4  173.58    9.10
   0  -3  -4  179.18    7.00
   0  -3  -4  158.98    6.40
   0  -3  -5   39.20    3.20
   0   3   5   50.49    6.10
   0   3   5   54.79    5.90
   0  -3  -5   43.60    4.10
   0  -3  -5   41.60    3.80
   0  -3  -6    2.90    1.50
   0  -3  -6    3.60    1.70
   0   3   6    2.80    2.20
   0  -3  -7  265.97   11.20
   0  -3  -7  292.37   11.80
   0   3   8   65.09    3.60
   0  -3  -8   63.99    3.30
   0   3   8   64.19    3.60
   0  -3  -8   66.69    6.00
   0  -3  -8   64.39    3.50
   0   3   8   61.09    3.50
   0   3   8   71.69    8.20
   0   3   8   58.99    3.40
   0   3   8   66.49    3.60
   0   3   9   16.90    2.00
   0   3   9   15.80    2.00
   0   3   9   19.40    2.20
   0  -3  -9   17.90    2.00
   0   3   9   17.40    2.10
   0   3   9   19.30    2.20
   0   3  10   63.69    3.60
   0  -3 -10   75.69    3.70
   0   3  10   82.49    4.20
   0   3  10   78.79    4.10
   0   3  10   61.99    3.60
   0   3  10   71.89    3.70
   0   3  11   14.50    1.90
   0  -3 -11   13.30    1.50
   0   3  11   13.80    1.70
   0  -3 -11   12.60    1.40
   0   3  11   14.30    1.60
   0   3  11   13.00    1.60
   0   3  12    7.40    1.00
   0   3  12    8.60    1.10
   0   3  12    8.60    1.30
   0   3  12    9.00    1.40
   0  -3 -12    6.70    0.90
   0  -3 -13    1.50    0.60
   0   3  13   -0.20    0.50
   0   3  13    0.70    0.60
   0  -4  15    1.90    0.90
   0  -4  15    0.80    0.70
   0  -4  14   60.99    3.20
   0  -4  14   64.89    3.30
   0  -4  13    4.80    1.60
   0  -4  13    4.80    1.20
   0  -4  13    3.30    1.10
   0  -4  12   84.39    3.70
   0  -4  12  103.59    4.80
   0  -4  12  112.79    4.40
   0  -4  12  106.19    4.60
   0  -4  12  103.59    4.50
   0  -4  12   87.59    3.50
   0  -4  11   -0.20    1.00
   0  -4  11    1.10    0.80
   0  -4  11    0.60    0.80
   0  -4  11    0.80    0.90
   0  -4  11    1.90    1.20
   0  -4  11   -0.10    1.00
   0   4 -10   -0.40    1.10
   0  -4  10   -0.50    1.10
   0  -4  10    1.40    1.00
   0  -4  10    1.10    0.70
   0  -4  10    0.60    0.70
   0  -4  10    1.50    0.80
   0  -4  10    1.50    0.90
   0  -4  10   -0.40    1.00
   0  -4  10    1.70    1.30
   0   4  -9  105.59    7.50
   0  -4   9  113.19    8.00
   0   4  -8  186.68    7.60
   0   4  -8  201.48    9.70
   0   4  -7   51.39    3.50
   0  -4   7   57.59    5.10
   0   4  -7   61.69    4.40
   0   4  -7   57.79    4.80
   0  -4   7   54.99    4.30
   0  -4   6    0.30    1.20
   0   4  -6   -0.50    1.20
   0  -4   6    0.10    1.20
   0   4  -6   -0.10    0.50
   0   4  -6    0.90    0.90
   0  -4   6    0.40    0.70
   0  -4   5  393.36   12.30
   0  -4   5  407.36   12.20
   0  -4   5  406.96   11.50
   0   4  -5  382.86    9.00
   0   4  -5  394.26    8.10
   0   4  -4  213.68    4.90
   0  -4   4  217.88    6.20
   0  -4   4  212.88    5.10
   0  -4   4  235.98    8.40
   0  -4   4  219.58    7.50
   0  -4   3  154.78    6.40
   0   4  -3  144.69    3.70
   0  -4   3  152.28    5.50
   0  -4   3  153.78    4.40
   0  -4   3  150.88    5.90
   0  -4   2    1.20    1.00
   0  -4   2    0.60    0.70
   0  -4   2    0.60    1.00
   0   4  -1  348.37   11.50
   0  -4   1  324.87    7.50
   0   4  -1  327.97    6.40
   0  -4   1  326.87    8.70
   0  -4   0  480.95   11.40
   0   4   0  469.85   10.80
   0  -4  -1    3.20    1.50
   0   4   1    3.00    1.40
   0  -4  -1    1.50    1.90
   0   4   1    3.60    1.40
   0   4   1    4.00    2.30
   0  -4  -2    7.00    1.90
   0   4   2    7.40    1.80
   0   4   2    7.60    2.60
   0   4   2    9.50    2.20
   0  -4  -2    6.90    1.80
   0   4   3  443.26   14.40
   0   4   3  457.95   13.80
   0   4   3  457.95   15.30
   0  -4  -3  439.06   13.00
   0   4   4  115.19    7.40
   0  -4  -4  108.39    6.70
   0  -4  -4  140.89    7.20
   0   4   4  123.09   10.10
   0   4   4  114.19    7.90
   0   4   5   65.79    6.70
   0  -4  -5   75.29    5.90
   0  -4  -5   62.19    5.30
   0   4   5   66.89    7.90
   0  -4  -6   13.90    2.80
   0  -4  -6   15.30    3.50
   0   4   6   13.10    3.50
   0   4   7   59.79    7.40
   0   4   7   58.69    3.40
   0  -4  -7   54.89    5.30
   0  -4  -7   50.69    2.70
   0  -4  -7   61.19    3.40
   0   4   7   58.49    3.30
   0   4   7   58.89    3.40
   0   4   7   51.79    3.30
   0  -4  -8    8.10    1.50
   0   4   8    7.10    1.50
   0   4   8    7.10    1.50
   0   4   8    8.10    1.70
   0   4   8    7.50    1.60
   0   4   8    8.40    1.70
   0  -4  -9   24.60    2.30
   0   4   9   21.60    2.30
   0  -4  -9   17.00    5.40
   0   4   9   22.10    2.30
   0   4   9   21.20    2.20
   0   4   9   24.20    2.40
   0   4   9   24.70    2.40
   0   4  10    4.80    1.40
   0   4  10    3.60    1.20
   0   4  10    4.40    1.40
   0   4  10    3.70    1.20
   0   4  10    3.00    1.20
   0  -4 -10    5.20    1.20
   0  -4 -10    4.80    2.70
   0  -4 -11    0.40    0.60
   0   4  11    0.20    0.60
   0  -4 -11    1.30    0.80
   0   4  11    1.00    0.80
   0   4  11    0.80    1.00
   0  -4 -11    1.30    2.30
   0  -4 -12    2.00    0.50
   0  -4 -12    3.80    0.80
   0   4  12    2.20    0.70
   0   4  12    2.00    0.60
   0  -5  15   11.30    1.30
   0  -5  15   -1.70    1.90
   0  -5  14    0.50    0.90
   0  -5  14    1.70    0.90
   0  -5  13   -0.40    1.10
   0  -5  13    0.40    0.80
   0  -5  12    8.90    1.70
   0  -5  12   12.70    1.90
   0  -5  12    1.90    1.10
   0  -5  12    5.40    1.30
   0  -5  12    8.90    1.50
   0  -5  12    8.70    1.50
   0  -5  11    0.50    1.00
   0  -5  11    1.30    0.70
   0  -5  11    1.30    1.00
   0  -5  11    0.90    1.00
   0  -5  11    1.70    1.00
   0  -5  11    2.70    1.00
   0  -5  11    1.20    0.90
   0   5 -10    8.20    2.30
   0  -5  10    8.60    1.40
   0  -5  10    7.20    1.30
   0  -5  10    9.10    1.30
   0  -5  10    9.30    1.40
   0  -5  10   10.20    1.50
   0  -5  10    6.30    1.20
   0  -5  10    9.40    2.80
   0  -5  10    8.80    1.30
   0   5  -9    1.70    1.30
   0  -5   9    3.40    1.70
   0  -5   8   94.49    7.20
   0   5  -8   88.69    6.30
   0   5  -7    1.20    0.90
   0   5  -7    2.20    1.10
   0  -5   7    2.80    1.50
   0  -5   7    1.50    1.40
   0  -5   6   99.79    6.50
   0  -5   6  103.99    6.50
   0   5  -6  100.39    5.70
   0   5  -5  188.98    7.90
   0  -5   5  189.88    8.10
   0  -5   5  205.78    9.00
   0   5  -5  193.48    7.40
   0   5  -4   37.90    3.10
   0  -5   4   34.70    3.30
   0  -5   4   35.80    3.70
   0  -5   4   34.10    2.30
   0  -5   3 1153.38   21.20
   0  -5   3 1089.19   16.90
   0  -5   3 1124.19   20.20
   0  -5   2   15.20    1.90
   0   5  -2   14.90    1.30
   0   5  -2   17.40    3.40
   0   5  -1  122.99    4.60
   0   5  -1  130.39    8.50
   0  -5   1  118.39    5.40
   0   5   0   15.30    3.30
   0   5   0   14.50    2.40
   0   5   0   14.50    2.00
   0  -5   0   14.70    2.30
   0   5   1   75.19    4.90
   0  -5  -1   89.89    5.50
   0  -5  -1   75.39    5.10
   0   5   1   85.49    5.30
   0   5   1   80.69    6.90
   0   5   2  314.87   13.80
   0  -5  -2  300.97   10.80
   0   5   2  310.37   10.90
   0   5   2  304.97   11.20
   0   5   3    0.00    1.40
   0  -5  -3    3.60    5.70
   0  -5  -3    0.60    1.20
   0   5   3    1.00    1.50
   0   5   4   35.00    4.80
   0   5   4   46.90    7.20
   0  -5  -4   36.30    4.30
   0   5   4   38.10    4.70
   0   5   5    0.20    1.90
   0  -5  -5   -0.10    1.00
   0   5   5    2.60    2.10
   0   5   6   41.30    2.70
   0   5   6   41.20    2.90
   0  -5  -6   40.50    2.60
   0  -5  -6   43.80    2.90
   0  -5  -6   39.70    2.50
   0   5   6   42.00    2.70
   0  -5  -6   41.80    4.40
   0   5   6   42.60    2.70
   0   5   6   39.00    2.80
   0  -5  -6   37.60    4.60
   0   5   6   40.60    5.90
   0   5   7   43.00    2.90
   0  -5  -7   42.30    3.00
   0   5   7   43.10    2.90
   0  -5  -7   36.60    2.40
   0   5   7   38.40    3.00
   0  -5  -7   33.70    2.90
   0  -5  -7   50.19    5.70
   0   5   7   41.70    3.10
   0   5   8  101.49    4.80
   0   5   8  104.69    4.80
   0  -5  -8   94.49    3.70
   0  -5  -8  105.09    4.60
   0   5   8  110.89    4.70
   0   5   8  103.59    4.80
   0  -5  -8  101.29    4.90
   0   5   8  106.19    4.70
   0   5   9    1.60    1.20
   0   5   9    0.90    1.10
   0  -5  -9    0.80    1.00
   0   5   9    0.40    1.00
   0   5   9    0.30    1.00
   0  -5  -9    3.70    2.70
   0   5   9    0.50    1.00
   0  -5 -10    0.00    0.70
   0   5  10   -0.20    0.90
   0   5  10    0.00    0.80
   0  -5 -10    0.50    0.80
   0   5  10    0.20    0.90
   0   5  10   -0.10    0.70
   0   5  11    0.80    0.60
   0  -5 -11    0.10    0.50
   0  -5 -11    0.60    0.50
   0   5  11    1.20    0.50
   0   5  11    1.10    0.80
   0  -5 -11    1.80    0.70
   0  -6  16    8.90    1.50
   0  -6  15   39.10    2.70
   0  -6  15   50.09    2.30
   0  -6  14   20.70    1.90
   0  -6  14  178.48    4.60
   0  -6  13  154.18    4.90
   0  -6  13  139.99    4.90
   0  -6  13  147.39    5.20
   0  -6  12  264.27    7.50
   0  -6  12  241.88    6.70
   0  -6  12  257.57    7.10
   0  -6  12  211.88    6.50
   0  -6  12  199.18    5.90
   0  -6  11    0.30    0.70
   0  -6  11   -0.70    1.10
   0  -6  11   -0.40    0.90
   0  -6  11   -0.40    0.90
   0  -6  11    1.50    1.20
   0  -6  11   -0.30    0.90
   0  -6  11    0.10    0.80
   0  -6  11   -0.80    1.00
   0   6 -10  170.98    9.90
   0  -6  10  206.88    6.30
   0   6 -10  175.58    9.80
   0  -6  10  209.28    6.30
   0  -6  10  209.18    6.40
   0  -6  10  177.08    5.70
   0  -6  10  225.98    6.30
   0  -6  10  170.58    5.30
   0  -6  10  214.28    5.80
   0  -6  10  198.68    5.80
   0  -6  10  211.78    6.50
   0  -6  10  198.68   11.70
   0   6  -9  136.79    8.30
   0   6  -9  144.89    8.40
   0  -6   9  149.39    9.90
   0  -6   8    2.90    1.80
   0   6  -8    1.80    1.20
   0   6  -8    3.50    1.50
   0  -6   7   26.20    3.80
   0  -6   7   27.80    4.00
   0   6  -7   25.50    3.20
   0   6  -7   26.40    3.10
   0  -6   6  207.88    9.60
   0   6  -6  214.28    8.80
   0   6  -6  207.48    8.20
   0  -6   6  226.48   10.60
   0  -6   5   81.39    5.90
   0   6  -5   77.69    6.00
   0   6  -5   84.99    5.20
   0  -6   5   78.49    5.50
   0  -6   4  115.99    7.10
   0  -6   4  122.89    4.90
   0   6  -4  135.99    9.10
   0  -6   4  129.79    6.80
   0  -6   3  166.98    6.30
   0   6  -3  187.88   10.90
   0   6  -2  196.28   11.30
   0  -6   2  176.78    6.80
   0   6  -1   98.79    8.50
   0  -6   1   95.89    5.40
   0   6   0   23.40    4.70
   0   6   0   25.10    3.10
   0  -6   0   25.00    3.20
   0   6   0   22.60    2.70
   0  -6  -1   50.79    4.60
   0   6   1   53.49    6.50
   0   6   1   50.29    4.30
   0   6   1   55.09    4.50
   0   6   2   92.09    8.30
   0   6   2   99.79    6.80
   0  -6  -2   90.69    6.40
   0  -6  -3    6.00    1.90
   0   6   3   10.60    4.30
   0   6   3    7.60    2.40
   0   6   3    8.30    2.90
   0   6   4   -4.40    2.30
   0   6   4   -4.20    3.00
   0  -6  -4   -0.40    1.30
   0  -6  -5  101.19    7.60
   0  -6  -5  104.89    4.40
   0   6   5  111.59    4.80
   0   6   5  110.29    4.70
   0  -6  -5  105.79    4.20
   0  -6  -5  115.09    4.70
   0   6   5  111.19    4.30
   0   6   5  106.99    9.20
   0   6   5  104.99    4.50
   0   6   5  113.69    4.60
   0  -6  -5  121.29    4.70
   0   6   6   29.60    2.40
   0   6   6   28.70    2.60
   0   6   6   30.90    2.40
   0  -6  -6   27.00    2.20
   0   6   6   29.90    2.40
   0   6   6   30.30    2.70
   0  -6  -6   40.10    3.30
   0  -6  -6   32.40    2.70
   0  -6  -6   29.30    2.30
   0  -6  -7   23.70    5.70
   0   6   7   28.80    2.70
   0  -6  -7   28.10    2.20
   0  -6  -7   38.70    3.50
   0   6   7   33.30    2.60
   0   6   7   31.60    2.50
   0   6   7   33.80    2.80
   0   6   7   33.00    2.50
   0  -6  -7   33.00    2.70
   0  -6  -8   16.90    2.80
   0   6   8   18.00    1.90
   0   6   8   18.80    2.20
   0   6   8   18.80    2.20
   0  -6  -8   18.90    2.10
   0  -6  -8   15.90    2.00
   0   6   8   17.80    2.20
   0   6   8   19.00    2.00
   0  -6  -9    2.70    1.00
   0   6   9    1.70    0.90
   0   6   9    2.10    1.20
   0   6   9    2.60    1.10
   0  -6  -9    2.20    1.00
   0   6   9    2.80    1.20
   0   6   9    1.60    0.90
   0  -6 -10   23.50    1.40
   0   6  10   20.30    1.60
   0   6  10   21.50    1.70
   0  -6 -10   20.50    1.50
   0  -6 -10   19.50    1.40
   0   6  10   23.30    1.70
   0  -6 -11   -0.30    0.40
   0   6  11    0.00    0.50
   0  -7  15   14.70    2.90
   0  -7  15   57.79    3.10
   0  -7  14   31.10    2.30
   0  -7  14   18.20    2.60
   0  -7  13  112.09    4.50
   0  -7  13  110.09    4.00
   0  -7  12   24.60    2.20
   0  -7  12   29.20    2.30
   0  -7  12   19.90    2.40
   0  -7  12   23.50    2.30
   0  -7  12   21.60    2.20
   0  -7  12   19.80    2.10
   0  -7  11  309.87    8.30
   0  -7  11  314.17    8.20
   0  -7  11  258.67    6.80
   0  -7  11  332.47    7.50
   0  -7  11  302.47    8.30
   0  -7  11  294.17    7.70
   0  -7  11  277.47    7.60
   0   7 -10   81.89    6.70
   0  -7  10  117.19    4.90
   0  -7  10  109.59    4.80
   0  -7  10  108.09    4.50
   0  -7  10  102.49    4.30
   0  -7  10  124.29    4.30
   0  -7  10   94.99    3.80
   0  -7  10  111.89    4.60
   0  -7   9  102.59    3.60
   0  -7   9   96.49    4.10
   0  -7   9   98.19    8.30
   0  -7   9   87.89    3.70
   0  -7   9   96.69    4.40
   0  -7   9   93.39    4.10
   0  -7   9   80.99    3.30
   0  -7   9   96.99    4.30
   0   7  -9   75.99    6.20
   0   7  -8   -0.70    1.40
   0  -7   8    0.20    1.30
   0  -7   8    0.60    1.40
   0   7  -8   -1.60    1.10
   0  -7   7   68.59    6.20
   0   7  -7   66.99    5.40
   0  -7   7   65.49    6.30
   0   7  -7   61.49    6.80
   0  -7   6   -0.40    1.60
   0   7  -6    0.60    0.80
   0   7  -6    0.90    2.00
   0  -7   6    0.30    1.20
   0   7  -5   87.39    8.20
   0  -7   5   78.19    6.00
   0   7  -5   86.39    7.30
   0   7  -4   24.60    4.60
   0  -7   4   14.40    2.70
   0  -7   3    5.10    1.40
   0   7  -3    1.10    2.30
   0   7  -2  203.98   13.10
   0  -7   2  190.48    8.10
   0   7  -1  145.49   11.20
   0  -7   1  135.99    7.20
   0   7   0    5.20    3.10
   0  -7   0    3.80    1.70
   0   7   1   29.40    5.50
   0  -7  -1   28.40    3.80
   0  -7  -2    1.80    1.50
   0   7   2    0.90    2.50
   0   7   2    4.90    2.50
   0   7   3    9.90    1.40
   0   7   3   10.40    1.60
   0  -7  -3    7.80    2.40
   0  -7  -3   11.40    1.60
   0   7   3    9.60    1.50
   0  -7  -3   11.10    1.60
   0  -7  -3   10.70    1.50
   0   7   3    9.90    4.00
   0   7   4    9.30    1.50
   0   7   4   10.90    1.60
   0   7   4   11.20    1.70
   0  -7  -4   11.90    2.00
   0   7   4   13.70    1.70
   0   7   4   11.70    1.70
   0   7   4    8.20    4.50
   0  -7  -4   10.50    1.60
   0  -7  -4   11.00    1.70
   0  -7  -4    9.80    2.50
   0  -7  -5   42.40    3.00
   0   7   5   39.80    3.00
   0   7   5   40.20    2.60
   0  -7  -5   42.50    3.10
   0  -7  -5   38.10    2.80
   0   7   5   36.20    2.60
   0   7   5   41.60    3.00
   0   7   5   39.90    3.10
   0   7   6   62.09    3.30
   0  -7  -6   66.69    3.70
   0   7   6   66.19    3.90
   0   7   6   67.09    3.90
   0   7   6   67.49    3.60
   0  -7  -6   64.19    3.80
   0   7   6   63.49    3.40
   0  -7  -6   60.89    3.60
   0  -7  -6   59.59    3.30
   0   7   7   12.50    1.60
   0   7   7   13.80    1.60
   0  -7  -7   13.50    1.80
   0  -7  -7    9.10    1.30
   0   7   7   12.20    1.90
   0   7   7   13.10    2.00
   0   7   7   11.40    1.80
   0   7   7   12.80    1.60
   0  -7  -7   12.70    1.80
   0   7   8    1.80    1.20
   0   7   8    2.10    0.90
   0   7   8    3.00    1.30
   0  -7  -8    3.30    0.80
   0  -7  -8    2.60    1.10
   0   7   8    1.90    1.00
   0  -7  -8    2.20    1.10
   0   7   8    1.70    0.90
   0   7   9    2.30    0.90
   0   7   9    0.10    0.60
   0   7   9    0.40    0.80
   0  -7  -9    1.00    0.70
   0  -7  -9    0.10    0.70
   0   7  10   13.50    1.10
   0  -7 -10   14.40    0.90
   0  -7 -10   15.20    1.00
   0  -8  15  126.39    3.90
   0  -8  15   32.30    2.30
   0  -8  14  103.79    4.20
   0  -8  14  253.27    5.30
   0  -8  13   17.00    1.90
   0  -8  13  107.79    4.00
   0  -8  13   83.79    4.30
   0  -8  13   44.30    3.20
   0  -8  12   37.20    2.70
   0  -8  12    1.80    1.00
   0  -8  12    8.30    2.20
   0  -8  12   32.10    2.40
   0  -8  12    1.90    1.00
   0  -8  12   11.40    2.00
   0  -8  12    1.60    1.00
   0  -8  12    2.90    1.20
   0  -8  11  213.88    6.90
   0  -8  11  190.28    5.50
   0  -8  11  216.18    7.10
   0  -8  11  216.28    6.70
   0  -8  11  202.88    6.30
   0  -8  11  219.48    6.00
   0  -8  11  218.78    6.70
   0  -8  11  265.97    6.40
   0  -8  11  156.78    5.50
   0  -8  10  457.55   10.60
   0  -8  10  448.56   10.70
   0  -8  10  455.55   10.30
   0  -8  10  458.15    8.90
   0  -8  10  449.06   10.10
   0  -8  10  471.15    9.70
   0  -8  10  431.86    9.50
   0  -8   9    2.10    1.00
   0  -8   9    2.20    1.00
   0  -8   9    1.20    0.80
   0  -8   9    1.10    0.80
   0  -8   9    3.20    1.10
   0  -8   9    2.00    1.00
   0  -8   8   21.40    2.10
   0  -8   8   19.20    1.90
   0  -8   8   21.50    2.20
   0  -8   8   21.10    3.90
   0  -8   8   16.40    1.60
   0   8  -8   17.50    4.10
   0   8  -7   13.40    3.70
   0  -8   7   11.70    2.80
   0  -8   6    3.10    1.80
   0   8  -6    6.30    3.20
   0  -8   5   39.70    4.70
   0   8  -5   51.09    6.50
   0   8  -5   51.79    7.10
   0   8  -4    2.10    2.80
   0  -8   4    2.00    1.60
   0   8  -4    3.20    2.90
   0  -8   3    2.70    1.60
   0   8  -3    3.90    3.40
   0  -8   3    3.80    1.40
   0  -8   2   79.29    5.70
   0   8  -2   88.19    9.50
   0   8  -1    7.70    3.30
   0   8  -1   12.50    4.80
   0  -8   1    9.70    2.30
   0  -8   0  116.39    7.60
   0   8   0  132.59   13.20
   0   8   0  113.89   10.70
   0  -8  -1    3.40    1.00
   0   8   1    2.80    1.00
   0   8   1    2.50    2.80
   0  -8  -1    3.10    1.60
   0  -8  -1    2.90    1.00
   0   8   1    1.40    3.20
   0  -8  -1    2.80    1.10
   0   8   1    3.50    1.00
   0  -8  -1    3.00    1.00
   0  -8  -1    3.50    1.30
   0  -8  -2  139.69    5.60
   0   8   2  151.48    5.50
   0  -8  -2  160.18    5.80
   0   8   2  143.79    5.10
   0   8   2  161.88   15.40
   0  -8  -2  161.18    5.60
   0  -8  -2  146.49    5.70
   0   8   2  136.79   11.20
   0  -8  -2  130.29    8.70
   0   8   2  141.49    5.00
   0   8   3   87.79    4.10
   0  -8  -3   85.39    4.30
   0   8   3   90.19    4.40
   0  -8  -3   91.89    4.60
   0  -8  -3   93.49    4.30
   0   8   3   89.59    4.20
   0  -8  -3   85.69    4.40
   0  -8  -4   10.60    1.80
   0  -8  -4    8.30    1.50
   0   8   4    8.80    1.70
   0   8   4    9.00    1.70
   0   8   4   10.20    1.60
   0  -8  -4    8.20    1.60
   0   8   4    8.60    1.60
   0   8   4    9.90    1.70
   0  -8  -4    9.20    1.60
   0   8   5   13.80    1.60
   0   8   5   19.40    2.30
   0  -8  -5   19.90    2.30
   0   8   5   19.40    1.90
   0   8   5   19.90    2.30
   0  -8  -5   19.60    2.10
   0   8   5   19.40    2.10
   0  -8  -5   16.40    1.90
   0  -8  -6    0.90    1.10
   0   8   6    0.50    1.20
   0   8   6    1.20    0.70
   0  -8  -6    0.80    1.10
   0   8   6    1.20    0.80
   0  -8  -6    0.40    0.70
   0   8   6    0.20    1.20
   0   8   6    1.10    0.90
   0   8   7   27.20    2.40
   0  -8  -7   27.80    2.10
   0   8   7   24.10    1.70
   0  -8  -7   24.10    2.00
   0   8   7   26.60    1.90
   0   8   7   26.40    2.30
   0   8   7   25.70    2.30
   0   8   7   23.50    1.60
   0  -8  -7   26.60    2.20
   0  -8  -8    0.10    0.70
   0   8   8    0.40    0.90
   0  -8  -8    0.30    0.70
   0  -8  -8   -0.90    0.80
   0   8   8   -0.70    0.90
   0   8   8    0.30    0.70
   0  -8  -9   33.30    1.40
   0   8   9   30.20    1.50
   0  -8  -9   32.20    1.40
   0  -9  15    4.90    2.60
   0  -9  14   21.30    2.80
   0  -9  14   56.99    2.60
   0  -9  13    0.40    0.90
   0  -9  13   64.39    3.20
   0  -9  13    0.50    0.90
   0  -9  13   59.59    4.50
   0  -9  12   64.49    3.40
   0  -9  12   62.09    3.40
   0  -9  12   64.59    3.70
   0  -9  12   34.00    3.70
   0  -9  12   98.49    4.10
   0  -9  12   64.19    3.70
   0  -9  12  125.69    4.00
   0  -9  12  134.19    4.30
   0  -9  11   30.40    2.80
   0  -9  11   83.99    3.60
   0  -9  11   28.50    2.60
   0  -9  11   65.19    2.90
   0  -9  11   35.20    2.60
   0  -9  11   10.70    4.40
   0  -9  11   29.20    2.40
   0  -9  11   34.00    2.80
   0  -9  10   79.19    4.30
   0  -9  10   74.69    3.90
   0  -9  10   81.09    3.70
   0  -9  10   77.39    4.40
   0  -9  10   84.29    4.30
   0  -9  10   87.09    3.30
   0  -9   9  570.64   11.90
   0  -9   9  542.75   11.90
   0  -9   9  548.25   12.10
   0  -9   9  501.55   11.00
   0  -9   9  590.14   11.40
   0  -9   9  538.05   10.40
   0  -9   8    9.90    1.60
   0  -9   8    9.50    1.50
   0  -9   8   11.40    1.80
   0   9  -8    6.00    3.20
   0  -9   8    7.50    1.20
   0  -9   8   11.10    1.70
   0  -9   8   14.10    3.20
   0  -9   7   84.99    4.00
   0  -9   7   97.49    4.30
   0  -9   7  100.39    4.50
   0  -9   7   84.69    7.40
   0  -9   7   98.09    4.50
   0   9  -7   85.09    9.40
   0  -9   6   15.50    1.80
   0   9  -6   19.10    4.90
   0  -9   6   12.30    2.90
   0  -9   6   20.70    2.10
   0  -9   6   21.00    1.90
   0  -9   6    9.90    2.30
   0  -9   6   19.70    2.10
   0  -9   5  135.89    5.00
   0  -9   5  151.68    5.50
   0  -9   5  153.88    5.70
   0   9  -5  144.79   12.60
   0  -9   5  128.89    8.80
   0  -9   5  144.09    4.80
   0  -9   4   20.10    3.50
   0  -9   4   21.70    2.00
   0   9  -4   23.60    5.60
   0   9  -4   21.50    5.30
   0  -9   4   22.40    2.20
   0  -9   3    9.70    2.70
   0   9  -3    5.50    2.80
   0   9  -3   10.50    4.20
   0  -9   3    8.20    1.30
   0  -9   3    8.80    1.60
   0  -9   3   10.20    1.70
   0   9  -2   33.70    7.20
   0  -9   2   32.20    2.40
   0  -9   2   34.90    2.40
   0   9  -2   25.40    5.90
   0  -9   2   36.90    3.00
   0  -9   2   27.80    3.60
   0  -9   2   36.90    2.90
   0  -9   1    0.30    1.10
   0  -9   1    5.10    1.50
   0  -9   1    3.70    1.10
   0   9  -1    2.90    2.70
   0  -9   1    4.10    1.10
   0   9  -1    5.30    3.80
   0  -9   1    4.20    1.10
   0  -9   1    3.90    1.00
   0  -9   0  142.89    6.00
   0   9   0  125.69   11.70
   0  -9   0  130.99    5.50
   0   9   0  151.28   14.90
   0  -9   0  154.78    5.20
   0  -9   0  148.59    5.50
   0  -9   0  151.58    5.30
   0  -9   0  110.19    7.80
   0   9   0  132.99    4.60
   0  -9  -1   10.60    1.80
   0   9   1   12.00    1.80
   0  -9  -1   15.00    1.80
   0  -9  -1   11.90    1.70
   0   9   1   12.70    1.60
   0   9   1   11.90    1.60
   0  -9  -1   10.20    1.80
   0  -9  -1   10.70    1.60
   0  -9  -2   18.70    2.20
   0   9   2   18.50    2.00
   0  -9  -2   22.00    2.20
   0  -9  -2   20.10    2.30
   0   9   2   19.50    2.30
   0   9   2   19.00    2.00
   0  -9  -2   20.10    2.30
   0  -9  -2   21.30    2.20
   0   9   3  135.49    5.20
   0  -9  -3  151.98    5.80
   0  -9  -3  124.69    5.30
   0   9   3  140.19    5.70
   0  -9  -3  152.48    5.40
   0   9   3  135.69    5.20
   0  -9  -3  141.69    5.40
   0   9   3  146.79    5.40
   0  -9  -3  141.49    5.50
   0   9   3  139.49    5.60
   0   9   4  134.69    5.30
   0  -9  -4  114.29    4.80
   0  -9  -4  140.19    5.00
   0  -9  -4  125.79    4.80
   0   9   4  132.69    5.40
   0  -9  -4  135.39    5.40
   0   9   4  130.09    5.10
   0  -9  -4  126.39    5.00
   0   9   4  136.09    4.90
   0   9   5    0.80    1.20
   0  -9  -5    0.50    0.80
   0  -9  -5    0.10    1.10
   0  -9  -5    0.60    1.00
   0   9   5    0.20    1.10
   0   9   5    0.70    1.00
   0   9   6   19.40    2.00
   0   9   6   19.40    1.70
   0  -9  -6   20.20    1.70
   0   9   6   20.10    1.90
   0  -9  -6   18.20    1.70
   0  -9  -6   17.70    1.80
   0   9   6   19.00    2.00
   0   9   7   29.30    2.00
   0  -9  -7   27.00    1.60
   0   9   7   27.90    1.90
   0  -9  -7   25.70    1.70
   0   9   7   28.40    1.90
   0  -9  -7   25.90    1.70
   0  -9  -8   10.80    0.90
   0   9   8   11.20    1.00
   0 -10  15   26.00    2.20
   0 -10  14   16.30    1.30
   0 -10  14   29.20    2.50
   0 -10  13   18.90    3.10
   0 -10  13   14.90    1.60
   0 -10  13   13.80    1.40
   0 -10  12   25.10    2.30
   0 -10  12   24.30    2.00
   0 -10  12   28.40    3.90
   0 -10  12   25.90    2.40
   0 -10  11    0.20    1.00
   0 -10  11    0.40    0.90
   0 -10  11    3.70    3.70
   0 -10  11    0.60    1.20
   0 -10  11    0.00    1.00
   0 -10  10    4.60    1.40
   0 -10  10    5.20    1.40
   0 -10  10    3.90    1.10
   0 -10  10    7.50    3.70
   0 -10  10    5.40    1.50
   0 -10  10   10.70    1.70
   0 -10   9   57.19    3.70
   0 -10   9   61.39    3.70
   0 -10   9   54.49    2.90
   0 -10   9   53.29    4.60
   0 -10   9   57.19    3.70
   0 -10   9   50.49    3.20
   0 -10   8   17.80    2.20
   0 -10   8   14.40    1.80
   0 -10   8   19.60    2.30
   0 -10   8   18.00    2.10
   0 -10   7  151.68    5.80
   0 -10   7  160.28    5.70
   0 -10   7  191.28    6.20
   0 -10   7  186.28    6.50
   0 -10   6  105.39    4.60
   0 -10   6  118.19    4.60
   0 -10   6  121.49    5.10
   0 -10   6  110.09    4.30
   0 -10   5   16.80    2.10
   0 -10   5   11.90    1.50
   0 -10   5   14.00    2.00
   0 -10   5   14.50    1.90
   0  10  -5    8.30    4.00
   0 -10   5   14.10    1.60
   0 -10   5   12.50    1.70
   0  10  -4   13.50    4.50
   0 -10   4   11.40    1.70
   0 -10   4   12.10    1.90
   0 -10   4   10.50    1.50
   0 -10   4    9.70    1.60
   0  10  -4    5.00    3.90
   0 -10   4   10.50    1.80
   0 -10   3   92.29    4.00
   0 -10   3   93.39    4.80
   0 -10   3   90.39    4.80
   0 -10   3   83.69    4.10
   0 -10   2   64.59    3.40
   0 -10   2   59.39    3.40
   0 -10   2   64.89    4.00
   0 -10   2   63.09    4.10
   0 -10   1   43.50    3.00
   0 -10   1   43.80    2.90
   0 -10   1   42.90    3.40
   0 -10   1   48.30    3.00
   0 -10   1   45.30    3.40
   0 -10   1   40.10    2.70
   0 -10   0   34.30    2.50
   0 -10   0   32.60    2.70
   0  10   0   33.60    2.70
   0 -10   0   28.30    2.20
   0 -10   0   32.50    2.60
   0  10   0   31.60    2.30
   0 -10   0   35.30    3.10
   0 -10   0   36.00    3.10
   0  10   1    0.90    1.10
   0 -10  -1    0.60    0.90
   0  10   1    0.70    0.90
   0 -10  -1    0.80    1.00
   0  10   1    1.70    0.90
   0 -10  -1    0.20    1.20
   0 -10  -1    0.80    0.90
   0 -10  -2   -0.10    1.00
   0  10   2   -0.50    1.20
   0  10   2    0.10    1.10
   0  10   2   -0.10    0.90
   0 -10  -2   -0.10    0.90
   0 -10  -2    0.00    0.80
   0 -10  -2   -0.10    1.00
   0  10   2   -0.20    0.80
   0  10   3   13.00    1.80
   0  10   3   13.50    1.90
   0 -10  -3   13.40    1.70
   0  10   3   14.50    1.70
   0 -10  -3   13.60    1.60
   0 -10  -3   12.80    1.70
   0  10   3   13.00    1.70
   0 -10  -3   12.90    1.80
   0 -10  -4   -0.20    0.90
   0 -10  -4   -0.10    0.80
   0 -10  -4    0.20    1.00
   0 -10  -4   -0.50    0.60
   0  10   4   -0.20    0.90
   0 -10  -4   -0.30    0.80
   0  10   4    0.10    0.80
   0  10   4    0.00    0.90
   0  10   4   -0.60    1.10
   0 -10  -5   -0.60    0.70
   0 -10  -5   -0.20    0.60
   0 -10  -5   -0.70    0.90
   0  10   5    0.30    0.70
   0  10   5    0.40    0.70
   0  10   5    0.20    0.90
   0 -10  -5   -0.30    0.80
   0  10   5    0.50    0.80
   0  10   5   -0.60    0.90
   0  10   6    5.40    1.00
   0  10   6    6.40    1.00
   0 -10  -6    6.30    0.80
   0 -10  -6    5.20    0.80
   0  10   6    4.90    0.70
   0 -11  14   45.90    2.60
   0 -11  13    1.70    0.70
   0 -11  13    1.50    0.80
   0 -11  12   23.50    2.20
   0 -11  12   23.60    3.20
   0 -11  12   22.40    2.00
   0 -11  12   19.60    1.70
   0 -11  11   33.70    2.60
   0 -11  11   34.60    2.70
   0 -11  11   29.00    2.20
   0 -11  11   31.00    3.70
   0 -11  10    5.00    1.50
   0 -11  10    1.20    3.50
   0 -11  10    4.90    1.40
   0 -11  10    6.70    1.60
   0 -11  10    6.00    1.20
   0 -11   9   24.80    2.20
   0 -11   9   29.10    2.70
   0 -11   9   28.50    2.70
   0 -11   9   30.70    2.70
   0 -11   8   28.90    2.50
   0 -11   8   25.90    2.30
   0 -11   8   27.20    2.60
   0 -11   8   29.90    2.70
   0 -11   7  131.49    5.10
   0 -11   7  131.49    5.10
   0 -11   7  127.99    5.20
   0 -11   7  136.49    5.60
   0 -11   6   33.10    2.80
   0 -11   6   31.00    2.50
   0 -11   6   37.40    2.90
   0 -11   6   32.60    2.60
   0 -11   6   31.50    2.40
   0 -11   5    4.70    1.20
   0 -11   5    7.60    1.60
   0 -11   5    5.60    1.40
   0 -11   5    7.20    1.60
   0 -11   5    7.70    1.70
   0 -11   5    5.80    1.10
   0 -11   4   43.10    3.00
   0 -11   4   42.70    2.70
   0 -11   4   42.50    3.40
   0 -11   4   39.60    3.20
   0 -11   4   38.80    2.90
   0 -11   3  326.17    8.50
   0 -11   3  304.07    8.10
   0 -11   3  338.57    9.70
   0 -11   3  326.97    8.00
   0 -11   3  323.27    9.30
   0 -11   2   15.70    1.80
   0 -11   2   17.40    2.30
   0 -11   2   16.90    1.80
   0 -11   2   17.10    2.30
   0 -11   1   10.80    1.50
   0 -11   1   14.40    2.20
   0  11  -1   13.60    1.80
   0 -11   1   15.50    2.20
   0 -11   1   13.70    1.70
   0 -11   0    1.80    1.30
   0 -11   0    1.90    0.90
   0  11   0    1.60    0.90
   0 -11   0    1.40    1.40
   0  11   0    1.80    1.10
   0  11   1   -0.40    1.00
   0 -11  -1    0.50    1.10
   0 -11  -1   -0.10    0.80
   0 -11  -1    0.70    1.10
   0  11   1    0.20    1.10
   0  11   2   81.39    3.70
   0  11   2   73.99    3.10
   0  11   2   78.59    3.80
   0 -11  -2   82.29    3.40
   0  11   2   83.99    4.10
   0 -11  -2   82.69    3.90
   0 -11  -2   76.39    3.80
   0 -11  -2   77.79    3.40
   0 -11  -3    0.70    0.70
   0 -11  -3    1.10    0.80
   0 -11  -3    1.90    0.80
   0  11   3    0.40    0.90
   0  11   3    0.80    0.80
   0  11   3   -0.30    0.70
   0  11   3    1.90    1.00
   0  11   4    9.20    1.20
   0  11   4   10.60    1.30
   0  11   4    8.90    1.00
   0  11   4   10.40    1.30
   0 -11  -4    9.40    1.00
   0 -11  -4    9.30    1.10
   0  11   4   10.90    1.30
   0 -11  -5    0.60    0.40
   0  11   5    0.10    0.60
   0  11   5    0.40    0.50
   0 -12  13   19.70    1.40
   0 -12  12   24.50    1.90
   0 -12  12   22.60    1.90
   0 -12  12   21.10    1.40
   0 -12  11   18.40    1.80
   0 -12  11   19.60    2.00
   0 -12  11   15.30    1.40
   0 -12  10    5.10    1.30
   0 -12  10    5.90    1.10
   0 -12  10    5.70    1.40
   0 -12   9   13.10    1.50
   0 -12   9   14.30    1.80
   0 -12   9   13.90    1.90
   0 -12   8    4.70    1.40
   0 -12   8    5.00    1.30
   0 -12   8    4.50    1.20
   0 -12   7   28.30    2.50
   0 -12   7   26.00    2.30
   0 -12   7   25.70    2.20
   0 -12   6    0.60    0.90
   0 -12   6    0.40    0.90
   0 -12   6    0.40    0.80
   0 -12   6   -0.20    1.00
   0 -12   5   29.40    2.40
   0 -12   5   32.20    2.80
   0 -12   5   27.20    2.00
   0 -12   5   30.50    2.50
   0 -12   4   -0.40    0.90
   0 -12   4    0.60    1.10
   0 -12   4   -0.30    1.10
   0 -12   4    0.20    0.90
   0 -12   4   -0.20    0.70
   0  12  -3    5.30    1.10
   0 -12   3    5.70    1.30
   0 -12   3    5.50    1.10
   0 -12   3    6.30    1.70
   0 -12   3    4.80    1.10
   0 -12   3    5.20    1.50
   0 -12   2   40.50    3.20
   0  12  -2   36.60    2.50
   0 -12   2   38.90    2.70
   0 -12   2   37.80    2.40
   0 -12   2   39.00    3.10
   0 -12   2   33.50    2.20
   0 -12   1    0.90    0.90
   0  12  -1    0.60    0.80
   0 -12   1    1.30    1.20
   0  12  -1    1.10    1.10
   0 -12   1    0.90    1.30
   0 -12   1    0.80    0.70
   0  12   0   30.00    2.50
   0  12   0   25.60    2.10
   0 -12   0   27.50    1.90
   0 -12   0   31.60    2.60
   0 -12   0   26.20    2.30
   0 -12  -1    0.90    0.70
   0 -12  -1    0.50    0.80
   0  12   1    0.10    0.80
   0  12   1    0.40    0.80
   0  12   1   -0.10    0.90
   0 -12  -1    1.00    1.00
   0 -12  -2   39.90    2.20
   0  12   2   40.10    2.40
   0  12   2   30.50    1.70
   0 -12  -2   33.70    1.70
   0  12   2   38.80    2.10
   0  12   2   36.00    2.10
   0 -12  -2   34.50    2.00
   0  12   3    0.60    0.70
   0  12   3    0.70    0.60
   0 -12  -3   -0.20    0.50
   0  12   3    0.30    0.40
   0 -12  -3    0.40    0.40
   0  12   3    0.40    0.70
   0 -13  12    4.10    0.80
   0 -13  11   57.89    2.60
   0 -13  11   52.19    2.00
   0 -13  11   57.19    2.60
   0 -13  10    3.50    1.00
   0 -13  10    2.60    0.70
   0 -13  10    2.90    0.90
   0 -13   9    8.10    1.10
   0 -13   9    8.30    1.30
   0 -13   9    8.90    1.40
   0 -13   8   12.50    1.40
   0 -13   8   12.90    1.40
   0 -13   8   14.40    1.60
   0 -13   7    0.60    0.70
   0 -13   7    0.90    0.80
   0 -13   7    1.20    0.90
   0 -13   6   13.80    1.60
   0 -13   6   18.10    1.80
   0 -13   6   15.70    1.60
   0 -13   6   12.70    1.30
   0 -13   5   22.10    2.10
   0 -13   5   18.20    1.70
   0 -13   5   17.40    1.70
   0  13  -4    0.60    0.70
   0 -13   4    0.00    0.80
   0 -13   4    0.00    0.60
   0 -13   4   -0.20    0.90
   0 -13   3    2.60    1.20
   0  13  -3    1.90    0.70
   0  13  -3    2.80    1.00
   0 -13   3    4.40    1.30
   0 -13   3    2.80    1.00
   0 -13   3    3.00    0.80
   0  13  -2   38.60    2.10
   0  13  -2   49.40    2.70
   0 -13   2   44.40    2.10
   0 -13   2   41.90    2.30
   0 -13   2   49.70    3.00
   0 -13   2   44.90    2.80
   0 -13   1   15.30    1.20
   0 -13   1   15.30    1.70
   0  13  -1   14.90    1.60
   0 -13   1   13.10    1.30
   0  13  -1   16.20    1.60
   0 -13   1   16.00    1.70
   0  13  -1   12.40    1.20
   0 -13   0   -0.40    0.70
   0 -13   0    0.40    0.40
   0 -13   0   -0.10    0.60
   0  13   0   -0.40    0.80
   0  13   0   -0.60    0.80
   0  13   0    0.00    0.50
   0 -13   0    0.70    0.80
   0  13   1    1.10    0.70
   0  13   1    1.20    0.50
   0  13   1    0.80    0.80
   0  13   1    1.20    0.60
   0  13   1    0.10    0.70
   0 -13  -1    0.20    0.50
   0 -13  -1    0.60    0.50
   0 -14  10   49.30    2.00
   0 -14   9    2.40    0.60
   0 -14   9    1.70    0.60
   0 -14   9    1.70    0.50
   0 -14   8   22.70    1.30
   0 -14   8   24.70    1.30
   0 -14   8   24.50    1.60
   0 -14   7   30.10    1.70
   0 -14   7   29.70    1.60
   0 -14   6    1.10    0.60
   0 -14   6    1.20    0.60
   0 -14   5   54.29    2.20
   0 -14   5   50.59    2.00
   0 -14   4    1.50    0.80
   0  14  -4    0.50    0.50
   0 -14   4    1.40    0.60
   0 -14   4    1.40    0.40
   0  14  -3   16.90    1.30
   0  14  -3   19.80    1.50
   0 -14   3   21.30    1.60
   0 -14   3   16.60    1.20
   0 -14   2    2.10    0.60
   0  14  -2    1.10    0.60
   0  14  -2    2.70    0.80
   0  14  -2    1.80    0.70
   0  14  -1    1.90    0.70
   0  14  -1    2.00    0.70
  -1  14  -1    0.20    0.70
  -1  14  -1    0.10    0.50
   1 -14   1    0.10    0.50
  -1  14  -1   -0.20    0.60
  -1  14  -1    0.20    0.70
  -1  14  -2   14.70    1.40
   1 -14   2    9.40    0.80
  -1  14  -2   13.10    1.30
  -1  14  -2   11.30    1.00
   1 -14   2   12.00    1.10
   1 -14   3   55.29    2.30
  -1  14  -3   58.09    2.50
   1 -14   3   52.39    1.90
  -1  14  -3   60.89    2.70
  -1  14  -3   54.49    2.10
  -1  14  -4    0.80    0.60
  -1  14  -4    0.30    0.80
   1 -14   4    1.70    0.80
   1 -14   5   77.09    2.90
   1 -14   6    6.00    1.00
   1 -14   6    5.20    0.80
   1 -14   7   49.80    2.30
   1 -14   7   48.90    2.10
   1 -14   8    3.40    0.80
   1 -14   8    2.60    0.70
   1 -14   9   45.70    2.00
   1 -14   9   42.40    1.90
   1 -14  10   30.00    1.40
   1 -14  10   35.30    1.60
  -1  13   2    0.30    0.70
  -1  13   2   -0.10    0.60
   1 -13  -2   -0.20    0.50
  -1  13   1   17.90    1.20
   1 -13  -1   20.40    1.30
  -1  13   1   20.20    1.70
  -1  13   1   22.50    1.60
   1 -13  -1   18.30    1.30
  -1  13   1   19.40    1.50
  -1  13   1   21.50    1.60
  -1  13   0    0.50    0.90
   1 -13   0    0.20    0.80
   1 -13   0   -0.60    0.80
  -1  13   0    0.20    0.50
  -1  13   0    0.00    0.80
   1 -13   0    0.00    0.70
   1 -13   0   -0.40    0.60
   1 -13   1    2.30    0.80
  -1  13  -1    1.40    0.90
  -1  13  -1    2.20    1.00
   1 -13   1    2.20    0.90
   1 -13   1    2.30    1.10
   1 -13   1    2.40    1.00
  -1  13  -1    1.70    0.60
   1 -13   2    0.00    0.80
  -1  13  -2   -0.10    0.80
   1 -13   2   -0.10    1.00
   1 -13   2    0.00    0.60
   1 -13   2    0.00    1.00
   1 -13   3    0.60    0.70
   1 -13   3    0.70    1.00
  -1  13  -3    0.90    0.80
   1 -13   3   -0.20    0.90
   1 -13   4    5.10    1.20
   1 -13   4    6.40    1.40
   1 -13   4    4.40    1.00
   1 -13   4    4.30    0.90
  -1  13  -4    5.20    1.00
   1 -13   5    0.40    0.70
   1 -13   5    0.90    0.70
   1 -13   5    0.50    0.90
   1 -13   5    0.60    1.00
   1 -13   6   28.70    2.20
   1 -13   6   25.30    2.10
   1 -13   6   22.30    1.90
   1 -13   7    0.20    0.70
   1 -13   7    0.50    0.70
   1 -13   7   -0.10    0.80
   1 -13   8    5.10    1.00
   1 -13   8    4.60    1.10
   1 -13   8    5.10    1.10
   1 -13   9   92.49    3.60
   1 -13   9   85.49    3.40
   1 -13   9   93.39    3.60
   1 -13  10   38.00    2.30
   1 -13  10   38.10    2.20
   1 -13  10   36.00    2.10
   1 -13  11  105.59    3.40
   1 -13  11   98.99    3.10
   1 -13  12    1.80    0.60
   1 -13  12    2.50    0.70
  -1  12   4    0.10    0.60
   1 -12  -4   -0.20    0.50
  -1  12   3   18.30    1.40
  -1  12   3   18.30    1.60
   1 -12  -3   13.20    1.10
  -1  12   3   17.40    1.40
  -1  12   3   20.30    1.60
   1 -12  -3   17.90    1.30
  -1  12   2    2.80    1.00
   1 -12  -2    3.70    0.90
   1 -12  -2    2.60    0.80
  -1  12   2    3.60    0.90
   1 -12  -2    4.60    1.00
  -1  12   2    3.50    1.10
   1 -12  -1    0.60    0.90
  -1  12   1    0.00    0.70
  -1  12   1    0.60    1.00
  -1  12   1    0.10    1.00
   1 -12  -1    0.30    0.70
   1 -12  -1   -0.10    0.80
   1 -12   0    0.60    0.80
   1 -12   0    0.20    1.00
  -1  12   0    1.50    1.10
   1 -12   0    0.10    1.00
  -1  12   0    1.50    1.20
  -1  12   0   -0.10    0.80
   1 -12   1    2.40    1.20
   1 -12   1    2.30    1.30
  -1  12  -1    1.10    0.80
  -1  12  -1    1.60    1.10
   1 -12   1    1.80    0.90
   1 -12   2   12.60    1.60
   1 -12   2   11.40    1.70
  -1  12  -2    9.70    1.30
   1 -12   2   13.40    2.10
   1 -12   2   13.60    2.00
  -1  12  -2   12.90    1.80
   1 -12   3    0.40    1.10
   1 -12   3    1.10    0.90
   1 -12   3    0.20    0.70
   1 -12   3   -0.80    1.10
   1 -12   3    0.80    1.20
   1 -12   4   98.89    5.00
   1 -12   4   98.79    4.20
   1 -12   4   91.09    3.90
   1 -12   4   97.59    4.50
   1 -12   4  111.09    5.10
   1 -12   5   84.29    3.90
   1 -12   5   90.69    4.30
   1 -12   5   89.29    4.00
   1 -12   6   12.60    1.70
   1 -12   6   10.30    1.40
   1 -12   6   11.60    1.70
   1 -12   6   10.90    1.60
   1 -12   6   10.40    1.50
   1 -12   7   71.59    3.60
   1 -12   7   75.89    3.80
   1 -12   7   74.79    3.90
   1 -12   8   45.80    3.00
   1 -12   8   46.20    3.00
   1 -12   8   44.20    2.90
   1 -12   9   77.09    3.80
   1 -12   9   76.89    3.70
   1 -12   9   78.79    3.90
   1 -12  10    2.00    1.00
   1 -12  10    2.20    1.10
   1 -12  10    2.00    1.10
   1 -12  11    9.30    1.30
   1 -12  11   10.80    1.50
   1 -12  11   11.30    1.60
   1 -12  12   62.29    2.80
   1 -12  12   56.09    2.50
   1 -12  13   21.40    1.70
   1 -12  13   11.70    1.00
  -1  11   5   12.10    1.20
  -1  11   5   12.40    1.20
  -1  11   5   11.70    1.10
   1 -11  -5   11.70    1.00
  -1  11   5   10.70    1.00
  -1  11   4    3.30    1.00
   1 -11  -4    3.90    0.90
  -1  11   4    4.00    1.10
   1 -11  -4    3.20    0.70
  -1  11   4    3.90    0.90
  -1  11   4    3.90    1.10
  -1  11   4    4.60    0.90
  -1  11   3    0.20    0.70
  -1  11   3    0.30    0.80
   1 -11  -3    0.60    0.80
   1 -11  -3    0.10    0.70
  -1  11   3    0.30    1.00
   1 -11  -3    0.20    0.80
  -1  11   3   -0.10    0.90
  -1  11   2   28.10    2.40
   1 -11  -2   26.50    2.30
  -1  11   2   26.40    2.30
   1 -11  -2   27.70    2.40
   1 -11  -2   24.20    2.10
  -1  11   2   27.50    2.60
  -1  11   1    1.20    1.20
  -1  11   1    2.40    1.10
  -1  11   1    2.50    1.30
   1 -11  -1    1.10    0.90
   1 -11  -1    1.40    1.30
   1 -11  -1    1.60    1.10
  -1  11   0   20.50    2.30
   1 -11   0   18.50    2.30
   1 -11   0   21.80    2.10
  -1  11   0   18.60    2.00
   1 -11   0   21.50    2.50
  -1  11  -1    0.30    0.80
   1 -11   1    0.20    0.90
   1 -11   1   -0.10    1.20
   1 -11   1    0.50    1.20
  -1  11  -2   -0.30    0.70
   1 -11   2   -0.50    1.10
   1 -11   2   -0.80    0.80
   1 -11   2    0.10    1.20
   1 -11   2   -0.10    0.90
   1 -11   3    6.70    1.40
   1 -11   3    6.30    1.30
   1 -11   3    6.40    1.60
   1 -11   3    8.30    1.80
   1 -11   3    7.80    1.40
   1 -11   4    0.20    0.90
   1 -11   4    0.10    1.00
   1 -11   4    1.50    1.10
   1 -11   4    1.70    1.30
   1 -11   4    1.40    0.90
   1 -11   5   37.40    2.80
   1 -11   5   38.40    3.10
   1 -11   5   30.80    2.30
   1 -11   5   37.00    2.90
   1 -11   5   35.30    2.60
   1 -11   6   54.19    3.20
   1 -11   6   53.29    3.30
   1 -11   6   51.59    3.20
   1 -11   6   55.59    3.50
   1 -11   6   57.49    3.20
   1 -11   7   37.50    2.90
   1 -11   7   37.90    2.80
   1 -11   7   36.00    2.90
   1 -11   7   36.30    2.80
   1 -11   8    5.00    1.50
   1 -11   8    4.00    1.30
   1 -11   8    5.00    1.40
   1 -11   8    4.80    1.40
   1 -11   9   31.90    2.70
   1 -11   9   31.30    2.80
   1 -11   9   25.60    2.40
   1 -11  10   31.30    2.80
   1 -11  10   24.10    2.20
   1 -11  10   32.60    2.70
   1 -11  10   36.30    2.20
   1 -11  10   23.20    3.20
   1 -11  11   11.50    2.80
   1 -11  11   11.70    1.80
   1 -11  11   12.90    1.90
   1 -11  11    9.90    1.50
   1 -11  12   12.60    1.70
   1 -11  12    9.90    1.40
   1 -11  13   62.99    2.70
   1 -11  14    0.50    2.10
   1 -10  -7   -0.10    0.50
  -1  10   7    0.70    0.60
  -1  10   7    0.30    0.50
   1 -10  -6    0.40    0.60
   1 -10  -6    0.20    0.60
  -1  10   6    0.70    0.80
  -1  10   6   -0.30    0.60
  -1  10   6   -0.30    0.70
   1 -10  -5    0.30    0.80
  -1  10   5   -0.10    0.90
  -1  10   5    0.60    0.90
   1 -10  -5    0.70    0.60
   1 -10  -5    0.50    0.90
  -1  10   5    1.20    0.90
  -1  10   5    0.20    0.80
  -1  10   5    0.60    0.70
   1 -10  -5    0.30    0.80
  -1  10   5   -0.30    0.90
  -1  10   4   12.10    1.80
  -1  10   4   12.30    1.60
   1 -10  -4   10.20    1.70
   1 -10  -4   10.80    1.60
   1 -10  -4   12.20    1.60
   1 -10  -4   10.70    1.40
  -1  10   4   12.30    1.80
  -1  10   4   12.20    1.60
  -1  10   4   11.30    1.50
   1 -10  -4   10.10    1.30
   1 -10  -3   47.70    3.20
   1 -10  -3   49.20    3.00
  -1  10   3   43.00    2.70
  -1  10   3   48.10    3.10
  -1  10   3   48.60    3.20
   1 -10  -3   46.60    3.00
   1 -10  -3   50.29    3.10
   1 -10  -3   46.70    3.00
  -1  10   3   49.40    3.40
   1 -10  -2   52.69    3.30
  -1  10   2   56.69    3.50
  -1  10   2   54.19    3.60
   1 -10  -2   52.59    3.50
   1 -10  -2   55.89    3.30
  -1  10   2   50.19    2.90
   1 -10  -2   53.89    3.50
   1 -10  -2   52.79    3.40
  -1  10   2   50.59    3.30
   1 -10  -1   -0.20    1.00
  -1  10   1   -0.30    0.90
   1 -10  -1    0.00    1.00
   1 -10  -1   -0.40    1.00
   1 -10  -1   -0.20    1.10
  -1  10   1   -0.30    0.90
  -1  10   1   -0.50    1.20
   1 -10  -1   -0.30    1.30
   1 -10   0   87.49    4.20
   1 -10   0   89.89    4.70
   1 -10   0   84.99    4.70
   1 -10   0   82.79    4.30
   1 -10   0   85.19    4.20
  -1  10   0   83.69    4.00
   1 -10   1    0.80    1.10
   1 -10   1   -0.20    1.10
  -1  10  -1   -0.30    0.70
   1 -10   1    0.00    0.90
   1 -10   2  228.38    7.50
   1 -10   2  201.98    6.00
   1 -10   2  230.08    7.70
  -1  10  -2  216.08   17.50
   1 -10   2  231.58    6.80
   1 -10   3   16.30    1.80
  -1  10  -3    8.10    3.50
   1 -10   3   15.70    2.10
   1 -10   3   16.10    2.10
  -1  10  -3   18.30    5.60
   1 -10   3   16.10    1.80
   1 -10   4  371.56    8.80
   1 -10   4  379.06    9.20
  -1  10  -4  334.77   20.10
  -1  10  -4  352.16   20.60
   1 -10   4  348.77    7.70
   1 -10   4  374.96    9.80
   1 -10   4  402.26   10.20
   1 -10   4  347.07    8.50
   1 -10   5   12.60    1.80
   1 -10   5   12.30    1.70
   1 -10   5   12.00    1.90
   1 -10   5   13.80    1.70
   1 -10   5   14.10    1.60
   1 -10   5   12.30    1.80
  -1  10  -5   12.40    4.40
   1 -10   5   11.00    1.50
   1 -10   6    1.30    0.90
   1 -10   6    1.20    1.00
   1 -10   6    1.70    1.00
   1 -10   6    1.50    1.10
   1 -10   6    0.80    0.80
   1 -10   7   52.09    3.20
   1 -10   7   51.19    3.30
   1 -10   7   41.40    2.80
   1 -10   7   43.50    3.10
   1 -10   7   49.99    3.30
   1 -10   8   35.60    2.80
   1 -10   8   36.00    2.90
   1 -10   8   33.20    3.60
   1 -10   8   29.40    2.00
   1 -10   8   30.60    2.60
   1 -10   8   33.80    2.90
   1 -10   9   89.59    4.50
   1 -10   9   93.79    4.70
   1 -10   9   86.49    4.60
   1 -10   9   97.09    4.60
   1 -10   9   84.29    3.60
   1 -10  10   37.60    2.50
   1 -10  10   40.60    3.00
   1 -10  10   39.50    3.10
   1 -10  10   41.70    3.90
   1 -10  10   32.60    2.70
   1 -10  10   38.00    3.00
   1 -10  11    0.60    1.10
   1 -10  11    3.70    3.20
   1 -10  11   -0.20    1.00
   1 -10  11    0.40    1.10
   1 -10  11    1.00    1.00
   1 -10  12    0.80    1.10
   1 -10  12    0.80    1.00
   1 -10  12   -0.10    1.00
   1 -10  13  181.28    3.80
   1 -10  13  123.59    4.00
   1 -10  15   36.90    2.10
  -1   9   8    0.40    0.60
   1  -9  -8    0.60    0.50
   1  -9  -8   -0.90    0.50
  -1   9   8    0.30    0.70
  -1   9   7   19.00    1.80
   1  -9  -7   18.50    1.50
   1  -9  -7   20.80    1.60
   1  -9  -7   17.30    1.50
  -1   9   7   19.60    1.70
  -1   9   6    0.80    1.10
   1  -9  -6    0.90    0.90
  -1   9   6    0.90    1.00
   1  -9  -6    0.40    0.90
   1  -9  -6    0.90    0.60
   1  -9  -6    0.30    0.90
  -1   9   6    0.70    1.00
  -1   9   6    0.60    0.90
  -1   9   6    0.30    0.80
  -1   9   5    1.60    1.20
  -1   9   5    1.80    1.20
   1  -9  -5    1.80    1.10
   1  -9  -5    0.70    1.10
  -1   9   5    2.30    1.20
  -1   9   5    2.10    1.20
   1  -9  -5    2.80    1.30
  -1   9   5    1.60    1.00
   1  -9  -4   15.20    1.80
   1  -9  -4   13.10    1.80
   1  -9  -4   16.90    2.00
  -1   9   4   13.40    1.80
  -1   9   4   14.10    2.00
   1  -9  -4   14.70    2.00
  -1   9   4   15.60    1.90
  -1   9   4   15.00    2.10
   1  -9  -3   28.90    2.40
   1  -9  -3   25.90    2.40
  -1   9   3   28.10    2.70
  -1   9   3   31.00    2.70
  -1   9   3   27.30    2.60
  -1   9   3   26.90    2.40
   1  -9  -3   25.10    2.50
   1  -9  -3   26.80    2.50
  -1   9   2   19.10    2.20
   1  -9  -2   20.20    2.30
  -1   9   2   18.20    1.90
   1  -9  -2   17.50    2.00
  -1   9   2   18.50    2.10
  -1   9   2   17.00    1.90
   1  -9  -2   16.40    2.10
   1  -9  -2   20.20    2.10
   1  -9  -1    1.40    0.90
   1  -9  -1    0.80    1.20
  -1   9   1    1.50    0.90
   1  -9  -1    1.50    1.10
   1  -9  -1    1.30    1.50
  -1   9   1    0.90    0.90
  -1   9   1   -2.60    2.80
   1  -9  -1    2.00    0.90
   1  -9   0  225.78    7.40
   1  -9   0  226.78    6.70
   1  -9   0  241.48    6.80
  -1   9   0  224.68    6.40
   1  -9   0  227.48    7.00
   1  -9   1   -0.30    0.80
  -1   9  -1   -0.60    2.00
   1  -9   1   -1.80    1.30
   1  -9   1    0.30    1.00
   1  -9   1   -0.40    0.80
   1  -9   1    0.20    0.80
   1  -9   1    0.00    0.80
   1  -9   2  256.97    7.80
   1  -9   2  266.27    7.70
   1  -9   2  269.37    7.00
   1  -9   3   32.60    2.60
   1  -9   3   28.30    4.00
  -1   9  -3   31.30    6.30
   1  -9   4   53.79    5.50
   1  -9   4   64.79    3.70
  -1   9  -4   64.39    8.40
   1  -9   5  191.38    5.90
   1  -9   5  178.78    5.80
   1  -9   5  194.98    6.50
  -1   9  -5  193.28   14.20
   1  -9   5  186.18    5.50
   1  -9   6    0.30    0.80
   1  -9   6    0.30    0.70
   1  -9   6   -2.90    2.00
   1  -9   6    0.00    0.80
   1  -9   6    0.50    0.80
  -1   9  -6    2.40    2.10
   1  -9   6    2.00    1.80
   1  -9   6    0.10    0.90
   1  -9   7    1.00    0.80
   1  -9   7    0.00    0.90
   1  -9   7   -0.40    1.20
   1  -9   7    1.50    1.00
   1  -9   7    0.60    0.90
   1  -9   7    0.20    0.80
   1  -9   7   -1.90    1.00
  -1   9  -7    1.80    2.20
   1  -9   8   61.19    3.00
  -1   9  -8   59.89    7.80
   1  -9   8   67.89    3.70
   1  -9   8   72.79    3.80
   1  -9   8   76.59    4.10
   1  -9   8   70.69    3.90
   1  -9   8   70.19    3.90
   1  -9   9   98.39    4.70
   1  -9   9   89.69    4.60
   1  -9   9   86.79    3.80
   1  -9   9   92.89    4.50
   1  -9   9   91.19    4.40
   1  -9   9   97.49    4.50
   1  -9  10  135.19    5.70
   1  -9  10  119.39    4.00
   1  -9  10  140.69    5.50
   1  -9  10  127.99    5.20
   1  -9  10  130.79    4.80
   1  -9  10  137.69    5.60
   1  -9  10  133.79    5.30
   1  -9  11    7.00    1.10
   1  -9  11    7.80    1.70
   1  -9  11    4.90    1.30
   1  -9  11    4.60    1.20
   1  -9  11    6.40    1.50
   1  -9  12    1.60    1.20
   1  -9  12   -0.30    1.00
   1  -9  12    1.30    1.10
   1  -9  12    0.60    1.10
   1  -9  13   60.99    3.20
   1  -9  13   91.59    3.10
   1  -9  13   -0.10    3.00
   1  -9  13   47.40    3.00
   1  -9  13   13.90    1.70
   1  -9  14   80.99    3.10
   1  -9  14  183.38    4.00
   1  -9  15  116.19    3.40
   1  -8  -9   39.50    1.70
   1  -8  -9   38.20    1.60
  -1   8   8    3.40    1.10
   1  -8  -8    3.30    0.90
   1  -8  -8    3.00    0.90
   1  -8  -8    3.40    0.90
  -1   8   8    2.60    1.10
  -1   8   7   33.30    2.60
   1  -8  -7   28.20    2.30
   1  -8  -7   36.00    2.40
  -1   8   7   33.40    2.60
  -1   8   7   30.40    2.60
  -1   8   7   31.80    2.30
   1  -8  -7   29.90    2.20
   1  -8  -6   50.59    3.30
   1  -8  -6   39.30    2.50
  -1   8   6   55.39    3.40
  -1   8   6   53.39    3.00
   1  -8  -6   53.39    3.20
  -1   8   6   54.69    3.60
  -1   8   6   54.89    3.40
  -1   8   6   56.69    3.50
  -1   8   6   55.19    3.20
   1  -8  -5    2.90    1.30
   1  -8  -5    2.30    1.20
  -1   8   5    2.10    1.20
  -1   8   5    2.50    1.10
  -1   8   5    1.60    1.10
   1  -8  -5    1.80    0.90
  -1   8   5    3.20    1.40
  -1   8   4   11.60    1.80
   1  -8  -4   10.10    1.50
  -1   8   4   11.30    1.80
  -1   8   4   13.10    1.70
   1  -8  -4   12.40    1.90
   1  -8  -4   12.30    1.80
  -1   8   4   10.30    1.80
   1  -8  -4    9.30    1.50
  -1   8   3   24.40    6.20
   1  -8  -3   26.40    2.60
   1  -8  -3   26.40    2.40
  -1   8   3   25.70    2.40
   1  -8  -3   21.70    3.70
   1  -8  -3   26.80    2.40
   1  -8  -3   21.50    1.90
  -1   8   3   23.30    2.20
  -1   8   3   25.50    2.30
   1  -8  -3   21.80    2.20
  -1   8   3   23.60    2.40
  -1   8   2  403.56    9.10
   1  -8  -2  384.96    9.50
  -1   8   2  366.86    8.30
   1  -8  -2  415.26    9.30
   1  -8  -2  342.17   14.10
   1  -8  -2  409.56    9.70
  -1   8   2  348.67    8.10
   1  -8  -2  352.76    9.00
   1  -8  -2  441.56    9.40
   1  -8  -1    4.20    1.20
   1  -8  -1    5.20    1.30
  -1   8   1    0.30    2.10
   1  -8  -1    3.40    1.70
  -1   8   0   88.79    9.40
   1  -8   0   76.69    6.10
  -1   8  -1    3.40    3.20
   1  -8   1    1.50    1.00
  -1   8  -2   37.10    6.30
   1  -8   2   35.90    3.70
  -1   8  -3    0.80    2.40
   1  -8   3    1.20    1.30
   1  -8   4   67.99    5.70
  -1   8  -4   90.89    9.20
  -1   8  -5   92.99    9.20
   1  -8   5   71.59    5.90
   1  -8   6   35.80    4.30
  -1   8  -6   33.80    5.70
   1  -8   6   36.80    4.80
   1  -8   7   96.19    7.80
  -1   8  -7   90.69    9.20
   1  -8   7   85.39    7.00
  -1   8  -7   65.99    7.30
   1  -8   8    7.50    1.40
   1  -8   8    8.10    1.40
  -1   8  -8    3.70    2.40
   1  -8   8    7.40    1.40
   1  -8   8    6.50    1.30
   1  -8   8    6.20    2.40
   1  -8   8    6.40    2.10
  -1   8  -8    8.70    2.70
   1  -8   9  101.89    4.40
   1  -8   9  100.79    4.70
   1  -8   9  100.09    4.60
   1  -8   9   86.49    3.50
   1  -8   9   87.19    3.50
  -1   8  -9   80.99    7.50
  -1   8  -9   81.69    8.50
   1  -8   9   97.09    4.40
   1  -8  10   93.59    4.60
   1  -8  10   82.49    3.90
   1  -8  10   98.39    4.60
   1  -8  10   92.09    4.40
   1  -8  10   95.99    4.40
   1  -8  11    0.20    1.10
   1  -8  11   -0.10    0.90
   1  -8  11   -0.20    0.90
   1  -8  11    0.30    1.00
   1  -8  11    0.00    1.00
   1  -8  12   42.70    3.10
   1  -8  12   36.60    2.30
   1  -8  12   37.90    2.70
   1  -8  12   41.20    3.00
   1  -8  13  122.79    4.00
   1  -8  13  115.09    4.40
   1  -8  13  117.39    4.70
   1  -8  14  146.09    3.90
   1  -8  14   45.70    3.00
   1  -8  15   50.59    3.00
   1  -8  15  100.09    3.00
   1  -7 -10    4.80    0.70
   1  -7 -10    3.40    0.60
  -1   7  10    5.00    0.90
   1  -7  -9   42.10    1.90
  -1   7   9   43.40    2.60
  -1   7   9   38.00    2.00
   1  -7  -9   35.50    2.10
  -1   7   9   41.20    2.50
   1  -7  -9   34.70    2.00
   1  -7  -9   44.80    2.30
   1  -7  -9   30.50    1.90
   1  -7  -8   16.40    1.80
  -1   7   8   14.80    1.50
  -1   7   8   15.40    1.60
  -1   7   8   16.70    2.00
   1  -7  -8   20.10    1.70
  -1   7   8   15.70    2.00
  -1   7   8   15.30    2.00
   1  -7  -8   14.40    1.70
   1  -7  -7   32.60    2.70
  -1   7   7   31.80    2.50
   1  -7  -7   33.20    2.60
  -1   7   7   30.30    2.80
   1  -7  -7   37.80    2.40
  -1   7   7   33.70    2.80
  -1   7   7   32.50    2.80
  -1   7   7   31.20    2.30
  -1   7   7   32.10    2.30
  -1   7   6   14.10    1.60
   1  -7  -6   12.40    1.90
  -1   7   6   14.90    1.90
  -1   7   6   15.30    2.10
  -1   7   6   15.30    1.80
  -1   7   6   14.00    1.60
   1  -7  -6   12.00    1.50
   1  -7  -6   15.20    2.00
  -1   7   6   13.30    2.00
  -1   7   5    5.60    1.30
   1  -7  -5    3.60    1.20
  -1   7   5    2.60    1.20
   1  -7  -5    2.40    1.00
  -1   7   5    3.90    1.30
  -1   7   5    3.50    1.30
   1  -7  -5    2.30    1.80
   1  -7  -5    3.00    1.10
  -1   7   4    1.40    0.90
  -1   7   4    5.20    2.60
   1  -7  -4    4.80    1.20
   1  -7  -4    0.40    1.00
   1  -7  -4    3.60    1.60
   1  -7  -4    3.40    1.10
  -1   7   4    3.10    1.20
  -1   7   4    2.20    1.10
  -1   7   4    3.90    1.10
   1  -7  -4    2.90    1.00
  -1   7   4    3.60    3.00
   1  -7  -4    3.30    1.10
  -1   7   4    3.40    1.20
   1  -7  -3   73.99    3.70
  -1   7   3   80.79    3.80
  -1   7   3   77.49    3.50
   1  -7  -3   83.49    3.80
  -1   7   3   86.19    7.50
  -1   7   3   77.29    3.60
   1  -7  -3   79.29    3.90
   1  -7  -3   68.29    6.20
   1  -7  -2   -0.60    1.30
  -1   7   2    1.30    1.50
  -1   7   2    2.70    2.30
   1  -7  -1   15.10    2.80
  -1   7   1   19.50    3.30
  -1   7   1   14.60    2.80
  -1   7   1   17.00    4.10
  -1   7   0  108.79    7.50
   1  -7   0   94.19    6.20
  -1   7   0  104.69    9.40
  -1   7  -1   24.50    4.90
  -1   7  -1   32.40    4.60
   1  -7   1   27.30    3.20
  -1   7  -2   58.49    7.00
   1  -7   2   53.89    4.00
   1  -7   3   -0.30    0.60
  -1   7  -3   -0.30    2.30
  -1   7  -3   -0.70    2.40
   1  -7   4   26.50    3.30
   1  -7   4   24.20    3.20
   1  -7   4   28.00    3.60
  -1   7  -5    1.90    1.60
   1  -7   5    4.20    1.80
   1  -7   5    4.00    1.60
   1  -7   6   62.29    5.50
   1  -7   6   66.19    6.10
  -1   7  -7  267.37   11.80
   1  -7   7  246.18   11.30
   1  -7   7  252.17   12.30
   1  -7   8   44.40    5.40
  -1   7  -8   40.10    4.60
   1  -7   9   66.99    3.20
   1  -7   9   74.49    3.60
   1  -7   9   74.49    3.80
   1  -7   9   77.29    3.40
   1  -7   9   76.79    3.90
   1  -7   9   74.59    7.30
  -1   7  -9   64.49    6.20
   1  -7   9   74.69    3.70
   1  -7   9   58.29    2.90
   1  -7  10    3.50    1.00
   1  -7  10    5.40    1.30
  -1   7 -10    4.80    2.00
   1  -7  10    4.50    1.20
   1  -7  10    4.60    1.30
   1  -7  10    4.40    1.20
   1  -7  10    3.00    1.10
   1  -7  10    4.50    1.20
   1  -7  10    3.90    1.00
   1  -7  11   73.29    3.70
   1  -7  11   69.69    3.90
   1  -7  11   70.39    3.90
   1  -7  11   65.59    3.80
   1  -7  11   57.69    3.40
   1  -7  11   69.79    3.20
   1  -7  11   52.99    3.00
   1  -7  12   49.90    2.90
   1  -7  12   65.19    3.70
   1  -7  12   48.60    3.20
   1  -7  12   67.89    3.10
   1  -7  12   65.19    3.70
   1  -7  13    7.50    1.70
   1  -7  13    6.20    1.30
   1  -7  14   31.70    2.00
   1  -7  14   -2.70    2.20
   1  -7  15   31.30    2.30
   1  -7  15   70.89    3.00
  -1   6  11   11.00    1.00
  -1   6  11    9.90    1.00
   1  -6 -11   11.50    0.90
  -1   6  10    0.90    0.80
  -1   6  10    1.30    0.90
   1  -6 -10    2.10    0.80
   1  -6 -10    0.70    0.60
  -1   6  10    0.30    0.80
   1  -6 -10    1.70    0.70
  -1   6   9    3.70    1.10
   1  -6  -9    4.10    1.10
  -1   6   9    4.90    1.40
  -1   6   9    5.00    1.40
   1  -6  -9    3.40    1.00
  -1   6   9    4.70    1.30
   1  -6  -9    5.90    1.20
   1  -6  -8   24.80    2.20
  -1   6   8   26.50    2.50
  -1   6   8   24.50    2.10
  -1   6   8   24.70    2.20
  -1   6   8   24.10    2.50
   1  -6  -8   28.10    3.20
  -1   6   8   25.40    2.20
  -1   6   8   30.30    2.70
   1  -6  -8   23.70    2.20
   1  -6  -7   96.79    4.40
  -1   6   7   95.79    4.20
   1  -6  -7  111.29    5.10
   1  -6  -7   91.39    4.40
  -1   6   7   95.49    4.70
  -1   6   7   94.49    4.20
  -1   6   7   96.89    4.70
  -1   6   7   94.99    4.70
  -1   6   7   94.49    4.30
  -1   6   6    6.20    1.30
  -1   6   6    5.60    1.20
   1  -6  -6   12.70    2.50
   1  -6  -6    9.10    3.50
  -1   6   6    6.70    1.30
  -1   6   6    5.80    1.40
  -1   6   6    4.90    1.40
  -1   6   6    7.30    1.30
   1  -6  -6    6.20    1.40
  -1   6   5   44.30    7.30
   1  -6  -5   36.40    4.70
  -1   6   5   42.60    3.00
  -1   6   5   41.10    2.90
  -1   6   5   38.00    2.40
   1  -6  -5   46.00    3.00
  -1   6   5   49.00    6.40
   1  -6  -5   49.00    3.10
  -1   6   5   44.40    2.80
  -1   6   5   41.70    2.80
  -1   6   5   41.40    2.50
   1  -6  -5   39.00    2.50
   1  -6  -4   38.60    4.70
  -1   6   4   43.10    5.60
  -1   6   3  143.49    9.60
   1  -6  -3  133.79    8.20
  -1   6   3  148.99    9.30
  -1   6   3  150.28    9.20
  -1   6   2   30.10    4.00
  -1   6   2   27.30    4.60
   1  -6  -2   25.50    3.50
  -1   6   2   27.20    3.80
   1  -6  -1   20.40    3.00
  -1   6   1   22.90    3.20
  -1   6   1   21.60    3.40
  -1   6   1   23.30    4.30
  -1   6   0  344.27   15.30
   1  -6   0  326.17   10.80
  -1   6   0  340.67   10.90
  -1   6  -1   34.20    5.30
  -1   6  -1   30.80    3.00
   1  -6   1   26.50    3.40
  -1   6  -1   29.50    4.70
   1  -6   1   29.60    3.00
   1  -6   2   21.70    2.30
  -1   6  -2   21.80    4.30
   1  -6   2   24.50    3.10
   1  -6   3  427.46   12.60
   1  -6   3  412.46    9.60
  -1   6  -4  223.58   10.10
   1  -6   4  219.78    9.20
   1  -6   4  206.78    8.30
   1  -6   4  208.48    8.40
   1  -6   5  123.99    7.30
   1  -6   5  112.79    6.40
  -1   6  -5  124.29    7.10
   1  -6   5  113.59    5.80
   1  -6   6    0.00    1.10
   1  -6   6   -0.70    1.60
  -1   6  -6    0.20    1.10
   1  -6   7  755.62   21.30
  -1   6  -7  746.03   19.30
   1  -6   7  744.63   19.80
   1  -6   8   12.90    2.90
  -1   6  -8    9.60    2.30
   1  -6   9  278.17    7.30
   1  -6   9  278.47    7.30
   1  -6   9  242.18    6.20
  -1   6  -9  268.37   12.40
   1  -6   9  270.97   13.70
   1  -6  10    2.50    1.00
   1  -6  10    3.00    1.00
   1  -6  10    1.50    0.90
   1  -6  10    3.30    1.10
   1  -6  10    2.60    1.00
   1  -6  10    2.70    0.80
   1  -6  10    0.40    0.90
  -1   6 -10    4.40    2.10
   1  -6  10    4.00    1.00
   1  -6  10    1.70    0.90
   1  -6  11    0.30    0.90
   1  -6  11   -1.20    1.30
   1  -6  11    1.00    0.70
   1  -6  11    0.00    1.00
   1  -6  11    0.40    0.90
   1  -6  11   -2.00    1.10
   1  -6  11   -0.80    1.10
   1  -6  12   78.89    4.20
   1  -6  12   55.99    3.10
   1  -6  12   68.29    3.30
   1  -6  12   72.89    3.90
   1  -6  12   57.99    3.40
   1  -6  12   75.39    3.60
   1  -6  13    0.40    0.90
   1  -6  13   -0.80    0.90
   1  -6  14   32.30    1.90
   1  -6  14   17.90    1.60
   1  -6  15   25.30    1.60
   1  -6  15   -1.10    1.80
  -1   5  12   35.70    1.60
   1  -5 -12   26.10    1.30
  -1   5  11    1.30    0.50
   1  -5 -11    0.50    0.50
   1  -5 -11    2.60    0.80
  -1   5  11    1.30    0.80
   1  -5 -10    5.20    2.50
  -1   5  10   10.40    1.50
  -1   5  10   11.10    1.60
  -1   5  10    9.50    1.20
   1  -5 -10   10.30    1.30
  -1   5  10    9.70    1.60
   1  -5 -10   10.20    1.30
   1  -5  -9    4.60    1.20
  -1   5   9    5.70    1.50
  -1   5   9    4.50    1.40
  -1   5   9    4.60    1.40
  -1   5   9    6.00    1.40
   1  -5  -9    5.10    1.20
  -1   5   9    4.10    1.20
  -1   5   8    0.00    1.00
  -1   5   8    0.40    1.10
   1  -5  -8    1.60    2.20
  -1   5   8    0.60    1.10
  -1   5   8    0.90    0.90
   1  -5  -8    1.20    1.10
  -1   5   8    0.20    1.00
  -1   5   7  113.19    5.00
  -1   5   7  116.69    4.70
  -1   5   7  116.09    4.60
  -1   5   7  105.79    4.50
   1  -5  -7  106.79    4.90
  -1   5   7  112.59    4.90
   1  -5  -7  112.59    4.70
  -1   5   7  111.79    5.00
  -1   5   6   35.20    2.50
   1  -5  -6   40.00    2.70
   1  -5  -6   46.40    4.30
  -1   5   6   35.90    2.60
  -1   5   6   35.00    2.40
   1  -5  -6   30.90    4.20
   1  -5  -6   34.40    2.60
  -1   5   6   26.00    2.10
  -1   5   6   36.90    2.70
  -1   5   6   39.10    6.00
  -1   5   5   15.20    3.80
   1  -5  -5   13.30    2.80
  -1   5   5   10.70    3.90
  -1   5   4  184.38   10.80
  -1   5   4  180.88   10.20
   1  -5  -4  173.88    8.40
  -1   5   3    8.30    2.30
   1  -5  -3    7.10    1.90
  -1   5   3    9.30    2.60
  -1   5   3    9.20    2.50
  -1   5   2  297.27   12.80
   1  -5  -2  270.07   10.00
  -1   5   2  291.77   11.50
  -1   5   2  287.97   11.20
  -1   5   1  790.62   17.60
  -1   5   1  837.82   19.70
  -1   5   1  779.92   21.30
   1  -5   0   58.59    4.60
  -1   5   0   65.59    6.10
  -1   5   0   71.89    6.10
   1  -5   1   43.50    3.10
   1  -5   1   41.00    3.70
  -1   5  -1   44.20    4.90
   1  -5   2    0.40    1.10
   1  -5   2    0.00    0.70
   1  -5   2    0.10    0.90
  -1   5  -2    0.10    0.90
   1  -5   3    1.80    1.10
   1  -5   3    2.50    1.30
  -1   5  -3    3.20    1.50
   1  -5   3    2.90    1.20
  -1   5  -3    2.70    1.10
  -1   5  -3    3.10    0.70
   1  -5   3    2.20    0.70
  -1   5  -4   16.20    1.60
   1  -5   4   14.10    2.00
   1  -5   4   12.60    2.40
  -1   5  -4   14.50    1.80
  -1   5  -4   16.60    2.40
   1  -5   4   13.00    2.10
  -1   5  -5   86.69    4.40
   1  -5   5   80.79    4.30
   1  -5   5   78.59    5.00
  -1   5  -5   77.59    3.90
  -1   5  -5   86.39    5.30
   1  -5   5   82.09    5.70
  -1   5  -6   91.59    4.50
   1  -5   6   98.99    6.00
  -1   5  -6  101.79    5.30
   1  -5   6   95.89    6.50
  -1   5  -6   97.39    6.10
   1  -5   7   30.60    4.10
  -1   5  -7   28.50    3.20
   1  -5   8    3.50    1.80
  -1   5  -8    3.50    1.40
  -1   5  -9    1.70    1.20
   1  -5   9    1.80    1.70
  -1   5 -10   11.60    2.70
   1  -5  10   10.60    1.60
   1  -5  10    9.00    1.40
   1  -5  10    9.60    1.30
   1  -5  10    7.10    1.20
   1  -5  10    5.70    1.20
   1  -5  10   11.30    1.60
   1  -5  10   11.20    1.40
   1  -5  10   10.40    2.80
   1  -5  10    9.80    1.50
   1  -5  11    0.30    1.00
   1  -5  11    2.30    0.90
   1  -5  11    1.40    1.00
   1  -5  11    1.60    1.10
   1  -5  11    1.70    0.80
   1  -5  11    0.10    1.00
   1  -5  12   47.90    2.90
   1  -5  12   38.00    2.60
   1  -5  12   33.20    2.40
   1  -5  12   28.50    2.10
   1  -5  12   36.80    2.60
   1  -5  12   42.30    3.10
   1  -5  13    2.50    1.40
   1  -5  13    1.50    0.80
   1  -5  13   -0.10    1.00
   1  -5  14   16.10    1.50
   1  -5  14   14.10    1.50
   1  -5  15   17.70    1.30
  -1   4  12    3.70    0.90
  -1   4  12    3.50    0.80
   1  -4 -12    5.80    1.00
   1  -4 -12    3.30    0.60
  -1   4  12    4.30    0.70
  -1   4  11    5.70    1.00
  -1   4  11    7.40    1.40
   1  -4 -11    9.30    2.60
   1  -4 -11    5.90    1.00
  -1   4  11    5.80    1.20
  -1   4  10   35.60    2.40
   1  -4 -10   33.40    2.30
   1  -4 -10   33.60    2.30
  -1   4  10   32.50    2.70
  -1   4  10   38.00    2.80
   1  -4 -10   39.40    3.60
  -1   4  10   34.90    2.80
  -1   4   9   91.19    4.60
  -1   4   9   96.19    4.70
   1  -4  -9  106.79    6.80
   1  -4  -9   92.59    4.10
  -1   4   9   93.69    4.50
  -1   4   9  102.59    4.60
   1  -4  -9   86.49    4.40
  -1   4   9   98.89    4.50
  -1   4   8  252.57    7.70
  -1   4   8  275.17    7.50
  -1   4   8  246.58    7.60
  -1   4   8  269.77    7.50
   1  -4  -8  259.17    7.10
  -1   4   8  254.77    7.50
  -1   4   7    0.40    0.80
  -1   4   7    0.20    0.90
   1  -4  -7    0.30    0.90
  -1   4   7    0.70    0.90
   1  -4  -7   -3.00    2.30
  -1   4   7   -1.60    2.40
  -1   4   7    1.00    0.80
   1  -4  -7   -0.70    1.30
   1  -4  -6   20.20    3.30
  -1   4   6   24.30    4.70
   1  -4  -6   20.50    2.90
   1  -4  -5   58.09    4.60
  -1   4   5   57.49    6.40
   1  -4  -5   63.29    4.50
   1  -4  -4   83.29    5.30
   1  -4  -4   98.79    5.00
  -1   4   4   92.99    7.00
  -1   4   4   87.89    7.00
  -1   4   3  507.25   15.10
  -1   4   3  527.25   15.80
   1  -4  -3  555.04   11.40
   1  -4  -3  498.65   13.10
  -1   4   3  551.44   16.20
   1  -4  -2  137.89    4.70
  -1   4   2  120.69    6.60
  -1   4   2  121.79    6.90
   1  -4  -2  109.79    5.60
  -1   4   2  122.19    7.20
  -1   4   1    5.30    2.20
   1  -4  -1    5.10    1.50
   1  -4  -1    5.40    1.70
  -1   4   1    6.30    1.70
  -1   4   1    3.10    1.70
   1  -4  -1    5.80    1.50
   1  -4   0  726.63   13.70
  -1   4   0  757.22   17.10
   1  -4   1  124.49    4.70
   1  -4   1  125.29    5.50
  -1   4  -1  125.89    5.30
   1  -4   2 1043.70   14.90
  -1   4  -2 1062.49   16.90
  -1   4  -2 1052.79   12.50
   1  -4   2 1061.19   17.80
  -1   4  -2 1064.69   19.80
   1  -4   2 1085.09   18.00
   1  -4   3   29.10    2.80
   1  -4   3   27.60    1.50
   1  -4   3   31.00    2.60
  -1   4  -3   31.20    2.00
  -1   4  -3   31.30    2.80
   1  -4   3   30.40    2.50
  -1   4  -3   29.60    2.30
   1  -4   4   28.10    2.30
   1  -4   4   29.50    3.00
  -1   4  -4   25.60    2.70
  -1   4  -4   28.80    2.20
   1  -4   4   25.20    2.50
  -1   4  -4   28.40    2.20
  -1   4  -5   17.20    1.90
   1  -4   5   17.10    2.70
   1  -4   5   17.50    1.80
  -1   4  -5   15.60    2.00
   1  -4   5   16.40    2.30
  -1   4  -6  502.95   13.00
   1  -4   6  527.05   15.40
  -1   4  -6  497.75   11.90
  -1   4  -6  509.65   11.80
   1  -4   7   94.19    6.10
   1  -4   7   95.49    6.70
  -1   4  -7   84.29    5.60
  -1   4  -7   83.29    5.00
   1  -4   8   29.30    4.10
  -1   4  -8   22.10    3.20
   1  -4   8   25.40    3.70
  -1   4  -8   20.20    2.80
   1  -4   9    8.80    2.40
  -1   4  -9    8.00    2.00
   1  -4   9    8.40    2.40
  -1   4  -9   10.00    2.50
   1  -4  10   24.10    2.00
   1  -4  10   26.80    2.30
  -1   4 -10   24.00    3.80
   1  -4  10   24.80    2.00
   1  -4  10   18.20    1.80
   1  -4  10   22.80    2.20
   1  -4  10   21.70    2.10
   1  -4  10   18.90    1.80
   1  -4  10   17.80    3.50
   1  -4  11   95.39    4.00
   1  -4  11   86.09    3.80
   1  -4  11  104.49    4.70
   1  -4  11  112.09    4.50
   1  -4  11  101.79    4.30
   1  -4  12   57.09    3.00
   1  -4  12   43.70    2.60
   1  -4  12   54.69    3.20
   1  -4  12   60.69    3.30
   1  -4  12   56.89    3.60
   1  -4  12   45.20    2.80
   1  -4  13    0.00    0.80
   1  -4  13   -0.30    1.00
   1  -4  13    0.50    1.20
   1  -4  14  133.79    4.30
   1  -4  14  176.88    4.30
   1  -4  14  123.09    4.30
   1  -4  14  191.48    4.50
   1  -4  15   25.70    1.60
   1  -3 -13    5.00    0.80
  -1   3  13    3.30    0.80
  -1   3  12   11.70    1.40
  -1   3  12   11.60    1.50
   1  -3 -12    9.40    1.00
   1  -3 -12   14.50    2.60
  -1   3  12   11.70    1.30
   1  -3 -11   13.20    1.50
  -1   3  11   12.80    1.60
  -1   3  11    8.90    1.50
   1  -3 -11    8.10    2.40
  -1   3  11   13.60    1.90
  -1   3  10   43.20    3.10
  -1   3  10   35.80    2.80
  -1   3  10   35.90    2.60
   1  -3 -10   37.80    2.50
  -1   3  10   34.90    2.80
  -1   3  10   35.30    2.80
  -1   3   9   61.39    3.70
  -1   3   9   62.69    3.70
  -1   3   9   67.59    3.80
  -1   3   9   64.79    3.80
  -1   3   9   71.39    3.90
   1  -3  -9   64.29    3.40
   1  -3  -8   69.79    5.80
  -1   3   8   76.09    3.80
  -1   3   8   71.09    3.70
   1  -3  -8   66.39    5.60
  -1   3   8   72.79    3.80
  -1   3   8   73.19    3.70
   1  -3  -8   71.99    3.50
  -1   3   8   82.79    8.90
  -1   3   8   76.19    3.90
  -1   3   7   52.89    6.80
   1  -3  -7   41.60    4.20
   1  -3  -6    4.50    1.40
  -1   3   6    4.90    2.60
   1  -3  -6    3.00    1.40
   1  -3  -5  751.62   16.20
   1  -3  -5  752.12   16.50
  -1   3   4  197.28    7.40
   1  -3  -4  184.48    7.20
  -1   3   4  192.58    9.30
  -1   3   4  192.68    9.60
   1  -3  -4  191.98    6.80
  -1   3   3   41.10    4.10
  -1   3   3   35.80    3.30
  -1   3   3   40.40    4.20
   1  -3  -3   39.40    3.20
   1  -3  -3   44.50    2.80
   1  -3  -2  619.14   10.30
   1  -3  -2  590.54   12.50
  -1   3   2  610.94   14.30
   1  -3  -2  574.84   12.80
  -1   3   2  650.83   15.30
  -1   3   2  611.24   14.30
  -1   3   1    3.60    1.70
  -1   3   1    4.20    1.60
   1  -3  -1    3.80    0.60
   1  -3  -1    4.30    1.20
   1  -3  -1    3.70    1.30
   1  -3   0 1157.38   13.90
   1  -3   0 1140.79   14.80
  -1   3   0 1125.39   15.90
   1  -3   1   20.10    2.00
   1  -3   1   18.10    1.80
   1  -3   1   18.80    1.80
  -1   3  -1   18.30    2.00
  -1   3  -2   15.60    1.10
  -1   3  -2   14.10    1.50
  -1   3  -2   18.20    1.90
   1  -3   2   15.00    1.70
   1  -3   2   14.60    1.00
   1  -3   2   13.70    1.80
   1  -3   3   22.10    1.90
   1  -3   3   20.80    1.90
  -1   3  -3   22.80    1.70
  -1   3  -3   21.50    1.80
   1  -3   4  864.41   15.30
   1  -3   4  888.61   17.30
   1  -3   4  862.11   13.40
  -1   3  -4  856.81   14.30
  -1   3  -4  833.62   14.90
   1  -3   4  859.41   15.60
  -1   3  -5    0.60    0.90
  -1   3  -5    0.50    0.60
  -1   3  -5   -0.20    1.00
   1  -3   5    0.50    0.40
   1  -3   5    0.50    1.30
   1  -3   5    1.00    1.30
   1  -3   6   -0.30    1.30
  -1   3  -6    0.40    1.10
   1  -3   6    0.50    1.30
  -1   3  -6   -0.30    1.00
   1  -3   7   20.60    3.20
  -1   3  -7   19.70    2.80
   1  -3   7   20.80    3.30
  -1   3  -7   18.30    2.60
   1  -3   8    2.00    1.60
   1  -3   8    1.80    1.60
  -1   3  -8    2.10    1.50
  -1   3  -8    2.40    1.40
   1  -3   9    7.60    2.60
   1  -3   9    7.00    2.20
  -1   3  -9    7.40    2.00
  -1   3  -9   11.20    2.70
   1  -3  10   55.39    3.30
   1  -3  10   59.79    3.20
   1  -3  10   55.29    5.90
  -1   3 -10   49.20    5.10
   1  -3  10   59.79    3.50
   1  -3  10   50.89    2.80
   1  -3  10   58.09    6.80
   1  -3  10   63.89    3.20
   1  -3  10   51.99    2.90
  -1   3 -10   57.09    5.90
   1  -3  11   13.00    1.70
   1  -3  11   13.40    1.60
   1  -3  11    9.30    1.30
   1  -3  11   12.80    1.60
   1  -3  11   13.20    1.90
   1  -3  11   10.20    1.30
   1  -3  12   21.00    1.90
   1  -3  12   25.30    2.30
   1  -3  12   28.50    2.30
   1  -3  12   26.10    2.50
   1  -3  13    0.70    1.20
   1  -3  13    0.60    0.90
   1  -3  13    0.50    0.70
   1  -3  14   81.99    3.30
   1  -3  14   73.99    3.30
   1  -3  15    5.40    0.70
   1  -3  15    5.00    0.80
   1  -2 -14   29.60    1.30
  -1   2  14   31.40    1.50
  -1   2  13    0.10    0.60
  -1   2  13    0.40    0.80
  -1   2  13   -0.40    0.60
  -1   2  12   23.50    2.00
  -1   2  12   27.80    2.40
   1  -2 -12   24.10    1.60
  -1   2  12   25.50    2.00
  -1   2  12   21.80    2.20
   1  -2 -12   34.30    4.40
   1  -2 -12   13.20    2.40
  -1   2  11   88.19    4.20
  -1   2  11   81.89    3.90
  -1   2  11   92.29    4.40
   1  -2 -11   79.89    3.40
  -1   2  10   44.20    2.90
  -1   2  10   50.09    3.30
  -1   2  10   48.70    3.30
  -1   2  10   44.70    3.10
   1  -2 -10   43.20    2.70
   1  -2  -9   14.30    2.90
   1  -2  -9   15.00    1.60
  -1   2   9   18.00    4.70
  -1   2   9   14.80    1.80
  -1   2   9   16.70    2.00
  -1   2   9   16.00    1.90
  -1   2   9   15.20    1.80
  -1   2   9   15.70    1.90
   1  -2  -8   58.69    5.30
  -1   2   8   62.79    3.30
  -1   2   8   65.79    7.70
  -1   2   8   61.29    3.20
   1  -2  -8   57.69    5.00
   1  -2  -7  125.99    7.20
  -1   2   7  148.09   10.60
   1  -2  -6  109.29    6.20
  -1   2   6  122.39    8.70
   1  -2  -6  105.39    5.50
   1  -2  -5  119.79    5.90
   1  -2  -5  115.49    5.40
  -1   2   5  127.19    8.10
  -1   2   4    1.10    0.60
  -1   2   4    2.10    2.00
   1  -2  -4    1.50    1.00
  -1   2   4    1.10    1.60
   1  -2  -4    0.90    0.90
  -1   2   4    1.30    0.50
  -1   2   3    0.10    0.80
  -1   2   3    1.00    1.40
  -1   2   3    1.00    1.60
   1  -2  -3    0.10    0.80
   1  -2  -3    0.50    0.70
   1  -2  -2   72.09    2.90
  -1   2   2   75.39    3.80
  -1   2   2   77.49    4.30
   1  -2  -2   73.09    3.60
   1  -2  -2   70.59    3.50
  -1   2   2   80.19    4.70
   1  -2  -1  253.97    6.20
   1  -2  -1  233.78    6.20
  -1   2   1  234.38    7.60
  -1   2   1  258.47    6.80
   1  -2  -1  247.38    4.50
   1  -2   0 1791.22   21.60
  -1   2   0 1734.33   23.30
   1  -2   0 1779.62   22.20
  -1   2  -1  159.48    2.60
   1  -2   1  154.18    4.40
   1  -2   1  153.78    4.00
  -1   2  -1  159.08    4.30
   1  -2   1  158.58    4.30
  -1   2  -2 1376.66   16.70
  -1   2  -2 1392.96   17.40
   1  -2   3    0.70    1.00
   1  -2   3    0.80    0.80
  -1   2  -3    0.70    0.70
  -1   2  -3    0.50    0.60
   1  -2   4  523.45   12.40
   1  -2   4  464.45   11.20
  -1   2  -4  510.95    8.40
  -1   2  -4  479.55   10.70
  -1   2  -5    1.10    0.40
   1  -2   5    1.10    1.20
   1  -2   5    0.70    1.50
  -1   2  -5    1.70    1.20
  -1   2  -6  295.47   10.00
   1  -2   6  313.37   11.20
  -1   2  -7   82.89    5.80
   1  -2   7   76.79    6.40
   1  -2   7   87.59    6.30
   1  -2   8    1.30    1.50
   1  -2   8    0.50    1.70
  -1   2  -8    1.20    1.40
   1  -2   9   31.30    4.30
   1  -2   9   35.20    5.40
  -1   2  -9   34.20    4.50
   1  -2  10    6.70    1.10
   1  -2  10   14.00    1.70
   1  -2  10   10.70    1.40
  -1   2 -10   13.30    3.00
   1  -2  10   13.50    1.60
   1  -2  10   14.60    1.60
   1  -2  10   12.90    1.80
   1  -2  10   12.10    3.50
  -1   2 -10   14.20    3.10
   1  -2  11   37.20    2.40
   1  -2  11   41.80    2.80
   1  -2  11   38.60    2.50
   1  -2  11   38.90    2.80
   1  -2  11   40.40    2.70
   1  -2  11   38.40    2.90
   1  -2  12   10.70    1.70
   1  -2  12   11.00    1.80
   1  -2  12   12.10    1.60
   1  -2  12   13.80    1.50
   1  -2  12   11.40    1.60
   1  -2  13   21.60    2.00
  -1   2 -13   16.90    1.50
   1  -2  13   21.60    2.10
   1  -2  13   25.00    2.10
   1  -2  14   11.90    1.40
   1  -2  14   12.80    1.30
  -1   2 -15    4.00    1.10
   1  -2  15    3.40    0.70
   1  -1 -14   13.40    1.50
  -1   1  14   15.70    1.30
   1  -1 -14   16.90    1.20
  -1   1  14   14.90    1.20
  -1   1  13   20.70    1.60
   1  -1 -13   18.60    2.30
  -1   1  13   26.00    1.90
  -1   1  13   21.20    1.90
  -1   1  12  147.59    5.40
  -1   1  12  139.59    5.30
  -1   1  12  149.19    5.10
  -1   1  12  142.19    5.00
   1  -1 -11    2.30    0.80
  -1   1  11    3.10    1.40
  -1   1  11    3.00    1.20
  -1   1  11    2.60    1.10
  -1   1  10   56.79    3.40
  -1   1  10   60.39    3.60
  -1   1  10   49.70    3.20
  -1   1  10   53.09    3.40
   1  -1 -10   48.10    2.70
  -1   1   9   14.80    1.70
  -1   1   9   16.80    1.70
  -1   1   9   15.20    1.80
   1  -1  -9   12.50    1.40
   1  -1  -9   15.40    3.00
  -1   1   9   14.20    4.10
  -1   1   9   18.80    1.90
  -1   1   9   15.80    1.80
  -1   1   8    1.90    2.20
   1  -1  -8    0.90    1.60
  -1   1   7    7.70    2.90
   1  -1  -7    5.70    1.90
   1  -1  -6   99.49    5.00
   1  -1  -6   96.29    5.80
  -1   1   6  103.69    7.50
  -1   1   5  457.95   11.30
  -1   1   5  462.35    9.30
  -1   1   5  464.35   14.40
   1  -1  -5  442.26   10.70
   1  -1  -5  442.76   11.60
   1  -1  -4  342.57    8.70
  -1   1   4  358.76    7.10
   1  -1  -4  325.57    8.80
  -1   1   4  334.67   10.80
  -1   1   4  350.06    6.60
  -1   1   3   52.89    3.70
  -1   1   3   53.79    3.90
   1  -1  -3   51.19    2.50
   1  -1  -3   49.80    2.90
  -1   1   3   49.80    2.00
   1  -1  -3   47.60    2.90
  -1   1   3   53.49    2.00
   1  -1  -2 1502.75   19.90
  -1   1   2 1584.94   22.20
   1  -1  -2 1475.55   18.60
  -1   1   2 1541.95   17.60
  -1   1   2 1454.65   15.70
  -1   1   1   53.49    3.00
   1  -1  -1   57.89    2.30
   1  -1  -1   58.39    2.50
   1  -1   0  171.28    3.20
   1  -1   0  166.38    4.30
   1  -1   0  160.58    3.70
  -1   1  -1   52.79    2.00
  -1   1  -1   54.49    1.70
   1  -1   1   48.70    1.40
   1  -1   1   55.19    2.30
   1  -1   1   52.29    1.50
   1  -1   2  243.08    5.90
  -1   1  -2  244.98    5.40
   1  -1   2  231.58    5.80
   1  -1   2  256.47    5.30
  -1   1  -2  223.78    3.40
   1  -1   3   18.50    2.00
  -1   1  -3   15.70    0.70
   1  -1   3   18.40    2.00
  -1   1  -3   15.80    1.80
   1  -1   3   19.40    1.50
  -1   1  -3   19.20    1.10
  -1   1  -4 1766.02   20.00
   1  -1   4 1975.00   28.20
   1  -1   4 2014.50   22.70
   1  -1   4 1883.31   28.20
  -1   1  -4 1949.20   26.70
   1  -1   4 1970.20   27.00
  -1   1  -4 1858.01   21.90
  -1   1  -5   74.29    4.60
   1  -1   5   70.39    5.20
  -1   1  -5   68.09    2.80
   1  -1   6   87.39    5.80
   1  -1   6   86.79    6.40
  -1   1  -6   89.89    5.60
   1  -1   7  152.48    9.40
   1  -1   7  157.48    8.40
  -1   1  -7  150.68    7.90
   1  -1   8   61.39    5.50
  -1   1  -8   64.49    5.70
   1  -1   8   59.39    6.50
   1  -1   9   32.30    2.40
   1  -1   9   31.10    5.30
   1  -1   9   26.60    2.20
  -1   1  -9   29.40    4.10
   1  -1   9   23.50    1.70
   1  -1  10   -2.30    1.10
   1  -1  10    0.00    0.80
   1  -1  10   -0.10    0.70
   1  -1  10    1.80    2.00
  -1   1 -10   -0.20    1.70
   1  -1  10    0.50    0.90
   1  -1  10    0.30    0.90
  -1   1 -10   -2.40    1.70
   1  -1  11   86.79    4.10
   1  -1  11   86.79    4.30
   1  -1  11   90.79    4.30
   1  -1  11   86.89    4.20
  -1   1 -12    0.70    0.70
   1  -1  12    0.70    0.90
   1  -1  12    1.10    0.90
   1  -1  12    1.10    1.00
   1  -1  12    1.20    1.00
   1  -1  13   42.20    2.70
  -1   1 -13   34.00    2.00
   1  -1  13   41.40    2.50
   1  -1  13   44.10    2.70
   1  -1  14   -0.30    0.70
   1  -1  14    0.10    0.60
  -1   0  14   -1.20    0.90
  -1   0  14    1.10    0.80
  -1   0  13   69.29    3.50
  -1   0  13   66.99    3.30
  -1   0  12   89.39    4.10
  -1   0  12  100.19    4.20
  -1   0  12   93.29    4.50
  -1   0  12   89.49    4.30
  -1   0  11    0.80    0.90
  -1   0  11    0.10    0.90
  -1   0  11    0.90    1.00
  -1   0  11    0.30    0.80
  -1   0  11    0.90    1.10
   1   0 -10    0.40    1.30
  -1   0  10   -0.60    0.90
  -1   0  10    0.00    0.80
  -1   0  10    0.10    0.90
  -1   0  10    0.50    0.90
  -1   0  10    0.40    0.80
  -1   0   9    0.50    0.80
  -1   0   9    0.90    2.30
   1   0  -9    1.60    1.60
   1   0  -8   13.30    2.70
  -1   0   8   16.60    3.80
   1   0  -7  182.78    6.90
   1   0  -7  176.98    8.50
  -1   0   7  200.48   10.80
  -1   0   6    0.60    0.70
   1   0  -6    1.30    0.80
  -1   0   6    1.30    1.80
  -1   0   6    1.10    0.80
   1   0  -6    1.50    1.40
   1   0  -5  414.56   10.10
   1   0  -5  406.96   11.10
  -1   0   5  417.76    9.40
  -1   0   5  434.06   10.80
  -1   0   5  415.16   12.50
  -1   0   4  165.18    6.70
  -1   0   4  162.18    4.90
   1   0  -4  160.28    5.60
  -1   0   4  169.08    6.00
   1   0  -4  156.18    5.90
  -1   0   3 1307.17   16.80
  -1   0   3 1337.67   19.90
  -1   0   3 1321.77   20.50
   1   0  -3 1344.37   19.10
   1   0  -2    6.60    0.90
  -1   0   2    7.10    0.70
   1   0  -2    6.80    0.60
  -1   0   2    8.20    1.30
   1   0  -2    6.40    1.10
  -1   0   1    0.90    0.60
   1   0  -1    0.70    0.50
   1   0  -1    0.80    0.60
   1   0  -1    1.00    0.30
  -1   0   1    1.10    0.50
  -1   0   0  537.85    6.60
   1   0   0  496.05    8.40
  -1   0   0  476.35    6.70
   1   0   0  519.85    7.10
  -1   0   0  468.55    6.90
   1   0   0  462.45    7.30
  -1   0   0  431.36    8.70
   1   0   1   37.20    2.00
  -1   0  -1   42.10    1.90
   1   0   1   42.30    2.50
  -1   0  -1   39.10    1.50
   1   0   1   37.50    2.10
   1   0   2   42.20    2.70
  -1   0  -2   45.90    2.40
   1   0   2   46.30    2.90
  -1   0  -2   40.70    1.90
   1   0   2   36.90    2.50
  -1   0  -3   76.49    3.00
   1   0   3   73.39    4.20
  -1   0  -3   76.79    1.90
  -1   0  -3   81.19    3.80
   1   0   3   80.59    4.10
  -1   0  -4   46.00    2.70
   1   0   4   56.59    3.60
   1   0   4   52.69    3.60
  -1   0  -4   53.59    3.60
   1   0   4   48.10    4.00
  -1   0  -4   46.20    1.70
   1   0   5   60.69    4.30
  -1   0  -5   53.59    3.20
  -1   0  -5   57.19    4.20
   1   0   5   68.39    4.00
   1   0   5   53.99    5.00
   1   0   6   90.29    5.80
   1   0   6  109.29    6.00
  -1   0  -6  104.49    6.20
  -1   0  -6   98.69    4.70
   1   0   6  106.89    7.50
   1   0   7  319.67   12.00
   1   0   7  315.77   14.30
  -1   0  -7  311.37   11.80
  -1   0  -8    0.60    1.20
   1   0   8    2.30    2.50
   1   0   9   47.00    2.90
  -1   0  -9   43.20    2.50
   1   0   9   45.50    2.80
   1   0   9   50.59    2.70
   1   0   9   49.20    3.00
  -1   0  -9   47.40    5.30
   1   0   9   52.89    7.10
  -1   0 -10    1.20    0.70
   1   0  10    1.40    0.90
   1   0  10    0.50    0.90
   1   0  10    1.50    0.90
   1   0  11    0.10    0.90
   1   0  11    0.80    1.00
  -1   0 -11   -0.30    0.90
   1   0  11   -0.60    1.00
  -1   0 -12    5.30    1.10
   1   0  12    4.80    1.30
   1   0  12    6.30    1.40
   1   0  12    5.20    1.10
   1   0  12    7.70    1.40
   1   0  13   16.10    1.60
   1   0  13   12.70    1.50
  -1   0 -13   13.20    1.30
   1   0  13   17.20    1.50
  -1   0 -14   20.60    2.00
   1   0  14   20.90    1.40
   1   0  14   20.60    1.40
  -1  -1  15   15.80    1.20
  -1  -1  15   19.00    1.30
   1   1 -15   16.10    1.10
   1   1 -14   21.60    2.50
  -1  -1  14   44.70    2.60
   1   1 -14   23.70    1.90
  -1  -1  14   20.60    1.90
  -1  -1  14   39.40    2.30
  -1  -1  13   79.29    3.90
  -1  -1  13   73.89    3.60
  -1  -1  12   53.79    3.40
  -1  -1  12   54.79    3.50
  -1  -1  12   56.99    3.20
  -1  -1  12   57.29    3.30
  -1  -1  11   40.00    2.30
  -1  -1  11   42.90    2.70
  -1  -1  11    0.50    0.90
  -1  -1  11    1.40    1.00
  -1  -1  11    0.40    1.00
  -1  -1  11    0.00    0.90
  -1  -1  11    0.70    0.80
  -1  -1  10    0.20    0.90
  -1  -1  10    1.00    0.90
  -1  -1  10    3.50    1.00
  -1  -1  10    1.20    0.90
   1   1 -10    0.30    1.30
  -1  -1  10    1.00    0.80
  -1  -1  10    0.20    0.80
  -1  -1  10    3.60    2.50
   1   1  -9  148.59    8.80
  -1  -1   9  146.79   10.50
   1   1  -8   47.00    4.80
  -1  -1   8   46.20    5.40
  -1  -1   7   15.70    2.30
   1   1  -7   14.10    2.00
  -1  -1   7   17.50    3.20
  -1  -1   7   14.00    2.20
   1   1  -7   14.10    2.60
  -1  -1   6   15.70    2.30
  -1  -1   6   15.60    2.00
   1   1  -6   13.30    1.90
   1   1  -6   12.60    2.30
  -1  -1   6   15.90    2.80
  -1  -1   5   45.50    3.10
  -1  -1   5   40.10    3.60
  -1  -1   5   45.90    3.60
   1   1  -5   42.60    3.10
   1   1  -4   52.79    3.30
  -1  -1   4   52.79    3.00
  -1  -1   4   48.10    3.20
  -1  -1   4   50.79    3.40
  -1  -1   3  487.15   10.40
  -1  -1   3  480.15    9.10
   1   1  -3  484.95    7.20
  -1  -1   3  489.25    9.20
   1   1  -2  360.26    7.70
  -1  -1   2  352.76    6.80
   1   1  -2  332.97    6.40
  -1  -1   2  358.06    5.90
   1   1  -2  355.96    6.80
   1   1  -1   65.09    3.10
  -1  -1   1   60.19    2.30
  -1  -1   1   56.19    1.60
   1   1  -1   58.59    2.70
   1   1   0  549.65   10.00
   1   1   0  530.25    7.30
  -1  -1   0  544.05    8.10
   1   1   1  343.27    7.20
  -1  -1  -1  332.57    5.00
  -1  -1  -1  376.66    7.00
   1   1   1  378.06    8.90
   1   1   1  395.56    9.90
   1   1   2 3314.07   41.60
  -1  -1  -2 3225.28   38.20
  -1  -1  -2 3505.05   38.90
   1   1   2 3141.79   40.10
   1   1   2 3584.04   44.30
   1   1   3  136.99    6.80
  -1  -1  -3  130.69    5.20
  -1  -1  -3  118.39    4.70
   1   1   3  130.49    5.90
   1   1   3  119.39    5.90
   1   1   4  411.86   11.40
   1   1   4  391.66   12.30
  -1  -1  -4  387.96    9.70
  -1  -1  -4  412.76   10.70
  -1  -1  -4  382.36    7.40
   1   1   5  247.78    9.30
  -1  -1  -5  222.08    7.70
  -1  -1  -5  232.88    8.80
   1   1   5  233.68   10.60
  -1  -1  -6   63.09    4.30
   1   1   6   71.59    6.60
   1   1   6   61.59    4.80
  -1  -1  -6   68.59    5.20
   1   1   7    4.70    2.70
  -1  -1  -7    4.40    1.90
   1   1   8   11.30    3.70
  -1  -1  -8    8.50    2.50
  -1  -1  -9   18.50    1.80
   1   1   9   20.50    2.10
  -1  -1  -9   19.30    3.50
  -1  -1  -9   19.20    1.70
   1   1   9   20.10    1.80
   1   1   9   20.50    4.80
   1   1   9   22.00    2.00
   1   1   9   20.40    2.10
  -1  -1 -10    7.40    1.40
   1   1  10    7.60    1.30
  -1  -1 -10    8.90    1.40
   1   1  10    8.90    1.60
   1   1  10    8.80    1.60
   1   1  11    9.90    1.70
  -1  -1 -11    9.40    1.50
   1   1  11   11.40    1.50
   1   1  11    7.70    1.60
   1   1  12   13.60    1.70
   1   1  12   12.50    1.70
  -1  -1 -12   13.70    1.50
   1   1  12   13.40    1.70
  -1  -1 -13   59.99    2.30
   1   1  13   63.19    2.80
  -1  -1 -13   47.40    3.00
  -1  -1 -13   77.59    5.40
   1   1  13   66.69    2.90
   1   1  14   12.60    1.00
  -1  -1 -14   10.60    1.20
   1   2 -15   11.20    1.10
  -1  -2  15   11.00    1.20
  -1  -2  15   11.40    1.20
  -1  -2  14    9.70    1.50
  -1  -2  14    7.90    1.30
  -1  -2  13    2.70    1.20
  -1  -2  13    1.60    1.00
  -1  -2  12  103.29    4.70
  -1  -2  12  110.09    4.90
  -1  -2  12  103.59    4.70
  -1  -2  12  158.48    4.70
  -1  -2  12  156.88    4.90
  -1  -2  11   59.49    3.50
  -1  -2  11   61.29    3.30
  -1  -2  11   64.59    3.00
  -1  -2  11   58.09    3.40
  -1  -2  11   53.19    3.20
  -1  -2  11   54.89    3.40
  -1  -2  10   56.89    3.20
  -1  -2  10   60.09    3.30
  -1  -2  10   56.39    3.20
  -1  -2  10   59.89    3.10
  -1  -2  10   49.70    2.50
  -1  -2  10   49.10    2.60
   1   2 -10   47.90    5.30
  -1  -2  10   54.69    6.50
   1   2  -9  216.18   10.80
  -1  -2   9  229.18   12.10
   1   2  -8  104.89    7.00
  -1  -2   8  112.09    7.70
  -1  -2   8  103.79    6.30
   1   2  -7   42.50    4.30
  -1  -2   7   45.20    4.40
   1   2  -7   45.70    3.60
  -1  -2   7   42.20    4.10
  -1  -2   7   45.50    3.90
  -1  -2   6    3.20    1.30
   1   2  -6    3.70    1.70
  -1  -2   6    3.50    1.60
   1   2  -6    3.30    1.10
  -1  -2   6    3.30    1.40
  -1  -2   5  210.98    7.40
  -1  -2   5  221.28    7.30
   1   2  -5  229.18    8.00
  -1  -2   5  216.68    8.10
  -1  -2   4  128.89    5.80
  -1  -2   4  136.59    5.30
   1   2  -4  113.49    3.00
  -1  -2   4  129.39    4.50
  -1  -2   4  128.59    5.50
   1   2  -4  129.89    5.50
  -1  -2   3  164.58    4.90
   1   2  -3  181.08    5.30
  -1  -2   3  179.18    5.80
  -1  -2   3  179.28    4.00
   1   2  -2  442.96    9.70
   1   2  -2  446.76   10.10
  -1  -2   2  418.06    8.00
  -1  -2   1  137.79    2.20
  -1  -2   1  150.68    4.80
   1   2  -1  162.38    6.10
  -1  -2   1  151.38    4.30
  -1  -2   1  196.18    5.10
   1   2  -1  132.79    2.40
   1   2  -1  175.88    6.50
   1   2   0 1037.80   13.70
   1   2   0 1121.49   18.90
  -1  -2   0 1104.59   15.30
  -1  -2   0  990.60   14.30
   1   2   0 1061.99   12.30
   1   2   1   18.30    2.70
   1   2   1   20.40    3.10
  -1  -2  -1   18.10    1.90
   1   2   1   18.40    1.90
  -1  -2  -2 1560.44   23.70
  -1  -2  -2 1911.31   25.10
   1   2   2 1810.62   30.80
   1   2   2 1569.94   24.90
   1   2   2 1687.13   27.80
   1   2   3   22.50    3.10
   1   2   3   20.70    3.00
   1   2   3   24.30    3.70
  -1  -2  -3   23.00    2.50
  -1  -2  -3   20.30    2.40
   1   2   4   25.50    3.30
  -1  -2  -4   21.00    2.60
  -1  -2  -4   19.90    2.60
   1   2   4   24.10    3.90
   1   2   4   19.70    3.20
   1   2   5  154.38    7.90
   1   2   5  147.09    9.00
   1   2   5  173.18   10.10
  -1  -2  -5  157.78    7.50
  -1  -2  -5  144.89    6.90
   1   2   6  145.49    9.80
   1   2   6  159.48    8.30
  -1  -2  -6  136.69    7.10
  -1  -2  -6  151.28    8.00
   1   2   7  207.38   12.70
  -1  -2  -7  189.78    9.70
  -1  -2  -8   23.10    2.10
  -1  -2  -8   25.50    2.00
  -1  -2  -8   24.30    2.20
   1   2   8   26.50    2.10
   1   2   8   29.20    5.40
   1   2   8   23.70    2.10
  -1  -2  -8   24.20    4.10
   1   2   8   24.20    2.20
   1   2   8   24.70    2.20
  -1  -2  -9   64.19    3.20
   1   2   9   74.99    3.70
   1   2   9   64.99    3.50
  -1  -2  -9   65.19    3.50
   1   2   9   62.99    3.70
   1   2   9   68.19    3.80
   1   2   9   69.89    3.60
  -1  -2  -9   72.29    3.80
  -1  -2 -10   31.60    2.40
   1   2  10   34.90    2.50
   1   2  10   35.40    2.90
  -1  -2 -10   37.40    2.80
   1   2  10   36.00    2.90
   1   2  10   32.10    2.40
  -1  -2 -11  144.79    4.90
   1   2  11  155.08    5.50
   1   2  11  140.39    5.10
   1   2  12    0.10    0.90
   1   2  12   -0.20    0.80
   1   2  12    0.50    0.90
  -1  -2 -12    0.30    0.70
   1   2  13    0.50    0.60
  -1  -2 -13    0.90    0.50
   1   2  13    0.20    0.50
  -1  -2 -13    1.60    1.60
  -1  -3  15    1.70    0.90
  -1  -3  15    0.30    0.70
  -1  -3  14   65.79    3.20
  -1  -3  14   67.89    3.40
  -1  -3  13    0.10    1.00
  -1  -3  13   -0.70    1.20
  -1  -3  12  193.48    6.50
  -1  -3  12  195.78    5.50
  -1  -3  12  199.38    5.20
  -1  -3  12  182.28    6.20
  -1  -3  12  188.68    6.40
  -1  -3  11   20.30    2.10
  -1  -3  11   20.70    2.10
  -1  -3  11   18.60    1.70
  -1  -3  11   22.40    2.30
  -1  -3  11   21.90    2.10
  -1  -3  10  104.79    4.30
  -1  -3  10   90.09    4.10
  -1  -3  10   84.09    3.60
   1   3 -10   76.39    6.80
  -1  -3  10   92.39    4.00
  -1  -3  10   71.89    3.20
  -1  -3  10   88.19    3.80
  -1  -3   9  487.95   15.60
   1   3  -9  446.56   15.90
   1   3  -8   10.10    2.50
  -1  -3   8   11.90    2.50
  -1  -3   8   11.20    2.50
  -1  -3   8   12.30    2.40
  -1  -3   7   32.10    3.90
   1   3  -7   31.20    3.60
  -1  -3   7   30.40    3.50
   1   3  -7   31.00    3.30
  -1  -3   7   30.80    3.20
   1   3  -6   11.60    2.10
  -1  -3   6   12.40    1.90
  -1  -3   6   13.70    2.60
  -1  -3   6   12.80    2.30
  -1  -3   5  724.23   15.90
  -1  -3   5  674.03   12.20
   1   3  -5  684.93   15.40
  -1  -3   5  690.83   15.30
  -1  -3   5  691.53   16.50
  -1  -3   4  231.78    7.60
  -1  -3   4  210.18    4.70
   1   3  -4  219.98    6.70
  -1  -3   4  200.28    6.00
  -1  -3   4  227.58    7.70
  -1  -3   4  224.28    8.30
  -1  -3   3   25.90    2.00
  -1  -3   3   28.00    2.60
   1   3  -3   27.70    2.80
   1   3  -3   26.50    2.80
  -1  -3   2   11.50    1.80
  -1  -3   2   11.50    1.40
   1   3  -2   12.40    2.40
   1   3  -2   11.60    2.30
   1   3  -2   13.70    1.20
  -1  -3   1   13.30    1.80
  -1  -3   1   16.40    1.70
   1   3  -1   13.90    1.00
   1   3  -1   14.10    2.80
  -1  -3   1   16.30    1.90
   1   3   0 2096.49   33.60
   1   3   0 2083.39   24.80
  -1  -3   0 2032.90   27.70
   1   3   1  435.36    9.00
  -1  -3  -1  452.65   10.60
   1   3   1  421.86   10.00
   1   3   1  444.06   13.50
  -1  -3  -2   40.80    4.00
   1   3   2   34.10    4.20
   1   3   2   36.40    4.90
  -1  -3  -2   35.00    3.20
   1   3   2   31.70    3.20
   1   3   3   10.80    2.70
   1   3   3   10.00    3.30
  -1  -3  -3    7.20    1.80
  -1  -3  -3   11.40    2.40
   1   3   3    7.70    2.30
  -1  -3  -4   94.19    5.80
   1   3   4   94.29    6.80
   1   3   4   96.39    8.40
   1   3   4   97.19    7.00
  -1  -3  -4  121.29    7.10
   1   3   5   22.70    3.40
   1   3   5   22.00    4.20
  -1  -3  -5   21.40    3.00
  -1  -3  -5   20.20    3.30
   1   3   5   24.00    4.10
   1   3   6   61.09    6.70
  -1  -3  -6   60.89    5.10
  -1  -3  -6   75.29    6.50
   1   3   7  152.48    5.30
  -1  -3  -7  139.99    8.00
   1   3   7  161.48    5.40
  -1  -3  -7  167.08   10.30
  -1  -3  -7  149.39    4.90
   1   3   7  185.78   12.50
   1   3   7  197.98    5.30
   1   3   7  147.29    5.10
  -1  -3  -7  159.98    5.50
   1   3   7  147.09    5.10
  -1  -3  -7  152.98    5.20
  -1  -3  -8    5.10    1.30
  -1  -3  -8    5.10    1.30
   1   3   8    5.20    1.20
   1   3   8    4.90    1.30
   1   3   8    4.60    1.30
  -1  -3  -8    5.00    1.10
   1   3   8    4.80    1.20
   1   3   9   12.00    1.80
  -1  -3  -9   12.20    1.50
   1   3   9   12.60    1.90
  -1  -3  -9   12.20    1.70
   1   3   9   11.50    1.70
  -1  -3  -9   14.00    1.90
   1   3   9   10.90    1.60
   1   3   9   13.70    1.90
   1   3  10   44.50    2.90
   1   3  10   43.90    2.80
   1   3  10   52.29    3.30
   1   3  10   55.49    3.40
   1   3  10   40.90    2.70
  -1  -3 -10   48.50    3.00
  -1  -3 -11   87.19    3.60
   1   3  11   81.19    3.30
  -1  -3 -11  110.89    7.90
  -1  -3 -11   72.39    4.10
   1   3  11   97.89    4.10
   1   3  11   84.99    3.60
  -1  -3 -12   11.00    1.10
   1   3  12   10.40    1.20
   1   3  12   10.10    1.20
  -1  -3 -12    9.10    0.90
  -1  -3 -12   14.10    2.20
   1   3  12   12.40    1.40
  -1  -4  16   54.79    1.90
  -1  -4  15   -2.00    0.90
  -1  -4  15    1.50    0.80
  -1  -4  14   56.79    3.20
  -1  -4  14   51.69    2.90
  -1  -4  13   -0.40    1.20
  -1  -4  13    0.50    1.00
  -1  -4  12  110.79    4.80
  -1  -4  12  122.19    5.20
  -1  -4  12  119.39    5.00
  -1  -4  11  127.59    5.10
  -1  -4  11  130.89    5.10
  -1  -4  11  131.59    4.90
  -1  -4  11  124.09    4.80
  -1  -4  10   59.39    3.10
  -1  -4  10   65.19    3.50
   1   4 -10   50.69    5.60
  -1  -4  10   54.39    3.00
  -1  -4  10   51.79    2.80
  -1  -4  10   66.19    3.30
  -1  -4  10   63.39    3.20
   1   4  -9  177.68    9.90
  -1  -4   9  200.68   10.30
  -1  -4   8  216.38   11.00
  -1  -4   8  204.48   10.00
   1   4  -8  206.78    9.20
   1   4  -8  201.98    9.90
  -1  -4   7  121.19    7.30
   1   4  -7  119.99    7.00
  -1  -4   7  124.19    7.90
   1   4  -7  122.49    7.00
  -1  -4   6   20.10    3.20
  -1  -4   6   21.60    3.00
   1   4  -6   16.80    2.60
  -1  -4   6   20.70    3.10
  -1  -4   5   27.40    3.20
  -1  -4   5   25.20    3.40
  -1  -4   5   25.00    3.10
   1   4  -5   23.60    2.40
   1   4  -4   61.39    4.80
  -1  -4   4   59.89    4.50
  -1  -4   4   62.99    4.20
  -1  -4   4   63.69    3.40
   1   4  -4   65.49    4.70
  -1  -4   4   62.99    4.80
  -1  -4   3   90.59    4.00
  -1  -4   3   89.49    4.70
  -1  -4   3   85.89    5.30
   1   4  -3   98.59    3.70
   1   4  -3   91.29    6.00
   1   4  -3   96.79    6.00
  -1  -4   2  667.73   14.80
   1   4  -2  671.83   17.50
  -1  -4   2  632.84   12.40
   1   4  -1   69.49    5.90
   1   4  -1   78.59    3.50
  -1  -4   1   66.99    3.90
   1   4  -1   64.59    2.60
  -1  -4   1   81.29    4.10
  -1  -4   0   82.19    4.60
   1   4   0   86.99    4.00
   1   4   0   86.09    3.60
   1   4   0   85.29    6.70
  -1  -4  -1  151.18    6.70
   1   4   1  141.69    5.40
   1   4   1  166.28   10.50
   1   4   1  153.28    6.30
   1   4   1  151.38    8.90
   1   4   2   45.80    5.20
   1   4   2   53.89    6.50
  -1  -4  -2   48.60    4.10
   1   4   2   51.59    4.20
   1   4   3  480.05   15.00
   1   4   3  491.65   17.00
  -1  -4  -3  458.35   13.70
  -1  -4  -3  465.85   16.50
   1   4   4   67.99    6.20
  -1  -4  -4   64.19    5.30
   1   4   4   61.69    6.10
   1   4   4   67.89    8.10
  -1  -4  -5    1.10    1.30
   1   4   5    1.40    1.90
   1   4   5    0.70    1.80
   1   4   5    1.60    1.30
  -1  -4  -6   15.70    1.80
   1   4   6   13.90    1.60
   1   4   6   11.60    3.40
   1   4   6   14.80    1.70
  -1  -4  -6   13.50    2.70
  -1  -4  -6   14.50    1.60
   1   4   6   14.50    1.70
  -1  -4  -6   15.10    1.80
  -1  -4  -7    3.10    1.10
  -1  -4  -7    2.70    1.40
  -1  -4  -7    2.30    1.10
  -1  -4  -7    2.50    0.90
  -1  -4  -7    2.80    0.90
   1   4   7    3.10    1.30
   1   4   7    1.40    0.90
   1   4   7    1.70    1.00
   1   4   7    2.00    1.00
   1   4   7   -0.30    2.00
   1   4   8    3.70    1.30
   1   4   8    3.60    1.30
   1   4   8    2.70    1.20
  -1  -4  -8    4.70    1.40
  -1  -4  -8    2.60    0.90
   1   4   8    3.40    1.20
  -1  -4  -9   56.49    3.30
  -1  -4  -9   46.90    2.60
   1   4   9   46.30    3.10
   1   4   9   53.09    3.40
  -1  -4  -9   49.00    7.20
   1   4   9   54.89    3.30
   1   4   9   50.79    3.20
   1   4   9   54.39    3.40
  -1  -4 -10   13.30    6.60
   1   4  10   11.90    1.60
   1   4  10    9.20    1.40
   1   4  10   10.60    1.40
  -1  -4 -10   10.60    1.60
   1   4  10   11.60    1.70
  -1  -4 -10   12.30    2.90
   1   4  10   11.80    1.80
  -1  -4 -11    3.50    2.00
  -1  -4 -11    6.00    1.00
   1   4  11    5.90    1.00
  -1  -4 -11    6.80    1.10
   1   4  11    8.00    1.40
   1   4  12    1.40    0.50
   1   4  12    1.20    0.60
  -1  -4 -12    2.40    0.60
  -1  -4 -12    1.00    0.50
  -1  -5  16   27.40    1.80
  -1  -5  15  129.29    3.90
  -1  -5  15  141.19    4.30
  -1  -5  14   31.60    2.40
  -1  -5  14   33.60    2.40
  -1  -5  14   39.90    4.30
  -1  -5  13   53.89    3.20
  -1  -5  13   60.09    3.50
  -1  -5  12   43.20    3.00
  -1  -5  12   19.90    2.10
  -1  -5  12   18.60    2.00
  -1  -5  12   54.79    3.80
  -1  -5  11   11.50    1.60
  -1  -5  11   12.50    1.90
  -1  -5  11    7.50    1.30
  -1  -5  11    7.00    1.30
  -1  -5  11    8.30    1.50
  -1  -5  11   10.80    1.90
  -1  -5  11    6.40    1.20
  -1  -5  10   48.50    2.70
  -1  -5  10   68.99    3.40
  -1  -5  10   63.79    3.30
  -1  -5  10   66.19    3.50
  -1  -5  10   52.89    3.10
  -1  -5  10   60.69    6.10
  -1  -5  10   65.39    3.30
  -1  -5  10   63.29    3.20
   1   5 -10   54.29    5.70
  -1  -5   9   23.60    3.80
   1   5  -9   22.10    3.60
   1   5  -8    5.10    1.60
  -1  -5   8    4.00    1.90
   1   5  -8    2.80    1.10
  -1  -5   7  242.18   10.90
  -1  -5   7  222.08   10.40
   1   5  -7  214.88   10.00
  -1  -5   7  233.48   11.60
   1   5  -7  196.28    9.70
  -1  -5   6  525.85   15.30
  -1  -5   6  525.95   16.90
  -1  -5   6  507.65   15.40
   1   5  -5  407.66   10.10
  -1  -5   5  430.16   14.40
  -1  -5   5  394.76   12.90
   1   5  -5  398.66   12.60
   1   5  -5  386.96   13.90
  -1  -5   5  402.56   12.40
  -1  -5   5  380.16    9.70
  -1  -5   4    0.50    1.30
  -1  -5   4    1.00    0.80
   1   5  -4    1.80    0.80
  -1  -5   4    1.50    1.80
   1   5  -4    0.50    1.50
   1   5  -4   -0.10    2.00
  -1  -5   3  406.36   11.60
  -1  -5   3  414.76   10.30
   1   5  -3  443.66   15.50
   1   5  -3  440.86   15.40
   1   5  -2  192.48   10.60
  -1  -5   2  171.08    6.40
   1   5  -2  185.38   10.20
   1   5  -1  586.64   19.30
  -1  -5   1  562.34   13.70
   1   5   0  275.97   14.50
   1   5   0  251.67    7.20
  -1  -5   0  241.98    9.00
   1   5   0  257.77   12.80
   1   5   0  249.28    7.60
  -1  -5  -1  162.18    7.70
   1   5   1  173.48   12.10
   1   5   1  165.28   10.40
   1   5   1  165.48    7.20
  -1  -5  -2  148.49    7.80
   1   5   2  147.19    7.70
   1   5   2  170.08   12.60
   1   5   2  155.68   10.20
   1   5   3   -1.00    1.80
   1   5   3    3.50    2.80
  -1  -5  -3    1.30    1.30
   1   5   3    1.50    1.80
   1   5   4   71.19    8.90
   1   5   4   58.59    6.40
  -1  -5  -4   63.39    5.70
   1   5   4   65.19    6.30
  -1  -5  -4   59.99   12.40
  -1  -5  -5    0.10    0.70
   1   5   5    0.60    0.80
   1   5   5   -0.80    0.90
  -1  -5  -5    0.40    0.90
   1   5   5    0.10    0.80
   1   5   5    0.80    0.80
   1   5   5    0.50    1.50
  -1  -5  -5    0.10    1.20
  -1  -5  -5   -0.10    0.80
  -1  -5  -5    0.40    2.80
  -1  -5  -5    0.20    0.80
  -1  -5  -6  109.39    4.40
   1   5   6  106.49    4.70
   1   5   6  116.79    4.70
  -1  -5  -6  109.29    4.50
   1   5   6  110.59    4.70
  -1  -5  -6  114.29    4.80
  -1  -5  -6   95.99    7.20
   1   5   6  112.09    4.60
   1   5   6  117.59    9.90
  -1  -5  -6   99.49    6.80
  -1  -5  -7   22.80    2.30
   1   5   7   22.10    2.30
  -1  -5  -7   15.10    2.20
  -1  -5  -7   21.60    2.00
   1   5   7   23.00    2.30
  -1  -5  -7   23.10    2.10
   1   5   7   23.50    2.40
   1   5   7   22.30    2.30
   1   5   8   11.00    1.80
  -1  -5  -8   12.00    1.80
   1   5   8   12.50    1.90
   1   5   8   10.90    1.80
   1   5   8   10.50    1.70
   1   5   8    9.20    1.60
  -1  -5  -8   11.00    1.40
  -1  -5  -8   11.40    2.70
  -1  -5  -8   10.30    1.40
   1   5   9  166.48    5.60
   1   5   9  175.38    5.70
  -1  -5  -9  167.98    5.90
   1   5   9  181.68    5.90
  -1  -5  -9  166.48    5.50
   1   5   9  173.88    5.60
   1   5   9  177.58    5.70
   1   5  10    4.50    1.10
  -1  -5 -10    4.70    1.10
   1   5  10    4.60    1.00
  -1  -5 -10    3.90    1.00
   1   5  10    4.00    0.90
   1   5  10    3.50    0.90
   1   5  10    4.70    1.20
   1   5  11    1.20    0.70
  -1  -5 -11    0.10    0.50
   1   5  11    0.20    0.40
   1   5  11    0.10    0.60
  -1  -5 -11    0.50    0.50
  -1  -5 -11    1.10    0.50
  -1  -6  16    6.10    1.50
  -1  -6  15   48.20    2.60
  -1  -6  15   82.09    3.50
  -1  -6  14  265.77    6.50
  -1  -6  14  268.17    6.80
  -1  -6  13  205.38    5.60
  -1  -6  13  221.18    6.30
  -1  -6  13  220.38    6.60
  -1  -6  12    9.50    1.50
  -1  -6  12   35.40    3.40
  -1  -6  12   10.20    1.60
  -1  -6  12   35.90    3.00
  -1  -6  12    8.10    1.20
  -1  -6  12   10.80    1.60
  -1  -6  12    9.30    1.60
  -1  -6  11   21.00    2.00
  -1  -6  11   19.30    2.00
  -1  -6  11   20.40    2.00
  -1  -6  11   21.60    2.30
  -1  -6  11   22.60    2.10
  -1  -6  11   27.50    2.30
  -1  -6  11   19.00    2.00
  -1  -6  10    0.40    0.90
  -1  -6  10    0.30    0.80
  -1  -6  10   -0.10    0.80
   1   6 -10   -1.30    1.30
  -1  -6  10   -0.10    0.90
  -1  -6  10   -0.50    1.00
  -1  -6  10    1.00    0.90
  -1  -6  10   -0.10    0.90
  -1  -6  10    0.50    0.90
   1   6  -9  153.48    9.00
  -1  -6   9  150.88    9.90
   1   6  -8    2.00    1.10
  -1  -6   8    1.00    1.70
   1   6  -8    0.10    0.80
   1   6  -8   -1.10    1.00
  -1  -6   7  310.97   13.00
  -1  -6   7  302.47   13.10
   1   6  -7  276.47   12.90
   1   6  -7  288.87   12.70
   1   6  -7  290.37   10.00
  -1  -6   6   13.40    2.70
   1   6  -6   14.50    3.10
   1   6  -6   15.90    2.20
  -1  -6   5  778.12   15.90
  -1  -6   5  806.32   19.50
   1   6  -5  812.82   23.30
   1   6  -5  811.22   21.80
  -1  -6   4    8.70    1.70
  -1  -6   4    9.50    2.20
   1   6  -4    6.90    2.90
   1   6  -4    8.60    2.90
  -1  -6   3  112.29    6.80
   1   6  -3  138.99    9.80
  -1  -6   3  125.99    6.00
   1   6  -3  139.49    9.80
   1   6  -2  314.47   15.60
  -1  -6   2  273.77    9.50
   1   6  -2  302.87   14.80
   1   6  -1  188.68   12.00
  -1  -6   1  188.58    8.20
   1   6   0   10.60    3.40
   1   6   0   14.90    4.70
  -1  -6   0   13.70    2.50
   1   6   1  194.88   12.40
  -1  -6  -1  185.58    9.00
   1   6   1  212.28   14.90
   1   6   2   79.99    9.70
  -1  -6  -2   84.89    6.40
   1   6   2   80.09    6.00
   1   6   2   77.59    8.20
  -1  -6  -3   12.30    2.80
   1   6   3   12.50    3.50
   1   6   3   11.30    4.60
   1   6   3    9.80    2.60
  -1  -6  -4   19.10    1.90
   1   6   4   19.40    1.80
   1   6   4   10.50    4.30
  -1  -6  -4   19.90    2.00
   1   6   4   20.10    2.00
   1   6   4   16.50    3.50
  -1  -6  -4   17.40    3.20
  -1  -6  -4   19.30    2.00
   1   6   4   21.10    2.00
   1   6   4   18.80    1.90
  -1  -6  -5   19.60    3.50
   1   6   5   21.80    2.30
  -1  -6  -5   22.20    2.20
   1   6   5   22.00    2.20
  -1  -6  -5   21.50    2.10
  -1  -6  -5   24.40    2.30
   1   6   5   21.10    2.00
  -1  -6  -5   29.40    2.60
   1   6   5   22.10    2.20
   1   6   5   23.00    2.10
   1   6   6    0.70    1.10
  -1  -6  -6    0.20    0.80
  -1  -6  -6    0.40    0.90
   1   6   6    1.10    1.00
  -1  -6  -6    1.70    1.20
   1   6   6   -0.40    1.00
  -1  -6  -6    3.40    2.20
   1   6   7   54.49    3.50
   1   6   7   51.89    3.40
  -1  -6  -7   39.90    6.80
  -1  -6  -7   52.49    3.30
  -1  -6  -7   46.30    2.80
   1   6   7   49.10    3.20
  -1  -6  -7   49.60    3.00
   1   6   7   53.19    3.30
   1   6   8    0.30    1.00
   1   6   8   -0.50    1.00
  -1  -6  -8   -0.20    0.60
   1   6   8    0.10    0.90
   1   6   8    0.60    1.10
  -1  -6  -8    0.70    1.10
   1   6   8    0.00    1.10
  -1  -6  -9    0.70    0.80
   1   6   9    0.10    0.80
   1   6   9    0.40    1.00
   1   6   9   -0.40    0.90
   1   6   9   -0.10    0.80
  -1  -6  -9    0.30    0.90
   1   6   9    0.80    0.90
  -1  -6 -10    7.30    1.00
   1   6  10    4.80    0.70
   1   6  10    8.00    1.00
  -1  -6 -10    7.20    0.90
   1   6  10    7.00    1.00
   1   6  10    5.70    0.80
  -1  -7  16   10.50    1.40
  -1  -7  15  145.39    4.20
  -1  -7  15  229.88    5.20
  -1  -7  14  104.99    4.00
  -1  -7  14  144.49    5.00
  -1  -7  13  107.99    4.90
  -1  -7  13  109.39    4.30
  -1  -7  12   20.50    2.70
  -1  -7  12   38.70    2.70
  -1  -7  12   77.89    3.80
  -1  -7  12   27.20    2.30
  -1  -7  12   67.29    4.10
  -1  -7  12   25.90    2.30
  -1  -7  12   21.70    2.10
  -1  -7  12   26.70    2.30
  -1  -7  11   81.39    4.10
  -1  -7  11   85.69    4.00
  -1  -7  11   92.89    3.80
  -1  -7  11   84.59    4.20
  -1  -7  11   85.49    3.80
  -1  -7  11   87.39    4.10
  -1  -7  11   81.49    4.00
  -1  -7  10    3.50    1.10
  -1  -7  10    3.50    1.10
  -1  -7  10    3.30    1.00
  -1  -7  10    9.50    1.60
  -1  -7  10    3.50    1.10
  -1  -7  10   10.00    1.50
  -1  -7  10    3.70    1.10
  -1  -7   9   16.10    1.70
  -1  -7   9   19.50    2.00
  -1  -7   9   19.00    1.80
  -1  -7   9   17.00    1.60
   1   7  -8   11.30    2.90
  -1  -7   8   12.80    3.10
   1   7  -8   13.20    3.10
   1   7  -7   50.09    6.10
  -1  -7   7   61.09    6.00
  -1  -7   6   63.09    5.70
   1   7  -6   59.49    6.80
   1   7  -5    6.90    2.70
  -1  -7   5    5.10    1.80
   1   7  -5    6.60    3.10
   1   7  -4   77.29    7.90
  -1  -7   4   61.89    5.40
  -1  -7   4   59.19    4.40
   1   7  -4   74.09    7.90
  -1  -7   3   16.60    3.20
   1   7  -3   27.40    5.00
   1   7  -3   26.10    5.30
  -1  -7   3   23.20    3.00
  -1  -7   2   16.30    2.60
   1   7  -2   24.10    5.30
   1   7  -2   19.30    4.70
   1   7  -1  123.79   11.60
   1   7  -1  113.39   10.10
  -1  -7   1  104.89    6.70
   1   7   0   10.70    3.70
   1   7   0    6.70    4.00
  -1  -7   0   11.40    2.60
   1   7   1   60.99    7.80
   1   7   1   57.89    8.90
  -1  -7  -1   58.19    5.50
   1   7   2   21.90    1.90
   1   7   2   21.60    5.70
   1   7   2   18.70    4.50
  -1  -7  -2   19.80    1.90
  -1  -7  -2   17.20    3.40
  -1  -7  -2   22.40    2.20
   1   7   3   42.90    6.10
  -1  -7  -3   38.50    2.80
  -1  -7  -3   42.80    3.10
   1   7   3   44.50    2.80
   1   7   3   43.90    3.00
   1   7   3   41.40    2.50
   1   7   3   41.40    2.90
  -1  -7  -3   44.10    2.90
   1   7   3   39.60    2.40
  -1  -7  -3   42.80    2.90
  -1  -7  -3   37.80    4.70
   1   7   3   36.60    7.20
  -1  -7  -4   46.10    3.00
   1   7   4   45.20    3.00
  -1  -7  -4   44.40    3.20
   1   7   4   46.40    3.20
  -1  -7  -4   47.00    3.10
   1   7   4   47.20    3.20
   1   7   4   44.40    2.70
  -1  -7  -5    2.90    1.20
   1   7   5    3.00    1.10
   1   7   5    2.70    1.20
   1   7   5    3.00    1.00
  -1  -7  -5    2.70    1.10
   1   7   5    3.50    1.30
   1   7   5    2.10    1.30
   1   7   6   10.30    1.60
   1   7   6    8.90    1.80
  -1  -7  -6   10.10    1.60
   1   7   6    9.60    1.40
   1   7   6   12.90    1.70
   1   7   6   10.50    1.80
  -1  -7  -6   11.80    1.80
   1   7   7    7.70    1.60
  -1  -7  -7    7.60    1.50
  -1  -7  -7    8.30    1.60
   1   7   7    9.10    1.60
  -1  -7  -7    7.00    1.20
   1   7   7    6.10    1.20
   1   7   7    8.00    1.30
   1   7   7    8.30    1.70
   1   7   8   63.19    2.90
   1   7   8   64.79    3.10
   1   7   8   63.09    3.20
   1   7   8   64.59    3.20
  -1  -7  -8   62.69    3.00
  -1  -7  -8   66.99    3.20
   1   7   8   67.89    3.00
  -1  -7  -9   25.70    1.50
   1   7   9   26.20    1.60
  -1  -7  -9   24.60    1.60
  -1  -7  -9   25.50    1.60
   1   7   9   24.20    1.50
   1   7   9   26.50    1.70
  -1  -8  15   16.60    2.70
  -1  -8  15   31.40    2.20
  -1  -8  14  105.49    4.10
  -1  -8  13   10.80    1.50
  -1  -8  13   13.00    1.60
  -1  -8  13    8.60    1.40
  -1  -8  12    4.40    1.10
  -1  -8  12    3.60    1.20
  -1  -8  12    4.80    1.20
  -1  -8  12    4.60    1.20
  -1  -8  12   64.19    4.00
  -1  -8  12   76.69    4.10
  -1  -8  12  123.59    4.30
  -1  -8  11   -0.50    1.00
  -1  -8  11   -0.20    0.80
  -1  -8  11    0.30    0.90
  -1  -8  11    0.20    0.90
  -1  -8  10    1.50    1.10
  -1  -8  10    2.00    1.10
  -1  -8  10   25.20    2.90
  -1  -8  10    2.00    0.90
  -1  -8  10    1.80    1.10
  -1  -8  10   21.20    2.20
  -1  -8  10    4.30    1.40
  -1  -8   9    0.20    0.70
  -1  -8   9    0.10    0.90
  -1  -8   9    0.70    1.00
  -1  -8   9    0.30    0.90
  -1  -8   8  529.65   11.30
  -1  -8   8  547.15   19.70
  -1  -8   8  518.15   10.30
   1   8  -8  473.25   18.80
   1   8  -8  478.75   20.40
  -1  -8   8  529.25    9.80
   1   8  -7   50.39    6.90
  -1  -8   7   57.09    3.30
  -1  -8   7   53.89    5.90
  -1  -8   6   19.20    3.50
   1   8  -6   16.00    4.40
   1   8  -5  158.38   12.20
  -1  -8   5  126.99    8.40
   1   8  -5  146.99   11.20
   1   8  -4   42.70    6.50
  -1  -8   4   39.70    4.70
   1   8  -4   48.50    7.10
  -1  -8   3  474.15   14.60
  -1  -8   3  510.95   16.80
   1   8  -3  508.25   22.60
   1   8  -3  532.65   24.00
   1   8  -2  147.99   12.20
  -1  -8   2  125.99    7.60
   1   8  -2  153.98   13.40
  -1  -8   1    5.20    1.80
   1   8  -1    2.30    2.40
   1   8  -1    2.80    3.00
   1   8   0   64.29    8.30
  -1  -8   0   64.59    3.60
  -1  -8   0   60.39    3.70
  -1  -8   0   52.89    5.40
   1   8   0   58.29    9.30
  -1  -8  -1    1.50    0.80
  -1  -8  -1    0.40    0.70
  -1  -8  -1    1.00    1.10
   1   8   1    0.20    0.80
   1   8   1    0.50    0.90
   1   8   1    2.50    3.50
  -1  -8  -1    0.60    1.10
  -1  -8  -1    0.70    0.90
  -1  -8  -1    0.30    0.80
  -1  -8  -1   -2.10    1.90
   1   8   1    1.30    2.20
  -1  -8  -2  261.57    7.60
   1   8   2  247.28    7.00
  -1  -8  -2  212.28   11.30
   1   8   2  228.08    6.00
  -1  -8  -2  238.88    7.60
  -1  -8  -2  271.47    7.30
  -1  -8  -2  240.38    7.60
   1   8   2  247.08    7.00
   1   8   2  236.08   14.70
   1   8   2  265.47    7.60
   1   8   2  260.37   19.70
   1   8   3    4.20    1.30
  -1  -8  -3    3.70    1.20
  -1  -8  -3    4.20    1.50
  -1  -8  -3    3.70    1.30
   1   8   3    4.50    1.40
   1   8   3    4.20    1.30
  -1  -8  -3    3.90    1.30
  -1  -8  -4   57.99    3.40
   1   8   4   62.49    3.80
   1   8   4   59.49    3.10
   1   8   4   63.09    3.70
  -1  -8  -4   58.29    3.30
  -1  -8  -4   58.79    3.70
   1   8   4   62.39    3.70
   1   8   4   63.99    3.60
  -1  -8  -4   64.29    3.80
   1   8   5    0.10    0.70
  -1  -8  -5    0.90    1.20
  -1  -8  -5   -0.30    1.10
   1   8   5    1.10    0.90
   1   8   5    1.00    1.20
  -1  -8  -5   -0.30    0.90
   1   8   5   -0.20    0.90
   1   8   5    0.60    1.00
   1   8   6    1.40    0.80
   1   8   6    2.10    1.30
   1   8   6    1.60    0.80
  -1  -8  -6    1.40    1.10
  -1  -8  -6    1.30    0.90
   1   8   6    2.80    1.20
  -1  -8  -6    1.40    1.20
   1   8   6    1.10    0.80
   1   8   7   13.30    1.70
   1   8   7   10.90    1.50
  -1  -8  -7   13.40    1.40
   1   8   7   10.00    1.20
  -1  -8  -7   11.90    1.60
   1   8   7   11.30    1.60
   1   8   7   11.00    1.30
  -1  -8  -7   10.50    1.40
  -1  -8  -8   12.50    1.20
  -1  -8  -8   12.60    1.10
   1   8   8   10.00    0.90
   1   8   8   14.40    1.40
   1   8   8   13.20    1.30
   1   8   8   14.20    1.30
  -1  -8  -8   11.90    1.20
  -1  -9  15    2.20    1.10
  -1  -9  15    8.30    2.00
  -1  -9  14   44.30    2.40
  -1  -9  14   42.80    3.50
  -1  -9  13   18.80    1.80
  -1  -9  13   19.50    1.90
  -1  -9  13   21.30    1.80
  -1  -9  12  133.79    5.10
  -1  -9  12  132.29    4.60
  -1  -9  12  129.89    5.00
  -1  -9  12  130.09    5.20
  -1  -9  11    2.50    1.20
  -1  -9  11   39.70    3.10
  -1  -9  11   52.59    3.50
  -1  -9  11    1.90    0.90
  -1  -9  11    2.90    1.30
  -1  -9  11    1.80    1.10
  -1  -9  10   17.70    2.20
  -1  -9  10   16.90    2.20
  -1  -9  10   16.50    1.80
  -1  -9  10   18.20    2.20
  -1  -9   9   -0.70    3.30
  -1  -9   9    0.40    1.00
  -1  -9   9    1.00    0.80
  -1  -9   9    1.00    1.00
  -1  -9   8  209.78    6.70
  -1  -9   8  184.78    5.90
  -1  -9   8  221.48    7.10
   1   9  -8  154.78   11.00
  -1  -9   8  202.58    5.50
   1   9  -8  162.68   12.50
  -1  -9   8  197.78    6.80
  -1  -9   7    8.00    2.70
  -1  -9   7    9.50    1.50
  -1  -9   7   11.30    1.80
   1   9  -7    6.00    2.80
  -1  -9   7   15.10    3.20
  -1  -9   7   10.50    1.60
  -1  -9   6   12.10    3.10
  -1  -9   6   19.90    2.00
   1   9  -6   16.90    4.70
  -1  -9   6   13.40    1.60
  -1  -9   6   17.70    2.00
  -1  -9   6    7.40    2.60
  -1  -9   6   20.40    2.20
  -1  -9   5    0.70    1.00
  -1  -9   5    0.60    0.80
  -1  -9   5    2.00    1.40
  -1  -9   5    1.60    1.20
  -1  -9   5    0.80    0.70
   1   9  -5   -2.60    2.40
  -1  -9   5    1.40    0.80
  -1  -9   4   53.39    3.30
  -1  -9   4   53.09    3.00
  -1  -9   4   45.80    5.40
  -1  -9   4   53.09    3.50
   1   9  -4   46.60    7.40
  -1  -9   4   54.39    3.40
   1   9  -4   49.00    7.90
   1   9  -3    3.50    3.40
   1   9  -3    4.50    2.70
  -1  -9   3    0.20    0.90
  -1  -9   3    0.20    0.90
  -1  -9   3    1.10    0.90
  -1  -9   3    1.20    1.30
  -1  -9   3   -1.20    1.40
   1   9  -2  118.69   11.60
  -1  -9   2  108.99    7.50
  -1  -9   2  133.59    5.80
  -1  -9   2  133.89    5.20
  -1  -9   2  128.59    5.40
   1   9  -2  142.99   14.00
  -1  -9   1   18.60    2.30
   1   9  -1   15.30    4.70
  -1  -9   1   18.80    1.80
   1   9  -1   20.90    5.70
  -1  -9   1   20.50    2.00
  -1  -9   1   19.70    1.80
  -1  -9   1   17.90    2.10
  -1  -9   1   13.70    2.80
  -1  -9   0  232.68    7.70
  -1  -9   0  265.47    7.00
  -1  -9   0  204.78   10.90
  -1  -9   0  209.88    5.80
  -1  -9   0  270.67    7.40
   1   9   0  241.38    6.70
  -1  -9   0  271.67    6.90
  -1  -9   0  252.57    8.20
   1   9   0  225.58   15.60
   1   9   0  236.08    6.40
  -1  -9  -1   -0.50    0.90
  -1  -9  -1    0.30    0.90
  -1  -9  -1    0.30    0.70
   1   9   1    0.50    0.80
   1   9   1   -0.10    0.80
   1   9   1    0.20    1.00
  -1  -9  -1   -0.10    1.10
  -1  -9  -1    0.20    1.20
   1   9   2   80.09    3.90
  -1  -9  -2   85.99    3.90
   1   9   2   86.69    4.40
  -1  -9  -2   90.19    4.40
  -1  -9  -2   84.29    4.10
  -1  -9  -2   84.19    4.50
   1   9   2   81.69    4.00
  -1  -9  -2   76.59    4.30
  -1  -9  -3    0.90    1.10
   1   9   3    0.10    1.00
  -1  -9  -3    0.00    1.00
  -1  -9  -3    0.20    1.20
  -1  -9  -3    0.60    0.80
   1   9   3   -0.90    1.30
   1   9   3    0.80    1.10
  -1  -9  -3    0.60    1.00
   1   9   3    1.40    0.90
   1   9   3    0.20    1.00
  -1  -9  -4    0.00    0.70
   1   9   4   -0.20    0.80
   1   9   4   -0.40    1.10
  -1  -9  -4    0.50    0.90
   1   9   4    0.50    0.90
  -1  -9  -4   -0.50    1.10
  -1  -9  -4    0.10    1.00
  -1  -9  -4   -0.60    1.10
   1   9   4   -0.10    1.10
   1   9   5   28.30    2.40
   1   9   5   27.50    2.30
  -1  -9  -5   27.30    2.30
   1   9   5   27.00    2.10
   1   9   5   24.20    1.70
  -1  -9  -5   28.20    2.00
  -1  -9  -5   27.10    2.10
  -1  -9  -5   21.30    1.90
   1   9   6   18.20    1.80
  -1  -9  -6   17.10    1.40
   1   9   6   17.00    1.70
   1   9   6   15.40    1.30
  -1  -9  -6   17.20    1.70
   1   9   6   16.90    1.70
  -1  -9  -6   16.60    1.50
   1   9   6   17.30    1.40
   1   9   7   18.30    1.40
  -1  -9  -7   16.00    1.20
   1   9   7   18.90    1.40
   1   9   7   17.00    1.40
  -1  -9  -7   16.30    1.30
  -1  -9  -7   15.60    1.10
  -1 -10  14   34.60    3.00
  -1 -10  14   49.40    3.60
  -1 -10  13    9.40    1.30
  -1 -10  13   10.00    1.40
  -1 -10  13    8.80    1.40
  -1 -10  13   11.90    1.20
  -1 -10  13   13.10    3.50
  -1 -10  12    1.80    1.00
  -1 -10  12    1.20    0.70
  -1 -10  12    4.90    3.90
  -1 -10  12    1.20    1.00
  -1 -10  12    2.20    1.20
  -1 -10  11   26.80    4.60
  -1 -10  11   25.40    2.50
  -1 -10  11   23.00    1.90
  -1 -10  11   23.50    2.30
  -1 -10  11   28.40    2.60
  -1 -10  10    5.80    1.50
  -1 -10  10    5.50    1.50
  -1 -10  10    5.90    1.50
  -1 -10  10    4.90    1.10
  -1 -10   9    1.90    3.80
  -1 -10   9    0.60    1.10
  -1 -10   9    1.20    1.10
  -1 -10   9    1.40    0.90
  -1 -10   9    1.00    1.10
  -1 -10   8   50.89    3.00
  -1 -10   8   57.39    3.70
  -1 -10   8   55.09    3.50
  -1 -10   7  200.18    6.40
  -1 -10   7  198.98    6.90
  -1 -10   7  168.78    5.70
  -1 -10   7  173.88    6.60
  -1 -10   6   18.20    2.10
  -1 -10   6   17.50    1.90
  -1 -10   6   19.30    2.20
  -1 -10   6   17.70    1.90
  -1 -10   5   19.60    2.20
  -1 -10   5   18.10    2.20
  -1 -10   5   18.00    1.90
  -1 -10   5   19.90    2.30
  -1 -10   5   15.50    1.70
  -1 -10   4   25.10    2.50
  -1 -10   4   27.30    2.80
  -1 -10   4   26.90    2.60
  -1 -10   4   25.60    2.20
  -1 -10   3  295.57    8.70
  -1 -10   3  294.97    9.10
  -1 -10   3  283.57    8.10
  -1 -10   2   20.20    2.20
  -1 -10   2   20.70    2.40
  -1 -10   2   20.00    2.50
   1  10  -2   18.50    1.80
  -1 -10   1    1.20    1.30
  -1 -10   1    0.80    0.70
  -1 -10   1    0.50    0.90
  -1 -10   1    0.20    0.90
   1  10  -1    1.20    0.90
  -1 -10   1    0.70    0.80
   1  10   0   23.80    2.10
  -1 -10   0   26.00    2.20
  -1 -10   0   25.50    2.10
  -1 -10   0   23.40    2.20
  -1 -10   0   24.80    2.20
   1  10   0   23.00    2.00
   1  10   0   25.70    2.50
  -1 -10   0   25.60    2.80
  -1 -10  -1    8.60    1.40
   1  10   1   10.70    1.60
  -1 -10  -1   11.20    1.50
  -1 -10  -1   10.00    1.90
   1  10   1   11.80    1.60
  -1 -10  -1   11.00    1.60
  -1 -10  -1    9.30    1.80
   1  10   1   10.10    1.80
  -1 -10  -1   10.60    1.60
  -1 -10  -2    0.00    1.00
   1  10   2   -0.60    1.10
   1  10   2    0.20    1.10
  -1 -10  -2    0.10    0.90
  -1 -10  -2   -0.20    0.80
  -1 -10  -2   -0.30    0.70
   1  10   2   -0.40    1.10
  -1 -10  -2   -0.30    0.80
   1  10   2    0.10    0.90
   1  10   3   18.70    1.70
  -1 -10  -3   16.60    1.60
  -1 -10  -3   16.00    1.70
  -1 -10  -3   19.40    2.00
   1  10   3   18.20    2.00
   1  10   3   15.20    2.00
   1  10   3   15.60    1.80
  -1 -10  -3   15.20    1.80
  -1 -10  -4   48.50    2.40
  -1 -10  -4   45.40    2.70
   1  10   4   48.70    2.90
  -1 -10  -4   42.30    2.20
   1  10   4   47.40    2.70
   1  10   4   45.20    2.60
  -1 -10  -4   43.30    2.40
  -1 -10  -5    1.10    0.80
  -1 -10  -5    0.50    0.50
   1  10   5    0.30    0.80
   1  10   5    0.40    0.60
   1  10   5    0.00    0.80
  -1 -10  -5    0.60    0.60
  -1 -10  -5    0.30    0.60
   1  10   5    0.50    0.80
   1  10   5    1.10    0.70
   1  10   6   13.60    1.20
   1  10   6   12.80    1.10
   1  10   6   12.60    1.10
  -1 -11  13    4.50    2.60
  -1 -11  13    6.40    1.10
  -1 -11  13    6.10    1.10
  -1 -11  13   10.70    2.80
  -1 -11  12  166.18    4.30
  -1 -11  12  168.38    5.20
  -1 -11  12  163.88    5.70
  -1 -11  12  177.48    5.50
  -1 -11  11   -0.30    1.00
  -1 -11  11    0.80    1.10
  -1 -11  11   -2.40    3.70
  -1 -11  11   -0.30    0.80
  -1 -11  11   -0.30    1.10
  -1 -11  10  157.88    6.40
  -1 -11  10  185.28    6.40
  -1 -11  10  169.68    5.10
  -1 -11  10  196.28    6.40
  -1 -11  10  182.88    6.20
  -1 -11   9    0.50    0.70
  -1 -11   9    0.10    1.20
  -1 -11   9    0.20    1.10
  -1 -11   9    0.50    1.20
  -1 -11   8    0.70    1.10
  -1 -11   8    0.60    0.80
  -1 -11   8    0.50    1.10
  -1 -11   8    1.00    1.20
  -1 -11   7   12.00    1.70
  -1 -11   7   11.60    1.90
  -1 -11   7   10.70    1.50
  -1 -11   6    1.80    1.00
  -1 -11   6    1.90    1.00
  -1 -11   6    1.50    1.30
  -1 -11   6    1.90    1.00
  -1 -11   5    5.20    1.50
  -1 -11   5    5.60    1.50
  -1 -11   5    4.70    1.20
  -1 -11   5    5.50    1.50
  -1 -11   5    4.90    1.10
  -1 -11   4    1.40    0.90
  -1 -11   4    1.80    1.20
  -1 -11   4    1.60    1.10
  -1 -11   4    1.50    1.20
  -1 -11   3  109.09    4.80
  -1 -11   3  116.69    4.70
  -1 -11   3  118.59    5.40
  -1 -11   3  120.89    5.70
  -1 -11   2    1.80    0.90
  -1 -11   2    2.50    1.30
  -1 -11   2    2.60    1.40
   1  11  -2    1.40    0.80
   1  11  -1    6.60    1.50
   1  11  -1    6.60    1.20
  -1 -11   1    8.60    1.80
  -1 -11   1    6.00    1.30
  -1 -11   1    7.40    1.80
  -1 -11   1    7.20    1.20
  -1 -11   0    0.10    1.20
  -1 -11   0   -0.30    1.20
   1  11   0    0.60    1.10
  -1 -11   0    0.70    0.80
  -1 -11   0   -0.30    0.70
   1  11   0    0.30    0.90
  -1 -11  -1    0.30    1.10
   1  11   1   -0.50    0.90
  -1 -11  -1    0.20    0.60
  -1 -11  -1    0.70    1.10
   1  11   1   -0.10    0.70
  -1 -11  -1    0.30    0.60
   1  11   1   -0.30    1.00
   1  11   1    0.40    1.20
  -1 -11  -2    5.00    0.90
   1  11   2    5.20    1.10
   1  11   2    5.20    1.00
   1  11   2    4.60    1.20
  -1 -11  -2    5.70    1.20
  -1 -11  -2    5.20    1.30
   1  11   2    6.20    1.40
  -1 -11  -3    0.30    0.60
  -1 -11  -3    0.60    0.50
   1  11   3    0.70    0.80
  -1 -11  -3    0.40    0.80
   1  11   3   -0.10    0.50
   1  11   3    0.80    0.90
   1  11   3    0.40    0.70
  -1 -11  -4    9.80    1.00
   1  11   4    9.80    1.20
   1  11   4    9.80    1.10
   1  11   4   10.30    1.10
   1  11   4    9.30    1.00
  -1 -11  -4    9.10    0.80
   1  11   4    8.90    0.90
  -1 -12  13    0.50    0.60
  -1 -12  12  128.79    4.20
  -1 -12  12  126.99    3.90
  -1 -12  11    2.30    1.00
  -1 -12  11    1.70    1.00
  -1 -12  11    2.80    0.70
  -1 -12  10    0.50    0.60
  -1 -12  10    0.90    1.00
  -1 -12  10    0.90    1.00
  -1 -12  10    1.50    1.10
  -1 -12   9   26.10    2.40
  -1 -12   9   27.50    2.40
  -1 -12   9   25.30    1.90
  -1 -12   9   26.80    2.20
  -1 -12   8    9.00    1.40
  -1 -12   8    9.20    1.70
  -1 -12   8    8.10    1.50
  -1 -12   8    7.90    1.20
  -1 -12   7   66.69    3.20
  -1 -12   7   72.09    3.30
  -1 -12   7   70.19    3.80
  -1 -12   7   63.49    3.50
  -1 -12   6    4.50    1.10
  -1 -12   6    4.80    1.10
  -1 -12   6    4.10    1.40
  -1 -12   6    5.40    1.30
  -1 -12   6    4.60    1.00
  -1 -12   5   62.49    3.80
  -1 -12   5   56.39    3.50
  -1 -12   5   56.29    3.00
  -1 -12   5   56.89    3.40
  -1 -12   5   48.70    2.70
  -1 -12   4    5.30    1.30
  -1 -12   4    3.80    1.40
  -1 -12   4    3.30    1.00
  -1 -12   4    3.90    1.30
   1  12  -3    2.20    1.00
  -1 -12   3    1.70    1.30
  -1 -12   3    0.80    0.80
  -1 -12   3    1.30    1.20
  -1 -12   3    1.50    1.00
  -1 -12   2   25.70    2.50
  -1 -12   2   24.10    2.00
  -1 -12   2   22.90    1.90
   1  12  -2   26.60    2.20
  -1 -12   2   27.60    2.70
  -1 -12   1    0.20    1.10
  -1 -12   1    0.40    0.60
   1  12  -1    1.40    1.00
  -1 -12   1    0.30    1.10
   1  12  -1    0.30    0.60
  -1 -12   1    0.20    0.70
  -1 -12   0    0.00    0.70
  -1 -12   0    0.70    0.60
   1  12   0    0.00    0.90
  -1 -12   0   -0.30    1.10
  -1 -12   0    1.50    1.10
   1  12   0    0.10    1.00
  -1 -12  -1    0.00    0.80
  -1 -12  -1    0.40    0.80
   1  12   1    0.80    0.70
  -1 -12  -1   -0.60    0.60
   1  12   1   -0.50    0.80
   1  12   1   -0.30    0.90
   1  12   2    4.50    0.70
   1  12   2    5.50    1.00
  -1 -12  -2    4.90    0.90
   1  12   2    4.40    0.80
  -1 -12  -2    5.10    0.90
  -1 -12  -2    3.30    0.70
   1  12   2    5.90    1.00
  -1 -12  -3    5.50    0.70
   1  12   3    5.40    0.80
   1  12   3    6.30    0.80
  -1 -13  12    0.20    0.60
  -1 -13  11    0.50    0.70
  -1 -13  11   -0.20    0.70
  -1 -13  10    1.70    0.90
  -1 -13  10    1.90    0.90
  -1 -13   9   45.60    1.90
  -1 -13   9   51.19    2.70
  -1 -13   9   49.99    2.60
  -1 -13   8   57.29    2.40
  -1 -13   8   66.29    3.20
  -1 -13   8   62.49    2.90
  -1 -13   7    3.10    0.80
  -1 -13   7    4.00    0.90
  -1 -13   7    3.30    1.10
  -1 -13   6    1.50    0.70
  -1 -13   6    2.40    0.80
  -1 -13   6    1.70    0.90
  -1 -13   6    1.40    0.80
   1  13  -5    5.30    0.90
  -1 -13   5    5.60    1.10
  -1 -13   5    5.50    1.00
  -1 -13   5    5.40    1.30
  -1 -13   4    5.50    1.00
  -1 -13   4    7.30    1.40
   1  13  -4    6.30    1.00
  -1 -13   4    6.00    1.00
  -1 -13   3    3.40    0.80
  -1 -13   3    3.50    0.80
  -1 -13   3    4.40    1.30
  -1 -13   3    5.30    1.20
   1  13  -3    5.00    1.00
  -1 -13   2    0.50    0.50
  -1 -13   2    0.40    0.90
   1  13  -2   -0.30    0.60
  -1 -13   2    1.10    0.90
  -1 -13   2    0.50    0.60
   1  13  -2    0.10    0.80
   1  13  -1   61.69    2.60
  -1 -13   1   57.59    2.70
   1  13  -1   53.59    2.40
  -1 -13   1   65.89    3.00
  -1 -13   1   49.40    2.00
   1  13  -1   61.79    2.80
  -1 -13   0    4.30    0.90
   1  13   0    3.60    0.90
  -1 -13   0    3.10    0.80
  -1 -13   0    2.70    0.50
   1  13   0    2.90    0.70
   1  13   0    2.40    0.70
   1  13   1    0.10    0.60
  -1 -13  -1    0.40    0.50
   1  13   1   -0.10    0.60
  -1 -14  10   40.40    1.60
  -1 -14  10   43.00    1.80
  -1 -14   9   33.00    1.70
  -1 -14   9   32.80    1.50
  -1 -14   8    1.50    0.70
  -1 -14   8    1.30    0.50
  -1 -14   7   27.00    1.60
  -1 -14   6    9.00    1.00
   1  14  -5   31.10    1.50
  -1 -14   5   32.90    1.60
   1  14  -4    9.00    0.90
  -1 -14   4    8.90    0.80
   1  14  -3   26.70    1.60
  -1 -14   3   29.80    1.70
   1  14  -2    1.10    0.60
  -1 -14   2    1.90    0.70
   1  14  -2    0.50    0.50
   2 -15   6    0.10    0.50
  -2  14   0    9.40    0.90
   2 -14   0    6.30    0.70
   2 -14   1    1.40    0.60
  -2  14  -1    1.60    0.50
   2 -14   1    1.50    0.60
  -2  14  -1    2.00    0.70
  -2  14  -1    1.90    0.70
  -2  14  -1    2.10    0.90
   2 -14   2   43.50    2.00
  -2  14  -2   45.40    2.20
  -2  14  -2   41.40    1.80
   2 -14   2   44.10    1.90
   2 -14   3   -0.10    0.70
   2 -14   3    0.20    0.60
  -2  14  -3   -0.10    0.60
  -2  14  -3    0.40    0.70
  -2  14  -4   24.80    1.80
   2 -14   4   23.60    1.60
   2 -14   4   22.80    1.70
   2 -14   5    4.70    1.00
  -2  14  -5    4.20    0.90
  -2  14  -6    0.60    0.60
   2 -14   6    0.10    0.70
   2 -14   7    3.10    0.60
   2 -14   7    3.90    0.90
   2 -14   8   15.50    1.10
   2 -14   8   15.30    1.40
   2 -14   9   10.00    1.10
   2 -14   9   10.30    0.90
   2 -14  10   42.70    1.60
   2 -14  10   40.80    1.70
   2 -13  -2    4.10    0.70
  -2  13   2    6.30    1.00
  -2  13   2    5.90    0.90
  -2  13   2    5.80    0.90
   2 -13  -2    4.50    0.70
   2 -13  -1    6.30    0.90
   2 -13  -1    5.70    0.90
  -2  13   1    6.50    1.10
  -2  13   1    7.30    1.10
  -2  13   1    7.00    1.20
  -2  13   1    6.60    1.10
   2 -13   0    8.70    1.20
  -2  13   0   11.00    1.50
  -2  13   0    8.90    1.50
   2 -13   0    9.90    1.20
  -2  13   0   10.80    1.40
  -2  13  -1    0.00    0.80
   2 -13   1    0.40    0.80
  -2  13  -1    0.30    1.00
   2 -13   1    0.70    0.80
  -2  13  -1    0.70    1.00
  -2  13  -2   38.10    2.60
  -2  13  -2   35.70    2.30
   2 -13   2   33.10    2.30
   2 -13   2   32.50    2.20
   2 -13   2   39.40    2.80
  -2  13  -3    0.90    0.80
   2 -13   3    0.20    1.00
   2 -13   3    0.80    1.10
   2 -13   3    0.50    0.80
   2 -13   4   21.10    2.20
   2 -13   4   20.40    2.00
   2 -13   4   18.10    1.80
   2 -13   5    3.40    1.00
   2 -13   5    4.20    1.30
   2 -13   6   21.80    1.70
   2 -13   6   25.10    2.20
   2 -13   7    0.10    0.90
   2 -13   7   -0.20    0.60
   2 -13   7    0.90    0.60
   2 -13   8   35.00    2.20
   2 -13   8   39.40    2.30
   2 -13   8   33.30    2.40
   2 -13   9    1.00    0.80
   2 -13   9    1.00    0.90
   2 -13  10    2.00    0.80
   2 -13  10    1.60    0.80
   2 -13  11   12.00    1.20
   2 -13  11   11.40    1.20
   2 -13  12    2.20    0.70
  -2  12   4    0.80    0.70
  -2  12   4    0.60    0.70
   2 -12  -4   -0.20    0.50
   2 -12  -4   -0.10    0.50
  -2  12   3   28.90    2.10
  -2  12   3   28.10    1.80
   2 -12  -3   25.70    1.60
  -2  12   3   29.90    2.00
  -2  12   3   23.60    1.50
  -2  12   3   24.50    1.50
   2 -12  -2    0.50    0.60
  -2  12   2    1.50    1.10
  -2  12   2    1.00    1.00
  -2  12   2    1.30    0.90
  -2  12   2    1.40    1.00
   2 -12  -2    0.80    0.80
  -2  12   2    1.20    0.70
  -2  12   1   -0.30    1.10
   2 -12  -1   -0.20    0.70
  -2  12   1    0.10    0.60
   2 -12  -1   -0.40    0.80
   2 -12  -1    0.10    0.90
  -2  12   1   -0.10    1.00
  -2  12   0   53.59    3.40
   2 -12   0   53.99    3.40
   2 -12   0   48.50    3.00
  -2  12   0   48.50    2.60
   2 -12   0   52.19    3.00
  -2  12   0   50.29    3.10
   2 -12   1    1.90    1.10
  -2  12  -1    2.40    1.10
   2 -12   1    2.20    1.30
   2 -12   1    2.00    1.10
   2 -12   1    1.80    1.00
   2 -12   2    4.70    1.50
   2 -12   2    6.10    1.50
  -2  12  -2    5.70    1.30
   2 -12   2    4.10    1.30
   2 -12   2    5.10    1.30
  -2  12  -3    8.00    1.30
   2 -12   3    8.20    1.50
   2 -12   3    6.70    1.70
   2 -12   3    6.60    1.60
   2 -12   3    6.50    1.50
   2 -12   4   22.90    2.40
   2 -12   4   20.60    2.20
   2 -12   4   21.80    2.40
   2 -12   5   89.59    4.20
   2 -12   5   86.09    3.70
   2 -12   5   90.09    4.40
   2 -12   6    8.50    1.50
   2 -12   6   11.10    1.90
   2 -12   6    9.80    1.40
   2 -12   6    9.90    1.30
   2 -12   7   36.00    2.80
   2 -12   7   34.20    2.40
   2 -12   7   33.70    2.50
   2 -12   8    0.60    0.90
   2 -12   8    1.40    1.10
   2 -12   8    0.30    0.90
   2 -12   9   13.50    1.70
   2 -12   9   15.60    1.90
   2 -12   9   14.40    1.80
   2 -12  10    1.00    0.90
   2 -12  10    1.90    1.10
   2 -12  10    1.30    1.00
   2 -12  11   17.50    1.70
   2 -12  11   19.30    1.80
   2 -12  12   16.60    1.50
   2 -12  12   19.70    1.60
   2 -12  13    9.40    1.00
  -2  11   5   23.90    1.60
  -2  11   5   25.40    1.70
  -2  11   5   20.90    1.30
   2 -11  -5   22.50    1.40
  -2  11   5   23.50    1.60
  -2  11   4   14.90    1.40
  -2  11   4   18.60    1.90
   2 -11  -4   17.00    1.50
  -2  11   4   16.50    1.60
  -2  11   4   18.90    1.70
   2 -11  -4   12.30    1.10
  -2  11   4   17.50    1.80
  -2  11   3    4.00    1.00
   2 -11  -3    4.10    0.90
  -2  11   3    5.10    1.20
   2 -11  -3    5.10    1.20
  -2  11   3    4.50    1.10
  -2  11   3    4.80    1.30
  -2  11   3    5.90    1.40
  -2  11   3    5.30    1.50
  -2  11   2    2.50    1.00
  -2  11   2    1.90    1.20
  -2  11   2    2.40    1.30
   2 -11  -2    2.00    1.10
   2 -11  -2    2.50    1.00
   2 -11  -2    1.80    1.10
   2 -11  -1   41.30    2.90
   2 -11  -1   44.80    3.00
   2 -11  -1   46.40    3.30
  -2  11   1   50.59    3.40
  -2  11   1   47.00    3.30
  -2  11   1   41.40    2.80
   2 -11   0   14.70    2.20
  -2  11   0   13.40    1.60
  -2  11   0   12.10    1.90
   2 -11   0   12.50    1.90
   2 -11   0   14.40    1.90
  -2  11  -1    7.60    1.50
   2 -11   1    7.60    1.50
   2 -11   1    6.50    1.70
   2 -11   1    5.00    1.50
   2 -11   2   14.70    2.20
   2 -11   2   14.80    2.10
   2 -11   2   14.10    1.90
  -2  11  -2   12.80    1.70
   2 -11   3   47.70    3.50
   2 -11   3   44.20    3.10
   2 -11   3   43.40    3.30
   2 -11   3   46.30    3.20
   2 -11   4   12.40    1.80
   2 -11   4   11.00    1.80
   2 -11   4   11.80    1.50
   2 -11   4   12.30    1.90
   2 -11   4   14.00    2.10
   2 -11   5  192.68    6.00
   2 -11   5  198.18    6.60
   2 -11   5  184.78    5.60
   2 -11   6    3.20    1.10
   2 -11   6    3.70    1.20
   2 -11   6    4.00    1.10
   2 -11   6    5.30    1.50
   2 -11   6    3.40    1.10
   2 -11   7   11.60    1.80
   2 -11   7   11.70    1.70
   2 -11   7   10.80    1.60
   2 -11   8  207.38    6.60
   2 -11   8  195.48    6.60
   2 -11   9    8.30    1.60
   2 -11   9    9.90    1.80
   2 -11   9    6.00    1.00
   2 -11   9    8.50    1.60
   2 -11  10   28.90    2.50
   2 -11  10   29.80    2.00
   2 -11  10   33.80    2.80
   2 -11  10   33.20    2.60
   2 -11  11    5.90    1.30
   2 -11  11    9.60    1.30
   2 -11  11    8.10    1.50
   2 -11  12    1.70    1.00
   2 -11  12    2.90    1.10
   2 -11  13    1.50    0.80
   2 -11  14   12.30    1.80
   2 -10  -7    1.40    0.50
  -2  10   7    2.00    0.70
  -2  10   6    7.30    1.10
  -2  10   6    6.50    1.10
   2 -10  -6    7.90    1.10
  -2  10   6    6.90    1.20
  -2  10   6    5.90    1.00
   2 -10  -5   -0.30    0.90
   2 -10  -5   -0.40    0.90
  -2  10   5    0.20    0.80
  -2  10   5    0.20    0.90
  -2  10   5   -0.70    1.10
  -2  10   5    0.30    0.90
  -2  10   5    0.10    0.80
   2 -10  -4   20.40    2.10
  -2  10   4   23.70    2.20
  -2  10   4   23.50    2.20
   2 -10  -4   20.50    1.70
  -2  10   4   21.20    2.00
   2 -10  -4   23.80    2.10
  -2  10   4   23.10    2.10
  -2  10   4   20.10    1.80
  -2  10   4   25.10    2.50
  -2  10   4   22.70    2.40
   2 -10  -3   52.09    3.00
   2 -10  -3   53.79    3.30
  -2  10   3   58.59    3.60
   2 -10  -3   54.39    3.40
  -2  10   3   56.79    3.00
  -2  10   3   53.69    3.30
  -2  10   3   52.49    3.10
   2 -10  -3   56.09    3.30
  -2  10   3   59.09    3.70
   2 -10  -3   55.79    3.30
   2 -10  -2   11.90    1.90
   2 -10  -2   11.00    1.70
  -2  10   2   13.10    2.00
   2 -10  -2   10.20    1.60
  -2  10   2   11.30    1.70
  -2  10   2   13.90    2.10
   2 -10  -2   11.00    1.80
   2 -10  -1  182.38    6.10
   2 -10  -1  173.78    6.10
   2 -10  -1  178.48    6.70
  -2  10   1  154.38    5.50
  -2  10   1  176.08    6.40
   2 -10  -1  170.88    6.10
   2 -10   0   27.80    2.60
   2 -10   0   29.80    2.50
   2 -10   0   28.20    2.70
  -2  10   0   26.60    2.20
  -2  10   0   27.60    2.60
   2 -10   1   12.10    1.90
   2 -10   1   10.90    1.60
   2 -10   1   10.50    1.80
   2 -10   2   75.19    4.20
   2 -10   2   81.99    4.60
   2 -10   2   78.39    4.00
   2 -10   3   18.50    2.00
   2 -10   3   18.20    2.20
   2 -10   3   19.10    2.30
  -2  10  -3   11.20    4.00
   2 -10   4  144.49    5.80
   2 -10   4  138.09    5.30
  -2  10  -4  126.39   12.40
   2 -10   4  124.49    4.60
   2 -10   4  136.89    5.30
   2 -10   4  138.99    5.80
   2 -10   5   76.89    4.00
  -2  10  -5   70.59    9.40
   2 -10   5   88.09    4.30
   2 -10   5   71.39    3.60
   2 -10   5   74.49    3.90
   2 -10   5   69.39    3.40
   2 -10   6    4.60    1.20
   2 -10   6    3.40    1.00
   2 -10   6    2.10    1.10
   2 -10   6    3.20    1.00
   2 -10   7    2.60    1.30
   2 -10   7    2.90    1.00
   2 -10   7    2.70    1.10
   2 -10   7    2.80    1.10
   2 -10   8    1.00    0.80
   2 -10   8   -0.30    1.00
   2 -10   8    0.00    1.00
   2 -10   8   -0.80    0.90
   2 -10   8   -0.40    0.90
   2 -10   9  115.69    5.20
   2 -10   9  106.29    4.10
   2 -10   9  119.59    5.10
   2 -10   9  100.19    4.10
   2 -10   9  106.79    4.90
   2 -10  10   31.00    2.30
   2 -10  10   30.50    2.60
   2 -10  10   34.70    2.80
   2 -10  10   29.30    2.20
   2 -10  10   36.90    3.00
   2 -10  11   66.19    3.70
   2 -10  11   76.69    4.00
   2 -10  11   69.49    2.70
   2 -10  11   77.99    4.10
   2 -10  11   70.49    3.30
   2 -10  12    3.60    1.20
   2 -10  12    3.80    1.30
   2 -10  12    2.50    1.20
   2 -10  13    7.00    1.30
   2 -10  13   31.90    2.10
  -2   9   8    0.30    0.70
   2  -9  -8   -0.20    0.50
  -2   9   7   10.40    1.40
   2  -9  -7    8.70    1.20
  -2   9   7   11.50    1.50
   2  -9  -7    8.70    1.20
  -2   9   6   10.20    1.60
  -2   9   6   12.60    1.80
   2  -9  -6   14.00    1.60
   2  -9  -6   11.80    1.50
  -2   9   6   11.60    1.50
   2  -9  -6   11.30    1.60
  -2   9   6   12.50    1.60
  -2   9   6   13.90    1.70
  -2   9   6   13.10    1.80
  -2   9   5   63.69    3.60
  -2   9   5   67.29    3.50
  -2   9   5   65.99    3.60
  -2   9   5   67.59    3.90
  -2   9   5   67.19    3.80
   2  -9  -5   63.69    3.50
   2  -9  -5   62.89    3.60
  -2   9   5   64.69    3.80
   2  -9  -5   66.09    3.40
  -2   9   4    0.70    1.20
   2  -9  -4    0.30    1.00
  -2   9   4    0.50    1.00
   2  -9  -4    0.40    1.10
   2  -9  -4    0.80    0.80
   2  -9  -4    0.10    1.00
  -2   9   4    0.80    1.10
   2  -9  -4   -0.10    0.80
  -2   9   4    1.00    1.00
  -2   9   4    1.90    1.10
  -2   9   3   13.00    1.90
   2  -9  -3   11.80    1.90
   2  -9  -3   11.80    1.70
   2  -9  -3   11.00    1.70
   2  -9  -3   11.10    1.60
   2  -9  -3   13.00    1.80
  -2   9   3    9.90    1.80
  -2   9   3   11.00    1.60
  -2   9   3    9.60    1.70
   2  -9  -2   54.39    3.50
   2  -9  -2   53.99    3.40
  -2   9   2   45.30    3.00
   2  -9  -2   55.29    3.60
   2  -9  -2   52.79    3.30
   2  -9  -2   58.59    3.40
  -2   9   2   55.79    3.60
   2  -9  -1   84.09    4.20
   2  -9  -1   81.19    4.10
   2  -9  -1   83.89    4.30
   2  -9  -1   90.09    4.20
  -2   9   1   80.09    3.80
   2  -9  -1   84.69    4.50
  -2   9   1   81.69    4.20
   2  -9   0   81.39    4.00
   2  -9   0   83.19    4.00
   2  -9   0   75.79    4.20
  -2   9   0   72.99    3.50
   2  -9   0   77.99    4.00
  -2   9   0   66.89    8.30
   2  -9   0   77.09    4.00
   2  -9   1    0.30    0.80
   2  -9   1    0.30    0.80
   2  -9   1   -0.50    0.90
   2  -9   1    0.50    1.00
   2  -9   1    0.00    0.90
  -2   9  -1    3.10    3.10
  -2   9  -2  315.97   18.70
   2  -9   2  332.37    8.70
   2  -9   2  341.77    8.20
   2  -9   2  341.57    9.00
  -2   9  -3   -1.60    2.70
   2  -9   3   -0.40    1.00
   2  -9   3    0.60    0.80
   2  -9   3    0.20    0.80
   2  -9   4  185.88    5.90
   2  -9   4  184.68    5.80
  -2   9  -4  191.38   14.30
   2  -9   4  186.18    6.30
   2  -9   4  165.88    9.20
   2  -9   5   29.60    3.90
  -2   9  -5   38.40    6.70
   2  -9   5   35.70    2.40
   2  -9   5   34.90    2.60
   2  -9   5   38.00    2.70
   2  -9   5   36.60    2.50
   2  -9   5   40.00    2.50
  -2   9  -6    1.80    2.60
   2  -9   6    3.30    1.10
   2  -9   6    3.70    1.60
   2  -9   6    4.30    1.20
   2  -9   6    4.70    1.30
   2  -9   6    2.30    1.00
   2  -9   6    1.90    0.90
   2  -9   7   20.10    2.10
   2  -9   7   15.00    1.70
   2  -9   7   17.80    2.00
   2  -9   7   21.10    2.10
   2  -9   7   15.80    3.00
   2  -9   7   16.70    3.60
   2  -9   7   19.80    2.10
   2  -9   8    0.20    0.90
   2  -9   8    0.70    0.80
   2  -9   8   -0.20    1.00
   2  -9   8    0.90    1.10
   2  -9   8    0.40    0.90
  -2   9  -8   -0.80    3.00
  -2   9  -8   -4.70    2.70
   2  -9   9  109.69    5.00
   2  -9   9   95.69    3.50
   2  -9   9  113.49    5.00
   2  -9   9  107.99    4.80
   2  -9   9   95.19    4.10
   2  -9  10    6.20    1.50
   2  -9  10    4.30    1.20
   2  -9  10    5.00    1.40
   2  -9  10    4.70    1.40
   2  -9  10    5.00    1.20
   2  -9  10    3.10    0.90
   2  -9  11  104.29    4.70
   2  -9  11   91.29    3.90
   2  -9  11  115.19    5.00
   2  -9  11  100.49    4.20
   2  -9  11  116.09    5.10
   2  -9  11   90.99    3.50
   2  -9  12   41.50    2.90
   2  -9  12   37.80    2.20
   2  -9  12   39.30    2.60
   2  -9  12   34.20    2.30
   2  -9  13   63.29    3.20
   2  -9  13   60.29    3.00
   2  -9  14  100.19    2.80
   2  -9  14   81.29    3.00
   2  -9  15   12.30    1.70
   2  -8  -9   13.10    1.00
   2  -8  -9   14.90    1.10
   2  -8  -8    7.20    0.90
  -2   8   8    8.00    1.40
  -2   8   8    7.00    1.30
   2  -8  -8    6.70    1.10
   2  -8  -8    7.60    1.10
   2  -8  -8    8.10    1.20
   2  -8  -7   41.30    2.60
   2  -8  -7   42.80    2.20
   2  -8  -7   35.90    2.50
  -2   8   7   36.90    2.80
  -2   8   7   38.70    2.80
  -2   8   7   36.20    2.70
  -2   8   7   38.70    2.70
   2  -8  -7   35.30    2.40
   2  -8  -6    0.10    1.00
  -2   8   6    0.10    1.10
   2  -8  -6    2.40    1.30
  -2   8   6    2.40    1.10
   2  -8  -6   -0.40    0.80
  -2   8   6   -0.10    0.90
  -2   8   6   -0.30    1.00
  -2   8   6   -0.20    1.10
   2  -8  -6   -0.40    1.10
  -2   8   6    1.10    1.20
  -2   8   5   19.30    2.20
  -2   8   5   20.30    2.30
   2  -8  -5   24.10    2.30
  -2   8   5   20.80    2.20
   2  -8  -5   18.70    2.20
   2  -8  -5   19.10    2.20
  -2   8   5   19.00    2.30
  -2   8   5   19.40    2.30
  -2   8   4   23.70    2.30
   2  -8  -4   30.20    2.50
  -2   8   4   23.10    2.40
   2  -8  -4   25.20    2.20
  -2   8   4   25.20    2.50
   2  -8  -4   23.50    2.30
   2  -8  -4   24.80    2.50
  -2   8   4   24.00    2.40
   2  -8  -3  175.58    6.30
   2  -8  -3  188.78    6.00
  -2   8   3  167.68    5.60
  -2   8   3  180.38    6.30
   2  -8  -3  171.38    5.90
  -2   8   3  169.48    5.90
   2  -8  -3  189.98    5.90
  -2   8   3  173.88    6.30
   2  -8  -3  170.68    6.00
  -2   8   2   19.20    1.80
   2  -8  -2   22.70    2.10
   2  -8  -2   20.50    2.20
   2  -8  -2   17.10    3.20
   2  -8  -2   20.40    2.00
  -2   8   2   21.50    2.10
  -2   8   2   18.40    1.90
   2  -8  -2   19.80    2.10
  -2   8   1    5.10    2.60
  -2   8   1    2.00    1.60
   2  -8  -1    1.90    1.60
   2  -8  -1    0.90    1.00
   2  -8  -1    2.30    0.90
   2  -8   0  131.79    7.80
  -2   8   0  153.28   10.20
  -2   8   0  152.38   11.90
  -2   8  -1    7.60    3.20
   2  -8   1   15.10    2.50
  -2   8  -1   11.20    3.90
   2  -8   2   85.79    7.00
   2  -8   2   91.59    5.50
  -2   8  -2   95.69    9.50
  -2   8  -3   35.80    5.90
  -2   8  -3   44.90    7.70
   2  -8   3   37.90    4.20
   2  -8   3   30.90    4.20
  -2   8  -4    3.80    2.80
   2  -8   4    3.80    1.50
   2  -8   4    3.30    1.70
   2  -8   5   26.10    3.60
   2  -8   5   23.90    3.70
   2  -8   5   22.70    3.30
   2  -8   6   79.49    6.80
   2  -8   6   74.39    6.00
   2  -8   7   41.30    2.60
   2  -8   7   41.60    2.80
   2  -8   7   41.40    2.80
   2  -8   7   36.90    4.40
   2  -8   7   43.40    2.80
   2  -8   7   47.30    5.50
   2  -8   8    1.30    0.70
   2  -8   8    1.90    1.00
   2  -8   8    1.30    0.70
  -2   8  -8    3.00    2.10
   2  -8   8    2.10    0.90
   2  -8   8    1.30    1.00
   2  -8   8    2.00    1.00
   2  -8   8    2.00    0.90
   2  -8   8    2.10    1.90
   2  -8   9   51.99    3.30
   2  -8   9   50.29    3.30
   2  -8   9   43.20    2.50
   2  -8   9   46.40    2.90
  -2   8  -9   55.79    6.50
   2  -8   9   55.29    3.50
   2  -8   9   52.59    3.20
   2  -8  10    0.50    0.90
   2  -8  10   -0.30    1.00
   2  -8  10    0.30    1.00
   2  -8  10    0.00    1.00
   2  -8  10   -0.50    0.90
   2  -8  10    1.10    0.90
   2  -8  11    4.30    1.40
   2  -8  11    4.70    1.10
   2  -8  11    4.10    1.30
   2  -8  11    3.20    1.20
   2  -8  11    3.20    1.10
   2  -8  12   20.90    2.10
   2  -8  12   21.40    1.90
   2  -8  13  126.39    4.40
   2  -8  13  124.69    4.00
   2  -8  14  101.59    3.10
   2  -8  14   48.80    2.50
   2  -8  14  100.59    3.40
   2  -8  14   41.10    1.70
   2  -8  15   32.40    2.20
   2  -8  15   71.79    2.20
   2  -7 -10   27.40    1.30
   2  -7 -10   25.00    1.30
  -2   7  10   27.80    1.80
  -2   7  10   24.30    1.40
  -2   7   9   12.60    1.60
   2  -7  -9   12.90    1.30
   2  -7  -9   10.00    1.20
  -2   7   9   12.80    1.70
   2  -7  -9   13.80    1.30
   2  -7  -9   10.10    1.20
   2  -7  -8   33.80    2.30
   2  -7  -8   33.70    2.30
  -2   7   8   31.40    2.10
   2  -7  -8   41.00    2.40
  -2   7   8   39.20    2.90
  -2   7   8   35.40    2.80
   2  -7  -7    4.20    1.20
  -2   7   7    5.30    1.30
  -2   7   7    3.30    1.40
  -2   7   7    4.50    1.40
  -2   7   7    5.40    1.60
   2  -7  -7    5.80    1.30
  -2   7   7    3.40    1.40
   2  -7  -7    5.40    1.30
   2  -7  -6    4.60    1.20
  -2   7   6    2.90    1.20
  -2   7   6    2.40    1.20
  -2   7   6    4.20    1.20
   2  -7  -6    1.70    1.10
  -2   7   6    1.70    1.30
  -2   7   6    3.80    1.60
  -2   7   6    1.90    1.30
   2  -7  -6    3.00    1.30
  -2   7   5  101.99    4.60
   2  -7  -5  103.09    4.70
   2  -7  -5   83.09    9.70
   2  -7  -5  107.79    4.60
  -2   7   5  105.69    4.90
   2  -7  -5  116.09    4.90
   2  -7  -5  123.19    4.40
  -2   7   5  100.09    4.80
  -2   7   5  101.39    4.60
   2  -7  -4    9.20    1.40
   2  -7  -4    9.10    2.50
  -2   7   4    9.80    1.60
   2  -7  -4   11.60    1.60
   2  -7  -4   12.20    1.50
   2  -7  -4   13.20    1.80
  -2   7   4    8.10    1.40
  -2   7   4   10.70    3.50
   2  -7  -4   12.20    2.00
  -2   7   4   10.60    1.60
   2  -7  -4   11.00    1.60
  -2   7   4   10.10    1.60
  -2   7   3   38.40    2.60
   2  -7  -3   32.80    4.30
  -2   7   3   37.40    5.40
  -2   7   3   34.10    5.00
  -2   7   3   39.80    2.70
   2  -7  -3   38.40    2.70
   2  -7  -3   37.60    2.60
  -2   7   2   99.79    7.70
   2  -7  -2   81.69    6.40
  -2   7   2  104.49    8.30
  -2   7   1  110.99    8.40
  -2   7   1  108.69    9.20
  -2   7   1  106.49    7.40
   2  -7  -1   95.49    6.50
   2  -7   0   17.00    3.10
  -2   7   0   19.10    4.10
   2  -7   0   17.60    2.70
  -2   7   0   20.40    3.20
  -2   7   0   22.90    4.20
   2  -7   1   13.60    2.90
  -2   7  -1   14.90    3.80
   2  -7   1   13.80    2.30
  -2   7  -2    7.40    3.10
   2  -7   2    6.00    2.10
   2  -7   2    4.50    1.30
   2  -7   3   16.30    2.60
   2  -7   3   22.40    3.00
   2  -7   3   18.70    3.00
   2  -7   4  415.96   13.50
   2  -7   4  372.26   12.10
   2  -7   4  386.96   13.10
   2  -7   5   14.50    2.70
   2  -7   5   12.10    2.30
   2  -7   5   11.60    2.30
   2  -7   6  118.29    8.00
   2  -7   6  119.89    7.20
  -2   7  -7   72.79    6.60
   2  -7   7   71.69    6.60
   2  -7   7   69.99    5.90
   2  -7   8    1.70    0.90
   2  -7   8    3.60    2.20
   2  -7   8    1.60    0.90
   2  -7   8    1.80    0.90
  -2   7  -8    2.10    1.70
   2  -7   9    4.10    1.00
   2  -7   9    2.40    0.90
   2  -7   9    2.50    1.00
  -2   7  -9   -0.30    1.20
   2  -7   9    1.20    1.60
   2  -7   9    1.90    0.80
   2  -7   9    2.50    1.00
   2  -7   9    2.20    1.10
   2  -7   9    2.90    1.00
   2  -7   9    2.50    1.20
   2  -7  10   35.60    2.70
   2  -7  10   30.20    2.30
   2  -7  10   38.90    2.90
   2  -7  10   38.60    2.90
   2  -7  10   36.80    2.60
   2  -7  10   36.40    2.80
   2  -7  11  265.27    7.00
   2  -7  11  328.97    8.70
   2  -7  11  248.68    7.30
   2  -7  11  336.17    8.90
   2  -7  11  318.57    7.90
   2  -7  12   23.90    2.00
   2  -7  12   28.90    2.50
   2  -7  12   29.20    2.60
   2  -7  13   71.49    3.30
   2  -7  13   69.19    3.30
   2  -7  14   88.29    3.10
   2  -7  14  107.29    3.50
   2  -7  15  151.48    3.40
   2  -7  15  113.79    3.30
  -2   6  11   -0.30    0.50
   2  -6 -11    1.10    0.50
   2  -6 -11   -0.40    0.50
  -2   6  11   -0.30    0.70
   2  -6 -10   11.80    1.20
  -2   6  10   12.00    1.60
   2  -6 -10    9.20    1.00
  -2   6   9    2.10    0.90
   2  -6  -9    1.80    0.80
  -2   6   9    2.60    1.40
   2  -6  -9    5.90    1.20
   2  -6  -9    2.80    0.90
  -2   6   9    3.70    1.40
  -2   6   8   33.20    2.90
  -2   6   8   31.20    2.50
   2  -6  -8   31.80    3.20
  -2   6   8   30.10    2.80
   2  -6  -8   29.50    2.30
  -2   6   8   31.30    2.80
   2  -6  -8   31.70    2.40
  -2   6   8   32.00    2.40
  -2   6   7   29.10    2.50
  -2   6   7   28.60    2.50
   2  -6  -7   41.50    3.50
  -2   6   7   29.20    2.70
   2  -6  -7   31.00    2.50
  -2   6   7   32.10    2.40
   2  -6  -7   29.10    2.40
  -2   6   7   31.50    2.80
  -2   6   7   31.00    2.80
  -2   6   7   29.80    2.30
  -2   6   6  104.19    4.70
   2  -6  -6  102.29    4.60
  -2   6   6  102.69    4.10
  -2   6   6  103.99    4.60
  -2   6   6  102.09    4.80
  -2   6   6  103.99    4.70
  -2   6   6   99.89    4.70
   2  -6  -6  102.69    4.40
  -2   6   5   92.19    4.30
   2  -6  -5   87.19    7.10
   2  -6  -5  108.69    4.60
   2  -6  -5   96.29    4.30
  -2   6   5   99.39    9.00
  -2   6   5   95.49    4.40
   2  -6  -5   94.19    4.10
  -2   6   5   94.29    4.20
  -2   6   5   93.09    4.20
  -2   6   4    1.00    2.00
   2  -6  -4    1.70    1.50
  -2   6   4    0.80    1.90
  -2   6   3    1.70    2.00
   2  -6  -3    2.10    1.30
  -2   6   3    2.70    2.20
  -2   6   2   23.90    3.70
   2  -6  -2   18.90    3.00
  -2   6   2   22.50    3.90
  -2   6   2   22.50    4.00
   2  -6  -1   -0.60    1.40
   2  -6  -1   -0.30    1.30
  -2   6   1   -2.90    2.60
  -2   6   1    0.80    1.70
  -2   6   1   -1.10    1.40
  -2   6   0  840.82   23.50
  -2   6   0  882.11   24.00
  -2   6  -1  112.99    7.10
  -2   6  -1  121.29    8.70
   2  -6   1  109.39    6.70
   2  -6   2   52.59    3.40
   2  -6   2   49.99    4.40
   2  -6   2   47.10    3.80
  -2   6  -2   47.20    4.40
  -2   6  -3    5.90    1.70
   2  -6   3    7.00    1.90
   2  -6   3    4.90    1.70
   2  -6   3    7.00    1.70
   2  -6   4  219.88    9.30
   2  -6   4  207.48    8.00
  -2   6  -4  207.98   10.60
  -2   6  -4  210.38    8.10
   2  -6   4  215.48    8.70
   2  -6   5  167.68    7.50
   2  -6   5  181.58    9.00
  -2   6  -5  172.78    7.30
   2  -6   5  168.98    7.50
  -2   6  -6    1.50    1.30
   2  -6   6    0.50    0.90
   2  -6   6    0.20    1.20
   2  -6   7  168.28   10.00
  -2   6  -7  163.88    9.20
   2  -6   8    7.10    2.30
  -2   6  -8    5.60    2.30
   2  -6   9   90.99    4.20
   2  -6   9   88.29    3.90
   2  -6   9   80.09    3.60
  -2   6  -9   79.19    7.20
   2  -6   9   91.79    4.10
   2  -6   9   90.69    4.10
   2  -6   9   82.09    3.70
   2  -6   9   70.29    3.30
   2  -6   9   75.39    7.40
   2  -6  10   -1.00    1.10
   2  -6  10    0.00    0.80
  -2   6 -10    0.10    1.60
   2  -6  10    0.70    1.00
   2  -6  10    0.40    0.90
   2  -6  10    0.50    0.90
   2  -6  10    0.30    0.90
   2  -6  11    5.10    1.40
   2  -6  11    3.50    0.90
   2  -6  11    6.70    1.50
   2  -6  11    4.10    1.30
   2  -6  11    4.40    1.20
   2  -6  12    3.20    1.20
   2  -6  12    0.20    1.00
   2  -6  12    0.20    1.10
   2  -6  12    5.00    1.50
   2  -6  12    3.20    0.90
   2  -6  12    0.70    1.00
   2  -6  13   -0.60    0.90
   2  -6  13    0.40    1.00
   2  -6  13    2.90    1.20
   2  -6  13    1.70    1.20
   2  -6  14   45.00    2.30
   2  -6  14   39.90    2.00
   2  -6  15  124.59    3.00
  -2   5  12   12.20    1.00
   2  -5 -12   12.90    1.00
  -2   5  12   12.70    1.10
  -2   5  11    6.00    1.20
  -2   5  11    4.80    1.00
   2  -5 -11    7.10    1.10
   2  -5 -11    3.70    0.70
  -2   5  10    2.30    1.20
   2  -5 -10    4.60    1.20
   2  -5 -10    2.20    0.80
  -2   5  10    3.20    1.00
   2  -5 -10    2.70    0.80
  -2   5  10    3.30    1.30
   2  -5  -9    7.90    1.30
   2  -5  -9   13.60    2.90
   2  -5  -9    8.90    1.30
  -2   5   9    9.40    1.80
  -2   5   9    8.60    1.70
  -2   5   9   10.90    1.60
  -2   5   8    2.50    1.10
   2  -5  -8    2.90    1.00
  -2   5   8    1.90    1.00
  -2   5   8    2.60    1.40
  -2   5   8    1.40    1.00
   2  -5  -8    2.50    1.10
   2  -5  -8    6.60    2.30
  -2   5   8    2.50    1.40
  -2   5   8    2.80    1.30
   2  -5  -7  207.78    6.40
   2  -5  -7  217.78    6.40
  -2   5   7  210.48    7.00
  -2   5   7  221.08    6.50
  -2   5   7  225.18    6.40
  -2   5   7  210.58    6.70
  -2   5   7  223.78    7.00
  -2   5   7  212.78    7.00
   2  -5  -7  232.28    7.00
  -2   5   7  197.68    6.20
  -2   5   6   21.70    1.80
   2  -5  -6   21.20    3.20
  -2   5   6   22.20    4.70
  -2   5   6   21.50    2.00
   2  -5  -6   23.00    2.00
   2  -5  -6   23.80    2.10
  -2   5   6   22.30    2.20
  -2   5   6   25.10    2.30
  -2   5   6   20.40    2.00
   2  -5  -6   25.70    2.30
  -2   5   6   22.30    1.90
  -2   5   5   44.50    6.00
   2  -5  -5   37.30    4.30
   2  -5  -4  101.79    6.70
  -2   5   4  119.09    8.90
  -2   5   4  119.09    8.80
   2  -5  -3   24.90    3.30
  -2   5   3   32.40    4.50
  -2   5   3   30.10    4.30
   2  -5  -2    6.30    2.00
   2  -5  -2    4.70    1.70
  -2   5   2    2.40    1.90
  -2   5   2    6.40    2.20
  -2   5   2    5.20    2.20
   2  -5  -1   47.90    4.20
  -2   5   1   56.59    5.50
   2  -5  -1   52.39    4.50
  -2   5   0  224.38   10.00
   2  -5   0  216.08    8.80
  -2   5   0  246.88   10.90
   2  -5   0  224.58    8.50
  -2   5  -1   35.10    3.90
   2  -5   1   33.80    2.70
   2  -5   1   41.40    3.50
   2  -5   1   38.60    3.70
   2  -5   2  239.18    8.70
   2  -5   2  227.78    7.70
  -2   5  -2  254.07    9.10
   2  -5   3  100.69    5.50
  -2   5  -3  115.79    7.10
   2  -5   3   85.49    4.50
   2  -5   3   93.39    3.20
  -2   5  -3  103.89    5.40
   2  -5   3  102.49    5.50
  -2   5  -4  504.95   12.20
   2  -5   4  507.45   14.00
   2  -5   4  472.85   11.60
   2  -5   4  499.35   12.60
   2  -5   5  505.35   15.00
   2  -5   5  491.35   12.60
  -2   5  -5  469.35   12.20
   2  -5   5  498.45   12.30
  -2   5  -5  511.45   11.10
   2  -5   6  209.28    8.50
  -2   5  -6  203.98    9.30
   2  -5   6  212.78   10.20
  -2   5  -6  191.68    7.70
  -2   5  -6  212.68    7.60
   2  -5   7  254.07   11.90
  -2   5  -7  256.67   11.10
  -2   5  -7  266.57    9.70
  -2   5  -7  234.08    9.30
   2  -5   8   19.60    3.80
  -2   5  -8   21.20    3.00
  -2   5  -8   20.30    3.00
  -2   5  -8   21.50    3.60
   2  -5   9    0.40    0.70
   2  -5   9    0.00    0.80
   2  -5   9    0.90    0.90
   2  -5   9   -0.20    0.70
   2  -5   9    0.40    0.80
  -2   5  -9    0.90    1.20
  -2   5  -9    1.00    1.60
   2  -5   9    0.50    1.50
   2  -5   9   -0.40    0.70
   2  -5  10    0.50    0.90
  -2   5 -10    0.30    1.30
   2  -5  10    0.30    0.60
   2  -5  10   -0.50    0.90
   2  -5  10   -0.10    0.90
   2  -5  10    0.40    0.80
  -2   5 -10   -0.40    1.50
   2  -5  10    0.30    0.80
   2  -5  11   15.50    2.00
   2  -5  11   15.10    1.60
   2  -5  11   14.70    1.90
   2  -5  11   10.60    1.60
   2  -5  11   13.80    1.60
   2  -5  11   12.20    1.60
   2  -5  12    0.40    1.10
   2  -5  12   -0.10    0.60
   2  -5  12   -0.30    1.00
   2  -5  12    0.30    0.80
   2  -5  12   -0.20    1.10
   2  -5  13   85.09    3.50
   2  -5  13   80.29    3.30
   2  -5  13   83.99    4.00
   2  -5  13   95.59    3.50
   2  -5  13   78.59    3.20
   2  -5  13   69.09    3.20
   2  -5  14   32.50    2.00
   2  -5  14   34.50    2.00
   2  -5  15   10.40    0.90
   2  -4 -12   26.40    1.70
  -2   4  12   23.90    1.80
  -2   4  12   22.70    1.70
  -2   4  11    0.70    0.60
  -2   4  11    0.00    0.90
   2  -4 -11    1.60    2.30
   2  -4 -11    0.60    0.50
   2  -4 -10   23.70    1.90
  -2   4  10   25.90    2.50
  -2   4  10   27.60    2.00
  -2   4  10   26.80    2.60
   2  -4 -10   30.80    3.40
  -2   4  10   29.30    2.50
  -2   4   9    9.80    1.70
  -2   4   9    8.10    1.70
   2  -4  -9    8.10    1.30
  -2   4   9    9.60    1.70
   2  -4  -9    6.20    2.00
  -2   4   9    9.50    1.40
   2  -4  -9    9.70    1.40
  -2   4   9    8.30    1.70
  -2   4   8   10.10    1.80
  -2   4   8   10.00    1.70
   2  -4  -8    8.60    1.40
   2  -4  -8   16.30    3.10
  -2   4   8    9.00    1.50
  -2   4   8    9.00    1.40
   2  -4  -8    2.60    1.80
  -2   4   8    7.20    1.60
   2  -4  -8    9.80    1.40
  -2   4   8    9.80    1.60
  -2   4   7   12.00    3.80
  -2   4   7    8.90    1.50
   2  -4  -7    8.40    2.00
  -2   4   7   10.40    1.60
   2  -4  -7   10.20    1.40
   2  -4  -7    5.10    1.20
  -2   4   7    9.60    1.40
  -2   4   7   11.10    1.60
  -2   4   7    9.50    1.40
  -2   4   7   10.60    1.50
  -2   4   6   20.60    4.50
   2  -4  -6   15.80    2.70
  -2   4   5   49.99    5.90
   2  -4  -5   41.80    4.10
  -2   4   5   42.10    5.60
  -2   4   4   24.30    4.10
   2  -4  -4   20.70    2.10
  -2   4   4   22.30    3.90
   2  -4  -4   22.60    3.00
   2  -4  -3   71.99    4.90
  -2   4   3   85.79    6.50
   2  -4  -3   73.49    3.40
   2  -4  -3   62.09    4.60
  -2   4   3   80.29    5.30
  -2   4   3   76.79    6.30
   2  -4  -2    1.10    1.30
  -2   4   2   -0.70    2.40
   2  -4  -2    1.20    0.50
  -2   4   2    1.40    1.40
   2  -4  -2    1.40    1.30
  -2   4   1 1150.58   24.70
  -2   4   1 1218.78   23.50
   2  -4  -1 1118.59   21.00
   2  -4  -1 1184.58   20.80
   2  -4   0  113.49    3.90
  -2   4   0  115.79    6.50
   2  -4   0  120.29    5.80
   2  -4   0  119.69    5.40
   2  -4   1  223.58    6.20
   2  -4   1  241.98    7.20
   2  -4   1  246.28    7.90
  -2   4  -1  242.08    8.50
   2  -4   2   77.69    4.40
  -2   4  -2   76.49    4.50
   2  -4   2   74.29    4.00
  -2   4  -3  219.58    8.20
   2  -4   3  158.08    3.40
  -2   4  -3  203.08    4.70
   2  -4   3  171.78    7.00
   2  -4   3  186.18    6.70
  -2   4  -3  180.68    6.50
   2  -4   3  174.08    5.70
   2  -4   4  117.19    6.30
   2  -4   4  115.79    5.00
  -2   4  -4  115.99    5.30
   2  -4   4  116.49    5.30
  -2   4  -4  132.09    4.70
  -2   4  -4  132.99    6.20
   2  -4   5   42.50    3.30
  -2   4  -5   37.40    3.30
   2  -4   5   39.80    4.20
  -2   4  -5   41.30    3.10
   2  -4   5   40.40    3.00
  -2   4  -5   39.00    3.80
   2  -4   6  215.48   10.00
  -2   4  -6  198.68    8.00
  -2   4  -6  195.28    7.80
   2  -4   7  116.09    7.90
  -2   4  -7  100.09    6.20
  -2   4  -7  102.89    6.20
  -2   4  -8    5.20    1.80
   2  -4   8    5.70    2.20
  -2   4  -8    5.20    1.90
  -2   4  -9  218.58   10.70
   2  -4   9  216.78   12.20
   2  -4   9  241.28    6.60
  -2   4  -9  201.68   10.00
   2  -4   9  179.98    5.40
   2  -4  10   71.09    3.80
   2  -4  10   70.99    3.80
   2  -4  10   59.29    3.20
   2  -4  10   86.79    4.20
   2  -4  10   76.39    7.30
   2  -4  10   77.59    3.40
  -2   4 -10   64.29    6.20
   2  -4  10   68.89    3.30
   2  -4  11  141.29    5.10
   2  -4  11  185.58    5.50
   2  -4  11  167.78    6.00
   2  -4  11  147.39    5.00
   2  -4  11  165.58    5.50
   2  -4  12    4.10    1.00
   2  -4  12    3.30    1.10
   2  -4  12    2.90    1.10
   2  -4  12    2.30    0.90
   2  -4  12    4.50    1.40
   2  -4  12    0.80    1.20
   2  -4  13    2.50    1.00
   2  -4  13    1.50    1.20
   2  -4  13    3.30    0.90
   2  -4  13    4.00    1.10
   2  -4  14   88.99    2.70
   2  -4  14  103.19    3.20
   2  -4  14   51.59    2.20
   2  -4  14   45.40    2.70
   2  -4  14   48.00    2.40
   2  -4  15    5.10    0.80
   2  -3 -13    2.50    0.80
  -2   3  13    1.40    0.70
  -2   3  13    1.00    0.60
  -2   3  12   27.50    1.80
  -2   3  12   25.90    2.10
  -2   3  12   28.70    2.20
   2  -3 -12   32.70    2.80
  -2   3  11    0.50    0.70
  -2   3  11   -0.10    1.20
  -2   3  11    0.00    1.00
   2  -3 -11    0.50    2.10
  -2   3  10    5.60    1.20
  -2   3  10    5.50    1.40
   2  -3 -10    6.40    1.10
  -2   3  10    6.00    1.40
  -2   3  10    6.00    1.50
  -2   3   9  180.88    6.30
   2  -3  -9  174.78    5.30
  -2   3   9  195.28    6.40
  -2   3   9  176.08    5.50
  -2   3   9  181.88    6.40
  -2   3   9  189.48    6.60
  -2   3   8   55.39    3.10
  -2   3   8   54.89    3.20
  -2   3   8   54.19    3.40
  -2   3   8   53.79    3.10
  -2   3   8   53.79    3.30
  -2   3   8   55.59    7.40
   2  -3  -8   51.69    2.80
  -2   3   8   53.49    3.30
   2  -3  -7  151.28    7.70
   2  -3  -7  149.69    7.70
  -2   3   6  147.49   10.30
   2  -3  -6  130.99    6.60
   2  -3  -6  131.29    7.00
   2  -3  -5  185.58    8.10
  -2   3   5  207.58   11.20
  -2   3   5  202.08   11.00
   2  -3  -5  191.38    7.30
   2  -3  -4  410.16   11.80
  -2   3   4  478.45   15.60
  -2   3   4  456.95   15.40
   2  -3  -4  427.46   10.20
  -2   3   3  851.11   16.10
  -2   3   3  947.51   21.40
  -2   3   3  994.40   21.10
   2  -3  -3  872.01   17.30
   2  -3  -3  828.92   16.70
   2  -3  -3  862.71   14.20
   2  -3  -2  105.69    5.10
  -2   3   2  108.29    5.20
  -2   3   2  118.59    7.00
   2  -3  -2  103.89    3.50
   2  -3  -2  101.19    4.90
   2  -3  -1 1313.17   20.80
   2  -3  -1 1322.67   15.20
  -2   3   1 1327.77   24.60
   2  -3  -1 1349.27   20.70
  -2   3   0    9.30    2.10
   2  -3   0    7.60    1.50
   2  -3   0    9.20    1.10
   2  -3   0    9.80    1.60
   2  -3   1    5.50    1.10
   2  -3   1    4.40    1.10
  -2   3  -1    5.00    1.50
   2  -3   1    4.30    1.20
  -2   3  -2  267.47    5.20
   2  -3   2  230.48    7.10
  -2   3  -2  228.08    6.80
   2  -3   2  215.68    5.40
   2  -3   2  221.18    6.80
  -2   3  -2  270.77    8.00
   2  -3   2  209.48    5.60
  -2   3  -3   55.79    3.40
  -2   3  -3   55.99    2.80
   2  -3   3   61.59    4.00
   2  -3   3   52.39    2.80
  -2   3  -3   55.99    3.70
   2  -3   4  231.78    8.80
  -2   3  -4  234.68    7.50
   2  -3   4  231.38    6.80
  -2   3  -4  247.38    7.10
  -2   3  -5   16.20    2.20
  -2   3  -5   14.30    2.20
   2  -3   5   17.80    2.90
   2  -3   5   11.10    2.40
  -2   3  -6    3.50    1.40
   2  -3   6    3.80    1.90
   2  -3   6    2.70    1.70
  -2   3  -6    4.90    1.60
  -2   3  -7  362.46   12.30
   2  -3   7  394.56   15.00
   2  -3   7  368.16   14.40
  -2   3  -7  370.66   12.50
  -2   3  -8    1.30    1.50
   2  -3   8    1.70    1.90
   2  -3   8   -0.40    1.50
  -2   3  -8    0.30    1.40
   2  -3   9   42.70    5.90
  -2   3  -9   37.10    4.60
   2  -3   9   35.50    2.30
  -2   3  -9   39.10    4.70
   2  -3   9   45.40    5.60
   2  -3   9   40.30    2.60
   2  -3   9   48.30    2.90
   2  -3   9   39.00    2.60
   2  -3  10  221.88    6.20
   2  -3  10  232.98   12.70
   2  -3  10  247.68    7.30
   2  -3  10  212.08    5.90
  -2   3 -10  223.38   11.50
  -2   3 -10  238.58   12.00
   2  -3  10  247.18    6.60
   2  -3  10  253.47   14.40
   2  -3  10  241.58    7.20
   2  -3  10  269.27    6.70
   2  -3  11   26.60    2.10
   2  -3  11   22.20    2.30
   2  -3  11   19.10    1.80
   2  -3  11   22.90    2.10
   2  -3  11   19.40    1.80
   2  -3  12   10.60    1.40
   2  -3  12   16.10    1.80
   2  -3  12   14.10    2.10
   2  -3  12   17.50    1.80
   2  -3  13    4.40    1.30
   2  -3  13    7.00    1.10
   2  -3  13    6.90    1.30
   2  -3  14   81.39    2.70
   2  -3  14   71.89    3.10
   2  -3  14   75.29    3.00
   2  -3  15   12.10    0.90
  -2   3 -15   -0.40    2.00
  -2   2  14   38.00    1.60
   2  -2 -14   35.20    1.40
  -2   2  13    0.20    0.70
   2  -2 -13    1.50    0.80
  -2   2  13   -0.20    0.70
  -2   2  12   13.80    1.80
   2  -2 -12   14.40    2.30
  -2   2  12   13.40    1.70
  -2   2  12   14.70    1.60
  -2   2  11   17.90    1.80
   2  -2 -11   34.40    3.40
   2  -2 -11    3.60    2.00
  -2   2  11   19.70    2.20
  -2   2  11   18.20    2.20
  -2   2  10    9.10    1.40
  -2   2  10   10.70    1.70
  -2   2  10    9.60    1.70
  -2   2  10    7.90    1.50
  -2   2   9  176.98    5.90
  -2   2   9  180.88    6.20
  -2   2   9  192.88   13.60
  -2   2   9  172.58    6.00
   2  -2  -9  148.09    8.50
  -2   2   9  159.28    5.20
  -2   2   9  174.28    5.90
  -2   2   8   12.40    3.90
   2  -2  -8    6.60    2.00
  -2   2   8    9.90    1.40
  -2   2   7   58.09    6.70
   2  -2  -7   52.09    4.30
   2  -2  -7   51.09    4.50
   2  -2  -6   14.30    2.30
  -2   2   6   14.90    3.40
   2  -2  -6   15.00    2.40
  -2   2   5   14.60    3.30
   2  -2  -5   15.60    2.30
   2  -2  -5   12.40    2.00
  -2   2   5   14.60    3.20
   2  -2  -4  257.17    7.80
  -2   2   4  288.27   11.20
  -2   2   4  285.57   11.00
   2  -2  -4  250.27    7.60
   2  -2  -4  262.67    8.70
   2  -2  -3   58.99    3.40
   2  -2  -3   59.99    3.90
  -2   2   3   64.39    5.00
   2  -2  -3   59.49    3.20
  -2   2   3   61.69    2.60
  -2   2   2  872.91   19.50
   2  -2  -2  891.61   15.00
   2  -2  -2  930.91   16.30
  -2   2   2  939.61   14.30
  -2   2   1 1202.78   20.50
   2  -2  -1 1161.18   16.70
   2  -2  -1 1229.78   17.30
   2  -2   0  292.17    6.30
  -2   2   0  289.37    7.70
  -2   2  -1 1314.97   18.60
   2  -2   1 1345.97   16.60
   2  -2   2 1800.32   24.10
   2  -2   2 1510.95   19.20
  -2   2  -2 1715.33   22.90
   2  -2   2 1622.14   19.50
  -2   2  -2 1875.61   21.40
  -2   2  -2 1833.02   23.30
  -2   2  -3  209.78    6.60
   2  -2   3  227.58    6.70
   2  -2   3  221.28    7.40
  -2   2  -3  205.38    6.20
   2  -2   4    0.70    1.40
   2  -2   4    0.50    0.70
  -2   2  -4    0.50    0.90
   2  -2   4    0.10    1.40
  -2   2  -4    0.50    1.10
   2  -2   5   66.79    5.20
  -2   2  -5   72.29    4.70
   2  -2   5   79.79    5.60
  -2   2  -5   76.99    4.70
   2  -2   5   82.29    3.50
  -2   2  -6  104.49    6.20
   2  -2   6  106.29    7.20
  -2   2  -6  109.99    6.20
   2  -2   6  117.59    7.50
   2  -2   7   18.30    3.40
  -2   2  -7   14.80    2.70
  -2   2  -7   18.70    3.00
   2  -2   7   14.40    3.30
   2  -2   8   37.60    5.50
   2  -2   8   37.30    4.90
  -2   2  -8   35.60    4.30
  -2   2  -8   40.80    4.50
   2  -2   9    8.80    3.40
   2  -2   9    5.60    1.10
   2  -2   9    6.10    2.40
   2  -2   9    7.00    1.40
  -2   2  -9    6.00    2.20
   2  -2   9    5.00    1.10
  -2   2  -9    7.10    2.30
  -2   2 -10   28.00    4.30
  -2   2 -10   19.30    3.60
   2  -2  10   25.60    2.50
   2  -2  10   25.90    2.10
   2  -2  10   22.50    2.20
   2  -2  10   23.30    1.90
   2  -2  10   23.80    4.80
   2  -2  10   20.40    1.80
   2  -2  10   25.40    2.10
   2  -2  11  154.38    5.90
   2  -2  11  173.88    5.90
   2  -2  11  189.58    5.90
   2  -2  11  173.78    5.40
   2  -2  11  163.48    5.00
   2  -2  11  172.78    5.40
   2  -2  12    1.10    0.80
   2  -2  12    1.10    1.10
   2  -2  12    1.70    0.80
  -2   2 -12    0.20    0.60
   2  -2  12    0.80    0.90
   2  -2  12   -0.40    0.80
   2  -2  13    8.50    1.50
   2  -2  13   10.20    1.50
  -2   2 -13    9.00    1.20
   2  -2  13   10.10    1.30
   2  -2  14    6.00    1.00
   2  -2  14    7.40    0.80
  -2   2 -14    5.00    0.70
  -2   1  14   -1.50    0.70
  -2   1  14    0.00    0.60
   2  -1 -14    0.20    0.50
  -2   1  13   26.60    2.10
  -2   1  13   30.40    2.10
  -2   1  13   27.10    2.00
   2  -1 -13   31.80    2.50
  -2   1  12    0.20    0.80
  -2   1  12   -0.20    0.90
  -2   1  12    0.00    1.00
  -2   1  11   31.50    2.50
  -2   1  11   35.80    2.80
  -2   1  11   32.90    2.80
  -2   1  11   35.90    2.90
  -2   1  10   23.30    2.30
  -2   1  10   24.10    2.40
  -2   1  10   20.40    2.00
  -2   1  10   22.70    2.30
  -2   1   9   12.50    1.60
   2  -1  -9   10.90    2.60
  -2   1   9   13.00    1.70
  -2   1   9   11.00    1.40
  -2   1   9   11.80    1.60
  -2   1   9   13.20    3.90
   2  -1  -8  274.47   11.40
  -2   1   8  314.77   15.80
   2  -1  -7   30.80    3.20
  -2   1   7   38.10    5.30
   2  -1  -7   33.60    3.70
   2  -1  -6  180.68    7.70
   2  -1  -6  174.18    7.80
  -2   1   6  198.68    8.90
  -2   1   6  188.88   10.10
  -2   1   5   40.40    4.40
   2  -1  -5   39.20    3.40
   2  -1  -5   38.50    3.40
   2  -1  -4  101.59    3.90
  -2   1   4  117.09    6.40
  -2   1   4  114.09    6.50
   2  -1  -4  106.09    5.20
  -2   1   3  600.44   14.10
   2  -1  -3  571.94   10.10
   2  -1  -3  571.34   12.20
   2  -1  -2  236.38    6.80
   2  -1  -2  227.38    5.60
   2  -1  -1   91.49    3.80
   2  -1  -1   93.89    4.10
  -2   1   1   84.49    4.30
   2  -1   0   37.60    2.10
   2  -1   0   40.90    2.80
   2  -1   0   37.20    2.10
  -2   1   0   36.50    2.40
   2  -1   1 1867.71   20.90
   2  -1   1 1805.02   24.00
   2  -1   1 1885.81   25.50
  -2   1  -1 1785.22   23.20
  -2   1  -1 1682.43   21.80
  -2   1  -1 1892.81   25.50
  -2   1  -1 1954.70   22.90
  -2   1  -2 9291.97   96.59
   2  -1   2 9476.85  101.59
   2  -1   2 9999.00  102.09
  -2   1  -2 9432.36   99.69
   2  -1   2 9548.94  101.49
  -2   1  -2 9912.81   99.09
   2  -1   3  181.38    6.90
   2  -1   3  193.28    6.50
  -2   1  -3  176.48    4.30
   2  -1   3  173.88    6.90
  -2   1  -3  178.28    6.10
  -2   1  -3  189.58    6.20
   2  -1   4   39.00    3.90
   2  -1   4   42.60    3.80
  -2   1  -4   41.90    2.10
   2  -1   4   44.80    3.20
  -2   1  -4   45.60    3.40
   2  -1   5  290.17   11.10
  -2   1  -5  255.37    6.20
   2  -1   5  246.78   10.60
   2  -1   5  331.57    8.60
   2  -1   5  286.97   10.30
  -2   1  -5  301.87    9.80
  -2   1  -6  232.78    9.40
   2  -1   6  218.58   10.70
  -2   1  -7   70.19    5.60
   2  -1   7   73.99    6.40
   2  -1   7   64.89    6.70
   2  -1   8    0.50    1.40
  -2   1  -8   -0.30    1.40
   2  -1   8    2.80    2.20
  -2   1  -8   -1.00    1.70
   2  -1   9    2.50    0.90
  -2   1  -9    1.80    1.90
   2  -1   9    1.60    1.00
   2  -1   9    2.20    2.30
   2  -1   9    1.90    0.90
   2  -1   9    3.60    1.20
   2  -1   9    2.20    0.80
  -2   1  -9    1.90    1.70
   2  -1  10    3.50    1.00
   2  -1  10    3.90    1.20
  -2   1 -10    2.70    0.90
   2  -1  10    3.20    1.10
   2  -1  10    3.20    1.20
   2  -1  10    2.00    1.10
   2  -1  11   30.60    2.60
   2  -1  11   34.70    2.50
   2  -1  11   32.90    2.60
  -2   1 -11   29.90    2.20
  -2   1 -11   30.30    2.20
   2  -1  11   35.50    2.60
  -2   1 -12   11.20    1.50
   2  -1  12   13.60    1.80
   2  -1  12   14.10    1.80
   2  -1  12   11.10    1.50
   2  -1  12   14.40    1.60
   2  -1  13   17.70    1.70
   2  -1  13   20.10    1.60
   2  -1  13   16.20    1.70
  -2   1 -13   15.10    1.40
   2  -1  14    7.70    1.00
   2  -1  14    6.40    0.70
  -2   1 -14    8.00    0.70
  -2   0  15   17.30    1.10
  -2   0  14   64.09    2.90
   2   0 -14   63.29    2.60
  -2   0  14   69.29    2.80
  -2   0  13    4.40    1.10
  -2   0  13    5.60    1.30
  -2   0  13    4.60    1.10
  -2   0  12    0.90    1.00
  -2   0  12    2.10    1.10
  -2   0  12    1.40    1.00
  -2   0  11   30.20    2.60
  -2   0  11   29.00    2.40
  -2   0  11   29.90    2.60
  -2   0  11   33.90    2.70
  -2   0  10  308.17   16.60
  -2   0  10  326.87    8.40
  -2   0  10  358.26    8.10
  -2   0  10  352.86    8.90
   2   0 -10  290.37   13.00
  -2   0  10  322.37    8.10
  -2   0   9   89.59    8.60
   2   0  -9   80.29    6.40
  -2   0   9   85.79    3.80
  -2   0   8   60.69    6.60
   2   0  -8   48.30    4.80
  -2   0   7  156.18    8.20
   2   0  -7  143.19    7.70
   2   0  -7  140.59    6.90
  -2   0   7  152.58    9.20
   2   0  -6  418.26   12.50
   2   0  -6  435.36   12.20
  -2   0   5  832.22   18.50
  -2   0   5  860.21   18.50
   2   0  -5  769.52   16.30
  -2   0   5  794.62   13.00
  -2   0   4    4.70    1.70
   2   0  -4    4.30    1.50
   2   0  -4    3.60    0.60
  -2   0   4    3.40    1.60
   2   0  -3   23.20    2.50
  -2   0   3   23.00    2.50
   2   0  -3   20.90    1.40
   2   0  -3   22.40    2.00
   2   0  -2   47.60    3.10
  -2   0   2   49.80    3.00
   2   0  -2   42.30    1.50
  -2   0   2   46.50    3.20
   2   0  -2   48.60    2.90
  -2   0   1    0.60    0.80
   2   0  -1    0.80    0.70
   2   0  -1    1.00    1.00
  -2   0   1    0.30    1.00
  -2   0   1    0.40    0.80
   2   0  -1    0.60    1.10
   2   0   0  671.53   10.70
  -2   0   0  622.44    6.40
  -2   0   0  667.13    9.70
   2   0   0  735.33   13.00
  -2   0   0  688.53   10.40
   2   0   0  787.62   10.90
   2   0   1 3188.58   40.30
  -2   0  -1 2873.91   35.30
  -2   0  -1 2945.81   35.00
   2   0   1 3094.69   36.70
   2   0   1 2950.80   37.50
  -2   0  -1 3245.78   40.40
   2   0   1 3416.06   34.10
  -2   0  -2 4529.55   51.09
   2   0   2 4485.25   52.89
  -2   0  -2 4567.94   49.60
   2   0   3  955.20   18.40
  -2   0  -3  908.91   14.40
   2   0   3 1024.70   19.60
  -2   0  -3 1028.10   17.20
   2   0   3  891.01   17.90
   2   0   4    1.30    1.80
  -2   0  -4    1.40    1.30
   2   0   4    1.30    1.40
  -2   0  -4    0.80    0.70
   2   0   4    1.10    1.20
  -2   0  -5    2.90    1.40
   2   0   5    1.80    1.40
   2   0   5    1.00    2.00
  -2   0  -5    2.00    0.90
   2   0   5    1.20    1.00
   2   0   6   13.70    3.30
   2   0   6    8.30    2.40
  -2   0  -6   13.80    2.60
   2   0   6   15.30    2.90
   2   0   7    0.40    1.30
   2   0   7    0.90    2.10
  -2   0  -7    0.90    1.40
  -2   0  -8    3.20    1.90
   2   0   8    6.80    2.30
   2   0   8    5.60    2.80
  -2   0  -9    3.00    2.20
   2   0   9    2.00    0.90
  -2   0  -9    0.90    0.70
   2   0   9    1.30    0.90
   2   0   9    0.40    0.80
   2   0   9    0.50    2.40
  -2   0  -9    2.60    1.60
   2   0   9    0.70    0.80
   2   0   9   -0.30    1.20
   2   0  10    0.30    0.80
   2   0  10    0.00    1.00
  -2   0 -10    0.70    0.90
   2   0  10    0.60    0.90
  -2   0 -10    0.60    0.70
   2   0  11    0.00    0.90
   2   0  11    0.60    0.90
  -2   0 -11    0.40    1.00
   2   0  11   -0.30    0.70
  -2   0 -11   -0.40    0.70
  -2   0 -11   -0.10    0.60
   2   0  12    4.00    1.10
   2   0  12    3.60    1.10
  -2   0 -12    2.50    1.00
   2   0  12    3.70    1.20
   2   0  12    4.00    1.00
   2   0  13    4.00    0.80
  -2   0 -13    4.00    0.90
   2   0  13    4.60    0.90
   2   0  13    3.10    1.00
  -2   0 -14    7.60    1.40
   2   0  14    2.80    0.70
  -2  -1  15   29.30    1.50
  -2  -1  15   22.10    1.50
  -2  -1  14    5.80    1.20
  -2  -1  14    3.90    1.00
  -2  -1  14    5.20    1.00
   2   1 -14    4.20    1.10
  -2  -1  13    0.10    1.00
  -2  -1  13    0.20    0.80
  -2  -1  13   -0.20    1.00
  -2  -1  12   18.00    2.10
  -2  -1  12   19.40    2.10
  -2  -1  12   21.20    2.20
  -2  -1  11   46.00    3.00
  -2  -1  11   43.30    3.10
  -2  -1  11   45.80    3.20
  -2  -1  11   40.30    2.90
  -2  -1  10   59.19    3.40
  -2  -1  10   59.19    3.30
  -2  -1  10   91.59    3.40
  -2  -1  10   62.59    3.30
  -2  -1  10   56.39    3.20
  -2  -1  10   56.89    6.80
   2   1 -10   49.40    5.40
  -2  -1  10   62.99    3.50
  -2  -1  10   83.39    3.30
  -2  -1   9    1.40    1.70
   2   1  -9    0.80    1.30
  -2  -1   8    5.90    2.20
   2   1  -8    8.60    1.90
   2   1  -8    7.90    2.20
  -2  -1   7   32.30    4.00
   2   1  -7   26.90    3.50
   2   1  -7   26.40    3.10
  -2  -1   7   30.30    3.90
  -2  -1   6    1.50    1.50
  -2  -1   6    2.40    1.10
  -2  -1   6    2.40    1.70
   2   1  -6    1.50    1.10
   2   1  -5   69.99    4.60
  -2  -1   5   66.39    4.90
  -2  -1   5   70.39    4.50
  -2  -1   5   71.09    3.80
  -2  -1   4  271.97    9.20
  -2  -1   4  266.77    7.00
   2   1  -4  241.38    3.90
  -2  -1   4  281.77    7.90
   2   1  -4  270.27    6.40
   2   1  -4  227.58    4.50
   2   1  -4  269.57    8.70
   2   1  -3    6.30    1.60
   2   1  -3    6.00    1.20
   2   1  -3    5.50    0.80
  -2  -1   2  106.19    4.10
   2   1  -2  107.39    3.90
  -2  -1   2  107.59    3.80
  -2  -1   2  105.19    4.40
   2   1  -2  117.79    5.00
  -2  -1   2  110.69    3.50
   2   1  -2  117.29    4.90
   2   1  -1   26.10    2.30
  -2  -1   1   24.60    1.50
  -2  -1   1   29.00    1.30
  -2  -1   1   27.50    2.20
   2   1  -1   28.90    2.90
  -2  -1   1   25.90    1.70
  -2  -1   1   25.70    2.20
   2   1   0   63.19    3.80
  -2  -1   0   62.79    2.90
  -2  -1   0   64.99    4.40
  -2  -1   0   65.79    3.10
  -2  -1   0   64.19    2.60
  -2  -1   0   61.49    1.80
   2   1   0   66.49    3.00
   2   1   0   70.59    4.70
   2   1   1 1923.11   25.60
   2   1   1 2058.09   29.10
  -2  -1  -1 1980.50   25.10
  -2  -1  -1 1801.92   22.30
   2   1   1 2218.28   32.40
  -2  -1  -1 1912.41   24.20
  -2  -1  -1 2144.59   33.10
   2   1   2 1410.36   24.60
  -2  -1  -2 1374.66   20.50
  -2  -1  -3   20.90    2.20
   2   1   3   20.70    2.90
   2   1   3   23.90    3.10
  -2  -1  -3   26.70    2.90
   2   1   3   25.40    3.50
   2   1   4   95.39    6.70
  -2  -1  -4   86.19    4.50
   2   1   4   85.99    5.90
  -2  -1  -4   89.19    5.40
   2   1   4   80.79    5.80
  -2  -1  -5   61.59    4.10
   2   1   5   70.69    5.60
   2   1   5   67.69    6.00
  -2  -1  -5   67.09    5.10
   2   1   5   77.19    6.20
   2   1   6  467.15   17.30
   2   1   6  480.15   15.70
  -2  -1  -6  457.75   14.70
   2   1   7    3.60    2.10
   2   1   7    2.50    2.20
  -2  -1  -7    2.80    1.90
  -2  -1  -8   14.80    1.70
   2   1   8   17.00    1.90
  -2  -1  -8   17.70    1.80
  -2  -1  -8   13.00    3.20
   2   1   8   14.30    1.70
   2   1   8   15.40    1.80
   2   1   8   16.90    4.00
   2   1   8   16.60    1.70
   2   1   9   21.90    2.20
  -2  -1  -9   24.20    2.10
  -2  -1  -9   18.20    1.90
   2   1   9   22.40    2.10
   2   1   9   20.80    2.10
   2   1  10    2.80    1.20
   2   1  10    3.60    1.20
  -2  -1 -10    2.90    1.20
  -2  -1 -10    3.40    1.00
   2   1  10    3.80    1.20
  -2  -1 -10    3.80    1.00
   2   1  11   13.80    1.60
  -2  -1 -11   13.40    1.40
  -2  -1 -11   12.40    1.50
   2   1  11   12.50    1.80
  -2  -1 -11   15.20    1.80
   2   1  12    0.40    0.90
   2   1  12   -0.50    0.90
  -2  -1 -12    0.30    0.80
   2   1  12   -0.30    0.60
   2   1  12    0.30    0.70
  -2  -1 -13   78.99    2.60
  -2  -1 -13   87.29    5.40
   2   1  13   84.39    2.60
   2   1  13   86.99    3.00
  -2  -2  15   53.29    2.40
  -2  -2  15   56.89    2.40
  -2  -2  14    1.20    1.00
  -2  -2  14    1.60    0.70
  -2  -2  14    1.70    1.00
  -2  -2  13    2.70    1.20
  -2  -2  13    6.60    1.50
  -2  -2  12  135.59    5.40
  -2  -2  12  135.49    5.20
  -2  -2  12  137.19    5.30
  -2  -2  11  173.18    6.00
  -2  -2  11  163.98    5.90
  -2  -2  11  163.88    5.70
  -2  -2  11  165.28    5.80
  -2  -2  11  147.09    5.60
  -2  -2  10  250.87    7.00
  -2  -2  10  225.88    5.70
  -2  -2  10  193.68    5.90
  -2  -2  10  241.48    6.70
   2   2 -10  210.48   11.30
  -2  -2  10  262.47    7.10
  -2  -2  10  252.87    7.00
  -2  -2   9   -0.50    1.30
   2   2  -9    1.00    1.40
  -2  -2   8    1.90    1.30
   2   2  -8   -1.40    1.10
  -2  -2   8    0.70    1.30
   2   2  -8    0.00    1.50
   2   2  -7   16.30    2.60
  -2  -2   7   17.10    2.80
  -2  -2   7   15.80    2.40
  -2  -2   7   19.90    3.20
  -2  -2   6   34.70    4.00
   2   2  -6   31.90    3.40
  -2  -2   6   34.90    3.20
  -2  -2   6   33.40    3.20
  -2  -2   5 1276.07   20.10
  -2  -2   5 1309.67   25.00
  -2  -2   5 1264.47   21.10
   2   2  -5 1255.87   16.80
  -2  -2   4   10.20    1.90
   2   2  -4    9.70    1.50
   2   2  -4   10.70    1.60
   2   2  -4    9.70    2.00
  -2  -2   4   11.00    2.30
  -2  -2   4   11.80    1.40
  -2  -2   3  264.27    7.60
  -2  -2   3  269.17    7.50
   2   2  -3  260.27    7.80
  -2  -2   3  285.17    5.40
   2   2  -3  282.97    8.80
   2   2  -3  280.37    8.40
   2   2  -2 1160.98   19.50
  -2  -2   2 1165.48   17.90
  -2  -2   2 1138.49   16.60
  -2  -2   2 1158.38   19.40
   2   2  -2 1230.58   21.30
  -2  -2   2 1086.79   14.60
   2   2  -1 1364.06   24.40
  -2  -2   1 1217.88   19.30
  -2  -2   1 1194.48   15.40
   2   2  -1 1252.77   21.80
  -2  -2   1 1313.67   19.10
  -2  -2   0   80.29    3.60
  -2  -2   0   90.69    3.20
   2   2   0   93.49    5.50
  -2  -2   0   95.69    4.20
   2   2   0   96.19    6.30
   2   2   0   89.89    3.60
  -2  -2  -1  111.89    4.80
  -2  -2  -1   98.99    3.40
   2   2   1  110.09    4.70
   2   2   1  121.89    7.60
   2   2   1  111.59    6.40
  -2  -2  -1   88.69    7.40
  -2  -2  -2  209.78   10.30
   2   2   2  193.48    8.90
  -2  -2  -2  178.28    6.60
   2   2   2  170.98    6.90
   2   2   2  201.68   10.40
  -2  -2  -3   46.40    3.60
   2   2   3   50.49    4.40
   2   2   3   52.19    5.00
   2   2   3   55.89    6.00
  -2  -2  -4  130.69    6.40
  -2  -2  -4  159.78    8.60
   2   2   4  160.48   10.10
   2   2   4  135.89    8.10
   2   2   4  134.59    7.90
  -2  -2  -5   84.99    5.50
   2   2   5   95.49    7.10
   2   2   5   96.69    7.50
   2   2   5  104.89    8.40
   2   2   6   50.99    6.10
  -2  -2  -6   59.59    6.10
  -2  -2  -6   51.39    4.40
   2   2   6   57.99    5.70
   2   2   7   49.40    3.00
  -2  -2  -7   42.70    2.70
   2   2   7   42.80    2.70
  -2  -2  -7   52.69    5.90
   2   2   7   53.49    2.60
   2   2   7   43.30    6.20
  -2  -2  -8   26.30    2.30
  -2  -2  -8   22.40    1.90
   2   2   8   31.10    5.50
   2   2   8   23.00    2.30
   2   2   8   24.50    2.10
  -2  -2  -8   24.10    2.10
  -2  -2  -8   19.00    6.30
   2   2   8   23.10    2.30
   2   2   9   67.39    3.90
   2   2   9   79.99    3.70
   2   2   9   70.39    3.50
  -2  -2  -9   76.79    3.70
  -2  -2  -9   77.19    3.90
  -2  -2  -9   84.89    4.20
   2   2   9   75.59    4.00
   2   2  10    9.80    1.40
  -2  -2 -10   14.40    2.00
   2   2  10   12.90    1.80
  -2  -2 -10   12.70    1.50
   2   2  10   14.70    1.60
  -2  -2 -10   12.90    1.70
   2   2  10   15.40    2.00
  -2  -2 -11   10.60    1.60
  -2  -2 -11    7.80    1.10
   2   2  11    9.80    1.60
  -2  -2 -12   19.00    1.60
   2   2  12   19.80    1.60
   2   2  12   19.90    1.60
  -2  -2 -12   24.30    5.40
  -2  -2 -12   13.40    2.40
   2   2  12   20.20    1.70
   2   2  13   11.20    1.00
  -2  -2 -13    5.30    1.20
  -2  -3  15   -1.70    1.00
  -2  -3  15    0.60    0.70
  -2  -3  14   56.89    3.20
  -2  -3  14   54.99    3.00
  -2  -3  13   54.59    3.00
  -2  -3  13   54.49    3.40
  -2  -3  13   52.39    3.20
  -2  -3  12  222.08    7.00
  -2  -3  12  229.28    7.20
  -2  -3  12  217.88    7.30
  -2  -3  11    1.00    1.00
  -2  -3  11    0.20    0.80
  -2  -3  11    1.30    1.00
  -2  -3  10   25.10    2.10
   2   3 -10   20.40    3.80
  -2  -3  10   23.30    2.10
  -2  -3  10   25.00    2.10
  -2  -3  10   26.70    2.30
   2   3  -9    0.50    1.30
  -2  -3   9   -0.40    1.20
  -2  -3   8    1.90    1.60
   2   3  -8    4.50    1.50
  -2  -3   8    2.90    1.40
   2   3  -8    3.10    1.80
  -2  -3   7   20.00    3.40
  -2  -3   7   17.10    2.70
   2   3  -7   20.70    3.00
  -2  -3   6  445.66   14.80
  -2  -3   6  435.46   12.50
  -2  -3   6  430.16   10.10
   2   3  -6  462.05   14.20
   2   3  -5  417.86    9.70
  -2  -3   5  430.76   13.80
  -2  -3   5  430.96    8.20
  -2  -3   5  444.26   12.50
   2   3  -5  433.06   13.00
  -2  -3   4    7.70    1.80
   2   3  -4    7.00    1.70
  -2  -3   4    7.00    1.60
   2   3  -4    6.90    1.70
  -2  -3   4    5.40    0.50
  -2  -3   4    9.20    2.20
   2   3  -3   82.79    5.20
  -2  -3   3   76.89    4.10
  -2  -3   3   79.19    4.20
  -2  -3   3   85.19    5.20
   2   3  -3   84.49    5.50
   2   3  -2    6.80    2.30
  -2  -3   2    5.20    1.60
  -2  -3   2    5.60    1.40
   2   3  -2    5.60    2.10
  -2  -3   2    2.60    1.10
  -2  -3   1  587.34    8.60
  -2  -3   1  611.04   12.60
   2   3  -1  640.74   17.80
   2   3  -1  618.34   16.10
  -2  -3   1  588.24   12.70
   2   3   0   48.00    4.70
  -2  -3   0   50.49    3.50
  -2  -3   0   44.20    2.90
   2   3   0   49.80    5.40
   2   3   0   45.80    2.80
   2   3   1   11.10    3.40
   2   3   1   12.10    1.90
  -2  -3  -1   11.80    2.00
   2   3   1   11.20    3.00
  -2  -3  -1    3.30    3.50
  -2  -3  -2   26.00    2.90
   2   3   2   26.10    3.10
   2   3   2   23.80    4.60
   2   3   2   25.60    4.00
  -2  -3  -2   16.70    4.00
  -2  -3  -3  164.98   10.40
   2   3   3  184.98   11.70
   2   3   3  170.08    9.70
  -2  -3  -3  161.38    7.40
   2   3   3  169.48    8.40
  -2  -3  -4   31.20    3.50
   2   3   4   30.60    4.40
  -2  -3  -4   20.80    4.50
   2   3   4   37.40    5.80
   2   3   4   33.50    4.30
   2   3   5    2.70    2.10
   2   3   5    2.10    2.40
  -2  -3  -5    2.60    1.30
   2   3   5    4.50    2.00
  -2  -3  -6   10.20    2.30
   2   3   6   12.10    3.40
  -2  -3  -7   55.29    3.30
   2   3   7   64.99    3.60
   2   3   7   68.49    3.20
   2   3   7   55.09    3.10
   2   3   7   53.09    7.10
  -2  -3  -7   58.79    3.40
  -2  -3  -7   56.79    3.20
   2   3   7   54.49    3.10
   2   3   7   58.59    3.40
   2   3   8    8.60    1.60
  -2  -3  -8    7.20    1.50
   2   3   8    7.00    1.40
   2   3   8    8.30    1.60
  -2  -3  -8    6.60    1.30
  -2  -3  -8    7.80    1.50
   2   3   8    7.90    1.40
   2   3   9   39.50    3.00
  -2  -3  -9   42.50    2.60
  -2  -3  -9   42.80    3.10
   2   3   9   34.20    2.50
  -2  -3  -9   41.30    2.70
  -2  -3  -9   40.20    2.90
   2   3   9   39.90    2.80
   2   3   9   42.50    3.10
   2   3  10    6.60    1.60
  -2  -3 -10    7.50    1.50
  -2  -3 -10    5.80    1.10
   2   3  10    7.90    1.70
   2   3  10    4.90    1.10
   2   3  10    6.40    1.10
  -2  -3 -11    2.40    1.00
  -2  -3 -11    4.10    5.60
  -2  -3 -11    1.50    0.50
   2   3  11    2.50    1.10
   2   3  11    2.30    1.00
  -2  -3 -11    1.90    2.30
   2   3  12    6.00    0.90
  -2  -3 -12    4.30    0.60
  -2  -3 -12    5.70    0.80
   2   3  12    6.40    1.00
   2   3  12    5.60    0.80
  -2  -4  15    6.20    1.20
  -2  -4  15    2.00    0.80
  -2  -4  14   59.79    3.30
  -2  -4  14   58.89    3.10
  -2  -4  13   45.80    3.10
  -2  -4  13   44.20    2.90
  -2  -4  12   61.09    3.70
  -2  -4  12   55.69    3.40
  -2  -4  11  496.35   10.60
  -2  -4  11  461.75    9.10
  -2  -4  11  476.45   10.20
  -2  -4  10    3.10    1.00
  -2  -4  10   21.20    2.20
  -2  -4  10   16.20    1.80
   2   4 -10    1.00    1.50
  -2  -4  10    5.20    1.10
  -2  -4   9    4.70    2.10
   2   4  -9    2.70    1.60
   2   4  -8   82.59    6.30
  -2  -4   8   88.49    7.50
   2   4  -7  251.27   11.30
  -2  -4   7  255.37   12.10
  -2  -4   6  195.38    9.10
  -2  -4   6  193.38   10.00
   2   4  -6  188.68    9.20
   2   4  -5   10.90    2.10
  -2  -4   5   12.70    2.10
  -2  -4   5   16.00    3.10
  -2  -4   5   13.30    2.40
   2   4  -5   13.60    2.20
  -2  -4   4  964.00   19.00
  -2  -4   4  991.80   18.50
   2   4  -4 1032.40   21.90
   2   4  -4  950.70   21.50
  -2  -4   4 1032.30   22.30
  -2  -4   3  877.01   17.00
   2   4  -3  873.01   21.10
  -2  -4   3  882.01   17.20
   2   4  -3  934.81   22.20
  -2  -4   3  896.01   19.60
  -2  -4   2    1.60    1.30
   2   4  -2    1.50    2.00
  -2  -4   2    2.40    1.20
   2   4  -2    2.30    2.00
  -2  -4   1  784.82   16.10
   2   4  -1  797.62   22.60
  -2  -4   1  747.33   15.60
   2   4  -1  752.52   11.20
   2   4  -1  786.22   20.90
  -2  -4   0   69.39    4.60
   2   4   0   71.19    3.80
   2   4   0   74.69    6.60
   2   4   0   86.29    7.90
   2   4   1    7.90    3.50
   2   4   1    9.10    3.00
  -2  -4  -1    8.10    2.00
   2   4   1    7.10    1.60
  -2  -4  -1   14.30    4.70
  -2  -4  -2    9.00    2.10
   2   4   2    5.80    2.70
   2   4   2    6.00    1.90
   2   4   2    7.10    3.30
  -2  -4  -2   14.10    6.60
  -2  -4  -3    3.30    1.60
   2   4   3    3.00    2.80
   2   4   3    4.10    2.30
   2   4   3    3.50    1.80
  -2  -4  -3    6.40    6.80
  -2  -4  -4  477.55   15.10
   2   4   4  483.05   17.00
   2   4   4  501.95   18.60
  -2  -4  -5   24.50    3.50
   2   4   5   25.40    4.40
   2   4   5   31.60    4.80
   2   4   5   30.80    5.90
   2   4   6    1.80    0.90
  -2  -4  -6    3.50    9.80
  -2  -4  -6    3.00    1.10
   2   4   6    2.60    1.00
  -2  -4  -6    2.60    1.00
   2   4   6    4.00    1.20
  -2  -4  -6    3.90    1.10
   2   4   6    0.00    1.80
   2   4   6    3.40    1.10
   2   4   6    2.90    1.00
  -2  -4  -6   -0.10    1.10
  -2  -4  -7   28.00    2.40
  -2  -4  -7   29.50    2.60
  -2  -4  -7   29.50    2.50
   2   4   7   25.00    2.30
  -2  -4  -7   28.90    2.50
   2   4   7   28.20    2.50
   2   4   7   29.90    2.60
  -2  -4  -8   36.50    2.60
  -2  -4  -8   39.40    2.90
   2   4   8   36.40    2.80
   2   4   8   33.60    2.80
  -2  -4  -8   36.00    2.80
   2   4   8   31.80    2.50
  -2  -4  -8   38.70    2.70
   2   4   8   39.10    3.00
   2   4   9    0.80    1.20
   2   4   9    0.10    1.00
   2   4   9    0.50    1.10
  -2  -4  -9    1.50    1.20
  -2  -4  -9    0.60    0.80
   2   4   9    0.80    0.70
   2   4   9    1.60    0.90
  -2  -4  -9    0.70    0.80
   2   4  10    2.20    1.10
  -2  -4 -10    4.10    1.20
   2   4  10    4.40    1.10
   2   4  10    3.10    1.20
   2   4  10    1.70    0.80
  -2  -4 -10    2.00    0.70
   2   4  11    1.20    0.80
   2   4  11    0.10    0.60
  -2  -4 -11    1.40    0.80
  -2  -4 -11    0.70    0.60
   2   4  11    0.30    0.60
  -2  -5  15   57.59    3.10
  -2  -5  15   39.80    2.40
  -2  -5  14    1.50    1.10
  -2  -5  14   -1.40    1.20
  -2  -5  13    1.80    1.10
  -2  -5  13    4.90    1.40
  -2  -5  12    5.20    1.30
  -2  -5  12    8.30    1.50
  -2  -5  11   42.00    2.90
  -2  -5  11   75.49    3.70
  -2  -5  11   44.80    2.80
  -2  -5  11   37.50    2.80
  -2  -5  11   83.19    4.60
  -2  -5  10  243.28    6.70
  -2  -5  10  225.78    6.30
  -2  -5  10  197.98    5.50
   2   5 -10  190.48   10.90
  -2  -5  10  224.38    6.40
  -2  -5   9    1.10    1.60
   2   5  -9   -0.30    1.30
  -2  -5   8  288.17   14.30
   2   5  -8  277.67   12.80
  -2  -5   7   98.49    8.00
  -2  -5   7  104.39    7.40
   2   5  -7   88.79    6.40
   2   5  -7   94.69    7.10
  -2  -5   6  159.58    8.50
  -2  -5   6  157.28    9.60
   2   5  -6  143.99    8.40
   2   5  -6  152.48    8.90
  -2  -5   5   46.30    5.00
   2   5  -5   41.70    4.70
  -2  -5   5   43.50    3.70
  -2  -5   5   42.20    4.10
   2   5  -5   43.60    4.50
  -2  -5   4  119.49    7.50
  -2  -5   4  118.99    6.00
  -2  -5   4  118.09    6.40
   2   5  -4  107.99    7.70
   2   5  -4  122.19    8.10
  -2  -5   3  342.57   10.90
  -2  -5   3  370.66   10.90
   2   5  -3  367.06   15.10
   2   5  -3  364.86   14.60
  -2  -5   3  369.96   12.70
   2   5  -2    9.30    3.20
  -2  -5   2    7.70    1.90
   2   5  -2    9.70    3.30
  -2  -5   2    8.30    2.20
   2   5  -1   54.39    6.20
  -2  -5   1   51.29    4.30
  -2  -5   1   71.49    4.80
   2   5  -1   57.99    7.00
   2   5   0   12.70    3.70
   2   5   0   13.80    4.30
  -2  -5   0   10.70    2.20
  -2  -5   0   14.00    2.80
   2   5   1   99.89    8.70
   2   5   1   89.39    5.30
   2   5   1  105.39   10.10
  -2  -5  -1   95.69    6.20
   2   5   2  180.18   13.60
   2   5   2  176.18   11.50
  -2  -5  -2  168.08    8.70
   2   5   2  165.48    8.20
  -2  -5  -2  203.88   12.70
  -2  -5  -3   21.80    3.30
   2   5   3   21.50    5.60
   2   5   3   22.00    4.50
   2   5   3   25.50    3.80
  -2  -5  -3   35.30   10.60
   2   5   4   23.00    5.40
  -2  -5  -4   12.40    2.80
   2   5   4   17.90    3.60
   2   5   4   16.10    3.80
  -2  -5  -5   29.40    2.50
   2   5   5   28.20    2.20
  -2  -5  -5   27.90    2.40
   2   5   5   26.70    2.30
   2   5   5   26.50    2.20
   2   5   5   28.60    2.40
  -2  -5  -5   27.50    2.30
  -2  -5  -5   19.70    3.30
  -2  -5  -5   28.50    2.40
  -2  -5  -5   33.70    5.20
   2   5   5   29.10    2.40
   2   5   5   28.20    4.60
   2   5   6   89.69    4.30
  -2  -5  -6   89.39    4.30
   2   5   6   81.29    4.20
  -2  -5  -6   89.29    4.30
   2   5   6   84.99    4.20
  -2  -5  -6   92.29    4.40
   2   5   6   88.99    4.10
  -2  -5  -6   85.69    4.10
  -2  -5  -6   96.99    7.30
   2   5   7   -1.10    1.20
  -2  -5  -7    0.40    1.10
  -2  -5  -7    0.00    0.90
  -2  -5  -7   -3.00    2.30
   2   5   7   -0.30    1.00
   2   5   7   -0.20    0.80
   2   5   7   -0.10    1.10
  -2  -5  -7   -0.10    0.80
  -2  -5  -8    0.50    0.80
   2   5   8    0.50    0.90
   2   5   8    1.00    1.30
   2   5   8    0.90    1.20
  -2  -5  -8    0.90    0.90
   2   5   8    0.20    0.80
  -2  -5  -8    0.70    1.10
   2   5   8    1.10    1.10
   2   5   9    6.60    1.40
  -2  -5  -9    4.60    0.90
   2   5   9    5.30    1.30
   2   5   9    5.40    1.40
  -2  -5  -9    6.30    1.50
  -2  -5  -9    4.70    1.00
   2   5   9    5.10    1.20
   2   5   9    4.70    1.00
  -2  -5  -9    5.80    2.10
   2   5  10   -0.60    0.80
  -2  -5 -10   -0.20    0.70
   2   5  10   -0.20    0.70
   2   5  10    0.00    0.60
  -2  -5 -10    0.30    0.70
   2   5  11   -0.10    0.60
  -2  -5 -11    0.00    0.50
  -2  -6  16    5.90    1.50
  -2  -6  15   40.10    2.80
  -2  -6  15    3.80    0.80
  -2  -6  14   78.19    3.70
  -2  -6  14   80.19    5.30
  -2  -6  13   10.40    1.40
  -2  -6  13   15.60    2.00
  -2  -6  12    0.80    1.20
  -2  -6  12    4.40    1.30
  -2  -6  11  164.18    5.30
  -2  -6  11  173.88    5.70
  -2  -6  11  168.28    5.90
  -2  -6  11  164.88    5.30
  -2  -6  11  151.48    5.30
  -2  -6  11  159.38    5.50
  -2  -6  11  137.59    5.20
  -2  -6  11  189.98    6.50
  -2  -6  11  197.78    5.70
  -2  -6  10  259.97    6.60
  -2  -6  10  270.87    6.90
  -2  -6  10  238.38    6.70
  -2  -6  10  273.97    7.30
  -2  -6  10  232.08    5.90
  -2  -6  10  249.08    6.60
  -2  -6  10  239.78    6.90
  -2  -6  10  230.68    6.80
   2   6 -10  210.38   11.40
   2   6  -9   82.39    7.20
  -2  -6   9   79.19    3.50
   2   6  -9   70.79    6.50
  -2  -6   9   96.49    4.00
  -2  -6   9   95.09    3.80
  -2  -6   9   83.49    3.30
  -2  -6   9   84.79    3.70
   2   6  -8    5.90    2.20
  -2  -6   8    6.90    2.50
  -2  -6   8    3.60    2.20
   2   6  -7   53.59    5.70
  -2  -6   7   68.09    6.20
  -2  -6   7   69.19    7.10
   2   6  -7   61.89    6.30
  -2  -6   6    1.50    1.90
  -2  -6   6   -0.40    1.40
   2   6  -6   -0.90    1.40
  -2  -6   5  176.98    8.00
   2   6  -5  182.88   11.00
  -2  -6   5  198.38    9.30
  -2  -6   5  208.38   11.10
   2   6  -5  194.08   10.60
   2   6  -4    4.70    2.50
  -2  -6   4    2.00    1.40
   2   6  -4    4.20    2.50
  -2  -6   4    3.90    2.00
  -2  -6   4    2.50    1.60
  -2  -6   3  108.89    6.60
   2   6  -3  119.09    9.30
  -2  -6   3  113.49    6.40
   2   6  -3  117.09    9.60
   2   6  -2   11.40    3.60
  -2  -6   2   12.70    2.50
   2   6  -2   11.70    3.90
  -2  -6   1   64.39    5.20
   2   6  -1   67.89    7.70
   2   6  -1   69.89    8.40
   2   6   0  441.26   19.40
  -2  -6   0  430.56   14.30
   2   6   0  468.35   22.60
   2   6   1    6.90    4.20
   2   6   1    4.50    2.70
  -2  -6  -1    4.20    1.70
  -2  -6  -1    1.90    1.90
   2   6   2    1.90    3.40
   2   6   2    1.70    2.00
  -2  -6  -2    1.30    1.10
   2   6   3   21.40    1.80
   2   6   3   24.00    2.00
   2   6   3   22.90    2.00
   2   6   3   21.90    4.60
   2   6   3   23.70    2.10
  -2  -6  -3   21.70    2.00
  -2  -6  -3   20.20    3.50
  -2  -6  -3   23.80    2.20
   2   6   3   28.20    6.60
   2   6   3   23.20    1.90
  -2  -6  -3   21.50    1.80
   2   6   4    8.90    1.40
  -2  -6  -4    6.00    2.00
   2   6   4    7.70    3.50
  -2  -6  -4    9.30    1.50
   2   6   4    8.60    1.50
  -2  -6  -4   10.80    1.60
   2   6   4   11.00    1.60
  -2  -6  -4   12.10    4.00
  -2  -6  -4    9.20    1.70
   2   6   4    9.00    1.50
   2   6   4    8.70    1.40
   2   6   4    3.50    2.30
   2   6   5   23.00    2.30
   2   6   5   23.50    2.30
  -2  -6  -5   23.20    2.30
   2   6   5   22.30    2.20
  -2  -6  -5   20.60    2.30
  -2  -6  -5   24.60    2.30
   2   6   5   21.40    2.20
   2   6   6   -0.10    1.00
  -2  -6  -6    1.10    1.10
   2   6   6    0.20    1.10
  -2  -6  -6    0.80    1.10
  -2  -6  -6    0.10    1.00
   2   6   6    0.70    0.90
   2   6   6    1.20    1.10
  -2  -6  -7   12.70    1.80
   2   6   7    9.90    1.70
  -2  -6  -7    9.20    1.50
   2   6   7   11.50    1.70
  -2  -6  -7    9.70    1.50
   2   6   7   10.00    1.60
   2   6   7   11.00    1.80
   2   6   8    4.30    1.30
  -2  -6  -8    5.30    1.30
   2   6   8    3.40    1.20
   2   6   8    3.30    1.10
  -2  -6  -8    4.20    1.00
   2   6   8    4.40    1.30
   2   6   8    4.30    1.10
   2   6   9   29.90    2.00
   2   6   9   28.60    1.70
   2   6   9   29.00    1.90
   2   6   9   29.90    2.00
  -2  -6  -9   28.80    1.90
  -2  -6  -9   28.80    2.00
   2   6   9   29.50    2.00
  -2  -6 -10    5.40    0.80
  -2  -6 -10    5.50    0.70
   2   6  10    4.50    0.70
   2   6  10    5.40    0.80
  -2  -6 -10    5.10    0.80
  -2  -7  16   19.20    1.60
  -2  -7  15    7.20    1.90
  -2  -7  14  114.39    4.80
  -2  -7  14   56.39    5.30
  -2  -7  13    5.00    1.10
  -2  -7  13   54.19    3.60
  -2  -7  12    0.80    0.90
  -2  -7  12    0.70    0.90
  -2  -7  12    0.70    0.90
  -2  -7  12   -1.00    1.00
  -2  -7  11  307.17    7.70
  -2  -7  11  246.98    7.40
  -2  -7  11  333.47    7.30
  -2  -7  11  256.67    7.30
  -2  -7  11  286.37    7.00
  -2  -7  11  241.88    7.40
  -2  -7  11  318.07    8.10
  -2  -7  11  348.77    8.10
  -2  -7  10   27.00    2.90
  -2  -7  10    2.50    1.10
  -2  -7  10   25.40    2.40
  -2  -7  10    2.00    1.00
  -2  -7  10    1.40    1.00
  -2  -7  10   28.60    3.10
  -2  -7   9  162.88    4.90
  -2  -7   9  159.28    4.60
  -2  -7   9  181.58    5.40
  -2  -7   9  190.38    5.50
  -2  -7   9  147.89    5.40
  -2  -7   9  166.88    5.40
   2   7  -9  138.39    9.90
  -2  -7   8  212.78   12.00
  -2  -7   8  221.18    6.00
   2   7  -7   36.20    5.20
  -2  -7   7   43.80    5.20
  -2  -7   6   26.20    3.90
   2   7  -6   27.30    4.80
  -2  -7   5    2.20    1.50
   2   7  -5    5.80    2.80
  -2  -7   5    4.00    1.50
   2   7  -5    2.50    2.20
  -2  -7   4  159.68    8.10
  -2  -7   4  152.58    8.60
   2   7  -4  170.38   12.20
   2   7  -4  162.98   11.70
   2   7  -3   83.39    9.10
  -2  -7   3   72.79    5.60
   2   7  -3   79.49    8.50
  -2  -7   3   64.49    5.60
   2   7  -2  146.39   11.50
  -2  -7   2  135.49    7.90
   2   7  -2  143.79   12.50
   2   7  -1   20.40    5.70
   2   7  -1   20.00    4.90
  -2  -7   1   21.20    3.30
   2   7   0   -0.30    2.10
   2   7   0   -0.80    2.90
  -2  -7   0    1.10    1.40
   2   7   1    1.80    2.20
  -2  -7  -1    4.00    1.90
   2   7   1    2.40    3.00
  -2  -7  -2   75.99    4.40
   2   7   2   81.29    3.80
  -2  -7  -2   79.09    6.80
  -2  -7  -2   71.39    3.40
   2   7   2   83.89    3.50
   2   7   2   79.89    3.40
  -2  -7  -2   85.99    4.30
  -2  -7  -2   87.49    3.90
  -2  -7  -2   81.79    4.00
   2   7   2   82.79    3.80
   2   7   2   82.79    8.90
  -2  -7  -2   77.89    4.20
   2   7   2   84.39   11.00
  -2  -7  -3   28.40    2.40
   2   7   3   26.10    2.30
   2   7   3   24.00    4.70
  -2  -7  -3   23.60    3.80
   2   7   3   27.10    2.40
  -2  -7  -3   30.00    2.50
   2   7   3   27.10    2.40
   2   7   3   23.90    2.10
  -2  -7  -3   27.50    2.60
   2   7   3   32.80    6.90
   2   7   3   26.70    2.10
  -2  -7  -3   23.20    2.50
  -2  -7  -3   23.80    2.40
  -2  -7  -4   54.29    3.30
   2   7   4   50.69    3.20
   2   7   4   49.00    3.30
  -2  -7  -4   48.30    3.20
  -2  -7  -4   52.59    3.50
   2   7   4   51.89    3.40
   2   7   4   49.40    3.00
  -2  -7  -4   47.50    3.30
   2   7   5   39.60    3.00
   2   7   5   38.20    2.80
  -2  -7  -5   37.30    2.80
   2   7   5   40.20    3.00
   2   7   5   37.20    2.60
  -2  -7  -5   39.10    2.90
   2   7   5   38.60    2.70
  -2  -7  -5   40.50    3.10
  -2  -7  -6   17.10    2.00
  -2  -7  -6   15.80    1.90
   2   7   6   17.10    1.90
   2   7   6   17.80    2.10
   2   7   6   16.10    1.80
   2   7   6   15.40    1.90
  -2  -7  -7   90.39    3.80
  -2  -7  -7   86.29    4.00
   2   7   7   81.99    3.70
   2   7   7   88.09    3.80
  -2  -7  -7   76.09    3.40
   2   7   7   90.19    4.00
   2   7   7   86.09    3.60
  -2  -7  -8   53.49    2.70
  -2  -7  -8   41.60    2.00
   2   7   8   50.49    2.60
   2   7   8   55.09    2.60
  -2  -7  -8   50.69    2.50
   2   7   8   51.49    2.60
   2   7   8   50.79    2.40
   2   7   8   53.09    2.50
   2   7   9    0.20    0.50
  -2  -7  -9   -0.20    0.60
   2   7   9    0.40    0.60
  -2  -7  -9   -0.60    0.60
  -2  -7  -9   -0.10    0.40
  -2  -8  15   91.59    3.20
  -2  -8  15  107.09    3.90
  -2  -8  14   20.20    2.40
  -2  -8  14    5.60    4.50
  -2  -8  13   17.00    1.70
  -2  -8  13   20.00    1.80
  -2  -8  13   17.50    1.70
  -2  -8  12   62.69    3.50
  -2  -8  12   65.99    3.40
  -2  -8  12   62.69    3.50
  -2  -8  12  136.29    5.20
  -2  -8  12   -8.80    7.30
  -2  -8  11   20.80    2.20
  -2  -8  11   22.80    2.40
  -2  -8  11   21.70    2.20
  -2  -8  10  155.58    5.20
  -2  -8  10  157.18    5.40
  -2  -8  10   92.89    4.50
  -2  -8  10   73.69    4.00
  -2  -8  10   92.89    4.60
  -2  -8   9  343.07    7.50
  -2  -8   9  332.47    7.80
  -2  -8   9  316.67    8.20
  -2  -8   8  130.19    5.40
  -2  -8   8  128.29    4.20
  -2  -8   8  110.79    4.90
  -2  -8   8  143.49    4.70
  -2  -8   8  122.29    9.40
   2   8  -8  109.29    9.30
  -2  -8   7  298.07   14.20
  -2  -8   7  291.07    8.00
  -2  -8   6   34.00    4.60
   2   8  -6   28.20    5.10
  -2  -8   6   32.50    2.50
  -2  -8   6   38.70    3.00
  -2  -8   5   27.00    4.10
   2   8  -5   27.30    5.40
   2   8  -5   35.00    5.70
   2   8  -4   17.30    4.40
  -2  -8   4   14.90    3.10
   2   8  -4   20.00    4.80
  -2  -8   4   17.10    2.90
  -2  -8   3   73.49    6.10
  -2  -8   3   83.89    6.70
   2   8  -3   81.79    9.80
   2   8  -3   83.59    9.30
   2   8  -2    1.60    2.40
  -2  -8   2    0.30    1.10
   2   8  -2   -2.90    2.80
  -2  -8   1    2.00    1.10
  -2  -8   1    3.30    1.70
   2   8  -1    2.20    2.70
  -2  -8   1    1.00    1.00
   2   8  -1   -3.60    3.20
  -2  -8   1    1.80    1.10
  -2  -8   0   66.59    3.00
  -2  -8   0   85.09    3.90
  -2  -8   0   68.59    6.30
   2   8   0   71.39    3.40
   2   8   0   73.59    8.90
  -2  -8   0   69.69    3.20
   2   8   0   77.99    3.20
  -2  -8   0   79.69    4.20
   2   8   0   72.49   10.40
  -2  -8   0   71.79    4.30
  -2  -8   0   71.99    4.50
   2   8   1    8.80    1.50
  -2  -8  -1    7.20    2.30
  -2  -8  -1   10.70    1.40
   2   8   1    4.70    3.90
  -2  -8  -1   12.90    1.70
   2   8   1    9.90    1.40
  -2  -8  -1   10.20    1.80
  -2  -8  -1    7.60    1.70
   2   8   1   11.50    1.70
  -2  -8  -1    9.60    1.40
  -2  -8  -1    9.20    1.80
  -2  -8  -1    9.50    1.50
   2   8   1    7.80    3.30
  -2  -8  -2   31.50    2.50
   2   8   2   29.40    2.50
  -2  -8  -2   36.50    2.50
   2   8   2   28.30    2.20
   2   8   2   32.80    2.60
   2   8   2   32.40    2.70
  -2  -8  -2   28.70    2.70
  -2  -8  -2   30.40    2.80
  -2  -8  -2   33.40    2.70
  -2  -8  -2   25.80    2.20
   2   8   3    5.10    1.10
   2   8   3    4.50    1.50
   2   8   3    5.00    1.40
  -2  -8  -3    6.30    1.50
  -2  -8  -3    5.10    1.30
   2   8   3    5.10    1.40
  -2  -8  -3    6.10    1.50
  -2  -8  -3    4.80    1.40
   2   8   4   37.40    2.90
  -2  -8  -4   36.10    2.60
   2   8   4   39.20    2.90
  -2  -8  -4   37.40    3.00
   2   8   4   38.40    2.90
  -2  -8  -4   35.50    2.60
   2   8   4   35.90    2.50
   2   8   4   37.90    2.70
  -2  -8  -4   39.00    3.00
  -2  -8  -5   61.19    3.50
   2   8   5   61.79    3.50
   2   8   5   58.79    3.00
  -2  -8  -5   71.39    3.30
   2   8   5   52.49    2.90
   2   8   5   57.29    3.10
  -2  -8  -5   66.69    3.40
   2   8   5   61.69    3.50
  -2  -8  -5   57.69    3.40
  -2  -8  -6   31.50    2.20
   2   8   6   30.00    2.40
  -2  -8  -6   33.00    2.40
  -2  -8  -6   33.20    2.10
   2   8   6   27.50    2.00
  -2  -8  -6   27.30    2.10
   2   8   6   32.20    2.40
   2   8   6   29.50    2.00
   2   8   7    3.50    0.80
  -2  -8  -7    2.90    0.80
  -2  -8  -7    4.40    0.80
   2   8   7    3.60    0.90
  -2  -8  -7    4.20    1.00
  -2  -8  -7    3.20    0.90
   2   8   7    3.30    0.80
   2   8   7    4.10    1.00
   2   8   7    4.60    1.10
  -2  -8  -8   -0.10    0.60
   2   8   8    0.90    0.60
   2   8   8   -0.30    0.70
  -2  -8  -8   -0.20    0.50
  -2  -9  15   18.00    2.40
  -2  -9  14   24.10    3.40
  -2  -9  14   30.90    2.20
  -2  -9  13    0.70    0.80
  -2  -9  13   -1.70    1.70
  -2  -9  13    0.40    0.80
  -2  -9  13    1.40    0.90
  -2  -9  12   65.79    3.50
  -2  -9  12   54.99    4.80
  -2  -9  12   63.49    3.20
  -2  -9  12   60.69    3.40
  -2  -9  12   61.69    3.30
  -2  -9  11    0.80    1.00
  -2  -9  11   -0.80    1.60
  -2  -9  11    0.50    0.90
  -2  -9  11    0.70    1.10
  -2  -9  10   -2.40    4.10
  -2  -9  10    1.00    1.10
  -2  -9  10   -3.70    1.80
  -2  -9  10    1.20    1.00
  -2  -9  10    0.70    1.00
  -2  -9   9   11.10    3.90
  -2  -9   9    7.20    1.50
  -2  -9   9    6.50    1.50
  -2  -9   8    5.90    1.40
  -2  -9   8   12.00    3.70
  -2  -9   7  151.28    6.00
   2   9  -7  142.49   11.60
  -2  -9   7  168.48    6.20
   2   9  -6   54.79    7.60
  -2  -9   6   70.69    4.00
  -2  -9   6   61.39    6.50
  -2  -9   6   63.29    3.50
  -2  -9   5   93.49    4.30
  -2  -9   5   78.19    7.00
  -2  -9   5   89.69    4.40
  -2  -9   5   91.99    4.70
  -2  -9   4    0.00    0.80
  -2  -9   4    0.20    0.60
   2   9  -4    0.70    2.70
  -2  -9   4    2.00    1.70
  -2  -9   4   -0.40    0.90
  -2  -9   4    0.00    1.00
  -2  -9   3  359.26    9.10
   2   9  -3  291.97   18.00
  -2  -9   3  308.87   13.70
   2   9  -3  306.37   20.00
  -2  -9   3  331.27    8.70
  -2  -9   3  324.17    9.40
  -2  -9   3  264.97    6.30
  -2  -9   3  262.87   12.10
  -2  -9   2  144.69    4.60
   2   9  -2  145.99   12.80
  -2  -9   2  137.79    4.30
   2   9  -2  160.48   14.90
  -2  -9   2  151.18    5.90
  -2  -9   2  164.48    6.70
  -2  -9   2  136.49    8.80
  -2  -9   1    1.60    0.80
  -2  -9   1    2.80    0.90
   2   9  -1    2.00    0.90
  -2  -9   1    1.90    1.30
  -2  -9   1    2.30    1.30
  -2  -9   0   51.29    3.10
   2   9   0   45.40    2.60
  -2  -9   0   40.40    2.60
   2   9   0   46.10    2.90
   2   9   0   51.69    3.10
  -2  -9   0   46.70    3.40
  -2  -9   0   48.70    3.70
   2   9   1   35.20    2.60
  -2  -9  -1   38.10    2.80
  -2  -9  -1   36.00    3.20
  -2  -9  -1   32.60    2.90
  -2  -9  -1   38.50    2.40
  -2  -9  -1   36.20    2.50
   2   9   1   31.20    2.20
   2   9   1   36.50    2.70
  -2  -9  -2   55.69    3.70
  -2  -9  -2   57.29    3.40
  -2  -9  -2   58.69    3.00
   2   9   2   57.59    3.60
  -2  -9  -2   53.09    3.60
   2   9   2   54.79    3.40
   2   9   2   51.69    3.20
  -2  -9  -2   55.99    3.20
  -2  -9  -3    0.10    0.70
   2   9   3    0.70    1.10
  -2  -9  -3    0.80    0.90
  -2  -9  -3    0.80    1.20
   2   9   3    1.40    1.20
   2   9   3    1.20    1.10
  -2  -9  -3    0.30    0.90
  -2  -9  -3    1.50    1.10
   2   9   4    0.70    1.10
   2   9   4    1.50    0.80
   2   9   4    0.20    1.10
  -2  -9  -4    0.50    0.90
  -2  -9  -4    1.30    1.10
  -2  -9  -4    1.30    0.80
  -2  -9  -4    0.60    0.70
   2   9   4    1.00    1.20
  -2  -9  -4    0.20    0.90
   2   9   4    0.80    0.80
   2   9   5    3.50    1.20
  -2  -9  -5    4.10    1.10
  -2  -9  -5    2.20    0.80
   2   9   5    3.20    0.80
   2   9   5    3.60    1.10
  -2  -9  -5    3.50    1.10
  -2  -9  -5    3.10    0.80
   2   9   5    4.30    0.90
  -2  -9  -6   19.20    1.40
   2   9   6   19.90    1.70
  -2  -9  -6   19.10    1.20
   2   9   6   17.70    1.30
   2   9   6   20.10    1.70
   2   9   6   19.60    1.60
  -2  -9  -6   21.00    1.60
  -2  -9  -7    4.50    0.70
   2   9   7    5.00    0.80
   2   9   7    4.90    0.80
  -2 -10  14   18.90    2.90
  -2 -10  13    6.40    1.10
  -2 -10  13   10.50    3.60
  -2 -10  13    7.20    1.20
  -2 -10  13    5.30    1.00
  -2 -10  13    6.10    3.70
  -2 -10  12    1.70    4.10
  -2 -10  12    1.40    1.00
  -2 -10  12    0.20    0.80
  -2 -10  12    0.70    1.00
  -2 -10  11    0.00    1.00
  -2 -10  11    2.70    4.40
  -2 -10  11    0.30    1.10
  -2 -10  11    0.00    0.90
  -2 -10  10    0.00    1.10
  -2 -10  10    0.10    1.10
  -2 -10  10   -4.80    3.30
  -2 -10  10   -0.20    1.00
  -2 -10  10    2.40    4.30
  -2 -10   9    6.50    1.50
  -2 -10   9    7.30    1.60
  -2 -10   9    2.40    4.20
  -2 -10   8   82.89    5.10
  -2 -10   8   93.19    4.50
  -2 -10   8   96.09    4.80
  -2 -10   7   48.30    3.10
  -2 -10   7   46.40    3.40
  -2 -10   6   32.50    2.50
  -2 -10   6   34.30    2.70
  -2 -10   6   31.80    2.80
  -2 -10   6   35.30    3.00
  -2 -10   5   14.10    1.60
  -2 -10   5   14.10    1.90
  -2 -10   5   14.90    2.00
  -2 -10   5   16.60    2.20
  -2 -10   4    2.50    1.10
  -2 -10   4    1.70    0.80
  -2 -10   4    2.20    1.30
  -2 -10   4    0.80    1.00
  -2 -10   3    2.70    1.40
  -2 -10   3    3.00    1.00
  -2 -10   3    2.40    0.80
  -2 -10   3    3.50    1.30
  -2 -10   3    3.30    1.30
  -2 -10   2    8.00    1.70
  -2 -10   2   11.50    1.90
  -2 -10   2    7.90    1.80
  -2 -10   2    6.50    1.10
  -2 -10   1  197.08    7.40
  -2 -10   1  181.38    6.70
  -2 -10   1  191.38    6.40
   2  10  -1  180.28    5.40
   2  10  -1  185.18    5.80
  -2 -10   0    4.10    1.10
   2  10   0    2.00    1.00
   2  10   0    2.70    1.10
  -2 -10   0    2.90    1.30
  -2 -10   0    4.20    1.60
  -2 -10  -1   31.70    2.20
  -2 -10  -1   32.30    2.40
   2  10   1   30.00    2.30
  -2 -10  -1   32.20    2.90
   2  10   1   27.70    2.40
  -2 -10  -1   31.30    2.80
   2  10   1   30.50    2.70
  -2 -10  -2    0.40    0.70
  -2 -10  -2    0.40    0.80
  -2 -10  -2   -0.80    1.20
  -2 -10  -2    0.50    0.90
  -2 -10  -2    0.00    0.60
   2  10   2    0.40    1.10
   2  10   2   -0.40    1.10
   2  10   2   -0.10    0.90
  -2 -10  -3    4.70    1.00
   2  10   3    4.20    0.90
  -2 -10  -3    5.50    0.90
   2  10   3    4.80    1.20
  -2 -10  -3    6.40    1.20
  -2 -10  -3    4.40    0.80
   2  10   3    4.20    1.30
   2  10   3    4.20    1.20
  -2 -10  -3    4.80    1.10
   2  10   3    6.80    1.30
   2  10   4   37.70    2.40
  -2 -10  -4   37.00    2.10
   2  10   4   34.90    2.20
  -2 -10  -4   34.90    1.70
  -2 -10  -4   35.60    1.90
   2  10   4   38.20    2.10
  -2 -10  -5   -0.20    0.50
  -2 -10  -5    0.10    0.60
  -2 -10  -5    0.00    0.60
   2  10   5   -0.20    0.70
   2  10   5   -0.10    0.70
   2  10   5   -0.10    0.60
  -2 -11  13   23.70    1.70
  -2 -11  13   22.70    1.50
  -2 -11  12   91.69    3.70
  -2 -11  12   76.09    4.50
  -2 -11  12   81.29    3.30
  -2 -11  12   87.49    3.70
  -2 -11  11    2.30    1.20
  -2 -11  11    4.40    2.50
  -2 -11  11    2.10    1.00
  -2 -11  11    2.30    1.20
  -2 -11  10   39.80    2.80
  -2 -11  10   40.00    3.00
  -2 -11  10   40.70    2.90
  -2 -11   9    8.90    1.70
  -2 -11   9    8.20    1.70
  -2 -11   9    8.10    1.60
  -2 -11   8   43.80    3.20
  -2 -11   8   45.20    3.00
  -2 -11   7   56.19    3.20
  -2 -11   7   53.49    3.60
  -2 -11   6   -0.10    0.80
  -2 -11   6   -0.10    1.10
  -2 -11   6    0.00    1.00
  -2 -11   5    0.40    1.00
  -2 -11   5    2.00    1.10
  -2 -11   5    0.90    1.10
  -2 -11   4   18.90    1.80
  -2 -11   4   20.60    2.30
  -2 -11   4   21.90    2.30
  -2 -11   4   20.10    2.50
  -2 -11   3  102.29    4.70
  -2 -11   3  109.59    5.00
  -2 -11   3   98.19    3.90
   2  11  -3   98.49    3.80
  -2 -11   3  110.09    5.50
  -2 -11   2   -0.70    0.80
  -2 -11   2   -0.20    1.10
   2  11  -2   -0.10    0.80
  -2 -11   2    0.40    1.00
  -2 -11   2   -0.30    1.20
   2  11  -1  107.09    4.50
  -2 -11   1   96.09    4.20
  -2 -11   1  110.39    5.30
  -2 -11   1  107.19    4.90
   2  11  -1   95.89    3.90
   2  11   0   -0.30    0.80
  -2 -11   0   -0.10    0.80
   2  11   0    0.90    1.10
  -2 -11   0   -0.10    1.10
   2  11   0   -0.10    0.90
  -2 -11   0    0.30    1.20
   2  11   1    0.40    0.70
  -2 -11  -1    1.00    1.00
  -2 -11  -1    0.70    0.60
   2  11   1    1.20    1.10
   2  11   1    0.30    0.80
  -2 -11  -1    1.30    1.00
   2  11   1    0.70    1.00
  -2 -11  -2   22.00    1.90
   2  11   2   22.50    1.90
   2  11   2   20.50    1.60
  -2 -11  -2   16.60    1.30
   2  11   2   21.50    1.90
  -2 -11  -2   23.90    1.90
   2  11   2   20.40    1.40
   2  11   3    1.90    0.80
   2  11   3    1.10    0.60
   2  11   3    1.50    0.70
  -2 -11  -3    0.10    0.50
  -2 -11  -3    1.50    0.80
  -2 -11  -4   17.20    1.20
   2  11   4   19.80    1.30
   2  11   4   21.10    1.30
  -2 -12  13   10.10    0.90
  -2 -12  12  161.88    4.20
  -2 -12  12  170.18    4.60
  -2 -12  11    3.10    1.10
  -2 -12  11    3.20    1.00
  -2 -12  11    3.10    1.10
  -2 -12  10   19.20    1.90
  -2 -12  10   20.10    1.90
  -2 -12  10   19.10    2.00
  -2 -12   9   66.89    3.30
  -2 -12   9   61.59    3.40
  -2 -12   9   66.79    3.50
  -2 -12   8    1.50    1.10
  -2 -12   8    0.90    0.90
  -2 -12   8    1.50    1.20
  -2 -12   7   25.50    2.40
  -2 -12   7   26.10    2.00
  -2 -12   6   50.89    3.30
  -2 -12   6   58.79    3.40
  -2 -12   5   41.80    2.90
  -2 -12   5   37.80    2.70
  -2 -12   5   40.20    3.00
  -2 -12   4    3.40    1.20
  -2 -12   4    2.40    1.20
  -2 -12   4    2.40    1.30
  -2 -12   3    1.40    1.00
  -2 -12   3    1.60    0.70
  -2 -12   3    1.30    0.90
  -2 -12   3    0.50    1.20
  -2 -12   2   11.10    1.20
   2  12  -2   10.40    1.20
  -2 -12   2    9.60    1.40
  -2 -12   2   11.60    1.70
  -2 -12   2   10.80    1.80
   2  12  -2   10.60    1.50
  -2 -12   1    5.30    0.90
  -2 -12   1    5.30    1.00
   2  12  -1    6.20    1.00
   2  12  -1    7.10    1.30
  -2 -12   1    6.30    1.50
  -2 -12   1    7.10    1.40
  -2 -12   0    4.80    1.10
   2  12   0    5.10    1.00
  -2 -12   0    3.10    0.70
  -2 -12   0    3.80    0.70
   2  12   0    4.80    1.10
  -2 -12   0    5.30    1.20
   2  12   0    5.20    1.20
   2  12   1   -0.20    0.50
  -2 -12  -1    0.40    0.70
  -2 -12  -1    0.30    0.70
   2  12   1   -0.30    0.70
   2  12   1   -0.70    0.80
  -2 -12  -2   -0.10    0.60
   2  12   2    0.20    0.50
   2  12   2    0.50    0.60
   2  12   2   -0.10    0.60
  -2 -13  12   10.30    0.90
  -2 -13  11    0.50    0.70
  -2 -13  11   -0.30    0.60
  -2 -13  10   22.70    1.70
  -2 -13  10   22.80    1.70
  -2 -13   9    2.80    0.90
  -2 -13   9    2.80    1.00
  -2 -13   8  119.99    4.00
  -2 -13   8  133.89    4.40
  -2 -13   7    6.90    1.00
  -2 -13   7    6.60    1.20
  -2 -13   6    5.80    0.90
  -2 -13   6    6.40    1.20
  -2 -13   6    7.90    1.20
  -2 -13   5   25.70    2.00
  -2 -13   5   28.00    2.10
   2  13  -5   26.10    1.70
   2  13  -4    9.70    1.20
  -2 -13   4    9.10    1.20
  -2 -13   4   11.20    1.50
  -2 -13   3   27.30    1.90
  -2 -13   3   23.60    1.70
  -2 -13   3   29.60    2.20
   2  13  -3   25.90    1.70
  -2 -13   2   28.20    1.90
  -2 -13   2   31.30    2.10
   2  13  -2   25.60    1.70
   2  13  -2   29.20    1.90
   2  13  -1   26.40    1.70
  -2 -13   1   25.10    1.60
  -2 -13   1   26.90    1.80
   2  13  -1   21.90    1.40
   2  13  -1   23.50    1.50
  -2 -13   0    3.10    0.70
  -2 -13   0    3.50    0.70
   2  13   0    3.30    0.70
   2  13   0    3.10    0.70
  -2 -14   9    1.60    0.60
  -2 -14   8    2.80    0.70
  -2 -14   7   17.40    1.20
  -2 -14   6    7.40    0.90
  -2 -14   5   41.70    1.70
   2  14  -5   33.30    1.40
   2  14  -4   10.20    0.90
  -2 -14   4   13.60    1.10
  -3  15  -5   23.50    1.40
   3 -15   5   22.40    1.10
   3 -15   6    5.60    0.70
  -3  14   0    6.40    0.90
  -3  14   0    5.70    0.90
   3 -14   0    4.60    0.70
  -3  14  -1   36.30    1.70
   3 -14   1   37.30    1.70
  -3  14  -1   39.60    2.00
  -3  14  -1   44.90    2.20
   3 -14   1   37.80    1.70
  -3  14  -1   42.10    2.00
   3 -14   2   12.60    1.20
  -3  14  -2   12.60    1.20
  -3  14  -2   13.40    1.50
   3 -14   2   12.00    1.20
  -3  14  -2   14.30    1.30
   3 -14   3    4.40    0.90
  -3  14  -3    4.10    0.90
  -3  14  -3    4.60    0.80
  -3  14  -3    4.50    1.10
   3 -14   3    4.40    0.90
   3 -14   4    5.50    1.00
   3 -14   4    6.30    1.10
  -3  14  -4    6.10    1.00
  -3  14  -4    5.60    1.10
  -3  14  -5   10.30    1.00
   3 -14   5   11.10    1.30
  -3  14  -5   11.90    1.30
  -3  14  -6   18.00    1.30
   3 -14   6   18.00    1.50
   3 -14   7   65.79    2.70
   3 -14   8   19.20    1.50
   3 -14   9   25.00    1.50
   3 -14  10    0.30    0.60
  -3  13   2    0.50    0.80
  -3  13   2    1.20    0.70
   3 -13  -2    0.40    0.50
  -3  13   2    0.20    0.80
  -3  13   2    0.60    0.60
   3 -13  -2    0.20    0.50
   3 -13  -1   31.80    1.80
  -3  13   1   35.70    2.10
  -3  13   1   37.80    2.30
   3 -13  -1   28.50    1.70
  -3  13   1   35.90    2.20
  -3  13   1   34.50    2.00
  -3  13   0    1.60    1.00
   3 -13   0    0.30    0.70
  -3  13   0    0.20    0.70
  -3  13   0    1.00    0.80
   3 -13   0    0.80    0.70
  -3  13   0    1.00    1.00
  -3  13   0    0.20    0.90
   3 -13   1   17.40    1.70
  -3  13  -1   18.00    1.90
   3 -13   1   16.70    1.60
  -3  13  -1   19.80    1.70
  -3  13  -1   17.60    1.80
  -3  13  -2    3.80    1.10
  -3  13  -2    4.40    1.20
   3 -13   2    3.40    1.10
  -3  13  -2    3.50    0.90
   3 -13   2    2.90    1.10
   3 -13   3    9.50    1.40
  -3  13  -3    9.40    1.40
   3 -13   3    9.00    1.50
  -3  13  -3    9.70    1.50
  -3  13  -4   10.30    1.40
   3 -13   4    9.30    1.40
   3 -13   4   11.80    1.70
  -3  13  -5    0.60    0.80
   3 -13   5    0.40    1.10
   3 -13   5    1.00    1.00
   3 -13   5    0.50    0.60
   3 -13   6   76.59    3.70
   3 -13   6   70.49    2.80
   3 -13   7    6.40    1.40
   3 -13   7    6.50    0.90
   3 -13   8   22.70    1.60
   3 -13   8   21.30    1.90
   3 -13   9   68.29    2.70
   3 -13   9   63.59    3.00
   3 -13  10    0.00    0.70
   3 -13  10    1.60    0.70
   3 -13  11   46.10    2.10
   3 -13  12   20.90    1.20
   3 -12  -4   -0.50    0.50
  -3  12   4    0.80    0.70
   3 -12  -4   -0.20    0.50
  -3  12   3   17.30    1.40
   3 -12  -3   16.20    1.40
  -3  12   3   16.80    1.70
  -3  12   3   13.00    1.10
  -3  12   3   18.30    1.60
  -3  12   3   18.80    1.70
   3 -12  -2   21.60    1.80
  -3  12   2   21.60    2.20
  -3  12   2   22.50    2.00
  -3  12   2   22.00    2.00
  -3  12   2   21.90    2.00
  -3  12   1   19.80    2.10
   3 -12  -1   19.60    1.90
  -3  12   1   18.60    2.20
  -3  12   1   17.90    1.90
   3 -12   0   27.80    2.30
   3 -12   0   33.60    2.50
   3 -12   0   26.50    2.10
  -3  12   0   34.50    2.90
  -3  12   0   31.30    2.40
  -3  12   0   32.60    2.70
   3 -12   1    0.10    1.00
  -3  12  -1   -0.20    1.10
   3 -12   1    0.70    1.00
   3 -12   1    0.70    1.20
  -3  12  -1    1.10    0.90
  -3  12  -2   18.50    2.10
   3 -12   2   17.90    2.00
  -3  12  -2   17.80    1.80
   3 -12   2   17.90    2.10
   3 -12   2   17.90    2.30
   3 -12   3    1.50    1.10
   3 -12   3    2.20    1.30
   3 -12   3    2.20    1.30
   3 -12   4   32.30    2.70
   3 -12   4   33.70    2.70
   3 -12   5    2.20    1.30
   3 -12   5   -0.10    1.00
   3 -12   6    0.80    0.60
   3 -12   6    1.00    0.80
   3 -12   6    0.80    1.20
   3 -12   6    1.20    0.90
   3 -12   6    0.50    1.00
   3 -12   7   93.19    3.70
   3 -12   7  101.39    4.00
   3 -12   7   99.39    4.50
   3 -12   7   94.79    3.80
   3 -12   8   29.20    2.50
   3 -12   8   27.40    2.10
   3 -12   8   27.60    2.00
   3 -12   9  109.59    4.50
   3 -12   9  113.29    4.20
   3 -12   9  105.69    3.60
   3 -12  10   26.80    2.20
   3 -12  10   32.10    2.20
   3 -12  10   28.20    1.60
   3 -12  11    0.90    0.80
   3 -12  11    1.60    0.80
   3 -12  12    1.10    0.80
   3 -12  12   37.20    1.60
   3 -12  13   12.40    1.00
   3 -11  -5    4.50    0.80
  -3  11   5    5.20    1.00
  -3  11   5    5.10    0.80
   3 -11  -5    3.20    0.60
  -3  11   4   -0.40    0.90
  -3  11   4    0.40    0.70
  -3  11   4   -0.60    1.00
  -3  11   4   -0.50    1.00
   3 -11  -4    0.00    0.70
  -3  11   4    0.20    0.70
   3 -11  -4   -0.50    0.60
   3 -11  -3    2.30    1.00
  -3  11   3    2.90    1.20
  -3  11   3    1.90    1.00
  -3  11   3    2.60    1.30
  -3  11   3    1.80    0.90
   3 -11  -3    2.40    0.80
  -3  11   3    2.20    1.20
  -3  11   2    1.20    1.20
   3 -11  -2    1.80    1.10
   3 -11  -2    0.30    0.70
  -3  11   2    1.70    0.80
   3 -11  -2    1.30    0.80
  -3  11   2    1.10    1.20
  -3  11   2   -0.40    1.30
   3 -11  -1   14.00    1.80
   3 -11  -1   16.00    2.10
   3 -11  -1   12.60    1.60
   3 -11  -1   15.60    1.60
  -3  11   1   15.10    2.00
  -3  11   1   16.10    2.10
   3 -11   0   14.10    1.80
   3 -11   0   15.20    1.90
  -3  11   0   15.30    2.00
   3 -11   0   16.80    2.30
   3 -11   0   16.30    1.70
  -3  11   0   16.60    2.30
   3 -11   1    0.90    1.00
   3 -11   1    1.40    1.00
   3 -11   1    1.50    1.20
   3 -11   1    1.20    0.80
  -3  11  -1    1.20    1.00
   3 -11   2    4.20    1.30
  -3  11  -2    5.30    1.30
   3 -11   2    5.30    1.40
   3 -11   2    4.40    1.40
   3 -11   2    6.10    1.60
   3 -11   3   17.80    2.10
   3 -11   3   15.00    2.00
   3 -11   3   16.70    2.20
   3 -11   4   90.69    4.50
   3 -11   4   92.79    4.50
   3 -11   4   99.39    4.90
   3 -11   5    7.90    1.60
   3 -11   5    9.10    1.60
   3 -11   6   32.00    2.40
   3 -11   6   31.00    2.30
   3 -11   6   31.10    2.70
   3 -11   6   32.50    2.50
   3 -11   6   35.00    2.80
   3 -11   7    6.80    1.30
   3 -11   7    6.80    1.50
   3 -11   7    7.30    1.30
   3 -11   7    6.80    1.40
   3 -11   8  129.09    5.30
   3 -11   8  138.89    5.30
   3 -11   8  123.69    4.70
   3 -11   8  135.99    5.00
   3 -11   8  116.09    3.90
   3 -11   9   16.20    1.70
   3 -11   9   22.80    2.40
   3 -11   9   20.00    2.00
   3 -11   9   15.50    1.50
   3 -11   9   17.80    2.10
   3 -11  10    9.50    1.50
   3 -11  10    7.40    1.50
   3 -11  10    7.50    1.20
   3 -11  10    8.90    1.30
   3 -11  11    8.60    1.40
   3 -11  11    6.10    1.30
   3 -11  11    6.90    1.00
   3 -11  11    7.60    1.10
   3 -11  12    3.50    1.00
   3 -11  12    9.20    1.20
   3 -11  13   43.60    2.00
   3 -11  13   12.40    1.30
   3 -10  -7   18.10    1.10
  -3  10   7   19.50    1.30
  -3  10   6   31.60    1.90
   3 -10  -6   30.40    1.80
  -3  10   6   33.30    2.00
  -3  10   6   32.80    2.00
  -3  10   5    1.20    1.00
  -3  10   5    1.70    1.20
  -3  10   5    1.40    1.10
   3 -10  -5    0.60    0.80
  -3  10   5    1.90    0.90
  -3  10   5    0.90    0.80
  -3  10   4    0.70    1.20
   3 -10  -4    0.80    1.00
   3 -10  -4   -0.10    1.00
  -3  10   4   -0.30    0.70
  -3  10   4    1.00    0.90
  -3  10   4    0.60    0.90
  -3  10   4    0.30    1.10
  -3  10   4   -0.30    1.30
   3 -10  -3    4.00    0.90
  -3  10   3    5.50    1.70
  -3  10   3    5.70    1.60
  -3  10   3    4.20    1.10
   3 -10  -3    4.50    1.40
  -3  10   3    5.70    1.30
   3 -10  -3    3.80    1.30
  -3  10   3    5.80    1.50
  -3  10   2    9.00    1.80
   3 -10  -2   10.20    1.70
   3 -10  -2   10.00    1.80
   3 -10  -2    9.00    1.40
  -3  10   2    9.20    1.50
  -3  10   2   10.30    1.90
  -3  10   1   93.59    4.70
   3 -10  -1   93.39    4.40
  -3  10   1   83.59    3.80
   3 -10  -1   81.69    4.00
   3 -10  -1   91.49    4.70
  -3  10   1   91.79    4.60
   3 -10   0   12.90    1.80
  -3  10   0   13.30    1.90
   3 -10   0    9.10    1.60
   3 -10   0   13.40    1.70
   3 -10   0   12.90    2.00
   3 -10   1    4.70    1.30
   3 -10   1    3.70    1.20
   3 -10   1    5.10    1.50
   3 -10   1    5.80    1.20
  -3  10  -1    3.80    1.20
  -3  10  -2  260.27    7.10
   3 -10   2  282.37    8.50
   3 -10   2  256.67    7.80
   3 -10   2  272.27    7.70
   3 -10   2  288.07    7.30
   3 -10   3    2.60    1.20
   3 -10   3    2.80    1.20
   3 -10   3    3.90    1.20
   3 -10   3    4.40    1.30
   3 -10   3    4.90    1.20
   3 -10   4  149.29    5.70
   3 -10   4  152.88    5.70
   3 -10   4  163.68    6.20
   3 -10   4  160.88    5.30
   3 -10   5   42.60    2.60
   3 -10   5   41.30    3.00
   3 -10   5   49.60    3.30
   3 -10   5   42.70    3.10
   3 -10   5   40.20    2.60
   3 -10   6  157.68    6.00
   3 -10   6  161.28    5.40
   3 -10   6  159.68    5.90
   3 -10   6  164.98    5.50
   3 -10   7   74.99    3.90
   3 -10   7   68.49    3.90
   3 -10   7   71.19    3.60
   3 -10   7   63.59    3.50
   3 -10   8    2.90    1.40
   3 -10   8    0.70    1.00
   3 -10   8    0.40    1.10
   3 -10   8    0.90    0.90
   3 -10   9   24.50    2.20
   3 -10   9   28.70    2.70
   3 -10   9   27.00    2.60
   3 -10   9   31.20    2.60
   3 -10  10   15.10    2.00
   3 -10  10   11.30    1.80
   3 -10  10   10.30    1.20
   3 -10  10   10.00    1.40
   3 -10  10    9.60    1.40
   3 -10  11   76.29    3.80
   3 -10  11   65.59    2.70
   3 -10  11   66.59    3.20
   3 -10  11   74.19    3.40
   3 -10  12    4.80    1.20
   3 -10  12    4.10    1.10
   3 -10  13    2.70    1.00
   3 -10  13    8.20    1.30
   3  -9  -8    2.80    0.60
  -3   9   8    4.30    0.90
  -3   9   8    3.70    0.90
   3  -9  -7   37.40    2.10
  -3   9   7   45.60    2.50
   3  -9  -7   43.90    2.20
  -3   9   7   46.40    2.60
  -3   9   7   42.20    2.20
  -3   9   6    1.60    1.20
  -3   9   6    2.80    1.10
   3  -9  -6    2.00    0.90
  -3   9   6    1.90    1.00
  -3   9   6    2.40    1.10
   3  -9  -6    2.10    1.00
  -3   9   6    2.10    1.10
   3  -9  -5   45.80    2.90
  -3   9   5   49.80    3.00
  -3   9   5   48.00    3.40
   3  -9  -5   50.49    3.00
  -3   9   5   49.30    3.30
  -3   9   5   44.60    2.90
  -3   9   5   47.60    3.20
  -3   9   5   49.60    3.40
  -3   9   4   11.90    1.90
  -3   9   4   12.80    2.00
   3  -9  -4   11.20    1.70
  -3   9   4   12.00    1.60
   3  -9  -4   12.40    1.80
  -3   9   4   13.20    2.00
  -3   9   4   13.30    1.80
  -3   9   4   11.10    1.60
  -3   9   4   13.10    1.90
   3  -9  -4   12.60    1.90
   3  -9  -3    3.40    1.30
   3  -9  -3    3.20    1.30
  -3   9   3    3.30    1.30
  -3   9   3    3.70    1.10
   3  -9  -3    2.60    1.10
  -3   9   3    4.30    1.20
   3  -9  -3    3.10    1.20
  -3   9   3    4.30    1.40
   3  -9  -2   76.79    4.00
  -3   9   2   79.59    4.30
   3  -9  -2   67.99    3.50
   3  -9  -2   81.49    4.00
   3  -9  -2   71.59    4.00
  -3   9   2   72.69    3.70
   3  -9  -2   76.59    4.20
  -3   9   2   74.19    4.10
   3  -9  -1  289.37    8.00
   3  -9  -1  275.57    7.50
   3  -9  -1  313.77    8.10
   3  -9  -1  300.07    8.60
  -3   9   1  298.37    8.20
  -3   9   0  163.48    5.70
   3  -9   0  169.08    5.70
   3  -9   0  159.68    5.60
  -3   9   0  145.79   10.80
   3  -9   0  140.39    8.10
   3  -9   0  168.48    6.30
   3  -9   1   -0.70    0.90
   3  -9   1   -0.60    0.90
   3  -9   1   -0.20    0.90
   3  -9   1   -0.10    0.80
  -3   9  -1    0.30    0.70
  -3   9  -2  157.18   12.90
   3  -9   2  147.39    5.50
   3  -9   2  162.28    5.50
   3  -9   2  131.59    9.20
  -3   9  -2  150.58   12.20
   3  -9   2  157.58    6.00
   3  -9   2  164.28    5.30
   3  -9   3   20.30    3.20
   3  -9   3   22.70    2.20
   3  -9   3   21.80    2.10
  -3   9  -3   22.00    5.40
   3  -9   3   22.90    2.10
   3  -9   3   18.70    3.60
   3  -9   3   23.50    2.30
  -3   9  -4   79.59   11.80
   3  -9   4   81.79    6.10
  -3   9  -4   96.29   10.30
   3  -9   4   96.69    4.30
   3  -9   4   94.59    4.30
   3  -9   4   91.79    7.40
   3  -9   4  111.19    4.70
   3  -9   5    0.10    0.70
   3  -9   5    0.40    0.80
   3  -9   5   -0.30    1.00
   3  -9   5   -0.10    1.00
   3  -9   5    0.00    0.90
   3  -9   5    0.30    0.70
   3  -9   6    8.70    1.50
   3  -9   6    8.00    1.20
   3  -9   6    8.50    1.30
   3  -9   6    6.50    2.30
   3  -9   6    7.60    1.30
   3  -9   6    9.70    1.40
   3  -9   7    7.70    1.30
   3  -9   7   10.20    1.70
   3  -9   7    7.00    1.30
   3  -9   7    7.50    1.50
   3  -9   7    8.50    1.40
   3  -9   8   29.50    2.60
   3  -9   8   29.70    2.60
   3  -9   8   29.40    2.30
   3  -9   8   25.20    2.30
   3  -9   8   31.30    2.60
   3  -9   9    2.30    1.10
   3  -9   9    2.90    1.20
   3  -9   9    2.00    1.10
   3  -9   9    2.60    1.20
   3  -9   9    1.30    0.80
   3  -9  10   58.49    3.60
   3  -9  10   50.89    2.70
   3  -9  10   49.70    3.10
   3  -9  10   62.99    3.70
   3  -9  11   19.80    2.20
   3  -9  11   23.80    2.40
   3  -9  11   16.50    1.60
   3  -9  11   17.20    1.90
   3  -9  11   16.90    1.80
   3  -9  12   40.20    2.60
   3  -9  12   42.30    2.90
   3  -9  12   38.90    2.20
   3  -9  13   25.70    1.70
   3  -9  13   26.90    2.10
   3  -9  13   29.60    1.80
   3  -9  13   22.60    1.80
   3  -9  14   65.09    2.10
   3  -9  14   54.89    2.20
  -3   8   9    1.00    0.40
   3  -8  -9    1.10    0.40
  -3   8   9    0.90    0.70
   3  -8  -9    0.40    0.50
  -3   8   9    1.00    0.60
   3  -8  -8   11.90    1.30
   3  -8  -8   12.30    1.20
  -3   8   8   10.20    1.50
  -3   8   8   12.90    1.70
   3  -8  -8    9.70    1.10
  -3   8   7   37.40    2.80
   3  -8  -7   40.40    2.30
   3  -8  -7   35.60    2.30
   3  -8  -7   31.90    2.30
  -3   8   7   37.20    2.50
  -3   8   7   37.40    2.70
  -3   8   7   34.80    2.70
   3  -8  -7   31.20    2.20
  -3   8   6    4.60    1.30
  -3   8   6    2.60    1.30
   3  -8  -6    3.10    1.20
  -3   8   6    4.40    1.40
   3  -8  -6    4.00    1.20
  -3   8   6    1.40    1.10
   3  -8  -6    3.80    1.00
   3  -8  -6    4.10    1.30
  -3   8   6    3.20    1.30
  -3   8   6    3.60    1.40
   3  -8  -5    0.80    1.00
   3  -8  -5    1.30    1.20
  -3   8   5    0.80    1.20
   3  -8  -5    0.80    0.80
   3  -8  -5    1.40    1.10
  -3   8   5    0.20    1.00
  -3   8   5    0.20    1.00
  -3   8   5    0.70    1.00
  -3   8   5    0.20    1.10
  -3   8   5    0.80    0.90
  -3   8   5    0.70    1.00
   3  -8  -4    4.40    1.40
  -3   8   4    3.10    1.20
  -3   8   4    3.90    1.20
   3  -8  -4    3.90    1.10
   3  -8  -4    3.50    1.20
   3  -8  -4    4.50    1.30
  -3   8   4    4.10    1.30
   3  -8  -4    4.80    1.20
  -3   8   4    4.40    1.30
  -3   8   4    5.30    1.50
  -3   8   3   54.69    3.50
  -3   8   3   48.20    6.50
   3  -8  -3   52.49    3.20
  -3   8   3   49.30    2.90
   3  -8  -3   51.39    3.40
   3  -8  -3   57.69    3.30
  -3   8   3   53.09    3.20
   3  -8  -3   52.69    3.30
  -3   8   3   46.10    6.10
  -3   8   3   51.49    3.40
   3  -8  -3   42.70    5.00
   3  -8  -2  117.39    4.40
  -3   8   2  125.99    9.30
   3  -8  -2  140.89    5.00
   3  -8  -2  106.49    7.60
   3  -8  -2  127.49    5.20
  -3   8   2  129.59   10.10
  -3   8   2  124.99    4.60
   3  -8  -2  130.39    5.20
  -3   8   2  131.89    5.20
   3  -8  -2  130.29    5.00
  -3   8   2  125.39    5.10
   3  -8  -1  111.99    4.70
   3  -8  -1  127.89    4.70
  -3   8   1  119.29    8.60
   3  -8  -1  117.79    4.90
   3  -8  -1  115.89    4.60
  -3   8   1  117.19    9.70
  -3   8   1  117.39    4.60
  -3   8   0   87.39    9.10
  -3   8   0   99.39    9.20
   3  -8   0   77.89    5.90
   3  -8   0   80.59    7.10
  -3   8  -1   16.10    4.20
   3  -8   1   17.50    2.70
   3  -8   1   15.00    3.30
  -3   8  -2   -2.40    2.40
   3  -8   2    0.00    1.30
   3  -8   3   34.60    3.80
   3  -8   3   36.90    4.60
   3  -8   4   35.50    4.10
   3  -8   4   31.10    3.50
   3  -8   4   27.60    4.00
   3  -8   5    6.20    2.20
   3  -8   5    5.70    2.00
   3  -8   6  180.88   10.20
  -3   8  -6    0.20    2.10
   3  -8   7   19.60    2.00
   3  -8   7   17.60    1.90
   3  -8   7   16.50    1.70
   3  -8   7   19.90    3.70
   3  -8   7   18.70    1.90
   3  -8   7   16.70    1.80
   3  -8   7   17.20    1.80
   3  -8   8   84.09    7.70
   3  -8   8   84.59    4.10
   3  -8   8   88.99    4.10
   3  -8   8   82.19    3.80
   3  -8   8   75.29    3.80
   3  -8   8   68.89    3.10
   3  -8   8   86.29    4.30
  -3   8  -8   70.79    8.10
   3  -8   9   27.40    2.50
   3  -8   9   22.70    1.90
   3  -8   9   29.20    2.60
   3  -8   9   25.00    2.30
   3  -8   9   29.50    2.70
   3  -8  10    1.40    1.20
   3  -8  10   -0.20    1.10
   3  -8  10    0.40    0.80
   3  -8  10    0.70    0.90
   3  -8  11  157.88    5.70
   3  -8  11  174.08    6.10
   3  -8  11  182.48    6.30
   3  -8  11  177.38    5.30
   3  -8  11  149.59    4.90
   3  -8  12   15.40    1.80
   3  -8  12   14.30    1.60
   3  -8  13    4.70    1.10
   3  -8  13    3.60    1.10
   3  -8  14    0.00    1.10
   3  -8  14   28.00    1.70
   3  -8  14   32.10    1.90
   3  -8  14    2.90    0.80
  -3   7  10   32.30    1.50
   3  -7 -10   33.20    1.40
  -3   7  10   42.40    2.20
   3  -7 -10   40.30    1.70
   3  -7  -9    3.40    0.70
   3  -7  -9    3.60    0.90
   3  -7  -9    4.40    0.90
  -3   7   9    3.40    1.10
  -3   7   9    3.20    1.00
  -3   7   8    6.30    1.50
   3  -7  -8    7.20    1.20
   3  -7  -8    9.80    1.40
   3  -7  -8    9.10    1.30
   3  -7  -8    6.20    1.10
  -3   7   8    7.40    1.60
   3  -7  -7    0.40    0.80
   3  -7  -7    1.70    1.00
  -3   7   7   -0.40    1.10
   3  -7  -7    0.20    0.80
  -3   7   7   -0.60    1.10
  -3   7   7   -0.30    1.20
  -3   7   7    0.90    0.90
  -3   7   6    1.40    1.00
   3  -7  -6    3.50    1.20
   3  -7  -6    2.20    1.10
  -3   7   6    1.50    1.10
   3  -7  -6    1.40    1.00
  -3   7   6    1.80    1.30
  -3   7   6    1.60    1.20
  -3   7   6    3.60    1.30
  -3   7   6    1.60    1.10
   3  -7  -5   77.79    3.90
  -3   7   5   80.09    4.30
  -3   7   5   79.39    4.00
  -3   7   5   80.59    4.20
   3  -7  -5   96.19    4.10
  -3   7   5   85.69    4.20
   3  -7  -5   74.49    3.90
  -3   7   5   79.69    4.10
   3  -7  -5   86.69    4.30
  -3   7   5   78.69    4.20
  -3   7   5   84.29    4.50
   3  -7  -4    1.00    0.90
  -3   7   4    3.50    2.80
  -3   7   4    2.80    1.10
   3  -7  -4    2.60    1.20
  -3   7   4    2.10    1.00
   3  -7  -4    2.00    1.00
  -3   7   4   -0.20    2.30
  -3   7   4    2.50    1.10
   3  -7  -4   -0.60    1.70
  -3   7   4    2.30    1.00
   3  -7  -4    1.30    0.90
  -3   7   4    2.40    1.00
   3  -7  -3   86.19    3.80
  -3   7   3   81.69    8.00
   3  -7  -3   51.39    7.10
  -3   7   3   82.99    4.00
   3  -7  -3   63.99    6.10
   3  -7  -3   80.09    3.70
  -3   7   3   76.49    7.60
  -3   7   3   72.79    3.50
   3  -7  -3   76.89    3.70
   3  -7  -3   91.49    4.10
   3  -7  -3   78.59    3.90
  -3   7   3   79.29    3.90
   3  -7  -2    4.70    2.00
  -3   7   2    5.70    2.70
  -3   7   2    4.10    2.40
  -3   7   1  461.25   18.80
  -3   7   1  501.95   19.50
  -3   7   1  483.15   16.90
  -3   7   0   31.90    5.20
   3  -7   0   31.40    4.10
  -3   7   0   45.30    6.50
  -3   7  -1    7.30    2.40
  -3   7  -1   10.40    3.50
   3  -7   1    6.20    2.20
   3  -7   2   80.39    5.10
   3  -7   2   77.09    6.20
  -3   7  -2   85.39    6.90
  -3   7  -2   96.09   10.10
   3  -7   3   14.40    2.40
  -3   7  -3   11.00    2.60
   3  -7   3   11.90    2.10
   3  -7   3   12.80    2.80
   3  -7   4   89.09    6.20
   3  -7   4   84.99    5.30
   3  -7   4   84.19    6.20
   3  -7   5  176.78    9.20
   3  -7   5  172.68    8.70
   3  -7   5  174.88    7.80
  -3   7  -6   48.30    6.30
   3  -7   6   41.90    5.00
  -3   7  -7    3.60    1.90
   3  -7   7    6.10    2.30
   3  -7   8    4.70    1.30
   3  -7   8    6.20    1.30
  -3   7  -8    6.60    2.60
   3  -7   8    4.20    1.00
   3  -7   8    4.80    2.00
   3  -7   8    3.90    1.10
   3  -7   8    2.50    1.00
   3  -7   8    5.60    1.30
   3  -7   9  108.89    4.80
   3  -7   9   89.99    3.90
  -3   7  -9   96.99    8.60
   3  -7   9  100.59    4.50
   3  -7   9   96.39    4.40
   3  -7   9  105.59    4.60
   3  -7   9   95.69    3.80
   3  -7   9   85.99    4.20
   3  -7   9   83.89    3.70
   3  -7  10    9.10    1.50
   3  -7  10    9.90    1.70
   3  -7  10    9.30    1.40
   3  -7  10    9.30    1.60
   3  -7  10    9.10    1.70
   3  -7  10    7.90    1.40
   3  -7  11  285.97    8.00
   3  -7  11  255.47    7.00
   3  -7  12    0.20    1.00
   3  -7  12    1.30    1.20
   3  -7  12    0.10    1.10
   3  -7  12    0.60    1.00
   3  -7  13   11.00    1.40
   3  -7  13    7.30    1.10
   3  -7  13   10.30    1.40
   3  -7  14   23.20    1.60
   3  -7  14   15.40    1.30
   3  -7  15   22.40    1.60
   3  -7  15   95.79    2.20
  -3   6  11    2.10    0.50
  -3   6  11    3.10    0.90
   3  -6 -11    2.50    0.40
   3  -6 -11    2.90    0.70
   3  -6 -10   81.39    3.00
  -3   6  10   77.59    3.50
   3  -6  -9    4.50    1.00
  -3   6   9    6.00    1.60
   3  -6  -9    8.30    1.40
  -3   6   9    6.30    1.60
   3  -6  -9    4.10    0.90
  -3   6   8    2.60    0.90
   3  -6  -8    2.20    0.90
   3  -6  -8    3.50    1.00
  -3   6   8    2.40    1.40
  -3   6   8    3.70    1.50
   3  -6  -8    5.20    1.30
  -3   6   7    4.70    1.60
  -3   6   7    5.50    1.50
   3  -6  -7    4.20    1.20
   3  -6  -7    4.10    1.10
  -3   6   7    4.90    1.40
   3  -6  -7    5.80    1.40
  -3   6   7    3.60    1.40
   3  -6  -7    6.40    2.30
  -3   6   7    4.30    1.50
  -3   6   7    4.80    1.30
   3  -6  -6   34.50    2.60
   3  -6  -6   42.10    2.80
   3  -6  -6   36.60    2.60
  -3   6   6   35.10    2.90
   3  -6  -6   27.30    3.80
  -3   6   6   35.50    2.80
  -3   6   6   34.90    2.80
  -3   6   6   35.20    2.90
  -3   6   6   34.00    2.80
   3  -6  -6   47.90    3.40
  -3   6   6   32.80    2.80
   3  -6  -5  235.68   12.50
   3  -6  -5  189.48    6.90
  -3   6   5  355.46    8.80
   3  -6  -5  356.36    8.20
  -3   6   5  339.17    8.40
   3  -6  -5  301.17   13.00
   3  -6  -5  428.86    8.80
   3  -6  -5  351.16    8.40
  -3   6   5  373.86   18.00
  -3   6   5  347.47    8.60
  -3   6   5  345.87    8.60
   3  -6  -5  423.26    9.20
  -3   6   5  354.66    8.90
  -3   6   5  364.06   17.60
  -3   6   4   19.60    4.10
   3  -6  -4   18.10    3.30
  -3   6   4   18.80    4.10
  -3   6   3  261.37   13.30
  -3   6   3  240.98   13.30
   3  -6  -2   18.60    3.20
   3  -6  -2   17.50    3.10
  -3   6   2   21.20    3.70
  -3   6   2   16.30    3.70
   3  -6  -1   16.80    3.00
  -3   6   1   23.50    4.70
  -3   6   1   20.10    3.70
   3  -6  -1   17.80    3.00
  -3   6   0  278.37   13.00
  -3   6   0  286.97   13.20
   3  -6   0  250.07   10.70
   3  -6   0  260.77   10.40
  -3   6  -1  211.28   10.60
   3  -6   1  210.08    9.50
   3  -6   1  197.38    6.90
   3  -6   1  213.68    9.00
  -3   6  -2    2.70    1.70
   3  -6   2    3.10    1.10
   3  -6   2    3.80    1.80
   3  -6   3   -0.30    1.10
   3  -6   3    0.80    1.00
   3  -6   3    0.00    0.90
  -3   6  -3   -0.20    1.30
  -3   6  -4    2.30    2.30
   3  -6   4    8.50    1.70
   3  -6   4   11.40    2.30
   3  -6   4    9.50    2.20
  -3   6  -4    9.10    2.20
   3  -6   5  103.89    6.30
  -3   6  -5  126.69    8.50
   3  -6   5  111.79    7.40
   3  -6   5  100.69    5.50
  -3   6  -5  106.89    6.60
  -3   6  -6   45.60    5.20
   3  -6   6   39.90    4.80
   3  -6   6   34.70    3.50
  -3   6  -6   36.50    4.10
  -3   6  -7   19.00    3.50
   3  -6   7   17.30    3.40
   3  -6   8   97.89    4.20
   3  -6   8   96.79    4.10
   3  -6   8   93.99    4.00
  -3   6  -8   98.79    8.10
   3  -6   8   96.49    8.20
   3  -6   9   46.30    3.00
   3  -6   9   40.70    2.60
   3  -6   9   49.90    3.20
   3  -6   9   39.70    2.60
   3  -6   9   41.00    5.60
   3  -6   9   48.40    3.10
   3  -6   9   46.00    2.90
   3  -6   9   40.70    2.90
  -3   6  -9   52.29    6.10
   3  -6  10    2.10    1.00
   3  -6  10    1.80    1.00
   3  -6  10    1.20    1.00
   3  -6  10    1.60    1.10
   3  -6  10    1.40    1.00
   3  -6  11   -0.20    1.00
   3  -6  11   -0.30    0.90
   3  -6  11   -0.40    1.10
   3  -6  11    0.00    1.00
   3  -6  12   34.10    2.50
   3  -6  12   33.70    2.50
   3  -6  13    1.30    1.00
   3  -6  13    0.10    1.00
   3  -6  13    0.10    0.80
   3  -6  13   -2.00    1.10
   3  -6  14   12.80    1.30
   3  -6  14   17.90    1.40
   3  -5 -12   11.10    1.00
  -3   5  12   13.10    1.20
  -3   5  11    2.10    0.80
   3  -5 -11    3.60    0.70
  -3   5  11    3.60    1.10
   3  -5 -11    3.20    0.90
   3  -5 -10   37.50    2.00
   3  -5 -10   53.49    2.90
  -3   5  10   48.20    3.00
  -3   5  10   45.00    3.10
   3  -5 -10   34.00    2.80
   3  -5  -9    1.70    0.80
  -3   5   9    1.90    1.40
  -3   5   9    1.30    1.20
   3  -5  -9    5.80    2.50
   3  -5  -9    2.90    1.20
  -3   5   9    1.90    1.00
   3  -5  -8   10.40    1.40
   3  -5  -8    9.20    1.30
  -3   5   8   10.50    1.90
   3  -5  -8   15.80    2.60
  -3   5   8    9.50    1.80
  -3   5   8   14.30    1.80
  -3   5   7    8.50    1.40
   3  -5  -7   15.20    2.40
   3  -5  -7   10.40    1.50
   3  -5  -7   10.50    1.50
  -3   5   7    9.70    1.70
  -3   5   7    9.50    1.60
  -3   5   7    8.80    1.60
  -3   5   7    6.90    1.40
  -3   5   7    9.10    1.70
   3  -5  -6  120.69    7.80
  -3   5   6  151.58   11.70
   3  -5  -6  133.79    4.70
   3  -5  -6  130.19    4.70
  -3   5   6  138.59    5.20
  -3   5   6  140.19    5.30
  -3   5   6  135.09    5.20
  -3   5   6  134.39    5.20
  -3   5   6  137.09    5.20
  -3   5   6  130.09    5.10
   3  -5  -6  157.08    5.50
  -3   5   5    7.20    2.90
   3  -5  -5    5.60    1.90
  -3   5   5    6.80    2.80
  -3   5   4   14.30    3.60
   3  -5  -4    8.50    2.20
  -3   5   4    9.30    3.00
  -3   5   3  281.37   13.60
   3  -5  -3  252.07   10.50
  -3   5   3  296.57   13.20
   3  -5  -3  237.98   10.20
  -3   5   2  262.27   12.70
  -3   5   2  249.97   10.80
   3  -5  -2  214.88    9.30
   3  -5  -2  199.98    9.10
  -3   5   1  635.04   20.10
   3  -5  -1  628.04   16.00
   3  -5  -1  577.94   15.90
   3  -5   0  197.68    5.70
  -3   5   0  229.68   11.00
   3  -5   0  210.68    8.90
   3  -5   0  220.68    8.60
  -3   5   0  213.88   14.40
  -3   5  -1    0.30    1.60
   3  -5   1    0.50    0.80
   3  -5   1    1.10    1.40
   3  -5   1    1.10    1.10
   3  -5   2  174.48    6.90
   3  -5   2  183.68    7.10
   3  -5   2  178.38    7.90
  -3   5  -2  181.48    8.70
  -3   5  -3   -0.40    2.30
  -3   5  -3    5.80    1.90
   3  -5   3    4.70    1.10
   3  -5   3    5.30    1.60
   3  -5   3    6.10    1.80
  -3   5  -4   66.99    5.70
   3  -5   4   49.50    3.30
  -3   5  -4   53.79    4.50
   3  -5   4   56.99    4.80
   3  -5   4   50.89    4.20
  -3   5  -5   37.00    4.30
   3  -5   5   33.20    2.90
   3  -5   5   39.00    4.30
   3  -5   5   34.50    3.40
  -3   5  -5   30.70    3.40
  -3   5  -6    1.20    1.30
   3  -5   6    0.90    1.50
   3  -5   6    1.20    0.80
  -3   5  -6    0.30    1.40
   3  -5   7   35.80    4.90
  -3   5  -7   37.30    4.20
  -3   5  -7   41.80    3.90
  -3   5  -7   46.10    5.00
   3  -5   8   54.39    6.20
  -3   5  -8   53.29    5.30
  -3   5  -8   61.49    5.10
  -3   5  -8   61.59    6.10
  -3   5  -9    8.80    2.80
   3  -5   9   12.90    1.60
   3  -5   9   11.80    1.50
   3  -5   9   16.80    3.80
   3  -5   9   17.00    1.90
  -3   5  -9   12.90    2.90
   3  -5   9   16.90    1.90
   3  -5   9   17.50    1.90
   3  -5   9   13.10    1.60
   3  -5  10   -0.20    1.00
   3  -5  10   -0.10    0.90
   3  -5  10    1.30    1.00
   3  -5  10   -0.40    1.00
   3  -5  10    0.70    1.00
   3  -5  11   13.40    2.00
   3  -5  11    8.80    1.80
   3  -5  11   10.00    1.60
   3  -5  11   11.30    1.40
   3  -5  11   10.00    1.60
   3  -5  12    3.00    1.30
   3  -5  12    1.40    0.70
   3  -5  12    0.30    1.10
   3  -5  12    0.90    0.90
   3  -5  13   38.90    2.30
   3  -5  13   39.30    2.70
   3  -5  13   36.10    2.10
   3  -5  13   36.40    2.00
  -3   5 -14   -0.90    0.60
   3  -5  14    2.60    1.00
   3  -4 -12    4.50    0.60
   3  -4 -12    5.90    1.00
  -3   4  12    5.50    0.90
  -3   4  12    5.10    1.10
   3  -4 -11    2.80    1.10
  -3   4  11    1.50    1.10
  -3   4  11    1.30    0.80
  -3   4  10   11.70    1.90
   3  -4 -10   16.00    2.70
  -3   4   9    0.30    1.00
   3  -4  -9    0.00    0.60
  -3   4   9    1.10    1.20
  -3   4   9    1.20    1.20
   3  -4  -9    1.00    1.70
  -3   4   8   16.00    2.10
   3  -4  -8   13.30    1.50
  -3   4   8   13.60    1.90
  -3   4   8   15.20    2.00
   3  -4  -8   14.30    2.10
  -3   4   8   17.20    1.90
  -3   4   7    6.70    1.20
  -3   4   7    6.70    1.40
   3  -4  -7    6.40    1.10
   3  -4  -7    5.00    1.70
  -3   4   7    5.40    1.30
  -3   4   7    6.10    1.30
  -3   4   7    5.80    1.30
  -3   4   7    5.30    2.70
   3  -4  -7    8.10    1.70
  -3   4   7    7.10    1.40
  -3   4   6  267.17   14.80
   3  -4  -6  235.88   10.60
   3  -4  -5  137.49    7.80
  -3   4   5  164.18   10.80
  -3   4   5  160.78   10.70
  -3   4   4   14.20    3.50
   3  -4  -4   10.70    2.10
   3  -4  -4   11.60    2.30
  -3   4   4   15.20    3.60
   3  -4  -3  977.10   20.80
   3  -4  -3  917.01   19.80
  -3   4   2    0.40    2.30
  -3   4   2   -0.10    0.90
   3  -4  -2    0.70    1.20
  -3   4   2   -0.40    2.50
   3  -4  -2    0.30    1.20
   3  -4  -1   32.10    3.20
   3  -4  -1   34.50    3.40
  -3   4   1   33.60    4.50
   3  -4   0    4.00    1.70
  -3   4   0    4.80    2.30
   3  -4   0    5.20    1.50
   3  -4   0    5.20    0.90
   3  -4   1    1.40    1.10
   3  -4   1    0.80    0.70
  -3   4  -1   -1.70    3.00
   3  -4   1    1.20    1.30
  -3   4  -1    0.20    1.60
   3  -4   2  382.86    9.30
   3  -4   2  395.56   10.30
   3  -4   2  381.56   10.90
   3  -4   2  370.76    7.80
  -3   4  -2  401.56   11.70
   3  -4   3    3.00    0.90
  -3   4  -3    3.40    2.00
   3  -4   3    4.20    1.50
   3  -4   3    2.00    1.50
  -3   4  -3    2.50    1.40
  -3   4  -3    4.30    1.30
  -3   4  -4   37.20    3.60
  -3   4  -4   44.70    3.10
   3  -4   4   35.50    2.50
   3  -4   4   29.90    3.90
   3  -4   4   33.40    3.20
  -3   4  -4   42.20    4.10
  -3   4  -5   55.09    4.40
   3  -4   5   55.69    4.10
   3  -4   5   62.79    5.40
  -3   4  -5   55.49    3.80
  -3   4  -5   60.39    5.00
   3  -4   6  300.87   13.10
   3  -4   6  312.67    9.80
  -3   4  -6  299.77   11.10
  -3   4  -6  311.87   10.30
  -3   4  -6  319.77   12.00
  -3   4  -7   -0.20    1.30
   3  -4   7    2.40    2.10
  -3   4  -7    0.60    1.20
  -3   4  -7    0.80    1.20
   3  -4   8   40.80    5.60
  -3   4  -8   37.80    4.30
  -3   4  -8   39.30    4.60
  -3   4  -8   41.80    5.00
   3  -4   9   38.90    2.70
   3  -4   9   34.90    2.70
   3  -4   9   34.40    5.30
  -3   4  -9   26.20    4.10
   3  -4   9   30.30    2.40
   3  -4   9   26.30    2.10
  -3   4  -9   26.00    3.90
   3  -4   9   33.30    2.50
  -3   4  -9   33.00    4.80
   3  -4  10    0.60    1.00
   3  -4  10    0.10    0.60
   3  -4  10    0.40    1.10
   3  -4  10    0.20    0.80
   3  -4  10    0.00    1.00
   3  -4  11   35.90    2.90
   3  -4  11   34.30    2.50
   3  -4  11   30.40    2.30
   3  -4  11   39.20    2.50
   3  -4  11   37.90    2.90
   3  -4  12    1.20    1.20
   3  -4  12    0.00    0.70
   3  -4  12   -1.90    1.10
   3  -4  12   -1.50    0.90
   3  -4  12   -1.20    1.20
   3  -4  13    5.00    1.30
   3  -4  13    5.40    1.00
   3  -4  13    5.40    1.00
  -3   4 -13    4.50    0.90
  -3   4 -14   14.60    1.20
   3  -4  14   18.40    1.30
   3  -4  14   18.40    1.70
   3  -3 -13    3.30    0.80
  -3   3  13    3.10    0.80
   3  -3 -12   21.90    2.20
   3  -3 -12   28.40    2.00
  -3   3  12   24.50    2.10
  -3   3  12   25.70    2.00
  -3   3  11   21.00    1.70
  -3   3  11   22.30    2.40
  -3   3  11   20.10    2.00
  -3   3  10   36.50    2.40
   3  -3 -10   30.60    2.80
  -3   3  10   38.10    3.00
  -3   3  10   34.80    3.00
  -3   3   9   43.50    3.20
   3  -3  -9   53.59    3.80
  -3   3   9   46.90    3.10
  -3   3   9   47.40    3.40
   3  -3  -9   36.90    2.90
   3  -3  -8   14.60    2.10
  -3   3   8   13.50    1.70
  -3   3   8   15.00    1.90
  -3   3   8   15.60    1.90
  -3   3   8   14.40    3.80
   3  -3  -8    9.70    1.60
  -3   3   7   68.49    7.70
   3  -3  -7   62.59    5.30
   3  -3  -6    0.30    1.00
  -3   3   6   -0.90    2.10
   3  -3  -6    0.00    0.80
  -3   3   5  101.29    8.10
  -3   3   5  113.69    8.50
   3  -3  -5   90.19    5.90
   3  -3  -5   91.89    5.00
   3  -3  -4   33.20    3.50
  -3   3   4   36.50    4.60
  -3   3   4   38.00    4.80
   3  -3  -4   29.90    3.00
   3  -3  -4   35.40    2.80
  -3   3   3   96.09    6.90
   3  -3  -3   84.79    3.80
   3  -3  -3   88.49    5.30
   3  -3  -3   85.09    4.90
  -3   3   2    5.20    2.60
   3  -3  -2    4.00    1.40
   3  -3  -2    3.60    1.40
  -3   3   2    3.50    2.40
   3  -3  -1    1.60    0.40
   3  -3  -1    1.50    1.10
  -3   3   1    2.60    2.20
   3  -3  -1    1.30    1.20
   3  -3   0  236.28    5.70
   3  -3   0  232.78    7.60
  -3   3   0  238.38    9.20
   3  -3   0  247.68    7.30
  -3   3  -1    0.60    1.40
   3  -3   1   -0.10    0.70
   3  -3   1    0.80    0.90
  -3   3  -1    2.30    0.70
   3  -3   2   33.60    3.00
   3  -3   2   50.89    2.70
  -3   3  -2   66.99    4.60
   3  -3   2   46.90    2.00
  -3   3  -2   53.89    3.90
  -3   3  -2   28.60    3.30
  -3   3  -3    3.30    1.60
   3  -3   3    1.10    1.40
  -3   3  -3    1.30    1.20
  -3   3  -3    3.00    1.20
   3  -3   4   82.19    5.60
  -3   3  -4   91.29    5.30
  -3   3  -4   82.29    5.10
  -3   3  -4   95.39    4.90
  -3   3  -5  447.06   13.10
   3  -3   5  450.65   14.90
  -3   3  -5  479.65   12.40
  -3   3  -5  449.26   13.30
  -3   3  -6   10.80    2.30
   3  -3   6   11.80    2.90
  -3   3  -6   12.10    2.30
  -3   3  -7    7.80    2.10
   3  -3   7    8.70    2.60
  -3   3  -7    7.60    2.10
   3  -3   8   43.40    5.70
  -3   3  -8   39.30    4.70
  -3   3  -8   37.40    4.50
   3  -3   9   25.00    2.30
   3  -3   9   24.10    2.20
   3  -3   9   22.70    2.00
   3  -3   9   33.00    2.60
   3  -3   9   32.30    5.20
   3  -3   9   25.70    2.10
  -3   3  -9   25.00    4.10
  -3   3  -9   25.60    4.10
   3  -3  10    5.10    1.30
   3  -3  10    5.60    1.30
   3  -3  10    5.80    1.50
   3  -3  10    6.50    1.20
   3  -3  11   16.10    2.10
   3  -3  11   15.60    1.70
   3  -3  11   19.30    1.90
   3  -3  11   16.10    1.70
   3  -3  11   18.90    2.30
   3  -3  12   20.80    1.90
   3  -3  12   18.40    1.70
   3  -3  12   19.60    2.20
   3  -3  13    1.90    0.80
   3  -3  13    0.70    1.00
  -3   3 -13    1.50    0.60
  -3   3 -14   10.70    1.00
   3  -3  14   10.60    1.00
  -3   2  14    1.80    0.50
   3  -2 -14    1.90    0.50
  -3   2  14    1.60    0.60
   3  -2 -13    7.00    1.10
  -3   2  13    2.40    0.60
   3  -2 -13    2.10    1.20
  -3   2  13    5.70    1.00
  -3   2  13    5.30    1.00
  -3   2  12   41.50    2.70
  -3   2  12   40.10    2.80
  -3   2  12   40.30    2.30
   3  -2 -12   47.60    2.90
  -3   2  11    0.60    0.70
  -3   2  11    1.10    1.00
  -3   2  11    0.90    1.10
  -3   2  10   64.79    3.30
   3  -2 -10   53.89    3.70
  -3   2  10   66.59    4.00
   3  -2 -10   49.60    3.20
  -3   2  10   66.79    3.80
  -3   2   9   28.40    5.60
  -3   2   9   23.30    1.90
  -3   2   9   26.00    2.50
  -3   2   9   24.20    2.30
  -3   2   9   24.00    2.30
  -3   2   9   28.50    2.60
   3  -2  -9   19.80    3.30
   3  -2  -8   43.50    4.30
  -3   2   8   51.09    6.80
  -3   2   8   49.90    3.00
   3  -2  -8   42.70    4.40
  -3   2   8   52.59    3.20
  -3   2   8   54.89    3.10
  -3   2   7   72.89    7.50
   3  -2  -7   67.19    5.30
   3  -2  -7   64.09    5.00
   3  -2  -6   55.69    4.40
   3  -2  -6   53.99    4.60
  -3   2   5    0.00    1.90
   3  -2  -5    0.40    0.90
   3  -2  -5    0.30    1.10
   3  -2  -5    0.70    0.80
  -3   2   5    0.40    1.90
  -3   2   4  862.51   21.20
   3  -2  -4  836.12   18.10
  -3   2   4  906.91   21.10
  -3   2   3   -0.80    2.10
  -3   2   3    0.50    2.10
   3  -2  -3    0.10    1.20
   3  -2  -3    0.60    0.90
  -3   2   2  524.65   15.40
   3  -2  -2  526.95   12.30
   3  -2  -2  488.05   11.00
   3  -2  -1   17.40    2.10
   3  -2  -1   15.50    1.20
  -3   2   1   16.90    2.80
   3  -2   0  331.97    8.30
   3  -2   0  332.87   10.00
  -3   2   0  324.07    9.90
   3  -2   1  302.87    4.20
   3  -2   1  473.65   11.80
   3  -2   1  454.15    8.40
  -3   2  -1  336.27   10.90
  -3   2  -1  447.16   10.60
  -3   2  -1  587.04   12.00
  -3   2  -2   43.80    3.20
  -3   2  -2   35.00    3.40
   3  -2   2   47.40    2.10
   3  -2   2   41.00    3.60
  -3   2  -2   37.90    3.10
   3  -2   3   59.89    4.30
  -3   2  -3   54.39    3.90
  -3   2  -3   68.99    4.30
  -3   2  -3   54.39    3.70
  -3   2  -4   82.29    5.10
   3  -2   4   83.39    5.00
  -3   2  -4   95.69    5.30
  -3   2  -5    1.90    1.30
   3  -2   5    1.20    0.90
  -3   2  -5    0.60    1.20
   3  -2   5    0.30    1.70
   3  -2   5    4.60    2.10
  -3   2  -6   98.09    6.20
  -3   2  -6   89.09    6.20
   3  -2   6   93.99    7.30
  -3   2  -7    1.50    1.60
   3  -2   7    3.40    2.10
   3  -2   7    1.20    1.50
  -3   2  -7    1.80    1.60
  -3   2  -8   71.19    6.50
   3  -2   8   82.19    7.60
   3  -2   8   81.19    8.00
  -3   2  -8   84.29    7.10
  -3   2  -9   21.40    3.80
   3  -2   9   23.00    2.10
   3  -2   9   24.30    4.20
   3  -2   9   27.50    2.40
   3  -2   9   24.10    1.90
  -3   2  -9   23.90    4.40
   3  -2   9   29.70    5.40
   3  -2  10   58.49    3.00
   3  -2  10   60.39    3.10
   3  -2  10   57.59    3.60
   3  -2  11   31.70    2.50
   3  -2  11   28.20    2.10
   3  -2  11   29.00    2.70
  -3   2 -11   30.60    2.30
   3  -2  11   37.90    2.60
   3  -2  12   17.00    2.10
   3  -2  12   18.90    1.90
  -3   2 -12   16.00    1.50
  -3   2 -12   16.50    1.60
   3  -2  12   11.90    1.30
   3  -2  13   79.09    3.20
  -3   2 -13   68.79    3.00
  -3   2 -13   64.49    2.50
   3  -2  13   77.39    3.40
  -3   2 -14    5.60    0.70
   3  -2  14    4.00    0.70
  -3   1  14    0.60    0.60
  -3   1  14    1.10    0.60
   3  -1 -14    0.60    0.50
  -3   1  14    1.00    0.70
  -3   1  13   27.70    1.90
  -3   1  13   26.50    2.10
   3  -1 -13   28.20    2.20
  -3   1  13   23.60    2.00
   3  -1 -13   26.10    1.90
  -3   1  12   24.10    2.20
  -3   1  12   25.50    2.10
  -3   1  12   27.70    2.50
   3  -1 -12   20.60    2.00
  -3   1  11    6.10    1.20
   3  -1 -11    1.30    1.20
  -3   1  11    5.30    1.50
  -3   1  11    5.70    1.40
  -3   1  10   76.79    3.70
  -3   1  10   80.99    4.30
  -3   1  10   79.39    4.10
  -3   1   9   21.20    1.90
  -3   1   9   26.50    5.20
  -3   1   9   26.60    2.40
   3  -1  -9   19.10    3.20
  -3   1   9   23.10    2.10
  -3   1   8   48.60    6.20
   3  -1  -8   47.70    4.80
   3  -1  -8   48.60    4.60
   3  -1  -7   37.90    4.00
  -3   1   7   38.40    4.60
  -3   1   7   40.30    5.40
   3  -1  -7   34.00    3.80
  -3   1   6   56.39    5.50
   3  -1  -6   50.09    4.20
  -3   1   6   54.79    5.70
   3  -1  -6   52.99    4.50
  -3   1   5    2.90    1.90
   3  -1  -5    2.40    1.40
  -3   1   5    3.00    1.80
   3  -1  -4   89.39    3.90
   3  -1  -4   86.29    5.20
  -3   1   4  101.19    6.40
  -3   1   3  344.57   12.50
   3  -1  -3  353.56   10.20
   3  -1  -3  332.47    8.10
   3  -1  -2  254.27    8.10
   3  -1  -2  250.87    8.30
  -3   1   2  247.88    9.40
   3  -1  -1  279.37    6.20
   3  -1  -1  290.57    8.90
  -3   1   1  273.67    8.60
   3  -1   0   79.59    3.70
   3  -1   0   73.29    3.70
   3  -1   0   74.99    4.70
  -3   1   0   72.99    4.10
  -3   1  -1 1310.27   20.20
   3  -1   1 1381.16   17.70
   3  -1   1 1309.57   20.90
  -3   1  -1 1285.67   19.40
   3  -1   1 1355.66   23.10
  -3   1  -2 4212.38   49.70
   3  -1   2 4310.17   54.29
   3  -1   2 4401.46   45.20
  -3   1  -2 4334.27   52.29
   3  -1   2 4532.45   56.19
  -3   1  -2 4474.55   50.59
   3  -1   3   35.10    3.60
   3  -1   3   38.50    3.70
   3  -1   3   37.40    3.80
  -3   1  -3   35.50    2.50
  -3   1  -3   37.10    3.30
  -3   1  -3   44.50    3.80
  -3   1  -4    1.10    1.40
   3  -1   4    2.20    1.20
   3  -1   4    1.50    1.60
   3  -1   4    1.60    1.90
  -3   1  -4    0.70    0.60
  -3   1  -4    3.60    1.70
  -3   1  -5  384.46   12.60
   3  -1   5  429.76   14.30
   3  -1   5  411.96   14.60
  -3   1  -5  453.15   13.70
   3  -1   5  459.15   12.90
  -3   1  -6  141.89    8.00
   3  -1   6  133.39    9.00
  -3   1  -6  162.28    8.60
   3  -1   7    0.60    1.50
  -3   1  -7   -0.40    1.30
   3  -1   7   -0.60    2.10
  -3   1  -7   -0.30    1.50
   3  -1   8    2.80    1.00
  -3   1  -8    3.10    1.80
  -3   1  -8    0.90    1.40
   3  -1   8    1.70    1.80
   3  -1   8    1.30    2.10
   3  -1   9   73.69    3.40
   3  -1   9   81.19    4.00
   3  -1   9   89.99    4.20
  -3   1  -9   78.79    3.60
   3  -1   9   85.49    3.80
  -3   1  -9   67.69    6.80
   3  -1   9   82.69    8.80
  -3   1  -9   83.49    8.20
   3  -1   9   72.09    3.20
   3  -1   9   82.29    3.70
   3  -1  10   43.50    2.80
   3  -1  10   44.00    2.70
   3  -1  10   43.80    3.00
   3  -1  10   34.80    2.80
  -3   1 -10   38.20    2.70
   3  -1  10   40.70    2.60
   3  -1  10   37.60    2.60
   3  -1  11   27.20    2.30
   3  -1  11   28.30    2.10
  -3   1 -11   24.40    2.10
  -3   1 -11   27.10    2.20
   3  -1  11   25.20    2.50
   3  -1  11   25.50    2.10
   3  -1  12    3.00    0.90
   3  -1  12    2.70    1.00
  -3   1 -12    2.30    1.00
  -3   1 -12    2.30    0.70
  -3   1 -12    2.70    0.80
   3  -1  12    4.00    0.90
   3  -1  12    4.00    1.20
   3  -1  13   15.00    1.40
   3  -1  13   17.00    1.50
  -3   1 -13   14.10    1.40
   3  -1  14   -1.30    0.60
  -3   1 -14   10.80    2.80
  -3   0  15   -1.10    0.70
  -3   0  15    1.10    0.50
  -3   0  14   26.30    1.90
  -3   0  14   26.10    1.90
   3   0 -14   25.90    1.50
  -3   0  14   27.60    1.70
   3   0 -14   23.60    1.50
  -3   0  13  110.59    4.40
  -3   0  13  108.59    4.00
  -3   0  13  107.89    4.40
  -3   0  12   57.09    3.50
  -3   0  12   60.69    3.20
  -3   0  12   62.59    3.70
  -3   0  11  513.15   10.70
  -3   0  11  520.25   11.30
  -3   0  10   40.70    2.70
  -3   0  10   43.90    3.10
   3   0 -10   35.50    4.60
  -3   0  10   32.20    5.20
  -3   0  10   43.10    2.90
  -3   0   9    1.80    0.90
  -3   0   9    1.70    0.80
  -3   0   9    2.20    0.80
  -3   0   9    3.20    1.10
  -3   0   9    1.80    2.20
   3   0  -9    2.00    1.30
   3   0  -8   55.09    4.80
  -3   0   8   59.09    6.50
   3   0  -8   55.49    5.20
   3   0  -7  143.39    7.70
   3   0  -7  147.79    8.00
  -3   0   7  165.08    9.60
  -3   0   6   11.10    2.60
   3   0  -6   12.70    2.40
  -3   0   6   13.90    2.90
  -3   0   5    9.90    2.40
   3   0  -5    6.00    1.80
  -3   0   5   10.80    2.40
   3   0  -4   48.00    2.50
  -3   0   4   53.59    4.30
   3   0  -4   53.79    3.50
   3   0  -4   49.60    4.10
   3   0  -3   48.60    3.50
   3   0  -3   41.00    1.50
   3   0  -3   50.99    3.90
  -3   0   3   42.00    4.10
  -3   0   3   52.39    3.70
  -3   0   2    4.80    1.30
   3   0  -2    4.30    1.50
  -3   0   2    6.20    1.80
   3   0  -2    4.80    0.90
   3   0  -2    4.80    1.60
  -3   0   1    3.60    1.80
  -3   0   1    1.10    1.20
  -3   0   1    1.10    1.20
   3   0  -1    1.00    1.20
   3   0  -1    0.00    1.40
   3   0  -1   -0.20    0.80
  -3   0   1    0.80    1.10
   3   0   0  647.04   11.90
   3   0   0  596.34   12.10
  -3   0   0  610.74   12.10
   3   0   0  622.44   14.70
  -3   0   0  567.24   11.20
  -3   0  -1 1123.99   15.50
   3   0   1 1129.49   21.70
   3   0   1 1045.30   19.00
   3   0   1 1153.18   15.90
  -3   0  -1 1050.19   17.00
  -3   0  -1 1055.09   17.10
  -3   0  -2  809.02   14.60
   3   0   2  875.11   11.60
   3   0   2  824.42   17.70
   3   0   2  888.81   20.00
  -3   0  -2  805.62   15.50
   3   0   2  830.02   17.00
  -3   0  -2  876.01   20.40
   3   0   3  315.57   11.10
   3   0   3  334.17   12.10
   3   0   3  302.07   10.50
  -3   0  -3  292.17    9.30
  -3   0  -3  300.87    8.20
   3   0   4  197.58    9.50
  -3   0  -4  209.48    6.90
  -3   0  -4  190.78    8.10
   3   0   4  213.08    9.60
   3   0   5   96.49    7.10
   3   0   5  114.59    7.20
  -3   0  -5   93.59    6.20
  -3   0  -5   90.69    4.70
   3   0   5  103.69    7.40
   3   0   6   20.50    3.50
  -3   0  -6   16.50    3.00
  -3   0  -6   24.60    4.00
   3   0   6   18.10    3.80
  -3   0  -7   28.00    4.00
   3   0   7   16.30    3.50
   3   0   7   33.10    5.30
  -3   0  -7   31.00    4.50
   3   0   8    1.30    0.80
  -3   0  -8    1.20    1.10
   3   0   8    1.60    1.00
   3   0   8    3.40    2.20
   3   0   8    0.90    1.00
  -3   0  -8    0.90    0.80
   3   0   8    4.30    1.10
   3   0   8    0.60    1.90
  -3   0  -8    2.10    2.20
   3   0   8   -2.70    1.30
   3   0   9   -0.10    0.80
   3   0   9    1.00    1.00
   3   0   9    0.20    1.00
  -3   0  -9   -0.30    0.70
   3   0   9   -0.10    0.90
  -3   0  -9    0.50    0.90
   3   0   9   -1.50    1.40
   3   0  10    2.70    1.10
  -3   0 -10    1.50    0.80
  -3   0 -10    2.90    1.10
   3   0  10    2.60    1.10
  -3   0 -10    3.90    1.10
   3   0  10    2.30    1.20
   3   0  11    2.60    1.00
   3   0  11    1.30    1.00
  -3   0 -11    1.20    0.90
  -3   0 -11    2.00    1.20
  -3   0 -11    2.10    1.00
   3   0  11    2.60    0.80
   3   0  12    3.90    1.00
   3   0  12    3.70    1.00
  -3   0 -12    4.20    0.90
  -3   0 -12    4.00    0.80
   3   0  12    6.00    0.90
  -3   0 -12    4.50    1.20
   3   0  12    5.10    1.10
   3   0  13   10.90    1.10
  -3   0 -13   12.60    1.20
   3   0  13   10.30    1.00
  -3  -1  15    4.70    0.80
  -3  -1  15   20.00    1.20
  -3  -1  14    9.70    1.30
  -3  -1  14    8.70    1.30
  -3  -1  14   11.10    1.30
   3   1 -14    7.60    0.90
  -3  -1  13   16.90    1.80
  -3  -1  13   21.60    2.10
  -3  -1  13   21.40    2.10
  -3  -1  12  115.39    5.00
  -3  -1  12  116.69    5.00
  -3  -1  12  113.19    4.60
  -3  -1  12  111.49    4.30
  -3  -1  11   95.29    4.40
  -3  -1  11   99.99    4.70
  -3  -1  11   95.09    4.30
  -3  -1  10   18.90    1.90
  -3  -1  10   19.70    2.00
  -3  -1  10   19.90    2.10
   3   1 -10   12.80    3.00
  -3  -1   9   28.50    4.60
   3   1  -9   20.70    3.60
   3   1  -8   -0.20    1.40
   3   1  -8   -0.90    1.00
  -3  -1   8    0.20    1.30
  -3  -1   8    0.00    1.40
  -3  -1   7   79.19    6.70
   3   1  -7   71.99    5.50
  -3  -1   7   73.09    5.90
  -3  -1   6  208.48   10.40
   3   1  -6  187.78    8.70
  -3  -1   6  201.48    8.80
  -3  -1   5    0.50    1.50
   3   1  -5    0.50    1.40
   3   1  -5    0.50    0.80
  -3  -1   5   -0.40    1.10
   3   1  -4   47.80    4.20
   3   1  -4   49.40    3.50
  -3  -1   4   55.59    4.70
   3   1  -4   38.80    1.70
  -3  -1   3    1.50    1.40
   3   1  -3    0.50    1.40
   3   1  -3    0.50    0.70
  -3  -1   3    1.10    1.20
  -3  -1   3    0.40    0.80
   3   1  -3    1.10    1.30
  -3  -1   2   96.69    5.40
  -3  -1   2  101.79    3.60
   3   1  -2   99.89    5.70
  -3  -1   2   96.69    3.80
  -3  -1   2   93.29    5.00
   3   1  -2   94.49    4.30
  -3  -1   2   94.39    4.60
   3   1  -2   98.29    5.20
   3   1  -1  212.88    8.80
   3   1  -1  192.18    6.90
  -3  -1   1  203.38    7.10
  -3  -1   1  203.08    7.00
  -3  -1   1  188.88    4.70
  -3  -1   1  197.28    6.00
   3   1  -1  207.48    7.20
   3   1   0  232.38    9.80
  -3  -1   0  218.28    7.10
   3   1   0  215.48    7.90
  -3  -1   0  204.78    6.00
   3   1   0  220.38    7.00
  -3  -1  -1   68.79    3.70
  -3  -1  -1   57.99    3.00
  -3  -1  -1   74.29    4.10
   3   1   1   67.39    4.90
   3   1   1   71.29    4.10
   3   1   1   71.29    3.70
   3   1   1   71.19    5.90
  -3  -1  -1   71.59    2.70
  -3  -1  -2    5.10    1.40
  -3  -1  -2    5.10    0.70
   3   1   2    6.00    2.00
   3   1   2    8.80    2.80
  -3  -1  -2    6.40    1.50
   3   1   2    5.10    1.80
  -3  -1  -2    3.60    2.90
   3   1   3   26.10    3.60
  -3  -1  -3   26.00    2.70
  -3  -1  -3   28.20    4.70
  -3  -1  -3   26.00    2.90
   3   1   3   24.80    3.20
   3   1   3   28.40    4.30
   3   1   4   32.70    4.60
   3   1   4   29.10    4.10
   3   1   4   27.20    3.90
  -3  -1  -4   36.70    5.10
  -3  -1  -4   21.80    3.00
   3   1   5   50.89    5.60
  -3  -1  -5   53.19    6.20
  -3  -1  -5   43.60    3.70
   3   1   5   51.69    5.50
  -3  -1  -5   41.40    4.30
   3   1   5   47.90    5.50
  -3  -1  -6  111.59    7.50
   3   1   6  133.69    9.00
   3   1   6  128.89    9.60
  -3  -1  -6  142.29   10.30
  -3  -1  -7    1.00    1.30
   3   1   7    2.60    1.00
   3   1   7    0.30    1.30
   3   1   7   -2.10    1.70
   3   1   7    4.20    2.70
   3   1   8  216.18    6.00
  -3  -1  -8  181.18   10.70
  -3  -1  -8  197.48    6.30
  -3  -1  -8  181.68    5.70
   3   1   8  187.78    6.00
   3   1   8  213.28    6.60
  -3  -1  -8  204.98    6.30
   3   1   8  208.58   13.70
   3   1   8  215.78    5.70
   3   1   8  162.28    5.60
   3   1   9    5.40    1.30
   3   1   9    5.80    1.30
  -3  -1  -9    5.80    1.40
  -3  -1  -9    5.80    1.30
  -3  -1  -9    5.70    1.10
   3   1   9    7.50    1.50
   3   1   9    5.40    1.40
   3   1  10    0.20    0.80
  -3  -1 -10   -0.70    1.30
  -3  -1 -10    0.60    0.90
   3   1  10    0.50    1.00
   3   1  10    0.20    0.90
  -3  -1 -10    0.50    0.90
  -3  -1 -11   38.30    2.70
  -3  -1 -11   33.00    2.30
  -3  -1 -11   32.20    2.20
   3   1  11   39.10    2.40
   3   1  11   33.60    2.40
   3   1  11   37.40    2.30
   3   1  12   14.50    1.30
  -3  -1 -12   14.00    1.20
   3   1  12   15.50    1.50
  -3  -1 -12   14.90    1.50
   3   1  12   15.30    1.50
   3   1  12   15.20    1.20
   3   1  13   47.30    1.90
  -3  -1 -13   45.90    1.70
  -3  -1 -13   47.90    2.10
  -3  -2  15   15.60    1.40
  -3  -2  15   19.40    1.50
  -3  -2  14    6.80    1.10
  -3  -2  14    8.00    1.30
  -3  -2  14    8.90    1.40
  -3  -2  13    5.40    1.40
  -3  -2  13    6.10    1.30
  -3  -2  13    4.60    1.20
  -3  -2  12   18.50    2.30
  -3  -2  12   19.30    2.20
  -3  -2  12   16.20    1.90
  -3  -2  12   18.80    2.10
  -3  -2  11   83.59    4.10
  -3  -2  11   84.59    4.10
  -3  -2  11   85.49    4.30
  -3  -2  10  439.36    9.50
  -3  -2  10  457.95    8.80
  -3  -2  10  440.66    9.60
  -3  -2  10  439.46   10.00
  -3  -2  10  471.85    9.60
   3   2  -9   57.79    5.10
  -3  -2   9   73.89    7.00
   3   2  -9   59.09    5.80
   3   2  -8  402.66   14.20
  -3  -2   8  457.45   17.40
   3   2  -7   88.79    6.40
  -3  -2   7   91.59    5.80
  -3  -2   7  100.59    7.70
  -3  -2   6  167.88    9.50
  -3  -2   6  167.88    7.00
   3   2  -6  153.48    8.10
   3   2  -5    1.30    1.60
  -3  -2   5    3.00    1.80
  -3  -2   5    1.90    1.00
   3   2  -5    1.30    1.00
  -3  -2   4  256.57   10.30
  -3  -2   4  269.77    6.90
   3   2  -4  252.77    8.70
   3   2  -4  229.08    7.00
  -3  -2   4  264.17    8.60
   3   2  -4  256.17    9.90
   3   2  -3  549.85   14.20
  -3  -2   3  514.55   11.00
   3   2  -3  498.65   12.00
  -3  -2   3  542.35   11.60
  -3  -2   3  522.35   13.00
  -3  -2   3  534.05   14.30
   3   2  -3  560.34   14.40
  -3  -2   2   64.69    4.40
   3   2  -2   62.69    4.30
  -3  -2   2   64.29    4.20
  -3  -2   2   63.79    3.30
   3   2  -2   67.49    4.60
  -3  -2   2   57.59    3.10
   3   2  -2   65.29    5.20
   3   2  -1   20.20    3.50
  -3  -2   1   17.90    2.30
   3   2  -1   20.80    2.90
  -3  -2   1   18.20    1.70
  -3  -2   1   22.50    2.60
  -3  -2   1   20.60    1.70
  -3  -2   1   24.30    2.90
  -3  -2   0    1.60    1.00
  -3  -2   0    1.70    0.80
   3   2   0    2.10    1.90
   3   2   0    1.70    2.40
  -3  -2   0    2.00    1.30
  -3  -2   0    4.10    2.50
   3   2   1   21.70    3.40
  -3  -2  -1   20.20    2.50
  -3  -2  -1   20.80    2.10
   3   2   1   21.80    2.50
  -3  -2  -1   18.90    1.70
   3   2   1   24.50    4.20
  -3  -2  -1   15.70    4.40
  -3  -2  -1   19.30    1.20
   3   2   2  216.78   10.20
  -3  -2  -2  199.78    7.70
  -3  -2  -2  195.98    7.10
   3   2   2  198.78    8.10
  -3  -2  -3    1.50    1.10
   3   2   3    2.60    2.40
   3   2   3    1.90    1.70
  -3  -2  -3   -1.70    3.80
   3   2   3    1.30    1.90
  -3  -2  -4   46.40    4.10
   3   2   4   49.00    5.50
   3   2   4   46.30    5.00
  -3  -2  -4   43.50    6.20
   3   2   4   48.20    6.10
   3   2   5   65.29    6.50
   3   2   5   67.99    7.10
  -3  -2  -5   59.99    4.70
  -3  -2  -5   51.89    7.20
   3   2   5   56.09    6.10
   3   2   6  114.49    8.80
  -3  -2  -6  100.89    7.20
   3   2   6  117.49    9.30
   3   2   7    0.50    0.90
  -3  -2  -7    0.70    0.90
  -3  -2  -7   -0.20    1.30
   3   2   7    0.50    1.00
   3   2   7    0.30    0.70
  -3  -2  -7    0.10    0.90
  -3  -2  -7    0.60    0.70
   3   2   7    0.90    2.00
   3   2   7    0.30    0.80
   3   2   8   18.60    2.20
   3   2   8   16.00    2.00
  -3  -2  -8   16.00    1.80
   3   2   8   14.40    1.70
  -3  -2  -8   18.80    2.10
  -3  -2  -8   19.00    2.10
   3   2   8   23.00    2.10
   3   2   8   16.00    2.00
  -3  -2  -9   17.90    2.10
   3   2   9   19.50    1.90
   3   2   9   19.40    2.10
  -3  -2  -9   20.00    2.10
  -3  -2  -9   22.60    2.40
   3   2   9   17.60    2.10
   3   2  10   31.50    2.60
   3   2  10   33.30    2.30
  -3  -2 -10   35.60    2.60
  -3  -2 -10   36.70    2.80
  -3  -2 -10   34.00    2.30
  -3  -2 -10   30.80    2.30
   3   2  10   33.50    2.60
   3   2  11    0.50    0.70
   3   2  11    1.30    1.00
  -3  -2 -11    0.60    1.00
  -3  -2 -11    1.60    0.70
   3   2  12   -0.40    0.70
  -3  -2 -12    0.60    0.70
   3   2  12   -0.80    0.70
   3   2  12   -0.40    0.40
  -3  -3  15    8.30    1.10
  -3  -3  15   12.90    1.40
  -3  -3  14   90.49    3.90
  -3  -3  14   85.59    3.40
  -3  -3  14   93.39    3.80
  -3  -3  13   48.40    3.00
  -3  -3  13   46.10    2.90
  -3  -3  13   47.40    3.10
  -3  -3  12  137.49    5.40
  -3  -3  12  138.19    5.20
  -3  -3  12  136.59    5.20
  -3  -3  12  134.99    5.20
  -3  -3  11   -0.40    1.20
  -3  -3  11    0.80    0.90
  -3  -3  11    0.90    1.00
  -3  -3  10  581.04   11.20
  -3  -3  10  562.44   10.00
  -3  -3  10  593.94   11.40
  -3  -3  10  564.24   11.50
  -3  -3  10  590.74   11.20
   3   3  -9  114.39    7.70
   3   3  -9  103.49    7.80
  -3  -3   8    9.00    2.80
   3   3  -8    8.30    2.30
   3   3  -7   24.70    3.60
  -3  -3   7   26.20    4.20
   3   3  -6   12.70    2.90
  -3  -3   6    9.20    2.60
  -3  -3   5    1.60    1.50
   3   3  -5    1.70    1.20
   3   3  -5    1.90    1.60
   3   3  -5    0.80    0.80
  -3  -3   5    1.30    1.80
   3   3  -4   86.99    5.70
  -3  -3   4   84.49    6.20
  -3  -3   4   82.59    4.90
  -3  -3   4   79.99    5.20
   3   3  -4   67.09    4.70
   3   3  -4   83.89    6.00
  -3  -3   3   21.80    3.10
  -3  -3   3   21.90    2.30
   3   3  -3   21.70    3.00
  -3  -3   3   24.30    3.00
   3   3  -3   24.00    3.50
  -3  -3   2    8.70    2.00
  -3  -3   2   10.10    1.70
   3   3  -2    7.70    2.70
   3   3  -2    7.70    2.30
  -3  -3   2    9.20    2.00
  -3  -3   2    6.70    1.00
  -3  -3   1  129.49    6.00
  -3  -3   1  130.99    6.30
   3   3  -1  128.39    7.60
  -3  -3   1  118.89    4.00
   3   3  -1  134.69    8.90
   3   3   0   76.39    6.30
  -3  -3   0   81.89    4.40
   3   3   0   90.79    7.90
  -3  -3   0   83.49    5.10
  -3  -3   0   73.29    3.60
   3   3   0   83.19    4.20
   3   3   1   13.10    3.90
   3   3   1   10.80    3.10
  -3  -3  -1   11.50    2.20
  -3  -3  -1   10.50    1.60
   3   3   1   11.90    2.00
  -3  -3  -1   16.90    4.30
   3   3   2   80.79    7.00
  -3  -3  -2   80.69    5.40
  -3  -3  -2   68.59    4.40
   3   3   2   81.89    5.50
   3   3   2   93.09    8.70
  -3  -3  -3   12.40    2.40
   3   3   3   13.00    3.30
   3   3   3    9.70    3.50
   3   3   3   10.30    2.60
  -3  -3  -3   10.20    6.40
  -3  -3  -4  226.08    9.80
   3   3   4  242.28   12.90
   3   3   4  233.28   11.50
  -3  -3  -5   57.19    5.00
   3   3   5   68.99    7.00
   3   3   5   52.19    6.10
  -3  -3  -5   51.79    5.00
   3   3   5   60.19    7.40
   3   3   6    1.00    0.80
  -3  -3  -6    0.00    0.90
   3   3   6   -0.30    0.90
   3   3   6    0.60    0.70
   3   3   6    2.40    0.80
  -3  -3  -6    1.20    0.90
   3   3   6    3.70    1.90
  -3  -3  -6    0.50    0.80
  -3  -3  -6    2.20    1.10
   3   3   6    0.50    0.90
   3   3   6   -2.10    1.90
  -3  -3  -7   23.50    2.30
   3   3   7   26.10    2.50
  -3  -3  -7   25.50    2.40
   3   3   7   22.90    2.10
  -3  -3  -7   23.00    2.30
   3   3   7   24.50    2.30
  -3  -3  -8  105.59    4.80
  -3  -3  -8  100.79    4.70
   3   3   8  101.79    4.70
  -3  -3  -8  103.19    4.50
   3   3   8  101.79    4.30
   3   3   8  101.69    4.70
  -3  -3  -9   94.69    4.30
  -3  -3  -9  103.39    4.60
   3   3   9   94.59    4.40
  -3  -3  -9   97.29    4.20
  -3  -3  -9   96.69    4.10
   3   3   9   94.59    4.00
   3   3   9   98.29    4.50
  -3  -3 -10   17.70    1.70
  -3  -3 -10   19.30    2.00
   3   3  10   19.00    2.00
  -3  -3 -10   25.20    7.20
   3   3  10   20.10    1.60
  -3  -3 -10   18.10    1.50
   3   3  10   19.40    2.00
  -3  -3 -11    9.10    1.30
   3   3  11    8.00    1.10
   3   3  11    7.20    0.90
  -3  -3 -11    7.00    0.80
   3   3  11    8.90    1.30
  -3  -3 -12    7.80    0.80
   3   3  12    7.60    0.80
   3   3  12    8.30    0.90
  -3  -4  15   -4.10    2.00
  -3  -4  15   -0.20    1.00
  -3  -4  14   14.50    1.80
  -3  -4  14    9.50    1.30
  -3  -4  13   38.50    2.50
  -3  -4  13   42.20    2.90
  -3  -4  13   38.60    2.90
  -3  -4  12    4.10    1.30
  -3  -4  12    3.30    1.20
  -3  -4  12    3.60    1.00
  -3  -4  11  100.09    4.50
  -3  -4  11   85.59    4.20
  -3  -4  11   98.79    4.30
  -3  -4  11   87.49    4.20
  -3  -4  10    3.70    1.00
  -3  -4  10    2.50    0.90
  -3  -4  10    4.50    2.30
  -3  -4  10    4.30    1.10
   3   4 -10    1.20    1.60
  -3  -4   9   45.20    6.00
   3   4  -9   38.50    4.70
   3   4  -8  189.48   10.50
  -3  -4   8  225.58   12.90
  -3  -4   7  246.58   12.90
   3   4  -7  241.68   12.00
  -3  -4   6   89.49    6.30
  -3  -4   6   86.99    7.30
   3   4  -6   79.39    6.50
   3   4  -5   18.50    2.80
  -3  -4   5   17.50    3.40
   3   4  -5   18.90    3.00
  -3  -4   5   19.10    2.90
  -3  -4   5   16.40    2.60
   3   4  -5   17.10    3.20
  -3  -4   4  455.65   15.10
  -3  -4   4  433.06   12.30
  -3  -4   4  433.96   12.90
   3   4  -4  413.56   13.80
   3   4  -4  426.06   14.70
   3   4  -3  174.48    9.20
  -3  -4   3  181.58    7.30
  -3  -4   3  185.88    8.90
  -3  -4   3  178.58    7.90
   3   4  -3  185.98   10.30
  -3  -4   2    4.40    1.70
  -3  -4   2    3.10    1.20
   3   4  -2    2.70    2.60
   3   4  -2    2.30    2.00
  -3  -4   2    3.20    1.60
  -3  -4   1  147.19    6.90
  -3  -4   1  154.68    7.40
   3   4  -1  156.98    9.50
   3   4  -1  162.88   10.90
   3   4   0  154.48    9.70
  -3  -4   0  154.88    7.50
  -3  -4   0  148.89    5.20
   3   4   0  173.88   11.80
   3   4   0  157.58    6.00
   3   4   1  182.98   11.20
   3   4   1  178.28    7.40
  -3  -4  -1  171.88    8.30
  -3  -4  -1  167.18    6.30
   3   4   1  198.78   13.30
  -3  -4  -2   13.10    2.60
   3   4   2   12.60    4.10
   3   4   2   11.10    3.30
  -3  -4  -2   13.00    2.00
   3   4   2   10.20    2.30
  -3  -4  -3   68.79    5.00
   3   4   3   78.19    7.60
  -3  -4  -3   68.39   12.40
  -3  -4  -3   70.69    5.70
   3   4   3   71.99    6.00
   3   4   3   82.49    9.20
  -3  -4  -4  175.88    8.70
   3   4   4  209.18   12.70
  -3  -4  -4  190.38    9.70
   3   4   4  209.68   11.20
   3   4   4  231.88   15.60
  -3  -4  -5    3.30    1.50
   3   4   5    4.00    1.10
   3   4   5    3.40    1.10
  -3  -4  -5    4.40    1.20
   3   4   5    2.60    0.90
  -3  -4  -5    2.90    1.00
   3   4   5    3.50    2.60
  -3  -4  -5    3.00    1.60
   3   4   5    3.10    0.90
   3   4   5    2.40    0.90
  -3  -4  -5    2.80    1.00
   3   4   5    2.30    0.80
   3   4   5    0.90    2.10
  -3  -4  -6   81.19    4.10
   3   4   6   74.49    3.80
   3   4   6   89.49    4.10
  -3  -4  -6   78.69    4.00
  -3  -4  -6   61.99    5.70
  -3  -4  -6   81.79    4.10
   3   4   6   78.59    3.60
   3   4   6   72.29    3.60
   3   4   6   76.99    7.70
  -3  -4  -6   76.89   18.50
   3   4   6   81.09    4.10
   3   4   7   -1.00    1.20
  -3  -4  -7    0.50    1.00
   3   4   7   -0.20    1.00
  -3  -4  -7   -3.00    6.80
  -3  -4  -7   -0.20    1.00
  -3  -4  -7    0.60    0.90
  -3  -4  -7    0.10    1.00
   3   4   8   78.99    4.10
  -3  -4  -8   75.39    4.00
  -3  -4  -8   86.39    8.60
   3   4   8   73.49    3.70
  -3  -4  -8   74.69    3.90
   3   4   8   80.09    4.10
  -3  -4  -8   67.79    3.60
  -3  -4  -8   76.29    3.90
  -3  -4  -9    1.60    1.20
   3   4   9   -0.40    1.20
  -3  -4  -9    0.30    0.80
   3   4   9    1.20    0.80
   3   4   9    0.70    1.10
   3   4   9    0.40    0.70
  -3  -4  -9    3.70    2.30
  -3  -4  -9   -0.20    0.70
   3   4  10    6.70    1.30
   3   4  10    6.90    1.30
  -3  -4 -10    8.80    1.30
   3   4  10    6.10    1.00
  -3  -4 -10    5.20    0.90
  -3  -4 -10    6.10    1.80
   3   4  11    9.10    1.00
  -3  -4 -11   10.50    1.00
  -3  -4 -11   11.90    1.10
   3   4  11   10.70    1.10
  -3  -5  15   57.39    3.10
  -3  -5  15   82.99    3.00
  -3  -5  14    3.10    1.00
  -3  -5  14   45.10    2.90
  -3  -5  13    6.30    1.20
  -3  -5  13    8.50    5.20
  -3  -5  13    9.60    1.70
  -3  -5  12  371.16    8.90
  -3  -5  12  378.26    8.50
  -3  -5  12  379.66    9.40
  -3  -5  11  558.74   10.80
  -3  -5  11  569.24   11.20
  -3  -5  11  576.84   11.70
  -3  -5  11  549.25   11.20
  -3  -5  10  202.88    6.10
  -3  -5  10  195.08   12.80
  -3  -5  10  274.77    6.40
  -3  -5  10  201.98    5.90
   3   5 -10  142.29    9.70
  -3  -5  10  195.88    6.10
  -3  -5  10  138.39    5.50
  -3  -5  10  208.68    6.40
  -3  -5   9   27.80    2.10
  -3  -5   9   23.20    4.50
  -3  -5   9   28.70    2.20
  -3  -5   9   33.80    2.60
   3   5  -9   23.30    3.80
  -3  -5   8   76.39    7.70
   3   5  -8   68.89    6.70
  -3  -5   7   43.80    5.70
  -3  -5   7   41.80    4.90
   3   5  -7   40.20    5.20
  -3  -5   6  176.48   10.80
   3   5  -6  150.48    8.50
  -3  -5   6  179.08    9.30
   3   5  -6  169.28   10.10
  -3  -5   5    1.70    1.70
  -3  -5   5    0.50    1.20
   3   5  -5    0.50    1.30
   3   5  -5    3.00    1.70
  -3  -5   5    1.80    1.30
  -3  -5   4   12.00    2.70
  -3  -5   4   11.00    2.40
   3   5  -4   14.30    3.30
   3   5  -4   12.80    3.40
  -3  -5   4   12.00    2.30
  -3  -5   3  761.92   19.70
  -3  -5   3  712.33   17.70
   3   5  -3  695.53   21.40
  -3  -5   3  708.03   16.80
   3   5  -3  763.92   23.80
  -3  -5   2   56.29    4.80
   3   5  -2   54.69    6.30
  -3  -5   2   56.39    4.80
   3   5  -2   61.19    7.20
  -3  -5   2   52.79    4.40
   3   5  -1  793.42   24.60
  -3  -5   1  770.92   19.20
   3   5   0   67.29    7.30
  -3  -5   0   61.49    5.20
   3   5   0   75.19    8.90
  -3  -5   0   88.99    6.50
   3   5   1   40.90    6.00
  -3  -5  -1   46.00    4.70
   3   5   1   54.89    8.00
   3   5   2   28.40    5.10
  -3  -5  -2   19.70    3.30
   3   5   2   25.50    6.00
   3   5   3    4.00    3.40
   3   5   3    6.10    3.00
  -3  -5  -3    3.30    1.70
  -3  -5  -4   81.39    4.20
  -3  -5  -4  113.09    6.50
  -3  -5  -4   90.59    4.00
  -3  -5  -4   78.89    3.70
   3   5   4   84.29    8.40
  -3  -5  -4   83.19    4.00
   3   5   4   84.09    3.70
   3   5   4   83.49    3.70
  -3  -5  -4   88.59    4.10
  -3  -5  -4   71.59    4.00
   3   5   4   85.59    3.80
  -3  -5  -4   70.39    6.40
   3   5   4   97.49   10.80
   3   5   4   85.79    3.90
  -3  -5  -4   86.39   11.70
   3   5   4   85.49    3.90
  -3  -5  -5   11.50    1.70
  -3  -5  -5    9.50    1.60
  -3  -5  -5   11.90    1.80
  -3  -5  -5   16.20    3.00
   3   5   5   11.30    1.60
  -3  -5  -5   11.60    1.90
   3   5   5   12.10    1.70
   3   5   5    9.90    1.60
   3   5   5   12.00    1.60
   3   5   5   11.40    1.70
  -3  -5  -6   22.80    2.30
  -3  -5  -6   22.70    2.30
   3   5   6   25.00    2.30
  -3  -5  -6   28.60    2.70
   3   5   6   23.80    2.20
  -3  -5  -6   24.70    2.40
   3   5   6   24.50    2.40
   3   5   6   26.80    2.50
   3   5   7    1.00    1.10
   3   5   7    1.80    1.20
  -3  -5  -7    2.00    1.30
  -3  -5  -7    1.50    1.10
  -3  -5  -7    1.00    1.00
   3   5   7    0.40    0.80
   3   5   7    0.90    1.00
   3   5   8    2.40    1.30
  -3  -5  -8    3.50    1.30
   3   5   8    2.30    1.10
   3   5   8    2.50    1.30
  -3  -5  -8    1.60    0.90
   3   5   8    2.20    0.90
  -3  -5  -8    2.10    1.00
  -3  -5  -9   80.29    3.30
  -3  -5  -9   66.69    2.80
   3   5   9   79.19    3.20
  -3  -5  -9   70.09    2.90
   3   5   9   73.29    2.90
   3   5   9   82.59    3.50
   3   5   9   83.29    3.50
  -3  -5 -10   22.60    1.50
   3   5  10   18.10    1.30
   3   5  10   16.20    1.10
  -3  -5 -10   22.40    1.50
   3   5  10   24.20    1.60
  -3  -6  15    6.10    1.00
  -3  -6  15   -3.40    2.00
  -3  -6  14   40.10    3.60
  -3  -6  14    0.70    0.90
  -3  -6  13   59.19    3.50
  -3  -6  13   -1.10    1.20
  -3  -6  13   99.09    4.90
  -3  -6  13   -6.90    5.70
  -3  -6  12  148.99    5.30
  -3  -6  12  175.28    6.00
  -3  -6  11  212.88    6.60
  -3  -6  11  201.68    6.20
  -3  -6  10   47.10    3.10
  -3  -6  10   29.50    2.30
  -3  -6   9   20.70    4.60
  -3  -6   9   20.50    1.90
   3   6  -9   17.60    3.80
  -3  -6   8   -1.70    1.90
   3   6  -8    0.70    1.60
  -3  -6   7   94.29    8.50
  -3  -6   7   78.89    6.80
   3   6  -7   71.09    7.10
   3   6  -6   73.09    6.70
  -3  -6   6   90.79    8.00
  -3  -6   6   80.09    6.50
  -3  -6   6   78.09    5.90
   3   6  -6   85.19    7.60
   3   6  -5  306.57   14.40
  -3  -6   5  309.87   12.10
  -3  -6   5  362.06   15.40
  -3  -6   5  321.67   12.50
   3   6  -5  320.67   14.70
  -3  -6   4   64.69    5.30
  -3  -6   4   80.59    6.90
   3   6  -4   69.79    7.20
   3   6  -4   75.79    7.60
  -3  -6   4   65.09    5.50
   3   6  -3  224.28   13.00
  -3  -6   3  219.58    9.60
  -3  -6   3  222.58   10.10
  -3  -6   3  248.68   11.40
   3   6  -3  244.18   14.70
  -3  -6   2   49.20    4.70
   3   6  -2   41.20    6.00
  -3  -6   2   39.30    4.40
   3   6  -2   42.90    6.70
  -3  -6   1   24.20    3.60
   3   6  -1   24.80    5.00
   3   6  -1   35.60    6.60
   3   6   0   -0.90    2.60
   3   6   0   -0.40    2.30
  -3  -6   0   -0.30    1.40
   3   6   1    0.30    2.20
  -3  -6  -1    1.90    1.50
   3   6   1    3.70    3.60
  -3  -6  -2    8.10    1.20
   3   6   2    8.60    4.10
   3   6   2    9.80    1.40
  -3  -6  -2    9.20    1.70
   3   6   2    7.80    3.50
  -3  -6  -2   10.40    1.50
  -3  -6  -2    9.40    2.50
  -3  -6  -2    9.30    1.50
   3   6   2    9.20    1.40
  -3  -6  -2    3.10    2.40
   3   6   2    8.70    1.30
  -3  -6  -3  195.08    7.00
  -3  -6  -3  223.58    7.10
  -3  -6  -3  188.88   10.60
  -3  -6  -3  203.58    6.30
   3   6   3  202.18   13.50
   3   6   3  201.48    6.20
  -3  -6  -3  209.18    6.60
   3   6   3  202.18   16.30
   3   6   3  209.28    6.20
   3   6   3  203.68    5.90
  -3  -6  -3  187.08    6.40
   3   6   3  211.58    6.50
  -3  -6  -3  222.48    6.40
  -3  -6  -3  191.98    5.90
   3   6   3  205.78    6.10
   3   6   4    1.90    1.10
   3   6   4    0.70    0.90
  -3  -6  -4    3.00    1.10
   3   6   4    0.70    1.00
  -3  -6  -4    1.70    1.10
   3   6   4    2.30    1.10
  -3  -6  -4    2.90    1.30
   3   6   4    2.00    1.00
  -3  -6  -4    1.60    1.00
   3   6   5    6.10    1.50
  -3  -6  -5    7.70    1.60
   3   6   5    7.70    1.70
  -3  -6  -5    7.20    1.60
   3   6   5    7.00    1.40
  -3  -6  -5    7.30    1.70
   3   6   5    5.70    1.30
  -3  -6  -6   20.30    2.10
  -3  -6  -6   15.60    2.10
   3   6   6   14.70    1.80
   3   6   6   17.60    2.10
  -3  -6  -6   14.40    1.90
   3   6   6   15.40    1.90
   3   6   6   15.40    2.00
   3   6   7    3.20    1.30
  -3  -6  -7    5.20    1.40
  -3  -6  -7    3.80    1.10
   3   6   7    3.30    1.30
   3   6   7    3.70    1.30
  -3  -6  -7    3.00    1.10
   3   6   7    3.40    0.90
   3   6   8    4.90    1.20
  -3  -6  -8    4.60    1.10
   3   6   8    4.10    1.20
   3   6   8    5.20    1.10
  -3  -6  -8    4.00    0.90
   3   6   8    4.30    1.10
   3   6   9    2.30    0.80
   3   6   9    2.60    0.80
  -3  -6  -9    2.00    0.80
   3   6   9    3.20    0.80
  -3  -6  -9    2.80    0.80
   3   6   9    1.70    0.60
  -3  -6  -9    1.80    0.50
  -3  -7  15   10.40    1.90
  -3  -7  15   17.90    1.10
  -3  -7  14   62.19    3.40
  -3  -7  14   70.59    2.80
  -3  -7  13   85.49    3.60
  -3  -7  13   89.69    6.40
  -3  -7  12   31.00    5.90
  -3  -7  12   42.90    2.90
  -3  -7  11    3.90    1.20
  -3  -7  11    4.00    1.20
  -3  -7  11    3.30    1.00
  -3  -7  10    1.90    0.90
  -3  -7  10    3.20    1.10
  -3  -7   9    2.20    1.00
   3   7  -9    2.00    2.00
  -3  -7   9    0.80    0.80
  -3  -7   8   64.89    3.50
  -3  -7   8   77.99    7.30
  -3  -7   8   78.49    3.50
  -3  -7   8   85.69    3.60
  -3  -7   8   70.09    3.60
  -3  -7   8   65.79    3.50
   3   7  -8   63.89    7.10
   3   7  -7    5.20    2.60
  -3  -7   7    6.90    2.30
  -3  -7   6  263.47   12.50
   3   7  -6  228.98   13.20
   3   7  -5    5.50    2.80
  -3  -7   5    6.20    2.00
   3   7  -5    7.60    3.10
  -3  -7   5    7.80    2.30
   3   7  -4   35.80    5.80
  -3  -7   4   33.40    4.20
  -3  -7   4   35.60    4.30
   3   7  -4   42.30    6.40
   3   7  -3   35.60    5.70
  -3  -7   3   34.80    4.20
  -3  -7   3   36.50    4.40
   3   7  -3   35.70    6.50
  -3  -7   2    3.60    1.80
   3   7  -2    6.30    3.60
   3   7  -2    6.30    3.20
  -3  -7   2    9.10    2.40
   3   7  -1  390.96   19.50
   3   7  -1  412.96   22.70
  -3  -7   1  352.86   14.40
  -3  -7   0   41.40    2.50
  -3  -7   0   40.90    2.70
  -3  -7   0   37.90    4.90
   3   7   0   44.80    6.80
  -3  -7   0   45.70    3.10
  -3  -7   0   39.20    2.30
   3   7   0   47.00    8.30
  -3  -7   0   41.90    3.30
  -3  -7  -1   41.80    5.10
   3   7   1   38.80    6.40
   3   7   1   40.60    2.70
  -3  -7  -1   37.40    2.40
   3   7   1   42.40    7.90
   3   7   1   44.40    2.60
  -3  -7  -1   41.30    2.90
  -3  -7  -1   46.40    3.20
  -3  -7  -1   39.10    3.30
  -3  -7  -1   41.40    2.60
   3   7   1   42.40    2.50
  -3  -7  -1   42.10    3.50
   3   7   2   14.20    1.80
  -3  -7  -2   15.70    1.70
  -3  -7  -2   14.20    1.90
   3   7   2   14.40    1.90
   3   7   2   12.20    4.20
  -3  -7  -2   13.60    1.70
   3   7   2   12.90    3.90
  -3  -7  -2   14.40    1.90
  -3  -7  -2   11.20    2.70
   3   7   2   14.50    1.70
  -3  -7  -2   12.90    1.90
   3   7   2   13.60    1.70
  -3  -7  -2   13.50    2.20
   3   7   3   72.19    3.90
   3   7   3   71.59    3.60
  -3  -7  -3   73.49    4.00
   3   7   3   72.29    3.80
  -3  -7  -3   74.79    4.30
   3   7   3   75.89    3.90
  -3  -7  -3   69.19    4.00
  -3  -7  -3   78.99    3.80
  -3  -7  -3   63.99    3.50
  -3  -7  -3   63.99    4.10
   3   7   3   72.39    3.60
  -3  -7  -4  128.39    4.90
   3   7   4  125.49    5.20
  -3  -7  -4  123.89    5.10
   3   7   4  131.09    5.10
   3   7   4  125.49    5.10
  -3  -7  -4  120.29    4.90
  -3  -7  -4  125.79    5.50
   3   7   4  126.69    4.90
  -3  -7  -4  109.59    5.10
   3   7   5    8.00    1.50
   3   7   5    9.50    1.70
  -3  -7  -5   10.40    1.60
   3   7   5    9.80    1.70
  -3  -7  -5    8.10    1.50
  -3  -7  -5   10.00    1.80
   3   7   5    9.00    1.60
   3   7   6    1.90    1.00
   3   7   6    1.20    1.20
  -3  -7  -6    2.20    1.00
   3   7   6    0.60    1.00
  -3  -7  -6    1.30    1.00
   3   7   6    1.10    0.90
   3   7   7    2.70    1.00
  -3  -7  -7    3.10    0.90
  -3  -7  -7    3.60    1.10
   3   7   7    4.40    1.20
   3   7   7    3.30    1.10
   3   7   7    4.20    1.10
  -3  -7  -7    2.60    0.90
   3   7   7    4.30    0.90
   3   7   8    1.30    0.60
  -3  -7  -8    0.70    0.60
  -3  -7  -8    1.50    0.70
   3   7   8    0.50    0.70
   3   7   8    1.30    0.70
   3   7   8    0.50    0.60
  -3  -7  -8    1.10    0.50
  -3  -7  -8    0.60    0.50
  -3  -8  15   71.69    3.50
  -3  -8  14   23.00    1.50
  -3  -8  14   11.40    2.00
  -3  -8  13   44.30    2.40
  -3  -8  13   29.60    2.20
  -3  -8  13   53.99    5.80
  -3  -8  13   21.10    2.50
  -3  -8  12   64.69    5.60
  -3  -8  12   60.39    3.30
  -3  -8  12   83.49    3.50
  -3  -8  12   67.99    3.70
  -3  -8  12   68.29    3.20
  -3  -8  12   79.19    3.80
  -3  -8  11    7.10    1.50
  -3  -8  11    0.40    1.00
  -3  -8  11    5.50    2.10
  -3  -8  11    1.00    0.80
  -3  -8  11    1.80    1.00
  -3  -8  10   66.59    3.50
  -3  -8  10   56.29    4.50
  -3  -8  10   65.19    3.60
  -3  -8  10   62.59    4.50
  -3  -8   9   68.99    4.70
  -3  -8   9   68.19    3.30
  -3  -8   9   61.19    3.60
  -3  -8   9   76.69    3.50
  -3  -8   9   67.69    4.30
  -3  -8   8   49.60    2.80
   3   8  -8   29.00    5.00
  -3  -8   8   32.50    2.70
  -3  -8   8   48.20    4.20
  -3  -8   8   32.60    2.30
  -3  -8   8   48.00    3.60
  -3  -8   7   45.30    5.60
  -3  -8   7   54.49    4.00
  -3  -8   7   39.40    2.90
   3   8  -7   40.70    6.00
  -3  -8   7   50.39    2.70
  -3  -8   6  169.88    6.00
  -3  -8   6  174.08   10.50
  -3  -8   6  167.18    5.50
  -3  -8   6  173.58    5.00
  -3  -8   5   51.49    2.60
  -3  -8   5   49.99    2.90
   3   8  -5   48.80    7.00
  -3  -8   5   59.19    5.90
  -3  -8   5   56.99    3.60
  -3  -8   5   58.09    3.50
   3   8  -5   47.30    6.90
  -3  -8   4   21.50    1.70
  -3  -8   4   28.00    2.50
  -3  -8   4   23.40    3.80
   3   8  -4   17.70    4.70
  -3  -8   4   19.10    3.60
  -3  -8   4   23.20    2.00
   3   8  -4   21.60    4.90
  -3  -8   3   74.29    3.60
  -3  -8   3   71.09    6.40
  -3  -8   3   72.89    6.40
  -3  -8   3   75.79    3.20
   3   8  -3   75.99    9.70
   3   8  -3   75.79    8.80
  -3  -8   3   83.69    4.80
   3   8  -2  121.59   11.20
  -3  -8   2  114.89    4.00
  -3  -8   2  102.89    7.60
  -3  -8   2  118.79    4.70
  -3  -8   2  127.59    5.10
  -3  -8   2  120.49    5.60
  -3  -8   2  103.79    7.90
   3   8  -2  124.59   12.90
  -3  -8   2  116.39    5.80
  -3  -8   1   52.69    2.80
  -3  -8   1   50.79    5.70
   3   8  -1   60.39    8.10
  -3  -8   1   54.29    2.90
  -3  -8   1   61.49    3.70
  -3  -8   1   56.39    3.30
  -3  -8   1   55.09    3.90
   3   8  -1   69.19    9.90
  -3  -8   1   60.09    4.30
   3   8   0   11.40    1.60
   3   8   0    8.00    4.50
   3   8   0    9.10    3.40
  -3  -8   0   10.80    3.00
  -3  -8   0   11.80    1.90
   3   8   0   11.70    1.50
  -3  -8   0    9.90    2.00
  -3  -8   0   10.60    1.50
  -3  -8   0   11.00    1.40
  -3  -8   0   10.60    2.00
  -3  -8  -1    9.00    1.90
  -3  -8  -1    8.70    1.40
  -3  -8  -1    9.80    1.60
  -3  -8  -1    9.60    1.80
   3   8   1    8.20    1.50
   3   8   1    8.80    1.40
   3   8   1    9.50    1.60
  -3  -8  -1    7.50    1.80
   3   8   1   10.40    1.40
  -3  -8  -2  145.89    5.00
   3   8   2  129.29    5.20
  -3  -8  -2  121.39    4.80
   3   8   2  128.69    4.70
   3   8   2  132.89    5.10
  -3  -8  -2  137.19    5.80
  -3  -8  -2  127.99    5.60
   3   8   2  135.29    5.40
   3   8   2  127.89    4.70
  -3  -8  -2  117.29    5.80
   3   8   3   -1.20    1.30
   3   8   3    0.30    0.80
  -3  -8  -3   -0.10    0.80
   3   8   3   -0.10    1.10
  -3  -8  -3    0.00    1.10
  -3  -8  -3    0.20    0.90
   3   8   3    0.30    0.90
  -3  -8  -4   60.69    3.20
   3   8   4   59.79    3.50
  -3  -8  -4   61.79    2.80
   3   8   4   59.19    3.40
   3   8   4   58.59    3.40
  -3  -8  -4   58.69    3.60
  -3  -8  -4   56.69    3.10
  -3  -8  -4   59.49    3.40
   3   8   4   53.19    3.00
   3   8   4   59.69    3.10
   3   8   5    0.50    0.80
  -3  -8  -5    0.40    0.80
   3   8   5    0.90    0.80
   3   8   5    1.50    1.20
  -3  -8  -5    0.00    1.00
  -3  -8  -5    1.40    0.70
   3   8   5    1.40    0.90
  -3  -8  -5    0.70    0.90
   3   8   6   18.00    1.80
  -3  -8  -6   17.20    1.50
  -3  -8  -6   20.40    1.80
  -3  -8  -6   17.30    1.30
   3   8   6   18.10    1.60
  -3  -8  -6   17.00    1.60
   3   8   6   19.50    1.60
   3   8   6   17.40    1.50
   3   8   7   -0.40    0.50
  -3  -8  -7    0.00    0.60
  -3  -8  -7   -0.50    0.60
   3   8   7   -0.90    0.70
   3   8   7    0.50    0.60
   3   8   7    0.60    0.70
   3   8   7    0.10    0.50
  -3  -9  15    4.20    2.00
  -3  -9  14   29.10    3.50
  -3  -9  13    3.10    0.90
  -3  -9  13    3.20    1.00
  -3  -9  12   10.40    1.50
  -3  -9  12   15.60    1.50
  -3  -9  12   12.50    1.50
  -3  -9  12   12.20    1.70
  -3  -9  12    5.90    4.50
  -3  -9  12   19.70    4.70
  -3  -9  12   15.90    2.20
  -3  -9  11  202.88    7.60
  -3  -9  11  170.58    6.20
  -3  -9  11  194.38    5.50
  -3  -9  11  188.18    6.50
  -3  -9  11  164.88    5.60
  -3  -9  11  232.58    7.10
  -3  -9  11  196.28    5.20
  -3  -9  10    1.00    1.10
  -3  -9  10    4.50    1.20
  -3  -9  10    3.20    3.70
  -3  -9  10    1.10    0.90
  -3  -9  10    4.80    4.40
  -3  -9   9   41.00    4.80
  -3  -9   9   29.10    2.60
  -3  -9   9   35.40    2.40
  -3  -9   9   40.40    3.80
  -3  -9   8   -2.60    3.50
  -3  -9   8    0.20    0.90
  -3  -9   8   -0.20    0.90
  -3  -9   7   20.10    2.30
  -3  -9   7   21.00    1.80
  -3  -9   6   42.70    2.50
  -3  -9   6   49.50    3.40
   3   9  -5  238.28   15.50
  -3  -9   5  262.77    6.50
  -3  -9   5  274.57    7.30
  -3  -9   5  296.27    8.40
  -3  -9   5  300.07    9.00
  -3  -9   4    0.50    0.90
  -3  -9   4   -0.20    0.60
  -3  -9   4    0.70    0.80
   3   9  -4    2.80    2.50
  -3  -9   4    0.40    0.90
  -3  -9   4   -0.40    1.20
  -3  -9   3    1.40    0.70
  -3  -9   3    1.90    1.00
  -3  -9   3    1.70    1.00
  -3  -9   3    3.10    1.40
   3   9  -2  255.67    6.60
  -3  -9   2  268.17    7.90
  -3  -9   2  268.67    8.90
  -3  -9   2  249.68    6.60
  -3  -9   1   39.70    2.60
  -3  -9   1   46.50    3.70
  -3  -9   1   39.50    2.50
   3   9  -1   44.60    2.80
  -3  -9   1   42.80    3.20
   3   9  -1   45.00    2.60
  -3  -9   0   31.70    2.40
   3   9   0   34.40    2.40
   3   9   0   33.50    2.50
   3   9   0   35.00    2.70
  -3  -9   0   36.20    3.10
  -3  -9   0   31.90    3.10
  -3  -9  -1   14.90    1.70
  -3  -9  -1   19.10    1.90
   3   9   1   16.10    1.70
   3   9   1   19.30    2.10
  -3  -9  -1   17.30    2.20
  -3  -9  -1   16.20    2.30
   3   9   1   19.90    2.20
   3   9   1   18.50    2.00
  -3  -9  -2   30.90    2.20
  -3  -9  -2   34.60    2.50
   3   9   2   29.90    2.50
   3   9   2   32.20    2.60
  -3  -9  -2   30.10    2.80
   3   9   2   32.40    2.60
  -3  -9  -2   31.70    2.80
   3   9   2   26.70    2.00
   3   9   3    7.70    1.60
  -3  -9  -3    5.90    1.10
  -3  -9  -3    8.50    1.40
   3   9   3    8.00    1.60
  -3  -9  -3    7.30    1.60
  -3  -9  -3    7.40    1.40
   3   9   3    8.20    1.50
   3   9   3    8.10    1.30
   3   9   3    6.20    1.10
   3   9   4    3.00    0.80
  -3  -9  -4    1.90    0.70
  -3  -9  -4    4.00    1.10
   3   9   4    2.70    1.10
   3   9   4    2.20    1.10
  -3  -9  -4    2.40    1.10
   3   9   4    3.00    1.10
   3   9   4    3.00    0.80
   3   9   5    0.60    0.60
  -3  -9  -5    1.40    0.60
   3   9   5    1.50    0.90
   3   9   5    0.70    0.70
  -3  -9  -5    0.40    0.80
   3   9   5    0.20    0.70
  -3  -9  -5    0.90    0.70
  -3  -9  -6    3.80    0.60
   3   9   6    3.30    0.80
   3   9   6    3.80    0.60
  -3  -9  -6    3.60    0.70
   3   9   6    3.90    0.80
   3   9   6    2.80    0.60
  -3 -10  14    1.50    2.40
  -3 -10  13   83.19    4.60
  -3 -10  13   77.69    3.00
  -3 -10  13   84.59    3.30
  -3 -10  13   73.69    2.60
  -3 -10  12    0.60    0.90
  -3 -10  12   -0.20    0.70
  -3 -10  12   -0.10    1.00
  -3 -10  12    2.10    4.10
  -3 -10  11    1.70    1.20
  -3 -10  11    2.10    1.10
  -3 -10  11    0.90    4.30
  -3 -10  11    2.90    1.10
  -3 -10  10   65.49    5.30
  -3 -10  10   78.89    4.10
  -3 -10  10   67.59    3.70
  -3 -10   9   24.70    2.50
  -3 -10   9   23.80    2.40
  -3 -10   8   52.79    3.50
  -3 -10   8   50.99    3.30
  -3 -10   7    0.20    0.90
  -3 -10   7    0.30    1.00
  -3 -10   7    0.70    0.80
  -3 -10   6   10.20    1.80
  -3 -10   6    8.80    1.20
  -3 -10   6   10.90    1.90
  -3 -10   6   10.00    1.50
  -3 -10   5   13.00    1.40
  -3 -10   5   13.90    1.80
  -3 -10   5   13.50    2.00
  -3 -10   5   13.10    2.10
  -3 -10   5   11.70    1.40
  -3 -10   4    2.10    0.80
  -3 -10   4    3.00    1.50
  -3 -10   4    3.00    1.30
  -3 -10   4    2.90    1.10
  -3 -10   4    3.30    1.00
  -3 -10   3    1.60    0.80
   3  10  -3    2.30    0.90
  -3 -10   3    1.40    0.80
  -3 -10   3    1.40    1.00
  -3 -10   3    1.00    1.20
  -3 -10   3    1.10    1.40
  -3 -10   2   17.30    1.70
  -3 -10   2   15.90    1.60
  -3 -10   2   20.30    2.40
   3  10  -2   18.10    1.70
   3  10  -2   19.40    1.80
  -3 -10   2   19.80    2.60
  -3 -10   2   21.30    2.30
  -3 -10   1   96.69    3.90
   3  10  -1  105.39    3.80
   3  10  -1  111.29    4.50
  -3 -10   1  104.39    4.90
  -3 -10   1  115.79    5.60
   3  10  -1  105.89    4.10
   3  10   0    7.30    1.20
   3  10   0    5.70    1.30
   3  10   0    7.50    1.50
  -3 -10   0    6.70    1.50
  -3 -10   0    7.40    1.80
   3  10   0    7.90    1.60
   3  10   1    9.30    1.40
   3  10   1   12.30    1.70
  -3 -10  -1   10.60    1.80
  -3 -10  -1   10.60    1.80
   3  10   1   13.10    1.80
   3  10   2    3.90    1.20
  -3 -10  -2    3.50    0.90
  -3 -10  -2    3.50    1.30
  -3 -10  -2    4.00    1.10
   3  10   2    3.40    1.20
   3  10   2    3.50    1.10
   3  10   3    1.90    0.90
  -3 -10  -3    2.60    0.80
   3  10   3    1.80    0.70
  -3 -10  -3    2.80    0.80
  -3 -10  -3    1.80    0.80
   3  10   3    1.80    0.90
   3  10   3    2.00    0.80
  -3 -10  -4    0.70    0.70
  -3 -10  -4    0.70    0.60
  -3 -10  -4    0.30    0.40
   3  10   4    1.20    0.70
   3  10   4    0.60    0.50
   3  10   4    1.40    0.70
   3  10   5    0.00    0.50
   3  10   5    0.20    0.60
  -3 -10  -5    0.50    0.50
  -3 -11  13   21.50    1.50
  -3 -11  13   19.80    1.10
  -3 -11  12   10.40    1.40
  -3 -11  12   10.60    1.40
  -3 -11  12   10.40    1.20
  -3 -11  11   -0.50    1.00
  -3 -11  11   -0.10    0.80
  -3 -11  11    0.30    1.00
  -3 -11  10   82.39    3.90
  -3 -11  10   82.99    4.10
  -3 -11  10   79.89    3.70
  -3 -11   9    0.40    1.10
  -3 -11   9    0.20    1.00
  -3 -11   8    1.60    1.20
  -3 -11   8    1.30    1.00
  -3 -11   7   20.60    1.90
  -3 -11   7   22.00    2.40
  -3 -11   6    3.20    0.90
  -3 -11   6    3.70    1.40
  -3 -11   6    3.90    1.20
  -3 -11   5    3.00    1.00
  -3 -11   5    2.60    0.80
  -3 -11   5    2.70    1.30
  -3 -11   5    2.50    1.30
  -3 -11   4    1.60    1.00
  -3 -11   4    0.80    0.60
  -3 -11   4    1.30    1.40
  -3 -11   4    1.20    1.20
  -3 -11   3   17.00    2.10
   3  11  -3   16.90    1.70
  -3 -11   3   17.90    2.30
  -3 -11   3   17.80    2.00
  -3 -11   2   57.29    3.40
  -3 -11   2   51.09    3.20
  -3 -11   2   45.70    2.40
   3  11  -2   48.40    2.70
  -3 -11   2   56.49    3.90
   3  11  -1   77.89    3.40
  -3 -11   1   85.79    4.10
   3  11  -1   72.59    3.00
  -3 -11   1   75.29    3.70
  -3 -11   1   90.09    4.60
   3  11  -1   84.59    3.90
   3  11   0    5.50    1.00
  -3 -11   0    5.30    1.30
  -3 -11   0    3.70    1.10
   3  11   0    6.10    1.20
  -3 -11   0    4.90    1.40
   3  11   0    4.60    1.30
   3  11   1    5.20    1.00
  -3 -11  -1    4.40    0.90
   3  11   1    6.20    1.10
  -3 -11  -1    5.70    1.20
   3  11   1    6.00    1.30
  -3 -11  -1    5.30    1.20
   3  11   1    5.80    1.10
   3  11   2    0.80    0.60
  -3 -11  -2    1.80    0.70
  -3 -11  -2    0.70    0.50
  -3 -11  -2    1.20    0.80
   3  11   2    0.70    0.70
   3  11   2    0.90    0.70
  -3 -11  -3   -0.30    0.60
   3  11   3    0.10    0.50
   3  11   3   -0.60    0.60
  -3 -12  12  118.49    3.50
  -3 -12  12  114.69    3.00
  -3 -12  11    5.10    1.00
  -3 -12  11    3.70    1.00
  -3 -12  11    4.60    0.90
  -3 -12  10   25.90    2.10
  -3 -12  10   27.80    2.00
  -3 -12  10   24.80    1.90
  -3 -12   9   -0.50    1.00
  -3 -12   9    0.40    0.80
  -3 -12   9    0.50    0.90
  -3 -12   8   11.60    1.40
  -3 -12   8   11.30    1.60
  -3 -12   7   20.80    2.10
  -3 -12   7   20.00    1.60
  -3 -12   6   23.70    2.20
  -3 -12   6   26.90    2.20
  -3 -12   5   14.20    1.80
  -3 -12   5   15.00    1.90
  -3 -12   4    7.80    1.30
  -3 -12   4    7.00    1.40
   3  12  -4    6.30    1.00
  -3 -12   4    8.10    1.60
  -3 -12   3    0.80    0.80
  -3 -12   3    0.40    0.90
  -3 -12   3    0.60    1.10
   3  12  -3    0.00    0.60
  -3 -12   2   23.70    1.90
   3  12  -2   20.90    1.50
  -3 -12   2   21.50    1.80
  -3 -12   2   28.70    2.40
   3  12  -2   27.40    2.10
  -3 -12   1    0.70    0.70
   3  12  -1    0.70    0.60
  -3 -12   1    1.00    0.90
  -3 -12   1    1.20    0.80
   3  12  -1    0.60    0.80
   3  12   0    4.50    0.70
  -3 -12   0    6.90    1.10
   3  12   0    6.70    1.00
  -3 -12   0    5.30    0.80
   3  12   0    6.90    1.10
  -3 -12   0    7.30    1.10
  -3 -12  -1   18.20    1.30
   3  12   1   17.00    1.30
  -3 -12  -1   17.90    1.20
   3  12   1   18.50    1.20
  -3 -13  11   32.40    1.60
  -3 -13  11   29.60    1.40
  -3 -13  10    5.00    0.90
  -3 -13  10    4.90    0.80
  -3 -13   9   15.60    1.40
  -3 -13   9   16.30    1.40
  -3 -13   8   40.50    2.10
  -3 -13   8   42.00    2.30
  -3 -13   7   35.10    1.90
  -3 -13   7   35.30    2.10
  -3 -13   6   26.10    1.50
  -3 -13   6   31.00    2.00
  -3 -13   6   31.00    1.90
  -3 -13   5    5.80    1.00
  -3 -13   5    5.20    1.10
   3  13  -5    6.20    0.90
  -3 -13   4    0.50    0.70
  -3 -13   4    0.60    0.80
   3  13  -4    0.20    0.60
  -3 -13   3    2.60    0.70
  -3 -13   3    4.30    1.00
   3  13  -3    3.80    0.80
  -3 -13   2    0.70    0.50
   3  13  -2    0.20    0.50
   3  13  -2    0.90    0.60
   3  13  -2    0.90    0.70
  -3 -13   2    0.30    0.70
   3  13  -1   29.40    1.40
   3  13  -1   31.90    1.50
   4 -14   1   20.80    1.30
  -4  14  -1   20.40    1.30
   4 -14   1   19.10    1.20
  -4  14  -1   22.70    1.40
  -4  14  -1   20.90    1.40
  -4  14  -1   24.50    1.70
  -4  14  -2   -1.10    0.70
   4 -14   2    0.30    0.60
   4 -14   2    0.10    0.50
  -4  14  -2    0.10    0.80
  -4  14  -2   -0.10    0.50
  -4  14  -2    0.40    0.80
   4 -14   2    0.20    0.40
   4 -14   3    9.90    0.90
   4 -14   3   12.40    1.20
  -4  14  -3   11.10    1.10
   4 -14   3   11.30    1.10
  -4  14  -3   12.00    1.40
   4 -14   4    1.70    0.50
   4 -14   4    1.30    0.70
  -4  14  -4    1.00    0.70
  -4  14  -5   -0.40    0.60
   4 -14   5    0.20    0.40
  -4  14  -5   -0.10    0.60
   4 -14   5    0.70    0.80
   4 -14   6   24.90    1.70
   4 -14   7    6.20    1.00
   4 -14   8   27.80    1.60
   4 -14   9    2.90    0.70
  -4  13   2    0.20    0.80
  -4  13   2   -0.10    0.70
   4 -13  -2    0.70    0.60
   4 -13  -2    0.30    0.40
  -4  13   2    0.30    0.60
   4 -13  -1   41.50    2.00
  -4  13   1   48.10    2.40
   4 -13  -1   37.30    1.80
  -4  13   1   36.30    1.70
  -4  13   1   45.10    2.50
  -4  13   1   47.60    2.50
  -4  13   1   41.60    2.00
  -4  13   0   14.10    1.50
   4 -13   0   11.80    1.30
   4 -13   0   10.70    1.20
  -4  13   0   13.70    1.60
  -4  13   0   13.60    1.70
  -4  13   0   11.50    1.20
  -4  13   0   12.10    1.40
   4 -13   1    0.70    0.80
  -4  13  -1    2.00    1.00
  -4  13  -1    0.90    0.90
   4 -13   1    0.90    0.80
  -4  13  -1    1.70    1.10
  -4  13  -1    1.00    0.60
   4 -13   2   29.60    2.20
  -4  13  -2   31.70    2.30
   4 -13   2   25.80    2.00
  -4  13  -2   28.20    2.10
  -4  13  -2   32.60    2.60
  -4  13  -3    0.90    0.80
   4 -13   3    1.00    0.90
  -4  13  -3    1.60    0.80
   4 -13   3    1.70    1.00
  -4  13  -3    1.70    1.10
  -4  13  -4    1.20    0.70
   4 -13   4    2.20    1.00
   4 -13   4    2.50    1.10
  -4  13  -4    2.60    1.10
   4 -13   5    2.40    1.10
   4 -13   5    1.80    0.90
   4 -13   5    2.80    1.10
  -4  13  -5    2.10    0.90
   4 -13   6   75.19    3.10
   4 -13   6   79.29    3.50
   4 -13   7    6.50    1.30
   4 -13   7    6.60    1.00
   4 -13   8    0.30    0.60
   4 -13   8   -0.30    0.80
   4 -13   9   64.69    2.30
   4 -13   9   72.29    3.00
   4 -13  10    5.90    0.90
   4 -13  11   42.30    1.80
  -4  12   4   13.90    1.30
   4 -12  -4   10.80    0.90
   4 -12  -3   46.60    2.10
  -4  12   3   49.70    2.50
   4 -12  -3   39.80    1.80
  -4  12   3   49.00    2.40
   4 -12  -3   39.40    1.60
  -4  12   3   52.79    2.80
  -4  12   3   51.99    2.50
  -4  12   2    6.60    1.40
  -4  12   2    7.40    1.30
   4 -12  -2    6.70    1.10
   4 -12  -2    6.10    0.90
  -4  12   2    6.30    1.50
   4 -12  -2    5.70    1.00
  -4  12   2    7.00    1.30
  -4  12   1   34.20    2.60
  -4  12   1   34.70    2.50
  -4  12   1   33.00    2.80
   4 -12  -1   28.30    2.00
   4 -12  -1   30.60    2.20
  -4  12   1   32.10    2.70
   4 -12  -1   30.80    1.90
  -4  12   1   30.30    2.30
  -4  12   0    0.10    1.10
   4 -12   0    0.10    0.90
  -4  12   0   -0.30    1.20
   4 -12   0    0.20    0.90
  -4  12   0    1.00    1.30
   4 -12   0   -0.10    0.70
  -4  12   0   -0.10    0.80
  -4  12  -1   11.40    1.70
  -4  12  -1   13.30    2.00
   4 -12   1    9.30    1.60
   4 -12   1    8.30    1.40
   4 -12   1    9.60    1.30
  -4  12  -1   10.40    1.40
  -4  12  -2    9.00    1.50
   4 -12   2    9.20    1.60
  -4  12  -2    6.20    1.40
   4 -12   2    9.00    1.50
   4 -12   2    9.00    1.30
  -4  12  -3   18.50    1.90
   4 -12   3   16.20    1.60
   4 -12   3   16.60    2.00
  -4  12  -3   14.80    1.80
   4 -12   3   17.10    2.00
  -4  12  -4    1.60    0.90
   4 -12   4    0.80    1.10
   4 -12   4    2.00    1.20
   4 -12   4    1.60    0.90
   4 -12   5    8.40    1.70
   4 -12   5    8.70    1.70
   4 -12   6    6.50    1.30
   4 -12   6    8.60    1.60
   4 -12   7   77.79    3.60
   4 -12   7   82.49    4.00
   4 -12   8   13.30    1.60
   4 -12   8   11.50    1.70
   4 -12   8   12.80    1.30
   4 -12   9   -0.50    1.00
   4 -12   9   -0.20    0.60
   4 -12   9    0.00    0.70
   4 -12   9   -1.60    0.70
   4 -12  10   30.60    1.80
   4 -12  10   31.10    2.10
   4 -12  10   26.00    1.50
   4 -12  11   -0.20    0.70
   4 -12  11    1.50    0.70
   4 -12  12    9.80    1.00
   4 -12  12   28.60    1.30
  -4  11   5    8.40    1.20
   4 -11  -5    7.50    0.90
  -4  11   5    6.80    0.80
   4 -11  -5    6.40    0.80
  -4  11   4   34.10    2.40
   4 -11  -4   31.30    1.90
  -4  11   4   33.10    2.50
  -4  11   4   27.70    1.70
  -4  11   4   32.60    2.10
   4 -11  -4   31.00    1.80
  -4  11   4   33.30    2.40
  -4  11   3    5.60    1.60
  -4  11   3    7.00    1.50
   4 -11  -3    5.30    1.10
  -4  11   3    6.40    1.40
   4 -11  -3    7.00    1.10
  -4  11   3    5.40    1.40
  -4  11   2   12.30    1.90
   4 -11  -2   11.10    1.60
  -4  11   2   14.00    1.70
  -4  11   2   13.20    2.10
  -4  11   2   14.90    2.10
   4 -11  -2   15.00    1.60
  -4  11   2   14.00    1.90
  -4  11   1    3.90    1.40
   4 -11  -1    4.60    1.30
  -4  11   1    5.60    1.80
   4 -11  -1    4.60    1.10
  -4  11   1    5.10    1.40
  -4  11   0   10.30    1.80
  -4  11   0   10.10    2.00
   4 -11   0   12.00    1.80
   4 -11   0   10.40    1.50
  -4  11   0   10.10    1.60
   4 -11   1  150.68    5.50
  -4  11  -1  157.58    5.90
   4 -11   1  153.28    5.70
  -4  11  -1  157.98    6.40
   4 -11   1  166.38    5.50
  -4  11  -1  150.08    5.40
  -4  11  -2   25.30    2.40
   4 -11   2   22.70    2.30
  -4  11  -2   26.80    2.60
   4 -11   2   23.00    2.30
   4 -11   2   25.10    2.20
   4 -11   3    6.80    1.50
  -4  11  -3    6.70    1.40
   4 -11   3    6.30    1.40
  -4  11  -3    7.70    1.50
   4 -11   3    7.90    1.40
   4 -11   4   76.29    3.70
   4 -11   4   69.49    3.80
   4 -11   4   72.39    4.00
   4 -11   5    8.80    1.70
   4 -11   5   11.50    1.90
   4 -11   5   12.80    1.70
   4 -11   6   80.19    4.10
   4 -11   6   78.19    3.70
   4 -11   6   73.49    3.80
   4 -11   6   76.39    4.20
   4 -11   7   91.39    3.70
   4 -11   7   85.09    4.00
   4 -11   7   91.99    4.40
   4 -11   8   28.00    2.30
   4 -11   8   29.60    2.60
   4 -11   8   32.40    2.30
   4 -11   9    8.40    1.40
   4 -11   9   10.20    1.70
   4 -11   9    8.70    1.30
   4 -11   9    6.30    1.00
   4 -11  10   14.50    1.60
   4 -11  10   14.00    1.70
   4 -11  10   16.60    1.70
   4 -11  10   12.40    1.40
   4 -11  11   26.80    1.90
   4 -11  11   25.60    1.80
   4 -11  11   25.80    2.10
   4 -11  12   14.00    1.40
   4 -11  12   15.20    1.30
   4 -11  13   34.70    1.60
   4 -10  -7    4.70    0.60
   4 -10  -7    4.40    0.60
  -4  10   7    6.40    1.10
  -4  10   6   18.10    1.70
   4 -10  -6   15.50    1.30
  -4  10   6   16.00    1.40
  -4  10   5   11.60    1.70
   4 -10  -5    9.60    1.30
  -4  10   5   11.60    1.40
  -4  10   5   11.50    1.40
  -4  10   5    9.80    1.60
  -4  10   5   12.10    1.70
  -4  10   4    4.60    1.40
  -4  10   4    2.80    1.10
  -4  10   4    4.20    1.60
   4 -10  -4    3.00    1.00
  -4  10   4    3.40    1.00
  -4  10   4    2.70    1.40
  -4  10   3   55.39    3.60
  -4  10   3   53.19    3.80
   4 -10  -3   54.19    3.10
  -4  10   3   50.59    2.90
  -4  10   3   52.09    3.50
  -4  10   3   53.99    3.20
  -4  10   3   55.69    3.60
  -4  10   2   95.59    4.80
   4 -10  -2   93.09    4.20
  -4  10   2   88.59    4.60
  -4  10   2   88.89    5.00
   4 -10  -1   32.60    2.40
   4 -10  -1   39.80    2.90
  -4  10   1   42.60    3.50
   4 -10  -1   48.30    3.10
  -4  10   1   40.60    3.10
  -4  10   1   41.70    3.20
   4 -10   0    5.50    1.30
   4 -10   0    5.40    1.30
  -4  10   0    4.80    1.50
   4 -10   0    5.60    1.50
   4 -10   0    5.10    1.30
  -4  10   0    4.90    1.30
   4 -10   1   89.99    4.30
  -4  10  -1  106.89    4.80
   4 -10   1   99.79    4.60
   4 -10   1  105.09    5.20
   4 -10   1  113.89    4.70
  -4  10  -1   98.09    4.30
   4 -10   2   19.00    2.10
   4 -10   2   17.80    2.00
   4 -10   2   18.60    2.30
   4 -10   2   20.70    2.10
   4 -10   3   25.30    2.40
   4 -10   3   23.40    2.30
   4 -10   3   30.40    2.50
   4 -10   4  147.29    5.70
   4 -10   4  141.99    5.50
   4 -10   4  151.98    5.50
   4 -10   5   14.10    1.70
   4 -10   5   13.50    1.90
   4 -10   5   13.80    1.90
   4 -10   5   14.90    1.60
   4 -10   6  112.99    4.30
   4 -10   6  108.99    4.40
   4 -10   6  104.39    4.90
   4 -10   6   96.69    4.50
   4 -10   6  105.49    4.10
   4 -10   6  107.29    4.80
   4 -10   6  109.99    4.70
   4 -10   7   15.00    2.10
   4 -10   7   13.60    1.60
   4 -10   7   10.60    1.70
   4 -10   7   15.00    1.80
   4 -10   8    8.20    1.60
   4 -10   8   10.40    1.60
   4 -10   8    9.70    1.70
   4 -10   9   36.50    2.80
   4 -10   9   32.20    2.60
   4 -10  10   44.00    2.20
   4 -10  10   43.00    2.80
   4 -10  11   27.30    2.20
   4 -10  11   27.00    1.70
   4 -10  11   30.40    2.40
   4 -10  11   29.50    2.20
   4 -10  12    6.60    0.90
   4 -10  12    7.20    1.30
   4 -10  12    7.80    1.20
   4 -10  13   18.30    1.40
   4 -10  13    7.50    0.70
  -4   9   8   29.80    1.70
  -4   9   8   30.60    1.90
  -4   9   7   24.30    1.80
   4  -9  -7   22.60    1.50
   4  -9  -7   26.30    1.50
  -4   9   7   24.70    1.90
  -4   9   6    2.40    1.10
   4  -9  -6    1.50    0.80
  -4   9   6    1.60    1.20
  -4   9   6    1.80    0.90
   4  -9  -6    1.40    0.70
  -4   9   6    1.70    0.90
  -4   9   5   35.80    2.50
   4  -9  -5   40.50    2.60
  -4   9   5   42.50    2.90
   4  -9  -5   45.00    2.50
  -4   9   5   40.80    3.10
  -4   9   5   39.80    3.00
   4  -9  -5   34.00    2.40
  -4   9   5   38.40    2.70
  -4   9   5   39.60    3.20
   4  -9  -4   13.80    1.80
  -4   9   4   15.90    2.20
  -4   9   4   14.50    2.20
   4  -9  -4   17.90    1.70
   4  -9  -4   14.80    1.80
  -4   9   4   14.40    1.70
  -4   9   4   14.40    1.80
  -4   9   4   15.60    2.00
  -4   9   4   15.30    2.10
   4  -9  -3   24.80    2.30
   4  -9  -3   24.40    2.30
  -4   9   3   27.00    2.70
   4  -9  -3   30.80    2.20
  -4   9   3   25.60    2.80
  -4   9   3   30.10    2.60
  -4   9   3   27.40    2.70
  -4   9   3   26.20    2.30
  -4   9   3   27.50    2.70
  -4   9   2    7.20    1.60
   4  -9  -2    6.20    1.40
  -4   9   2    6.60    1.70
   4  -9  -2    6.80    1.60
  -4   9   1    6.70    1.50
   4  -9  -1    7.30    1.30
   4  -9  -1    7.50    1.70
   4  -9  -1    7.90    1.50
  -4   9   1    8.00    1.60
  -4   9   0  112.89    4.90
   4  -9   0   99.39    4.30
   4  -9   0  109.09    4.70
   4  -9   0  111.79    5.20
  -4   9   0  110.59    4.60
  -4   9  -1   30.50    5.90
   4  -9   1   33.00    2.50
   4  -9   1   34.00    2.60
  -4   9  -1   38.10    6.50
   4  -9   1   27.10    4.40
   4  -9   1   36.60    3.00
   4  -9   1   44.30    2.90
  -4   9  -1   35.30    2.50
  -4   9  -2  115.59   11.00
   4  -9   2  101.69    4.50
   4  -9   2  114.69    5.10
   4  -9   2  124.09    4.80
   4  -9   3    1.90    0.80
   4  -9   3    1.40    0.80
   4  -9   3    3.10    1.00
  -4   9  -3    4.10    3.10
   4  -9   3    1.50    0.90
   4  -9   3    1.10    1.30
   4  -9   3    1.40    0.90
   4  -9   4  227.58    6.70
   4  -9   4  233.18    7.00
   4  -9   4  240.38    6.20
   4  -9   4  236.68    6.80
   4  -9   5   62.09    3.10
   4  -9   5   57.59    3.00
   4  -9   5   59.29    3.50
   4  -9   5   59.49    3.40
   4  -9   5   54.89    5.50
   4  -9   5   56.89    3.30
   4  -9   6    7.50    1.40
   4  -9   6    9.10    2.40
   4  -9   6    9.80    1.50
   4  -9   6    8.40    1.50
   4  -9   6   10.30    1.70
   4  -9   6    8.70    1.30
   4  -9   6   11.40    1.50
   4  -9   6    7.10    1.40
   4  -9   7    1.60    1.00
   4  -9   7    1.70    1.10
   4  -9   7   -0.10    1.10
   4  -9   7    2.20    1.00
   4  -9   7    1.90    0.90
   4  -9   7    2.30    1.00
   4  -9   8    8.30    1.20
   4  -9   8    8.80    1.50
   4  -9   8    9.20    1.70
   4  -9   8    9.60    1.50
   4  -9   8    8.40    1.50
   4  -9   9   19.10    2.10
   4  -9   9   19.70    1.70
   4  -9   9   20.40    2.20
   4  -9   9   19.40    2.10
   4  -9   9   24.70    2.30
   4  -9  10   23.90    2.30
   4  -9  10   21.90    1.80
   4  -9  10   26.30    2.50
   4  -9  10   29.90    2.50
   4  -9  11   -1.50    0.90
   4  -9  11   -0.30    1.10
   4  -9  11    0.20    0.90
   4  -9  12    0.30    0.90
   4  -9  12   -0.40    1.00
   4  -9  12   -0.70    0.80
   4  -9  13    9.50    1.10
   4  -9  13    7.20    1.10
   4  -9  14   35.90    1.40
   4  -9  14   32.60    1.50
   4  -8  -9    3.70    0.60
   4  -8  -9    2.20    0.50
  -4   8   9    2.70    0.80
  -4   8   9    2.70    0.80
   4  -8  -8    0.20    0.60
  -4   8   8    0.70    0.90
   4  -8  -8   -0.50    0.70
   4  -8  -7   31.70    2.10
  -4   8   7   38.70    2.70
   4  -8  -7   44.20    2.50
  -4   8   7   38.90    2.70
  -4   8   7   38.60    2.70
   4  -8  -7   35.80    2.20
  -4   8   6   31.80    2.80
   4  -8  -6   37.10    2.50
  -4   8   6   33.60    2.80
   4  -8  -6   29.00    2.20
  -4   8   6   33.70    2.60
  -4   8   6   32.20    2.60
   4  -8  -6   31.10    2.30
  -4   8   6   36.80    3.00
  -4   8   5    0.10    1.10
   4  -8  -5   -0.10    0.80
   4  -8  -5    0.10    0.90
  -4   8   5   -0.60    1.20
   4  -8  -5   -0.20    0.90
  -4   8   5   -0.30    0.90
  -4   8   5    0.40    0.90
  -4   8   5    1.10    1.00
  -4   8   5    0.50    1.10
  -4   8   4    0.30    1.10
  -4   8   4   -0.10    1.20
   4  -8  -4    1.20    1.00
   4  -8  -4    0.10    0.80
  -4   8   4    0.80    1.10
  -4   8   4    0.00    0.80
  -4   8   4    0.60    0.80
  -4   8   4   -0.10    1.00
   4  -8  -4    0.10    0.90
   4  -8  -3   31.70    2.40
   4  -8  -3   24.80    2.20
  -4   8   3   27.20    2.80
   4  -8  -3   24.70    2.30
  -4   8   3   22.20    2.00
  -4   8   3   25.40    2.60
  -4   8   3   25.70    2.50
  -4   8   2   69.69    8.00
   4  -8  -2   79.19    3.80
   4  -8  -2   69.99    3.70
  -4   8   2   69.89    7.40
   4  -8  -2   73.79    4.00
  -4   8   2   77.59    4.10
  -4   8   2   71.99    3.90
   4  -8  -1  324.47    8.20
  -4   8   1  368.26   18.30
   4  -8  -1  353.06    8.20
  -4   8   1  342.17   15.60
  -4   8   1  345.67    8.60
   4  -8  -1  335.07    8.80
  -4   8   1  331.47    8.30
  -4   8   0   11.10    3.50
   4  -8   0   14.90    1.60
   4  -8   0   17.30    2.00
   4  -8   0   13.10    3.00
   4  -8   1   25.20    4.10
  -4   8  -1   30.80    5.40
   4  -8   2   58.89    6.00
  -4   8  -2  187.38   16.70
  -4   8  -3   98.99   14.00
   4  -8   3  166.78    9.80
   4  -8   4   13.80    2.70
   4  -8   4   12.30    2.90
   4  -8   5   26.40    3.90
   4  -8   5   28.00    2.30
   4  -8   5   24.70    2.10
   4  -8   5   21.60    3.60
   4  -8   6   19.30    1.90
   4  -8   6   16.50    1.80
   4  -8   6   18.10    1.90
   4  -8   6   15.40    3.20
   4  -8   6   15.80    1.70
   4  -8   6   17.70    2.00
   4  -8   6   16.30    1.60
   4  -8   6   17.20    1.90
   4  -8   6   15.70    1.80
   4  -8   7    1.40    1.00
   4  -8   7    1.40    1.00
   4  -8   7    4.20    1.80
   4  -8   7    1.20    0.90
   4  -8   7    0.70    0.90
   4  -8   7    1.00    0.80
   4  -8   7    1.10    0.80
   4  -8   7    1.00    0.70
   4  -8   8  195.58    6.60
   4  -8   8  193.38    5.60
   4  -8   8  241.38    7.10
   4  -8   8  215.68    6.60
   4  -8   8  253.97    7.00
   4  -8   8  223.48    6.90
   4  -8   9   55.39    3.00
   4  -8   9   61.49    3.60
   4  -8   9   70.69    3.80
   4  -8   9   59.79    3.60
   4  -8   9   64.19    3.70
   4  -8  10    2.60    1.00
   4  -8  10    2.60    1.30
   4  -8  10    3.00    1.30
   4  -8  10    2.50    1.00
   4  -8  11    0.50    1.00
   4  -8  11    0.10    1.10
   4  -8  11    0.20    0.70
   4  -8  12   46.30    2.50
   4  -8  12   37.80    2.50
   4  -8  13   21.30    1.70
   4  -8  13   23.10    1.70
   4  -8  14   50.19    1.90
   4  -8  14   54.49    2.00
  -4   7  10   58.79    2.50
   4  -7 -10   61.79    2.10
  -4   7   9   22.20    1.50
   4  -7  -9   30.00    1.90
   4  -7  -9   24.20    1.50
  -4   7   9   29.20    2.20
  -4   7   9   30.00    2.40
   4  -7  -8   51.89    2.50
   4  -7  -8   55.59    2.70
   4  -7  -8   70.19    3.20
  -4   7   8   61.29    3.40
  -4   7   8   64.99    3.60
   4  -7  -7    1.00    0.70
  -4   7   7    0.30    0.90
   4  -7  -7    0.90    0.70
   4  -7  -7    1.10    0.90
  -4   7   7    1.50    1.20
  -4   7   7    0.70    1.10
  -4   7   7    1.10    1.20
   4  -7  -6  110.99    4.40
  -4   7   6  113.69    5.20
   4  -7  -6  116.19    4.50
  -4   7   6  120.69    5.40
  -4   7   6  117.79    5.10
  -4   7   6  121.79    5.10
   4  -7  -6  112.29    4.80
   4  -7  -6  105.89    4.50
  -4   7   6  116.29    5.30
   4  -7  -5   12.20    1.70
   4  -7  -5   15.70    1.80
   4  -7  -5   14.90    1.80
  -4   7   5   13.30    2.00
  -4   7   5   12.60    2.00
  -4   7   5   12.60    1.80
  -4   7   5   11.70    1.70
  -4   7   5   12.80    1.90
   4  -7  -5   12.40    1.60
   4  -7  -5    6.50    1.70
  -4   7   5   14.10    2.00
   4  -7  -4    6.00    1.30
   4  -7  -4    4.20    1.70
   4  -7  -4    8.80    1.40
  -4   7   4    5.80    1.30
   4  -7  -4    6.30    1.20
  -4   7   4    5.50    1.30
   4  -7  -4    7.00    1.30
  -4   7   4    6.50    1.50
  -4   7   4   10.10    3.30
  -4   7   4    7.40    1.30
  -4   7   4    7.00    1.30
  -4   7   4    0.00    1.60
  -4   7   4    7.00    1.50
   4  -7  -4    3.60    1.40
  -4   7   4    5.10    1.30
   4  -7  -3   47.30    2.90
   4  -7  -3   43.80    2.90
  -4   7   3   43.70    6.40
   4  -7  -3   40.60    5.00
   4  -7  -3   49.90    2.90
   4  -7  -3   60.19    3.10
  -4   7   3   48.60    3.10
  -4   7   3   45.00    2.70
   4  -7  -3   48.30    3.00
  -4   7   3   47.50    6.40
  -4   7   3   45.50    3.10
   4  -7  -2    4.40    1.90
  -4   7   2    1.30    2.80
   4  -7  -2    3.50    1.80
  -4   7   2    7.00    2.90
   4  -7  -1    0.10    1.40
   4  -7  -1    1.40    1.30
  -4   7   0   56.39    6.90
  -4   7   0   51.29    6.20
   4  -7   0   47.30    4.90
   4  -7   0   47.10    5.20
   4  -7   1   49.99    5.30
  -4   7  -1   54.19    6.40
   4  -7   2  159.68    9.20
  -4   7  -2  171.08   10.80
   4  -7   3   43.00    4.70
   4  -7   3   38.90    3.90
  -4   7  -3   47.70    5.60
   4  -7   4   88.59    6.40
   4  -7   4   84.39    6.60
  -4   7  -4   92.69    7.50
  -4   7  -5    4.70    2.10
   4  -7   5    2.80    1.60
   4  -7   5    3.90    1.70
  -4   7  -6  133.19   12.40
   4  -7   6  405.36   15.50
   4  -7   7   47.60    3.00
  -4   7  -7   47.10    6.90
   4  -7   7   53.59    5.90
   4  -7   7   48.60    2.90
   4  -7   7   41.70    2.70
   4  -7   7   39.50    2.90
   4  -7   7   43.10    2.50
   4  -7   7   51.29    2.90
  -4   7  -8  100.89   10.10
   4  -7   8   84.69    4.10
   4  -7   8   74.99    3.50
   4  -7   8   70.19    3.40
   4  -7   8   74.29    4.00
   4  -7   8   86.09    4.00
   4  -7   8   71.19    3.70
   4  -7   8   86.69    4.00
   4  -7   9   49.00    3.00
   4  -7   9   51.99    3.40
   4  -7   9   54.79    3.30
   4  -7   9   43.80    3.20
   4  -7   9   58.59    3.50
   4  -7   9   43.50    2.70
   4  -7  10   17.00    2.00
   4  -7  10   15.50    1.80
   4  -7  10   18.30    1.80
   4  -7  10   19.30    2.20
   4  -7  10   19.80    2.20
   4  -7  11   38.60    2.80
   4  -7  11   44.60    3.10
   4  -7  11   38.30    2.60
   4  -7  11   33.80    2.50
   4  -7  12    1.30    1.10
   4  -7  12    1.20    1.00
   4  -7  12    4.20    1.10
   4  -7  13   83.39    3.20
   4  -7  13   80.99    3.10
   4  -7  13   81.99    3.00
   4  -7  14   13.20    1.10
   4  -7  14   12.80    1.10
   4  -6 -11    1.50    0.60
  -4   6  11    1.60    0.80
   4  -6 -10   84.09    2.60
   4  -6 -10  109.79    3.60
  -4   6  10   87.59    2.90
  -4   6  10  103.89    4.00
  -4   6  10  104.89    3.90
  -4   6   9    3.50    1.40
   4  -6  -9    3.80    0.80
   4  -6  -9    4.90    1.30
  -4   6   9    4.90    1.40
   4  -6  -8   11.40    1.30
   4  -6  -8   15.00    1.60
  -4   6   8   14.90    2.10
   4  -6  -8   17.70    2.00
  -4   6   8   14.20    2.00
   4  -6  -7    2.40    0.80
   4  -6  -7    3.10    1.00
   4  -6  -7    4.90    1.30
  -4   6   7    4.30    1.40
  -4   6   7    2.60    1.30
  -4   6   7    5.30    1.40
  -4   6   7    2.70    1.30
   4  -6  -7    1.10    1.90
   4  -6  -6   20.30    1.90
   4  -6  -6   19.10    1.90
   4  -6  -6   24.50    2.20
  -4   6   6   20.10    2.30
  -4   6   6   22.70    2.30
  -4   6   6   21.90    2.30
  -4   6   6   20.80    2.30
   4  -6  -6   23.40    2.60
  -4   6   6   20.80    2.40
  -4   6   5  346.67    9.10
   4  -6  -5  324.67    8.10
  -4   6   5  350.76   18.00
  -4   6   5  355.66    8.70
  -4   6   5  351.56    9.30
   4  -6  -5  301.97   13.30
   4  -6  -5  341.87    8.90
  -4   6   5  372.16   18.50
   4  -6  -5  326.17    7.80
  -4   6   5  340.67    8.60
  -4   6   5  342.27    8.50
  -4   6   5  342.97    8.80
   4  -6  -5  417.96    9.00
   4  -6  -5  400.56    9.20
  -4   6   5  345.37    9.10
  -4   6   4   10.00    3.40
   4  -6  -4   11.00    1.50
   4  -6  -4    9.60    1.30
   4  -6  -4   12.10    1.40
  -4   6   4   10.80    1.50
   4  -6  -4   15.50    1.70
  -4   6   4   10.40    1.70
  -4   6   4   10.70    3.30
   4  -6  -4    8.70    2.60
   4  -6  -4   13.40    1.80
  -4   6   4   11.90    1.60
  -4   6   3    8.80    3.10
   4  -6  -3    4.70    2.00
   4  -6  -3    4.40    1.80
  -4   6   3    7.70    2.80
   4  -6  -2   13.00    2.80
   4  -6  -2   14.80    3.00
  -4   6   2   16.60    3.80
  -4   6   1    2.00    2.50
  -4   6   1    1.90    1.50
   4  -6  -1    1.40    1.30
  -4   6   1    3.20    3.10
   4  -6  -1    2.80    1.60
  -4   6   0   46.40    6.00
   4  -6   0   45.20    4.40
   4  -6   0   42.50    4.50
   4  -6   1  263.47   10.30
   4  -6   1  266.67   11.20
  -4   6  -1  288.87   13.90
  -4   6  -2   11.10    3.00
   4  -6   2    9.30    1.80
   4  -6   2    8.90    2.40
   4  -6   3   17.90    2.70
  -4   6  -3   16.80    3.40
   4  -6   3   17.90    3.00
   4  -6   4   51.09    4.80
   4  -6   4   50.49    4.80
  -4   6  -4   56.59    5.60
   4  -6   5   36.70    4.50
  -4   6  -5   33.00    5.10
   4  -6   5   34.70    4.00
  -4   6  -5   37.20    4.60
  -4   6  -6    1.70    1.90
  -4   6  -6    1.80    1.70
   4  -6   6    0.00    1.30
   4  -6   6    0.70    0.90
  -4   6  -7   65.49    7.20
   4  -6   7   58.09    6.30
  -4   6  -7   45.40    5.10
  -4   6  -8  152.48   10.70
   4  -6   8  145.39    5.30
   4  -6   8  159.98    5.40
   4  -6   8  133.19    4.80
   4  -6   8  121.69    4.40
   4  -6   8  151.78   10.60
   4  -6   8  149.19    5.20
   4  -6   8  121.39    4.90
   4  -6   8  135.09    4.50
   4  -6   9    8.70    1.50
   4  -6   9    8.80    1.60
   4  -6   9    7.40    1.40
   4  -6   9    7.20    1.30
   4  -6   9    9.50    1.70
   4  -6   9    8.40    1.40
   4  -6  10   24.00    2.30
   4  -6  10   20.80    2.10
   4  -6  10   28.40    2.60
   4  -6  10   23.90    2.20
   4  -6  10   24.00    2.40
   4  -6  11    8.60    1.50
   4  -6  11   11.50    1.80
   4  -6  11   10.30    1.60
   4  -6  11   13.40    2.00
   4  -6  12    4.30    1.20
   4  -6  12    2.30    0.90
   4  -6  12    1.10    1.10
   4  -6  13   -0.90    0.90
   4  -6  13    0.30    0.90
   4  -6  13   -0.10    0.70
   4  -6  13   -2.60    1.00
   4  -6  14   11.50    1.10
   4  -6  14   20.60    1.40
   4  -5 -12   16.80    1.10
  -4   5  12   15.00    1.30
   4  -5 -11   37.40    2.10
  -4   5  11   30.20    1.70
  -4   5  11   36.60    2.40
   4  -5 -11    2.30    2.00
   4  -5 -11   -2.50    2.80
   4  -5 -10    0.30    0.50
  -4   5  10    0.50    0.60
  -4   5  10   -0.20    1.10
   4  -5 -10    0.70    1.00
  -4   5  10    0.60    0.90
   4  -5  -9    4.70    1.30
  -4   5   9    2.90    1.30
   4  -5  -8  104.99    4.80
   4  -5  -8  108.69    4.60
  -4   5   8   94.19    4.70
  -4   5   8   93.79    4.80
  -4   5   7   66.19    3.90
   4  -5  -7   75.09    3.80
  -4   5   7   69.39    3.90
  -4   5   7   66.59    3.90
   4  -5  -7   74.79    4.00
  -4   5   7   68.59    4.00
  -4   5   6   76.69    4.00
   4  -5  -6   92.49    4.00
   4  -5  -6   70.89    3.20
   4  -5  -6   70.99    3.30
   4  -5  -6   62.49    5.90
  -4   5   6   82.69    4.10
  -4   5   6   72.19    8.40
  -4   5   6   78.79    4.00
  -4   5   6   74.49    3.90
   4  -5  -6   92.49    4.20
  -4   5   6   73.49    4.00
  -4   5   5   45.80    6.30
   4  -5  -5   36.10    4.40
  -4   5   5   44.30    6.40
   4  -5  -4    7.20    2.20
   4  -5  -4    6.10    1.80
  -4   5   4    5.20    2.60
  -4   5   4    8.50    3.10
   4  -5  -3   36.20    4.20
   4  -5  -3   34.80    4.00
  -4   5   3   43.60    5.90
   4  -5  -2  105.99    6.70
   4  -5  -2   96.69    6.40
   4  -5  -1   52.29    4.50
  -4   5   1   53.09    6.30
   4  -5  -1   44.70    4.40
  -4   5   0   -0.50    2.20
   4  -5   0   -0.30    1.30
   4  -5   0    0.10    1.10
   4  -5   1  596.84   14.30
   4  -5   1  590.54   12.30
  -4   5  -1  626.34   19.00
   4  -5   1  569.74   15.60
   4  -5   2   47.70    3.80
   4  -5   2   48.50    4.40
   4  -5   2   52.19    3.90
  -4   5  -2   47.90    5.10
   4  -5   3   83.69    5.80
   4  -5   3   80.19    5.40
  -4   5  -3   87.09    6.40
  -4   5  -4    7.10    2.70
   4  -5   4    6.30    1.90
  -4   5  -4    6.00    2.10
   4  -5   4    7.70    2.10
  -4   5  -5    4.00    2.10
  -4   5  -5    3.20    1.90
   4  -5   5    4.00    1.90
   4  -5   5    4.00    1.60
   4  -5   6  369.36   12.50
   4  -5   6  400.36   15.70
  -4   5  -6  360.06   13.90
  -4   5  -7   25.20    4.10
  -4   5  -7   15.30    3.10
   4  -5   7   22.50    4.10
   4  -5   8  107.29    4.10
   4  -5   8  117.99    4.60
   4  -5   8  133.29    5.00
   4  -5   8  134.69   10.00
   4  -5   8  137.59    4.80
   4  -5   8  124.39    4.90
   4  -5   8  115.19    4.30
  -4   5  -8  123.49    8.60
  -4   5  -8  136.89    9.70
  -4   5  -9   -0.90    1.70
   4  -5   9    1.80    1.10
   4  -5   9    1.40    0.80
  -4   5  -9   -0.30    1.50
   4  -5   9    3.00    1.10
   4  -5   9    2.20    1.20
   4  -5   9    1.30    0.80
   4  -5   9    2.50    1.10
   4  -5  10   19.30    2.10
   4  -5  10   18.40    2.00
   4  -5  10   16.40    1.90
   4  -5  11   16.30    2.00
   4  -5  11   11.90    1.70
   4  -5  11   13.50    2.00
   4  -5  12    3.40    1.00
   4  -5  12    2.10    1.10
   4  -5  12   -0.10    1.20
   4  -5  13   73.19    3.30
   4  -5  13   76.69    2.90
   4  -5  14    2.90    0.90
  -4   5 -14   -0.80    0.60
   4  -4 -12    1.30    0.70
  -4   4  12    0.80    0.80
   4  -4 -11  457.35    7.80
  -4   4  11    3.80    0.90
   4  -4 -11    5.60    1.30
   4  -4 -11  394.16    5.50
  -4   4  11    4.00    1.40
   4  -4 -10   90.19    4.00
  -4   4  10   68.49    3.40
  -4   4  10   82.09    4.40
   4  -4 -10   80.09    4.00
  -4   4  10   76.29    4.30
   4  -4  -9    7.20    1.50
  -4   4   9    6.60    1.70
   4  -4  -9    9.10    2.10
  -4   4   8   26.30    2.60
  -4   4   8   26.90    2.60
   4  -4  -8   28.80    2.60
   4  -4  -7  101.69    7.30
  -4   4   7  127.79   11.00
  -4   4   7  122.69    5.10
  -4   4   7  117.89    5.00
   4  -4  -7  126.69    4.90
  -4   4   7  117.09    5.00
  -4   4   7  123.39    4.60
  -4   4   6   88.79    8.70
   4  -4  -6   76.89    6.30
  -4   4   6   98.19    9.20
  -4   4   5    8.10    3.10
   4  -4  -5    6.00    2.10
  -4   4   5    7.60    2.80
  -4   4   4   25.30    4.40
  -4   4   4   28.50    4.60
   4  -4  -4   25.50    3.50
   4  -4  -4   22.10    3.00
   4  -4  -3  471.15   14.30
   4  -4  -3  447.16   13.30
   4  -4  -2  112.59    6.40
   4  -4  -2  107.99    6.20
  -4   4   2  119.29    9.20
   4  -4  -1  450.05   13.10
  -4   4   1  470.15   18.70
   4  -4  -1  481.25   13.10
  -4   4   1  489.05   17.50
  -4   4   0    2.50    2.20
   4  -4   0    2.90    1.30
   4  -4   0    3.40    1.70
   4  -4   0    2.70    0.90
   4  -4   1  331.67    9.30
   4  -4   1  338.47   11.10
  -4   4  -1  357.66   13.00
   4  -4   2   76.49    4.10
   4  -4   2   68.99    4.70
   4  -4   2   69.09    5.00
  -4   4  -2   75.09    5.90
  -4   4  -3  197.68   10.30
   4  -4   3  176.38    8.20
  -4   4  -3  179.18    8.70
  -4   4  -4    1.10    1.50
  -4   4  -4   -0.10    1.50
   4  -4   4    0.90    1.30
  -4   4  -4    0.40    1.30
  -4   4  -5   16.70    3.00
   4  -4   5   16.30    3.10
  -4   4  -5   14.90    2.80
  -4   4  -5   15.30    2.80
   4  -4   6  294.37   13.50
   4  -4   6  279.47   10.60
  -4   4  -6  278.57   12.00
  -4   4  -6  298.47   12.50
   4  -4   7   21.00    4.20
  -4   4  -7   18.80    3.50
  -4   4  -7   21.40    3.50
  -4   4  -7   23.70    3.80
  -4   4  -8   16.20    3.40
   4  -4   8   12.70    1.50
  -4   4  -8   15.00    3.20
   4  -4   8   16.50    3.90
   4  -4   8   19.90    2.00
   4  -4   8   18.40    1.80
   4  -4   8   18.90    2.00
   4  -4   8   12.50    1.70
  -4   4  -8   11.30    3.10
   4  -4   9   16.90    2.10
  -4   4  -9   12.20    3.20
   4  -4   9   11.30    1.60
   4  -4   9   11.80    1.60
   4  -4   9   16.60    1.90
   4  -4   9   13.10    1.80
  -4   4  -9   19.20    3.70
  -4   4  -9    8.20    3.50
   4  -4  10    0.60    1.00
   4  -4  10    0.70    1.00
   4  -4  10   -0.60    1.20
   4  -4  11   27.10    2.60
   4  -4  11   24.70    2.20
   4  -4  11   29.90    2.60
   4  -4  11   23.20    1.90
   4  -4  12  137.89    4.10
   4  -4  12  111.99    4.00
   4  -4  12  128.99    5.00
  -4   4 -12  109.89    3.90
   4  -4  12  120.09    4.20
   4  -4  13    2.90    0.80
   4  -4  13    3.40    1.20
  -4   4 -13    4.50    0.90
  -4   4 -14    8.70    0.90
   4  -4  14   11.70    1.20
  -4   3  13    0.00    0.40
   4  -3 -13   -0.40    0.50
  -4   3  12   94.49    4.00
  -4   3  12   93.19    3.50
   4  -3 -11    1.70    1.10
  -4   3  11    1.40    0.90
  -4   3  11    1.50    1.30
   4  -3 -11    4.40    1.70
  -4   3  10  109.89    4.50
   4  -3 -10  128.89    4.90
  -4   3  10  121.69    5.40
   4  -3 -10  124.99    4.80
  -4   3  10  127.59    5.70
   4  -3  -9    4.00    1.30
  -4   3   9    4.60    1.30
  -4   3   9    3.80    1.30
   4  -3  -8    2.60    1.50
  -4   3   8   -0.40    1.10
  -4   3   8    1.10    1.00
  -4   3   8    1.10    2.70
   4  -3  -8   -0.40    1.00
  -4   3   8    1.10    0.90
   4  -3  -7   48.50    4.90
  -4   3   7   52.99    7.00
  -4   3   7   51.69    3.10
  -4   3   7   53.19    3.20
   4  -3  -7   52.69    2.90
  -4   3   7   48.20    2.80
  -4   3   6    9.50    3.40
   4  -3  -6    7.60    2.20
  -4   3   6   11.30    3.60
  -4   3   5   71.79    7.20
   4  -3  -5   68.89    5.50
  -4   3   5   79.29    7.30
   4  -3  -5   67.19    4.30
   4  -3  -4    7.20    2.00
   4  -3  -4    7.50    1.70
   4  -3  -4    7.00    1.30
  -4   3   4    7.20    2.70
  -4   3   3   44.20    5.10
  -4   3   3   36.30    5.30
   4  -3  -3   33.90    3.30
   4  -3  -3   38.80    3.90
   4  -3  -2  129.39    6.60
   4  -3  -2  123.79    6.10
  -4   3   2  131.19    9.00
  -4   3   2  148.99    9.10
   4  -3  -1  238.68    8.60
   4  -3  -1  252.07    8.70
  -4   3   1  267.97   11.90
   4  -3   0   53.79    3.70
  -4   3   0   50.69    4.90
   4  -3   1  165.68    6.60
   4  -3   1  157.58    5.80
  -4   3  -1  150.98    7.80
   4  -3   1  160.38    8.10
   4  -3   2   44.60    2.70
  -4   3  -2   24.80    3.90
   4  -3   2   35.30    3.90
  -4   3  -2   42.90    4.10
  -4   3  -2   58.99    4.50
   4  -3   2   48.10    4.50
  -4   3  -3  180.78    8.60
   4  -3   3  159.98    7.80
  -4   3  -3  145.89    7.30
   4  -3   3  166.98    8.20
  -4   3  -4  318.07   11.30
  -4   3  -4  289.97   10.90
  -4   3  -4  319.77   12.80
   4  -3   4  309.97   11.20
  -4   3  -5  233.28   10.10
  -4   3  -5  262.97   11.60
  -4   3  -5  241.88   10.10
  -4   3  -6   12.80    2.80
   4  -3   6    8.90    2.80
  -4   3  -6   10.70    2.70
  -4   3  -6   15.20    2.80
  -4   3  -7    7.80    2.40
  -4   3  -7    6.90    2.40
   4  -3   7    8.10    3.10
  -4   3  -7    7.50    2.40
   4  -3   8    4.70    1.20
   4  -3   8    3.10    1.20
  -4   3  -8    5.20    2.30
   4  -3   8    1.10    0.80
   4  -3   8    2.40    0.90
   4  -3   8    3.10    1.90
   4  -3   8    4.70    1.10
   4  -3   8    3.20    1.10
  -4   3  -8    5.70    2.20
  -4   3  -8    1.10    2.30
  -4   3  -9   21.90    3.80
   4  -3   9   24.60    2.40
  -4   3  -9   23.60    4.10
   4  -3   9   23.60    2.10
   4  -3   9   20.60    1.90
  -4   3  -9   19.40    4.50
   4  -3  10    9.80    1.40
   4  -3  10   10.90    1.80
   4  -3  10    8.90    1.40
   4  -3  10   10.10    1.70
   4  -3  11   18.40    2.20
   4  -3  11   20.80    1.80
   4  -3  11   19.20    2.30
   4  -3  11   15.40    1.70
  -4   3 -11   16.20    1.70
   4  -3  11   17.00    1.80
   4  -3  12   25.30    2.30
   4  -3  12   26.70    1.80
  -4   3 -12   29.80    2.20
  -4   3 -12   25.30    1.90
   4  -3  13   34.50    1.80
  -4   3 -13   30.80    2.00
   4  -3  13   27.70    2.10
   4  -3  13   30.10    1.50
  -4   3 -13   28.10    1.70
  -4   3 -14    0.60    0.50
   4  -3  14    1.60    0.70
  -4   2  14   17.30    1.20
   4  -2 -13   45.60    2.10
  -4   2  13   43.50    2.20
  -4   2  13   43.30    2.50
  -4   2  12   41.50    2.50
   4  -2 -12   46.20    2.60
   4  -2 -12   42.70    2.50
  -4   2  12   44.60    3.00
  -4   2  11    0.40    0.80
   4  -2 -11   -0.70    1.00
  -4   2  11    0.40    1.20
   4  -2 -11    3.00    1.40
  -4   2  10   11.80    1.60
  -4   2  10   12.80    2.00
   4  -2 -10   11.40    1.70
  -4   2  10   15.00    2.10
  -4   2   9   19.90    2.20
   4  -2  -9   17.90    1.90
  -4   2   9   24.80    2.60
  -4   2   8   20.10    4.60
   4  -2  -8   20.10    3.20
  -4   2   8   29.80    2.50
  -4   2   8   29.40    2.50
   4  -2  -8   20.60    3.10
   4  -2  -8   26.00    2.10
  -4   2   7   44.10    5.50
   4  -2  -7   39.50    4.40
  -4   2   7   42.70    6.00
   4  -2  -7   38.40    3.90
  -4   2   6   65.59    6.90
   4  -2  -6   54.19    4.40
  -4   2   6   65.29    6.70
   4  -2  -6   58.29    5.20
  -4   2   5   23.40    4.00
   4  -2  -5   22.50    3.20
  -4   2   5   26.60    4.20
   4  -2  -4  407.86   12.90
   4  -2  -4  384.86   10.50
  -4   2   3  212.88   11.30
   4  -2  -3  211.68    8.60
  -4   2   3  241.38   10.80
   4  -2  -3  215.18    7.50
  -4   2   2  267.67   11.80
  -4   2   2  276.97   11.40
   4  -2  -2  258.47    9.10
   4  -2  -2  234.88    8.00
   4  -2  -1   36.60    3.20
   4  -2  -1   34.00    3.80
  -4   2   1   31.60    4.00
   4  -2   0    0.50    1.60
   4  -2   0    0.70    1.00
  -4   2   0    0.00    1.50
  -4   2   0    0.20    0.90
   4  -2   1   91.09    4.00
   4  -2   1   90.29    6.00
  -4   2  -1   97.29    5.80
  -4   2  -2   25.20    3.00
   4  -2   2   19.40    3.10
   4  -2   2   19.50    1.50
  -4   2  -2   18.80    2.80
  -4   2  -3   29.40    3.20
   4  -2   3   24.20    3.40
  -4   2  -3   25.80    3.20
   4  -2   4 1551.04   28.90
  -4   2  -4 1512.85   26.50
   4  -2   5   98.79    6.30
  -4   2  -5   89.29    6.30
  -4   2  -5   98.49    7.70
  -4   2  -5   93.59    6.00
   4  -2   6   94.59    7.90
  -4   2  -6   94.69    7.00
  -4   2  -6  103.59    8.50
  -4   2  -6   90.49    6.40
  -4   2  -7   15.30    3.20
   4  -2   7   13.20    3.70
  -4   2  -7   12.60    3.60
  -4   2  -7   14.30    2.90
   4  -2   8   85.39    8.40
   4  -2   8   70.29    3.50
  -4   2  -8   84.79    7.50
  -4   2  -8   79.69    8.60
   4  -2   8   74.99    3.30
   4  -2   8   86.09    4.00
  -4   2  -8   72.99    6.50
   4  -2   9   -0.10    1.00
   4  -2   9    0.20    0.80
   4  -2   9   -0.30    0.90
   4  -2  10   31.50    2.80
   4  -2  10   37.90    2.40
   4  -2  10   42.30    3.10
  -4   2 -10   38.30    2.60
   4  -2  10   30.60    2.40
   4  -2  11   14.90    1.60
   4  -2  11   11.80    1.80
  -4   2 -11   13.20    1.50
  -4   2 -11   13.50    1.70
   4  -2  11   12.00    1.40
   4  -2  12    0.40    0.70
  -4   2 -12   -0.30    0.60
   4  -2  12   -0.60    1.10
  -4   2 -12    0.30    0.70
   4  -2  13   40.60    1.90
  -4   2 -13   34.20    1.70
  -4   2 -13   37.70    2.10
   4  -2  13   39.30    2.20
  -4   1  14   16.00    1.40
  -4   1  14   18.60    1.30
  -4   1  13    7.10    1.00
  -4   1  13    7.20    1.20
   4  -1 -13    7.30    1.10
  -4   1  13    7.10    1.30
   4  -1 -13    5.70    1.10
  -4   1  12   60.69    2.90
   4  -1 -12   59.49    3.00
  -4   1  12   58.99    3.20
   4  -1 -12   54.39    2.80
  -4   1  11   88.99    3.80
  -4   1  11   88.69    4.10
  -4   1  11   95.89    4.80
   4  -1 -11   79.89    3.60
  -4   1  10   34.90    2.60
  -4   1  10   37.80    2.50
  -4   1  10   38.50    3.10
   4  -1 -10   32.00    2.40
  -4   1  10   43.10    3.30
  -4   1   9   10.80    1.30
  -4   1   9   10.70    1.40
  -4   1   9   12.10    1.70
   4  -1  -9    7.00    1.30
  -4   1   9   14.10    2.00
   4  -1  -9    7.30    2.20
   4  -1  -8  250.97   11.20
   4  -1  -8  245.98   10.90
   4  -1  -7   61.49    5.50
  -4   1   7   76.59    7.20
  -4   1   7   68.79    7.00
   4  -1  -7   60.59    5.10
  -4   1   6  519.05   18.50
  -4   1   6  504.05   17.50
   4  -1  -5   93.29    6.30
  -4   1   5   98.69    7.20
  -4   1   5  106.99    7.30
   4  -1  -4  845.12   15.60
   4  -1  -4  881.81   19.70
  -4   1   3  812.92   18.90
   4  -1  -3  775.92   17.40
  -4   1   3  753.72   20.30
   4  -1  -3  750.52   17.50
   4  -1  -2   73.49    4.80
   4  -1  -2   70.09    5.00
  -4   1   2   80.39    5.60
  -4   1   2   68.89    5.60
   4  -1  -1   43.90    3.00
   4  -1  -1   49.99    3.70
   4  -1  -1   47.10    4.40
  -4   1   1   50.19    4.30
   4  -1   0  227.88    7.30
   4  -1   0  206.88    7.40
   4  -1   0  221.48    9.50
  -4   1   0  214.48    8.20
   4  -1   1   79.09    3.60
   4  -1   1   71.59    4.80
   4  -1   1   79.29    5.80
  -4   1  -1   67.89    4.30
  -4   1  -1   71.79    4.60
  -4   1  -2   24.00    2.60
   4  -1   2   20.00    3.00
   4  -1   2   23.20    1.50
   4  -1   2   23.00    3.40
  -4   1  -2   19.30    2.70
  -4   1  -2   20.70    2.40
   4  -1   3   34.10    4.10
   4  -1   3   44.60    4.50
  -4   1  -3   38.30    3.10
  -4   1  -3   36.50    3.60
  -4   1  -3   31.20    4.80
  -4   1  -3   41.40    3.30
   4  -1   4  900.71   22.50
  -4   1  -4  890.71   20.50
  -4   1  -4 1023.50   27.00
   4  -1   4 1004.80   23.10
  -4   1  -4  907.91   18.60
  -4   1  -5   -0.90    1.60
   4  -1   5    2.50    1.30
   4  -1   5   -0.10    1.60
  -4   1  -5    0.90    1.80
  -4   1  -6   57.49    5.60
   4  -1   6   56.79    6.40
  -4   1  -6   49.20    6.40
   4  -1   7   -2.30    1.70
  -4   1  -7    2.10    1.60
   4  -1   7    1.30    1.90
  -4   1  -7   -4.30    3.60
   4  -1   8    1.80    0.70
   4  -1   8    1.60    0.90
   4  -1   8    1.80    0.80
   4  -1   8    4.20    1.90
   4  -1   8    1.60    0.80
   4  -1   8    0.60    0.90
  -4   1  -8    2.10    1.70
   4  -1   9   16.50    2.10
   4  -1   9   14.30    2.00
   4  -1   9   13.10    1.60
  -4   1  -9   15.60    1.80
   4  -1   9   15.10    1.50
   4  -1   9    8.90    1.20
   4  -1   9   13.90    1.60
   4  -1  10    0.90    0.80
  -4   1 -10    1.20    0.90
  -4   1 -10    1.60    1.00
   4  -1  10    1.90    0.90
   4  -1  10    1.30    1.20
   4  -1  10    1.20    1.10
   4  -1  10    1.90    1.20
   4  -1  11    2.90    0.90
   4  -1  11    2.40    0.90
  -4   1 -11    1.40    0.70
  -4   1 -11    2.20    1.00
   4  -1  11    0.60    1.00
  -4   1 -11    2.10    1.00
   4  -1  12   -0.40    0.90
   4  -1  12   -0.40    0.70
  -4   1 -12   -1.30    1.10
  -4   1 -12    0.30    0.60
  -4   1 -12   -0.40    0.70
   4  -1  13    3.80    0.70
  -4   1 -13    4.00    0.90
   4  -1  13    3.90    0.80
  -4   1 -13    2.90    0.50
  -4   0  14   17.80    1.40
  -4   0  14   17.20    1.60
   4   0 -14   14.90    1.10
  -4   0  13    0.50    0.70
  -4   0  13    0.50    0.80
   4   0 -13    0.80    0.60
  -4   0  13    0.60    1.00
  -4   0  12   49.30    3.00
  -4   0  12   47.10    2.80
   4   0 -12   44.30    2.60
  -4   0  12   51.69    3.40
   4   0 -12   41.60    2.40
  -4   0  11   24.90    2.10
  -4   0  11   23.50    2.20
  -4   0  11   26.80    2.60
   4   0 -11   19.50    1.80
  -4   0  10   66.19    3.30
  -4   0  10   63.99    3.40
  -4   0  10   67.09    3.90
  -4   0  10   70.09    4.10
  -4   0   9    0.10    0.60
  -4   0   9    0.40    0.60
   4   0  -9    1.40    1.10
  -4   0   9   -0.10    0.90
  -4   0   9    0.20    1.30
   4   0  -9   -0.40    1.30
  -4   0   9    0.20    0.90
  -4   0   8   77.19    7.40
   4   0  -8   65.29    5.70
  -4   0   8   66.89    6.70
   4   0  -8   55.59    5.20
  -4   0   7   15.50    3.40
   4   0  -7    9.90    2.40
  -4   0   7   13.50    3.10
  -4   0   6   60.59    6.10
   4   0  -6   53.09    5.00
  -4   0   6   61.39    5.60
  -4   0   5   47.80    4.70
   4   0  -5   49.80    4.60
  -4   0   5   54.09    5.60
  -4   0   5   45.20    4.40
  -4   0   4   35.80    4.40
  -4   0   4   39.60    3.80
   4   0  -4   36.20    4.00
   4   0  -4   36.40    3.50
   4   0  -3  167.68    7.80
  -4   0   3  181.28    7.40
  -4   0   3  168.68    8.50
   4   0  -3  151.58    4.30
   4   0  -3  165.58    7.70
   4   0  -2  529.85   13.60
   4   0  -2  476.95   10.20
   4   0  -2  507.15   14.20
  -4   0   2  512.65   14.10
  -4   0   1    3.40    1.50
   4   0  -1    5.50    1.60
   4   0  -1    4.00    2.00
   4   0  -1    3.70    1.20
  -4   0   1    4.60    1.80
  -4   0   1    6.50    1.70
   4   0   0   75.59    5.90
   4   0   0   73.99    4.30
   4   0   0   68.79    4.50
  -4   0   0   66.49    4.50
  -4   0   0   68.59    4.30
   4   0   1   51.09    5.30
   4   0   1   45.40    4.10
  -4   0  -1   44.50    3.60
   4   0   1   51.49    3.10
  -4   0  -1   43.40    3.50
  -4   0  -2   77.89    4.00
  -4   0  -2   62.89    3.40
   4   0   2   78.29    6.50
  -4   0  -2   70.79    4.50
  -4   0  -2   71.39    4.70
   4   0   2   73.19    5.60
   4   0   3  274.57   12.30
   4   0   3  260.77   11.20
  -4   0  -3  249.97    8.50
  -4   0  -3  243.38    9.40
  -4   0  -3  259.27    7.90
   4   0   4  800.82   21.70
  -4   0  -4  740.83   16.00
  -4   0  -4  712.13   18.40
   4   0   4  781.02   20.90
  -4   0  -4  701.43   23.40
   4   0   4  816.22   22.50
   4   0   5   55.09    5.60
   4   0   5   53.49    5.90
  -4   0  -5   49.30    4.90
   4   0   5   56.19    6.00
  -4   0  -5   49.70    6.70
  -4   0  -6  291.47   17.00
  -4   0  -6  283.17   12.70
   4   0   6  320.47   15.20
   4   0   6  315.17   14.70
   4   0   7    1.50    0.70
   4   0   7    0.50    0.80
   4   0   7    0.70    0.80
  -4   0  -7    1.20    1.30
   4   0   7   -0.20    2.10
  -4   0  -7    0.10    0.80
   4   0   8   63.29    3.30
   4   0   8   64.29    3.40
  -4   0  -8   60.59    3.40
  -4   0  -8   61.29    6.50
   4   0   8   65.89    7.80
   4   0   8   61.49    3.60
   4   0   8   58.19    2.90
   4   0   8   53.99    3.10
   4   0   9    5.60    1.30
   4   0   9    6.50    1.40
   4   0   9    5.10    1.40
  -4   0  -9    5.10    1.20
  -4   0  -9    6.40    1.50
   4   0   9    5.10    1.20
  -4   0  -9    6.50    1.40
   4   0   9    3.80    1.30
   4   0  10    3.80    1.10
   4   0  10    6.80    1.40
   4   0  10    5.00    1.40
  -4   0 -10    5.50    1.20
  -4   0 -10    6.00    1.40
   4   0  10    6.30    1.20
  -4   0 -10    5.80    1.40
   4   0  11    2.70    0.90
   4   0  11    1.90    0.90
  -4   0 -11    1.20    1.10
   4   0  11    1.30    1.00
  -4   0 -11    2.10    0.90
  -4   0 -11    1.90    0.90
   4   0  12   -0.30    0.60
   4   0  12    0.50    0.70
   4   0  12    0.90    0.70
  -4   0 -12   -0.10    0.80
  -4   0 -12    0.60    0.60
  -4   0 -12    0.20    0.60
   4   0  13    0.30    0.50
  -4   0 -13    1.80    0.60
  -4   0 -13    3.00    1.30
  -4  -1  15    0.60    0.80
  -4  -1  15    5.10    0.80
  -4  -1  14    3.80    1.00
  -4  -1  14    4.10    0.90
  -4  -1  13    9.30    1.40
   4   1 -13    7.10    1.00
  -4  -1  13    8.40    1.50
  -4  -1  13    8.70    1.40
  -4  -1  12    3.30    1.00
  -4  -1  12    4.30    1.20
  -4  -1  12    4.80    1.40
  -4  -1  11    2.10    0.90
  -4  -1  11    3.50    1.10
  -4  -1  11    4.60    1.40
  -4  -1  10  303.87    7.70
  -4  -1  10  324.97    7.50
  -4  -1  10  302.87    8.50
  -4  -1  10  307.67    7.90
   4   1  -9  121.39    7.90
  -4  -1   9  145.59    4.80
  -4  -1   9  149.49    4.70
  -4  -1   9  155.58    5.50
   4   1  -9  117.99    8.20
  -4  -1   9  149.29   10.60
  -4  -1   9  149.88    4.90
   4   1  -8   29.70    4.00
  -4  -1   8   38.50    5.40
  -4  -1   8   42.50    4.90
  -4  -1   7  111.39    8.70
   4   1  -7   93.39    6.80
  -4  -1   7  109.29    7.30
  -4  -1   6   72.99    5.50
  -4  -1   6   77.89    6.90
   4   1  -6   67.89    5.70
   4   1  -5   -0.60    1.10
   4   1  -5    0.00    1.40
  -4  -1   5   -0.90    2.00
  -4  -1   5    0.90    1.20
  -4  -1   4  507.35   15.00
   4   1  -4  488.15   13.60
   4   1  -4  518.75   15.10
  -4  -1   4  499.75   16.10
   4   1  -3   28.50    3.50
  -4  -1   3   35.60    4.10
  -4  -1   3   31.10    2.50
   4   1  -3   25.30    2.20
   4   1  -3   27.90    3.40
  -4  -1   3   25.00    3.20
   4   1  -2   23.90    3.50
   4   1  -2   20.50    2.40
  -4  -1   2   22.10    3.10
  -4  -1   2   22.10    1.90
  -4  -1   2   23.70    1.90
  -4  -1   2   18.00    2.90
  -4  -1   2   19.40    2.50
   4   1  -2   23.80    3.10
   4   1  -1   34.70    4.30
  -4  -1   1   33.80    2.10
   4   1  -1   29.50    3.20
  -4  -1   1   27.90    3.10
  -4  -1   1   29.10    3.30
  -4  -1   1   31.50    2.90
  -4  -1   1   29.80    1.90
  -4  -1   1   40.30    3.80
   4   1  -1   34.00    3.40
   4   1   0   48.10    5.30
  -4  -1   0   41.00    3.40
   4   1   0   44.90    4.10
  -4  -1   0   43.10    2.00
  -4  -1   0   46.20    3.90
  -4  -1   0   43.90    3.30
   4   1   0   52.29    3.90
   4   1   1  325.97   13.60
  -4  -1  -1  267.77    7.70
   4   1   1  296.07   11.20
  -4  -1  -1  303.37    9.80
  -4  -1  -1  298.67    9.00
   4   1   1  327.87    9.00
   4   1   2  481.45   17.40
   4   1   2  457.95   15.10
  -4  -1  -2  453.15   12.50
  -4  -1  -2  451.65   12.30
  -4  -1  -2  484.45    9.80
   4   1   3 1249.88   27.90
  -4  -1  -3 1193.08   22.50
  -4  -1  -3 1142.89   23.00
   4   1   3 1269.37   25.80
  -4  -1  -3 1187.58   18.90
   4   1   3 1323.87   31.10
  -4  -1  -4    5.60    3.80
  -4  -1  -4   14.00    2.30
   4   1   4   10.90    2.90
  -4  -1  -4   13.20    2.60
   4   1   4   10.80    3.10
   4   1   4   15.10    3.10
   4   1   5   90.49    7.90
  -4  -1  -5   72.99    6.10
   4   1   5   89.99    7.70
  -4  -1  -5   63.59    8.70
   4   1   5   93.49    8.00
   4   1   6   58.59    6.60
  -4  -1  -6   49.90    5.50
   4   1   6   59.59    6.90
   4   1   7    1.90    2.30
   4   1   7   30.60    2.50
   4   1   7   29.30    2.20
  -4  -1  -7   26.30    2.30
   4   1   7   31.80    5.00
  -4  -1  -7   26.50    4.30
   4   1   7   23.80    4.80
   4   1   7   28.40    1.90
  -4  -1  -7   -5.00    9.10
   4   1   7   21.10    2.00
   4   1   8   72.99    3.50
   4   1   8   72.79    4.00
  -4  -1  -8   69.69    3.90
   4   1   8   60.59    3.40
  -4  -1  -8   68.59    3.80
  -4  -1  -8   65.79    3.60
   4   1   8   75.69    3.30
   4   1   8   57.49    3.30
   4   1   9   46.10    2.80
  -4  -1  -9   39.50    3.00
   4   1   9   36.80    2.70
  -4  -1  -9   39.60    2.90
  -4  -1  -9   34.40    2.60
   4   1   9   51.89    2.80
   4   1   9   32.60    2.60
   4   1  10    0.10    0.90
   4   1  10   -0.50    0.80
  -4  -1 -10    0.20    1.20
  -4  -1 -10    0.60    1.00
   4   1  10    0.50    0.90
  -4  -1 -10    0.40    1.00
   4   1  11   69.39    3.00
  -4  -1 -11   75.39    3.50
   4   1  11   62.19    3.00
  -4  -1 -11   66.19    2.70
  -4  -1 -11   68.29    3.10
  -4  -1 -11   66.29    3.00
   4   1  11   70.39    3.10
   4   1  12    4.90    0.70
   4   1  12    5.60    0.90
  -4  -1 -12    8.00    4.20
  -4  -1 -12    4.20    0.70
  -4  -1 -12    7.60    1.10
   4   1  12    5.30    0.80
  -4  -2  15  100.19    3.10
  -4  -2  15   89.09    2.60
  -4  -2  14    5.80    1.10
  -4  -2  14    5.30    1.10
  -4  -2  13   80.29    3.60
  -4  -2  13   80.19    3.80
  -4  -2  13   77.19    3.80
  -4  -2  12   51.49    3.10
  -4  -2  12   51.69    3.40
  -4  -2  12   49.60    3.20
  -4  -2  11  160.38    5.70
  -4  -2  11  161.18    5.60
  -4  -2  11  157.78    6.10
  -4  -2  10  175.78    5.70
  -4  -2  10  195.08    5.90
  -4  -2  10  177.08    5.80
  -4  -2  10  176.58    6.30
   4   2 -10  138.19    9.30
  -4  -2  10  229.28    7.10
  -4  -2   9   17.00    1.70
  -4  -2   9   14.60    1.60
  -4  -2   9   18.70    2.10
   4   2  -9   13.30    2.80
  -4  -2   9   18.20    1.90
  -4  -2   9   15.90    3.80
   4   2  -9   14.10    3.10
  -4  -2   8  279.07   14.70
   4   2  -8  240.08   11.70
  -4  -2   7  142.99   10.10
   4   2  -7  124.89    8.10
   4   2  -6    3.80    1.90
  -4  -2   6    2.30    1.80
   4   2  -5   18.20    3.10
  -4  -2   5   20.80    3.70
   4   2  -5   21.60    2.90
  -4  -2   5   21.90    2.30
   4   2  -4  530.75   15.20
  -4  -2   4  581.34   17.40
   4   2  -4  576.04   17.00
  -4  -2   3  827.12   20.00
   4   2  -3  753.52   16.40
  -4  -2   3  829.52   15.60
  -4  -2   3  721.73   15.70
  -4  -2   3  771.92   18.50
   4   2  -3  824.22   20.30
   4   2  -3  816.62   19.50
  -4  -2   2   88.39    4.10
   4   2  -2   90.09    6.90
  -4  -2   2   90.59    5.90
  -4  -2   2   88.79    5.80
   4   2  -2   85.39    5.50
  -4  -2   2   69.89    4.20
   4   2  -2   90.89    5.90
   4   2  -1   36.90    4.90
  -4  -2   1   35.40    3.50
   4   2  -1   33.10    3.80
  -4  -2   1   33.40    2.30
  -4  -2   1   36.80    3.80
  -4  -2   1   32.90    2.80
  -4  -2   1   40.60    4.10
   4   2  -1   34.50    3.60
   4   2   0   76.89    7.10
  -4  -2   0   69.69    4.30
   4   2   0   75.19    5.90
  -4  -2   0   74.89    3.50
  -4  -2   0   69.09    4.90
  -4  -2   0   72.09    4.10
   4   2   0   82.39    5.20
   4   2   1  174.98   11.00
  -4  -2  -1  146.49    5.50
   4   2   1  165.18    9.20
  -4  -2  -1  163.08    6.70
  -4  -2  -1  158.58    7.60
   4   2   1  164.58    7.10
  -4  -2  -2   14.70    2.60
  -4  -2  -2   12.20    2.20
   4   2   2   16.90    2.90
   4   2   2   14.90    3.90
  -4  -2  -2   17.10    6.20
   4   2   2   12.90    3.20
  -4  -2  -3   14.40    2.50
   4   2   3   15.10    3.40
  -4  -2  -3   11.80    2.30
   4   2   3   14.60    3.80
   4   2   3   16.10    2.90
  -4  -2  -3   13.60    6.90
  -4  -2  -4   12.20    2.50
   4   2   4   14.30    3.60
  -4  -2  -4   13.70    2.50
   4   2   4   11.80    3.10
  -4  -2  -4   12.60    7.20
   4   2   4   17.20    4.20
   4   2   5   27.80    4.70
  -4  -2  -5   24.10    3.70
   4   2   5   29.00    4.70
  -4  -2  -5   26.80    3.50
  -4  -2  -5   24.10    9.60
   4   2   6   24.00    4.50
  -4  -2  -6   19.80    1.80
  -4  -2  -6   20.80    2.10
  -4  -2  -6   22.60    3.80
  -4  -2  -6   23.90    2.20
   4   2   6   18.60    1.70
   4   2   6   24.10    2.20
   4   2   6   22.70    4.50
   4   2   6   22.00    1.60
  -4  -2  -6   12.80   11.50
   4   2   6   20.40    2.00
   4   2   7    4.70    1.20
   4   2   7    5.40    1.40
  -4  -2  -7    5.10    1.30
  -4  -2  -7    6.60    1.40
  -4  -2  -7    6.20    1.40
   4   2   7    5.50    1.10
   4   2   7    5.00    1.20
   4   2   8    0.80    1.10
  -4  -2  -8    0.10    1.10
   4   2   8    0.80    1.30
  -4  -2  -8   -0.20    0.90
  -4  -2  -8    1.50    1.10
   4   2   8    2.00    1.10
  -4  -2  -8    1.30    1.10
   4   2   8    2.70    1.00
   4   2   9   43.00    2.80
  -4  -2  -9   45.20    3.10
  -4  -2  -9   44.20    3.10
   4   2   9   39.40    2.80
  -4  -2  -9   42.40    2.90
   4   2   9   41.50    2.90
  -4  -2 -10   12.30    1.80
   4   2  10   10.60    1.30
  -4  -2 -10   11.30    1.60
   4   2  10   10.00    1.50
  -4  -2 -10   11.50    1.50
  -4  -2 -10   10.90    1.40
   4   2  10   12.00    1.60
   4   2  11   30.10    1.60
  -4  -2 -11   38.70    2.30
   4   2  11   35.30    2.10
  -4  -2 -11   29.70    1.80
   4   2  11   34.80    2.10
  -4  -2 -12    0.80    0.60
   4   2  12    0.20    0.50
  -4  -3  15   -0.70    0.90
  -4  -3  15    1.20    0.50
  -4  -3  14    1.60    1.20
  -4  -3  14    3.50    1.00
  -4  -3  14    3.80    1.00
  -4  -3  14    1.00    1.80
  -4  -3  13   29.80    2.40
  -4  -3  13   28.10    2.30
  -4  -3  12   30.50    2.50
  -4  -3  12   28.80    2.50
  -4  -3  12   29.60    2.50
  -4  -3  11   29.20    2.50
  -4  -3  11   31.20    2.60
  -4  -3  11   30.80    2.50
  -4  -3  10   73.89    3.70
  -4  -3  10  107.99    4.50
  -4  -3  10   87.69    8.40
  -4  -3  10   79.89    4.00
  -4  -3  10   95.39    5.60
  -4  -3  10   79.19    3.80
   4   3 -10   53.29    6.00
  -4  -3   9  128.89    4.60
  -4  -3   9  152.58    5.00
  -4  -3   9  134.19    4.70
  -4  -3   9  123.99   10.30
  -4  -3   9  136.29    4.90
   4   3  -9  105.29    8.00
  -4  -3   8   11.40    3.30
   4   3  -8   14.70    3.20
  -4  -3   7    0.50    2.10
   4   3  -7    2.30    1.80
   4   3  -6  233.08   11.60
  -4  -3   6  270.67   13.40
  -4  -3   5   91.59    7.40
  -4  -3   5   91.89    5.90
   4   3  -5   74.09    5.60
   4   3  -5   89.29    7.00
   4   3  -4  678.93   18.70
  -4  -3   4  721.93   16.10
  -4  -3   4  688.43   19.80
  -4  -3   4  658.73   17.70
   4   3  -4  696.53   19.10
  -4  -3   3  102.89    6.90
   4   3  -3   94.39    6.20
   4   3  -3  102.49    7.60
  -4  -3   3  101.19    5.20
  -4  -3   3   99.49    6.40
   4   3  -3  103.19    6.90
   4   3  -2  316.57   14.00
  -4  -3   2  313.27   11.30
   4   3  -2  289.27   11.60
  -4  -3   2  293.17    8.60
  -4  -3   2  314.07   11.40
   4   3  -2  310.77   11.70
  -4  -3   1    0.80    0.80
  -4  -3   1    0.40    1.10
  -4  -3   1    1.20    0.90
   4   3  -1    0.20    1.80
  -4  -3   1    0.90    1.50
   4   3  -1    1.00    2.20
  -4  -3   1   -1.30    2.20
  -4  -3   0   30.40    2.90
   4   3   0   30.90    4.40
  -4  -3   0   29.50    2.60
  -4  -3   0   32.00    3.70
   4   3   0   32.20    5.40
  -4  -3  -1  277.77   10.80
   4   3   1  275.67   13.10
  -4  -3  -1  256.97    8.70
   4   3   1  298.07   15.70
  -4  -3  -2    1.90    1.20
   4   3   2    2.20    2.10
  -4  -3  -2    1.40    1.40
   4   3   2    3.30    3.00
   4   3   2    2.10    1.40
  -4  -3  -3   24.50    3.40
  -4  -3  -3   20.20    2.90
   4   3   3   23.40    4.30
   4   3   3   24.60    3.80
   4   3   3   26.50    5.30
   4   3   4   27.90    4.90
  -4  -3  -4   29.80    3.80
  -4  -3  -4   25.10    3.50
   4   3   4   30.00    4.60
   4   3   4   33.40    5.80
  -4  -3  -5   13.40    1.50
  -4  -3  -5   14.20    3.00
   4   3   5   14.70    1.60
   4   3   5   16.70    1.80
  -4  -3  -5   15.90    1.80
   4   3   5   13.30    1.50
  -4  -3  -5   14.40    2.60
   4   3   5   15.20    3.80
   4   3   5   18.50    1.90
  -4  -3  -5   16.40    1.90
  -4  -3  -5   13.70    1.50
  -4  -3  -5   15.40    1.80
   4   3   5   14.20    3.50
   4   3   5   16.30    1.80
   4   3   6    8.30    1.50
  -4  -3  -6    3.90    1.80
   4   3   6    9.30    1.70
  -4  -3  -6    7.90    1.50
  -4  -3  -6    7.80    1.50
  -4  -3  -6    9.30    1.60
   4   3   6   10.10    3.20
  -4  -3  -6   10.00    1.70
   4   3   6    6.40    1.10
   4   3   6    7.00    1.30
   4   3   6    4.30    2.70
   4   3   7    0.00    0.90
  -4  -3  -7   -0.70    1.10
   4   3   7    0.50    1.30
  -4  -3  -7    0.50    0.90
  -4  -3  -7    0.10    1.00
   4   3   7    0.40    0.80
   4   3   8    0.50    1.10
  -4  -3  -8    0.30    1.10
   4   3   8   -0.40    0.90
  -4  -3  -8   -0.50    1.10
   4   3   8    0.30    1.10
  -4  -3  -8    1.10    1.20
  -4  -3  -9   11.70    1.80
   4   3   9    8.80    1.20
  -4  -3  -9    9.00    1.60
   4   3   9    9.10    1.50
  -4  -3  -9   10.60    1.60
  -4  -3  -9    9.40    1.40
   4   3   9    8.50    1.20
   4   3   9    9.60    1.60
   4   3  10    7.70    1.30
  -4  -3 -10   10.40    1.50
   4   3  10    9.20    1.30
  -4  -3 -10    6.20    1.00
  -4  -3 -10    7.20    1.10
  -4  -3 -10   10.10    2.00
   4   3  11    1.00    0.70
   4   3  11    0.50    0.60
  -4  -3 -11    2.10    0.80
  -4  -3 -11    0.00    0.40
  -4  -4  15    1.80    1.60
  -4  -4  15    6.90    1.10
  -4  -4  14    5.70    2.10
  -4  -4  14   15.40    1.70
  -4  -4  14    8.60    1.30
  -4  -4  14   12.20    1.30
  -4  -4  13  129.89    5.00
  -4  -4  13  133.39    4.80
  -4  -4  13  139.89    5.20
  -4  -4  12   30.30    2.50
  -4  -4  12   31.10    2.60
  -4  -4  11   44.80    3.00
  -4  -4  11   43.80    3.00
  -4  -4  11   41.90    2.90
   4   4 -10  210.78   11.50
  -4  -4  10  280.47    7.40
  -4  -4  10  279.37    7.50
  -4  -4  10  265.27   15.20
  -4  -4  10  274.77    7.40
  -4  -4  10  302.07    7.90
   4   4 -10  192.88   11.40
  -4  -4  10  282.77    8.50
  -4  -4   9   41.90    2.60
  -4  -4   9   37.50    5.70
  -4  -4   9   40.60    2.60
  -4  -4   9   37.40    2.50
  -4  -4   9   39.00    4.00
   4   4  -9   35.20    4.90
  -4  -4   9   34.20    2.80
  -4  -4   8  339.47   16.70
   4   4  -8  263.27   13.20
  -4  -4   7   13.40    3.60
   4   4  -7   13.90    3.40
  -4  -4   6  423.96   17.40
  -4  -4   6  447.26   14.80
   4   4  -6  405.26   16.00
   4   4  -5   29.30    3.60
   4   4  -5   31.30    4.00
  -4  -4   5   37.10    4.90
  -4  -4   5   36.70    3.90
  -4  -4   5   34.50    4.20
   4   4  -5   32.30    4.50
   4   4  -4   85.49    6.40
   4   4  -4   99.69    7.70
  -4  -4   4  100.99    7.50
  -4  -4   4  104.09    6.10
  -4  -4   4   96.19    6.80
   4   4  -4   95.89    7.30
   4   4  -3  201.88   10.30
  -4  -4   3  220.88   10.40
  -4  -4   3  206.98    8.10
  -4  -4   3  217.78   10.00
   4   4  -3  211.18   11.90
  -4  -4   2   48.50    4.60
   4   4  -2   43.80    5.20
  -4  -4   2   50.89    3.80
  -4  -4   2   45.80    4.60
   4   4  -2   46.10    6.10
  -4  -4   1  185.98    8.30
   4   4  -1  178.08   10.60
  -4  -4   1  194.48    7.60
  -4  -4   1  189.48    9.30
   4   4  -1  202.38   12.90
   4   4   0    1.80    2.20
   4   4   0   -0.50    2.40
  -4  -4   0    0.90    1.50
  -4  -4   0   -2.50    2.50
   4   4   1  254.17   13.80
  -4  -4  -1  227.58   10.70
   4   4   1  246.28   15.60
   4   4   2   40.60    5.80
  -4  -4  -2   39.10    3.60
  -4  -4  -2   40.90    4.70
   4   4   2   45.50    7.10
   4   4   3    3.00    2.30
  -4  -4  -3    1.30    0.90
  -4  -4  -3    0.40    1.40
   4   4   3    1.50    2.40
   4   4   3    0.80    1.40
  -4  -4  -4   36.00    2.90
   4   4   4   35.40    2.40
  -4  -4  -4   36.50    2.50
   4   4   4   37.00    2.50
  -4  -4  -4   32.30    2.50
   4   4   4   33.80    5.50
  -4  -4  -4   33.60    2.60
   4   4   4   35.70    2.40
   4   4   4   34.40    2.30
  -4  -4  -4   33.60    2.40
  -4  -4  -4   31.90    4.30
   4   4   4   36.90    2.40
  -4  -4  -4   38.00    2.80
  -4  -4  -4   31.00    3.80
   4   4   4   33.50    2.30
   4   4   4   35.30    4.80
  -4  -4  -4   29.80    2.30
   4   4   4   35.30    6.60
  -4  -4  -4   46.00   10.70
   4   4   4   35.70    2.50
  -4  -4  -5   26.20    2.50
  -4  -4  -5   27.50    2.40
  -4  -4  -5   23.10    2.10
   4   4   5   24.10    2.20
  -4  -4  -5   26.10    2.40
   4   4   5   23.40    2.20
   4   4   5   29.00    2.40
   4   4   5   23.50    4.70
  -4  -4  -5   27.70    5.40
  -4  -4  -5   29.40    2.50
  -4  -4  -5   22.10    3.60
   4   4   5   27.30    2.20
   4   4   5   25.60    2.30
   4   4   6    1.20    1.10
  -4  -4  -6    1.20    1.00
   4   4   6    0.50    1.00
  -4  -4  -6    0.50    0.90
  -4  -4  -6    1.50    1.20
   4   4   6    0.80    0.80
   4   4   6    0.10    0.90
   4   4   7    6.20    1.50
  -4  -4  -7    6.90    1.60
  -4  -4  -7    7.20    1.60
  -4  -4  -7    6.20    1.50
  -4  -4  -7    6.40    1.50
   4   4   7    7.50    1.40
  -4  -4  -8   25.30    2.30
  -4  -4  -8   29.80    2.50
   4   4   8   24.90    2.10
   4   4   8   21.90    2.20
  -4  -4  -8   26.20    2.30
   4   4   8   24.60    1.90
  -4  -4  -8   26.90    2.30
   4   4   8   28.40    2.50
   4   4   9    1.10    1.00
   4   4   9    1.40    0.80
   4   4   9    0.50    0.90
  -4  -4  -9    1.20    0.80
  -4  -4  -9    0.40    0.70
  -4  -4  -9    1.80    1.10
  -4  -4 -10   13.60    1.30
   4   4  10   11.80    1.20
  -4  -4 -10    9.30    1.00
  -4  -4 -10    9.20    0.80
   4   4  10   13.00    1.30
  -4  -5  15   68.59    3.00
  -4  -5  15   89.09    3.00
  -4  -5  14   -0.80    2.20
  -4  -5  14   14.60    1.60
  -4  -5  13   69.69    4.00
  -4  -5  13   27.40    2.10
  -4  -5  13   72.19    4.10
  -4  -5  13   20.10    2.00
  -4  -5  12   31.60    2.60
  -4  -5  12   36.00    2.60
  -4  -5  12   38.30    2.90
  -4  -5  11   -0.40    1.40
  -4  -5  11    4.40    1.10
  -4  -5  11    3.20    1.20
  -4  -5  11    5.20    5.10
  -4  -5  10   77.39    3.90
  -4  -5  10   91.59    4.20
  -4  -5  10   74.09    3.70
  -4  -5  10   77.89    3.80
  -4  -5  10   76.49    5.50
  -4  -5   9   37.10    2.70
  -4  -5   9   27.40    2.30
  -4  -5   9   26.50    2.20
  -4  -5   9   21.90    4.80
   4   5  -9   25.20    4.30
  -4  -5   9   25.20    2.10
  -4  -5   9   25.00    4.00
  -4  -5   9   25.20    2.60
   4   5  -8  175.08   11.40
  -4  -5   8  204.58   13.30
  -4  -5   7   63.99    7.20
   4   5  -7   60.99    6.80
  -4  -5   6   13.60    3.50
   4   5  -6   13.80    3.40
  -4  -5   6   17.40    3.20
  -4  -5   5   11.40    3.20
   4   5  -5    7.70    2.60
  -4  -5   5   11.40    2.50
   4   5  -5    7.80    2.40
  -4  -5   5    6.70    2.10
   4   5  -5   10.90    3.00
   4   5  -4   62.99    6.30
  -4  -5   4   73.89    6.70
  -4  -5   4   73.29    5.40
  -4  -5   4   78.89    6.40
   4   5  -4   73.49    7.30
  -4  -5   3  357.76   13.90
  -4  -5   3  342.97   11.50
  -4  -5   3  341.97   13.30
   4   5  -3  336.07   14.90
   4   5  -3  361.86   17.10
  -4  -5   2  145.59    8.20
   4   5  -2  135.59    9.80
  -4  -5   2  131.79    6.80
  -4  -5   2  134.09    8.20
   4   5  -2  143.59   11.40
   4   5  -1   59.09    6.90
  -4  -5   1   43.00    4.10
   4   5  -1   54.59    7.60
  -4  -5   1   63.59    5.80
  -4  -5   1   51.69    5.20
   4   5   0    0.50    2.20
   4   5   0   -0.30    2.90
  -4  -5   0    1.40    1.70
  -4  -5   0    0.40    2.40
  -4  -5  -1   43.20    5.00
   4   5   1   41.70    6.20
  -4  -5  -1   54.29    6.20
   4   5   1   52.79    8.20
   4   5   2   53.99    7.10
  -4  -5  -2   53.79    5.60
  -4  -5  -2   76.69    8.20
   4   5   2   62.79    9.20
  -4  -5  -3   60.39    3.90
  -4  -5  -3   59.29    3.20
  -4  -5  -3   62.89    3.50
  -4  -5  -3   66.09    3.30
  -4  -5  -3   50.39    3.10
  -4  -5  -3   55.59    5.80
  -4  -5  -3   59.69    3.30
   4   5   3   60.89    3.20
   4   5   3   59.19    3.20
   4   5   3   57.69    2.80
   4   5   3   61.49    7.50
   4   5   3   67.19    9.30
   4   5   3   59.19    3.30
  -4  -5  -4    0.60    0.80
   4   5   4    1.50    1.00
   4   5   4    1.10    0.90
  -4  -5  -4    1.00    0.90
  -4  -5  -4    0.90    0.90
   4   5   4    1.10    0.90
  -4  -5  -4    1.70    1.10
   4   5   4    1.00    2.00
  -4  -5  -4   -1.90    1.50
  -4  -5  -4    1.50    1.10
   4   5   4    1.40    1.00
  -4  -5  -4    0.40    1.00
   4   5   4    1.20    0.80
   4   5   4    2.50    1.10
   4   5   5    6.90    1.50
  -4  -5  -5    6.00    1.40
   4   5   5    6.20    1.50
   4   5   5    5.90    1.30
  -4  -5  -5    6.80    1.40
  -4  -5  -5    6.60    1.50
  -4  -5  -5    6.10    1.50
   4   5   5    6.20    1.30
  -4  -5  -5    7.40    1.60
   4   5   5    5.30    1.20
   4   5   6   76.69    3.90
  -4  -5  -6   81.29    4.00
  -4  -5  -6   91.39    6.70
  -4  -5  -6   77.99    4.10
  -4  -5  -6   78.59    4.10
   4   5   6   78.19    3.70
  -4  -5  -6   82.49    4.40
   4   5   6   86.69    4.20
  -4  -5  -7   14.40    1.90
   4   5   7   14.30    1.90
  -4  -5  -7   13.10    1.80
   4   5   7   13.70    1.80
  -4  -5  -7   12.90    1.80
   4   5   7   13.00    1.80
  -4  -5  -8   29.90    2.20
   4   5   8   25.10    1.90
   4   5   8   25.20    2.20
  -4  -5  -8   23.70    2.00
   4   5   8   24.70    1.80
  -4  -5  -8   24.50    2.00
   4   5   8   29.40    2.30
   4   5   9    2.40    0.90
  -4  -5  -9    3.00    0.80
   4   5   9    2.00    0.70
   4   5   9    3.40    1.00
  -4  -5  -9    1.90    0.60
  -4  -6  15   20.10    1.40
  -4  -6  14   16.20    1.70
  -4  -6  14    1.30    2.30
  -4  -6  13   69.29    3.40
  -4  -6  13   69.79    4.00
  -4  -6  12   14.80    1.80
  -4  -6  12   14.80    1.60
  -4  -6  11   11.10    1.50
  -4  -6  11   10.30    1.50
  -4  -6  11   13.70    5.40
  -4  -6  10  146.79    5.10
  -4  -6  10  143.19    5.20
  -4  -6  10  148.69    6.80
   4   6  -9   48.10    6.20
  -4  -6   9   80.89    3.90
  -4  -6   9   63.19    3.30
  -4  -6   9   66.39    3.30
  -4  -6   9   75.69    5.00
  -4  -6   9   62.19    4.10
  -4  -6   8   -2.90    2.40
  -4  -6   8   -0.70    1.70
  -4  -6   8    6.70    1.30
  -4  -6   8    6.50    1.10
  -4  -6   8    2.40    1.70
   4   6  -8    5.60    2.60
  -4  -6   8    5.10    1.40
  -4  -6   7   22.00    4.70
  -4  -6   7   19.90    3.60
   4   6  -7   20.70    4.10
   4   6  -6    0.30    1.50
  -4  -6   6   -1.00    1.40
  -4  -6   6    1.70    1.60
  -4  -6   6    1.50    1.90
   4   6  -5   92.29    7.90
  -4  -6   5  116.79    9.10
  -4  -6   5  122.79    7.80
  -4  -6   5   95.69    7.40
   4   6  -5  107.69    9.10
   4   6  -5  105.09    8.80
  -4  -6   4   16.70    3.40
  -4  -6   4   13.50    2.60
   4   6  -4   14.60    3.70
  -4  -6   4   16.20    3.20
   4   6  -4   14.50    3.90
  -4  -6   3    4.90    2.10
   4   6  -3    2.60    2.00
   4   6  -3    6.30    3.30
  -4  -6   3    2.60    1.30
  -4  -6   3    3.10    1.90
  -4  -6   2   18.70    3.50
   4   6  -2   18.10    5.00
   4   6  -2   17.90    4.30
  -4  -6   2   14.70    2.60
  -4  -6   1   36.70    4.70
  -4  -6   1   29.90    3.70
   4   6  -1   37.30    6.00
   4   6   0   14.00    4.70
   4   6   0   11.60    3.70
  -4  -6   0    9.30    2.50
  -4  -6   0    4.60    2.00
  -4  -6  -1    8.40    1.20
  -4  -6  -1    9.20    1.40
   4   6   1    5.30    3.00
  -4  -6  -1    9.30    1.50
   4   6   1   10.90    4.30
  -4  -6  -1    7.10    2.50
  -4  -6  -1    9.20    1.50
  -4  -6  -1    9.50    1.80
  -4  -6  -1    9.20    1.50
   4   6   1    9.20    1.30
  -4  -6  -1    0.70    2.90
   4   6   1   10.20    1.40
   4   6   2    2.30    1.10
  -4  -6  -2    3.20    1.00
   4   6   2    4.10    1.10
  -4  -6  -2    3.10    1.00
   4   6   2    0.70    2.20
  -4  -6  -2    2.80    1.10
   4   6   2    1.00    2.70
  -4  -6  -2    3.10    1.20
  -4  -6  -2    3.40    1.50
  -4  -6  -2    0.00    1.30
  -4  -6  -3   19.80    2.50
  -4  -6  -3   21.00    2.00
   4   6   3   19.00    2.10
  -4  -6  -3   18.00    1.90
  -4  -6  -3   20.40    2.20
  -4  -6  -3   19.60    2.00
   4   6   3   19.90    2.00
  -4  -6  -3   21.10    2.40
   4   6   3   18.20    2.00
  -4  -6  -3   18.60    2.20
   4   6   3   19.60    2.10
   4   6   3   19.70    2.00
   4   6   4    0.70    1.10
   4   6   4    0.50    1.10
  -4  -6  -4    1.00    1.00
  -4  -6  -4    0.30    1.00
  -4  -6  -4    1.00    1.10
   4   6   4    1.00    1.00
  -4  -6  -4    2.00    1.20
   4   6   4    0.90    0.80
   4   6   4    0.70    1.00
  -4  -6  -5   18.10    2.00
   4   6   5   15.50    2.00
  -4  -6  -5   15.30    2.00
   4   6   5   15.70    1.90
  -4  -6  -5   16.20    2.20
   4   6   5   15.40    1.80
   4   6   5   18.10    2.20
  -4  -6  -5   14.30    1.90
   4   6   6    6.40    1.40
  -4  -6  -6    8.20    1.50
   4   6   6    9.10    1.60
  -4  -6  -6    5.00    1.40
  -4  -6  -6    7.70    1.60
   4   6   6    8.70    1.30
  -4  -6  -7   19.00    1.70
   4   6   7   18.30    1.80
   4   6   7   17.40    1.90
  -4  -6  -7   15.20    1.70
  -4  -6  -7   17.30    1.80
   4   6   7   19.20    1.90
  -4  -6  -8   12.90    1.20
   4   6   8   11.80    1.20
  -4  -6  -8   13.40    1.40
  -4  -6  -8   11.20    0.90
   4   6   8   12.50    1.40
   4   6   8   11.80    1.10
  -4  -6  -8   11.10    1.20
   4   6   8   13.10    1.40
   4   6   9    2.50    0.60
   4   6   9    2.30    0.50
  -4  -6  -9    3.00    0.70
  -4  -7  15    6.50    2.60
  -4  -7  15   18.60    1.20
  -4  -7  14   10.10    2.20
  -4  -7  14   15.90    1.60
  -4  -7  13   72.49    3.80
  -4  -7  13   66.99    3.10
  -4  -7  12    6.50    1.30
  -4  -7  12    2.70    2.20
  -4  -7  12   13.10    1.90
  -4  -7  12   19.10    5.70
  -4  -7  11   18.70    2.00
  -4  -7  11   24.20    2.70
  -4  -7  11   31.50    2.50
  -4  -7  11   35.30    5.60
  -4  -7  10   10.30    1.80
  -4  -7  10    4.50    1.00
  -4  -7  10   10.70    4.50
  -4  -7   9   -2.80    1.80
  -4  -7   9    0.90    0.80
  -4  -7   9    0.30    0.80
  -4  -7   9    5.30    3.70
  -4  -7   9    2.70    1.30
  -4  -7   8   -0.90    1.50
  -4  -7   8    8.20    1.50
  -4  -7   8    7.90    2.80
  -4  -7   8    2.10    0.80
   4   7  -8    4.30    2.20
  -4  -7   8    2.30    0.90
  -4  -7   8    7.40    3.10
  -4  -7   8    2.50    1.40
  -4  -7   7   80.69    3.50
  -4  -7   7   73.19    5.10
  -4  -7   7   87.59    3.70
  -4  -7   7   74.89    8.20
  -4  -7   7   73.79    6.90
  -4  -7   7   59.49    3.40
  -4  -7   7   86.29    3.70
  -4  -7   7   81.59    4.50
   4   7  -7   66.59    7.60
  -4  -7   6  171.78    5.10
  -4  -7   6  174.18    7.90
  -4  -7   6  164.48   10.00
  -4  -7   6  174.28   12.00
   4   7  -6  138.19   10.00
  -4  -7   6  170.78    5.00
  -4  -7   6  136.19    5.20
  -4  -7   6  141.79    9.10
  -4  -7   6  179.28    5.40
   4   7  -6  147.59   11.20
  -4  -7   6  182.88    6.50
   4   7  -5   54.69    6.70
  -4  -7   5   60.49    3.00
  -4  -7   5   69.19    6.50
  -4  -7   5   77.29    6.50
  -4  -7   5   79.39    5.30
   4   7  -5   62.59    7.20
  -4  -7   5   80.99    4.10
  -4  -7   5   70.79    3.20
   4   7  -5   67.19    7.70
  -4  -7   4   32.60    4.20
  -4  -7   4   39.90    3.80
   4   7  -4   32.60    5.50
  -4  -7   4   36.00    4.80
   4   7  -4   29.50    5.80
  -4  -7   3    0.70    1.40
   4   7  -3    0.20    2.00
  -4  -7   3   -0.50    1.70
   4   7  -3    0.80    2.50
  -4  -7   3    0.90    1.20
  -4  -7   2   21.90    1.90
  -4  -7   2   21.70    2.90
  -4  -7   2   18.40    3.20
   4   7  -2   20.40    4.80
  -4  -7   2   20.60    3.80
   4   7  -2   20.50    5.30
  -4  -7   2   21.20    2.00
  -4  -7   2   19.60    2.40
   4   7  -1  192.18    5.40
  -4  -7   1  194.28    7.50
  -4  -7   1  170.08    5.20
  -4  -7   1  154.08    8.70
  -4  -7   1  171.08    7.40
  -4  -7   1  175.38    5.90
   4   7  -1  185.18   13.60
  -4  -7   1  203.28    6.40
  -4  -7   1  170.98   10.60
   4   7  -1  203.68   16.10
  -4  -7   0    2.60    1.50
  -4  -7   0    1.60    0.90
  -4  -7   0    1.80    0.90
   4   7   0    3.10    2.50
   4   7   0    5.20    3.50
  -4  -7   0   -0.10    1.60
  -4  -7   0    1.90    1.10
  -4  -7   0    2.00    1.00
   4   7   0    2.40    0.90
  -4  -7   0    2.60    1.40
  -4  -7  -1   15.50    1.70
   4   7   1   18.80    1.90
  -4  -7  -1   18.10    2.10
  -4  -7  -1   17.60    1.90
  -4  -7  -1   19.00    2.30
   4   7   1   17.40    1.80
  -4  -7  -1   15.80    2.40
   4   7   2    0.80    1.00
   4   7   2    1.10    1.00
  -4  -7  -2    1.00    1.20
  -4  -7  -2    0.60    0.80
  -4  -7  -2    0.30    1.10
   4   7   2    0.50    0.80
   4   7   2    1.50    1.10
  -4  -7  -2    1.60    1.20
  -4  -7  -2    1.10    1.10
   4   7   3   -0.60    1.10
  -4  -7  -3   -0.40    0.70
   4   7   3    0.50    0.90
   4   7   3   -0.40    1.10
  -4  -7  -3   -0.50    1.20
   4   7   3    0.10    1.00
  -4  -7  -3   -0.20    1.10
  -4  -7  -3    0.30    0.90
   4   7   3    0.00    0.90
  -4  -7  -3   -0.20    1.10
  -4  -7  -3    0.40    0.90
  -4  -7  -4   18.90    1.90
   4   7   4   18.30    2.10
  -4  -7  -4   14.50    1.90
   4   7   4   17.40    2.00
  -4  -7  -4   17.00    2.20
   4   7   4   17.90    1.90
   4   7   4   14.40    1.80
  -4  -7  -4   13.80    2.00
  -4  -7  -5   23.50    2.00
   4   7   5   22.00    2.10
   4   7   5   24.10    2.30
  -4  -7  -5   24.20    2.40
   4   7   5   23.20    2.00
   4   7   5   22.50    2.10
  -4  -7  -6   21.50    1.70
   4   7   6   23.40    2.00
   4   7   6   21.60    2.00
  -4  -7  -6   20.30    1.90
   4   7   6   20.80    1.60
   4   7   6   20.10    1.80
   4   7   7    2.00    0.80
  -4  -7  -7    1.90    0.70
  -4  -7  -7    1.60    0.80
   4   7   7    1.80    0.70
   4   7   7    2.00    0.80
   4   7   7    1.40    0.80
  -4  -7  -7    1.70    0.80
  -4  -7  -8   32.20    1.50
   4   7   8   30.70    1.40
  -4  -8  15  154.98    4.20
  -4  -8  14   29.10    1.60
  -4  -8  14   21.00    3.40
  -4  -8  13    9.90    1.30
  -4  -8  13   19.50    1.80
  -4  -8  12   16.70    1.90
  -4  -8  12   16.60    1.70
  -4  -8  12   21.80    2.60
  -4  -8  11   17.10    1.90
  -4  -8  11   22.40    2.60
  -4  -8  11   33.60    2.50
  -4  -8  11    9.90    4.30
  -4  -8  11   25.30    4.80
  -4  -8  10  249.97    6.70
  -4  -8  10  263.37    6.90
  -4  -8  10  219.88    6.50
  -4  -8  10  262.77    8.40
  -4  -8  10  298.27    7.80
  -4  -8   9   33.40    2.50
  -4  -8   9   40.80    4.50
  -4  -8   9   30.20    3.80
  -4  -8   8   50.39    3.00
  -4  -8   8   45.20    2.70
  -4  -8   8   53.99    4.30
  -4  -8   8   35.50    2.80
  -4  -8   8   43.00    3.30
  -4  -8   7  124.09    4.50
  -4  -8   7  114.39    4.90
  -4  -8   7  112.59    4.20
  -4  -8   6   50.19    2.80
   4   8  -6   42.30    5.80
  -4  -8   6   46.70    2.70
  -4  -8   6   51.69    3.40
  -4  -8   6   49.10    3.00
   4   8  -6   49.99    6.90
  -4  -8   5  187.08    6.10
  -4  -8   5  193.58    5.60
   4   8  -5  168.78   12.30
  -4  -8   5  186.68   10.60
  -4  -8   5  157.08   10.10
  -4  -8   5  199.98    6.70
  -4  -8   5  203.38    9.00
  -4  -8   5  173.28    5.50
  -4  -8   4    9.00    1.80
  -4  -8   4    9.40    2.30
  -4  -8   4    8.10    1.20
  -4  -8   4    9.00    2.40
   4   8  -4   12.80    3.70
  -4  -8   4    9.50    1.50
  -4  -8   4    9.80    2.90
   4   8  -4   10.80    4.20
  -4  -8   3   22.20    1.90
  -4  -8   3   25.30    3.40
  -4  -8   3   17.70    3.20
   4   8  -3   23.00    5.20
  -4  -8   3   20.00    3.80
  -4  -8   3   22.00    2.20
   4   8  -3   25.50    5.90
  -4  -8   3   24.30    2.80
  -4  -8   2    6.00    1.80
  -4  -8   2    6.10    1.20
   4   8  -2    8.20    3.60
  -4  -8   2    7.00    2.60
   4   8  -2    4.40    2.60
  -4  -8   2    7.00    1.40
  -4  -8   2    7.50    1.40
   4   8  -2    8.30    1.20
  -4  -8   1  209.98    6.30
  -4  -8   1  209.68    6.80
  -4  -8   1  201.88    6.00
  -4  -8   1  231.68    7.30
  -4  -8   1  213.28    8.30
   4   8  -1  223.08    6.00
  -4  -8   0  130.49    5.00
   4   8   0  140.59    5.20
   4   8   0  144.79    5.00
  -4  -8   0  146.29    5.90
  -4  -8   0  139.59    6.30
  -4  -8   0  123.39    4.60
   4   8   0  139.49    4.80
  -4  -8   0  133.49    6.50
  -4  -8  -1    1.50    1.50
   4   8   1    0.40    1.10
   4   8   1    0.90    1.10
  -4  -8  -1    1.90    1.10
   4   8   1    1.40    1.10
  -4  -8  -1    2.00    1.20
  -4  -8  -1    0.80    1.30
   4   8   1    1.00    0.90
  -4  -8  -2   20.70    2.10
   4   8   2   17.60    1.90
   4   8   2   17.80    2.10
   4   8   2   17.20    2.00
  -4  -8  -2   19.70    2.40
  -4  -8  -2   16.80    2.20
   4   8   2   18.90    2.10
  -4  -8  -2   16.20    1.90
   4   8   2   17.30    1.90
  -4  -8  -2   17.60    2.40
   4   8   3    5.60    1.20
   4   8   3    6.60    1.50
  -4  -8  -3    7.40    1.40
   4   8   3    5.60    1.40
  -4  -8  -3    6.30    1.60
  -4  -8  -3    5.70    1.30
   4   8   3    5.20    1.30
  -4  -8  -3    6.10    1.50
  -4  -8  -4   41.70    2.30
  -4  -8  -4   39.40    2.60
   4   8   4   36.50    2.70
   4   8   4   40.20    2.60
  -4  -8  -4   37.30    2.80
   4   8   4   38.50    2.50
   4   8   4   36.20    2.40
   4   8   5   -0.50    0.70
  -4  -8  -5    0.10    0.60
  -4  -8  -5    0.40    0.80
   4   8   5    0.00    0.90
   4   8   5    1.30    0.90
  -4  -8  -5    0.40    0.90
   4   8   5   -0.30    0.60
   4   8   6    1.20    0.60
  -4  -8  -6    1.10    0.50
  -4  -8  -6    1.30    0.60
   4   8   6    0.80    0.80
   4   8   6    0.80    0.70
   4   8   6    0.70    0.70
  -4  -8  -6    1.00    0.70
   4   8   6    0.40    0.50
  -4  -9  14   12.10    1.00
  -4  -9  14   16.30    2.90
  -4  -9  13   10.20    1.30
  -4  -9  13    7.40    1.00
  -4  -9  13   11.00    3.80
  -4  -9  13    9.70    1.10
  -4  -9  12  146.29    5.10
  -4  -9  12  150.08    4.30
  -4  -9  12  150.78    6.60
  -4  -9  11   15.00    1.90
  -4  -9  11   17.50    2.10
  -4  -9  11   17.90    1.70
  -4  -9  11   14.80    1.60
  -4  -9  11   19.20    4.70
  -4  -9  10   33.50    2.30
  -4  -9  10   31.30    4.70
  -4  -9  10   25.70    2.20
  -4  -9   9    9.30    1.60
  -4  -9   9   10.80    1.50
  -4  -9   8   87.69    3.70
  -4  -9   8   79.49    4.20
  -4  -9   7   48.60    2.80
  -4  -9   7   54.99    3.50
  -4  -9   6   63.69    3.90
  -4  -9   6   59.09    3.10
  -4  -9   6   61.79    3.40
  -4  -9   6   70.09    4.20
  -4  -9   5   99.89    4.80
  -4  -9   5   89.99    4.20
  -4  -9   5   94.19    5.10
  -4  -9   5   87.19    3.80
  -4  -9   4   18.70    2.30
  -4  -9   4   16.60    2.00
  -4  -9   4   16.80    2.50
  -4  -9   4   15.40    1.70
  -4  -9   3    1.20    0.90
  -4  -9   3    0.40    0.70
  -4  -9   3    0.30    0.90
  -4  -9   3   -0.40    1.00
  -4  -9   3    0.20    1.20
  -4  -9   2   16.70    1.90
  -4  -9   2   15.00    1.70
  -4  -9   2   16.20    2.00
  -4  -9   2   18.50    2.60
  -4  -9   2   15.00    2.50
  -4  -9   1   23.50    2.00
   4   9  -1   27.00    2.30
   4   9  -1   30.70    2.30
  -4  -9   1   28.20    2.60
  -4  -9   1   31.60    3.20
  -4  -9   1   29.30    2.30
  -4  -9   1   28.00    3.20
   4   9   0   15.50    1.90
   4   9   0   15.70    1.70
  -4  -9   0   16.50    2.10
   4   9   0   17.50    2.00
  -4  -9   0   18.30    2.50
  -4  -9   0   14.30    1.80
   4   9   0   18.70    1.70
   4   9   1   52.29    3.20
   4   9   1   53.79    2.90
  -4  -9  -1   47.50    2.90
   4   9   1   53.29    3.20
  -4  -9  -1   53.49    3.50
  -4  -9  -1   55.19    3.70
   4   9   1   56.49    3.40
   4   9   1   51.29    2.70
   4   9   2   33.00    2.50
  -4  -9  -2   37.30    2.30
   4   9   2   37.00    2.70
  -4  -9  -2   35.00    2.80
   4   9   2   34.20    2.50
  -4  -9  -2   38.40    2.80
   4   9   2   29.90    2.10
  -4  -9  -3   33.70    2.10
   4   9   3   32.40    2.40
   4   9   3   30.90    2.30
  -4  -9  -3   30.80    2.50
   4   9   3   28.80    2.20
  -4  -9  -3   33.00    2.30
   4   9   3   31.70    2.00
   4   9   3   27.90    1.90
   4   9   4    1.10    0.60
   4   9   4    0.80    0.90
   4   9   4    1.40    0.70
  -4  -9  -4    2.00    0.70
  -4  -9  -4    1.20    0.90
   4   9   4    1.90    0.80
   4   9   5    3.20    0.50
  -4  -9  -5    4.20    0.70
   4   9   5    3.60    0.80
   4   9   5    2.90    0.70
  -4  -9  -5    1.90    0.40
   4   9   5    3.70    0.60
  -4 -10  14  109.19    3.40
  -4 -10  13   27.80    1.60
  -4 -10  13   33.10    2.00
  -4 -10  13   28.60    3.20
  -4 -10  12   19.10    1.70
  -4 -10  12   20.00    1.90
  -4 -10  12   17.90    1.40
  -4 -10  11  118.69    4.60
  -4 -10  11  114.79    3.50
  -4 -10  11  104.69    5.30
  -4 -10  11  125.79    4.80
  -4 -10  11  108.49    3.90
  -4 -10  10   75.99    3.10
  -4 -10  10   81.39    4.10
  -4 -10  10   74.49    3.50
  -4 -10   9   37.20    2.30
  -4 -10   9   40.90    3.00
  -4 -10   9   37.50    2.70
  -4 -10   8   57.79    3.50
  -4 -10   8   53.79    2.80
  -4 -10   7    3.20    1.00
  -4 -10   7    4.40    1.40
  -4 -10   6  152.18    4.90
  -4 -10   6  161.38    6.10
  -4 -10   5    5.00    1.10
  -4 -10   5    5.40    1.50
  -4 -10   5    5.10    1.50
  -4 -10   4    3.70    1.00
  -4 -10   4    5.30    1.30
  -4 -10   4    5.10    1.10
  -4 -10   4    4.70    1.40
  -4 -10   4    5.20    1.60
   4  10  -3    2.30    0.80
  -4 -10   3    2.80    1.10
  -4 -10   3    2.70    0.90
   4  10  -3    3.40    1.00
  -4 -10   3    3.20    1.00
  -4 -10   3    2.20    1.30
  -4 -10   3    2.40    1.50
  -4 -10   2   59.79    3.10
  -4 -10   2   72.19    3.80
  -4 -10   2   53.89    2.80
  -4 -10   2   63.39    3.80
   4  10  -2   57.59    3.00
   4  10  -2   59.09    2.90
  -4 -10   2   67.29    4.30
   4  10  -1   81.69    3.40
   4  10  -1   90.99    4.00
  -4 -10   1   85.89    4.20
   4  10  -1   89.79    3.70
  -4 -10   1   82.09    3.60
   4  10   0    1.80    1.00
   4  10   0    2.50    0.90
   4  10   0    2.40    1.20
  -4 -10   0    2.90    1.10
  -4 -10   0    3.10    1.40
   4  10   0    3.40    1.30
   4  10   1   30.00    2.30
  -4 -10  -1   26.40    2.30
   4  10   1   27.80    2.20
  -4 -10  -1   29.10    2.50
   4  10   1   26.80    2.00
   4  10   2    0.20    0.80
  -4 -10  -2    0.80    0.70
   4  10   2    0.90    0.90
  -4 -10  -2    0.30    0.80
  -4 -10  -2    0.90    0.80
   4  10   2    0.50    0.80
   4  10   2    0.80    0.70
  -4 -10  -3   21.00    1.60
   4  10   3   17.80    1.50
   4  10   3   16.90    1.20
  -4 -10  -3   14.30    1.20
   4  10   3   18.90    1.40
  -4 -10  -3   17.90    1.20
   4  10   4    3.70    0.70
  -4 -10  -4    3.20    0.70
  -4 -11  13    2.90    0.70
  -4 -11  12   71.79    2.80
  -4 -11  12   65.69    2.20
  -4 -11  11    3.00    1.10
  -4 -11  11    4.10    1.20
  -4 -11  11    3.20    0.80
  -4 -11  10  138.09    5.00
  -4 -11  10  142.99    4.80
  -4 -11  10  134.39    4.40
  -4 -11   9    0.40    0.90
  -4 -11   9    0.50    0.60
  -4 -11   9   -0.30    0.90
  -4 -11   8   52.29    2.90
  -4 -11   8   48.60    2.30
  -4 -11   8   53.99    3.20
  -4 -11   7   16.80    1.70
  -4 -11   7   16.30    2.00
  -4 -11   7   15.90    1.50
  -4 -11   6    9.80    1.20
  -4 -11   6   11.10    1.30
  -4 -11   6   11.00    1.70
  -4 -11   5    2.90    0.80
   4  11  -5    4.40    0.90
  -4 -11   5    4.10    1.30
  -4 -11   5    5.20    1.50
  -4 -11   4   20.90    1.60
  -4 -11   4   23.70    2.00
  -4 -11   4   17.80    1.60
   4  11  -4   19.70    1.50
  -4 -11   4   22.10    2.50
  -4 -11   4   21.20    2.30
  -4 -11   3   16.40    1.70
   4  11  -3   12.80    1.30
  -4 -11   3   13.50    1.90
   4  11  -3   14.00    1.60
  -4 -11   3   13.90    1.40
  -4 -11   3   18.20    2.30
  -4 -11   2    3.90    0.90
  -4 -11   2    4.00    1.10
   4  11  -2    3.60    0.80
   4  11  -2    3.90    0.90
  -4 -11   2    4.60    1.30
   4  11  -2    5.50    1.20
  -4 -11   2    5.20    1.50
  -4 -11   1    2.20    0.90
   4  11  -1    1.70    0.70
  -4 -11   1    1.90    1.00
   4  11  -1    1.10    0.90
  -4 -11   1    2.60    1.30
   4  11  -1    2.10    1.00
  -4 -11   0   20.30    1.80
   4  11   0   19.80    1.50
  -4 -11   0   19.40    1.70
   4  11   0   20.10    1.60
  -4 -11   0   23.80    2.10
   4  11   0   21.50    1.80
  -4 -11  -1   35.30    2.00
   4  11   1   32.00    1.70
  -4 -11  -1   30.10    1.70
   4  11   1   31.00    1.80
   4  11   1   29.50    1.80
  -4 -11  -1   38.60    2.20
   4  11   1   35.00    1.90
   4  11   2    4.40    0.70
  -4 -11  -2    3.40    0.50
   4  11   2    5.30    0.80
  -4 -11  -2    4.70    0.80
  -4 -12  12   18.10    1.20
  -4 -12  11   39.70    2.00
  -4 -12  11   38.40    1.70
  -4 -12  11   43.50    2.00
  -4 -12  10   10.80    1.40
  -4 -12  10   10.40    1.20
  -4 -12  10   11.50    1.20
  -4 -12   9    8.00    1.20
  -4 -12   9    8.20    1.20
  -4 -12   9    7.70    1.10
  -4 -12   8   12.40    1.50
  -4 -12   8   12.30    1.20
  -4 -12   7    2.30    1.00
  -4 -12   7    1.50    0.60
  -4 -12   6   77.09    3.50
  -4 -12   6   86.99    3.60
  -4 -12   5    3.10    1.10
   4  12  -5    3.30    0.70
  -4 -12   5    5.00    1.20
  -4 -12   4   27.30    2.10
   4  12  -4   25.10    1.60
  -4 -12   4   27.10    2.30
  -4 -12   3   27.50    1.70
  -4 -12   3   27.10    2.00
   4  12  -3   26.60    1.60
  -4 -12   3   33.50    2.40
   4  12  -3   29.00    2.00
  -4 -12   2   44.60    2.10
  -4 -12   2   43.50    2.20
   4  12  -2   41.20    1.90
   4  12  -2   46.10    2.30
  -4 -12   1    0.70    0.60
  -4 -12   1    0.90    0.60
   4  12  -1    0.70    0.50
  -4 -12   1    0.60    0.80
   4  12  -1    1.20    0.70
  -4 -12   0   37.50    1.60
  -4 -12   0   37.70    1.50
   4  12   0   47.30    1.90
  -4 -12   0   54.09    2.10
   4  12   0   45.60    1.80
  -4 -13  10    0.70    0.60
  -4 -13   9    3.40    0.70
  -4 -13   9    4.10    0.70
  -4 -13   8   48.20    2.00
  -4 -13   8   49.99    2.10
  -4 -13   7   22.50    1.30
  -4 -13   7   24.10    1.60
  -4 -13   6    6.10    0.70
  -4 -13   6    8.40    1.00
  -4 -13   5   27.80    1.60
  -4 -13   5   30.10    1.60
   4  13  -5   26.30    1.50
  -4 -13   4   59.79    2.20
   4  13  -4   58.09    2.10
  -4 -13   3    1.30    0.50
  -4 -13   3    2.40    0.70
   4  13  -3    1.10    0.60
   4  13  -3    1.60    0.60
   5 -14   1   25.70    1.30
  -5  14  -1   22.10    1.70
  -5  14  -2    4.20    1.00
  -5  14  -2    5.00    1.00
   5 -14   2    5.10    0.60
   5 -14   2    4.70    0.70
  -5  14  -2    6.00    1.00
   5 -14   3   48.50    1.90
  -5  14  -3   60.09    2.70
  -5  14  -3   49.70    2.50
   5 -14   3   48.40    1.80
  -5  14  -3   59.09    2.40
  -5  14  -4   -0.50    0.70
   5 -14   4    0.40    0.50
  -5  14  -4    0.80    0.80
   5 -14   4    0.50    0.50
  -5  14  -4    0.70    0.60
   5 -14   5   -0.30    0.50
   5 -14   5   -0.50    0.60
  -5  14  -5    1.00    0.80
  -5  14  -6   15.20    1.40
   5 -14   6   13.60    1.00
   5 -14   6   14.70    1.20
   5 -14   7    0.60    0.50
   5 -14   8   26.30    1.30
  -5  13   2    0.50    0.70
  -5  13   1   76.09    3.20
   5 -13  -1   75.49    2.50
  -5  13   1   86.09    3.20
   5 -13  -1   62.29    2.00
  -5  13   1   69.29    2.40
  -5  13   1   91.49    3.30
  -5  13   0    9.20    1.30
  -5  13   0    8.20    1.20
   5 -13   0    7.60    1.10
   5 -13   0    7.30    0.90
  -5  13   0    8.80    1.30
  -5  13   0    8.60    1.40
   5 -13   0    7.10    0.80
   5 -13   1   36.70    2.10
  -5  13  -1   35.90    2.30
   5 -13   1   34.70    1.90
  -5  13  -1   35.80    2.20
  -5  13  -1   36.30    2.50
  -5  13  -1   38.50    2.60
   5 -13   1   31.60    1.60
  -5  13  -2    0.00    0.70
  -5  13  -2   -0.50    0.80
   5 -13   2   -0.10    0.60
  -5  13  -2    0.10    1.00
   5 -13   2    0.50    0.80
  -5  13  -2    0.80    1.00
   5 -13   2   -0.30    0.60
  -5  13  -3   24.30    1.70
   5 -13   3   25.80    2.00
   5 -13   3   25.40    1.90
  -5  13  -3   27.00    2.30
   5 -13   3   24.40    1.60
   5 -13   4    1.80    1.00
   5 -13   4    1.80    0.90
   5 -13   4    1.50    0.90
  -5  13  -4    1.70    0.90
   5 -13   4    2.00    0.70
   5 -13   5    0.40    0.70
   5 -13   5    0.90    0.80
  -5  13  -5   -0.30    0.90
  -5  13  -5    1.10    0.70
   5 -13   6   32.00    2.00
   5 -13   6   29.30    2.00
   5 -13   7    3.10    0.90
   5 -13   7    2.10    0.80
  -5  13  -7    2.00    0.80
   5 -13   8   26.70    1.70
   5 -13   8   26.80    1.80
   5 -13   9    0.70    0.60
   5 -13   9    0.30    0.60
   5 -13  10   20.60    1.30
  -5  12   4    6.10    1.00
  -5  12   3   18.40    1.60
  -5  12   3   22.50    1.70
   5 -12  -3   19.70    1.30
  -5  12   3   23.30    1.90
   5 -12  -3   17.20    1.00
   5 -12  -3   20.50    1.20
  -5  12   2   27.60    2.30
   5 -12  -2   28.20    1.80
  -5  12   2   32.80    2.30
   5 -12  -2   24.50    1.50
  -5  12   2   29.10    1.90
  -5  12   2   32.40    2.30
   5 -12  -2   28.70    1.70
  -5  12   1    0.40    1.00
   5 -12  -1    1.80    0.90
   5 -12  -1    0.80    0.70
  -5  12   1    1.10    1.00
  -5  12   1    1.40    1.20
  -5  12   1    0.30    1.10
   5 -12  -1    0.90    0.70
  -5  12   1    1.40    0.80
  -5  12   0    4.00    1.40
  -5  12   0    3.40    1.20
   5 -12   0    3.50    1.10
   5 -12   0    2.60    0.90
  -5  12   0    5.00    1.40
  -5  12   0    3.30    1.40
   5 -12   0    3.90    1.00
  -5  12   0    3.80    1.00
  -5  12  -1    2.70    1.30
  -5  12  -1    2.40    1.10
   5 -12   1    1.60    0.90
  -5  12  -1    1.10    1.30
   5 -12   1    1.70    0.80
   5 -12   1    1.90    1.10
   5 -12   2   19.10    2.00
  -5  12  -2   19.80    2.10
   5 -12   2   18.70    1.80
  -5  12  -2   20.70    2.00
  -5  12  -2   19.80    2.30
   5 -12   2   20.90    1.90
  -5  12  -3    7.10    1.20
   5 -12   3    6.40    1.50
   5 -12   3    6.80    1.30
  -5  12  -3    7.60    1.50
   5 -12   3    7.30    1.30
   5 -12   4   17.10    2.10
   5 -12   4   15.30    1.80
  -5  12  -4   16.80    2.00
   5 -12   4   18.00    1.80
   5 -12   5   24.80    2.40
   5 -12   5   22.50    2.10
   5 -12   5   23.30    2.10
  -5  12  -5   24.10    2.10
   5 -12   5   26.40    2.10
   5 -12   6    0.30    0.90
   5 -12   6    0.50    0.90
   5 -12   7    2.30    1.00
   5 -12   7    2.40    1.00
   5 -12   8    3.10    1.00
   5 -12   8    3.00    1.00
   5 -12   9   39.50    1.80
   5 -12   9   47.90    2.50
   5 -12   9   44.10    2.40
   5 -12  10  115.59    3.60
   5 -12  10  110.29    3.40
   5 -12  11    1.40    0.60
   5 -12  11    1.70    0.60
   5 -11  -5   16.50    1.10
   5 -11  -5   17.60    1.20
  -5  11   5   17.70    1.50
  -5  11   4    8.60    1.30
  -5  11   4   10.70    1.60
   5 -11  -4    7.60    1.00
   5 -11  -4    5.80    0.80
  -5  11   4    8.60    1.30
   5 -11  -4    9.70    1.10
  -5  11   3    0.40    1.10
   5 -11  -3    0.50    0.80
  -5  11   3   -0.10    1.20
  -5  11   3    0.30    0.70
  -5  11   3    0.40    1.00
   5 -11  -3    0.30    0.80
  -5  11   3    0.70    0.90
   5 -11  -2   54.49    3.00
  -5  11   2   61.19    3.70
  -5  11   2   63.49    3.90
  -5  11   2   60.39    3.50
  -5  11   2   63.59    3.50
   5 -11  -2   62.09    3.10
  -5  11   2   59.59    3.30
  -5  11   1   44.30    3.10
   5 -11  -1   39.30    2.70
  -5  11   1   46.10    3.50
  -5  11   1   41.70    3.10
   5 -11  -1   36.30    2.40
  -5  11   1   41.80    3.30
   5 -11  -1   42.30    2.70
  -5  11   1   42.10    2.90
  -5  11   0    5.70    1.40
   5 -11   0    5.60    1.40
  -5  11   0    6.60    1.70
   5 -11   0    5.60    1.20
  -5  11   0    5.60    1.80
   5 -11   0    5.90    1.30
  -5  11   0    5.90    1.30
   5 -11   1  140.89    5.40
  -5  11  -1  159.08    6.20
   5 -11   1  154.58    5.20
  -5  11  -1  149.69    5.60
  -5  11  -1  155.38    6.40
   5 -11   1  157.18    5.50
  -5  11  -2    6.50    1.30
   5 -11   2    5.10    1.40
  -5  11  -2    6.00    1.40
   5 -11   2    5.60    1.30
   5 -11   2    5.40    1.30
   5 -11   3   35.80    2.90
   5 -11   3   34.30    2.60
   5 -11   3   38.70    2.80
   5 -11   4   50.09    3.40
   5 -11   4   49.20    3.10
   5 -11   4   49.60    3.10
  -5  11  -4   56.69    3.50
   5 -11   5    8.90    1.70
   5 -11   5    7.60    1.20
   5 -11   5    9.00    1.50
   5 -11   5    8.40    1.50
   5 -11   6   46.50    2.70
   5 -11   6   44.20    2.90
   5 -11   6   45.00    3.10
   5 -11   6   45.90    3.00
   5 -11   7   -0.60    0.90
   5 -11   7   -0.20    1.00
   5 -11   7   -0.10    0.90
   5 -11   8   94.29    4.20
   5 -11   8   96.69    4.20
   5 -11   8  103.99    3.70
   5 -11   9    2.90    1.00
   5 -11   9    3.10    1.10
   5 -11  10   52.79    2.80
   5 -11  10   57.79    2.90
   5 -11  10   51.09    2.40
   5 -11  11    4.70    1.00
   5 -11  11    3.70    0.90
   5 -11  11    3.80    0.80
   5 -11  12   38.40    1.80
   5 -11  12   32.50    1.60
   5 -10  -7   13.00    0.90
  -5  10   7   17.00    1.40
   5 -10  -6   37.30    1.70
  -5  10   6   41.40    2.30
  -5  10   6   40.30    1.80
   5 -10  -6   44.90    2.10
   5 -10  -5    8.10    1.10
  -5  10   5   10.70    1.60
  -5  10   5    7.80    1.00
  -5  10   5   10.90    1.40
   5 -10  -5   10.10    1.40
   5 -10  -4   88.19    3.50
  -5  10   4   94.29    4.40
  -5  10   4   97.09    4.70
  -5  10   4   90.79    4.20
  -5  10   4   96.59    4.40
  -5  10   3   57.19    3.40
   5 -10  -3   53.29    3.00
  -5  10   3   58.39    3.70
  -5  10   3   56.19    3.90
  -5  10   3   53.99    3.60
   5 -10  -3   60.89    3.30
  -5  10   3   57.29    3.60
  -5  10   2    5.40    1.60
  -5  10   2    4.80    1.70
   5 -10  -2    6.40    1.40
  -5  10   2    5.10    1.40
  -5  10   2    5.50    1.60
   5 -10  -2    6.10    1.40
  -5  10   2    5.60    1.50
  -5  10   1    6.30    1.70
  -5  10   1    6.70    1.90
   5 -10  -1    6.10    1.40
  -5  10   1    6.40    1.70
   5 -10  -1    6.60    1.40
  -5  10   1    6.90    1.50
  -5  10   0    8.90    1.70
   5 -10   0    8.60    1.60
  -5  10   0    9.60    1.90
   5 -10   0    8.30    1.60
  -5  10   0    7.90    1.40
  -5  10  -1  164.88    5.90
   5 -10   1  156.88    5.80
  -5  10  -1  170.78    6.50
   5 -10   1  155.18    5.40
   5 -10   1  174.18    6.10
  -5  10  -2  127.09    4.90
   5 -10   2  118.39    5.00
   5 -10   2  114.69    4.60
   5 -10   2  121.69    4.40
   5 -10   2  128.59    5.20
  -5  10  -2  122.59    5.30
   5 -10   3    2.00    1.10
   5 -10   3    0.30    0.90
   5 -10   3    1.80    0.90
   5 -10   3    0.50    0.90
   5 -10   4  224.78    6.30
   5 -10   4  219.98    7.10
   5 -10   4  219.28    6.60
   5 -10   4  230.58    7.10
   5 -10   5   28.00    2.60
   5 -10   5   31.70    2.70
   5 -10   5   28.60    2.30
   5 -10   5   27.50    2.50
   5 -10   6  192.28    6.50
   5 -10   6  217.68    6.40
   5 -10   6  207.48    6.50
   5 -10   6  211.28    6.80
   5 -10   7    0.10    1.00
   5 -10   7    0.20    0.90
   5 -10   7    0.20    0.90
   5 -10   7   -0.90    1.10
   5 -10   8    2.10    1.00
   5 -10   8    2.60    0.90
   5 -10   8    2.90    0.90
   5 -10   8    1.50    1.10
   5 -10   9    4.10    1.30
   5 -10   9    1.50    0.70
   5 -10   9    4.10    1.20
   5 -10  10    5.70    0.90
   5 -10  10    8.30    1.40
   5 -10  10    5.80    1.30
   5 -10  11   13.30    1.60
   5 -10  11   16.40    1.60
   5 -10  11   14.20    1.50
   5 -10  11   12.10    1.20
   5 -10  12    2.10    0.70
   5 -10  12    1.20    0.80
   5 -10  13   13.80    1.10
   5 -10  13    3.80    0.60
   5  -9  -8    0.30    0.60
  -5   9   8    0.50    0.70
   5  -9  -7    0.10    0.50
   5  -9  -7    0.30    0.40
  -5   9   7   -0.10    0.70
  -5   9   7   -0.50    0.70
   5  -9  -6    0.90    0.60
   5  -9  -6    2.00    0.80
  -5   9   6    1.30    1.10
  -5   9   6    0.60    0.80
  -5   9   5   27.80    2.60
  -5   9   5   26.30    2.60
   5  -9  -5   23.70    1.90
   5  -9  -5   30.60    2.10
  -5   9   5   25.40    2.10
  -5   9   5   28.60    2.40
  -5   9   5   26.50    2.60
  -5   9   4    0.60    1.40
  -5   9   4    0.40    1.30
   5  -9  -4    0.60    0.80
  -5   9   4    1.00    1.00
   5  -9  -4    2.30    0.90
  -5   9   4    0.70    1.10
  -5   9   4    0.90    1.20
  -5   9   3    3.90    1.50
   5  -9  -3    2.40    1.00
   5  -9  -3    3.50    1.00
  -5   9   3    3.60    1.60
  -5   9   3    3.00    1.30
   5  -9  -3    3.70    1.00
  -5   9   3    3.30    1.40
  -5   9   3    2.40    1.40
  -5   9   2   37.50    3.10
  -5   9   2   39.10    3.40
   5  -9  -2   40.50    2.50
   5  -9  -2   42.30    2.70
   5  -9  -2   33.80    2.60
  -5   9   2   39.00    3.40
  -5   9   2   37.00    3.00
   5  -9  -1   21.80    1.80
  -5   9   1   21.10    2.30
   5  -9  -1   19.40    2.00
   5  -9  -1   23.60    2.00
  -5   9   1   20.10    2.60
  -5   9   1   18.60    2.10
   5  -9   0  168.58    5.20
  -5   9   0  159.78    5.80
   5  -9   0  160.48    5.70
  -5   9   0  169.88    6.60
  -5   9   0  153.98    5.50
   5  -9   1    3.00    1.00
  -5   9  -1    2.70    1.00
   5  -9   1    2.60    1.10
   5  -9   1    2.40    0.90
  -5   9  -1    3.10    1.30
   5  -9   1    3.60    1.20
   5  -9   2  188.78    6.20
  -5   9  -2  170.48   13.10
   5  -9   2  202.88    5.80
  -5   9  -2  194.18    6.50
   5  -9   2  176.28    5.70
   5  -9   2  149.69   10.10
   5  -9   2  203.58    6.50
   5  -9   3   54.39    3.40
   5  -9   3   54.89    3.10
   5  -9   3   49.40    5.80
   5  -9   3   61.89    3.20
   5  -9   3   60.59    3.60
   5  -9   4   21.60    1.90
   5  -9   4   21.30    2.20
   5  -9   4   20.60    2.00
   5  -9   4   21.60    2.00
   5  -9   4   13.90    3.20
   5  -9   4   21.80    2.30
   5  -9   5   40.50    3.00
   5  -9   5   42.30    2.80
   5  -9   5   42.20    2.70
   5  -9   5   43.20    2.90
   5  -9   5   40.80    3.00
   5  -9   6   16.10    2.00
   5  -9   6   16.50    1.90
   5  -9   6   17.50    2.00
   5  -9   6   16.30    1.80
   5  -9   6   14.80    2.00
   5  -9   7   72.99    4.00
   5  -9   7   77.79    4.00
   5  -9   7   74.09    3.80
   5  -9   7   71.79    3.70
   5  -9   7   78.29    3.50
   5  -9   8   53.89    3.40
   5  -9   8   50.19    3.40
   5  -9   8   50.29    2.60
   5  -9   8   54.39    3.30
   5  -9   8   51.49    3.20
   5  -9   8   61.79    3.20
   5  -9   9   30.00    2.10
   5  -9   9   35.80    2.70
   5  -9   9   30.00    2.60
   5  -9   9   35.20    2.70
   5  -9  10   49.80    2.60
   5  -9  10   50.99    3.20
   5  -9  10   56.69    3.20
   5  -9  11    0.80    1.10
   5  -9  11   -0.20    0.80
   5  -9  11   -0.70    0.80
   5  -9  12   30.60    1.80
   5  -9  12   30.60    2.00
   5  -9  13   22.20    1.30
   5  -9  13   22.20    1.40
   5  -8  -9    6.60    0.70
  -5   8   9    7.50    0.90
  -5   8   9    6.50    1.00
   5  -8  -8   38.00    2.00
  -5   8   8   36.50    2.20
  -5   8   8   38.80    2.70
   5  -8  -7    0.60    0.70
   5  -8  -7    0.30    0.60
  -5   8   7   -0.50    0.80
  -5   8   7    0.70    0.90
   5  -8  -6   22.20    1.70
   5  -8  -6   16.80    1.60
   5  -8  -6   19.40    1.80
  -5   8   6   17.60    2.10
  -5   8   6   18.90    2.00
  -5   8   6   16.50    1.90
   5  -8  -5   39.40    2.40
   5  -8  -5   27.20    2.10
   5  -8  -5   36.10    2.60
  -5   8   5   29.60    2.90
  -5   8   5   29.80    2.80
  -5   8   5   28.20    2.30
  -5   8   5   28.70    2.40
  -5   8   5   30.30    2.70
  -5   8   5   29.80    2.80
   5  -8  -4   97.29    4.10
   5  -8  -4  115.69    4.60
  -5   8   4   94.89    5.10
   5  -8  -4  115.89    4.30
  -5   8   4   96.59    4.90
  -5   8   4   98.19    4.70
  -5   8   4   95.09    4.10
  -5   8   4   94.79    4.90
  -5   8   4   99.09    4.90
  -5   8   3   45.60    3.40
  -5   8   3   51.49    3.50
   5  -8  -3   55.49    3.20
   5  -8  -3   46.10    2.90
   5  -8  -3   59.39    3.00
  -5   8   3   50.39    3.80
  -5   8   3   48.00    3.60
  -5   8   3   45.90    3.30
   5  -8  -2    1.30    0.90
  -5   8   2   -1.50    1.30
  -5   8   2   -0.70    1.70
   5  -8  -2    0.10    0.90
   5  -8  -2   -0.30    0.80
  -5   8   2    1.00    1.10
   5  -8  -2   -3.60    1.70
  -5   8   2   -0.30    1.00
  -5   8   2   -0.70    1.10
   5  -8  -1    0.50    0.70
  -5   8   1    0.60    1.10
   5  -8  -1    0.80    0.80
  -5   8   1    0.60    2.10
   5  -8  -1    0.70    0.80
   5  -8  -1   -0.80    1.40
  -5   8   1    0.70    0.80
  -5   8   1    1.50    1.10
   5  -8   0   62.39    3.10
  -5   8   0   47.90    7.50
  -5   8   0   54.59    3.20
   5  -8   0   49.70    3.00
  -5   8   0   53.79    3.60
   5  -8   0   61.49    3.10
   5  -8   0   47.50    5.60
   5  -8   0   65.19    3.60
  -5   8   0   49.80    2.90
   5  -8   1  186.78    5.50
  -5   8  -1  171.48    5.40
  -5   8  -1  166.68   12.30
   5  -8   1  163.38    5.50
  -5   8  -1  179.58    6.10
   5  -8   1  146.89    9.80
   5  -8   1  192.88    6.10
  -5   8  -1  177.98   12.50
   5  -8   2   24.40    2.10
   5  -8   2   22.60    1.90
  -5   8  -2   26.60    4.80
   5  -8   2   27.60    2.20
   5  -8   2   21.50    3.80
   5  -8   2   27.70    2.40
   5  -8   3    3.80    1.00
   5  -8   3    4.40    1.20
   5  -8   3    4.10    1.00
   5  -8   3    2.20    1.70
   5  -8   3    3.80    1.10
   5  -8   4   15.90    1.70
   5  -8   4   16.00    1.80
   5  -8   4   15.40    1.60
   5  -8   4   16.10    1.70
   5  -8   4   13.40    3.00
   5  -8   4   16.70    1.90
   5  -8   5   21.30    2.20
   5  -8   5   16.70    3.20
   5  -8   5   21.50    1.90
   5  -8   5   20.70    2.00
   5  -8   5   18.70    3.50
   5  -8   5   18.30    2.00
   5  -8   5   22.00    2.20
   5  -8   6  100.39    7.70
   5  -8   6   83.09    3.30
   5  -8   6   93.69    4.40
   5  -8   6  103.89    4.30
   5  -8   6  100.99    4.30
   5  -8   6  100.89    4.50
   5  -8   6  101.89    4.70
   5  -8   7    0.60    0.70
   5  -8   7    0.30    0.90
   5  -8   7    0.60    0.90
   5  -8   7    0.50    0.90
   5  -8   7    0.50    0.70
   5  -8   7    0.30    1.00
   5  -8   8   22.50    2.00
   5  -8   8   20.20    2.30
   5  -8   8   28.10    2.40
   5  -8   8   26.30    2.50
   5  -8   8   31.60    2.40
   5  -8   8   27.90    2.60
   5  -8   9    7.10    1.30
   5  -8   9    5.70    1.20
   5  -8   9    6.50    1.40
   5  -8   9    6.30    1.50
   5  -8   9    6.20    1.50
   5  -8  10    6.60    1.30
   5  -8  10    6.60    1.60
   5  -8  10    5.80    1.30
   5  -8  10    5.60    1.20
   5  -8  11   24.70    2.00
   5  -8  11   29.80    2.30
   5  -8  12   11.10    1.30
   5  -8  12    7.90    1.30
   5  -8  13   67.29    2.50
   5  -8  13   65.69    2.30
   5  -7 -10   78.39    2.30
  -5   7  10   78.39    2.70
   5  -7  -9   -0.80    0.80
  -5   7   9   -0.90    0.90
   5  -7  -9    0.70    0.50
  -5   7   9    0.00    0.90
  -5   7   8   29.20    2.20
   5  -7  -8   28.60    1.70
  -5   7   8   34.60    2.60
  -5   7   7    9.00    1.60
   5  -7  -7    6.50    1.00
   5  -7  -7    8.70    1.20
   5  -7  -7   10.10    1.50
  -5   7   7    9.20    1.60
   5  -7  -6   10.80    1.40
   5  -7  -6   11.10    1.40
   5  -7  -6   16.60    2.30
   5  -7  -6   15.20    1.90
  -5   7   6   13.60    2.00
  -5   7   6   14.20    1.80
  -5   7   6   12.20    1.80
  -5   7   6   10.50    1.70
  -5   7   6   13.70    2.10
  -5   7   5    2.40    1.30
   5  -7  -5    1.10    0.80
   5  -7  -5    2.00    0.80
   5  -7  -5    1.40    1.00
  -5   7   5    1.90    1.30
  -5   7   5    2.50    1.10
  -5   7   5    2.50    1.00
  -5   7   5    1.70    1.10
  -5   7   5    2.20    1.30
  -5   7   4  102.59    4.80
  -5   7   4  104.39    5.20
   5  -7  -4   95.09    3.90
   5  -7  -4   88.79    3.90
  -5   7   4   94.79    4.10
  -5   7   4  100.79    4.90
  -5   7   4   99.99    4.90
  -5   7   4   98.99    4.80
   5  -7  -3   60.69    3.20
   5  -7  -3   58.59    6.00
   5  -7  -3   66.09    3.20
   5  -7  -3   83.49    3.90
  -5   7   3   71.29    4.20
  -5   7   3   71.09    7.80
  -5   7   3   69.89    4.00
   5  -7  -3   53.39    5.60
  -5   7   3   76.29    8.50
  -5   7   3   68.39    4.00
  -5   7   3   66.69    3.80
  -5   7   3   67.09    3.80
   5  -7  -2   12.60    1.60
  -5   7   2    3.70    2.90
   5  -7  -2    8.70    1.40
   5  -7  -2    7.20    1.10
   5  -7  -2    5.50    2.00
  -5   7   2    7.20    1.50
  -5   7   2    9.20    1.50
   5  -7  -2    7.60    2.40
  -5   7   2    7.30    1.60
  -5   7   2    7.10    1.30
  -5   7   1   53.59    7.60
   5  -7  -1   45.50    5.10
   5  -7  -1   43.20    5.10
  -5   7   0    4.70    3.10
   5  -7   0    1.30    1.40
   5  -7   0    2.80    1.90
  -5   7  -1  225.68   18.10
  -5   7  -1  228.68   14.00
   5  -7   1  211.58   10.10
   5  -7   1  198.18   10.80
  -5   7  -2   61.99    7.40
   5  -7   2   53.99    5.60
  -5   7  -3    1.50    2.00
   5  -7   3    0.60    1.10
   5  -7   4    0.60    1.10
  -5   7  -4   -1.50    2.00
   5  -7   4    0.40    1.30
   5  -7   5    7.90    2.40
   5  -7   5    8.30    1.40
  -5   7  -5   12.90    3.30
   5  -7   5    9.70    2.60
   5  -7   5   11.10    1.60
   5  -7   6    1.80    1.10
  -5   7  -6   -1.50    1.70
   5  -7   6    1.80    0.90
   5  -7   6    1.60    1.00
   5  -7   6    0.60    0.70
   5  -7   6    1.20    0.90
   5  -7   6    2.10    1.10
   5  -7   6    0.00    1.30
   5  -7   7    0.10    1.00
   5  -7   7   -0.30    0.80
   5  -7   7   -0.10    1.00
   5  -7   7    0.60    0.80
   5  -7   7    0.80    1.00
   5  -7   7   -0.30    0.80
   5  -7   8   38.10    2.60
   5  -7   8   34.60    2.40
   5  -7   8   39.40    3.00
   5  -7   8   42.90    2.80
   5  -7   8   31.70    2.70
   5  -7   8   36.90    3.00
   5  -7   9    7.10    1.40
   5  -7   9    7.00    1.40
   5  -7   9    6.40    1.30
   5  -7   9    7.70    1.60
   5  -7   9    8.20    1.70
   5  -7  10    0.40    0.90
   5  -7  10   -0.60    1.20
   5  -7  10    0.10    1.00
   5  -7  10   -0.20    1.00
   5  -7  10    0.40    0.70
   5  -7  11   23.90    2.20
   5  -7  11   18.20    2.00
   5  -7  11   17.50    1.80
   5  -7  11   18.10    1.70
   5  -7  12   25.10    1.90
   5  -7  12   20.40    1.80
   5  -7  13   21.30    1.50
   5  -7  13   23.20    1.40
   5  -7  13   25.50    1.50
   5  -7  14   12.50    0.90
   5  -7  14   15.00    1.00
   5  -6 -11    3.10    0.70
  -5   6  11    2.40    0.70
   5  -6 -10   38.90    2.10
  -5   6  10   39.80    2.40
  -5   6  10   37.10    2.50
   5  -6  -9    2.00    1.00
  -5   6   9    2.50    1.20
  -5   6   9    1.90    1.20
   5  -6  -8  105.59    3.60
  -5   6   8  110.49    4.60
   5  -6  -8  106.39    4.40
   5  -6  -7    1.90    0.80
   5  -6  -7    2.60    1.10
  -5   6   7    2.80    1.20
  -5   6   7    3.40    1.30
   5  -6  -6    7.80    1.20
  -5   6   6    7.90    1.60
   5  -6  -6    9.00    1.60
  -5   6   6    8.20    1.50
  -5   6   6    7.70    1.50
  -5   6   6    8.20    1.50
   5  -6  -6    5.40    1.40
  -5   6   6    8.10    1.70
  -5   6   5   11.50    3.40
  -5   6   5   12.30    1.90
   5  -6  -5   11.10    1.40
   5  -6  -5   13.50    1.70
   5  -6  -5   10.10    2.50
  -5   6   5   12.00    1.60
  -5   6   5   11.60    1.60
  -5   6   5    8.70    3.20
  -5   6   5   11.00    1.70
   5  -6  -5   10.60    1.70
  -5   6   5   12.00    1.90
  -5   6   5   11.20    1.80
   5  -6  -5   10.30    1.30
  -5   6   4  308.87    8.50
   5  -6  -4  288.07    7.10
   5  -6  -4  275.17   12.90
   5  -6  -4  390.06    8.70
   5  -6  -4  340.27    8.40
   5  -6  -4  312.17    7.20
   5  -6  -4  536.35   14.00
  -5   6   4  328.87    9.10
  -5   6   4  339.57   17.70
  -5   6   4  316.17    8.40
  -5   6   4  352.86   17.60
   5  -6  -4  491.35    8.10
   5  -6  -4  255.67   11.80
  -5   6   4  328.27    8.80
   5  -6  -4  365.26    8.50
  -5   6   4  319.97    8.60
  -5   6   3    2.60    2.30
   5  -6  -3    0.70    1.30
  -5   6   3   -1.40    2.20
   5  -6  -3   -0.40    1.20
   5  -6  -2   27.00    3.90
  -5   6   2   31.60    5.50
   5  -6  -2   25.60    3.80
  -5   6   1    6.10    3.70
  -5   6   1    3.40    3.10
   5  -6  -1    2.70    1.50
   5  -6  -1    2.30    1.60
  -5   6   0    0.90    2.40
   5  -6   0    1.40    1.30
   5  -6   0    3.00    1.80
  -5   6  -1  107.09    9.30
   5  -6   1  100.89    6.40
   5  -6   1   91.69    6.90
   5  -6   2   12.60    2.20
  -5   6  -2   11.50    3.40
   5  -6   2   10.70    2.60
   5  -6   3   49.10    4.50
   5  -6   3   49.80    5.20
  -5   6  -3   59.69    6.60
   5  -6   4   27.50    3.70
   5  -6   4   28.70    4.00
  -5   6  -4   27.00    4.40
   5  -6   5   61.19    5.90
   5  -6   5   67.49    6.00
  -5   6  -5   65.39    6.60
   5  -6   6   22.30    2.10
  -5   6  -6   10.70    3.80
  -5   6  -6   17.40    3.70
   5  -6   6   23.70    4.00
   5  -6   6   16.00    1.80
   5  -6   6   22.60    3.50
   5  -6   6   24.70    2.20
   5  -6   6   20.40    2.00
  -5   6  -7   33.50    6.00
   5  -6   7   30.10    2.30
   5  -6   7   32.50    2.70
   5  -6   7   32.30    2.60
   5  -6   7   32.00    4.90
   5  -6   7   35.30    2.40
   5  -6   7   28.40    2.50
  -5   6  -7   26.90    4.60
   5  -6   8   15.50    2.00
   5  -6   8   12.80    1.70
   5  -6   8   13.60    1.70
  -5   6  -8   12.70    3.30
   5  -6   8   10.30    1.40
   5  -6   8   17.10    1.80
   5  -6   8   13.20    1.90
   5  -6   9   50.39    3.20
   5  -6   9   45.90    2.90
   5  -6   9   58.79    3.30
   5  -6   9   50.99    3.50
   5  -6   9   50.29    2.90
   5  -6   9   56.29    3.50
   5  -6  10   42.40    3.00
   5  -6  10   50.79    3.40
   5  -6  10   40.70    2.80
   5  -6  10   53.99    3.30
   5  -6  10   37.70    2.60
   5  -6  11    0.50    1.00
   5  -6  11    0.00    1.10
   5  -6  11    1.10    1.00
   5  -6  12    0.20    0.80
  -5   6 -12   -0.20    0.60
   5  -6  12   -0.80    0.80
   5  -6  12   -1.10    1.10
   5  -6  13    5.90    1.10
   5  -6  13    4.50    0.80
   5  -6  13    7.20    1.00
   5  -6  14   22.70    1.20
   5  -5 -12   16.60    1.00
  -5   5  12   17.70    1.20
   5  -5 -11   16.50    1.40
  -5   5  11   18.30    1.70
  -5   5  11   16.90    1.50
   5  -5 -10  152.08    4.90
   5  -5 -10   -0.70    1.00
   5  -5 -10  160.18    3.40
  -5   5  10    0.20    1.10
  -5   5  10    0.40    1.00
   5  -5  -9   25.70    2.30
  -5   5   9   23.90    2.50
  -5   5   9   21.90    2.70
   5  -5  -8    2.70    1.20
  -5   5   8    1.90    1.10
  -5   5   8    2.40    1.30
   5  -5  -8    0.60    1.70
  -5   5   7    8.40    1.70
  -5   5   7    8.50    1.60
  -5   5   7    8.50    1.70
   5  -5  -7   10.60    1.70
   5  -5  -7    8.80    1.70
   5  -5  -6   10.10    5.70
   5  -5  -6   24.20    3.80
   5  -5  -6   29.60    7.50
   5  -5  -6   30.60    2.50
  -5   5   6   27.30    2.60
  -5   5   6   25.00    2.30
  -5   5   6   26.00    2.30
  -5   5   6   26.30    5.50
  -5   5   6   23.60    2.30
  -5   5   6   21.00    4.80
   5  -5  -6   30.00    2.60
  -5   5   6   25.60    2.50
  -5   5   5   18.60    4.30
  -5   5   5   18.10    2.00
   5  -5  -5   17.20    3.30
   5  -5  -5   23.00    2.10
   5  -5  -5   26.40    6.20
  -5   5   5   20.10    2.20
  -5   5   5   17.60    1.80
  -5   5   5   18.30    1.80
  -5   5   5   21.60    4.60
  -5   5   5   18.90    2.00
   5  -5  -5   22.30    2.20
  -5   5   5   17.80    2.00
  -5   5   4   93.29    9.00
   5  -5  -4   96.29    7.20
  -5   5   4  113.99    9.60
   5  -5  -4   83.09    6.20
   5  -5  -3    0.40    1.20
   5  -5  -3    0.70    1.30
  -5   5   2   29.20    5.10
   5  -5  -2   25.60    3.60
  -5   5   2   29.80    5.50
   5  -5  -2   25.10    3.50
  -5   5   1  262.27   14.70
   5  -5  -1  250.07   10.40
   5  -5  -1  245.28   10.80
  -5   5   0    0.00    2.30
   5  -5   0   -0.10    1.00
   5  -5   0    0.20    1.30
   5  -5   1   49.60    4.90
   5  -5   1   59.19    4.50
  -5   5  -1   54.09    6.20
   5  -5   2   82.69    5.00
   5  -5   2   87.49    5.40
   5  -5   2   85.99    6.30
  -5   5  -2   88.79    7.70
   5  -5   3  167.68    8.40
   5  -5   3  152.08    8.50
  -5   5  -3  160.68    9.90
  -5   5  -4    8.80    2.70
   5  -5   4   11.70    2.50
   5  -5   4   10.70    2.50
  -5   5  -5   66.99    7.40
   5  -5   5   72.29    6.60
   5  -5   5   67.49    5.70
  -5   5  -5   70.09    6.60
  -5   5  -6   22.80    4.40
   5  -5   6   20.60    3.20
   5  -5   6   18.10    3.80
  -5   5  -6   19.60    3.70
   5  -5   7    1.50    1.00
   5  -5   7    1.70    0.90
  -5   5  -7   -1.20    2.20
   5  -5   7    1.70    0.90
  -5   5  -7    2.90    2.00
   5  -5   7    2.70    1.70
   5  -5   7    2.20    0.80
   5  -5   7    2.40    1.00
   5  -5   7    1.70    0.80
  -5   5  -8  155.58   10.90
   5  -5   8  154.98    5.60
   5  -5   8  192.78    5.80
   5  -5   8  165.68    6.00
   5  -5   8  154.48    5.30
   5  -5   8  185.48    6.20
  -5   5  -8  154.78   10.40
   5  -5   9    0.10    1.00
   5  -5   9    0.00    0.90
   5  -5   9    0.00    0.80
   5  -5   9   -0.20    0.80
   5  -5   9    0.40    1.20
   5  -5   9    0.20    1.00
   5  -5  10   41.30    3.10
   5  -5  10   39.60    2.70
   5  -5  10   46.70    3.10
   5  -5  11    1.00    1.00
   5  -5  11    0.20    1.00
   5  -5  11    0.70    1.20
   5  -5  12    3.40    1.10
  -5   5 -12    4.60    0.90
   5  -5  12    3.80    0.90
   5  -5  12    2.80    1.00
   5  -5  13   14.40    1.20
  -5   5 -13   13.80    1.30
   5  -5  14   37.20    1.40
   5  -4 -12   19.60    1.40
  -5   4  12   19.60    1.70
   5  -4 -11  297.87    6.50
   5  -4 -11  340.27    5.20
  -5   4  10   16.50    1.50
   5  -4 -10   21.80    2.00
  -5   4  10   20.50    2.30
  -5   4  10   18.30    2.20
   5  -4  -9   13.10    1.80
   5  -4  -9   11.50    8.40
  -5   4   9   14.00    2.00
   5  -4  -9   14.60    2.00
  -5   4   9   14.20    2.20
   5  -4  -8   86.49    4.10
   5  -4  -8   90.79    4.20
  -5   4   8   83.29    4.40
   5  -4  -7   45.40    2.90
  -5   4   7   39.70    3.00
  -5   4   7   37.70    2.90
  -5   4   7   37.70    6.10
   5  -4  -7   45.00    3.00
  -5   4   6  275.57   15.90
   5  -4  -6  254.87   12.00
   5  -4  -6  344.17    8.00
  -5   4   6  302.87    8.20
  -5   4   6  304.57   16.60
  -5   4   6  290.27    7.60
  -5   4   6  303.47    7.70
  -5   4   6  289.57    7.70
   5  -4  -6  325.57    7.60
  -5   4   5    5.70    2.90
   5  -4  -5    5.30    2.00
  -5   4   5    5.40    2.60
   5  -4  -4   28.10    3.80
  -5   4   4   27.90    4.90
   5  -4  -4   26.40    3.30
  -5   4   3  317.57   17.10
   5  -4  -3  301.57   11.90
   5  -4  -3  300.67   11.20
  -5   4   2   -0.50    2.60
  -5   4   2    0.00    2.50
   5  -4  -2    0.40    1.30
   5  -4  -2    0.90    1.30
  -5   4   1  465.95   18.60
   5  -4  -1  471.55   13.60
   5  -4  -1  428.26   13.70
  -5   4   0   15.20   11.10
   5  -4   0   25.50    3.00
   5  -4   0   23.30    3.20
  -5   4   0   24.10    4.30
   5  -4   1  314.87    9.70
   5  -4   1  286.37    9.30
   5  -4   1  306.97   11.50
  -5   4  -1  323.27   13.80
   5  -4   2   60.79    3.80
   5  -4   2   61.39    4.70
  -5   4  -2   67.49    6.10
  -5   4  -3   -1.60    2.40
  -5   4  -3    1.10    1.40
   5  -4   3    0.40    1.10
  -5   4  -4   29.80    4.60
   5  -4   4   19.70    3.70
  -5   4  -4   24.40    4.00
  -5   4  -5   12.80    3.10
  -5   4  -5    7.80    2.40
   5  -4   5   12.50    3.10
  -5   4  -6   63.29    6.30
   5  -4   6   55.69    6.50
  -5   4  -6   57.19    6.00
   5  -4   7    1.10    0.80
  -5   4  -7   -1.10    1.70
  -5   4  -7   -0.90    1.60
   5  -4   7    0.70    1.00
   5  -4   7    0.30    1.60
   5  -4   7    0.60    1.00
   5  -4   7    1.70    1.00
   5  -4   7    0.10    0.90
  -5   4  -8    9.50    3.00
  -5   4  -8    8.00    2.70
   5  -4   8    6.50    1.40
   5  -4   8   11.90    1.50
   5  -4   8   11.70    1.80
   5  -4   8   11.80    1.80
   5  -4   9    5.40    1.30
   5  -4   9    5.50    1.20
   5  -4   9    3.90    1.30
   5  -4  10    6.60    1.50
   5  -4  10    3.50    1.40
  -5   4 -10    6.20    1.10
   5  -4  10    5.10    1.30
   5  -4  11    6.90    1.50
   5  -4  11    4.70    1.50
   5  -4  11    5.70    1.30
  -5   4 -11    4.60    1.10
   5  -4  12   15.50    1.80
   5  -4  12   10.50    1.30
  -5   4 -12   11.70    1.20
  -5   4 -12   13.10    1.40
   5  -4  13    2.90    0.60
   5  -4  13    3.50    0.90
  -5   4 -13    4.10    0.80
  -5   3  13    0.70    0.60
   5  -3 -13    0.40    0.40
   5  -3 -12  272.77    6.00
   5  -3 -12    3.40    0.90
   5  -3 -12  407.56    5.50
  -5   3  12    4.30    1.20
  -5   3  12    3.30    0.70
  -5   3  11    6.80    1.10
   5  -3 -11    9.10    1.40
  -5   3  11    7.70    1.70
  -5   3  11    5.70    1.30
  -5   3  10   33.60    2.30
   5  -3 -10   37.40    2.60
  -5   3  10   38.80    3.10
   5  -3 -10   37.10    2.60
  -5   3  10   34.10    3.10
   5  -3  -9   18.60    2.00
  -5   3   9   17.90    2.30
   5  -3  -9   18.30    2.00
  -5   3   9   18.40    2.50
   5  -3  -8    7.00    1.40
  -5   3   8    7.80    1.60
   5  -3  -8    8.50    1.50
  -5   3   8    9.70    1.90
  -5   3   7   13.40    3.60
  -5   3   7   15.30    1.90
   5  -3  -7   18.70    1.90
   5  -3  -7   12.40    2.60
  -5   3   7   15.90    1.90
  -5   3   7   15.60    4.30
   5  -3  -7   16.00    1.80
  -5   3   6   39.20    5.90
  -5   3   6   36.60    5.70
   5  -3  -6   33.10    4.20
   5  -3  -5  121.29    7.80
  -5   3   5  123.69    9.50
  -5   3   5  148.49   10.30
   5  -3  -4   25.80    3.60
   5  -3  -4   25.20    3.00
  -5   3   4   24.60    4.30
   5  -3  -3   11.60    2.40
  -5   3   3    7.80    3.40
  -5   3   3    9.40    2.90
   5  -3  -3    9.50    1.90
  -5   3   2  326.47   15.20
  -5   3   2  350.76   15.00
   5  -3  -2  291.87   10.40
   5  -3  -2  314.37   11.10
   5  -3  -1  503.35   13.60
   5  -3  -1  458.15   13.40
  -5   3   1  426.06   19.00
  -5   3   1  525.85   18.50
   5  -3   0    9.00    2.70
  -5   3   0    7.50    2.70
   5  -3   0    8.60    1.80
  -5   3   0    7.70    8.80
   5  -3   1   18.80    2.20
   5  -3   1   28.40    3.50
  -5   3  -1   19.30    3.30
  -5   3  -1   23.90    2.50
   5  -3   1   19.10    3.40
   5  -3   2   30.00    3.50
  -5   3  -2   25.70    3.80
   5  -3   2   23.00    3.60
   5  -3   3  246.68   11.40
  -5   3  -3  262.77   12.30
  -5   3  -3  354.26   13.10
   5  -3   3  392.16   14.20
  -5   3  -3  409.16   14.90
  -5   3  -4    8.90    2.50
  -5   3  -4    5.80    2.20
   5  -3   4    5.80    2.10
  -5   3  -4    1.40    2.80
  -5   3  -5   16.30    3.10
  -5   3  -5   16.20    3.20
  -5   3  -5   11.50    4.30
  -5   3  -6   12.00    2.90
   5  -3   6   12.80    3.70
  -5   3  -6   17.80    3.60
  -5   3  -6   10.70    3.80
   5  -3   7   11.50    1.60
   5  -3   7   13.70    1.70
  -5   3  -7   11.10    2.70
  -5   3  -7   13.80    3.20
   5  -3   7   13.00    3.80
   5  -3   7   12.30    1.60
   5  -3   7   12.20    1.70
  -5   3  -7    2.90    3.10
  -5   3  -8   26.80    4.10
   5  -3   8   31.70    2.60
   5  -3   8   27.40    2.20
  -5   3  -8   29.10    4.60
  -5   3  -8   18.60    5.00
   5  -3   9    1.20    1.00
   5  -3   9    0.90    0.90
  -5   3  -9    0.90    0.70
   5  -3   9   -0.10    1.10
   5  -3  10   25.00    2.10
   5  -3  10   26.90    2.60
   5  -3  10   26.70    2.50
  -5   3 -10   26.80    2.30
   5  -3  11    0.40    1.10
   5  -3  11    0.40    0.80
  -5   3 -11    0.50    0.70
   5  -3  11   -0.10    1.20
   5  -3  11   -0.50    1.10
  -5   3 -12   53.79    2.40
   5  -3  12   61.09    3.20
  -5   3 -12   63.09    2.80
  -5   3 -12   68.59    3.10
   5  -3  12   59.09    2.40
  -5   3 -13    4.10    0.90
  -5   3 -13    5.40    0.80
   5  -3  13    4.50    0.90
  -5   2  13   33.00    2.20
   5  -2 -13   31.70    1.70
  -5   2  13   31.60    1.60
  -5   2  12   22.10    1.70
   5  -2 -12   23.60    1.80
   5  -2 -12   18.10    6.60
  -5   2  12   24.70    2.30
   5  -2 -12   18.60    1.50
   5  -2 -11   29.30    2.20
  -5   2  11   27.10    2.10
  -5   2  11   28.20    2.70
   5  -2 -11   28.40    2.10
  -5   2  11   29.50    2.70
   5  -2 -10   24.40    2.20
  -5   2  10   24.70    2.50
   5  -2 -10   23.80    2.10
  -5   2  10   26.20    2.80
  -5   2  10   23.70    2.00
  -5   2   9   25.00    2.00
   5  -2  -9   27.50    2.30
  -5   2   9   27.50    2.60
   5  -2  -9   24.90    2.10
  -5   2   9   29.10    3.00
   5  -2  -8  127.39    8.30
   5  -2  -8  165.88    5.30
  -5   2   8  145.69   11.40
  -5   2   8  158.68    5.90
   5  -2  -8  149.79    4.90
  -5   2   8  181.48    7.00
   5  -2  -7   21.90    3.60
  -5   2   7   28.50    5.00
  -5   2   7   31.00    5.30
  -5   2   7   30.70    2.40
   5  -2  -7   21.50    3.10
  -5   2   6  279.07   14.30
   5  -2  -6  265.37   11.90
  -5   2   6  303.27   14.70
   5  -2  -6  244.38    9.70
  -5   2   5    6.60    2.40
   5  -2  -5    5.80    2.00
  -5   2   4  161.28    9.60
  -5   2   4  149.99   10.90
   5  -2  -4  148.99    8.20
   5  -2  -4  136.69    6.50
   5  -2  -3  127.29    7.20
  -5   2   3  144.69    8.80
   5  -2  -3  116.59    6.00
  -5   2   3  127.69    9.40
  -5   2   2    1.10    1.90
   5  -2  -2    0.20    1.60
   5  -2  -2    0.80    1.30
  -5   2   2    1.30    2.20
   5  -2  -1  426.06   12.10
   5  -2  -1  422.46   14.40
  -5   2   1  408.06   15.00
   5  -2   0  145.39    6.30
   5  -2   0  145.09    8.50
  -5   2   0  137.79    8.20
   5  -2   1  347.27    9.20
   5  -2   1  325.57   13.00
  -5   2  -1  329.17   12.30
   5  -2   2  172.68    9.50
  -5   2  -2  157.08    8.20
   5  -2   3  905.51   23.00
  -5   2  -3  856.11   20.90
  -5   2  -4 1161.18   23.70
   5  -2   4 1141.89   26.00
  -5   2  -5  107.69    7.00
   5  -2   5   40.40    5.80
  -5   2  -5   96.09    7.20
  -5   2  -5   64.29    9.00
  -5   2  -6   -0.20    1.10
  -5   2  -6    1.60    1.50
   5  -2   6   -0.20    1.60
  -5   2  -6   -3.90    3.90
   5  -2   7   61.09    3.40
   5  -2   7   63.59    7.40
   5  -2   7   57.09    3.10
   5  -2   7   64.29    3.30
   5  -2   7   51.79    3.00
  -5   2  -7   64.79    6.60
  -5   2  -7   64.59    5.90
   5  -2   8    5.50    1.40
   5  -2   8    6.30    1.20
  -5   2  -8    6.60    1.20
   5  -2   8    6.60    1.40
   5  -2   9    1.30    1.40
   5  -2   9    1.40    0.90
  -5   2  -9    1.40    0.70
   5  -2   9    1.10    1.10
   5  -2  10    8.80    1.70
   5  -2  10   10.20    1.40
   5  -2  10   10.90    1.80
   5  -2  10   11.90    1.40
  -5   2 -10   11.00    1.60
  -5   2 -11   14.80    1.60
   5  -2  11   12.30    1.80
   5  -2  11    9.80    1.10
   5  -2  11   15.40    1.50
   5  -2  11   16.40    1.90
  -5   2 -11   15.00    1.70
  -5   2 -11   16.00    1.80
   5  -2  12   11.30    1.50
   5  -2  12   11.90    1.10
  -5   2 -12    9.70    1.20
  -5   2 -12   10.40    1.30
   5  -2  13   21.80    1.40
  -5   2 -13   22.00    1.40
  -5   2 -13   18.60    1.10
  -5   1  14   19.80    1.40
  -5   1  14   19.50    1.50
  -5   1  13   74.89    3.50
   5  -1 -13   68.49    2.50
  -5   1  13   75.79    2.90
  -5   1  12    5.50    1.00
   5  -1 -12    6.60    1.10
  -5   1  12    6.30    1.50
  -5   1  11  203.88    6.00
   5  -1 -11  201.08    5.80
  -5   1  11  209.88    7.10
   5  -1 -11  187.28    5.20
  -5   1  11  221.38    7.50
  -5   1  10    2.80    0.90
   5  -1 -10    3.60    1.10
  -5   1  10    3.50    1.40
  -5   1  10    3.70    1.40
   5  -1  -9   33.10    4.30
   5  -1  -9   51.19    2.90
  -5   1   9   56.09    3.60
   5  -1  -9   37.90    4.40
  -5   1   9   41.20    6.00
  -5   1   9   56.49    3.90
  -5   1   9   45.30    2.70
   5  -1  -8  224.58   11.30
  -5   1   8  279.57   15.20
  -5   1   8  252.07   14.20
   5  -1  -8  281.87    6.80
  -5   1   8  281.97    7.80
   5  -1  -8  227.88   10.70
  -5   1   8  325.27    9.20
  -5   1   7    5.60    2.60
   5  -1  -7    5.50    2.00
   5  -1  -7    4.20    1.50
  -5   1   7    5.90    2.60
   5  -1  -6   14.30    2.80
  -5   1   6   12.80    3.20
  -5   1   6   16.30    3.90
  -5   1   6   15.20    3.40
   5  -1  -5  197.88    9.80
  -5   1   5  220.78   11.10
  -5   1   4   21.80    3.50
  -5   1   4   17.20    4.00
   5  -1  -4   17.00    3.00
   5  -1  -4   14.20    2.10
  -5   1   3   81.19    7.10
   5  -1  -3   87.29    5.90
  -5   1   3   93.79    6.40
   5  -1  -3   84.79    6.20
  -5   1   2    1.30    2.00
   5  -1  -2    3.10    1.70
  -5   1   2    2.50    1.60
   5  -1  -2    2.40    2.00
   5  -1  -1  130.79    5.90
  -5   1   1  155.88    9.10
   5  -1  -1  145.69    6.80
   5  -1  -1  133.59    8.10
  -5   1   1  137.39    8.00
   5  -1   0   -0.70    1.90
  -5   1   0    4.10    6.20
  -5   1   0   -0.60    1.40
   5  -1   0   -0.50    0.90
   5  -1   0   -0.30    1.10
  -5   1   0   -0.60    1.40
   5  -1   1   67.99    3.80
   5  -1   1   60.99    5.00
   5  -1   1   63.09    6.00
  -5   1  -1   61.59    5.00
   5  -1   2   28.30    3.80
   5  -1   2   31.70    4.50
  -5   1  -2   28.50    3.20
  -5   1  -2   25.90    3.40
  -5   1  -2   41.60    5.40
  -5   1  -3  215.38    8.90
   5  -1   3  188.08   10.00
   5  -1   3  203.78   10.90
  -5   1  -3  178.68    7.80
  -5   1  -3  190.18    9.20
  -5   1  -4  680.63   16.40
   5  -1   4  662.23   20.50
   5  -1   4  709.93   21.10
  -5   1  -4  647.24   18.40
   5  -1   5  271.57   13.50
  -5   1  -5  261.87   12.00
  -5   1  -5  244.88   10.10
   5  -1   6    6.80    3.20
  -5   1  -6   31.00    4.50
  -5   1  -6   13.80    5.10
  -5   1  -6   30.90    3.80
   5  -1   7  117.09    4.60
  -5   1  -7  114.49    4.50
   5  -1   7  115.19    4.60
   5  -1   7   76.59    8.30
   5  -1   7  104.29    4.40
  -5   1  -7  123.29    9.10
  -5   1  -7   75.29   11.80
   5  -1   8    3.40    1.20
   5  -1   8    3.90    1.00
  -5   1  -8    3.90    1.10
  -5   1  -8    2.80    1.20
   5  -1   8    2.80    1.20
   5  -1   9    0.50    0.70
   5  -1   9    0.20    1.10
  -5   1  -9   -0.10    0.90
   5  -1   9   -0.30    1.10
   5  -1  10    0.30    1.10
  -5   1 -10    1.00    0.80
  -5   1 -10    1.10    1.10
   5  -1  10    0.80    1.00
  -5   1 -10    0.60    1.20
   5  -1  10    2.90    1.20
   5  -1  11    0.10    1.00
   5  -1  11    0.30    0.60
  -5   1 -11    0.60    0.60
  -5   1 -11    0.70    0.80
  -5   1 -11   -0.40    1.00
   5  -1  12    2.00    0.90
   5  -1  12    2.50    0.70
  -5   1 -12    2.10    0.90
  -5   1 -12    2.20    0.70
  -5   1 -12    2.90    0.80
  -5   1 -13    0.80    0.60
  -5   0  14    2.20    0.60
  -5   0  14    0.40    0.90
  -5   0  14    3.00    0.90
  -5   0  13   -0.10    0.60
   5   0 -13   -0.20    0.50
  -5   0  13   -0.60    1.00
  -5   0  12    9.50    1.40
   5   0 -12    8.00    1.10
  -5   0  12    8.00    1.30
  -5   0  12    8.40    1.70
  -5   0  11    0.50    0.90
  -5   0  11    3.10    1.00
   5   0 -11    2.80    0.90
  -5   0  11    3.00    1.40
  -5   0  11    3.90    1.40
  -5   0  10  203.98    6.10
  -5   0  10  212.38    5.90
   5   0 -10  201.58    5.70
  -5   0  10  217.28    7.30
  -5   0  10  226.88    7.90
   5   0  -9  266.37   12.40
  -5   0   9  333.27    7.60
   5   0  -9  327.07    7.40
  -5   0   9  348.07    9.00
   5   0  -9  260.17   12.20
  -5   0   9  371.86   10.20
   5   0  -8   29.30    4.10
  -5   0   8   38.50    5.70
  -5   0   8   36.90    2.70
   5   0  -8   32.10    4.30
  -5   0   8   29.60    4.70
   5   0  -7   19.20    3.40
  -5   0   7   24.20    4.10
  -5   0   7   26.10    4.80
  -5   0   6   11.80    3.30
   5   0  -6    9.60    2.40
  -5   0   6   12.50    2.80
  -5   0   5   12.00    3.10
  -5   0   5   11.20    2.50
   5   0  -5    9.40    2.40
   5   0  -5    9.50    2.10
   5   0  -4   69.39    5.70
  -5   0   4   66.59    6.40
  -5   0   4   81.69    5.60
   5   0  -4   66.09    5.40
  -5   0   3   81.99    6.60
  -5   0   3   93.79    5.60
   5   0  -3   88.49    6.40
   5   0  -3   90.99    6.30
   5   0  -2   39.70    3.20
   5   0  -2   39.10    3.90
   5   0  -2   43.30    4.70
  -5   0   2   44.70    3.70
  -5   0   2   43.00    4.60
   5   0  -1   23.10    2.80
   5   0  -1   23.50    3.90
  -5   0   1   33.10    3.70
   5   0  -1   24.40    3.00
  -5   0   1   25.60    3.40
   5   0   0   49.30    3.90
   5   0   0   42.80    5.10
   5   0   0   44.80    4.10
  -5   0   0   45.40    4.30
  -5   0   0   50.49    4.40
   5   0   1  464.55   11.10
   5   0   1  414.66   13.90
  -5   0  -1  425.26   13.30
   5   0   1  423.36   16.20
  -5   0  -1  412.76   12.90
   5   0   2   58.29    6.20
   5   0   2   50.79    5.20
  -5   0  -2   50.89    4.50
  -5   0  -2   51.09    4.50
   5   0   3  232.68   12.60
   5   0   3  234.48   11.80
  -5   0  -3  234.28    9.50
  -5   0  -3  221.48   10.00
   5   0   4   31.20    4.90
   5   0   4   27.70    4.50
  -5   0  -4   28.40    3.90
  -5   0  -4   19.20    6.90
  -5   0  -5   10.60    2.60
   5   0   5    7.60    2.70
  -5   0  -5    4.70    4.30
   5   0   6   38.30    2.50
  -5   0  -6   39.00    2.60
   5   0   6   41.80    2.80
   5   0   6   42.20    2.80
  -5   0  -6   47.30    5.50
  -5   0  -7  149.49    9.90
   5   0   7  164.58    5.40
  -5   0  -7  143.19    5.10
   5   0   7  155.08    5.60
  -5   0  -7  149.49    5.60
   5   0   7  147.79    4.40
   5   0   8    5.60    1.10
   5   0   8    7.40    1.40
  -5   0  -8    7.00    1.20
   5   0   8    6.50    1.50
  -5   0  -8    6.80    1.50
   5   0   8    7.00    1.40
   5   0   8    5.70    1.10
   5   0   9   11.50    1.60
  -5   0  -9   10.90    1.60
  -5   0  -9   13.00    1.90
   5   0   9   10.20    1.50
  -5   0  -9   13.30    1.90
   5   0   9   13.00    2.00
   5   0   9   15.80    1.70
   5   0   9   10.80    1.50
  -5   0 -10   24.20    2.10
   5   0  10   29.00    2.40
   5   0  10   28.90    2.20
  -5   0 -10   28.30    2.40
   5   0  10   27.40    2.00
  -5   0 -10   29.10    2.40
   5   0  10   26.50    2.00
   5   0  11    3.00    0.80
   5   0  11    3.50    1.00
   5   0  11    3.60    0.90
  -5   0 -11    3.20    1.10
  -5   0 -11    4.70    1.00
  -5   0 -11    4.50    1.10
   5   0  12    0.60    0.50
  -5   0 -12    1.10    0.80
   5   0  12    0.20    0.50
  -5   0 -12    0.30    0.50
  -5  -1  15    4.60    0.80
   5   1 -15    0.70    1.80
  -5  -1  14   36.70    1.90
  -5  -1  14   34.30    2.10
  -5  -1  14   34.90    2.20
  -5  -1  13   83.19    3.90
  -5  -1  13   83.09    3.50
  -5  -1  12   -0.10    0.80
  -5  -1  12    0.30    1.00
  -5  -1  11   54.19    3.10
  -5  -1  11   54.29    3.10
  -5  -1  11   62.09    3.20
  -5  -1  11   51.39    3.50
  -5  -1  11   55.59    3.80
  -5  -1  10    7.20    1.20
  -5  -1  10    6.80    1.20
  -5  -1  10    7.20    1.60
  -5  -1  10   10.10    1.90
   5   1  -9  117.79    8.30
  -5  -1   9  150.18    4.90
  -5  -1   9  170.48    5.20
  -5  -1   9  143.09   11.20
  -5  -1   9  148.89    5.60
   5   1  -9  116.19    8.20
  -5  -1   9  144.99    4.80
  -5  -1   9  159.48    6.40
  -5  -1   8  219.28   13.70
   5   1  -8  173.68   10.20
   5   1  -7    1.00    1.60
  -5  -1   7   -0.80    1.60
  -5  -1   6    2.30    2.00
   5   1  -6    2.50    1.90
  -5  -1   6    2.00    1.30
  -5  -1   5    2.10    1.90
   5   1  -5    2.10    1.60
   5   1  -5    2.30    1.50
   5   1  -4    1.60    1.50
   5   1  -4    0.10    1.60
  -5  -1   4    1.40    1.80
  -5  -1   4   -0.30    1.40
  -5  -1   3   70.69    5.60
  -5  -1   3   88.59    6.90
   5   1  -3   78.39    6.30
   5   1  -3   74.29    5.80
   5   1  -3   69.29    4.10
   5   1  -2  154.48    8.00
  -5  -1   2  146.69    8.30
   5   1  -2  146.29    8.90
   5   1  -2  142.09    6.70
  -5  -1   2  153.18    8.40
  -5  -1   2  137.89    7.40
   5   1  -1  254.07    9.90
   5   1  -1  248.88   12.10
  -5  -1   1  244.18   10.00
  -5  -1   1  251.87   10.50
   5   1  -1  229.48    9.40
  -5  -1   1  229.48    9.20
   5   1   0  294.67   10.20
   5   1   0  276.97   13.50
  -5  -1   0  251.87    9.50
   5   1   0  269.17   11.00
  -5  -1   0  276.97   11.00
  -5  -1   0  257.97    9.60
   5   1   1   99.69    8.30
   5   1   1   96.39    7.00
  -5  -1  -1  101.39    6.60
  -5  -1  -1   91.29    5.80
   5   1   2  134.19   10.00
   5   1   2  123.29    8.50
  -5  -1  -2  125.79    7.30
  -5  -1  -2  116.19    6.70
  -5  -1  -3   68.99    5.50
   5   1   3   77.59    8.00
  -5  -1  -3   66.79    5.50
  -5  -1  -3   88.19   11.00
   5   1   3   74.69    7.00
   5   1   4   51.09    6.40
  -5  -1  -4   45.60    4.60
   5   1   4   49.50    6.10
  -5  -1  -4   48.20    5.00
  -5  -1  -4   46.00   10.70
   5   1   5   35.10    5.40
  -5  -1  -5   27.00    4.10
   5   1   6    4.30    1.10
   5   1   6    4.70    1.10
  -5  -1  -6    6.70    2.50
   5   1   6    6.00    1.40
  -5  -1  -6    7.20    1.40
   5   1   6    6.70    2.50
   5   1   6    6.90    1.40
  -5  -1  -6    4.90    1.10
  -5  -1  -6    4.80    1.10
   5   1   7   -0.10    0.80
   5   1   7    0.10    0.80
  -5  -1  -7   -0.60    0.60
   5   1   7    0.30    1.00
  -5  -1  -7    0.30    1.00
  -5  -1  -7   -0.90    1.20
   5   1   7    0.30    0.70
   5   1   8  189.58    5.70
   5   1   8  195.58    6.60
  -5  -1  -8  191.78    6.60
   5   1   8  167.68    5.60
  -5  -1  -8  170.68    6.10
  -5  -1  -8  188.18    6.50
   5   1   8  197.68    5.10
   5   1   8  152.88    5.50
   5   1   9    8.30    1.40
   5   1   9    8.80    1.80
  -5  -1  -9    6.80    1.40
  -5  -1  -9    7.40    1.50
   5   1   9    5.90    1.20
  -5  -1  -9    7.50    1.60
   5   1   9    9.40    1.20
  -5  -1 -10   20.80    2.00
   5   1  10   18.20    1.80
  -5  -1 -10   20.70    2.00
   5   1  10   18.90    1.70
  -5  -1 -10   20.60    2.00
   5   1  10   18.90    1.70
   5   1  11    2.70    0.80
   5   1  11    3.20    0.80
  -5  -1 -11    4.80    1.20
  -5  -1 -11    3.20    0.90
   5   1  11    3.50    0.80
  -5  -1 -11    4.40    1.00
  -5  -1 -11    3.10    0.70
  -5  -1 -12   19.60    1.20
  -5  -2  15   43.30    1.90
  -5  -2  15   37.30    1.60
  -5  -2  14    5.40    1.00
  -5  -2  14    2.50    1.00
  -5  -2  14    4.20    1.00
  -5  -2  13   39.30    2.50
  -5  -2  13   38.40    2.70
  -5  -2  12   55.59    3.20
  -5  -2  12   52.69    3.20
  -5  -2  12   52.19    3.40
  -5  -2  11   11.60    1.70
  -5  -2  11    9.40    1.40
  -5  -2  11    8.50    1.60
  -5  -2  11    9.20    1.80
  -5  -2  10  110.29    4.40
  -5  -2  10  108.59    4.40
  -5  -2  10  113.29    5.00
  -5  -2  10  108.09    5.00
  -5  -2  10  110.99    5.50
  -5  -2   9   11.70    1.50
  -5  -2   9   10.40    1.30
  -5  -2   9   13.80    1.80
  -5  -2   9   14.70    3.90
   5   2  -9    8.00    2.50
  -5  -2   9   12.90    1.70
  -5  -2   9   15.50    2.10
   5   2  -8  418.36   16.50
  -5  -2   8  525.65   21.60
  -5  -2   7   12.20    3.50
   5   2  -7   10.20    2.70
   5   2  -6    3.40    2.10
  -5  -2   6    3.20    2.30
   5   2  -5   51.89    4.90
  -5  -2   5   65.89    6.70
   5   2  -5   54.39    5.60
  -5  -2   4    0.50    1.60
   5   2  -4    0.40    1.50
   5   2  -4    1.50    1.60
  -5  -2   3   21.50    2.90
  -5  -2   3   24.90    3.80
   5   2  -3   23.10    3.90
   5   2  -3   20.40    2.70
  -5  -2   3   22.10    3.60
   5   2  -3   22.80    3.60
  -5  -2   2    1.10    1.50
   5   2  -2    1.10    1.40
   5   2  -2    1.20    2.00
  -5  -2   2    1.60    0.90
   5   2  -2    2.30    1.70
  -5  -2   2    2.00    1.90
   5   2  -1    2.20    2.20
  -5  -2   1    4.10    1.40
  -5  -2   1    3.60    1.60
   5   2  -1    3.70    1.70
   5   2  -1    4.30    2.00
  -5  -2   1    2.80    2.00
  -5  -2   1    4.20    1.90
   5   2   0  103.89    9.10
  -5  -2   0   96.89    5.70
   5   2   0   96.39    7.10
  -5  -2   0  106.29    7.00
  -5  -2   0   90.29    5.40
   5   2   0  112.59    6.60
   5   2   1    0.60    2.40
  -5  -2  -1    1.40    1.30
   5   2   1    1.00    1.80
  -5  -2  -1    0.30    1.40
  -5  -2  -1    2.80    2.80
   5   2   2    1.70    2.70
  -5  -2  -2    0.00    1.20
  -5  -2  -2    1.30    1.40
   5   2   2    0.60    1.90
  -5  -2  -3   -0.50    1.10
   5   2   3    0.40    2.40
   5   2   3    1.30    2.20
  -5  -2  -3   -0.20    1.10
   5   2   4    0.00    2.20
   5   2   4    1.40    2.00
  -5  -2  -4   -0.80    1.10
  -5  -2  -4    3.20    1.60
   5   2   5    2.70    1.00
   5   2   5    1.10    0.80
  -5  -2  -5    3.90    1.90
   5   2   5    1.50    1.20
  -5  -2  -5   -0.20    0.60
  -5  -2  -5    2.40    1.10
   5   2   5    0.30    0.90
   5   2   5    2.40    1.20
   5   2   5   -0.40    1.70
   5   2   5    2.50    1.30
  -5  -2  -5    1.10    0.90
  -5  -2  -5    1.40    0.80
  -5  -2  -5    2.70    0.90
  -5  -2  -6   78.89    3.90
   5   2   6   84.69    3.60
  -5  -2  -6   87.59    4.30
   5   2   6   93.59    4.40
   5   2   6   95.19    4.40
  -5  -2  -6  100.39    4.60
   5   2   6   86.49    4.10
   5   2   7   10.50    1.90
  -5  -2  -7    8.80    1.40
  -5  -2  -7   10.30    1.80
  -5  -2  -7    7.90    1.60
  -5  -2  -7   10.40    1.80
   5   2   7   11.70    1.20
   5   2   7    9.90    1.70
  -5  -2  -8   18.10    2.10
  -5  -2  -8   15.00    2.00
  -5  -2  -8   16.80    2.10
   5   2   8   16.60    1.90
   5   2   8   19.20    2.30
  -5  -2  -8   19.60    2.20
   5   2   8   16.50    1.90
   5   2   9    0.10    0.90
   5   2   9    0.30    0.80
  -5  -2  -9   -1.40    1.30
  -5  -2  -9    3.10    6.30
  -5  -2  -9    0.20    1.00
   5   2   9    0.30    0.90
  -5  -2  -9    0.90    1.20
   5   2  10    1.30    0.80
  -5  -2 -10    3.70    1.20
  -5  -2 -10    1.80    0.90
   5   2  10    1.50    0.80
   5   2  10    1.50    0.70
  -5  -2 -10    2.30    1.00
  -5  -2 -10    2.00    0.80
   5   2  11   18.30    1.20
  -5  -2 -11   17.40    1.20
   5   2  11   19.00    1.20
  -5  -3  15   23.50    1.50
  -5  -3  15   20.10    1.20
  -5  -3  14    3.50    0.90
  -5  -3  14    1.60    1.00
  -5  -3  13   -1.40    1.80
  -5  -3  13    2.80    1.00
  -5  -3  13   -0.60    1.50
  -5  -3  13    3.50    1.00
  -5  -3  12   74.79    3.80
  -5  -3  12   65.19    3.50
  -5  -3  12   65.49    3.70
  -5  -3  11   54.39    3.50
  -5  -3  11   54.29    3.20
  -5  -3  11   48.60    3.60
  -5  -3  10   12.00    1.80
  -5  -3  10    7.20    1.40
  -5  -3  10    7.40    1.30
  -5  -3  10    6.60    1.60
  -5  -3   9   90.19    3.90
  -5  -3   9  107.79    4.40
  -5  -3   9   85.89    3.70
  -5  -3   9   86.19    4.10
  -5  -3   9   83.39    8.80
   5   3  -9   64.49    6.50
  -5  -3   9   78.89    4.60
  -5  -3   9   71.99    4.10
   5   3  -8  114.89    8.80
  -5  -3   8  147.89   11.50
  -5  -3   7    1.80    1.80
   5   3  -7   -2.00    1.70
   5   3  -6   51.89    5.70
  -5  -3   6   58.69    6.80
   5   3  -5  293.77   13.60
  -5  -3   5  292.67   14.40
   5   3  -5  276.47   12.20
   5   3  -4   65.49    6.20
  -5  -3   4   62.89    6.30
   5   3  -4   49.70    4.30
  -5  -3   4   68.19    4.80
  -5  -3   4   62.69    6.00
   5   3  -4   69.09    6.60
   5   3  -3    3.70    2.40
   5   3  -3    4.10    2.10
  -5  -3   3    4.60    1.20
   5   3  -3    2.50    1.60
  -5  -3   3    3.80    2.10
  -5  -3   3    4.90    2.10
  -5  -3   2  188.28    9.50
   5   3  -2  186.68    9.80
   5   3  -2  195.18   12.00
  -5  -3   2  192.28    6.90
  -5  -3   2  197.98   10.20
   5   3  -2  190.88    9.90
   5   3  -1   42.10    6.20
  -5  -3   1   44.40    4.20
   5   3  -1   36.40    4.70
  -5  -3   1   41.60    4.70
  -5  -3   1   44.40    4.90
   5   3  -1   40.50    4.50
   5   3   0   53.99    7.20
   5   3   0   49.50    5.70
  -5  -3   0   52.29    5.20
  -5  -3   0   66.69    6.30
   5   3   0   54.19    4.90
  -5  -3  -1    6.30    1.50
   5   3   1    8.80    2.90
  -5  -3  -1   10.30    2.70
   5   3   1    9.70    3.90
  -5  -3  -1   17.90    4.10
   5   3   2   42.10    6.90
  -5  -3  -2   34.50    4.40
   5   3   2   40.90    5.70
  -5  -3  -2   34.80    3.70
  -5  -3  -3    3.40    1.40
   5   3   3    1.70    2.20
  -5  -3  -3    0.50    1.20
   5   3   3    4.50    2.80
  -5  -3  -4   12.10    1.50
  -5  -3  -4    8.90    2.20
   5   3   4   12.30    4.50
  -5  -3  -4   12.00    1.60
  -5  -3  -4   13.00    1.70
  -5  -3  -4   13.40    1.70
   5   3   4   14.50    1.60
   5   3   4   12.00    1.60
   5   3   4   13.30    3.70
   5   3   4   15.20    1.80
  -5  -3  -4   14.00    1.80
  -5  -3  -4   13.90    2.90
   5   3   4   13.20    1.70
   5   3   4   12.30    1.70
   5   3   5   65.39    3.40
  -5  -3  -5   74.29    3.80
  -5  -3  -5   59.59    3.40
  -5  -3  -5   64.89    3.70
  -5  -3  -5   67.79    3.80
   5   3   5   61.69    3.30
   5   3   5   74.39    3.70
  -5  -3  -5   71.09    3.90
   5   3   5   67.29    7.80
  -5  -3  -5   56.29    5.60
   5   3   5   72.09    3.70
   5   3   5   67.69    3.70
  -5  -3  -6   49.99    3.40
  -5  -3  -6   57.29    3.40
  -5  -3  -6   45.10    2.90
   5   3   6   49.20    2.90
   5   3   6   51.29    3.30
  -5  -3  -6   51.39    3.40
  -5  -3  -6   45.20    3.20
  -5  -3  -6   56.09    3.50
   5   3   6   52.29    3.30
   5   3   7    6.40    1.50
  -5  -3  -7    4.60    1.30
  -5  -3  -7    3.80    0.90
   5   3   7    5.40    1.20
   5   3   7    6.70    1.60
  -5  -3  -7    5.30    1.40
  -5  -3  -7    6.60    1.60
  -5  -3  -8   52.39    3.10
  -5  -3  -8   53.79    7.20
   5   3   8   44.80    2.50
  -5  -3  -8   50.89    3.20
   5   3   8   45.90    2.90
  -5  -3  -8   50.99    3.30
  -5  -3  -8   44.20    3.10
   5   3   8   50.59    3.10
   5   3   9    4.60    1.10
  -5  -3  -9    6.00    1.30
  -5  -3  -9    4.50    1.20
   5   3   9    4.50    1.10
  -5  -3  -9    4.80    1.30
  -5  -3  -9    4.80    1.10
   5   3   9    4.70    0.90
  -5  -3 -10   48.20    2.20
  -5  -3 -10   41.50    2.00
  -5  -3 -10   41.50    1.90
   5   3  10   47.40    2.20
  -5  -4  15    8.90    1.10
  -5  -4  14    0.50    1.70
  -5  -4  14    0.10    1.00
  -5  -4  14    1.70    0.80
  -5  -4  13   55.09    3.20
  -5  -4  13   57.79    3.20
  -5  -4  12   64.79    3.70
  -5  -4  12   65.29    3.50
  -5  -4  12   56.09    3.40
  -5  -4  12   61.69    3.50
  -5  -4  11   78.79    4.00
  -5  -4  11   85.59    4.00
  -5  -4  11   81.59    4.20
  -5  -4  10  114.09    4.70
  -5  -4  10  109.39    4.80
  -5  -4  10  100.29    4.30
  -5  -4  10   98.29    4.40
  -5  -4  10   99.29    4.50
  -5  -4  10   86.19    4.60
  -5  -4   9  555.14   10.70
  -5  -4   9  565.04   10.80
  -5  -4   9  561.84   10.90
  -5  -4   9  552.14   11.10
  -5  -4   9  577.34   11.50
  -5  -4   9  522.95   22.80
   5   4  -9  424.06   17.70
  -5  -4   9  477.55   12.20
  -5  -4   9  507.35   12.10
  -5  -4   8  200.88    5.80
  -5  -4   8  184.38    5.60
  -5  -4   8  197.18    5.90
  -5  -4   8  198.48    6.00
  -5  -4   8  188.48   13.30
  -5  -4   8  201.78    6.50
  -5  -4   8  161.48    6.50
  -5  -4   8  178.18    6.70
   5   4  -8  151.58   10.50
  -5  -4   7   15.20    4.00
   5   4  -7   12.00    3.20
   5   4  -6  413.36   17.40
  -5  -4   6  445.56   18.90
  -5  -4   5   69.29    7.10
   5   4  -5   70.59    6.60
  -5  -4   5   77.29    5.80
   5   4  -5   72.39    7.10
   5   4  -4   76.99    7.30
  -5  -4   4   75.99    7.00
   5   4  -4   65.69    5.80
  -5  -4   4   81.39    5.60
  -5  -4   4   77.89    6.80
   5   4  -4   69.19    6.70
  -5  -4   3   44.40    5.10
   5   4  -3   44.40    5.10
  -5  -4   3   45.80    3.90
   5   4  -3   43.20    6.00
  -5  -4   3   45.20    5.20
   5   4  -3   43.70    5.30
  -5  -4   2    1.20    1.20
  -5  -4   2    0.00    0.70
   5   4  -2    0.80    1.70
   5   4  -2    0.70    1.50
  -5  -4   2    0.40    1.70
   5   4  -2    0.00    2.20
   5   4  -1  221.78   12.40
  -5  -4   1  232.38   11.60
   5   4  -1  237.98   15.10
  -5  -4   1  273.57   12.60
   5   4  -1  241.98   11.60
   5   4   0    4.10    1.80
   5   4   0    3.90    2.50
  -5  -4   0    6.20    2.30
   5   4   0    2.70    2.70
  -5  -4   0    2.90    2.30
   5   4   1  162.18   13.50
   5   4   1  160.88   11.40
  -5  -4  -1  149.39    9.40
   5   4   2    0.00    1.90
  -5  -4  -2   -1.30    1.30
   5   4   2   -0.90    3.00
  -5  -4  -3   69.89    4.40
  -5  -4  -3   50.89    3.80
   5   4   3   73.39    9.20
  -5  -4  -3   57.49    3.40
   5   4   3   66.89    3.30
   5   4   3   71.09    7.80
  -5  -4  -3   60.79    3.50
   5   4   3   67.69    3.30
   5   4   3   67.49    3.20
  -5  -4  -3   65.19    6.40
  -5  -4  -3   65.89    3.40
  -5  -4  -3   67.99    3.60
   5   4   3   67.69    3.30
  -5  -4  -3   61.79    3.20
  -5  -4  -3   65.69    3.30
   5   4   3   61.29    3.30
   5   4   4   -1.50    2.70
  -5  -4  -4    1.20    0.90
   5   4   4    1.20    0.90
  -5  -4  -4    0.10    0.80
  -5  -4  -4    1.40    1.00
  -5  -4  -4    1.30    1.00
  -5  -4  -4    1.30    0.90
   5   4   4    0.90    0.90
   5   4   4    0.20    0.90
   5   4   4    1.00    0.90
  -5  -4  -4   -0.50    1.00
  -5  -4  -4    1.20    1.10
   5   4   4    0.70    0.80
   5   4   4    0.90    0.90
   5   4   4    0.40    0.90
  -5  -4  -5    0.90    1.00
  -5  -4  -5   -0.10    0.80
   5   4   5    0.20    0.90
  -5  -4  -5    1.30    1.00
   5   4   5    0.10    0.90
  -5  -4  -5    0.20    0.90
  -5  -4  -5    1.30    1.30
   5   4   5   -0.60    0.90
   5   4   5    0.70    1.10
  -5  -4  -6   35.20    2.80
  -5  -4  -6   38.30    2.80
   5   4   6   36.90    2.70
   5   4   6   36.20    2.80
  -5  -4  -6   34.80    2.80
  -5  -4  -6   39.10    3.00
   5   4   6   35.00    2.30
   5   4   6   37.40    2.80
   5   4   7    8.40    1.60
  -5  -4  -7   11.20    1.70
   5   4   7    9.10    1.40
  -5  -4  -7   10.80    1.70
  -5  -4  -7   11.10    1.80
  -5  -4  -7   12.50    1.90
  -5  -4  -8   15.40    1.70
   5   4   8   14.00    1.40
   5   4   8   11.70    1.50
  -5  -4  -8   13.50    1.70
  -5  -4  -8   12.50    1.60
   5   4   8   14.10    1.70
   5   4   9    6.30    1.10
  -5  -4  -9    7.20    1.10
  -5  -4  -9    3.20    0.90
   5   4   9    6.50    1.00
  -5  -4  -9    5.10    0.90
   5   4  10    1.70    0.60
   5   4  10    1.20    0.50
  -5  -4 -10    2.50    0.70
  -5  -5  15  126.39    3.40
  -5  -5  15   93.39    3.20
  -5  -5  14    4.80    1.30
  -5  -5  14    2.30    0.70
  -5  -5  13   36.80    2.50
  -5  -5  13   33.70    2.30
  -5  -5  12    0.30    2.10
  -5  -5  12    1.70    0.90
  -5  -5  12    1.10    1.30
  -5  -5  11   24.90    2.30
  -5  -5  11   26.00    2.40
  -5  -5  10   44.60    3.30
  -5  -5  10   55.69    3.30
  -5  -5  10   57.09    3.40
  -5  -5  10   48.90    3.70
  -5  -5   9   13.00    2.00
  -5  -5   9   15.80    1.90
  -5  -5   9   17.50    1.90
   5   5  -9   12.70    3.30
  -5  -5   9   15.20    2.20
   5   5  -8  191.98   12.30
  -5  -5   8  272.97    6.60
  -5  -5   8  237.98    6.50
  -5  -5   8  246.08    6.70
  -5  -5   8  253.27   15.50
  -5  -5   8  208.68    6.50
  -5  -5   8  248.58    6.80
  -5  -5   8  237.58    8.00
   5   5  -7   33.70    5.40
  -5  -5   7   25.30    1.90
  -5  -5   7   40.80    2.60
  -5  -5   7   38.40    2.50
  -5  -5   7   40.20    6.10
  -5  -5   7   37.00    3.10
  -5  -5   6  209.68   13.10
  -5  -5   6  227.48   11.00
   5   5  -6  196.78   12.50
   5   5  -5    0.40    1.70
  -5  -5   5    0.50    1.70
   5   5  -5   -1.60    2.10
  -5  -5   5   -4.00    1.70
  -5  -5   5   -0.50    1.60
  -5  -5   4    0.30    1.40
   5   5  -4    0.80    1.60
  -5  -5   4    2.20    1.30
   5   5  -4   -0.90    1.50
  -5  -5   4    1.10    1.60
   5   5  -4   -0.80    2.20
  -5  -5   3   52.69    5.60
   5   5  -3   46.20    5.70
  -5  -5   3   50.39    4.40
   5   5  -3   49.90    7.00
  -5  -5   3   52.39    5.80
   5   5  -3   50.09    6.00
  -5  -5   2   20.40    3.30
   5   5  -2   16.80    3.90
  -5  -5   2   14.60    3.30
   5   5  -2   17.50    4.70
   5   5  -2   19.40    3.90
   5   5  -1   71.09    7.60
  -5  -5   1   65.49    6.40
   5   5  -1   67.99    6.60
   5   5  -1   76.39    9.20
   5   5   0    0.80    2.10
  -5  -5   0   -0.10    1.40
   5   5   0   -0.20    2.30
   5   5   1   49.00    8.10
  -5  -5  -1   43.70    3.50
  -5  -5  -1   40.70    2.50
  -5  -5  -1   35.50    2.80
   5   5   1   42.90    6.30
   5   5   1   43.70    2.50
  -5  -5  -1   31.40    3.30
  -5  -5  -1   45.20    5.50
  -5  -5  -1   44.50    2.80
  -5  -5  -1   38.00    2.60
  -5  -5  -1   44.20    5.80
   5   5   1   42.90    2.70
  -5  -5  -2   26.10    2.90
  -5  -5  -2   23.80    2.20
  -5  -5  -2   21.10    2.00
  -5  -5  -2   20.80    2.20
  -5  -5  -2   20.00    2.70
  -5  -5  -2   24.20    2.10
   5   5   2   24.70    2.10
   5   5   2   25.20    2.00
   5   5   2   19.30    4.40
  -5  -5  -2   22.70    3.90
  -5  -5  -2   25.20    2.30
  -5  -5  -2   25.80    2.20
   5   5   2   23.90    6.00
  -5  -5  -2   17.00    4.10
   5   5   2   27.20    2.30
  -5  -5  -3    9.40    2.00
  -5  -5  -3   10.60    1.60
  -5  -5  -3    8.50    1.60
   5   5   3   10.50    1.50
  -5  -5  -3    9.90    1.50
   5   5   3   11.60    1.70
   5   5   3    9.90    1.50
  -5  -5  -3   11.50    1.80
   5   5   3   11.30    1.50
   5   5   3   10.30    1.50
   5   5   3    9.80    1.40
   5   5   3    9.60    1.50
   5   5   3    9.70    1.60
  -5  -5  -4    1.90    1.10
   5   5   4    2.30    1.30
  -5  -5  -4    1.30    1.00
  -5  -5  -4    1.20    1.10
   5   5   4    1.80    0.90
   5   5   4    1.90    1.00
   5   5   4    1.30    1.10
  -5  -5  -4    2.80    1.30
   5   5   4    1.90    1.00
  -5  -5  -4    0.40    1.10
  -5  -5  -4    1.10    0.90
  -5  -5  -5   59.39    3.80
   5   5   5   62.99    3.50
  -5  -5  -5   72.29    3.60
   5   5   5   68.99    3.50
  -5  -5  -5   64.49    3.60
  -5  -5  -5   63.19    3.80
   5   5   5   64.69    3.30
  -5  -5  -5   71.49    4.20
   5   5   5   67.99    3.70
  -5  -5  -6   13.30    1.70
   5   5   6   10.90    1.60
  -5  -5  -6   11.50    1.70
  -5  -5  -6   10.30    1.70
   5   5   6   11.10    1.40
  -5  -5  -6   11.50    1.90
   5   5   6   11.40    1.80
   5   5   7    5.30    1.40
  -5  -5  -7    6.00    1.20
   5   5   7    4.00    1.00
   5   5   7    4.80    1.30
  -5  -5  -7    2.00    1.10
  -5  -5  -7    4.40    1.30
   5   5   8    0.80    0.80
  -5  -5  -8    0.10    0.60
   5   5   8   -0.70    0.70
   5   5   8    0.40    0.80
  -5  -5  -8   -1.50    0.80
  -5  -5  -8   -0.20    0.70
  -5  -5  -9    7.00    0.90
   5   5   9    6.50    0.90
   5   5   9    5.90    0.90
  -5  -6  15   -6.40    2.20
  -5  -6  15    4.20    0.90
  -5  -6  14   17.90    1.70
  -5  -6  13   13.50    2.60
  -5  -6  13   10.40    1.30
  -5  -6  12   26.80    2.90
  -5  -6  12   29.50    2.50
  -5  -6  12   25.20    2.10
  -5  -6  11  183.28    6.00
  -5  -6  11  196.48    6.20
  -5  -6  11  178.58    5.80
  -5  -6  10   10.70    1.80
  -5  -6  10    8.10    1.40
  -5  -6   9   13.10    1.90
  -5  -6   9    6.00    1.90
  -5  -6   9    9.60    1.50
  -5  -6   9   10.00    2.00
  -5  -6   8   15.30    1.90
  -5  -6   8   10.60    1.50
   5   6  -8    8.80    3.20
  -5  -6   8   10.20    1.50
  -5  -6   8    9.40    1.80
  -5  -6   7    1.70    1.50
  -5  -6   7   -0.30    0.70
  -5  -6   7    1.00    1.80
   5   6  -7    0.40    1.60
  -5  -6   7    0.80    0.90
  -5  -6   7    2.80    1.20
  -5  -6   7    0.20    0.90
  -5  -6   6  119.59    6.50
  -5  -6   6  124.89    4.50
  -5  -6   6  119.69   10.00
  -5  -6   6  124.89    4.30
  -5  -6   6  115.49    8.10
  -5  -6   6  116.29    4.40
  -5  -6   6  107.59    4.60
  -5  -6   6  120.89    5.40
  -5  -6   5    1.50    1.50
  -5  -6   5    2.50    0.80
  -5  -6   5    4.30    2.10
   5   6  -5    3.10    2.20
   5   6  -5    3.90    2.50
  -5  -6   5    3.70    1.70
   5   6  -5    0.10    1.80
  -5  -6   5    1.70    1.60
  -5  -6   5    2.90    0.90
  -5  -6   5    1.40    1.00
  -5  -6   4   76.39    7.30
   5   6  -4   71.99    8.30
   5   6  -4   66.39    7.00
  -5  -6   4   73.39    6.00
  -5  -6   4   70.69    7.00
   5   6  -4   67.59    7.40
  -5  -6   3    8.60    2.50
   5   6  -3    5.80    2.20
  -5  -6   3    2.60    1.30
   5   6  -3    5.50    2.40
  -5  -6   3    8.00    2.80
  -5  -6   3    6.40    1.10
  -5  -6   3    6.90    1.90
   5   6  -3    7.80    3.80
  -5  -6   2    7.30    2.00
  -5  -6   2    8.70    1.30
  -5  -6   2    7.60    2.00
  -5  -6   2    7.00    1.60
   5   6  -2    7.40    3.00
  -5  -6   2    5.30    2.30
  -5  -6   2    7.20    1.30
   5   6  -2    6.60    3.20
   5   6  -2    4.20    2.10
  -5  -6   1   14.90    2.30
  -5  -6   1    8.30    2.10
  -5  -6   1   13.60    1.50
  -5  -6   1   14.00    2.40
   5   6  -1   11.10    3.30
  -5  -6   1   14.80    3.50
  -5  -6   1   12.90    1.70
  -5  -6   1   15.60    1.80
   5   6  -1   14.30    4.60
   5   6  -1   12.20    3.10
  -5  -6   0    5.80    1.60
  -5  -6   0    3.80    1.90
  -5  -6   0    4.70    1.10
  -5  -6   0    4.90    1.50
   5   6   0    5.80    1.20
   5   6   0    6.20    3.10
  -5  -6   0    4.40    1.10
  -5  -6   0   -0.10    1.20
  -5  -6   0    4.20    1.20
  -5  -6   0    4.90    1.20
   5   6   0    7.00    3.80
  -5  -6  -1   46.00    3.80
  -5  -6  -1   46.60    3.00
  -5  -6  -1   41.60    2.70
   5   6   1   32.10    5.80
   5   6   1   47.00    2.90
   5   6   1   43.50    2.50
  -5  -6  -1   38.40    5.20
  -5  -6  -1   45.80    3.00
  -5  -6  -1   45.10    3.10
  -5  -6  -1   47.50    3.30
   5   6   1   42.80    7.80
  -5  -6  -1   32.20    4.60
   5   6   1   45.20    2.90
  -5  -6  -2   17.90    2.60
  -5  -6  -2   16.70    1.90
   5   6   2   18.00    2.00
   5   6   2   15.70    1.60
  -5  -6  -2   16.60    2.00
  -5  -6  -2   19.60    2.30
   5   6   2   17.80    2.00
  -5  -6  -3   58.99    4.20
  -5  -6  -3   59.79    3.50
   5   6   3   62.79    3.60
   5   6   3   63.69    3.40
  -5  -6  -3   61.59    3.70
   5   6   3   60.09    3.30
  -5  -6  -3   68.49    4.10
   5   6   3   62.69    3.30
  -5  -6  -3   55.49    3.70
   5   6   3   62.39    3.60
  -5  -6  -4   14.30    1.60
   5   6   4   14.00    1.90
  -5  -6  -4   11.90    1.80
   5   6   4   12.80    1.70
  -5  -6  -4   13.10    2.00
   5   6   4   11.60    1.50
   5   6   4   14.60    1.90
  -5  -6  -4   11.20    2.00
   5   6   5  121.39    4.80
  -5  -6  -5  127.49    4.40
  -5  -6  -5  117.39    4.80
   5   6   5  121.09    4.30
  -5  -6  -5  134.39    5.40
   5   6   5  128.89    4.90
  -5  -6  -5  106.69    4.80
  -5  -6  -6   33.30    2.10
   5   6   6   30.10    2.20
  -5  -6  -6   26.40    2.20
  -5  -6  -6   27.50    2.40
   5   6   6   32.00    2.40
   5   6   7    2.30    0.90
  -5  -6  -7    2.90    0.70
   5   6   7    3.70    0.90
   5   6   7    2.40    0.90
   5   6   7    2.20    0.70
  -5  -6  -7    2.00    0.90
   5   6   8    0.40    0.60
  -5  -6  -8    0.50    0.60
   5   6   8    0.30    0.60
  -5  -6  -8   -0.20    0.50
  -5  -7  15   26.60    2.20
  -5  -7  14   -3.20    2.80
  -5  -7  14    6.60    1.20
  -5  -7  13  236.38    5.80
  -5  -7  13  220.28    6.40
  -5  -7  12   19.00    3.60
  -5  -7  12   26.10    1.90
  -5  -7  11   58.29    4.50
  -5  -7  11   58.79    3.10
  -5  -7  10   84.29    4.10
  -5  -7  10   73.59    3.60
  -5  -7  10   77.89    5.00
  -5  -7   9   24.30    2.40
  -5  -7   9   20.80    3.60
  -5  -7   8   57.59    4.00
  -5  -7   8   58.69    3.30
  -5  -7   8   46.10    2.90
  -5  -7   8   49.70    4.50
  -5  -7   8   50.99    3.80
  -5  -7   7   19.90    2.10
  -5  -7   7   13.60    2.70
  -5  -7   7   10.80    1.60
  -5  -7   7   13.20    1.60
  -5  -7   7   13.40    1.80
  -5  -7   7   14.60    2.20
  -5  -7   6  217.88    6.20
  -5  -7   6  217.58    6.20
  -5  -7   6  221.18   11.40
  -5  -7   6  180.08    6.20
  -5  -7   6  203.08    6.50
  -5  -7   6  235.78    9.70
  -5  -7   6  236.48    7.80
   5   7  -6  204.58   13.30
  -5  -7   6  208.48    6.10
  -5  -7   5   38.10    2.50
  -5  -7   5   42.20    4.30
  -5  -7   5   46.00    6.00
  -5  -7   5   37.70    2.50
  -5  -7   5   42.50    4.80
   5   7  -5   31.30    5.10
  -5  -7   5   38.80    2.80
  -5  -7   5   34.10    5.00
  -5  -7   5   40.40    2.60
  -5  -7   5   38.80    2.90
   5   7  -5   32.40    5.60
  -5  -7   5   43.50    3.20
  -5  -7   5   39.80    3.20
   5   7  -5   30.90    5.40
  -5  -7   4  265.07    6.90
  -5  -7   4  283.77   10.50
   5   7  -4  258.37   16.40
   5   7  -4  237.08   14.10
  -5  -7   4  245.18   11.40
  -5  -7   4  244.78   13.30
  -5  -7   4  255.47    7.50
  -5  -7   4  251.77    6.80
   5   7  -4  253.97   14.70
  -5  -7   4  282.07    7.80
  -5  -7   4  269.77    8.80
  -5  -7   3   23.30    2.00
  -5  -7   3   24.40    3.30
   5   7  -3   23.90    4.70
   5   7  -3   20.50    4.40
  -5  -7   3   20.10    3.90
  -5  -7   3   24.90    2.30
   5   7  -3   16.40    4.60
  -5  -7   3   24.70    2.80
  -5  -7   2  123.59    6.20
   5   7  -2  109.09   11.60
  -5  -7   2  115.89    6.60
  -5  -7   2  107.39    4.30
   5   7  -2  114.79   10.40
  -5  -7   2  108.09    8.90
  -5  -7   2  111.29    4.90
   5   7  -2  100.09    8.90
  -5  -7   1    7.80    2.20
  -5  -7   1    6.20    1.70
  -5  -7   1    5.50    1.20
  -5  -7   1    6.00    1.40
  -5  -7   1    6.10    1.30
   5   7  -1    6.40    1.20
  -5  -7   0   77.19    5.00
  -5  -7   0   68.09    3.50
  -5  -7   0   74.89    3.90
   5   7   0   82.09    3.80
  -5  -7   0   75.79    4.10
  -5  -7   0   70.79    4.90
  -5  -7   0   83.89    4.40
   5   7   0   79.29    3.80
   5   7   1   -0.80    1.10
  -5  -7  -1    0.70    1.10
  -5  -7  -1    0.20    1.30
   5   7   1    1.10    1.10
  -5  -7  -1    0.30    1.00
  -5  -7  -2   24.80    2.30
   5   7   2   22.30    2.20
  -5  -7  -2   19.40    2.20
   5   7   2   22.10    2.20
  -5  -7  -2   23.60    2.50
   5   7   2   23.00    2.20
  -5  -7  -2   22.70    2.60
   5   7   2   24.40    2.40
   5   7   2   22.20    2.20
  -5  -7  -2   22.50    2.90
   5   7   3   18.70    2.10
   5   7   3   18.20    2.00
  -5  -7  -3   15.70    1.90
   5   7   3   18.00    2.00
  -5  -7  -3   17.60    2.20
   5   7   3   14.90    1.70
  -5  -7  -3   17.20    2.10
   5   7   3   18.40    2.00
  -5  -7  -3   13.70    2.20
   5   7   4   16.20    1.90
   5   7   4   14.70    1.70
  -5  -7  -4   16.60    2.10
   5   7   4   15.60    1.60
   5   7   4   14.80    1.80
  -5  -7  -4   12.40    1.80
   5   7   5    2.10    1.10
  -5  -7  -5    2.30    0.70
   5   7   5    1.80    1.10
   5   7   5    2.10    0.90
  -5  -7  -5    1.60    1.10
  -5  -7  -6   23.90    1.30
  -5  -7  -6   26.20    1.70
   5   7   6   25.60    1.80
   5   7   6   25.60    1.80
  -5  -7  -6   26.60    1.90
   5   7   6   26.20    1.80
  -5  -7  -7    6.50    0.80
   5   7   7    6.50    0.80
   5   7   7    6.60    0.90
  -5  -7  -7    6.10    0.80
   5   7   7    6.10    0.80
  -5  -8  14    2.00    0.80
  -5  -8  14    1.60    2.50
  -5  -8  13   26.20    1.90
  -5  -8  13   29.80    3.70
  -5  -8  12   11.30    1.60
  -5  -8  12    8.60    1.20
  -5  -8  12   19.10    2.00
  -5  -8  12   18.30    4.10
  -5  -8  11   24.60    2.30
  -5  -8  11   18.00    1.60
  -5  -8  11   20.80    4.20
  -5  -8  10   11.70    1.50
  -5  -8  10   11.80    3.70
  -5  -8   9  100.19    4.00
  -5  -8   9   90.99    4.00
  -5  -8   9   90.59    5.00
  -5  -8   8   23.70    2.10
  -5  -8   8   20.80    2.10
  -5  -8   7    6.10    1.30
  -5  -8   7    5.10    1.10
  -5  -8   7    5.50    1.20
  -5  -8   7    6.90    1.40
  -5  -8   6    4.40    1.20
  -5  -8   6    4.30    2.10
  -5  -8   6    5.90    1.20
  -5  -8   6    5.70    1.30
  -5  -8   6    7.90    1.50
  -5  -8   5    0.00    1.70
  -5  -8   5    1.40    1.00
  -5  -8   5    0.90    0.90
  -5  -8   5   -1.70    1.20
  -5  -8   4  239.48    6.60
  -5  -8   4  241.98   10.10
  -5  -8   4  257.57    7.80
  -5  -8   4  229.98    7.30
  -5  -8   4  241.48    8.70
  -5  -8   3   72.19    3.60
  -5  -8   3   74.59    5.60
  -5  -8   3   73.59    4.10
  -5  -8   3   76.79    5.00
  -5  -8   2    5.00    1.20
  -5  -8   2    5.60    1.90
  -5  -8   2    5.90    1.50
  -5  -8   2    5.20    1.30
   5   8  -2    6.80    1.20
  -5  -8   1   36.90    2.60
  -5  -8   1   40.30    2.90
   5   8  -1   43.00    2.80
  -5  -8   1   41.30    3.10
  -5  -8   1   39.60    2.90
  -5  -8   1   38.10    3.70
   5   8  -1   41.20    2.70
  -5  -8   0   14.20    1.70
   5   8   0   14.60    1.90
   5   8   0   16.70    1.90
  -5  -8   0   17.90    2.10
  -5  -8   0   16.10    2.50
  -5  -8   0   16.10    2.00
   5   8   0   15.80    1.70
  -5  -8   0   13.90    2.50
  -5  -8  -1   12.30    2.30
  -5  -8  -1   11.10    1.70
   5   8   1   13.30    1.90
   5   8   1   10.20    1.60
   5   8   1   12.10    1.70
  -5  -8  -1   13.00    1.90
  -5  -8  -1   11.60    2.10
   5   8   1   12.50    1.60
  -5  -8  -2   -0.50    1.40
   5   8   2    0.90    0.90
   5   8   2    0.00    1.10
   5   8   2    0.40    1.10
  -5  -8  -2    0.00    1.00
   5   8   2    0.40    1.00
  -5  -8  -2    0.30    1.00
  -5  -8  -2   -0.40    1.00
   5   8   2    0.50    0.80
  -5  -8  -3   13.70    1.40
   5   8   3   12.90    1.80
   5   8   3   12.80    1.60
  -5  -8  -3   12.60    1.80
   5   8   3   13.30    1.50
  -5  -8  -3   13.00    1.60
   5   8   3   12.90    1.50
  -5  -8  -4   11.20    1.20
   5   8   4   13.50    1.60
   5   8   4    9.80    1.30
  -5  -8  -4   11.80    1.60
   5   8   4   10.60    1.10
   5   8   4   11.70    1.30
   5   8   5    2.30    0.70
  -5  -8  -5    3.60    0.70
   5   8   5    3.60    0.90
   5   8   5    3.10    0.80
  -5  -8  -5    3.40    0.90
   5   8   6    5.90    0.80
   5   8   6    5.90    0.70
  -5  -8  -6    5.60    0.80
  -5  -9  14    8.50    2.00
  -5  -9  13   17.80    2.90
  -5  -9  13   21.60    1.40
  -5  -9  13   23.20    1.70
  -5  -9  12   11.30    1.30
  -5  -9  12   12.20    1.60
  -5  -9  12   13.20    1.40
  -5  -9  11   44.20    2.50
  -5  -9  11   44.40    3.00
  -5  -9  10   15.10    1.60
  -5  -9  10   13.10    1.40
  -5  -9   9    7.40    1.40
  -5  -9   9    8.00    1.30
  -5  -9   9    8.10    1.20
  -5  -9   8   40.00    2.60
  -5  -9   8   42.10    2.80
  -5  -9   7   37.20    2.60
  -5  -9   7   41.80    3.00
  -5  -9   7   44.50    2.90
  -5  -9   6   15.00    1.70
  -5  -9   6   16.20    2.10
  -5  -9   6   14.40    1.90
  -5  -9   6   17.40    2.30
  -5  -9   5    4.80    1.40
  -5  -9   5    6.00    1.20
  -5  -9   5    4.80    1.30
  -5  -9   5    6.10    1.60
  -5  -9   4   32.30    2.40
  -5  -9   4   36.30    3.00
  -5  -9   4   35.30    2.80
  -5  -9   4   36.30    3.40
  -5  -9   3   47.30    2.80
  -5  -9   3   47.00    3.10
  -5  -9   3   55.29    3.60
  -5  -9   3   52.79    3.40
  -5  -9   3   51.39    4.00
   5   9  -3   51.99    2.70
  -5  -9   2   98.39    4.10
   5   9  -2  104.69    4.10
  -5  -9   2  105.79    4.40
  -5  -9   2  102.59    4.50
  -5  -9   2  109.59    5.70
  -5  -9   2  104.49    5.80
   5   9  -2  104.59    3.90
  -5  -9   1   44.30    2.80
   5   9  -1   41.80    2.70
  -5  -9   1   40.10    2.90
  -5  -9   1   47.40    3.80
   5   9  -1   41.10    2.70
  -5  -9   1   40.90    3.70
   5   9  -1   42.30    2.50
   5   9   0    7.20    1.40
  -5  -9   0    6.60    1.30
   5   9   0    6.50    1.30
   5   9   0    6.50    1.50
  -5  -9   0    5.60    1.30
  -5  -9   0    6.40    1.70
   5   9   0    4.90    1.10
   5   9   1   75.89    3.50
   5   9   1   70.09    3.20
   5   9   1   74.49    3.50
  -5  -9  -1   72.09    3.70
   5   9   1   78.59    3.50
  -5  -9  -1   75.19    4.00
   5   9   1   70.29    3.10
   5   9   2    1.60    0.80
   5   9   2    2.10    1.10
   5   9   2    2.90    1.10
  -5  -9  -2    3.00    1.10
  -5  -9  -2    2.50    1.00
   5   9   2    2.50    0.90
   5   9   3   10.10    1.30
   5   9   3   11.50    1.30
  -5  -9  -3   10.50    1.40
   5   9   3   10.30    1.10
  -5  -9  -3    9.40    1.10
   5   9   3   10.10    1.10
   5   9   4    2.10    0.50
   5   9   4    2.70    0.80
   5   9   4    2.90    0.70
  -5  -9  -4    2.40    0.80
  -5 -10  13   21.00    1.40
  -5 -10  12    7.60    1.10
  -5 -10  12    7.70    0.90
  -5 -10  12    7.80    1.20
  -5 -10  11   31.00    2.20
  -5 -10  11   25.70    1.70
  -5 -10  11   31.20    2.30
  -5 -10  10    1.80    1.10
  -5 -10  10   -0.60    1.00
  -5 -10  10    2.60    0.80
  -5 -10   9   20.90    1.70
  -5 -10   9   21.30    1.90
  -5 -10   8   31.60    2.10
  -5 -10   8   30.60    2.40
  -5 -10   7    2.50    0.90
  -5 -10   7    1.80    1.00
  -5 -10   7    2.10    0.90
  -5 -10   6    7.90    1.20
  -5 -10   6    7.30    1.50
  -5 -10   6    7.60    1.40
  -5 -10   6   10.00    1.70
  -5 -10   5   11.10    1.40
  -5 -10   5   12.00    1.50
  -5 -10   5   13.30    1.90
  -5 -10   5   13.90    2.10
  -5 -10   4   11.80    1.50
   5  10  -4   11.50    1.30
  -5 -10   4   11.90    1.80
  -5 -10   4   12.70    1.60
  -5 -10   4   12.30    2.10
  -5 -10   3    6.00    1.10
   5  10  -3    6.80    1.20
   5  10  -3    7.10    1.20
  -5 -10   3    7.10    1.30
  -5 -10   3    8.20    1.60
  -5 -10   3    7.20    1.80
  -5 -10   2    2.70    1.00
  -5 -10   2    3.40    1.00
   5  10  -2    1.60    0.80
  -5 -10   2    1.70    1.20
   5  10  -2    3.30    1.00
  -5 -10   2    2.40    1.40
  -5 -10   1   27.20    2.10
  -5 -10   1   31.40    2.20
   5  10  -1   24.90    2.00
   5  10  -1   28.00    1.90
  -5 -10   1   27.90    2.40
   5  10  -1   30.80    2.20
  -5 -10   1   29.50    2.70
  -5 -10   0   11.50    1.40
   5  10   0   10.70    1.40
   5  10   0    9.40    1.20
  -5 -10   0    9.70    1.50
   5  10   0   10.90    1.50
  -5 -10   0   12.50    1.80
   5  10   0   11.10    1.40
  -5 -10  -1   70.99    3.00
   5  10   1   67.89    2.80
  -5 -10  -1   65.19    2.90
   5  10   1   68.89    2.90
   5  10   1   68.99    2.90
  -5 -10  -1   77.29    3.40
  -5 -10  -2    1.10    0.70
   5  10   2    1.70    0.70
  -5 -10  -2    1.50    0.60
   5  10   2    0.60    0.70
  -5 -10  -2    0.70    0.50
   5  10   2    1.00    0.60
  -5 -10  -3    0.10    0.50
   5  10   3   -0.10    0.60
  -5 -11  12   18.40    1.20
  -5 -11  12   21.40    1.40
  -5 -11  11   21.20    1.60
  -5 -11  11   21.80    1.70
  -5 -11  10  129.29    4.10
  -5 -11  10  126.89    4.30
  -5 -11  10  119.29    3.10
  -5 -11  10  116.09    3.40
  -5 -11   9    0.10    0.80
  -5 -11   9    0.20    0.50
  -5 -11   9    0.40    0.60
  -5 -11   8   17.20    1.40
  -5 -11   8   18.10    1.60
  -5 -11   8   17.50    1.70
  -5 -11   7   -0.30    0.60
  -5 -11   7    0.30    0.80
  -5 -11   7   -0.50    0.70
  -5 -11   6   11.90    1.30
  -5 -11   6   14.30    1.30
  -5 -11   6   12.10    1.60
  -5 -11   6   15.90    1.80
  -5 -11   5    6.20    1.00
  -5 -11   5    6.60    1.00
   5  11  -5    7.70    1.00
  -5 -11   5    7.20    1.40
  -5 -11   5    8.00    1.50
  -5 -11   4   12.60    1.30
   5  11  -4   12.30    1.20
  -5 -11   4   13.90    1.70
  -5 -11   4   15.10    2.00
   5  11  -3   21.10    1.50
   5  11  -3   22.30    1.50
  -5 -11   3   24.20    2.10
  -5 -11   3   24.70    1.70
   5  11  -3   26.30    1.90
  -5 -11   3   28.30    2.50
  -5 -11   2   10.90    1.10
   5  11  -2   10.20    1.10
   5  11  -2   10.40    1.10
  -5 -11   2   11.60    1.50
   5  11  -2   14.40    1.40
  -5 -11   2   14.90    1.80
   5  11  -2   13.10    1.50
  -5 -11   1   35.10    1.80
   5  11  -1   32.40    1.70
  -5 -11   1   34.20    2.10
   5  11  -1   34.60    1.90
  -5 -11   1   40.30    2.50
   5  11  -1   35.00    2.00
  -5 -11   0    5.00    0.80
   5  11   0    4.00    0.70
  -5 -11   0    4.70    0.80
   5  11   0    5.60    0.90
   5  11   0    5.60    0.90
  -5 -11   0    6.20    1.10
   5  11   0    5.50    0.80
  -5 -11  -1    6.50    0.70
   5  11   1    7.00    0.80
  -5 -12  10   19.70    1.20
  -5 -12  10   20.10    1.40
  -5 -12   9   26.80    1.70
  -5 -12   9   26.60    1.40
  -5 -12   9   27.60    1.50
  -5 -12   8    2.50    0.60
  -5 -12   8    2.90    0.80
  -5 -12   7   31.60    1.90
  -5 -12   6   55.19    2.60
  -5 -12   6   58.59    2.50
  -5 -12   5    8.60    1.20
   5  12  -5    6.40    0.80
  -5 -12   5    8.80    1.20
  -5 -12   4    9.40    1.20
   5  12  -4    8.40    0.90
  -5 -12   4   10.40    1.30
  -5 -12   3    0.30    0.60
   5  12  -3   -0.10    0.50
  -5 -12   3   -0.20    0.80
   5  12  -3   -0.20    0.60
  -5 -12   2    1.40    0.60
   5  12  -2    0.60    0.50
  -5 -12   2    1.30    0.80
   5  12  -2    1.00    0.60
  -6  14  -2   18.50    1.30
   6 -14   3   13.30    1.00
  -6  14  -3   14.90    1.30
  -6  14  -3   15.60    1.40
  -6  14  -4   11.40    1.30
  -6  14  -4   11.80    1.20
   6 -14   4    9.80    0.90
   6 -14   5    0.10    0.50
  -6  14  -5    0.20    0.70
  -6  14  -5    0.50    0.60
  -6  14  -6    1.50    0.70
   6 -13  -1   12.30    0.90
  -6  13   1   14.20    1.20
  -6  13   1   16.20    1.40
  -6  13   1   12.20    1.40
  -6  13   0    2.90    1.10
   6 -13   0    2.20    0.60
  -6  13   0    2.20    0.80
  -6  13   0    2.70    0.90
  -6  13   0    2.90    0.90
   6 -13   0    2.50    0.60
  -6  13  -1   61.39    3.40
   6 -13   1   54.69    2.30
  -6  13  -1   56.79    2.50
  -6  13  -1   57.39    2.70
   6 -13   1   46.60    1.80
  -6  13  -1   65.29    3.10
  -6  13  -1   63.49    3.00
   6 -13   1   54.79    2.10
  -6  13  -2    3.70    1.30
   6 -13   2    2.80    0.80
   6 -13   2    4.00    0.70
  -6  13  -2    3.70    1.20
  -6  13  -2    5.10    1.10
   6 -13   2    3.20    0.80
  -6  13  -3   34.10    2.60
   6 -13   3   29.20    1.90
   6 -13   3   26.80    1.60
  -6  13  -3   37.00    2.60
  -6  13  -3   34.30    2.20
   6 -13   3   30.30    1.80
   6 -13   4    0.70    0.80
  -6  13  -4    0.50    0.90
   6 -13   4    0.50    0.60
  -6  13  -4    1.10    1.00
  -6  13  -4    0.40    0.60
   6 -13   5    0.50    0.80
   6 -13   5   -0.20    0.50
  -6  13  -5   -0.20    0.70
  -6  13  -5   -0.10    0.90
   6 -13   6   10.30    1.20
   6 -13   6    9.60    1.00
  -6  13  -6    9.60    1.30
   6 -13   7    5.90    1.00
   6 -13   7    5.60    0.80
   6 -13   8    6.30    0.90
  -6  13  -8    5.50    0.80
   6 -13   8    5.30    0.70
   6 -13   9   28.50    1.40
   6 -13   9   25.90    1.20
  -6  13  -9   30.30    1.60
  -6  12   3   18.30    1.50
   6 -12  -3   19.60    1.10
  -6  12   3   30.20    1.90
   6 -12  -3   24.70    1.30
  -6  12   3   27.00    1.60
  -6  12   2   44.20    2.70
   6 -12  -2   39.30    1.80
  -6  12   2   43.60    2.20
  -6  12   2   46.60    2.70
  -6  12   2   49.40    2.70
   6 -12  -2   43.40    2.00
  -6  12   1   35.50    2.80
   6 -12  -1   30.10    1.90
  -6  12   1   38.20    2.60
  -6  12   1   34.20    2.40
  -6  12   1   37.20    2.60
   6 -12  -1   35.20    2.00
  -6  12   0    1.80    0.90
   6 -12   0    1.60    0.80
  -6  12   0    2.60    1.10
   6 -12   0    1.70    0.60
  -6  12   0    1.60    1.10
  -6  12   0    2.00    1.20
   6 -12   0    1.80    0.90
  -6  12  -1    9.50    1.40
   6 -12   1    8.70    1.30
  -6  12  -1    8.10    1.40
   6 -12   1    9.30    1.10
  -6  12  -1   11.30    1.90
  -6  12  -1   11.40    1.80
   6 -12   1    9.40    1.30
   6 -12   2    1.00    1.00
  -6  12  -2    1.10    0.90
   6 -12   2    0.60    0.70
  -6  12  -2    0.90    1.30
  -6  12  -2    0.20    1.00
   6 -12   2    0.10    0.80
  -6  12  -3   58.49    3.70
   6 -12   3   50.59    3.00
   6 -12   3   44.40    2.40
  -6  12  -3   52.39    3.20
   6 -12   3   54.49    2.90
   6 -12   4    1.90    1.00
  -6  12  -4    2.00    1.20
   6 -12   4    1.30    1.10
   6 -12   4    1.70    0.80
  -6  12  -4    0.80    1.20
  -6  12  -4    2.00    0.90
   6 -12   4    1.70    1.00
  -6  12  -5   24.00    2.20
   6 -12   5   21.10    1.70
   6 -12   5   22.80    2.10
  -6  12  -5   26.10    2.40
   6 -12   5   20.80    1.60
   6 -12   5   23.30    2.00
   6 -12   6   46.70    2.80
  -6  12  -6   52.29    3.00
   6 -12   6   46.30    2.50
   6 -12   7    1.30    1.00
   6 -12   7    1.20    0.70
   6 -12   8   30.70    2.10
  -6  12  -8   33.60    2.10
   6 -12   8   30.10    1.80
   6 -12   9    9.70    1.20
   6 -12   9   10.00    1.10
   6 -12   9    6.40    0.80
   6 -12  10    3.60    0.70
   6 -12  10    4.00    0.80
   6 -11  -5    4.20    0.70
  -6  11   5    4.70    1.00
   6 -11  -4   32.50    1.60
  -6  11   4   40.60    2.50
  -6  11   4   34.90    2.10
   6 -11  -4   41.10    2.00
  -6  11   3   43.30    2.90
   6 -11  -3   33.60    1.90
  -6  11   3   40.80    2.90
  -6  11   3   39.60    2.30
  -6  11   3   40.90    2.70
   6 -11  -3   42.30    2.30
  -6  11   2    0.50    1.20
  -6  11   2    0.60    1.10
   6 -11  -2    0.10    0.70
   6 -11  -2    0.20    0.50
  -6  11   2    0.60    1.00
  -6  11   2    0.20    1.20
   6 -11  -2    0.80    0.90
  -6  11   1    0.70    1.00
   6 -11  -1    0.20    0.70
  -6  11   1    0.50    1.20
   6 -11  -1    0.50    0.60
  -6  11   1   -0.10    1.10
  -6  11   1    1.40    1.40
   6 -11  -1    0.70    0.90
  -6  11   0    2.60    1.20
   6 -11   0    2.90    1.10
  -6  11   0    2.30    1.30
   6 -11   0    3.00    0.90
  -6  11   0    3.60    1.60
  -6  11   0    2.50    1.50
   6 -11   0    2.80    1.10
  -6  11  -1   45.00    2.90
   6 -11   1   41.40    2.80
  -6  11  -1   52.49    3.50
   6 -11   1   39.80    2.40
  -6  11  -1   49.60    3.70
   6 -11   1   41.30    2.30
  -6  11  -1   50.19    3.60
   6 -11   1   46.30    3.00
   6 -11   2    0.50    1.00
  -6  11  -2    0.30    1.00
   6 -11   2    0.30    0.70
   6 -11   2    0.70    0.80
  -6  11  -2    0.80    1.20
   6 -11   2    0.20    1.00
   6 -11   3   27.90    2.50
   6 -11   3   26.20    2.10
   6 -11   3   28.40    2.00
  -6  11  -3   31.10    2.70
   6 -11   3   31.50    2.60
   6 -11   4   29.60    2.60
   6 -11   4   29.20    2.20
  -6  11  -4   30.30    2.50
   6 -11   4   29.00    2.50
   6 -11   4   27.60    2.10
  -6  11  -5   15.20    2.00
   6 -11   5   14.80    1.90
   6 -11   5   14.80    1.60
   6 -11   5   16.10    1.70
   6 -11   5   15.70    2.00
   6 -11   6   22.70    2.20
   6 -11   6   25.40    2.10
  -6  11  -6   24.60    2.30
   6 -11   6   19.20    1.80
   6 -11   7    3.90    1.10
   6 -11   7    2.20    1.20
   6 -11   7    2.70    0.90
   6 -11   7    2.40    0.80
   6 -11   8   72.99    3.50
  -6  11  -8   79.49    3.50
   6 -11   8   71.69    3.10
   6 -11   9   -0.20    0.70
   6 -11   9    0.50    0.90
   6 -11  10   -0.10    0.80
   6 -11  10   -0.60    0.60
   6 -11  10   -1.50    0.80
   6 -11  11    6.20    0.80
   6 -11  11    3.40    0.70
   6 -10  -6   48.50    2.00
  -6  10   6   53.79    2.80
   6 -10  -5    0.30    0.50
   6 -10  -5    0.50    0.50
  -6  10   5    0.10    1.00
   6 -10  -5    0.50    0.80
  -6  10   4    6.00    1.40
   6 -10  -4    5.40    0.90
   6 -10  -4    6.80    1.00
  -6  10   4    6.60    1.20
  -6  10   4    7.10    1.70
  -6  10   4    8.50    1.50
   6 -10  -4    7.90    1.40
  -6  10   3   57.29    3.50
   6 -10  -3   49.99    2.70
   6 -10  -3   62.09    2.80
  -6  10   3   61.19    4.00
  -6  10   3   61.09    3.80
   6 -10  -3   60.49    3.30
  -6  10   3   59.19    3.50
  -6  10   2   -0.10    1.20
   6 -10  -2   -0.10    0.70
   6 -10  -2   -0.10    0.70
  -6  10   2   -0.70    1.40
   6 -10  -2   -0.10    0.70
   6 -10  -2   -0.70    0.70
  -6  10   2    0.10    1.10
  -6  10   2    0.20    1.30
   6 -10  -2    0.10    1.00
  -6  10   2   -0.30    0.90
  -6  10   1   55.09    3.50
  -6  10   1   57.59    3.90
   6 -10  -1   49.10    3.00
   6 -10  -1   59.19    2.90
  -6  10   1   57.79    4.00
   6 -10  -1   49.20    2.60
   6 -10  -1   58.49    2.80
  -6  10   1   58.29    4.00
   6 -10  -1   58.59    3.50
  -6  10   1   53.29    3.20
   6 -10   0    0.90    0.80
  -6  10   0   -0.70    1.00
  -6  10   0    0.30    1.30
   6 -10   0    0.10    0.70
  -6  10   0   -0.20    1.30
   6 -10   0    0.20    0.90
  -6  10   0    0.00    1.30
   6 -10   0    0.10    1.00
  -6  10  -1   44.10    2.90
   6 -10   1   40.90    2.90
  -6  10  -1   42.00    3.30
   6 -10   1   41.20    2.50
   6 -10   1   42.10    2.60
  -6  10  -1   45.70    3.60
   6 -10   1   47.20    3.20
   6 -10   2   11.70    1.50
   6 -10   2    9.70    1.60
  -6  10  -2   12.20    1.80
   6 -10   2   10.20    1.40
  -6  10  -2   14.20    2.10
   6 -10   2   11.80    1.90
   6 -10   3  103.69    4.30
   6 -10   3   95.19    4.50
   6 -10   3   90.59    3.90
  -6  10  -3  103.79    4.90
   6 -10   3  106.49    4.80
   6 -10   4   33.10    2.80
   6 -10   4   30.50    2.30
   6 -10   4   33.40    2.50
   6 -10   4   29.10    2.20
   6 -10   4   31.50    2.80
   6 -10   5    0.50    1.10
   6 -10   5    0.00    0.80
  -6  10  -5    0.00    1.10
   6 -10   5    0.30    0.90
   6 -10   5    0.30    1.00
   6 -10   5    0.20    1.00
   6 -10   6  153.68    5.20
   6 -10   6  157.68    5.20
   6 -10   6  153.48    5.80
   6 -10   6  166.58    6.10
   6 -10   6  158.38    5.70
   6 -10   7   15.50    2.00
   6 -10   7   18.60    2.00
   6 -10   7   17.30    1.80
   6 -10   7   17.90    1.90
   6 -10   8   12.10    1.80
   6 -10   8   12.70    1.60
   6 -10   8   12.60    1.60
   6 -10   9   17.20    2.00
   6 -10   9   15.00    1.30
   6 -10   9   18.00    1.70
   6 -10  10    0.20    0.90
   6 -10  10   -1.40    0.70
   6 -10  10   -0.80    0.80
   6 -10  11    4.00    0.70
   6 -10  11    5.60    1.00
   6 -10  12    1.20    0.50
   6 -10  12    0.70    0.60
   6  -9  -8    5.70    0.70
  -6   9   8    5.90    1.00
   6  -9  -7    0.30    0.50
   6  -9  -7    0.40    0.60
  -6   9   7    0.60    0.90
   6  -9  -6    0.90    0.50
  -6   9   6    0.20    1.00
   6  -9  -6    0.90    0.70
   6  -9  -5   12.80    1.30
  -6   9   5   17.90    2.00
  -6   9   5   14.30    2.10
   6  -9  -5   16.10    1.40
   6  -9  -5   17.70    1.60
  -6   9   5   15.50    1.90
   6  -9  -4    0.90    0.70
  -6   9   4    1.20    1.40
   6  -9  -4    0.40    0.70
  -6   9   4   -0.10    1.30
  -6   9   4   -0.60    1.00
   6  -9  -4    0.60    0.80
  -6   9   4    0.60    1.10
   6  -9  -3   17.10    1.70
  -6   9   3   16.40    2.30
   6  -9  -3   19.40    1.90
  -6   9   3   17.90    2.50
  -6   9   3   17.10    2.20
  -6   9   3   16.60    2.30
  -6   9   3   15.30    2.10
   6  -9  -3   15.70    1.60
  -6   9   2   33.60    2.90
   6  -9  -2   41.30    2.70
   6  -9  -2   35.20    2.50
   6  -9  -2   40.30    2.50
  -6   9   2   35.30    3.30
  -6   9   2   38.90    3.30
  -6   9   2   37.90    3.30
   6  -9  -2   40.40    3.00
  -6   9   2   34.70    2.80
  -6   9   1   62.59    3.80
  -6   9   1   58.19    4.10
   6  -9  -1   66.09    3.30
   6  -9  -1   55.99    3.20
   6  -9  -1   67.19    3.50
  -6   9   1   54.39    4.00
  -6   9   1   58.89    4.10
   6  -9  -1   63.19    3.80
  -6   9   1   58.99    3.50
   6  -9   0   99.39    4.30
   6  -9   0  113.89    4.40
   6  -9   0  114.09    4.50
  -6   9   0  105.69    5.20
  -6   9   0  109.49    5.40
   6  -9   0  113.69    5.00
  -6   9   0  107.19    4.70
  -6   9  -1  122.19    4.80
   6  -9   1  114.69    4.70
  -6   9  -1  128.79    5.60
   6  -9   1  133.89    4.90
  -6   9  -1  133.09    5.80
   6  -9   1  134.49    5.40
   6  -9   2   14.40    1.80
  -6   9  -2   17.30    2.00
   6  -9   2   13.60    1.60
   6  -9   2   15.70    1.80
  -6   9  -2   17.10    2.20
   6  -9   2   14.30    1.90
   6  -9   3   16.70    1.90
   6  -9   3   15.20    1.90
   6  -9   3   14.80    1.60
   6  -9   3   16.70    1.80
  -6   9  -3   17.70    2.10
   6  -9   3   16.80    2.10
   6  -9   4   10.80    1.70
   6  -9   4    9.40    1.40
   6  -9   4    9.90    1.50
   6  -9   4   10.30    1.80
   6  -9   4   11.10    1.70
   6  -9   5  102.69    4.60
   6  -9   5   95.39    4.00
   6  -9   5   91.89    4.10
   6  -9   5   98.69    4.60
   6  -9   5  101.19    4.80
   6  -9   6   42.70    3.10
   6  -9   6   43.40    2.70
   6  -9   6   44.10    2.90
   6  -9   6   45.70    3.10
   6  -9   6   43.70    3.20
   6  -9   7    9.20    1.70
   6  -9   7    7.50    1.60
   6  -9   7    7.20    1.10
   6  -9   7    6.40    1.20
   6  -9   7    7.10    1.40
   6  -9   8    0.70    0.70
   6  -9   8    0.40    1.20
   6  -9   8    1.00    0.90
   6  -9   8    0.00    1.00
   6  -9   8    1.30    1.30
   6  -9   9    6.80    1.60
   6  -9   9    5.20    1.00
   6  -9   9    5.60    1.10
   6  -9   9    7.20    1.50
   6  -9  10   90.79    3.40
   6  -9  10   98.79    4.20
   6  -9  11   -1.80    0.80
   6  -9  11    1.60    0.80
   6  -9  12    5.30    0.80
  -6   9 -12    5.30    0.70
   6  -9  12    4.60    0.90
   6  -8  -9    6.50    0.70
  -6   8   9    6.30    1.00
   6  -8  -8   20.60    1.10
   6  -8  -8   23.50    1.50
  -6   8   8   20.90    1.50
   6  -8  -7    3.20    0.80
  -6   8   7    2.50    1.10
   6  -8  -7    4.10    1.00
  -6   8   7    2.70    0.90
  -6   8   7    3.80    1.50
   6  -8  -6   56.39    2.60
   6  -8  -6   41.50    2.20
  -6   8   6   50.19    3.40
   6  -8  -6   55.69    3.00
  -6   8   6   46.00    2.60
   6  -8  -5   16.80    1.60
   6  -8  -5   20.80    2.00
  -6   8   5   18.50    2.40
  -6   8   5   19.70    2.30
  -6   8   5   18.70    2.00
   6  -8  -5   24.50    2.00
  -6   8   5   19.50    2.30
   6  -8  -4   89.89    3.80
   6  -8  -4   68.19    3.20
   6  -8  -4   86.79    4.00
  -6   8   4   77.29    4.70
  -6   8   4   76.09    4.30
  -6   8   4   76.99    4.30
  -6   8   4   75.99    4.40
   6  -8  -3   26.20    2.20
   6  -8  -3   19.70    1.80
  -6   8   3   22.90    2.50
   6  -8  -3   22.60    2.20
  -6   8   3   24.00    2.60
  -6   8   3   23.00    2.60
  -6   8   3   28.70    3.00
  -6   8   3   22.40    2.40
  -6   8   2   12.40    1.90
   6  -8  -2   14.10    1.60
   6  -8  -2   16.70    1.90
  -6   8   2   13.30    2.20
  -6   8   2   16.50    2.30
   6  -8  -2   16.90    1.80
  -6   8   2   15.70    2.30
  -6   8   2   14.30    1.90
  -6   8   1  121.19    5.00
   6  -8  -1  134.89    4.90
   6  -8  -1  113.19    4.40
   6  -8  -1  135.99    5.10
  -6   8   1  120.49    5.60
  -6   8   1  129.39    5.80
   6  -8  -1  124.89    4.40
  -6   8   1  127.39    5.80
   6  -8  -1  131.59    5.30
  -6   8   1  113.09    4.70
  -6   8   0   25.70    5.70
   6  -8   0   29.80    2.30
   6  -8   0   33.90    2.50
   6  -8   0   33.60    2.50
  -6   8   0   30.60    2.40
  -6   8   0   32.90    2.90
   6  -8   0   31.80    2.30
   6  -8   0   22.80    3.90
  -6   8   0   33.40    3.00
   6  -8   0   32.30    2.70
   6  -8   1   74.49    3.70
   6  -8   1   72.09    3.40
   6  -8   1   62.59    3.30
   6  -8   1   73.29    3.60
  -6   8  -1   72.29    4.00
  -6   8  -1   58.49    7.80
   6  -8   1   57.29    6.20
  -6   8  -1   74.69    4.20
   6  -8   1   76.79    4.00
   6  -8   2   35.70    2.60
   6  -8   2   31.40    2.40
  -6   8  -2   27.60    5.50
   6  -8   2   31.80    2.40
   6  -8   2   33.40    4.90
  -6   8  -2   35.20    2.80
   6  -8   2   33.90    2.70
   6  -8   3   14.10    1.80
  -6   8  -3    6.40    3.00
   6  -8   3   13.90    1.80
   6  -8   3   12.00    1.60
   6  -8   3    8.00    2.70
  -6   8  -3   12.90    1.70
   6  -8   3   13.60    1.80
   6  -8   4   37.90    2.80
   6  -8   4   36.70    2.70
   6  -8   4   39.40    2.70
   6  -8   4   29.50    4.40
   6  -8   4   38.60    2.90
  -6   8  -4   39.90    3.10
   6  -8   5   86.79    4.20
   6  -8   5   82.79    3.60
   6  -8   5   82.39    4.00
   6  -8   5   85.79    4.20
   6  -8   5   87.49    4.50
   6  -8   6   51.99    3.40
   6  -8   6   51.69    2.90
   6  -8   6   51.49    3.20
   6  -8   6   53.79    3.60
   6  -8   6   45.80    3.20
   6  -8   7   46.40    3.20
   6  -8   7   51.09    2.90
   6  -8   7   45.60    3.20
   6  -8   7   45.20    3.30
   6  -8   7   40.60    2.50
   6  -8   8  188.78    6.40
   6  -8   8  181.48    5.40
   6  -8   8  167.08    5.20
   6  -8   8  199.38    5.80
   6  -8   8  170.48    6.20
   6  -8   8  159.88    6.20
   6  -8   9   15.70    2.10
   6  -8   9   12.70    1.60
   6  -8   9   13.40    1.60
   6  -8   9   15.40    1.70
   6  -8   9   13.20    1.90
   6  -8  10   30.10    2.60
   6  -8  10   27.70    2.10
   6  -8  10   24.70    2.00
   6  -8  10   30.10    2.20
   6  -8  11   12.20    1.50
   6  -8  12   45.10    2.10
   6  -8  12   40.70    2.00
   6  -8  13   22.90    1.20
   6  -8  13   21.70    1.20
   6  -7 -10    4.50    0.70
   6  -7 -10    3.80    0.60
   6  -7  -9    2.50    0.60
   6  -7  -9    2.10    0.70
  -6   7   9    0.80    0.70
  -6   7   9    1.70    1.10
   6  -7  -8  210.68    5.00
   6  -7  -8  214.48    5.60
  -6   7   8  198.58    5.60
  -6   7   8  216.78    7.20
   6  -7  -7   17.50    1.90
  -6   7   7   14.70    1.70
  -6   7   7   16.80    2.00
  -6   7   6   12.40    2.00
   6  -7  -6   18.90    1.50
  -6   7   6   14.00    1.70
   6  -7  -6   17.20    1.90
  -6   7   5    4.20    1.40
   6  -7  -5    2.90    1.10
  -6   7   5    2.80    1.40
  -6   7   5    4.60    1.40
   6  -7  -5    8.40    1.30
  -6   7   5    4.10    1.40
  -6   7   4  100.89    5.30
  -6   7   4  101.19    5.00
  -6   7   4  100.79    5.00
   6  -7  -4  105.49    3.70
  -6   7   4   99.79    5.10
  -6   7   4  104.49    5.00
   6  -7  -3  559.94   10.70
   6  -7  -3  421.66    8.80
  -6   7   3  452.95   11.50
   6  -7  -3  532.25   10.80
  -6   7   3  446.06   11.10
   6  -7  -3  444.56    8.40
   6  -7  -3  314.97   13.90
  -6   7   3  440.46   11.20
  -6   7   3  447.66   10.70
  -6   7   3  425.56   10.40
  -6   7   2   61.29    8.10
  -6   7   2   63.79    3.70
   6  -7  -2   53.79    5.70
   6  -7  -2   61.69    3.00
   6  -7  -2   80.89    3.90
  -6   7   2   61.69    4.00
  -6   7   2   66.29    4.10
   6  -7  -2   80.39    3.80
   6  -7  -2   60.69    2.70
   6  -7  -2   49.20    5.60
  -6   7   2   67.49    4.10
  -6   7   2   64.09    3.60
  -6   7   1  101.89   10.40
  -6   7   1   95.79    4.20
  -6   7   1   97.69   10.40
   6  -7  -1   83.69    6.90
   6  -7  -1   87.89    3.60
   6  -7  -1  114.79    4.60
  -6   7   1   99.09    4.80
  -6   7   1  100.79    4.90
   6  -7  -1   77.19    6.90
   6  -7  -1  109.19    4.50
  -6   7   1   98.49    4.80
  -6   7   1   92.19    4.00
  -6   7   0  121.09   12.20
   6  -7   0   96.09    4.20
  -6   7   0   87.29    9.70
   6  -7   0   75.89    6.40
   6  -7   0   81.19    3.50
   6  -7   0  106.79    4.30
  -6   7   0   90.79    4.40
   6  -7   0   72.29    6.80
  -6   7   0   91.29    4.50
   6  -7   0   98.69    4.40
   6  -7   1  111.39    4.50
   6  -7   1   95.39    3.90
   6  -7   1   93.29    6.80
   6  -7   1  114.79    4.40
  -6   7  -1  100.19    4.40
   6  -7   1   95.29    7.80
  -6   7  -1  109.39    4.70
   6  -7   1  119.39    4.70
   6  -7   1  110.69    4.20
  -6   7  -1  104.09   10.30
  -6   7  -2   21.50   16.10
   6  -7   2   24.00    2.00
   6  -7   2   29.70    2.20
   6  -7   2   25.10    2.20
   6  -7   2   25.10    4.10
  -6   7  -2   24.10    5.20
   6  -7   2   25.90    2.30
   6  -7   3   19.20    2.00
   6  -7   3   19.50    1.90
  -6   7  -3   12.40   15.00
  -6   7  -3   18.20    4.60
   6  -7   3   20.40    1.90
   6  -7   3   22.80    3.80
   6  -7   3   23.00    2.20
   6  -7   4    0.80    0.90
  -6   7  -4    1.40    1.10
  -6   7  -4   -2.10    2.30
   6  -7   4    0.90    0.70
   6  -7   4    1.60    1.10
   6  -7   4    1.70    1.40
   6  -7   4    0.40    1.00
   6  -7   5    6.50    1.40
  -6   7  -5    7.90    3.00
   6  -7   5    6.90    2.30
   6  -7   5    6.30    1.30
   6  -7   5    6.90    1.40
   6  -7   5    5.00    2.00
   6  -7   5    7.60    1.50
   6  -7   6    9.40    1.60
   6  -7   6   11.20    1.70
   6  -7   6    9.80    1.40
  -6   7  -6   13.10    4.10
   6  -7   6   10.10    1.60
   6  -7   7   19.10    2.20
   6  -7   7   17.00    1.80
   6  -7   7   18.60    1.80
   6  -7   7   14.30    2.00
   6  -7   7   19.10    2.20
   6  -7   8   10.80    2.00
   6  -7   8   11.70    1.90
   6  -7   8    9.40    1.50
   6  -7   8   11.40    1.60
   6  -7   8   10.30    1.40
   6  -7   8    8.20    1.70
   6  -7   9    8.10    1.70
   6  -7   9    8.10    1.50
   6  -7   9    7.30    1.40
   6  -7   9    8.30    1.30
   6  -7   9    7.20    1.70
   6  -7  10   19.70    2.20
   6  -7  10   17.30    1.90
   6  -7  10   17.90    1.90
   6  -7  10   21.60    1.90
   6  -7  10   18.80    1.60
  -6   7 -11   18.00    1.70
   6  -7  11   20.90    1.90
   6  -7  11   19.30    1.80
   6  -7  11   20.00    1.60
   6  -7  12    9.90    1.20
   6  -7  12   11.50    1.10
  -6   7 -12    8.30    1.00
   6  -7  12    8.50    1.00
   6  -7  13    7.30    0.80
   6  -7  13   12.50    1.00
   6  -6 -11    6.70    0.70
   6  -6 -10   29.40    1.50
  -6   6  10   23.30    1.50
   6  -6 -10   25.80    1.60
  -6   6  10   24.10    1.80
  -6   6  10   26.50    2.10
   6  -6  -9   23.90    1.90
  -6   6   9   23.60    2.00
  -6   6   9   26.10    2.60
   6  -6  -8   14.10    1.80
  -6   6   8   12.20    1.70
  -6   6   8   12.80    2.20
   6  -6  -7    9.00    1.60
  -6   6   7    8.40    1.70
  -6   6   7    9.50    1.60
   6  -6  -6   50.99    3.20
  -6   6   6   44.50    3.50
  -6   6   6   44.00    3.00
  -6   6   6   39.10    3.10
  -6   6   5   68.89    4.10
   6  -6  -5   76.49    4.00
  -6   6   5   62.49    4.10
  -6   6   5   63.59    3.90
  -6   6   5   59.49    3.90
  -6   6   4  140.69   11.70
   6  -6  -4  120.59    8.60
   6  -6  -4  187.78    6.10
  -6   6   4  166.58    6.60
  -6   6   4  157.18    6.20
  -6   6   4  155.78   11.90
   6  -6  -4  222.08    5.60
  -6   6   4  157.88    6.20
  -6   6   4  153.68    6.00
  -6   6   3   62.19    3.60
   6  -6  -3   54.99    5.70
  -6   6   3   60.09    3.90
  -6   6   3   61.89    3.80
   6  -6  -3   49.30    5.30
  -6   6   3   62.69    3.80
  -6   6   3   62.89    7.80
  -6   6   3   60.99    3.50
  -6   6   2  199.78    6.20
   6  -6  -2  211.38    5.50
  -6   6   2  212.98    6.90
   6  -6  -2  169.28    9.80
   6  -6  -2  241.98    6.60
  -6   6   2  207.18    6.90
  -6   6   2  221.98   14.60
   6  -6  -2  166.28    9.80
  -6   6   2  207.18    6.80
  -6   6   1   -2.00    3.80
  -6   6   1    0.00    2.70
   6  -6  -1   -0.30    1.10
   6  -6  -1    2.40    1.50
  -6   6   0    2.50    2.50
   6  -6   0    1.90    1.30
   6  -6   0    2.30    1.60
   6  -6   1  176.08    8.70
   6  -6   1  171.48   10.00
  -6   6  -1  201.58   13.70
  -6   6  -2    2.20    2.30
   6  -6   2    2.60    1.70
   6  -6   3   73.69    6.60
  -6   6  -3   74.69    8.10
  -6   6  -4    2.30    2.20
   6  -6   4    4.20    1.80
   6  -6   4    2.50    1.70
   6  -6   5   27.90    2.30
   6  -6   5   28.00    2.40
   6  -6   5   24.40    4.00
   6  -6   5   24.60    2.20
   6  -6   5   24.30    3.90
   6  -6   5   25.90    2.00
   6  -6   5   30.50    2.60
  -6   6  -5   31.20    5.40
   6  -6   6    5.90    1.40
   6  -6   6    4.90    1.20
   6  -6   6    9.40    2.80
   6  -6   6    4.20    1.30
  -6   6  -6    5.00    2.60
   6  -6   6    6.70    2.20
   6  -6   6    4.80    1.30
   6  -6   6    5.00    1.20
   6  -6   7  168.18    5.90
   6  -6   7  165.48    5.60
   6  -6   7  149.09    5.70
   6  -6   7  171.08    6.20
   6  -6   7  162.68    5.50
   6  -6   8   64.49    3.70
   6  -6   8   59.19    3.40
   6  -6   8   55.39    3.10
   6  -6   8   57.19    3.00
   6  -6   8   67.29    3.30
   6  -6   8   54.29    3.60
   6  -6   9   18.20    2.20
   6  -6   9   16.30    1.70
   6  -6   9   16.30    2.00
   6  -6   9   15.20    1.80
   6  -6   9   22.10    2.00
   6  -6   9   16.40    2.20
   6  -6  10   30.80    2.60
   6  -6  10   28.30    2.30
   6  -6  10   30.90    2.30
   6  -6  11    2.50    1.10
   6  -6  11    4.00    1.30
  -6   6 -11    3.20    0.90
   6  -6  11    3.70    1.00
   6  -6  12   10.70    1.30
  -6   6 -12   11.90    1.20
   6  -6  12   12.40    1.10
   6  -6  12   10.70    1.20
   6  -6  13   -0.40    0.50
  -6   6 -13   -1.70    0.80
  -6   5  11   12.30    1.20
   6  -5 -11   13.20    1.20
  -6   5  11   12.20    1.30
  -6   5  11   11.90    1.30
   6  -5 -10    9.30    1.30
  -6   5  10    8.80    1.40
  -6   5  10    8.00    1.50
   6  -5  -9   93.89    4.00
  -6   5   9   80.09    4.10
  -6   5   9   84.99    4.90
   6  -5  -8   66.59    3.60
  -6   5   8   59.09    3.70
  -6   5   8   64.59    4.50
   6  -5  -7    2.50    1.20
  -6   5   7    2.00    1.00
  -6   5   6    9.70    1.80
   6  -5  -6   11.90    1.70
   6  -5  -5  107.19    7.00
  -6   5   5  116.49    5.20
  -6   5   5  110.89   10.30
   6  -5  -5   81.29    5.20
   6  -5  -5   89.39    7.30
   6  -5  -5  125.89    4.90
  -6   5   5  109.59    5.20
  -6   5   5  105.49    4.90
  -6   5   5  111.79   10.30
  -6   5   5  107.09    5.10
   6  -5  -4  328.37    8.60
  -6   5   4  303.67    8.30
   6  -5  -4  260.47   12.50
   6  -5  -4  375.56    8.60
   6  -5  -4  549.65   13.40
  -6   5   4  315.67    8.90
  -6   5   4  298.47   16.60
  -6   5   4  317.17    8.70
   6  -5  -4  540.95    9.10
   6  -5  -4  244.28   11.20
  -6   5   4  305.27    8.60
  -6   5   3   47.70    6.60
   6  -5  -3   40.50    4.80
   6  -5  -3   41.50    4.60
   6  -5  -2    8.60    2.30
  -6   5   2   10.60    4.30
   6  -5  -2    8.30    2.30
  -6   5   2   10.80    3.50
  -6   5   1   94.29    9.60
   6  -5  -1   86.99    6.30
   6  -5  -1   85.29    6.70
   6  -5   0   60.59    5.10
   6  -5   0   60.99    5.70
  -6   5   0   68.19    8.00
   6  -5   1  313.57   10.80
   6  -5   1  281.87   12.40
  -6   5  -1  317.17   16.30
   6  -5   2   27.10    3.30
   6  -5   2   31.10    4.20
  -6   5  -2   31.50    5.30
   6  -5   3  284.47   11.80
   6  -5   3  291.37   12.80
  -6   5  -3  310.57   15.30
  -6   5  -4    8.00    2.70
   6  -5   4    4.80    2.10
   6  -5   4    6.10    2.20
   6  -5   5   11.90    1.70
  -6   5  -5   10.90    4.30
  -6   5  -5   14.00    3.60
   6  -5   5    9.10    2.80
   6  -5   5   11.80    1.50
   6  -5   5   12.80    2.90
   6  -5   5   13.40    1.70
   6  -5   6    1.60    1.00
   6  -5   6    1.10    0.90
  -6   5  -6    3.40    2.10
  -6   5  -6   -2.90    3.00
   6  -5   6   -0.10    1.00
   6  -5   6    1.60    1.10
   6  -5   6    0.40    1.00
   6  -5   6   -1.50    1.50
   6  -5   6    1.10    0.90
   6  -5   7   36.70    2.80
  -6   5  -7   23.60    5.80
   6  -5   7   30.70    2.50
   6  -5   7   34.00    2.70
   6  -5   7   35.80    2.90
   6  -5   7   31.70    2.50
  -6   5  -7   32.00    5.20
   6  -5   8   85.49    4.30
   6  -5   8   72.69    4.00
   6  -5   8   80.99    4.30
  -6   5  -8   80.99    3.90
   6  -5   9   19.60    2.00
   6  -5   9   18.60    2.20
   6  -5   9   16.60    1.90
   6  -5   9   22.40    2.40
   6  -5   9   23.50    2.50
   6  -5  10   13.10    1.70
   6  -5  10   15.50    2.00
  -6   5 -10   18.50    1.90
   6  -5  10   16.40    1.90
   6  -5  11   10.40    1.50
   6  -5  11    8.50    1.40
  -6   5 -11    8.10    1.10
   6  -5  11    8.50    1.60
  -6   5 -11    8.80    1.30
  -6   5 -12    0.40    0.50
   6  -5  12    0.70    0.70
  -6   5 -12   -0.20    0.60
   6  -5  12   -0.20    0.80
   6  -5  12    2.20    0.90
   6  -5  13   14.10    1.20
  -6   5 -13   12.50    1.10
  -6   4  12    4.00    0.80
   6  -4 -12    4.50    0.70
  -6   4  11   22.10    1.90
   6  -4 -11   23.20    1.70
  -6   4  11   21.70    2.00
  -6   4  11   22.10    2.10
   6  -4 -10   72.79    3.40
  -6   4  10   66.99    3.70
  -6   4  10   64.59    4.10
   6  -4  -9    9.00    1.50
  -6   4   9    8.10    1.60
  -6   4   9    7.50    1.80
   6  -4  -8   42.80    2.90
   6  -4  -8   34.30    7.20
  -6   4   8   42.60    3.10
   6  -4  -8   39.00    2.60
  -6   4   8   43.40    3.80
   6  -4  -7   68.09    3.60
  -6   4   7   60.29    3.80
  -6   4   7   63.99    3.70
   6  -4  -7   65.79    3.40
  -6   4   7   69.49    4.60
   6  -4  -6    4.80    4.90
  -6   4   6    7.10    3.10
   6  -4  -6    9.50    1.50
   6  -4  -6    7.30    5.20
  -6   4   6    9.50    1.70
   6  -4  -6    3.60    1.70
  -6   4   6    7.90    1.40
  -6   4   6    3.70    2.50
   6  -4  -6    8.50    1.40
  -6   4   5   30.90    5.40
   6  -4  -5   44.40    2.80
  -6   4   5   41.50    3.10
  -6   4   5   38.60    2.90
  -6   4   5   36.70    5.80
   6  -4  -5   30.30    4.20
  -6   4   5   37.50    2.90
  -6   4   4    6.10    2.90
   6  -4  -4    5.00    2.00
   6  -4  -4    5.20    1.60
  -6   4   3   -1.20    3.20
   6  -4  -3    0.70    1.20
  -6   4   3   -0.40    2.70
   6  -4  -3    1.20    1.10
  -6   4   2   95.99    9.50
  -6   4   2  113.99    9.40
   6  -4  -2   92.29    6.50
   6  -4  -2   90.39    6.50
  -6   4   1   82.29    8.50
   6  -4  -1   71.59    5.40
   6  -4  -1   69.49    5.80
   6  -4   0   97.69    6.00
   6  -4   0   88.99    6.60
  -6   4   0  100.19    8.90
  -6   4  -1   21.30   11.80
   6  -4   1   14.30    2.20
  -6   4  -1   12.20    3.40
   6  -4   1    9.70    2.00
   6  -4   1   12.80    2.80
  -6   4  -2    1.20    2.00
   6  -4   2    0.60    1.00
  -6   4  -3    1.30    1.90
   6  -4   3    1.10    1.30
   6  -4   4   -0.70    1.20
  -6   4  -4    0.70    1.60
   6  -4   5   41.50    5.70
  -6   4  -5   45.90    5.80
   6  -4   6  108.69    4.30
   6  -4   6   87.69    4.00
   6  -4   6  107.19    9.10
   6  -4   6  106.09    4.40
  -6   4  -6  106.19    8.90
   6  -4   6   85.29    4.00
  -6   4  -6   95.69    9.20
   6  -4   6  101.99    4.40
  -6   4  -7  661.73   24.40
   6  -4   7  619.34   11.50
   6  -4   7  424.06   10.30
   6  -4   7  584.84   11.60
  -6   4  -7  581.14   21.20
   6  -4   7  476.15   10.80
  -6   4  -7  559.34   11.30
   6  -4   8   58.49    3.60
  -6   4  -8   53.69    3.10
   6  -4   9    5.00    1.30
   6  -4   9    4.60    1.40
   6  -4   9    3.80    1.40
  -6   4  -9    5.70    1.30
   6  -4   9    5.90    1.20
   6  -4  10   -0.30    1.00
   6  -4  10    0.60    1.20
   6  -4  10    0.80    1.00
  -6   4 -10    1.30    0.80
   6  -4  11    0.80    0.80
   6  -4  11    1.30    1.00
   6  -4  11    1.50    1.20
  -6   4 -11    2.00    0.90
   6  -4  12    5.30    1.10
   6  -4  12    3.30    0.80
  -6   4 -12    5.80    0.90
  -6   4 -12    4.50    0.90
  -6   4 -12    3.20    1.00
   6  -4  13    3.30    0.80
  -6   4 -13    3.70    0.80
  -6   4 -13    4.80    0.80
  -6   3  13   11.90    1.00
  -6   3  12   35.00    1.80
  -6   3  12   38.40    2.30
   6  -3 -12   36.00    1.90
  -6   3  12   36.10    2.30
  -6   3  12   32.40    2.10
  -6   3  11   38.30    2.80
  -6   3  11   34.40    2.80
   6  -3 -10   25.30    2.10
  -6   3  10   23.70    2.40
   6  -3 -10   20.60    1.80
  -6   3  10   24.80    2.70
   6  -3  -9   47.20    3.00
  -6   3   9   43.60    3.30
   6  -3  -9   44.30    2.70
  -6   3   9   47.90    3.90
   6  -3  -8    1.90    6.40
   6  -3  -8    4.20    1.30
  -6   3   8    4.30    1.40
   6  -3  -8    4.60    1.20
  -6   3   8    3.70    1.50
  -6   3   7    3.30    3.50
   6  -3  -7    1.00    1.00
   6  -3  -7    1.30    1.30
  -6   3   7    1.40    0.90
  -6   3   7    5.80    2.80
   6  -3  -7    2.90    1.00
  -6   3   7    0.70    1.00
  -6   3   6    7.40    1.50
  -6   3   6    3.50    2.10
   6  -3  -6    9.20    1.40
   6  -3  -6    4.00    1.80
   6  -3  -6    2.30    4.40
  -6   3   6    6.40    1.20
  -6   3   6    9.00    3.40
   6  -3  -6    8.50    1.30
  -6   3   6    7.10    1.60
  -6   3   5    5.60    2.70
   6  -3  -5    6.40    2.20
   6  -3  -4   49.80    5.20
  -6   3   4   53.89    6.30
   6  -3  -4   50.59    4.50
  -6   3   3   29.50    4.70
   6  -3  -3   37.50    4.30
   6  -3  -3   38.60    4.00
  -6   3   3   33.60    5.90
  -6   3   2  230.68   13.80
   6  -3  -2  220.68    9.90
   6  -3  -2  208.08    9.40
   6  -3  -1   35.60    3.70
  -6   3   1   35.80    5.60
  -6   3   0   -6.50    9.50
   6  -3   0    2.00    1.90
   6  -3   0    9.80    1.90
  -6   3   0    1.20    2.20
   6  -3   0    1.80    1.00
  -6   3  -1    8.30   10.00
   6  -3   1   14.10    2.00
  -6   3  -1   15.90    3.60
   6  -3   1    7.10    1.90
   6  -3   1   17.30    3.40
  -6   3  -2   41.70    5.20
   6  -3   2   46.80    5.50
  -6   3  -2   60.09    4.80
  -6   3  -3   15.20    3.40
   6  -3   3   13.80    3.40
  -6   3  -3   20.60    6.00
  -6   3  -3   23.60    3.70
   6  -3   3   14.30    3.00
  -6   3  -4   15.10    4.30
   6  -3   4   37.90    5.20
  -6   3  -4   78.39    7.20
  -6   3  -4  111.39    9.20
   6  -3   4   84.99    7.20
  -6   3  -5  171.58   11.20
  -6   3  -5  180.28   11.10
  -6   3  -6   33.10    5.00
   6  -3   6   42.70    2.60
   6  -3   6   32.00    2.50
   6  -3   6   26.10    2.10
   6  -3   6   40.40    5.90
   6  -3   6   38.50    2.60
   6  -3   6   34.20    2.30
  -6   3  -6   37.80    5.30
   6  -3   6   39.60    2.70
   6  -3   6   36.90    2.70
  -6   3  -6   39.00    2.70
  -6   3  -6   27.80    6.70
  -6   3  -7   59.19    6.70
   6  -3   7   84.59    4.00
   6  -3   7   66.39    3.70
   6  -3   7   79.39    3.90
   6  -3   7   55.19    3.10
  -6   3  -7   69.19    7.10
   6  -3   7   76.09    4.00
  -6   3  -7   72.49    3.70
   6  -3   8    0.60    1.20
   6  -3   8    0.10    0.80
  -6   3  -8    1.00    0.90
   6  -3   8    1.20    1.00
  -6   3  -8    0.20    0.60
   6  -3   9    0.40    1.20
   6  -3   9    0.00    0.90
  -6   3  -9    0.10    0.80
   6  -3   9   -0.20    0.80
   6  -3  10   39.90    2.90
   6  -3  10   35.90    2.30
  -6   3 -10   34.30    2.30
  -6   3 -10   39.60    2.80
   6  -3  10   33.20    2.70
   6  -3  11    2.10    1.10
   6  -3  11    1.70    1.20
   6  -3  11    0.50    0.70
  -6   3 -11    1.50    0.80
  -6   3 -11    1.60    0.90
  -6   3 -11    0.10    1.20
  -6   3 -12   10.30    1.10
  -6   3 -12    8.90    0.90
   6  -3  12   10.30    1.30
  -6   3 -12   11.40    1.30
  -6   2  13  109.49    2.90
  -6   2  13  116.29    3.60
  -6   2  12    0.60    0.90
   6  -2 -12    1.40    0.70
  -6   2  12    0.90    1.00
  -6   2  12    1.50    0.90
   6  -2 -12   -1.30    5.50
   6  -2 -11   85.29    3.50
  -6   2  11   86.29    4.30
  -6   2  11   84.59    4.50
   6  -2 -10    9.70    1.40
  -6   2  10    9.80    1.80
  -6   2  10   10.10    2.00
   6  -2  -9   28.70    2.30
  -6   2   9   25.80    2.60
  -6   2   9   27.70    3.00
   6  -2  -8    1.80    1.00
  -6   2   8    2.20    1.10
  -6   2   8    1.90    1.20
   6  -2  -7    5.00    1.10
   6  -2  -7    2.30    1.50
  -6   2   7    4.20    1.20
  -6   2   7    3.80    2.00
  -6   2   7    4.50    1.40
  -6   2   6   98.59    8.70
   6  -2  -6   92.09    7.30
  -6   2   6  113.09   10.10
  -6   2   6  100.69    8.80
  -6   2   5    2.00    2.00
   6  -2  -5    2.40    1.50
   6  -2  -4  244.38   11.20
  -6   2   4  242.88   14.90
  -6   2   4  266.67   13.00
   6  -2  -4  231.68    9.30
  -6   2   3   79.59    8.10
   6  -2  -3   78.69    6.10
  -6   2   3   86.99    7.10
   6  -2  -3   70.69    5.20
  -6   2   2  254.87   12.00
   6  -2  -2  225.78    9.80
   6  -2  -2  215.48   11.20
  -6   2   2  228.38   13.10
   6  -2  -1  668.53   16.80
  -6   2   1  680.63   21.70
   6  -2  -1  682.83   20.80
  -6   2   1  714.63   22.50
   6  -2   0   30.60    3.20
   6  -2   0   25.50    4.10
  -6   2   0   26.00    4.10
   6  -2   1   69.19    6.70
  -6   2  -1   62.19    6.00
  -6   2  -2    3.00    1.90
   6  -2   2    4.10    2.40
  -6   2  -2    3.70    1.80
   6  -2   3  175.08   10.70
  -6   2  -3  163.98    9.70
   6  -2   4  120.69    8.90
  -6   2  -4  107.39    8.20
  -6   2  -4  138.09   10.90
  -6   2  -5   59.69    6.30
  -6   2  -5   60.69    6.40
  -6   2  -5   59.69    8.90
   6  -2   6   51.59    2.90
   6  -2   6   44.40    2.90
   6  -2   6   44.40    2.80
   6  -2   6   51.19    2.90
   6  -2   6   37.70    2.60
  -6   2  -6   45.50    5.80
   6  -2   6   50.89    3.20
  -6   2  -6   45.10    2.90
  -6   2  -6   37.20    8.40
   6  -2   7   44.80    3.00
   6  -2   7   47.10    3.20
  -6   2  -7   49.50    3.20
   6  -2   7   51.49    3.00
   6  -2   7   39.20    2.80
  -6   2  -7   44.70    2.90
  -6   2  -7   35.40    8.10
   6  -2   8   81.19    4.20
  -6   2  -8   79.29    4.00
   6  -2   8   73.59    3.80
   6  -2   8   71.89    3.40
   6  -2   9    5.60    1.50
   6  -2   9    3.70    1.10
  -6   2  -9    4.30    1.00
   6  -2   9    3.90    1.30
  -6   2  -9    4.40    1.40
   6  -2   9   -0.30    1.20
   6  -2  10    8.10    1.60
   6  -2  10   11.30    1.70
  -6   2 -10   10.70    1.50
   6  -2  10   10.80    1.20
  -6   2 -10    9.20    1.70
   6  -2  10    6.80    1.20
   6  -2  11    0.30    0.90
  -6   2 -11    0.50    0.70
  -6   2 -11    0.10    0.80
  -6   2 -11   -0.90    1.00
  -6   2 -12   13.50    1.30
  -6   2 -12   12.50    1.10
  -6   2 -12   14.10    1.30
   6  -2  12   13.20    1.30
  -6   1  14   12.40    1.10
   6  -1 -14   78.19    1.80
  -6   1  13   44.60    2.20
  -6   1  13   41.40    2.50
  -6   1  12   84.99    4.00
   6  -1 -12   76.09    2.90
  -6   1  12   79.99    3.90
  -6   1  12   76.19    3.80
  -6   1  11   28.70    2.70
   6  -1 -11   27.80    2.00
  -6   1  11   30.30    2.70
  -6   1  11   28.40    2.80
   6  -1 -10    0.70    0.80
  -6   1  10   -0.10    1.20
  -6   1  10    0.10    1.30
   6  -1  -9  171.28    5.30
  -6   1   9  177.28    6.50
  -6   1   9  181.78    7.40
  -6   1   8    6.50    2.70
   6  -1  -8    1.30    0.80
   6  -1  -8    3.20    1.70
  -6   1   8    1.40    1.00
  -6   1   8    3.20    2.60
   6  -1  -8    1.00    1.20
  -6   1   8    2.40    1.30
  -6   1   7   11.80    3.90
   6  -1  -7   12.80    1.40
   6  -1  -7    9.70    2.60
  -6   1   7   12.40    1.60
  -6   1   7    8.30    2.90
  -6   1   7   13.70    1.90
   6  -1  -6  467.55   16.90
  -6   1   6  499.05   18.50
   6  -1  -5   65.09    6.00
  -6   1   5   74.49    6.60
   6  -1  -4   52.19    5.20
  -6   1   4   51.99    6.70
   6  -1  -4   45.80    3.90
  -6   1   4   53.69    5.20
   6  -1  -4   49.30    5.20
  -6   1   3   31.40    3.80
   6  -1  -3   29.00    3.90
  -6   1   3   27.70    4.80
   6  -1  -3   30.10    4.20
  -6   1   2   -1.10    2.20
  -6   1   2    0.80    1.90
   6  -1  -2    0.80    1.20
   6  -1  -2    0.40    1.80
  -6   1   1    5.00    2.30
   6  -1  -1    1.70    1.80
   6  -1  -1    2.10    1.30
   6  -1  -1    2.50    1.20
   6  -1   0  124.49    6.30
   6  -1   0  119.99    7.00
   6  -1   0  132.19    9.30
  -6   1   0  121.89    8.20
   6  -1   1  199.98    9.80
   6  -1   1  202.88   11.70
  -6   1  -1  197.98   10.20
   6  -1   2   15.10    3.60
   6  -1   2   17.10    3.20
  -6   1  -2   16.80    3.30
   6  -1   3    1.10    2.00
  -6   1  -3    1.00    1.40
   6  -1   3   -1.10    1.80
  -6   1  -3    3.20    2.90
   6  -1   4  105.99    8.60
   6  -1   4  109.59    9.00
  -6   1  -4  100.59    7.80
  -6   1  -4  123.29   11.10
  -6   1  -5   66.09    3.50
   6  -1   5   61.49    3.20
   6  -1   5   56.99    3.10
   6  -1   5   51.59    2.80
  -6   1  -5   62.89    6.50
   6  -1   5   67.89    3.50
  -6   1  -5   59.49    3.30
   6  -1   6  375.16    8.70
  -6   1  -6  360.96    8.80
   6  -1   6  343.77    8.40
   6  -1   6  320.27    8.10
  -6   1  -6  370.86   16.10
   6  -1   6  379.06    9.00
  -6   1  -6  333.17    8.30
   6  -1   7    0.10    1.00
  -6   1  -7    1.20    0.90
   6  -1   7    1.00    1.00
   6  -1   7    0.70    1.10
  -6   1  -7    0.20    0.70
   6  -1   8   17.00    2.00
   6  -1   8   18.70    2.10
   6  -1   8   17.00    1.70
  -6   1  -8   18.50    2.00
  -6   1  -8   22.70    2.40
   6  -1   8   16.30    1.50
   6  -1   9    6.50    1.40
  -6   1  -9    5.90    1.20
   6  -1   9    5.30    1.50
  -6   1  -9    6.40    1.40
  -6   1  -9    4.30    1.40
   6  -1   9    6.70    1.10
   6  -1  10    5.60    1.30
   6  -1  10    6.00    1.00
   6  -1  10    6.10    1.20
  -6   1 -10    6.50    1.30
  -6   1 -10    6.60    1.40
  -6   1 -10    6.40    1.40
   6  -1  11    0.90    0.90
  -6   1 -11   -0.40    1.10
  -6   1 -11    1.20    0.80
  -6   1 -11    2.00    1.00
   6  -1  12    2.00    0.70
  -6   1 -12    2.40    0.80
  -6   1 -12    1.10    0.50
  -6   1 -12    2.60    0.70
  -6   0  14   -0.50    0.70
  -6   0  14    0.40    0.70
  -6   0  13    0.00    0.90
  -6   0  13   -1.70    1.10
   6   0 -13    2.90    4.60
  -6   0  12    2.00    1.20
  -6   0  12    1.70    0.70
  -6   0  12    2.30    1.10
  -6   0  11   33.40    2.90
  -6   0  11   29.70    2.80
  -6   0  11   31.20    3.00
  -6   0  10  177.48    6.50
  -6   0  10  162.08    6.30
  -6   0  10  174.18    7.30
  -6   0   9   46.10    3.30
  -6   0   9   46.50    3.70
  -6   0   8  135.59   11.40
  -6   0   8  126.79    5.20
  -6   0   8  134.29    6.10
   6   0  -7   74.09    6.70
  -6   0   7   82.79    8.80
  -6   0   7   84.09    3.90
  -6   0   7   95.79    4.90
   6   0  -6   29.60    4.20
  -6   0   6   34.50    5.60
  -6   0   6   35.00    4.60
  -6   0   5   20.90    3.20
   6   0  -5   15.70    3.00
   6   0  -5   12.70    2.90
  -6   0   5   19.50    4.30
  -6   0   4   15.00    2.60
  -6   0   4   14.60    3.50
   6   0  -4   14.40    3.00
   6   0  -4   13.40    2.90
  -6   0   4   13.00    3.30
  -6   0   3    5.30    2.40
   6   0  -3    5.70    2.10
   6   0  -3    5.90    2.40
  -6   0   3    5.10    2.50
   6   0  -2  173.58    8.80
   6   0  -2  148.89    6.90
   6   0  -2  163.08   10.00
  -6   0   2  161.38    9.60
   6   0  -1  114.59    6.80
  -6   0   1   98.59    7.10
   6   0  -1  103.59    6.30
   6   0  -1  118.29    8.80
  -6   0   1  114.49    7.70
  -6   0   0    7.40    2.30
  -6   0   0    4.30    1.50
   6   0   0    6.80    1.70
   6   0   0    6.40    2.00
   6   0   0    8.40    3.10
  -6   0   0   11.10    2.70
  -6   0  -1    1.10    1.40
   6   0   1    0.30    1.50
  -6   0  -1    0.40    1.30
   6   0   1   -0.40    1.70
  -6   0  -1   -0.70    2.10
  -6   0  -2    1.20    1.40
   6   0   2    1.00    1.70
   6   0   2    1.50    1.90
  -6   0  -2    3.30    1.70
  -6   0  -2    4.90    2.80
   6   0   3   39.70    5.30
   6   0   3   43.70    6.10
  -6   0  -3   41.20    4.50
  -6   0  -3   40.70    4.90
   6   0   4   20.10    4.10
  -6   0  -4   18.80    3.60
   6   0   4   21.60    4.40
  -6   0  -5  117.79    4.80
   6   0   5  114.99    4.60
   6   0   5  134.09   10.50
   6   0   5   94.29    4.00
   6   0   5  113.29    4.50
  -6   0  -5  121.59    8.80
   6   0   5  119.39    4.60
  -6   0  -5  111.89    4.60
   6   0   5   88.89    3.60
   6   0   6   19.60    2.00
  -6   0  -6   18.40    2.10
   6   0   6   19.80    2.10
  -6   0  -6   18.50    2.10
   6   0   6   18.10    2.10
  -6   0  -6   16.30    1.80
   6   0   6   14.20    1.60
   6   0   7  126.49    4.90
  -6   0  -7  118.79    4.90
   6   0   7  130.29    5.20
  -6   0  -7  124.49    5.30
  -6   0  -7  104.99    4.40
   6   0   7  124.29    3.90
   6   0   7  106.29    4.30
   6   0   8  103.09    4.30
  -6   0  -8   90.79    4.10
   6   0   8  100.89    4.60
  -6   0  -8   94.39    4.60
  -6   0  -8  104.89    4.80
   6   0   8  102.39    3.50
   6   0   9   17.70    1.80
   6   0   9   18.50    2.10
  -6   0  -9   17.90    2.10
  -6   0  -9   19.00    2.00
  -6   0  -9   17.80    2.10
   6   0   9   20.40    1.60
   6   0   9   16.50    1.60
  -6   0 -10   25.80    2.20
   6   0  10   20.80    1.60
  -6   0 -10   24.90    2.10
   6   0  10   25.40    2.10
  -6   0 -10   26.50    2.20
   6   0  10   23.40    1.60
   6   0  11    0.40    0.70
   6   0  11    0.60    0.40
  -6   0 -11    0.50    0.80
  -6   0 -11    0.20    0.60
  -6   0 -11   -0.20    0.70
  -6   0 -11    0.30    0.50
  -6  -1  14   11.10    1.20
  -6  -1  14   12.20    1.30
  -6  -1  13   72.39    2.80
  -6  -1  13   66.89    3.20
  -6  -1  13   68.99    3.40
  -6  -1  12    6.70    1.10
  -6  -1  12    6.30    1.50
  -6  -1  12    6.80    1.50
  -6  -1  11   53.29    2.90
  -6  -1  11   52.59    3.60
  -6  -1  11   49.40    3.80
  -6  -1  10   30.10    2.30
  -6  -1  10   14.20    1.70
  -6  -1  10   23.50    2.40
  -6  -1  10   21.60    2.40
  -6  -1  10   21.40    2.70
  -6  -1   9   19.00    2.20
  -6  -1   9   19.30    2.20
  -6  -1   9   18.40    2.50
  -6  -1   8  174.68    5.20
  -6  -1   8  201.38    6.40
  -6  -1   8  194.78   13.80
  -6  -1   8  176.68    6.10
  -6  -1   8  199.78    7.50
  -6  -1   7   60.39    7.60
   6   1  -7   45.80    5.40
   6   1  -6  284.87   13.50
  -6  -1   6  339.67   17.10
  -6  -1   5    3.40    2.60
   6   1  -5    3.00    1.60
   6   1  -5    2.30    1.80
   6   1  -4    5.40    2.00
  -6  -1   4    5.00    2.40
  -6  -1   4    6.00    2.20
   6   1  -4    3.10    1.80
  -6  -1   3    1.20    1.50
   6   1  -3    1.80    1.60
  -6  -1   3   -0.40    1.30
   6   1  -3    2.30    1.80
  -6  -1   2    0.40    1.30
  -6  -1   2    1.40    1.70
   6   1  -2    0.80    1.40
   6   1  -2    1.80    1.30
   6   1  -2    0.50    1.90
  -6  -1   1  171.88    9.20
   6   1  -1  158.98   10.70
   6   1  -1  152.38    8.30
   6   1  -1  168.98    8.60
  -6  -1   1  164.08    9.60
  -6  -1   1  156.48    8.60
   6   1   0   64.09    4.80
  -6  -1   0   52.79    4.70
   6   1   0   55.39    6.80
   6   1   0   55.89    5.50
  -6  -1   0   59.79    5.80
  -6  -1   0   56.89    5.20
  -6  -1   0   77.29    6.60
   6   1   1  126.09   10.30
   6   1   1  116.69    8.40
  -6  -1  -1  117.99    8.00
  -6  -1  -1  110.89    7.30
   6   1   2   43.70    6.40
   6   1   2   41.40    5.50
  -6  -1  -2   48.50    5.10
  -6  -1  -2   37.40    4.30
   6   1   3  180.88   12.70
   6   1   3  176.38   11.60
  -6  -1  -3  167.18    9.60
  -6  -1  -3  158.18    9.20
  -6  -1  -4   25.40    2.30
   6   1   4   27.00    2.20
   6   1   4   27.00    5.00
  -6  -1  -4   27.40    2.30
   6   1   4   24.80    2.10
   6   1   4   26.50    5.20
   6   1   4   28.50    2.30
  -6  -1  -4   29.10    4.20
   6   1   4   27.80    2.10
  -6  -1  -4   24.10    2.20
   6   1   4   24.40    2.00
   6   1   5   71.49    3.40
  -6  -1  -5   75.29    3.90
  -6  -1  -5   72.19    3.90
   6   1   5   77.49    8.30
   6   1   5   62.79    3.00
   6   1   5   67.29    3.50
   6   1   5   77.19    3.90
  -6  -1  -5   71.79    3.80
  -6  -1  -5   75.79    6.80
   6   1   5   78.09    3.70
  -6  -1  -5   66.49    3.60
   6   1   5   78.49    3.90
   6   1   5   66.99    3.40
   6   1   6   59.49    3.20
  -6  -1  -6   57.19    3.40
   6   1   6   60.79    3.60
  -6  -1  -6   54.89    3.60
   6   1   6   60.29    3.60
  -6  -1  -6   62.79    3.70
  -6  -1  -6   52.49    3.20
   6   1   6   49.90    3.00
   6   1   7    3.50    1.10
   6   1   7    3.60    1.10
  -6  -1  -7    3.50    1.10
   6   1   7    4.10    1.40
  -6  -1  -7    3.10    1.40
  -6  -1  -7    3.60    1.40
   6   1   8    0.30    0.90
   6   1   8    1.40    0.80
   6   1   8    0.10    1.20
  -6  -1  -8    0.40    0.70
  -6  -1  -8    0.40    1.00
  -6  -1  -8    0.70    1.10
   6   1   8    2.10    0.90
  -6  -1  -8    0.80    1.30
   6   1   9    0.60    0.70
  -6  -1  -9   -0.10    1.10
  -6  -1  -9   -1.70    5.50
  -6  -1  -9    0.80    1.00
   6   1   9    0.60    0.70
  -6  -1  -9    2.90    1.50
   6   1  10    6.80    1.10
  -6  -1 -10    8.40    1.30
   6   1  10    7.20    1.00
  -6  -1 -10    9.30    1.30
  -6  -1 -10    8.10    1.40
  -6  -1 -10    8.10    1.20
  -6  -1 -10    8.20    4.10
   6   1  10    6.90    0.90
  -6  -1 -11    8.50    1.00
  -6  -1 -11    6.30    0.80
  -6  -2  14   20.50    1.60
  -6  -2  14   23.40    1.70
  -6  -2  13   46.20    2.70
  -6  -2  13   48.70    2.90
  -6  -2  12   -0.90    1.50
  -6  -2  12    2.90    1.20
  -6  -2  12    2.70    0.80
  -6  -2  12    1.40    1.20
  -6  -2  11   32.20    2.70
  -6  -2  11   39.10    2.50
  -6  -2  11   36.00    2.80
  -6  -2  11   41.40    3.10
  -6  -2  11   35.10    3.20
  -6  -2  10  182.08    5.60
  -6  -2  10  147.29    5.20
  -6  -2  10  162.28    6.20
  -6  -2  10  169.28    5.30
  -6  -2  10  149.69    6.80
  -6  -2   9    5.50    1.40
  -6  -2   9    4.10    1.50
  -6  -2   9    3.80    1.20
  -6  -2   8  575.14   10.30
  -6  -2   8  536.95   10.50
  -6  -2   8  584.54   11.20
  -6  -2   8  582.64   11.80
  -6  -2   8  562.54   23.80
  -6  -2   8  558.44   13.20
   6   2  -7   26.70    4.30
  -6  -2   7   31.70    2.40
  -6  -2   7   34.00    5.80
   6   2  -6   26.10    4.40
  -6  -2   6   32.50    5.50
  -6  -2   5    4.50    2.40
   6   2  -5    2.00    1.90
   6   2  -5    2.90    1.80
  -6  -2   4   17.50    3.60
   6   2  -4   12.80    3.10
   6   2  -4   15.10    3.40
   6   2  -3   53.59    5.60
  -6  -2   3   56.49    6.00
   6   2  -3   51.19    6.00
   6   2  -3   46.30    4.20
   6   2  -2  102.09    7.30
  -6  -2   2  107.19    7.70
   6   2  -2  100.59    8.80
   6   2  -2   92.19    6.60
  -6  -2   2  101.39    7.90
   6   2  -1  180.48    9.30
  -6  -2   1  164.58    8.90
   6   2  -1  172.18   12.00
   6   2  -1  154.78    9.10
  -6  -2   1  167.48   10.00
  -6  -2   1  153.68    8.10
   6   2   0  140.39   11.10
   6   2   0  136.39    9.10
  -6  -2   0  142.09    9.10
  -6  -2   0  123.49    7.20
   6   2   1   51.19    7.20
   6   2   1   52.09    6.00
  -6  -2  -1   54.19    5.70
  -6  -2  -1   50.19    4.70
  -6  -2  -1   69.29    7.20
  -6  -2  -2   -1.20    1.30
   6   2   2    0.00    1.80
  -6  -2  -2    2.00    1.70
  -6  -2  -2   -0.80    3.10
   6   2   2    1.70    2.00
   6   2   3    7.80    3.50
  -6  -2  -3    9.20    1.50
   6   2   3    8.20    1.30
  -6  -2  -3    7.60    1.40
   6   2   3    8.90    1.40
  -6  -2  -3    5.70    2.00
   6   2   3    5.70    2.80
   6   2   3    8.40    1.40
  -6  -2  -3    8.20    2.30
  -6  -2  -3    8.00    1.50
   6   2   3    8.60    1.30
   6   2   4   16.10    2.00
  -6  -2  -4   12.50    2.80
  -6  -2  -4   14.10    1.90
   6   2   4   15.40    4.30
  -6  -2  -4   14.00    1.80
   6   2   4   12.50    1.50
   6   2   4   15.30    1.80
   6   2   4   12.00    3.80
   6   2   4   14.00    1.90
  -6  -2  -4   14.50    1.90
  -6  -2  -4   12.40    1.70
   6   2   4   12.00    1.60
  -6  -2  -5   31.50    2.70
   6   2   5   31.30    2.30
  -6  -2  -5   33.90    2.80
   6   2   5   31.70    2.30
   6   2   5   32.30    2.60
   6   2   5   38.70    2.90
  -6  -2  -5   35.80    2.80
   6   2   5   35.60    2.80
   6   2   5   34.10    2.60
  -6  -2  -6   31.80    2.60
   6   2   6   38.70    3.00
  -6  -2  -6   36.20    2.90
   6   2   6   38.90    3.00
  -6  -2  -6   35.50    2.90
  -6  -2  -6   35.60    2.90
   6   2   6   31.40    2.50
   6   2   7    0.30    0.90
  -6  -2  -7   -0.80    1.20
  -6  -2  -7   -0.20    0.70
   6   2   7   -0.50    1.30
  -6  -2  -7   -0.20    1.10
  -6  -2  -7    0.50    1.10
  -6  -2  -7    1.10    1.30
   6   2   8    4.40    1.20
  -6  -2  -8    4.80    1.30
  -6  -2  -8    3.20    0.80
   6   2   8    4.00    1.40
  -6  -2  -8    3.60    1.20
   6   2   8    3.60    1.00
  -6  -2  -8    5.60    1.70
   6   2   9    0.90    0.80
   6   2   9    0.80    0.70
  -6  -2  -9    0.70    1.00
  -6  -2  -9    0.40    0.90
   6   2   9    0.50    0.70
  -6  -2  -9    1.60    1.10
  -6  -2  -9    0.80    0.90
   6   2  10    0.20    0.50
   6   2  10    0.80    0.60
  -6  -2 -10    0.70    0.70
   6   2  10   -0.30    0.50
  -6  -2 -10   -0.50    0.70
  -6  -2 -10    0.00    0.50
  -6  -3  15   15.70    1.10
  -6  -3  14    0.80    2.60
   6   3 -14   10.80    2.50
  -6  -3  14   40.30    2.30
  -6  -3  14   40.30    2.20
  -6  -3  13   -0.70    1.40
  -6  -3  13    0.10    0.90
  -6  -3  12    1.90    1.80
  -6  -3  12    0.20    1.40
  -6  -3  12    3.90    1.30
  -6  -3  11   33.30    2.90
  -6  -3  11   41.90    3.00
  -6  -3  11   43.00    3.10
  -6  -3  11   35.90    3.20
  -6  -3  10   40.40    3.00
  -6  -3  10   51.49    2.90
  -6  -3  10   45.90    3.10
  -6  -3  10   49.40    3.40
  -6  -3  10   43.00    3.70
  -6  -3  10   37.60    3.00
  -6  -3   9   -0.90    1.20
  -6  -3   9    0.60    0.90
  -6  -3   9    1.70    1.30
  -6  -3   9   -0.10    1.00
   6   3  -8  158.38   10.60
  -6  -3   8  173.18    5.50
  -6  -3   8  211.68    6.30
  -6  -3   8  207.78    6.60
  -6  -3   8  199.68   14.10
  -6  -3   8  186.48    7.40
  -6  -3   8  181.78    7.00
   6   3  -7   60.29    6.60
  -6  -3   7   78.39    3.60
  -6  -3   7   75.99    3.70
  -6  -3   7   66.49    8.00
  -6  -3   7   66.79    4.20
   6   3  -6   82.69    7.70
  -6  -3   6   93.39    9.00
  -6  -3   5   20.90    4.50
   6   3  -5   19.90    3.90
   6   3  -5   18.70    3.60
   6   3  -4  192.38   11.20
  -6  -3   4  217.18   12.40
   6   3  -4  183.88   11.50
   6   3  -3   29.40    4.60
   6   3  -3   29.30    5.00
  -6  -3   3   33.10    4.70
   6   3  -3   25.60    3.60
  -6  -3   3   29.30    4.80
   6   3  -2  433.36   19.30
  -6  -3   2  454.15   16.00
   6   3  -2  388.36   15.00
  -6  -3   2  438.06   17.00
   6   3  -2  453.95   16.70
   6   3  -1   57.99    7.50
   6   3  -1   58.19    6.20
  -6  -3   1   73.29    6.90
   6   3  -1   67.99    6.30
   6   3   0    8.90    3.60
   6   3   0    4.70    2.30
  -6  -3   0    5.20    2.20
  -6  -3   0    3.80    2.20
   6   3   1   81.89    9.40
   6   3   1   81.59    7.90
  -6  -3  -1   93.19    7.70
  -6  -3  -1   99.99    8.60
  -6  -3  -2   19.00    2.50
   6   3   2   26.30    5.70
  -6  -3  -2   23.50    1.90
  -6  -3  -2   24.60    2.30
   6   3   2   31.50    2.30
  -6  -3  -2   25.00    2.20
   6   3   2   26.20    2.00
   6   3   2   27.30    2.20
   6   3   2   23.80    4.50
  -6  -3  -2   24.60    4.10
  -6  -3  -2   27.20    2.10
  -6  -3  -2   24.00    2.30
   6   3   2   26.90    2.20
  -6  -3  -3   73.09    3.40
  -6  -3  -3   61.89    4.30
  -6  -3  -3   72.19    4.00
   6   3   3   72.19    3.60
   6   3   3   79.49    8.40
  -6  -3  -3   74.69    3.90
  -6  -3  -3   77.79    3.80
   6   3   3   73.09    3.40
   6   3   3   73.99    3.50
  -6  -3  -3   66.89    6.60
  -6  -3  -3   75.89    3.80
   6   3   3   81.59    3.80
   6   3   3   82.49    9.50
   6   3   3   73.49    3.60
  -6  -3  -4    1.00    0.80
   6   3   4    1.10    0.90
   6   3   4    0.50    0.80
   6   3   4   -0.30    1.00
  -6  -3  -4    0.40    0.80
  -6  -3  -4    0.90    0.90
   6   3   4    0.80    0.80
   6   3   4    1.70    1.20
  -6  -3  -4    1.00    1.00
   6   3   4    0.70    1.00
  -6  -3  -4    0.90    1.10
  -6  -3  -5   56.79    4.00
  -6  -3  -5   54.59    3.20
  -6  -3  -5   45.60    3.20
   6   3   5   49.80    3.00
   6   3   5   55.99    3.50
  -6  -3  -5   47.00    3.30
  -6  -3  -5   49.50    3.30
   6   3   5   54.89    3.40
  -6  -3  -5   57.09    3.60
   6   3   5   56.69    3.40
   6   3   6    7.30    1.50
  -6  -3  -6    7.50    1.40
  -6  -3  -6    7.30    1.40
   6   3   6    6.90    1.30
   6   3   6    7.80    1.70
  -6  -3  -6    8.30    1.50
  -6  -3  -6    8.90    1.80
  -6  -3  -6    8.00    1.60
   6   3   7    0.80    1.00
  -6  -3  -7    2.10    1.10
   6   3   7    2.90    1.00
   6   3   7    0.80    1.20
  -6  -3  -7    1.30    1.10
   6   3   7    1.20    0.90
  -6  -3  -7    3.10    1.50
   6   3   8    3.30    1.00
  -6  -3  -8    3.20    1.20
  -6  -3  -8    2.60    1.10
   6   3   8    1.40    0.80
  -6  -3  -8    4.10    1.30
  -6  -3  -8    3.40    1.20
   6   3   9    2.90    0.80
  -6  -3  -9    4.40    0.90
   6   3   9    4.70    0.80
   6   3   9    3.30    0.60
  -6  -3  -9    3.10    0.90
  -6  -3  -9    3.80    0.90
  -6  -4  15   15.30    1.20
  -6  -4  14   24.40    1.80
  -6  -4  14   19.20    1.50
  -6  -4  13   84.49    3.70
  -6  -4  13   80.39    3.50
  -6  -4  12    7.60    1.60
  -6  -4  12    8.10    1.50
  -6  -4  11   94.99    4.50
  -6  -4  11  110.19    4.70
  -6  -4  11  105.09    4.70
  -6  -4  10   95.19    4.40
  -6  -4  10   99.49    4.50
  -6  -4  10   93.39    4.50
  -6  -4  10   84.59    4.70
  -6  -4   9  201.58    6.40
  -6  -4   9  237.28    7.00
  -6  -4   9  234.28    7.20
  -6  -4   9  208.18    7.80
  -6  -4   8    2.30    1.10
  -6  -4   8    2.50    1.10
   6   4  -8    2.40    2.00
  -6  -4   8    1.40    1.00
  -6  -4   7   29.90    2.40
  -6  -4   7   28.00    2.30
  -6  -4   7   27.80    5.30
  -6  -4   7   20.00    2.50
   6   4  -7   21.50    4.20
  -6  -4   7   25.20    2.70
  -6  -4   6  223.58    6.10
  -6  -4   6  212.68    6.20
  -6  -4   6  209.18   13.60
  -6  -4   5   -2.00    1.90
   6   4  -5    0.30    1.50
   6   4  -5   -3.10    2.20
  -6  -4   4  171.08   11.00
   6   4  -4  144.39   10.70
  -6  -4   4  155.18   10.50
   6   4  -4  163.88   11.10
   6   4  -3   62.89    7.60
  -6  -4   3   61.49    6.20
   6   4  -3   61.39    6.10
  -6  -4   3   55.79    6.30
   6   4  -3   61.69    6.80
   6   4  -2  283.47   16.50
   6   4  -2  261.97   13.40
  -6  -4   2  285.07   14.10
   6   4  -2  298.57   13.90
   6   4  -1  296.87   17.70
   6   4  -1  250.27   13.80
  -6  -4   1  275.97   14.00
   6   4  -1  284.37   13.10
   6   4   0    7.30    3.50
  -6  -4   0    4.60    1.50
   6   4   0    4.80    2.20
  -6  -4   0    5.20    1.20
   6   4   0    7.10    1.20
  -6  -4   0    4.40    2.00
  -6  -4   0    6.00    1.20
  -6  -4   0    6.40    1.10
  -6  -4   0    6.00    1.50
  -6  -4   0    1.40    3.20
   6   4   1   89.39    3.90
  -6  -4  -1   77.49    5.00
   6   4   1   94.79   10.80
  -6  -4  -1   78.99    3.60
  -6  -4  -1   81.29    3.80
  -6  -4  -1   81.39    4.20
   6   4   1   92.99    3.70
   6   4   1   85.29    3.50
   6   4   1   80.09    8.30
   6   4   1   92.89    3.80
  -6  -4  -1   82.59    7.60
  -6  -4  -1   90.19    3.90
  -6  -4  -1   84.49    3.90
  -6  -4  -1   77.39    4.10
  -6  -4  -1  106.59    8.90
  -6  -4  -2    0.10    1.20
   6   4   2    0.00    0.90
  -6  -4  -2    1.00    0.90
   6   4   2    3.00    2.60
  -6  -4  -2    1.70    0.80
  -6  -4  -2   -0.30    0.90
   6   4   2    0.90    0.90
  -6  -4  -2    0.20    0.80
   6   4   2    0.80    0.80
   6   4   2    0.20    0.90
   6   4   2   -1.30    2.00
   6   4   2    0.40    0.80
  -6  -4  -2   -0.70    1.00
  -6  -4  -2   -3.00    2.00
  -6  -4  -2   -0.10    0.70
  -6  -4  -3   19.50    2.70
  -6  -4  -3   11.60    2.20
  -6  -4  -3   13.60    1.90
   6   4   3   15.40    1.80
  -6  -4  -3   15.70    1.80
   6   4   3   15.20    1.70
   6   4   3   16.40    1.80
  -6  -4  -3   15.70    2.00
   6   4   3   15.60    1.80
  -6  -4  -3   15.90    1.90
   6   4   3   14.30    1.80
  -6  -4  -4   16.10    2.40
  -6  -4  -4   14.70    1.80
  -6  -4  -4   13.20    1.90
   6   4   4   12.90    1.70
   6   4   4   14.30    1.80
  -6  -4  -4   13.20    1.80
   6   4   4   14.00    1.80
   6   4   4   14.00    1.80
  -6  -4  -4   13.10    2.00
   6   4   4   13.50    1.80
   6   4   4   14.20    1.60
   6   4   4   15.70    2.00
   6   4   5    2.40    1.20
  -6  -4  -5    2.80    1.10
  -6  -4  -5    2.10    1.10
   6   4   5    2.90    1.00
   6   4   5    1.50    1.10
  -6  -4  -5    1.80    1.00
  -6  -4  -5    3.60    1.40
  -6  -4  -5    2.00    1.10
   6   4   6    3.20    1.20
  -6  -4  -6    3.00    1.10
   6   4   6    1.50    0.90
   6   4   6    2.50    1.10
  -6  -4  -6    1.90    1.10
  -6  -4  -6    4.20    1.40
  -6  -4  -6    1.30    1.00
  -6  -4  -6    2.50    1.30
   6   4   7   -0.30    1.00
  -6  -4  -7   -0.80    0.90
   6   4   7    0.20    0.70
  -6  -4  -7   -0.20    0.80
   6   4   7    0.80    0.90
  -6  -4  -7   -0.10    1.00
  -6  -4  -7   -0.30    1.10
  -6  -4  -8   14.90    1.30
   6   4   8   11.90    1.30
  -6  -4  -8   11.80    1.40
  -6  -4  -8   13.50    1.50
   6   4   8   12.10    1.30
   6   4   9    1.80    0.70
  -6  -4  -9    2.00    0.60
  -6  -5  15    9.40    1.00
  -6  -5  14   -6.70    2.40
  -6  -5  14   -0.10    0.50
  -6  -5  13   46.70    2.80
  -6  -5  13   37.10    2.30
  -6  -5  12    4.10    1.60
  -6  -5  12    0.30    0.80
  -6  -5  11    1.60    1.50
  -6  -5  11    0.20    0.90
  -6  -5  10    8.60    1.80
  -6  -5  10    5.80    1.30
  -6  -5  10    6.00    1.60
  -6  -5   9  208.38    6.10
  -6  -5   9  195.18    6.30
  -6  -5   9  179.68    6.20
  -6  -5   9  159.98    6.00
  -6  -5   9  174.18    7.20
  -6  -5   8    2.50    1.30
  -6  -5   8    1.10    0.90
  -6  -5   8    1.30    1.00
  -6  -5   8    2.20    1.40
  -6  -5   7    3.70    1.30
  -6  -5   7    1.30    1.50
  -6  -5   7    1.90    0.90
  -6  -5   7    2.00    2.10
   6   5  -7    0.90    1.80
  -6  -5   7    1.10    1.00
  -6  -5   7    1.40    1.10
   6   5  -6   53.39    6.80
  -6  -5   6   65.59    3.40
  -6  -5   6   67.19    5.00
  -6  -5   6   63.49    3.40
  -6  -5   6   65.79    7.60
  -6  -5   6   56.39    3.50
  -6  -5   6   56.89    3.90
  -6  -5   5    2.20    0.90
  -6  -5   5    1.80    1.30
  -6  -5   5    1.50    0.80
  -6  -5   5   -0.30    1.30
   6   5  -5    2.20    1.80
   6   5  -5    1.80    2.00
  -6  -5   5    2.00    1.00
  -6  -5   5    0.50    1.10
   6   5  -4   61.69    7.50
  -6  -5   4   71.69    3.50
  -6  -5   4   77.79    7.50
   6   5  -4   57.19    6.00
  -6  -5   4   56.59    4.30
  -6  -5   4   69.59    3.30
  -6  -5   4   66.19    7.10
  -6  -5   4   67.89    3.70
   6   5  -4   67.59    7.50
  -6  -5   3   75.19    4.90
   6   5  -3   76.69    8.80
  -6  -5   3   80.09    3.50
  -6  -5   3   80.89    3.70
  -6  -5   3   80.29    7.10
   6   5  -3   73.49    7.20
  -6  -5   3   74.59    7.50
  -6  -5   3   77.59    4.00
   6   5  -3   70.69    7.30
  -6  -5   2   81.89    4.70
  -6  -5   2   78.89    3.50
  -6  -5   2   73.09    5.00
   6   5  -2   77.49    9.20
   6   5  -2   67.79    7.20
  -6  -5   2   67.99    3.40
  -6  -5   2   67.79    7.20
  -6  -5   2   69.49    3.70
   6   5  -2   60.79    6.70
  -6  -5   1  174.28    7.10
  -6  -5   1  135.89    7.00
   6   5  -1  155.18   13.40
  -6  -5   1  148.89    5.00
  -6  -5   1  147.29    5.70
   6   5  -1  157.78    4.70
   6   5  -1  153.68   11.30
   6   5  -1  179.18    5.10
  -6  -5   1  153.08   10.70
  -6  -5   1  173.68    7.70
  -6  -5   1  146.39    5.50
  -6  -5   0   99.99    5.50
   6   5   0   98.39   11.00
  -6  -5   0   83.79    3.80
  -6  -5   0   91.69    5.50
  -6  -5   0   83.49    4.40
   6   5   0   84.89    3.40
   6   5   0   87.79    8.70
   6   5   0   95.59    3.80
  -6  -5   0   86.29    8.00
  -6  -5   0   71.49    5.20
  -6  -5   0   89.29    4.20
  -6  -5   0  104.99    4.50
  -6  -5  -1   -0.80    1.60
  -6  -5  -1    2.60    1.20
  -6  -5  -1    1.60    1.30
  -6  -5  -1    1.00    0.90
   6   5   1    0.80    1.00
   6   5   1    2.00    1.10
   6   5   1    0.60    0.80
  -6  -5  -1    1.40    1.10
   6   5   1    0.60    0.90
  -6  -5  -1    1.00    0.80
  -6  -5  -1   -2.60    2.20
  -6  -5  -1    1.30    1.00
  -6  -5  -1    1.20    1.00
  -6  -5  -1    0.10    0.90
  -6  -5  -2   -0.30    1.40
  -6  -5  -2   -0.10    1.00
   6   5   2   -0.60    0.90
   6   5   2    0.20    1.00
   6   5   2   -0.10    0.90
   6   5   2   -0.70    0.90
  -6  -5  -2    0.20    0.90
  -6  -5  -2   -0.40    0.90
  -6  -5  -2    0.40    1.00
  -6  -5  -2    1.00    1.00
  -6  -5  -2   -0.40    1.40
   6   5   2    0.00    1.00
  -6  -5  -3   19.00    2.60
  -6  -5  -3   19.00    2.10
   6   5   3   18.80    1.90
   6   5   3   19.80    2.10
  -6  -5  -3   20.40    2.00
   6   5   3   17.20    1.90
   6   5   3   19.70    2.00
  -6  -5  -3   19.10    2.10
   6   5   3   18.30    1.90
   6   5   3   18.20    1.90
  -6  -5  -3   21.60    2.40
   6   5   3   18.80    2.10
   6   5   4    3.10    1.20
   6   5   4    3.30    1.30
   6   5   4    2.70    1.00
  -6  -5  -4    3.50    1.10
   6   5   4    2.00    1.10
  -6  -5  -4    2.90    1.40
  -6  -5  -4    2.70    1.20
   6   5   4    2.80    1.00
  -6  -5  -4    2.30    1.30
  -6  -5  -5   28.50    2.60
  -6  -5  -5   37.80    2.30
   6   5   5   32.80    2.40
   6   5   5   33.50    2.40
  -6  -5  -5   32.80    2.40
  -6  -5  -5   34.30    2.70
   6   5   5   33.50    2.20
  -6  -5  -5   42.70    3.10
   6   5   5   35.50    2.70
   6   5   6    1.10    1.00
  -6  -5  -6   -0.50    0.80
  -6  -5  -6    2.90    0.90
   6   5   6    0.70    0.80
  -6  -5  -6   -0.30    1.10
  -6  -5  -6    1.00    1.10
  -6  -5  -7   12.60    1.10
   6   5   7   13.20    1.20
   6   5   7   13.00    1.40
  -6  -5  -7   11.10    1.30
  -6  -5  -7   13.50    1.50
   6   5   7   12.70    1.40
   6   5   8   -0.10    0.60
   6   5   8    0.20    0.60
  -6  -5  -8   -0.20    0.60
  -6  -6  14    9.40    0.90
  -6  -6  14   13.00    2.20
  -6  -6  13    0.00    0.60
  -6  -6  13    0.60    2.50
  -6  -6  12   11.80    1.50
  -6  -6  12   12.60    3.00
  -6  -6  11   64.09    4.20
  -6  -6  11   69.79    3.80
  -6  -6  10   11.60    1.60
  -6  -6  10   10.30    2.00
  -6  -6   9    5.20    2.60
  -6  -6   9    6.20    1.90
  -6  -6   9    1.00    0.90
  -6  -6   9    0.90    1.00
  -6  -6   9    1.20    1.20
  -6  -6   8    2.40    1.70
  -6  -6   8    2.10    2.00
  -6  -6   8    0.70    0.80
  -6  -6   8    0.50    0.90
  -6  -6   8    0.80    1.10
  -6  -6   7    1.10    0.90
  -6  -6   7    3.60    1.40
  -6  -6   7   -1.10    1.70
  -6  -6   7    0.70    0.90
  -6  -6   7    1.60    1.40
  -6  -6   7    0.30    1.20
  -6  -6   6    0.40    1.30
  -6  -6   6    0.20    0.90
  -6  -6   6    0.50    1.50
  -6  -6   6    0.00    0.80
   6   6  -6   -1.70    2.00
  -6  -6   6    0.90    0.90
  -6  -6   6    0.70    1.30
  -6  -6   5  112.09    6.30
  -6  -6   5  135.09    4.90
  -6  -6   5  126.99    4.80
  -6  -6   5  140.89   10.40
   6   6  -5  116.09   10.20
  -6  -6   5  117.39    9.40
  -6  -6   5  120.69    5.20
  -6  -6   5  144.79    7.60
  -6  -6   5  143.09    6.00
   6   6  -5  135.99   11.10
  -6  -6   4  199.88    7.30
  -6  -6   4  169.48    7.90
   6   6  -4  175.48   13.10
  -6  -6   4  191.28    5.90
  -6  -6   4  211.38    9.10
  -6  -6   4  215.88   12.30
   6   6  -4  163.68   10.80
  -6  -6   4  182.38   11.90
  -6  -6   4  186.08    6.50
  -6  -6   4  206.48    6.90
   6   6  -4  179.28   12.20
  -6  -6   4  190.48    6.00
   6   6  -3    3.00    2.80
  -6  -6   3    0.20    1.30
  -6  -6   3    0.10    1.10
  -6  -6   3    0.10    0.80
  -6  -6   3   -0.30    0.80
  -6  -6   3    0.60    1.50
   6   6  -3   -2.40    1.90
   6   6  -3    1.80    2.40
  -6  -6   3    1.40    2.30
  -6  -6   3    0.60    1.00
  -6  -6   3    0.40    0.80
  -6  -6   2  118.59    6.00
  -6  -6   2   88.99    5.90
  -6  -6   2  109.39    4.40
   6   6  -2  105.69   11.20
  -6  -6   2  111.29    6.50
   6   6  -2   96.59    9.00
   6   6  -2  126.99    4.30
  -6  -6   2  105.99    9.10
  -6  -6   2  106.09    4.80
   6   6  -2  100.69    8.60
  -6  -6   1    1.50    1.70
  -6  -6   1    0.30    0.80
  -6  -6   1   -0.50    1.40
   6   6  -1   -0.20    0.80
  -6  -6   1    0.50    1.10
  -6  -6   1    1.20    1.20
  -6  -6   0  103.59    5.80
  -6  -6   0   92.59    4.10
  -6  -6   0   97.19    5.70
   6   6   0   96.49    3.80
  -6  -6   0   99.29    4.20
  -6  -6   0   97.99    4.60
  -6  -6   0  110.49    4.80
   6   6   0  103.39    4.40
  -6  -6  -1   61.39    4.50
  -6  -6  -1   54.69    3.20
  -6  -6  -1   62.19    3.50
  -6  -6  -1   55.19    4.10
   6   6   1   64.09    3.40
   6   6   1   59.09    3.00
  -6  -6  -1   57.19    3.30
  -6  -6  -1   56.99    3.50
  -6  -6  -1   64.79    3.90
   6   6   1   62.29    3.50
  -6  -6  -2   39.80    3.70
  -6  -6  -2   40.70    2.90
   6   6   2   39.40    2.90
   6   6   2   40.60    2.80
   6   6   2   38.10    2.40
  -6  -6  -2   38.00    2.80
  -6  -6  -2   43.40    3.20
   6   6   2   37.10    2.50
   6   6   2   40.10    2.80
  -6  -6  -3    2.50    1.50
  -6  -6  -3    1.10    1.10
   6   6   3    1.20    1.10
   6   6   3    1.90    1.10
   6   6   3    1.80    1.20
  -6  -6  -3    0.30    1.10
   6   6   3    2.30    1.00
  -6  -6  -3    2.20    1.30
  -6  -6  -3    1.50    1.10
   6   6   4    3.30    1.20
   6   6   4    2.80    1.20
  -6  -6  -4    1.90    1.20
  -6  -6  -4    1.40    1.00
   6   6   4    3.40    1.00
  -6  -6  -4    3.60    1.30
   6   6   5   13.90    1.60
  -6  -6  -5   11.80    1.50
   6   6   5   11.40    1.30
  -6  -6  -5   13.10    1.70
   6   6   5   13.40    1.70
  -6  -6  -5   10.90    1.60
   6   6   6   15.90    1.40
   6   6   6   20.70    1.60
  -6  -6  -6   19.30    1.70
   6   6   6   20.40    1.70
  -6  -6  -7    9.90    0.90
   6   6   7   11.10    1.10
  -6  -6  -7   10.00    1.00
   6   6   7   10.50    1.10
  -6  -7  14    3.20    1.90
  -6  -7  14    6.80    1.00
  -6  -7  13  174.28    5.00
  -6  -7  13  174.88    4.60
  -6  -7  13  161.28    4.00
  -6  -7  12   28.80    3.40
  -6  -7  12   33.80    2.60
  -6  -7  12   23.70    1.80
  -6  -7  11   54.89    3.00
  -6  -7  11   58.79    4.30
  -6  -7  10   18.20    3.20
  -6  -7  10   20.70    2.00
  -6  -7   9   57.59    3.90
  -6  -7   9   71.59    3.80
  -6  -7   9   65.09    3.50
  -6  -7   9   58.49    3.30
  -6  -7   9   65.99    4.40
  -6  -7   8    7.60    1.40
  -6  -7   8    4.00    1.80
  -6  -7   8    2.30    2.50
  -6  -7   8    8.20    1.50
  -6  -7   8    7.50    1.80
  -6  -7   7   26.90    3.50
  -6  -7   7   26.50    2.50
  -6  -7   7   25.90    2.30
  -6  -7   7   26.90    2.40
  -6  -7   7   27.50    2.90
  -6  -7   6   35.60    2.60
  -6  -7   6   35.60    2.70
  -6  -7   6   36.70    4.10
  -6  -7   6   33.10    2.50
  -6  -7   6   34.70    2.80
  -6  -7   6   38.80    3.30
  -6  -7   5    4.80    1.50
  -6  -7   5    3.70    1.20
  -6  -7   5    4.50    1.20
  -6  -7   5    5.70    1.30
  -6  -7   5    4.00    1.30
  -6  -7   5    7.40    2.40
  -6  -7   5    5.20    1.50
  -6  -7   4   93.09    4.10
  -6  -7   4   95.59    6.40
  -6  -7   4   92.39    4.60
  -6  -7   4   97.09    4.60
  -6  -7   4   96.79    5.40
  -6  -7   3   80.49    3.90
  -6  -7   3   85.19    6.00
   6   7  -3   89.79    3.50
  -6  -7   3   78.49    4.30
  -6  -7   3   81.19    5.10
  -6  -7   2   24.90    3.00
  -6  -7   2   22.80    2.20
  -6  -7   2   26.70    3.50
   6   7  -2   26.60    2.00
  -6  -7   2   25.20    2.50
  -6  -7   1   12.80    2.30
  -6  -7   1   12.20    1.70
  -6  -7   1   12.80    2.50
   6   7  -1   12.30    1.40
  -6  -7   1   12.30    1.90
  -6  -7   1   14.10    1.80
   6   7  -1   15.70    1.90
  -6  -7   0   25.80    3.10
  -6  -7   0   24.60    2.30
  -6  -7   0   22.20    2.10
  -6  -7   0   21.80    2.80
   6   7   0   28.10    2.40
  -6  -7   0   22.60    2.40
  -6  -7   0   24.90    2.40
   6   7   0   27.50    2.40
  -6  -7  -1   43.50    3.00
   6   7   1   42.00    3.00
   6   7   1   44.60    2.90
  -6  -7  -1   46.50    3.20
   6   7   1   44.00    2.90
  -6  -7  -1   38.20    3.60
  -6  -7  -2   26.20    2.30
   6   7   2   27.70    2.40
   6   7   2   28.00    2.30
   6   7   2   27.20    2.20
  -6  -7  -2   26.50    2.50
   6   7   2   23.40    2.00
  -6  -7  -2   23.70    2.50
   6   7   2   26.00    2.30
  -6  -7  -2   23.90    2.90
   6   7   3   45.30    2.80
   6   7   3   41.60    2.50
  -6  -7  -3   43.20    2.90
  -6  -7  -3   38.00    2.70
   6   7   3   41.70    2.70
  -6  -7  -3   37.30    3.10
   6   7   4    4.90    1.20
  -6  -7  -4    4.10    1.20
  -6  -7  -4    4.80    0.90
   6   7   4    4.70    1.10
   6   7   4    4.50    1.00
  -6  -7  -4    4.60    1.20
  -6  -7  -5    9.40    1.00
   6   7   5    8.10    1.10
   6   7   5    8.90    1.20
  -6  -7  -5   11.30    1.40
   6   7   5    7.60    1.10
   6   7   6    4.90    0.80
   6   7   6    4.40    0.70
   6   7   6    4.10    0.80
  -6  -7  -6    4.20    0.80
  -6  -8  14   33.60    1.40
  -6  -8  13   82.49    3.40
  -6  -8  13   87.69    3.00
  -6  -8  12   14.30    1.20
  -6  -8  12   14.10    1.60
  -6  -8  11   75.79    3.40
  -6  -8  11   66.49    2.90
  -6  -8  10   28.40    2.10
  -6  -8  10   32.40    2.50
  -6  -8   9   81.79    3.80
  -6  -8   9   75.09    3.50
  -6  -8   8  101.59    4.20
  -6  -8   8   95.19    4.10
  -6  -8   8   94.69    4.20
  -6  -8   7   -0.10    1.10
  -6  -8   7    0.30    0.70
  -6  -8   7    0.20    0.80
  -6  -8   7    0.60    0.90
  -6  -8   6   87.79    4.00
  -6  -8   6   92.39    6.30
  -6  -8   6   84.59    4.10
  -6  -8   6   84.19    4.30
  -6  -8   5   25.10    2.20
  -6  -8   5   23.30    3.60
  -6  -8   5   21.80    2.20
  -6  -8   5   21.70    2.30
  -6  -8   4   18.50    2.00
  -6  -8   4   16.60    3.20
  -6  -8   4   16.20    2.10
  -6  -8   4   16.40    2.10
  -6  -8   4   19.00    2.60
   6   8  -3  217.98    6.00
  -6  -8   3  199.98    6.10
  -6  -8   3  197.58    9.10
  -6  -8   3  202.88    6.90
  -6  -8   3  205.58    8.10
  -6  -8   2    0.60    1.50
  -6  -8   2    0.30    1.00
  -6  -8   2   -0.10    0.90
   6   8  -2    0.10    0.80
  -6  -8   2    0.00    1.00
  -6  -8   1   33.10    2.50
  -6  -8   1   38.30    2.80
   6   8  -1   38.40    2.70
  -6  -8   1   36.90    2.70
  -6  -8   1   34.90    3.50
   6   8  -1   36.90    2.60
  -6  -8   0   30.60    2.50
   6   8   0   32.70    2.50
   6   8   0   32.80    2.40
  -6  -8   0   31.30    2.50
  -6  -8   0   28.30    3.00
   6   8   0   30.60    2.30
  -6  -8   0   31.20    3.30
  -6  -8  -1   -0.10    1.30
   6   8   1    0.70    0.90
  -6  -8  -1    0.30    1.00
   6   8   1   -0.40    1.10
   6   8   1   -0.50    1.10
   6   8   1   -0.40    1.00
  -6  -8  -1    0.40    0.90
  -6  -8  -1   -0.50    1.10
   6   8   1    1.30    0.80
  -6  -8  -2    3.00    1.30
   6   8   2    2.70    1.00
   6   8   2    4.00    1.20
   6   8   2    2.40    1.10
   6   8   2    3.80    1.10
  -6  -8  -2    4.20    1.20
  -6  -8  -2    3.70    1.20
   6   8   2    2.80    0.80
   6   8   3   -0.20    0.70
   6   8   3   -0.10    0.80
   6   8   3   -0.30    0.80
  -6  -8  -3    0.40    0.80
  -6  -8  -3    0.40    0.60
   6   8   4    2.30    0.70
   6   8   4    3.10    0.80
  -6  -8  -4    2.80    0.80
   6   8   5    4.20    0.70
  -6  -8  -5    4.70    0.70
  -6  -9  13    5.80    0.80
  -6  -9  13    7.80    1.00
  -6  -9  12   12.20    1.10
  -6  -9  12   11.50    1.20
  -6  -9  12   13.80    1.50
  -6  -9  11   68.59    3.00
  -6  -9  11   69.39    2.90
  -6  -9  10    1.00    1.20
  -6  -9   9  110.99    4.10
  -6  -9   8    2.80    1.00
  -6  -9   8    5.00    1.10
  -6  -9   8    5.30    1.10
  -6  -9   7  124.19    4.50
  -6  -9   7  121.49    4.60
  -6  -9   7  122.49    4.80
  -6  -9   6    0.40    0.90
  -6  -9   6    0.20    0.80
  -6  -9   6    0.90    0.90
  -6  -9   6    0.50    1.10
   6   9  -5   29.90    2.00
  -6  -9   5   27.30    2.20
  -6  -9   5   27.60    2.40
  -6  -9   5   30.00    2.60
  -6  -9   5   27.40    2.80
  -6  -9   4  103.79    4.20
  -6  -9   4  111.39    4.80
  -6  -9   4  115.59    4.90
  -6  -9   4  109.89    5.60
   6   9  -4  109.79    3.90
  -6  -9   3    4.60    1.20
   6   9  -3    5.40    1.10
  -6  -9   3    5.00    1.20
  -6  -9   3    7.80    1.60
  -6  -9   3    5.70    1.50
  -6  -9   3    8.50    2.00
  -6  -9   2   21.90    2.10
  -6  -9   2   19.00    1.90
   6   9  -2   21.30    1.90
   6   9  -2   21.70    1.90
  -6  -9   2   20.30    2.20
  -6  -9   2   21.10    2.70
   6   9  -2   19.50    1.70
  -6  -9   1   -0.10    0.90
  -6  -9   1    0.60    0.70
   6   9  -1   -0.10    0.90
   6   9  -1   -0.60    0.80
   6   9  -1    0.00    0.90
  -6  -9   1   -0.40    0.80
  -6  -9   1    0.20    1.30
   6   9   0   19.40    1.80
   6   9   0   17.40    1.70
   6   9   0   20.30    1.90
  -6  -9   0   16.90    1.70
  -6  -9   0   20.70    2.30
   6   9   0   20.00    1.70
  -6  -9   0   20.90    1.90
   6   9   0   18.80    1.60
   6   9   1   44.00    2.40
   6   9   1   46.00    2.40
  -6  -9  -1   43.20    2.40
   6   9   1   41.90    2.20
  -6  -9  -1   46.80    2.80
   6   9   1   40.80    2.10
   6   9   2    4.30    0.80
   6   9   2    5.40    1.00
   6   9   2    5.00    1.00
  -6  -9  -2    5.30    1.00
  -6  -9  -2    5.80    1.00
   6   9   2    4.00    0.70
  -6  -9  -3   28.30    1.50
   6   9   3   33.10    1.70
   6   9   3   34.10    1.60
  -6  -9  -3   28.40    1.60
   6   9   3   27.20    1.30
  -6 -10  12    0.70    0.70
  -6 -10  12    1.50    0.50
  -6 -10  11   33.50    1.70
  -6 -10  11   33.50    1.90
  -6 -10  11   32.40    2.00
  -6 -10  10   18.70    1.50
  -6 -10  10   19.80    1.80
  -6 -10   9   14.50    1.60
  -6 -10   9   15.10    1.40
  -6 -10   9   13.50    1.20
  -6 -10   8   63.89    2.90
  -6 -10   8   63.39    2.90
  -6 -10   7   14.60    1.50
  -6 -10   7   15.80    1.70
  -6 -10   6   48.60    2.40
  -6 -10   6   51.19    2.70
  -6 -10   6   54.19    3.00
  -6 -10   6   56.09    3.40
  -6 -10   5    2.70    0.90
  -6 -10   5    1.50    0.90
  -6 -10   5    1.90    1.00
  -6 -10   5    3.20    1.30
  -6 -10   4   14.20    1.50
  -6 -10   4   12.40    1.40
   6  10  -4   12.10    1.30
   6  10  -4   14.90    1.50
  -6 -10   4   15.30    1.80
  -6 -10   4   15.30    2.10
  -6 -10   3    2.80    0.90
  -6 -10   3    2.90    0.90
   6  10  -3    3.90    0.90
   6  10  -3    3.40    1.00
  -6 -10   3    4.50    1.20
  -6 -10   3    4.00    1.40
  -6 -10   2   11.40    1.30
   6  10  -2   10.20    1.20
   6  10  -2   10.80    1.30
  -6 -10   2   10.50    1.50
   6  10  -2   11.70    1.50
  -6 -10   2   11.20    1.80
   6  10  -2    8.90    1.00
   6  10  -1    0.20    0.50
  -6 -10   1    0.40    0.70
   6  10  -1    0.30    0.70
   6  10  -1   -0.30    0.70
  -6 -10   1    0.60    0.80
   6  10  -1    1.10    0.80
  -6 -10   1    0.00    1.00
   6  10  -1    1.10    0.70
   6  10   0    0.00    0.40
  -6 -10   0    0.80    0.50
   6  10   0    0.30    0.70
  -6 -10   0   -0.20    0.70
   6  10   0   -0.10    0.70
  -6 -10   0    0.20    0.80
   6  10   0    0.50    0.60
   6  10   1   10.60    1.00
  -6 -10  -1    9.60    1.00
   6  10   1   11.20    1.10
   6  10   1    9.20    0.80
  -6 -10  -1   11.20    1.10
  -6 -11  11   12.30    1.00
  -6 -11  11   12.70    1.10
  -6 -11  10   15.50    1.20
  -6 -11  10   15.70    1.40
  -6 -11  10   14.20    1.00
  -6 -11   9    1.80    0.70
  -6 -11   9    1.30    0.50
  -6 -11   9    1.00    0.50
  -6 -11   8   35.70    1.80
  -6 -11   8   33.40    1.70
  -6 -11   8   34.90    1.80
  -6 -11   7    0.80    0.50
  -6 -11   7    0.80    0.50
  -6 -11   7    0.30    0.60
   6  11  -7    1.40    0.60
  -6 -11   7    1.40    0.70
  -6 -11   6    0.00    0.50
  -6 -11   6   -0.10    0.60
   6  11  -6    0.60    0.60
  -6 -11   6    0.20    0.70
  -6 -11   6   -0.60    0.70
  -6 -11   5    4.00    0.80
  -6 -11   5    3.80    0.80
   6  11  -5    2.90    0.70
  -6 -11   5    4.20    1.00
  -6 -11   5    4.30    1.10
  -6 -11   4    0.20    0.60
   6  11  -4    0.10    0.50
  -6 -11   4   -0.60    0.80
   6  11  -4    0.20    0.60
  -6 -11   4   -0.40    0.90
   6  11  -3    3.60    0.60
  -6 -11   3    3.40    0.70
   6  11  -3    2.60    0.60
  -6 -11   3    3.10    0.90
   6  11  -3    3.10    0.80
  -6 -11   3    3.90    1.10
   6  11  -2    6.30    0.70
  -6 -11   2    6.20    1.00
   6  11  -2    8.10    1.00
  -6 -11   2    9.20    1.30
   6  11  -2    7.10    0.90
  -6 -11   1    2.50    0.70
   6  11  -1    2.30    0.70
  -6 -11   1    3.20    0.80
   6  11  -1    2.70    0.60
  -6 -12   8    6.20    0.80
  -6 -12   6   17.80    1.10
  -6 -12   5   17.20    1.10
   6  12  -5   17.30    1.10
   6  12  -4   13.50    0.90
   7 -13   0    1.70    0.60
  -7  13   0    1.30    0.90
  -7  13   0    1.20    0.80
   7 -13   1   30.90    1.60
  -7  13  -1   34.10    2.30
  -7  13  -1   30.70    1.70
  -7  13  -1   36.40    2.10
   7 -13   1   29.70    1.50
   7 -13   2    2.60    0.80
  -7  13  -2    2.10    1.00
  -7  13  -2    3.50    1.00
  -7  13  -2    2.20    1.00
  -7  13  -2    1.70    0.60
   7 -13   2    2.60    0.70
   7 -13   3    9.70    1.10
  -7  13  -3   11.70    1.50
  -7  13  -3   13.70    1.60
  -7  13  -3   11.50    1.50
   7 -13   3   10.40    1.10
   7 -13   4    0.30    0.70
  -7  13  -4    0.60    0.70
  -7  13  -4    0.80    0.90
  -7  13  -4    0.70    0.80
   7 -13   5    1.80    0.80
  -7  13  -5    2.80    1.00
  -7  13  -5    2.00    0.80
   7 -13   6    2.80    0.80
  -7  13  -6    2.90    0.90
  -7  13  -7    7.60    0.90
   7 -13   7    7.80    0.90
  -7  13  -7    9.20    1.20
   7 -13   8   13.20    1.00
  -7  12   2   12.80    1.50
   7 -12  -2   10.00    1.00
  -7  12   1    1.30    0.80
  -7  12   1    2.10    1.10
   7 -12  -1    1.20    0.50
  -7  12   1    1.60    0.90
  -7  12   1    2.40    1.00
   7 -12  -1    2.80    0.80
   7 -12   0   11.00    1.10
  -7  12   0   13.40    1.60
  -7  12   0   13.30    1.50
  -7  12   0   14.20    2.00
  -7  12   0   13.60    1.70
  -7  12   0   13.40    1.70
   7 -12   0   13.00    1.30
  -7  12  -1    0.70    1.20
   7 -12   1    0.50    0.60
  -7  12  -1    0.80    0.80
  -7  12  -1    0.90    0.90
  -7  12  -1    1.60    1.20
  -7  12  -1    0.80    1.00
   7 -12   1    1.00    0.90
  -7  12  -2   13.60    2.00
   7 -12   2   10.40    1.30
  -7  12  -2   12.60    1.90
  -7  12  -2   13.20    1.70
   7 -12   2   11.70    1.40
   7 -12   3   64.09    2.50
  -7  12  -3   87.69    4.30
  -7  12  -3   85.29    4.10
  -7  12  -3   73.49    3.40
   7 -12   3   71.69    3.20
   7 -12   3   67.29    3.10
   7 -12   4   14.80    1.70
  -7  12  -4   15.40    1.90
   7 -12   4   16.00    1.30
  -7  12  -4   17.70    2.00
   7 -12   4   14.90    1.60
   7 -12   5   60.99    3.00
  -7  12  -5   64.79    3.10
  -7  12  -5   68.59    3.30
   7 -12   5   61.79    2.50
   7 -12   6    7.40    1.20
  -7  12  -6    7.60    1.40
   7 -12   6    5.10    0.70
  -7  12  -6    7.10    1.10
   7 -12   7   10.50    1.30
  -7  12  -7   10.00    1.30
   7 -12   7    9.50    0.90
   7 -12   8    8.40    1.10
  -7  12  -8   11.30    1.40
   7 -12   9    1.60    0.70
  -7  12  -9    1.60    0.60
   7 -11  -4   52.39    2.10
  -7  11   4   57.99    2.50
  -7  11   3   27.70    2.20
   7 -11  -3   20.50    1.20
  -7  11   3   28.10    2.20
   7 -11  -3   26.40    1.70
  -7  11   3   27.00    2.00
  -7  11   2   79.39    4.10
   7 -11  -2   67.59    2.60
  -7  11   2   81.79    3.90
  -7  11   2   75.89    3.60
  -7  11   2   83.09    4.00
   7 -11  -2   78.69    3.20
  -7  11   2   84.49    3.60
   7 -11  -1    4.70    0.80
  -7  11   1    6.10    1.70
   7 -11  -1    3.80    0.90
  -7  11   1    6.10    1.50
  -7  11   1    6.30    1.30
  -7  11   1    4.20    1.30
  -7  11   1    6.20    1.60
   7 -11  -1    6.20    1.30
  -7  11   0   -1.00    1.50
   7 -11   0   -0.10    0.70
  -7  11   0    0.00    1.00
   7 -11   0    0.50    0.70
  -7  11   0    0.10    1.30
  -7  11   0    0.20    1.20
   7 -11   0    0.10    1.00
  -7  11  -1   22.20    2.80
   7 -11   1   17.50    1.70
  -7  11  -1   20.90    2.10
   7 -11   1   18.90    1.60
  -7  11  -1   19.80    2.50
  -7  11  -1   21.40    2.40
   7 -11   1   21.40    2.10
  -7  11  -2    6.50    1.30
  -7  11  -2    6.70    1.90
   7 -11   2    6.00    1.20
  -7  11  -2    5.80    1.80
   7 -11   2    5.80    1.10
  -7  11  -2    6.80    1.60
   7 -11   2    5.90    1.40
  -7  11  -3  158.18    6.40
   7 -11   3  143.09    4.70
   7 -11   3  134.09    4.80
  -7  11  -3  153.88    6.00
  -7  11  -3  148.59    5.40
   7 -11   3  145.99    5.30
   7 -11   4   46.70    2.70
   7 -11   4   43.90    2.90
  -7  11  -4   51.99    3.40
   7 -11   4   46.60    3.00
   7 -11   5   11.00    1.50
  -7  11  -5   10.60    1.70
   7 -11   5    9.30    1.20
  -7  11  -5    9.90    1.60
   7 -11   5    9.90    1.70
   7 -11   5   11.60    1.70
   7 -11   6   15.00    1.30
   7 -11   6   16.90    1.50
   7 -11   6   17.30    1.80
   7 -11   6   16.50    1.90
   7 -11   7    2.70    1.20
  -7  11  -7    2.40    0.90
   7 -11   7    2.20    0.70
   7 -11   7    2.50    0.90
   7 -11   8   64.39    3.00
   7 -11   8   59.59    2.30
   7 -11   9    0.60    0.80
   7 -11   9    0.60    0.50
  -7  11  -9    0.50    0.60
   7 -11  10   12.90    1.20
   7 -11  10    9.20    0.90
   7 -10  -6   30.80    1.40
  -7  10   6   35.60    2.00
   7 -10  -5   17.90    1.40
  -7  10   5   20.30    1.90
   7 -10  -4   28.10    1.50
  -7  10   4   28.90    2.40
   7 -10  -4   30.70    1.80
  -7  10   4   29.50    2.50
   7 -10  -4   30.90    2.10
  -7  10   4   32.10    2.60
   7 -10  -3   45.20    2.20
  -7  10   3   45.30    3.30
   7 -10  -3   37.70    2.00
   7 -10  -3   45.30    2.40
  -7  10   3   44.20    3.30
  -7  10   3   44.80    3.00
  -7  10   3   45.90    3.20
   7 -10  -3   46.60    2.80
   7 -10  -2    0.20    0.70
  -7  10   2    0.50    1.40
   7 -10  -2    0.20    0.60
  -7  10   2    1.10    1.40
  -7  10   2   -0.10    0.80
  -7  10   2    0.00    1.10
  -7  10   2    0.20    1.40
   7 -10  -2    0.80    1.10
   7 -10  -1    0.70    0.80
  -7  10   1    0.30    1.40
   7 -10  -1    0.60    0.70
  -7  10   1   -0.50    1.00
  -7  10   1   -0.10    1.30
  -7  10   1    0.50    1.30
  -7  10   1    0.10    1.40
   7 -10  -1   -0.10    1.10
   7 -10   0    6.40    1.20
  -7  10   0    5.80    2.00
   7 -10   0    4.90    1.10
  -7  10   0    6.00    1.60
  -7  10   0    6.70    1.80
  -7  10   0    4.90    1.20
  -7  10   0    7.00    1.80
   7 -10   0    4.20    1.40
   7 -10   1    7.00    1.30
  -7  10  -1    5.80    1.90
  -7  10  -1    3.40    1.30
   7 -10   1    5.80    1.20
  -7  10  -1    3.80    1.80
  -7  10  -1    5.50    1.70
   7 -10   1    4.60    1.40
   7 -10   2   15.40    1.80
  -7  10  -2   16.90    2.00
   7 -10   2   14.80    1.60
  -7  10  -2   17.90    2.50
   7 -10   2   14.30    1.70
  -7  10  -2   17.00    2.60
  -7  10  -2   14.90    2.10
   7 -10   2   16.20    2.00
  -7  10  -3   23.80    2.80
   7 -10   3   19.50    2.00
   7 -10   3   24.10    2.10
   7 -10   3   21.00    1.90
  -7  10  -3   24.50    2.70
  -7  10  -3   21.20    2.30
   7 -10   3   21.80    2.40
  -7  10  -4   26.00    2.70
   7 -10   4   21.20    2.10
   7 -10   4   22.20    2.30
   7 -10   4   19.50    1.90
  -7  10  -4   25.10    2.60
   7 -10   4   22.40    2.40
   7 -10   5    6.70    1.40
  -7  10  -5    8.10    1.60
   7 -10   5    5.20    1.40
  -7  10  -5    6.90    1.40
   7 -10   5    5.10    1.20
   7 -10   5    5.30    1.50
   7 -10   6   67.19    3.70
   7 -10   6   71.29    3.70
   7 -10   6   65.39    3.30
   7 -10   7   44.30    3.00
   7 -10   7   50.19    3.00
  -7  10  -7   50.79    3.10
   7 -10   7   43.80    2.30
   7 -10   7   49.30    2.90
   7 -10   8    3.10    1.30
   7 -10   8    1.50    0.60
   7 -10   8    2.30    1.00
   7 -10   9    2.60    1.10
   7 -10   9    1.00    0.60
   7 -10   9    2.70    0.70
  -7  10  -9    2.10    0.80
   7 -10  10    0.50    0.80
   7 -10  10   -1.60    0.60
  -7  10 -11   -0.40    0.60
   7 -10  11   -0.80    0.50
   7 -10  11   -1.80    0.70
   7  -9  -7   19.70    1.20
   7  -9  -7   20.10    1.30
  -7   9   7   22.90    1.80
   7  -9  -6    4.00    0.70
   7  -9  -6    5.60    0.90
   7  -9  -6    5.50    1.00
  -7   9   6    6.80    1.40
  -7   9   5    0.80    0.90
   7  -9  -5   -0.40    0.80
  -7   9   5   -0.60    1.20
   7  -9  -5   -0.70    0.70
   7  -9  -5   -0.40    0.90
  -7   9   5    0.40    1.10
  -7   9   4   23.30    2.50
   7  -9  -4   23.50    1.90
  -7   9   4   22.50    2.60
  -7   9   4   22.40    2.20
   7  -9  -4   22.30    1.80
  -7   9   4   22.50    2.40
   7  -9  -4   23.20    2.20
  -7   9   3   17.40    2.50
   7  -9  -3   14.50    1.40
   7  -9  -3   20.30    1.90
  -7   9   3   18.10    2.50
  -7   9   3   19.60    2.40
   7  -9  -3   20.80    1.80
  -7   9   3   19.90    2.40
   7  -9  -3   21.40    2.20
  -7   9   2   25.90    3.00
   7  -9  -2   26.50    2.10
   7  -9  -2   21.60    1.80
   7  -9  -2   27.70    2.30
  -7   9   2   25.20    2.90
  -7   9   2   26.30    2.50
  -7   9   2   26.60    2.80
   7  -9  -2   23.50    1.80
  -7   9   2   24.70    2.70
   7  -9  -2   24.80    2.40
  -7   9   1    0.60    0.90
   7  -9  -1    0.40    0.70
   7  -9  -1   -0.30    0.90
  -7   9   1   -0.40    1.30
   7  -9  -1   -0.10    1.00
  -7   9   1    0.10    1.30
   7  -9  -1   -0.20    0.80
  -7   9   1    0.30    1.20
   7  -9  -1   -0.10    1.10
   7  -9   0   14.50    1.80
   7  -9   0   12.20    1.50
  -7   9   0   12.40    1.70
  -7   9   0   12.00    2.00
   7  -9   0   13.10    1.60
  -7   9   0   12.10    2.20
  -7   9   0   14.10    2.20
   7  -9   0   14.80    2.00
   7  -9   1    8.00    1.30
  -7   9  -1   12.40    1.90
   7  -9   1    9.00    1.50
  -7   9  -1   12.60    2.20
   7  -9   1    7.60    1.30
  -7   9  -1    9.60    1.80
   7  -9   1    9.30    1.70
   7  -9   2   88.19    4.10
  -7   9  -2   90.19    5.30
   7  -9   2   75.29    3.70
   7  -9   2   79.39    3.70
  -7   9  -2   92.49    5.00
  -7   9  -2   87.69    4.60
   7  -9   2   83.49    4.40
  -7   9  -3   94.49    5.30
   7  -9   3   85.89    4.00
   7  -9   3   89.09    4.30
   7  -9   3   84.09    3.90
  -7   9  -3   97.79    5.00
  -7   9  -3   94.69    4.50
   7  -9   3   85.79    4.50
  -7   9  -4  125.69    5.80
   7  -9   4  109.59    4.80
   7  -9   4  122.59    5.00
   7  -9   4  107.49    4.50
  -7   9  -4  123.89    5.40
   7  -9   4  113.19    5.10
   7  -9   5   39.20    3.00
   7  -9   5   42.10    3.10
   7  -9   5   39.20    2.80
  -7   9  -5   42.90    3.00
   7  -9   5   40.90    3.20
   7  -9   6   21.40    2.30
   7  -9   6   20.70    2.30
   7  -9   6   15.90    1.40
  -7   9  -6   25.40    2.50
   7  -9   6   19.10    2.10
   7  -9   7   55.29    3.50
   7  -9   7   54.29    3.40
   7  -9   7   45.70    2.40
  -7   9  -7   59.29    3.40
   7  -9   7   53.49    3.30
   7  -9   8    0.50    1.20
   7  -9   8    0.20    0.70
   7  -9   8    0.40    1.10
   7  -9   9   10.50    1.60
   7  -9   9   10.00    1.20
   7  -9   9   11.60    1.70
   7  -9  10   56.39    2.90
   7  -9  10   45.80    2.20
   7  -9  11    1.20    0.60
  -7   9 -11    2.50    0.70
   7  -9  11    1.00    0.70
   7  -9  12   -0.50    0.50
   7  -8  -8   29.60    1.50
   7  -8  -8   28.20    1.50
  -7   8   8   32.60    2.30
   7  -8  -7    2.90    0.80
   7  -8  -7    3.00    0.90
   7  -8  -7    3.00    0.90
  -7   8   7    2.90    1.30
   7  -8  -6   15.70    1.50
   7  -8  -6   16.20    1.70
  -7   8   6   17.70    2.40
  -7   8   5   14.00    1.90
   7  -8  -5   15.00    1.70
  -7   8   5   12.40    2.10
   7  -8  -5   14.50    1.60
  -7   8   4   68.29    4.30
   7  -8  -4   76.19    3.80
   7  -8  -4   75.89    3.50
  -7   8   4   66.99    4.40
  -7   8   4   69.29    4.10
  -7   8   4   67.49    4.20
  -7   8   3   77.19    4.80
   7  -8  -3   81.69    3.80
  -7   8   3   72.79    4.60
  -7   8   3   72.79    4.00
  -7   8   3   72.19    4.40
  -7   8   3   72.49    4.50
   7  -8  -3   79.59    4.10
   7  -8  -3   81.39    4.00
   7  -8  -2  104.19    4.40
  -7   8   2   92.69    4.60
  -7   8   2   97.59    5.60
   7  -8  -2   99.99    4.50
  -7   8   2   99.99    5.30
  -7   8   2  102.29    5.30
   7  -8  -2  100.19    4.10
  -7   8   2  100.29    5.30
  -7   8   2   97.09    4.90
   7  -8  -2  101.69    4.70
   7  -8  -1   20.30    2.10
  -7   8   1   19.10    2.10
   7  -8  -1   21.50    2.20
  -7   8   1   22.50    2.60
  -7   8   1   22.00    2.60
   7  -8  -1   21.70    2.00
  -7   8   1   20.60    2.50
   7  -8  -1   21.50    2.20
   7  -8   0   -0.90    1.20
   7  -8   0    0.20    0.70
   7  -8   0   -0.50    1.00
  -7   8   0    0.20    1.00
  -7   8   0    0.60    1.20
   7  -8   0    0.40    0.90
  -7   8   0    0.70    1.20
   7  -8   0    0.20    1.00
   7  -8   1    2.40    1.10
  -7   8  -1    1.40    1.30
   7  -8   1    2.10    0.90
  -7   8  -1    2.10    1.20
  -7   8  -1    2.50    1.40
   7  -8   1    2.50    1.10
  -7   8  -1    2.90    1.30
   7  -8   1    3.30    1.20
  -7   8  -2   49.10    3.90
   7  -8   2   38.70    2.60
   7  -8   2   44.60    3.00
   7  -8   2   45.10    2.90
  -7   8  -2   42.60    3.40
  -7   8  -2   44.00    3.20
   7  -8   2   43.90    3.20
  -7   8  -3  239.78    8.30
   7  -8   3  230.48    7.10
   7  -8   3  209.98    6.30
   7  -8   3  214.58    6.60
  -7   8  -3  233.58    7.60
   7  -8   3  224.88    7.20
   7  -8   4   10.90    1.80
   7  -8   4   10.20    1.70
  -7   8  -4   11.30    1.90
   7  -8   4    9.40    1.60
  -7   8  -4    9.70    1.60
   7  -8   4   11.40    1.80
   7  -8   5   54.29    3.40
   7  -8   5   55.49    3.50
   7  -8   5   54.29    3.40
   7  -8   5   56.79    3.70
   7  -8   6    3.90    1.40
   7  -8   6    3.40    1.30
  -7   8  -6    3.60    1.20
   7  -8   6    2.90    1.30
   7  -8   7    2.30    0.90
   7  -8   7    2.00    1.40
   7  -8   7    1.50    1.30
   7  -8   7    1.40    1.20
   7  -8   8   31.30    2.60
   7  -8   8   29.00    2.10
   7  -8   8   25.20    2.00
   7  -8   8   26.70    2.50
  -7   8  -8   33.30    2.60
   7  -8   9   -0.10    0.80
   7  -8   9   -0.50    0.90
   7  -8   9    0.30    1.20
   7  -8   9    0.00    1.10
  -7   8  -9   -0.10    0.80
   7  -8  10   17.10    1.50
   7  -8  10   17.50    1.60
   7  -8  11    6.90    1.00
  -7   8 -11    8.60    1.10
   7  -8  12   -0.70    0.60
   7  -8  12   -1.50    0.60
   7  -7  -9    1.30    0.50
   7  -7  -9    2.30    0.70
  -7   7   9    1.00    0.40
   7  -7  -9    1.00    0.50
  -7   7   9    1.60    0.90
   7  -7  -8   67.89    2.60
   7  -7  -8   66.69    2.80
  -7   7   8   61.19    2.60
  -7   7   8   63.69    3.70
   7  -7  -7    2.30    1.00
   7  -7  -7    0.30    0.90
  -7   7   7    0.40    0.60
  -7   7   7   -0.50    1.20
   7  -7  -6  105.49    4.10
   7  -7  -6  101.59    4.20
  -7   7   6   96.69    5.30
  -7   7   5   15.30    2.10
   7  -7  -5   14.50    1.90
  -7   7   5   12.30    2.20
   7  -7  -5    6.60    1.20
   7  -7  -5   21.20    2.10
   7  -7  -4   10.30    1.60
  -7   7   4    5.70    1.60
   7  -7  -4    8.40    1.50
  -7   7   4    7.10    1.80
  -7   7   4    6.70    1.60
   7  -7  -4    2.50    0.90
  -7   7   4    6.30    1.70
   7  -7  -3    4.10    1.30
  -7   7   3    4.00    1.60
  -7   7   3    3.90    1.60
  -7   7   3    3.70    1.30
  -7   7   3    3.90    1.50
   7  -7  -3    3.50    1.20
  -7   7   3    3.50    1.50
   7  -7  -2   51.69    3.20
  -7   7   2   43.80    3.10
  -7   7   2   47.60    3.80
   7  -7  -2   53.49    3.40
  -7   7   2   46.60    3.60
  -7   7   2   43.50    3.50
  -7   7   2   48.00    3.70
   7  -7  -2   51.49    3.30
   7  -7  -1   20.00    2.10
  -7   7   1   14.60    2.40
   7  -7  -1   19.40    2.10
  -7   7   1   14.70    2.20
  -7   7   1   14.40    2.10
   7  -7  -1   15.30    3.10
  -7   7   1   17.80    1.90
  -7   7   1   17.80    2.30
   7  -7  -1   19.00    2.10
   7  -7   0    1.20    1.00
  -7   7   0    1.20    1.10
   7  -7   0    1.20    0.90
  -7   7   0    0.80    1.00
  -7   7   0    2.90    2.90
   7  -7   0    0.30    1.20
  -7   7   0    0.80    1.10
   7  -7   0    2.00    1.00
   7  -7   0    0.40    1.50
  -7   7   0    1.30    1.10
   7  -7   0    1.30    1.10
   7  -7   1    1.70    1.10
  -7   7  -1    1.30    1.30
  -7   7  -1    1.10    0.90
  -7   7  -1    0.00    2.20
  -7   7  -1    1.90    1.40
   7  -7   1    2.30    1.10
   7  -7   1    0.80    1.70
  -7   7  -1    1.90    1.10
   7  -7   1    1.20    1.00
  -7   7  -2  101.09   10.50
  -7   7  -2  102.09    5.30
   7  -7   2   96.39    4.30
  -7   7  -2  101.99    4.90
   7  -7   2   83.99    7.50
   7  -7   2  101.79    4.50
  -7   7  -2  102.79    4.60
   7  -7   2  102.19    4.60
  -7   7  -3    3.20    1.40
   7  -7   3    2.20    1.10
  -7   7  -3    3.20    1.10
   7  -7   3    1.70    1.10
   7  -7   3    0.20    1.30
   7  -7   3    2.10    1.10
   7  -7   4   54.19    3.20
   7  -7   4   53.59    3.40
   7  -7   4   55.19    3.40
  -7   7  -4   63.09    3.90
   7  -7   4   59.09    3.60
   7  -7   5   18.00    2.20
   7  -7   5   19.20    2.10
   7  -7   5   17.40    1.80
  -7   7  -5   22.70    2.30
   7  -7   5   18.60    2.10
   7  -7   5   18.60    1.80
   7  -7   5   20.70    2.30
   7  -7   6   13.90    2.00
   7  -7   6   15.40    2.00
   7  -7   6   14.50    1.70
  -7   7  -6   18.40    2.10
   7  -7   6   13.40    1.90
   7  -7   6   16.20    1.80
   7  -7   7   52.89    3.60
   7  -7   7   53.19    3.40
   7  -7   7   52.59    3.00
   7  -7   7   45.60    3.20
  -7   7  -7   56.69    3.50
   7  -7   8   25.70    2.40
   7  -7   8   24.60    2.20
   7  -7   8   24.80    2.10
   7  -7   8   21.40    2.40
  -7   7  -8   25.80    2.20
   7  -7   9    0.70    1.10
   7  -7   9    0.00    0.90
   7  -7   9    0.40    1.00
   7  -7   9   -0.20    1.30
  -7   7  -9   -0.30    0.80
   7  -7  10    4.80    1.20
   7  -7  10    4.80    1.20
   7  -7  11    0.70    0.80
   7  -7  11   -0.10    0.80
  -7   7 -11    0.30    0.60
   7  -7  12    3.00    0.70
  -7   7 -12    3.60    0.60
   7  -7  12    2.00    0.50
   7  -7  12    1.40    0.60
   7  -6 -10    1.30    0.60
   7  -6 -10    0.50    0.50
   7  -6 -10    0.20    0.40
  -7   6  10    0.60    0.80
   7  -6  -9   98.99    3.40
  -7   6   9   91.09    3.40
  -7   6   9   99.19    4.50
   7  -6  -8   17.00    1.80
  -7   6   8   13.80    1.60
  -7   6   8   15.20    2.30
   7  -6  -7   63.29    3.40
  -7   6   7   52.39    3.00
  -7   6   7   62.19    4.40
   7  -6  -6   25.00    2.40
  -7   6   6   18.50    2.40
  -7   6   6   24.20    3.00
  -7   6   5   68.99    4.30
   7  -6  -5   76.09    4.00
  -7   6   5   69.09    4.50
  -7   6   4   17.30    2.30
   7  -6  -4   15.90    1.90
  -7   6   4   15.50    2.30
  -7   6   4   13.50    2.10
  -7   6   4   13.20    2.10
  -7   6   3  187.78    7.40
   7  -6  -3  203.48    6.50
  -7   6   3  175.88    6.90
  -7   6   3  177.08    6.40
  -7   6   3  181.18    7.00
   7  -6  -3  185.28    5.20
  -7   6   3  174.18    6.80
   7  -6  -2   21.70    2.20
  -7   6   2   20.10    2.50
   7  -6  -2   22.30    2.20
  -7   6   2   19.20    2.40
  -7   6   2   19.80    2.30
   7  -6  -2   15.60    3.10
  -7   6   2   21.60    5.40
  -7   6   2   21.80    2.50
   7  -6  -2   16.60    1.70
   7  -6  -2   13.10    3.00
  -7   6   2   19.50    2.30
   7  -6  -2   19.80    2.00
  -7   6   1   25.10    2.70
   7  -6  -1   26.00    2.30
  -7   6   1   13.30    4.10
   7  -6  -1   21.00    3.60
   7  -6  -1   25.50    2.30
  -7   6   1   24.00    2.50
  -7   6   1   23.80    5.90
  -7   6   1   22.70    2.50
   7  -6  -1   20.10    3.70
  -7   6   1   23.30    2.40
   7  -6  -1   26.50    2.30
   7  -6   0   68.69    3.50
  -7   6   0   50.29    7.70
  -7   6   0   69.99    4.30
   7  -6   0   48.40    4.90
   7  -6   0   65.79    3.60
  -7   6   0   59.19    3.60
  -7   6   0   67.79    4.00
   7  -6   0   51.39    5.70
  -7   6   0   66.89    3.90
   7  -6   0   67.59    3.50
  -7   6  -1   99.89   10.50
  -7   6  -1  123.29    5.60
   7  -6   1  109.99    4.50
  -7   6  -1  103.59    4.50
  -7   6  -1  116.79    5.10
   7  -6   1  109.39    4.40
   7  -6   1   88.19    7.50
  -7   6  -1  106.29    4.60
   7  -6   1  114.99    4.60
  -7   6  -2    1.50    1.10
  -7   6  -2    0.80    2.20
   7  -6   2    2.60    1.10
  -7   6  -2    2.00    1.10
   7  -6   2    0.40    0.80
   7  -6   2   -0.20    1.20
   7  -6   2    0.30    0.90
   7  -6   3   26.10    2.30
  -7   6  -3   29.10    2.80
  -7   6  -3   25.60    5.40
   7  -6   3   27.20    2.40
  -7   6  -3   30.90    2.50
   7  -6   3   21.30    3.80
   7  -6   3   29.40    2.50
   7  -6   4   -0.60    0.90
   7  -6   4    0.50    0.80
  -7   6  -4    0.10    0.90
  -7   6  -4    2.70    2.20
  -7   6  -4    0.00    0.90
   7  -6   4   -0.30    1.00
   7  -6   4   -1.70    1.60
   7  -6   4   -0.20    0.80
   7  -6   4   -0.50    1.00
   7  -6   5   35.60    2.90
   7  -6   5   36.10    2.70
  -7   6  -5   29.80    5.60
  -7   6  -5   36.60    2.80
   7  -6   5   31.40    2.60
   7  -6   5   34.50    4.80
   7  -6   5   36.40    2.60
   7  -6   6   26.00    2.40
   7  -6   6   23.60    2.20
   7  -6   6   26.60    2.50
   7  -6   6   22.70    2.30
   7  -6   6   23.00    2.20
   7  -6   7   10.60    1.70
   7  -6   7   10.20    1.60
   7  -6   7    9.70    1.80
  -7   6  -7   10.60    1.60
   7  -6   7    8.00    1.50
   7  -6   7    9.50    1.80
   7  -6   8   34.90    2.80
   7  -6   8   32.60    2.60
   7  -6   8   28.10    2.30
   7  -6   8   32.10    2.80
  -7   6  -8   35.60    2.70
   7  -6   9    3.40    1.30
   7  -6   9    3.50    0.90
   7  -6   9    4.40    1.30
   7  -6   9    4.00    1.30
   7  -6   9    4.70    1.50
  -7   6  -9    3.30    1.00
   7  -6  10   20.60    2.00
   7  -6  10   17.50    1.80
   7  -6  10   18.30    1.60
  -7   6 -10   20.40    1.90
   7  -6  11   -0.20    0.60
   7  -6  11   -0.50    1.00
   7  -6  11    0.10    0.80
  -7   6 -11   -0.30    0.60
  -7   6 -11   -0.20    0.70
   7  -6  12    3.00    0.70
  -7   6 -12    3.10    0.60
  -7   6 -12    1.70    0.80
   7  -6  12    3.60    0.60
   7  -5 -11   10.80    0.90
   7  -5 -11    8.70    0.80
  -7   5  11    8.70    1.10
  -7   5  10   -0.40    0.70
   7  -5 -10    0.70    0.70
  -7   5  10   -0.60    0.70
  -7   5  10    0.00    0.90
  -7   5   9   38.90    2.40
   7  -5  -9   41.70    2.50
  -7   5   9   35.60    2.50
  -7   5   9   39.00    3.20
   7  -5  -8   -0.50    1.10
  -7   5   8    0.20    0.90
  -7   5   8   -0.20    1.40
   7  -5  -7   79.59    4.00
  -7   5   7   70.59    3.70
  -7   5   7   77.09    5.10
   7  -5  -6   47.40    3.20
  -7   5   6   41.20    3.40
  -7   5   6   47.50    4.00
   7  -5  -5    4.90    1.30
  -7   5   5    3.00    1.40
  -7   5   5    4.20    1.30
  -7   5   5    4.60    1.60
  -7   5   4  123.69    5.70
  -7   5   4   98.59    9.60
   7  -5  -4   95.89    7.60
   7  -5  -4  129.89    5.10
  -7   5   4  115.09    5.50
  -7   5   4  113.79    5.40
  -7   5   4  112.99    5.30
  -7   5   3   22.90    2.60
   7  -5  -3   22.30    3.60
   7  -5  -3   28.60    2.40
  -7   5   3   22.00    2.40
  -7   5   3   24.10    2.30
  -7   5   3   25.60    5.20
  -7   5   3   23.20    2.60
   7  -5  -3   36.00    2.30
   7  -5  -3   21.00    3.50
  -7   5   3   22.70    2.40
  -7   5   2  182.58   14.40
  -7   5   2  197.38    7.20
   7  -5  -2  159.58    9.30
   7  -5  -2  207.68    6.20
  -7   5   2  179.88    6.50
  -7   5   2  182.38    6.50
  -7   5   2  191.78    6.80
   7  -5  -2  198.68    5.30
   7  -5  -2  195.48    5.30
   7  -5  -2  145.49    9.10
  -7   5   2  192.38   13.20
  -7   5   2  186.38    6.60
   7  -5  -2  217.58    6.30
   7  -5  -2  196.38    5.80
   7  -5  -1   84.99    3.80
  -7   5   1   71.79    8.70
  -7   5   1   84.29    9.00
  -7   5   1   77.29    4.40
   7  -5  -1   66.09    5.60
   7  -5  -1   79.29    3.70
  -7   5   1   77.39    4.10
  -7   5   1   74.89    4.00
  -7   5   0   91.19    9.90
   7  -5   0   82.99    7.00
   7  -5   0   78.49    5.90
   7  -5   1   96.39    7.70
  -7   5  -1  112.79   10.70
  -7   5  -2    9.10    3.50
  -7   5  -2   12.10    1.70
   7  -5   2   10.40    1.50
   7  -5   2    8.70    2.60
   7  -5   3  222.98    6.00
  -7   5  -3  255.27    7.70
  -7   5  -3  269.77    7.70
   7  -5   3  229.08    6.60
   7  -5   3  224.88   12.10
   7  -5   3  234.98    6.80
   7  -5   3  251.07    6.90
  -7   5  -3  262.07   15.40
   7  -5   4    1.10    1.00
   7  -5   4    2.50    0.90
  -7   5  -4    2.60    2.40
   7  -5   4    1.10    1.20
  -7   5  -4    2.10    1.00
   7  -5   4    1.80    1.10
   7  -5   4    2.40    1.40
   7  -5   4    1.50    0.90
   7  -5   4    1.90    1.10
   7  -5   5   69.39    3.50
   7  -5   5   55.99    6.20
   7  -5   5   69.49    3.80
   7  -5   5   63.99    3.60
   7  -5   5   61.39    6.30
  -7   5  -5   78.89    4.10
   7  -5   5   62.89    3.40
  -7   5  -5   68.29    8.00
   7  -5   6   99.99    4.70
   7  -5   6  104.09    4.40
   7  -5   6   94.59    4.40
   7  -5   6   99.29    4.60
  -7   5  -6  111.09    4.80
   7  -5   6   88.89    4.20
   7  -5   7    0.50    1.10
   7  -5   7    0.20    0.90
   7  -5   7   -0.10    1.00
   7  -5   7   -0.40    1.10
   7  -5   7   -0.30    1.10
  -7   5  -7    0.50    1.00
   7  -5   8  120.99    5.10
   7  -5   8  134.99    5.40
   7  -5   8  120.99    4.60
  -7   5  -8  130.89    5.10
   7  -5   9    1.80    0.90
   7  -5   9    2.20    1.20
  -7   5  -9    2.70    1.20
   7  -5   9    1.80    1.20
  -7   5  -9    1.10    0.70
   7  -5  10   18.70    2.10
   7  -5  10   15.00    1.70
  -7   5 -10   18.30    1.80
   7  -5  10   18.30    1.70
   7  -5  11   19.70    1.80
  -7   5 -11   17.80    1.40
   7  -5  11   20.90    1.60
  -7   5 -11   18.90    1.60
   7  -5  11   20.10    1.60
   7  -5  11   16.80    1.30
   7  -5  12   14.40    1.10
   7  -5  12   11.20    0.90
  -7   5 -12   11.70    0.90
  -7   5 -12   12.90    1.00
  -7   5 -12   14.20    1.30
   7  -4 -12   14.40    0.90
  -7   4  11   10.40    1.20
   7  -4 -11   10.10    1.10
  -7   4  11    9.50    1.40
  -7   4  10    5.40    1.20
   7  -4 -10    7.80    1.20
  -7   4  10    7.70    1.40
  -7   4  10    6.10    1.50
  -7   4   9    1.80    0.90
   7  -4  -9    2.60    1.10
  -7   4   9    1.10    1.00
  -7   4   9    2.30    1.50
   7  -4  -8  137.09    5.10
  -7   4   8  121.19    5.10
  -7   4   8  133.89    6.50
   7  -4  -7   14.40    1.90
  -7   4   7   11.40    2.00
  -7   4   7   13.70    1.80
  -7   4   7   13.00    2.30
   7  -4  -6   35.40    2.70
  -7   4   6   31.90    2.50
  -7   4   6   31.20    3.20
  -7   4   5    7.10    1.50
  -7   4   5   10.00    3.30
   7  -4  -5   10.00    1.60
  -7   4   5    5.90    1.50
   7  -4  -5    9.40    2.50
  -7   4   5   10.60    3.80
  -7   4   5   10.00    2.00
   7  -4  -4   77.09    4.20
  -7   4   4  112.09    5.30
  -7   4   4  108.69    9.70
   7  -4  -4   94.49    7.40
   7  -4  -4  129.39    4.90
  -7   4   4  106.79    5.10
  -7   4   4  102.89    5.00
  -7   4   4  127.69    5.70
   7  -4  -3   24.20    4.70
   7  -4  -3   61.39    5.80
   7  -4  -3   78.09    3.70
  -7   4   3   68.49    3.90
  -7   4   3   61.09    7.30
  -7   4   3   49.99    7.80
  -7   4   3   70.19    4.00
   7  -4  -3  113.69    3.90
   7  -4  -3   53.99    5.20
  -7   4   2   -2.80    4.00
  -7   4   2    1.30    2.20
   7  -4  -2    1.90    1.30
   7  -4  -2    2.20    1.50
  -7   4   1  161.18   12.80
   7  -4  -1  156.28    8.40
   7  -4  -1  130.69    8.40
   7  -4   0  156.38    7.90
   7  -4   0  147.19    9.10
  -7   4   0  164.38   12.60
   7  -4   1  310.37   13.50
  -7   4  -1  347.97   17.50
  -7   4  -2    0.20    2.10
   7  -4   2   -0.40    0.90
  -7   4  -3   20.60    4.50
   7  -4   3   22.30    3.70
   7  -4   4   29.20    2.40
   7  -4   4   27.60    2.00
   7  -4   4   22.60    4.00
  -7   4  -4   29.70    2.40
   7  -4   4   31.20    2.40
  -7   4  -4   31.20    2.60
   7  -4   4   26.60    2.20
  -7   4  -4   28.50    4.90
   7  -4   5    9.70    1.40
  -7   4  -5    9.60    3.10
   7  -4   5   11.00    3.10
   7  -4   5   11.10    1.60
   7  -4   5   10.00    1.60
  -7   4  -5   12.50    1.70
   7  -4   5    9.20    1.60
   7  -4   6   12.30    1.60
   7  -4   6   10.50    1.60
   7  -4   6   11.10    1.50
   7  -4   6   10.70    1.70
  -7   4  -6   12.80    1.70
   7  -4   6   12.80    1.80
   7  -4   6    8.80    1.60
  -7   4  -6   10.80    1.80
   7  -4   7    9.60    1.70
   7  -4   7   10.20    1.50
   7  -4   7   11.60    1.80
   7  -4   7   12.00    1.70
   7  -4   7    9.70    1.70
  -7   4  -7   10.10    1.60
   7  -4   8    9.50    1.80
  -7   4  -8   12.10    1.90
   7  -4   8   12.10    1.50
   7  -4   8   13.00    1.80
  -7   4  -8   11.50    1.60
   7  -4   9    0.80    1.20
   7  -4   9    0.50    1.00
   7  -4   9    0.60    0.80
  -7   4  -9    0.70    0.90
   7  -4   9    0.90    0.90
   7  -4  10   -0.50    0.90
   7  -4  10   -0.40    1.30
   7  -4  10   -0.60    0.90
  -7   4 -10    0.20    0.80
  -7   4 -10   -0.60    0.90
   7  -4  11    2.30    0.90
   7  -4  11    3.00    1.10
   7  -4  11    0.70    0.60
  -7   4 -11    1.60    0.80
  -7   4 -11   -0.60    1.20
   7  -4  11    3.70    0.90
   7  -4  12    1.20    0.60
  -7   4 -12    0.80    0.50
  -7   4 -12    1.80    0.80
  -7   3  12    7.50    1.00
   7  -3 -12    6.50    0.70
  -7   3  12    6.70    1.00
  -7   3  11    0.90    0.80
   7  -3 -11    0.90    0.70
  -7   3  11    0.70    1.00
  -7   3  11    0.00    1.00
  -7   3  10   13.90    1.80
   7  -3 -10   11.70    1.40
  -7   3  10   12.50    1.70
  -7   3  10   13.90    2.20
  -7   3   9   15.60    1.90
   7  -3  -9   17.60    1.90
  -7   3   9   15.40    2.00
  -7   3   9   15.60    2.50
   7  -3  -8   12.00    1.60
  -7   3   8   11.30    1.70
  -7   3   8   14.00    2.40
   7  -3  -7    0.70    0.90
  -7   3   7    1.90    1.20
  -7   3   7    0.80    0.90
  -7   3   7    1.30    1.30
  -7   3   6    3.80    2.70
   7  -3  -6    6.60    1.30
   7  -3  -6    4.40    1.90
  -7   3   6    6.60    1.70
  -7   3   6    5.00    1.10
  -7   3   6    5.00    2.60
  -7   3   6    7.80    1.70
   7  -3  -5   36.90    4.00
   7  -3  -5   30.90    4.40
  -7   3   5   28.10    4.80
  -7   3   5   44.00    3.20
   7  -3  -5   47.70    2.90
  -7   3   5   45.50    3.50
   7  -3  -4   42.30    3.00
  -7   3   4   52.39    6.30
  -7   3   4   53.69    7.90
   7  -3  -4   60.79    3.20
   7  -3  -4   50.89    5.40
  -7   3   4   60.89    3.80
  -7   3   3    4.30    2.20
   7  -3  -3    5.90    1.90
  -7   3   3    7.00    3.50
   7  -3  -3    7.80    2.00
  -7   3   2  216.58   12.60
   7  -3  -2  195.18    9.70
  -7   3   2  194.38   13.60
   7  -3  -2  189.38    9.80
  -7   3   1   40.40    6.10
   7  -3  -1   30.50    3.60
   7  -3  -1   27.00    3.80
  -7   3   1   31.70    5.80
  -7   3   0   25.50    5.00
   7  -3   0   27.10    4.70
  -7   3  -1   -9.20   11.50
   7  -3   1    2.50    1.60
  -7   3  -1   26.30    4.90
   7  -3   1   28.10    4.60
  -7   3  -2   -0.10    1.70
   7  -3   2    2.10    1.60
   7  -3   2   -0.20    1.80
   7  -3   3   27.80    4.50
  -7   3  -3   40.40    5.80
   7  -3   3   46.10    5.90
   7  -3   4    3.40    1.00
  -7   3  -4    2.90    2.30
   7  -3   4    4.30    2.20
   7  -3   4    4.20    2.10
   7  -3   4    4.80    1.10
   7  -3   4    2.00    0.80
  -7   3  -4    4.70    1.20
   7  -3   4    4.60    1.20
   7  -3   5  138.89    4.90
   7  -3   5  110.29    4.30
   7  -3   5  136.69   10.20
   7  -3   5  137.39    5.00
   7  -3   5  125.59    4.50
  -7   3  -5  129.99    5.00
   7  -3   5  127.79    5.00
  -7   3  -5  137.09   10.40
  -7   3  -5  142.59    5.50
   7  -3   6  462.15    9.30
   7  -3   6  377.36    9.40
   7  -3   6  349.57    8.50
   7  -3   6  444.66    9.60
   7  -3   6  399.96    8.90
   7  -3   6  417.66    9.90
  -7   3  -6  432.26   10.20
   7  -3   7   91.09    4.50
  -7   3  -7  101.79    4.80
   7  -3   7  105.69    4.50
   7  -3   7   99.89    4.80
  -7   3  -7  100.89    4.60
   7  -3   8   28.10    2.30
   7  -3   8   33.80    2.80
  -7   3  -8   36.60    2.90
  -7   3  -8   34.70    2.50
   7  -3   9   12.90    1.90
   7  -3   9   12.00    1.50
  -7   3  -9   12.20    1.60
   7  -3   9   11.60    1.60
  -7   3  -9   13.20    1.90
   7  -3   9    8.10    1.10
   7  -3  10    3.50    1.10
   7  -3  10    3.50    0.90
   7  -3  10    4.50    1.30
  -7   3 -10    3.80    0.90
  -7   3 -10    3.50    1.10
  -7   3 -10    1.00    1.40
   7  -3  10    0.90    0.90
   7  -3  11    2.50    0.90
   7  -3  11   -0.60    0.60
   7  -3  11    2.00    0.90
  -7   3 -11    2.60    0.80
  -7   3 -11    1.80    0.80
  -7   3 -11    0.80    1.00
   7  -3  12   40.90    1.70
  -7   3 -12   45.40    1.90
  -7   3 -12   45.00    1.80
  -7   2  13   32.20    1.60
   7  -2 -13   37.50    1.40
  -7   2  12   -0.40    0.60
  -7   2  12   -0.10    0.80
   7  -2 -12    0.40    0.50
  -7   2  12    0.20    0.80
   7  -2 -11   -1.10    6.60
  -7   2  11   93.09    3.50
  -7   2  11   96.89    4.20
   7  -2 -11   89.09    3.30
   7  -2 -11   18.90    5.70
  -7   2  11   88.49    4.60
  -7   2  10    0.60    1.00
   7  -2 -10    0.70    0.70
  -7   2  10    0.70    1.10
  -7   2  10    0.90    1.30
  -7   2   9   66.69    3.90
   7  -2  -9   65.19    3.30
  -7   2   9   63.29    3.80
  -7   2   9   65.49    4.50
  -7   2   8  123.99    5.20
   7  -2  -8  122.89    4.60
  -7   2   8  115.19    5.00
  -7   2   8  127.89    6.30
  -7   2   7   14.20    1.80
   7  -2  -7   14.00    1.60
  -7   2   7   17.10    2.40
  -7   2   7   13.40    1.80
  -7   2   7   16.10    2.30
  -7   2   6  173.68   11.50
   7  -2  -6  166.28   10.20
  -7   2   6  224.68    6.50
  -7   2   6  199.68   14.30
   7  -2  -6  222.08    6.10
  -7   2   6  227.28    7.90
  -7   2   6  174.78   11.80
  -7   2   6  195.48    6.00
  -7   2   6  231.38    8.00
   7  -2  -5   12.50    1.50
   7  -2  -5   12.20    2.80
  -7   2   5    8.90    2.60
  -7   2   5   12.30    1.90
  -7   2   4  349.96   18.70
  -7   2   4  360.76   15.30
   7  -2  -4  334.57   13.90
   7  -2  -4  308.27   11.60
  -7   2   3  133.29   11.10
  -7   2   3  142.69    9.20
   7  -2  -3  126.39    8.20
   7  -2  -3  115.59    7.20
  -7   2   2  268.07   15.40
  -7   2   2  297.17   13.20
   7  -2  -2  270.47   11.50
   7  -2  -2  270.47   13.70
  -7   2   1   84.09    7.10
   7  -2  -1   78.29    5.70
   7  -2  -1   79.29    7.50
  -7   2   1   78.19    8.00
  -7   2   0   -1.70    2.00
   7  -2   0    0.10    1.90
   7  -2   1  190.48   11.90
  -7   2  -1  188.88   11.80
  -7   2  -2   16.30    3.60
   7  -2   2   23.90    4.70
  -7   2  -2   27.20    4.00
  -7   2  -3   11.70    3.40
   7  -2   3   14.10    3.70
  -7   2  -3   20.40    3.80
  -7   2  -4   19.70    4.10
   7  -2   4   21.80    1.90
   7  -2   4   10.00    3.10
   7  -2   4   20.70    1.80
   7  -2   4   19.70    1.70
   7  -2   4   19.30    4.10
   7  -2   4   21.30    1.90
  -7   2  -4   21.60    2.00
   7  -2   4   24.10    2.10
  -7   2  -4   32.00    5.20
  -7   2  -4   24.40    2.30
  -7   2  -5   56.39    3.50
   7  -2   5   48.50    3.00
   7  -2   5   48.10    2.80
   7  -2   5   55.49    3.00
   7  -2   5   43.40    2.80
  -7   2  -5   49.40    6.30
   7  -2   5   55.99    3.40
  -7   2  -5   52.19    3.40
   7  -2   6  111.69    4.80
  -7   2  -6  122.89    5.30
   7  -2   6  119.69    4.50
   7  -2   6   99.59    4.40
   7  -2   6  116.59    5.00
   7  -2   6  105.19    4.50
  -7   2  -6  112.79    4.90
   7  -2   7  209.28    6.80
  -7   2  -7  205.48    6.90
   7  -2   7  191.48    6.20
   7  -2   7  217.08    6.20
  -7   2  -7  195.08    6.40
   7  -2   8    3.80    1.40
   7  -2   8    2.80    1.10
  -7   2  -8    4.20    1.20
   7  -2   8    2.50    1.20
  -7   2  -8    4.20    1.40
  -7   2  -8    2.70    0.90
   7  -2   8    3.10    0.80
   7  -2   9   19.10    2.00
   7  -2   9   16.40    1.50
  -7   2  -9   18.40    1.80
   7  -2   9   18.00    1.90
  -7   2  -9   19.40    2.10
  -7   2  -9   14.80    2.00
   7  -2   9   18.40    1.50
   7  -2  10   10.50    1.40
   7  -2  10    8.40    0.90
  -7   2 -10    9.50    1.10
  -7   2 -10   11.40    1.50
  -7   2 -10   11.40    1.60
  -7   2 -10    8.40    1.50
   7  -2  10   10.20    1.50
   7  -2  10   15.10    1.20
  -7   2 -11   -1.40    0.90
  -7   2 -11   -1.70    3.00
  -7   2 -11   -0.50    0.60
   7  -2  11   -0.40    0.70
  -7   2 -11    1.60    0.90
  -7   1  13   18.80    1.50
  -7   1  13   17.20    1.20
  -7   1  12    2.40    0.90
  -7   1  12    2.00    1.10
   7  -1 -11   -3.50    5.90
  -7   1  11   29.00    2.10
  -7   1  11   33.10    2.70
   7  -1 -11   29.60    1.90
   7  -1 -11   -5.00    4.60
  -7   1  11   30.10    2.90
  -7   1  10    5.40    1.50
   7  -1 -10    3.80    0.90
  -7   1  10    4.10    1.50
  -7   1  10    5.40    1.70
  -7   1   9    8.20    1.60
   7  -1  -9    8.10    1.20
  -7   1   9    8.10    1.70
  -7   1   9    8.20    1.90
   7  -1  -8   -1.40    4.40
  -7   1   8    2.70    1.10
  -7   1   8    3.50    1.50
   7  -1  -8    2.00    0.80
  -7   1   8    2.10    1.30
  -7   1   8    2.90    1.20
  -7   1   8    2.30    1.30
  -7   1   7  297.67    7.90
  -7   1   7  309.07    9.70
   7  -1  -7  278.87    6.70
  -7   1   7  273.47    8.80
  -7   1   7  258.07    7.30
  -7   1   7  287.77    9.20
   7  -1  -6  147.59    9.70
  -7   1   6  195.18    6.00
  -7   1   6  176.18   13.20
   7  -1  -6  187.68    5.30
  -7   1   6  185.48    7.10
  -7   1   6  144.19   10.10
  -7   1   6  171.68    5.50
  -7   1   6  186.18    7.10
  -7   1   5   -0.20    1.70
   7  -1  -5    0.60    1.40
  -7   1   4    2.30    2.20
   7  -1  -4    6.90    2.40
  -7   1   4    4.00    3.10
   7  -1  -4    5.20    1.70
   7  -1  -3    1.40    1.70
   7  -1  -3    3.40    1.80
  -7   1   3    2.30    2.50
   7  -1  -2    2.30    2.00
  -7   1   2    2.60    1.90
   7  -1  -2    3.90    1.60
  -7   1   1    3.40    2.40
   7  -1  -1    3.70    1.60
   7  -1  -1    2.40    1.90
  -7   1   0   11.50    3.10
   7  -1   0   16.50    4.00
  -7   1  -1    3.50    2.30
   7  -1   1    3.50    2.20
   7  -1   1    5.00    1.90
  -7   1  -1    7.80    2.50
   7  -1   2   17.80    4.10
   7  -1   2   20.10    3.80
  -7   1  -2   19.90    3.90
  -7   1  -2   32.30    4.70
  -7   1  -3    4.60    2.30
  -7   1  -3    5.60    1.20
   7  -1   3    3.30    2.20
  -7   1  -3    4.90    1.10
  -7   1  -3    3.40    2.50
  -7   1  -4   11.30    3.10
  -7   1  -4   14.30    1.80
   7  -1   4   13.10    1.70
   7  -1   4   10.50    1.50
   7  -1   4   13.60    1.70
   7  -1   4    8.70    2.90
   7  -1   4   12.30    1.70
  -7   1  -4   11.30    1.70
  -7   1  -5   51.69    3.40
   7  -1   5   45.60    3.00
   7  -1   5   39.40    2.70
   7  -1   5   45.20    3.00
  -7   1  -5   48.60    6.10
   7  -1   5   47.60    3.20
  -7   1  -5   48.90    3.30
   7  -1   6   15.20    2.00
  -7   1  -6   14.30    2.00
   7  -1   6   15.80    2.00
   7  -1   6   13.80    1.90
   7  -1   6   17.90    2.20
  -7   1  -6   12.70    1.80
   7  -1   7   21.00    2.30
  -7   1  -7   17.70    2.10
   7  -1   7   20.10    2.20
  -7   1  -7   18.10    2.20
  -7   1  -7   15.90    1.90
   7  -1   8    0.90    1.10
   7  -1   8   -0.30    0.70
  -7   1  -8    0.20    0.80
   7  -1   8    1.50    1.10
  -7   1  -8    1.10    1.20
  -7   1  -8   -0.10    1.50
   7  -1   8    0.50    0.50
   7  -1   9   45.10    2.70
  -7   1  -9   37.20    2.40
   7  -1   9   42.80    2.80
  -7   1  -9   41.90    2.80
  -7   1  -9   46.80    3.10
  -7   1  -9   44.80    3.00
   7  -1   9   46.10    2.00
   7  -1  10    2.70    1.00
  -7   1 -10    1.60    0.90
   7  -1  10    3.10    0.90
  -7   1 -10    3.00    0.90
  -7   1 -10    2.70    1.00
  -7   1 -10    5.00    1.30
   7  -1  11   -0.30    0.60
  -7   1 -11    0.20    0.70
  -7   1 -11    1.20    0.70
  -7   1 -11    0.80    0.80
  -7   1 -11    0.20    0.50
  -7   0  13    8.10    1.10
  -7   0  13    8.40    1.30
  -7   0  12   -0.30    0.90
  -7   0  12    0.50    0.90
  -7   0  12    0.90    1.00
  -7   0  11   27.50    2.20
  -7   0  11   31.60    2.70
  -7   0  11   28.60    2.90
  -7   0  10   12.00    1.60
  -7   0  10   11.20    1.90
  -7   0  10   11.40    2.20
  -7   0   9   58.19    3.30
  -7   0   9   58.39    3.70
  -7   0   9   56.89    4.30
  -7   0   8    0.10    0.80
  -7   0   8   -0.10    0.90
  -7   0   8   -0.10    1.20
  -7   0   8    0.30    1.00
  -7   0   8    0.00    1.10
  -7   0   7  335.77    7.40
  -7   0   7  332.87    8.20
  -7   0   7  317.47   17.90
  -7   0   7  337.07    9.90
  -7   0   7  315.37    9.40
  -7   0   7  319.97    9.60
  -7   0   6  142.09    5.10
  -7   0   6  131.59   11.30
  -7   0   6  150.28    6.60
  -7   0   6  144.69    6.30
  -7   0   6  143.59    6.10
  -7   0   5    5.30    2.80
   7   0  -5    3.40    1.60
   7   0  -5    5.90    2.10
   7   0  -4   20.90    3.60
  -7   0   4   29.20    5.00
  -7   0   4   19.80    4.20
   7   0  -4   24.40    4.10
  -7   0   3    2.40    2.20
   7   0  -3    2.90    1.70
  -7   0   3    2.20    2.00
   7   0  -3    2.60    2.10
  -7   0   2  126.29    9.30
   7   0  -2  122.69    9.60
   7   0  -2  129.39    8.00
  -7   0   2  126.39    9.40
   7   0  -1    5.80    3.00
  -7   0   1    3.00    2.20
   7   0  -1    4.40    1.60
   7   0  -1    3.90    1.80
  -7   0   1    7.50    2.70
   7   0   0   91.49    7.00
   7   0   0  104.69    9.30
  -7   0   0  102.39    8.10
   7   0   1  165.78   10.20
   7   0   1  182.58   12.50
  -7   0  -1  164.68   10.20
   7   0   2   20.60    4.00
  -7   0  -2   21.90    4.00
  -7   0  -2   30.00    4.70
   7   0   2   27.30    5.10
  -7   0  -3   59.79    3.90
  -7   0  -3   57.79    3.40
   7   0   3   54.19    3.00
   7   0   3   61.49    6.90
   7   0   3   55.69    2.90
   7   0   3   63.09    7.60
  -7   0  -3   53.49    6.10
   7   0   3   60.69    3.20
  -7   0  -3   55.89    3.40
   7   0   4   13.10    3.60
  -7   0  -4    4.80    2.00
  -7   0  -4    8.20    1.50
   7   0   4    7.20    1.40
   7   0   4    8.50    1.40
   7   0   4    6.90    3.00
   7   0   4    7.40    1.40
   7   0   4   10.20    1.70
  -7   0  -4    8.00    1.50
   7   0   4    7.00    1.20
   7   0   5  305.07    7.80
  -7   0  -5  290.67    8.40
   7   0   5  295.97    8.00
  -7   0  -5  306.07    8.50
   7   0   5  264.77    7.30
   7   0   5  292.97    7.90
   7   0   5  316.97    8.10
  -7   0  -5  277.27    8.10
   7   0   5  263.07    6.70
   7   0   6    5.40    1.20
   7   0   6    4.00    1.20
  -7   0  -6    3.50    1.30
   7   0   6    2.90    1.40
  -7   0  -6    4.70    1.40
   7   0   6    3.20    1.30
  -7   0  -6    1.90    1.30
  -7   0  -6    3.30    1.10
   7   0   7    6.90    1.20
   7   0   7    6.80    1.40
  -7   0  -7    7.40    1.50
   7   0   7    6.10    1.50
  -7   0  -7    7.70    1.60
  -7   0  -7    6.10    1.50
   7   0   8   16.50    1.70
  -7   0  -8   15.30    1.70
   7   0   8   17.80    2.10
  -7   0  -8   14.90    1.90
  -7   0  -8   19.90    2.20
  -7   0  -8   16.10    2.10
  -7   0  -9   36.70    2.40
   7   0   9   37.40    2.10
  -7   0  -9   28.60    1.90
   7   0   9   39.40    2.60
  -7   0  -9   32.50    2.40
  -7   0  -9   36.50    2.60
  -7   0  -9   43.30    2.80
   7   0  10   67.29    2.70
  -7   0 -10   77.49    2.90
  -7   0 -10   72.49    2.90
  -7   0 -10   67.59    2.90
  -7  -1  14   16.10    1.10
  -7  -1  14   15.50    1.30
  -7  -1  13   89.69    3.40
  -7  -1  13   90.29    3.70
   7   1 -12    6.80    4.10
  -7  -1  12    3.90    1.10
  -7  -1  12    5.60    1.40
  -7  -1  12    5.30    1.30
  -7  -1  11   78.89    3.80
  -7  -1  11   80.59    4.20
  -7  -1  11   75.19    4.60
  -7  -1  10  121.79    4.90
  -7  -1  10  126.49    5.40
  -7  -1  10  112.09    6.00
  -7  -1   9  135.59    5.10
  -7  -1   9  140.79    5.70
  -7  -1   9  131.99    6.50
  -7  -1   8   53.39    3.10
  -7  -1   8   54.49    3.50
  -7  -1   8   53.09    4.00
  -7  -1   8   52.09    4.10
  -7  -1   7   36.10    2.50
  -7  -1   7   38.00    2.80
  -7  -1   7   29.40    5.70
  -7  -1   7   32.40    3.20
  -7  -1   7   29.00    3.00
   7   1  -7   27.50    4.40
  -7  -1   7   35.90    3.30
  -7  -1   6  716.13   11.90
  -7  -1   6  726.63   13.00
  -7  -1   6  638.34   25.30
  -7  -1   6  679.93   15.20
  -7  -1   6  657.03   14.60
  -7  -1   6  682.73   14.70
  -7  -1   5    1.00    1.50
   7   1  -5    0.90    1.40
   7   1  -5    0.90    1.60
   7   1  -4   72.69    6.70
  -7  -1   4   87.99    8.50
   7   1  -4   82.69    7.60
   7   1  -3   36.70    4.70
  -7  -1   3   29.90    4.90
   7   1  -3   38.00    5.50
  -7  -1   2    2.50    1.70
  -7  -1   2    2.30    1.60
   7   1  -2    2.30    1.30
   7   1  -2    3.20    1.50
   7   1  -2    1.70    1.80
  -7  -1   1   83.89    6.90
   7   1  -1   72.89    6.20
   7   1  -1   72.89    7.90
  -7  -1   1   71.89    6.50
   7   1   0   28.60    4.30
   7   1   0   20.10    4.70
  -7  -1   0   23.20    3.90
  -7  -1   0   24.30    4.00
   7   1   1   36.10    6.00
   7   1   1   42.70    5.60
  -7  -1  -1   41.80    5.40
  -7  -1  -1   39.10    4.90
  -7  -1  -1   48.20    5.90
   7   1   2   36.80    2.30
  -7  -1  -2   36.20    3.20
  -7  -1  -2   34.00    2.70
   7   1   2   37.50    2.50
   7   1   2   35.40    5.30
   7   1   2   35.60    6.20
   7   1   2   35.30    2.40
  -7  -1  -2   36.50    4.90
  -7  -1  -2   31.60    4.50
  -7  -1  -2   35.30    2.70
  -7  -1  -2   39.70    5.70
  -7  -1  -3   99.39    5.20
  -7  -1  -3  113.99    5.00
   7   1   3  119.69    4.70
  -7  -1  -3  117.89    4.80
   7   1   3  126.19   10.10
   7   1   3  135.79   11.50
   7   1   3  113.89    4.40
   7   1   3  124.09    4.70
  -7  -1  -3  121.49    4.60
  -7  -1  -3  114.79    5.00
  -7  -1  -3  111.89    8.50
   7   1   3  113.79    4.40
  -7  -1  -3  112.09    5.00
   7   1   3  110.29    4.20
  -7  -1  -4   22.30    2.30
   7   1   4   25.50    2.40
  -7  -1  -4   24.10    2.40
   7   1   4   21.70    2.10
   7   1   4   25.90    2.40
  -7  -1  -4   22.90    2.20
   7   1   4   23.60    2.20
  -7  -1  -4   20.60    2.30
   7   1   4   22.70    2.00
   7   1   5    0.30    0.80
   7   1   5    0.50    0.80
  -7  -1  -5   -0.10    1.10
   7   1   5    0.40    1.10
  -7  -1  -5    0.50    1.00
   7   1   5    0.20    1.00
   7   1   5    0.30    1.10
  -7  -1  -5    0.10    1.10
  -7  -1  -5    0.00    0.90
   7   1   6    2.30    0.90
   7   1   6    2.50    1.00
  -7  -1  -6    3.20    1.30
   7   1   6    3.20    1.40
  -7  -1  -6    2.40    1.30
   7   1   6    2.90    1.40
  -7  -1  -6    2.60    1.40
   7   1   7   15.20    1.60
  -7  -1  -7   15.00    1.80
   7   1   7   17.50    2.10
  -7  -1  -7   14.50    2.00
  -7  -1  -7   14.20    2.00
  -7  -1  -7   18.00    2.20
   7   1   7   14.40    1.60
   7   1   8    0.60    0.70
  -7  -1  -8   -1.10    1.10
  -7  -1  -8   -0.10    0.60
   7   1   8    0.90    1.20
  -7  -1  -8   -0.10    0.90
  -7  -1  -8    0.90    1.00
  -7  -1  -8    3.30    1.50
   7   1   9    3.20    0.70
   7   1   9    2.00    0.90
  -7  -1  -9    2.90    1.00
  -7  -1  -9    3.10    1.00
  -7  -1  -9    2.20    1.10
   7   1  10    7.60    0.90
  -7  -1 -10    8.20    0.90
  -7  -1 -10    8.70    1.00
  -7  -1 -10    8.30    1.00
  -7  -1 -10    9.10    1.00
  -7  -2  14    1.40    0.70
  -7  -2  14    0.20    0.60
  -7  -2  13   69.19    3.00
  -7  -2  13   67.39    3.10
  -7  -2  12   -0.80    1.10
  -7  -2  12    0.10    1.00
  -7  -2  11   35.30    2.60
  -7  -2  11   36.90    2.90
  -7  -2  11   34.00    3.20
  -7  -2  10    5.30    1.30
  -7  -2  10    5.50    1.40
  -7  -2  10    5.50    1.80
  -7  -2   9   21.90    2.20
  -7  -2   9   23.10    2.40
  -7  -2   9   21.40    2.80
  -7  -2   9   19.60    2.30
  -7  -2   8    4.80    1.20
  -7  -2   8    3.50    1.20
  -7  -2   8    3.10    1.50
  -7  -2   8    3.40    1.40
  -7  -2   7  225.98    6.90
  -7  -2   7  216.68   14.90
  -7  -2   7  201.58    7.90
  -7  -2   7  226.98    6.40
  -7  -2   7  204.88    7.90
  -7  -2   6   12.30    1.60
  -7  -2   6   11.10    1.60
  -7  -2   6    9.60    3.30
  -7  -2   6    7.80    1.70
   7   2  -6    8.80    2.60
  -7  -2   6    9.00    1.80
  -7  -2   5   20.80    1.90
  -7  -2   5   21.00    4.60
   7   2  -5   15.50    3.40
   7   2  -5   16.30    3.60
  -7  -2   5   18.50    2.30
  -7  -2   5   20.40    2.40
   7   2  -4   19.40    4.10
   7   2  -4   19.50    3.70
  -7  -2   4   28.10    4.90
   7   2  -3  132.59    9.00
  -7  -2   3  143.19   10.10
   7   2  -3  126.09   10.00
  -7  -2   2   98.39    7.90
   7   2  -2   83.59    7.00
   7   2  -2   86.19    8.70
   7   2  -2   78.29    6.30
   7   2  -1   -0.50    1.80
   7   2  -1    1.00    1.60
  -7  -2   1   -4.50    2.30
   7   2   0   46.60    6.90
   7   2   0   47.80    5.80
  -7  -2   0   52.59    6.20
  -7  -2   0   56.49    6.40
  -7  -2  -1    9.10    1.90
  -7  -2  -1   10.00    1.60
   7   2   1   11.40    1.50
   7   2   1    9.90    3.70
   7   2   1   11.20    1.50
   7   2   1   11.70    3.30
  -7  -2  -1    9.20    2.80
  -7  -2  -1   11.00    1.80
  -7  -2  -1    9.00    1.60
  -7  -2  -1    2.60    3.10
  -7  -2  -2   51.09    3.90
  -7  -2  -2   58.39    3.60
   7   2   2   62.69    3.40
   7   2   2   60.69    3.20
   7   2   2   59.39    8.10
   7   2   2   60.69    7.10
  -7  -2  -2   58.79    3.30
   7   2   2   58.39    2.80
   7   2   2   60.29    3.20
  -7  -2  -2   60.79    6.50
  -7  -2  -2   56.39    3.60
  -7  -2  -2   53.19    3.50
  -7  -2  -2   70.79    7.60
   7   2   2   60.99    3.20
  -7  -2  -3   14.20    2.20
  -7  -2  -3   12.80    1.90
   7   2   3   13.50    1.80
  -7  -2  -3   11.60    1.70
   7   2   3   12.50    1.50
   7   2   3   13.40    1.80
   7   2   3    9.70    3.90
  -7  -2  -3   13.50    1.80
   7   2   3   14.60    1.90
  -7  -2  -3   13.40    1.80
  -7  -2  -3   10.40    1.80
   7   2   3   11.60    1.50
  -7  -2  -4   39.40    3.10
   7   2   4   49.80    3.30
  -7  -2  -4   43.10    3.10
   7   2   4   40.40    2.50
   7   2   4   46.60    3.00
   7   2   4   46.10    3.10
  -7  -2  -4   48.90    3.20
   7   2   4   42.50    2.80
  -7  -2  -5    3.60    1.00
  -7  -2  -5    4.60    1.40
   7   2   5    3.00    1.50
  -7  -2  -5    4.80    1.40
  -7  -2  -5    5.20    1.30
   7   2   5    5.10    1.50
  -7  -2  -5    5.70    1.70
   7   2   5    5.20    1.30
   7   2   6    1.40    1.00
  -7  -2  -6    1.50    1.10
  -7  -2  -6    1.00    1.00
  -7  -2  -6    0.80    0.90
   7   2   6    2.80    1.30
  -7  -2  -6    0.50    1.00
  -7  -2  -6    2.10    1.10
  -7  -2  -6    4.20    1.60
   7   2   7    3.20    1.00
  -7  -2  -7    3.20    1.10
  -7  -2  -7    4.40    1.20
  -7  -2  -7    3.60    1.00
   7   2   7    4.40    1.40
  -7  -2  -7    5.00    1.30
   7   2   7    4.10    1.00
  -7  -2  -7    5.30    1.70
   7   2   8    0.40    0.70
  -7  -2  -8    1.00    0.80
   7   2   8   -1.40    1.10
  -7  -2  -8    0.10    0.80
   7   2   8    0.40    0.60
  -7  -2  -8    1.10    1.00
   7   2   9    4.70    0.70
  -7  -2  -9    6.70    0.90
   7   2   9    5.30    0.80
  -7  -2  -9    6.00    1.00
  -7  -2  -9    6.90    1.00
  -7  -2  -9    7.40    1.10
  -7  -3  14    7.00    1.10
  -7  -3  14    3.80    0.80
  -7  -3  13    2.30    1.20
  -7  -3  13    0.40    0.90
  -7  -3  12    7.80    1.50
  -7  -3  12    6.90    1.40
  -7  -3  11   63.99    3.50
  -7  -3  11   62.19    3.70
  -7  -3  10   97.19    4.40
  -7  -3  10   94.19    4.60
  -7  -3  10   77.69    5.00
  -7  -3  10   72.09    4.30
  -7  -3   9   17.50    2.10
  -7  -3   9   13.90    1.90
  -7  -3   9   12.80    2.20
  -7  -3   9   11.90    2.00
  -7  -3   8    5.80    1.40
  -7  -3   8    5.90    1.40
  -7  -3   8    3.90    1.60
  -7  -3   8    3.60    1.60
  -7  -3   8    4.60    1.60
   7   3  -7  386.06   17.40
  -7  -3   7  530.85   10.50
  -7  -3   7  537.15   11.20
  -7  -3   7  436.86   12.40
  -7  -3   7  456.05   12.40
   7   3  -6   57.59    6.60
  -7  -3   6   80.79    3.70
  -7  -3   6   75.39    3.80
  -7  -3   6   77.39    8.60
  -7  -3   6   70.59    4.80
  -7  -3   6   67.09    4.10
  -7  -3   6   65.49    4.40
  -7  -3   5    4.90    1.00
   7   3  -5   -0.20    1.70
  -7  -3   5    3.30    1.40
  -7  -3   5    3.70    1.10
  -7  -3   5    2.80    1.90
  -7  -3   5    2.70    1.40
   7   3  -5    2.70    1.80
  -7  -3   5    2.10    1.20
   7   3  -4  311.87   14.90
  -7  -3   4  334.67    7.50
  -7  -3   4  363.46    8.20
  -7  -3   4  337.87   16.40
  -7  -3   4  310.77    9.90
   7   3  -4  306.97   15.90
  -7  -3   4  321.57    8.70
  -7  -3   4  328.47    9.60
  -7  -3   3    4.40    1.00
  -7  -3   3    8.60    2.60
  -7  -3   3    2.60    1.40
   7   3  -3    3.30    1.90
   7   3  -3    2.70    2.50
  -7  -3   3    2.60    1.10
  -7  -3   3    3.80    1.40
   7   3  -2   44.20    5.20
  -7  -3   2   48.80    2.80
   7   3  -2   47.20    6.80
  -7  -3   2   47.80    3.70
  -7  -3   2   50.19    3.90
   7   3  -2   47.00    5.30
  -7  -3   2   45.20    6.00
  -7  -3   2   49.99    3.20
  -7  -3   2   53.09    3.70
  -7  -3   1   37.90    3.50
  -7  -3   1   40.70    2.40
  -7  -3   1   39.50    2.60
  -7  -3   1   40.80    2.90
   7   3  -1   43.40    6.70
   7   3  -1   40.00    2.40
   7   3  -1   47.90    2.70
   7   3  -1   38.00    5.20
  -7  -3   1   45.80    6.00
  -7  -3   1   42.90    2.90
  -7  -3   1   42.00    3.40
  -7  -3   1   36.90    2.70
  -7  -3   0    0.80    1.50
  -7  -3   0    0.30    0.70
  -7  -3   0    0.30    0.80
   7   3   0    3.90    3.10
   7   3   0    0.90    0.90
   7   3   0    0.80    1.00
   7   3   0   -0.30    1.30
  -7  -3   0    2.10    1.80
  -7  -3   0    1.80    1.10
  -7  -3   0    0.20    1.10
  -7  -3   0    0.70    0.90
  -7  -3  -1    2.20    1.60
  -7  -3  -1    0.80    0.70
  -7  -3  -1    1.90    1.00
   7   3   1    0.00    3.00
   7   3   1    2.30    0.90
   7   3   1    1.60    1.10
  -7  -3  -1    2.20    0.90
   7   3   1    2.40    1.10
   7   3   1    4.50    2.40
  -7  -3  -1   -0.60    1.60
  -7  -3  -1    3.10    1.00
  -7  -3  -1    1.80    1.20
  -7  -3  -2   32.70    2.40
  -7  -3  -2   22.50    2.90
  -7  -3  -2   24.90    2.00
  -7  -3  -2   26.50    2.60
   7   3   2   30.90    2.50
  -7  -3  -2   28.20    2.50
   7   3   2   28.70    2.20
   7   3   2   27.20    2.30
  -7  -3  -2   31.30    2.50
   7   3   2   31.40    2.50
  -7  -3  -2   25.70    4.60
  -7  -3  -2   29.50    2.70
   7   3   2   30.40    2.40
  -7  -3  -3   50.39    2.90
  -7  -3  -3   43.00    3.80
  -7  -3  -3   43.00    3.30
   7   3   3   47.90    3.10
  -7  -3  -3   42.60    3.10
  -7  -3  -3   52.79    3.20
   7   3   3   43.90    2.70
   7   3   3   49.80    3.10
  -7  -3  -3   50.69    3.20
   7   3   3   53.19    3.30
   7   3   3   49.40    3.10
  -7  -3  -4    1.30    0.80
   7   3   4    1.80    0.90
  -7  -3  -4    1.40    1.10
   7   3   4    1.40    1.10
  -7  -3  -4    1.70    1.10
  -7  -3  -4    2.00    1.00
   7   3   4    2.00    1.00
   7   3   4    1.00    1.10
   7   3   4    1.90    1.20
  -7  -3  -4    2.00    1.40
   7   3   4    1.00    1.10
  -7  -3  -5   17.00    2.40
  -7  -3  -5   15.30    2.00
   7   3   5   14.90    1.60
   7   3   5   18.10    2.10
  -7  -3  -5   18.00    2.00
  -7  -3  -5   15.20    2.10
   7   3   5   18.40    2.10
   7   3   5   17.70    2.00
  -7  -3  -6   12.10    1.80
  -7  -3  -6   15.30    1.60
  -7  -3  -6   10.80    1.50
   7   3   6   10.70    1.30
  -7  -3  -6   11.80    1.60
   7   3   6   12.50    1.80
  -7  -3  -6   11.60    1.80
   7   3   6   11.10    1.60
   7   3   7    1.60    0.90
  -7  -3  -7    2.80    0.90
   7   3   7    2.10    1.10
  -7  -3  -7    1.10    0.90
   7   3   7    1.00    0.70
  -7  -3  -7    3.70    1.20
  -7  -3  -7    1.30    1.10
   7   3   8    3.20    0.80
   7   3   8    3.40    0.70
  -7  -3  -8    4.90    0.80
   7   3   8    3.90    0.70
  -7  -3  -8    2.30    0.80
  -7  -3  -8    4.20    1.00
  -7  -3  -9   -0.60    0.60
  -7  -4  14   17.10    1.40
  -7  -4  14   10.40    1.00
  -7  -4  13  139.69    4.40
  -7  -4  13  127.09    4.20
  -7  -4  12    9.70    1.50
  -7  -4  12   15.20    2.00
  -7  -4  11  128.19    4.90
  -7  -4  11  111.39    4.80
  -7  -4  10   63.19    3.60
  -7  -4  10   57.59    3.50
  -7  -4  10   48.10    3.30
  -7  -4  10   47.40    3.50
  -7  -4   9   64.39    3.60
  -7  -4   9   61.59    3.70
  -7  -4   9   51.89    3.60
  -7  -4   9   55.29    4.00
  -7  -4   8    5.60    1.50
  -7  -4   8    5.70    1.40
  -7  -4   8    4.30    1.40
  -7  -4   8    4.10    1.50
  -7  -4   7   26.90    2.40
  -7  -4   7   25.20    2.40
  -7  -4   7   22.70    2.50
  -7  -4   7   23.90    2.80
  -7  -4   6  266.07    7.00
  -7  -4   6  261.47    7.40
  -7  -4   5   73.79    4.90
  -7  -4   5   80.29    3.70
  -7  -4   5   81.09    3.90
  -7  -4   5   73.59    7.90
   7   4  -5   82.49    3.30
   7   4  -5   68.39    7.30
  -7  -4   5   77.69    4.30
  -7  -4   5   73.49    4.60
   7   4  -5   77.09    7.70
  -7  -4   4    0.60    1.20
  -7  -4   4    1.10    0.90
  -7  -4   4    0.90    0.80
  -7  -4   4   -2.00    1.80
   7   4  -4    1.00    0.60
   7   4  -4    2.50    1.50
   7   4  -4   -1.80    2.20
  -7  -4   4    1.70    1.00
  -7  -4   4    0.50    1.10
   7   4  -3   36.10    5.30
  -7  -4   3   50.09    3.60
  -7  -4   3   45.20    4.00
  -7  -4   3   46.50    2.70
  -7  -4   3   47.40    2.90
   7   4  -3   44.90    6.60
   7   4  -3   46.60    2.50
  -7  -4   3   44.90    6.20
  -7  -4   3   44.20    3.20
  -7  -4   3   45.90    3.70
  -7  -4   2    8.20    1.30
  -7  -4   2    6.30    1.30
   7   4  -2    3.70    2.70
   7   4  -2    7.60    1.10
   7   4  -2   10.20    1.40
  -7  -4   2    7.30    1.30
  -7  -4   2    7.60    2.00
   7   4  -2    3.90    2.50
  -7  -4   2    9.90    3.00
  -7  -4   2    8.60    1.60
  -7  -4   2    9.10    1.90
  -7  -4   1    4.10    1.70
  -7  -4   1    3.90    1.10
   7   4  -1    3.20    2.60
  -7  -4   1    3.30    1.20
   7   4  -1    4.20    1.20
   7   4  -1    4.70    1.30
   7   4  -1    3.80    2.10
  -7  -4   1    4.60    2.40
  -7  -4   1    3.70    1.20
  -7  -4   1    2.90    1.50
  -7  -4   0    5.20    1.20
   7   4   0    2.40    2.40
  -7  -4   0    4.80    1.90
  -7  -4   0    5.10    1.30
   7   4   0    5.30    1.10
   7   4   0    5.60    1.30
   7   4   0    2.40    2.00
  -7  -4   0    1.50    1.60
  -7  -4   0    4.10    1.20
  -7  -4   0    4.10    1.40
  -7  -4  -1   76.59    5.30
  -7  -4  -1   79.59    3.70
  -7  -4  -1   78.99    4.40
   7   4   1   89.09    3.90
   7   4   1   87.19    3.80
   7   4   1   86.79    3.90
  -7  -4  -1   92.19    5.50
  -7  -4  -1   81.99    4.00
  -7  -4  -1   79.09    4.50
   7   4   1   84.89    4.00
   7   4   2    3.20    1.20
  -7  -4  -2    4.50    1.70
  -7  -4  -2    4.10    1.20
  -7  -4  -2    3.20    1.60
  -7  -4  -2    3.80    1.40
   7   4   2    4.20    1.20
   7   4   2    3.20    1.10
   7   4   2    4.20    1.30
   7   4   2    4.00    1.20
  -7  -4  -2    5.20    1.30
  -7  -4  -2    4.60    1.20
  -7  -4  -3   32.00    3.40
  -7  -4  -3   30.00    2.40
  -7  -4  -3   23.70    2.90
  -7  -4  -3   28.40    2.70
   7   4   3   31.70    2.50
  -7  -4  -3   28.50    2.30
   7   4   3   31.10    2.40
   7   4   3   30.20    2.50
  -7  -4  -3   32.40    2.60
   7   4   3   30.50    2.50
   7   4   3   32.30    2.20
   7   4   3   30.80    2.50
  -7  -4  -4    4.10    1.60
  -7  -4  -4    1.20    1.10
   7   4   4    2.70    1.10
   7   4   4    3.10    1.20
  -7  -4  -4    3.50    1.10
   7   4   4    1.20    0.90
   7   4   4    2.20    1.10
  -7  -4  -4    3.50    1.30
   7   4   4    3.00    1.20
   7   4   5    0.90    1.00
   7   4   5    1.50    0.90
   7   4   5    1.40    1.00
  -7  -4  -5    1.40    1.10
  -7  -4  -5    0.20    0.70
  -7  -4  -5    1.50    1.10
  -7  -4  -5    1.60    1.30
   7   4   6    2.20    1.00
   7   4   6    2.90    0.80
   7   4   6    2.10    1.00
  -7  -4  -6    2.50    0.90
  -7  -4  -6    2.10    1.00
  -7  -4  -6    1.10    0.90
  -7  -4  -6    2.30    1.20
   7   4   7    0.30    0.70
   7   4   7    0.20    0.60
  -7  -4  -7   -0.80    0.90
  -7  -4  -7    0.70    0.80
   7   4   8    4.60    0.70
  -7  -4  -8    5.50    0.80
  -7  -5  14   36.50    1.80
  -7  -5  14   28.60    1.50
  -7  -5  13   34.50    2.30
  -7  -5  13   23.90    1.70
  -7  -5  12   13.30    2.20
  -7  -5  12    8.10    1.40
  -7  -5  11   12.00    2.30
  -7  -5  11   12.00    2.20
  -7  -5  10    3.60    1.20
  -7  -5  10    3.30    1.20
  -7  -5  10    4.20    1.60
  -7  -5   9    2.10    1.10
  -7  -5   9    1.90    1.20
  -7  -5   9    0.80    1.30
  -7  -5   8  122.59    4.90
  -7  -5   8  110.49    6.40
  -7  -5   8  114.59    4.90
  -7  -5   8  102.89    5.00
  -7  -5   8  113.79    5.90
  -7  -5   7   20.50    2.10
  -7  -5   7   20.10    3.10
  -7  -5   7   18.00    2.00
  -7  -5   7   17.10    2.20
  -7  -5   7   18.80    2.50
  -7  -5   6   18.90    2.70
  -7  -5   6   22.60    2.20
  -7  -5   6   25.50    3.50
  -7  -5   6   24.00    2.30
  -7  -5   6   21.10    2.40
  -7  -5   6   22.30    2.70
  -7  -5   5   15.60    2.70
  -7  -5   5   24.20    2.20
  -7  -5   5   24.80    2.30
  -7  -5   5   23.40    3.50
  -7  -5   5   23.40    2.40
  -7  -5   5   20.30    2.60
  -7  -5   4   14.00    2.50
  -7  -5   4   15.70    1.90
  -7  -5   4   15.40    1.90
   7   5  -4   14.10    4.00
   7   5  -4    7.50    2.60
  -7  -5   4   15.20    2.10
  -7  -5   4   16.30    2.20
  -7  -5   3   28.20    2.90
  -7  -5   3   24.90    3.30
  -7  -5   3   21.90    2.10
  -7  -5   3   23.20    2.20
   7   5  -3   20.90    5.20
   7   5  -3   25.60    2.00
   7   5  -3   21.10    4.20
  -7  -5   3   21.90    2.40
  -7  -5   2   17.20    2.50
  -7  -5   2   15.20    2.70
  -7  -5   2   16.10    3.00
   7   5  -2   15.60    1.70
   7   5  -2   18.60    1.90
   7   5  -2   18.40    4.00
  -7  -5   2   14.70    2.00
  -7  -5   2   14.80    1.80
  -7  -5   1    3.60    1.70
  -7  -5   1    2.40    1.70
  -7  -5   1    1.80    0.90
  -7  -5   1    3.90    1.90
   7   5  -1    3.10    1.00
   7   5  -1    4.00    1.10
  -7  -5   1    2.40    1.30
   7   5   0    0.80    1.00
  -7  -5   0    1.10    1.60
  -7  -5   0    0.30    0.90
  -7  -5   0    0.10    1.40
   7   5   0    1.30    0.90
   7   5   0   -0.60    1.00
  -7  -5   0    0.00    1.00
  -7  -5   0   -0.60    0.90
  -7  -5   0    0.50    1.20
  -7  -5  -1   55.29    4.40
  -7  -5  -1   54.19    3.30
  -7  -5  -1   41.40    4.20
  -7  -5  -1   47.60    3.00
  -7  -5  -1   55.49    4.20
   7   5   1   49.00    2.90
   7   5   1   56.59    3.20
   7   5   1   53.89    3.00
   7   5   1   52.59    3.00
  -7  -5  -1   49.70    3.20
  -7  -5  -1   57.59    3.50
   7   5   1   51.19    3.20
  -7  -5  -2    3.90    1.80
  -7  -5  -2    2.50    1.10
   7   5   2    2.60    1.00
   7   5   2    2.40    1.10
   7   5   2    2.80    1.20
   7   5   2    2.00    1.10
   7   5   2    3.00    1.10
  -7  -5  -2    1.40    0.90
  -7  -5  -2    2.90    1.30
   7   5   3    0.40    1.10
  -7  -5  -3   -0.30    1.40
  -7  -5  -3    0.60    0.90
   7   5   3    0.20    0.90
   7   5   3   -0.10    0.80
   7   5   3   -0.50    1.10
   7   5   3   -0.30    1.00
   7   5   3    0.30    0.90
  -7  -5  -3   -0.90    1.10
   7   5   3   -0.20    0.70
  -7  -5  -3    0.40    1.00
   7   5   4    2.30    1.20
  -7  -5  -4    2.70    1.40
   7   5   4    1.80    1.00
   7   5   4    2.10    1.00
  -7  -5  -4    1.00    0.90
   7   5   4    0.90    0.70
  -7  -5  -4    1.70    1.20
   7   5   5    9.30    1.20
   7   5   5   10.30    1.30
  -7  -5  -5    6.90    1.20
  -7  -5  -5   11.70    1.70
   7   5   5    9.20    1.40
  -7  -5  -5    8.80    1.50
   7   5   6   -0.90    0.80
  -7  -5  -6   -0.30    0.60
   7   5   6   -0.20    0.60
   7   5   6    0.10    0.60
  -7  -5  -6   -0.40    0.80
  -7  -5  -6    0.30    0.80
  -7  -5  -7   66.69    2.40
   7   5   7   62.79    2.20
  -7  -6  14   23.20    1.40
  -7  -6  13    6.10    1.50
  -7  -6  13   11.50    1.20
  -7  -6  12    1.00    0.80
  -7  -6  12   -1.20    1.90
  -7  -6  11   63.19    3.30
  -7  -6  11   62.49    3.30
  -7  -6  10   -2.10    2.00
  -7  -6  10    0.30    0.90
  -7  -6  10    0.20    0.80
  -7  -6  10    0.50    1.20
  -7  -6   9   60.49    3.30
  -7  -6   9   64.89    3.60
  -7  -6   9   59.69    3.50
  -7  -6   9   67.79    4.40
  -7  -6   8    3.90    1.30
  -7  -6   8    3.70    1.90
  -7  -6   8    4.60    1.50
  -7  -6   8    3.90    1.30
  -7  -6   8    3.50    1.50
  -7  -6   7    0.60    1.10
  -7  -6   7    1.40    1.70
  -7  -6   7    1.60    1.10
  -7  -6   7    0.40    1.00
  -7  -6   7    0.60    1.20
  -7  -6   6    2.00    1.50
  -7  -6   6    2.40    1.10
  -7  -6   6    1.40    1.60
  -7  -6   6    1.40    1.00
  -7  -6   6    1.60    1.10
  -7  -6   6    2.10    1.50
  -7  -6   5   13.20    2.70
  -7  -6   5   15.90    1.90
  -7  -6   5   16.00    1.90
  -7  -6   5   17.00    3.10
   7   6  -5   18.10    1.60
  -7  -6   5   14.70    2.10
  -7  -6   5   17.50    2.40
  -7  -6   4   43.80    3.50
  -7  -6   4   39.10    4.10
  -7  -6   4   43.50    2.90
  -7  -6   4   44.60    3.00
  -7  -6   4   47.00    4.70
  -7  -6   4   40.50    3.20
  -7  -6   4   45.60    3.30
  -7  -6   3   83.59    5.10
  -7  -6   3   68.49    5.30
  -7  -6   3   81.69    3.90
  -7  -6   3   85.99    6.10
   7   6  -3   92.79    3.80
  -7  -6   3   76.29    4.30
  -7  -6   3   81.39    4.10
  -7  -6   2   33.50    3.40
  -7  -6   2   26.10    3.60
  -7  -6   2   30.70    2.50
   7   6  -2   34.70    2.40
  -7  -6   2   31.40    2.80
  -7  -6   2   33.40    4.00
   7   6  -1    1.10    1.00
  -7  -6   1    1.00    1.80
  -7  -6   1    0.40    1.00
  -7  -6   1    1.20    1.60
   7   6  -1    0.40    0.90
  -7  -6   1    0.90    1.20
  -7  -6   1    0.60    1.30
  -7  -6   0  118.19    6.20
  -7  -6   0  126.19    5.00
  -7  -6   0  105.49    4.50
  -7  -6   0  110.49    6.10
   7   6   0  113.59    4.50
   7   6   0  109.19    4.20
  -7  -6   0  113.49    5.00
  -7  -6   0  119.19    4.80
   7   6   0  117.69    4.70
  -7  -6  -1    9.20    2.10
  -7  -6  -1   10.30    1.70
  -7  -6  -1    9.30    1.90
   7   6   1   10.40    1.60
   7   6   1    9.30    1.40
   7   6   1    8.50    1.30
  -7  -6  -1    9.50    1.60
   7   6   1   10.60    1.70
  -7  -6  -2   24.30    2.80
  -7  -6  -2   26.30    2.30
   7   6   2   24.90    2.20
   7   6   2   25.50    2.10
   7   6   2   21.90    1.90
   7   6   2   24.40    2.00
  -7  -6  -2   27.70    2.40
   7   6   2   24.10    2.30
   7   6   3    1.50    1.10
  -7  -6  -3    1.40    1.30
   7   6   3    0.60    1.00
   7   6   3    1.00    0.80
  -7  -6  -3    1.40    1.00
  -7  -6  -3    1.70    0.90
   7   6   3    1.90    1.00
   7   6   4    3.80    1.10
  -7  -6  -4    3.50    1.20
   7   6   4    4.00    1.00
   7   6   4    3.60    0.80
  -7  -6  -4    4.10    1.10
  -7  -6  -5    8.30    0.90
   7   6   5    9.60    1.10
   7   6   5   11.20    1.20
  -7  -6  -5    9.40    1.30
   7   6   5   10.40    1.20
  -7  -6  -5    7.50    1.10
   7   6   6    1.90    0.70
   7   6   6    1.60    0.60
  -7  -6  -6    2.90    0.70
  -7  -7  13   28.20    1.50
  -7  -7  13   30.80    1.50
  -7  -7  12    3.60    0.80
  -7  -7  12    6.80    1.30
  -7  -7  11   34.10    2.40
  -7  -7  11   28.20    2.10
  -7  -7  10   11.60    1.80
  -7  -7  10    7.20    1.30
  -7  -7   9   17.80    2.10
  -7  -7   9   14.10    1.80
  -7  -7   9   13.40    1.80
  -7  -7   9   15.30    2.30
  -7  -7   8   65.19    3.50
  -7  -7   8   62.99    3.50
  -7  -7   8   62.29    5.00
  -7  -7   8   62.69    3.60
  -7  -7   8   67.29    4.40
  -7  -7   7   32.30    2.60
  -7  -7   7   31.90    2.60
  -7  -7   7   35.20    4.20
  -7  -7   7   32.00    2.80
  -7  -7   7   33.70    3.20
  -7  -7   6   -1.10    1.20
  -7  -7   6    0.90    1.80
  -7  -7   6    0.80    0.90
  -7  -7   6   -0.50    1.20
  -7  -7   6    0.30    1.10
  -7  -7   5   69.79    3.60
  -7  -7   5   72.09    5.70
  -7  -7   5   61.69    3.30
  -7  -7   5   66.69    4.00
  -7  -7   5   70.99    4.10
  -7  -7   4   47.10    3.00
  -7  -7   4   43.50    4.60
   7   7  -4   51.59    2.70
  -7  -7   4   44.20    3.00
  -7  -7   4   45.10    3.30
  -7  -7   4   45.00    3.10
  -7  -7   4   44.70    3.70
  -7  -7   3   14.70    1.80
  -7  -7   3   16.50    3.10
   7   7  -3   15.80    1.60
  -7  -7   3   16.20    2.10
  -7  -7   3   14.50    2.40
   7   7  -2  310.97    7.60
  -7  -7   2  287.37    7.60
  -7  -7   2  294.17   10.80
   7   7  -2  291.27    6.70
  -7  -7   2  293.47    8.40
  -7  -7   2  296.47    9.80
  -7  -7   1    5.40    1.40
  -7  -7   1    2.70    1.10
  -7  -7   1    5.60    2.00
   7   7  -1    4.60    1.30
  -7  -7   1    4.60    1.80
   7   7  -1    5.20    1.40
   7   7  -1    4.30    1.00
  -7  -7   1    4.60    1.40
  -7  -7   0   15.20    1.90
   7   7   0   16.40    1.90
   7   7   0   11.30    1.40
  -7  -7   0   12.80    1.70
   7   7   0   13.30    1.70
  -7  -7   0   12.90    2.40
  -7  -7  -1  107.59    4.30
   7   7   1   98.79    4.20
   7   7   1  103.69    4.00
   7   7   1   88.19    3.30
   7   7   1  106.49    4.00
  -7  -7  -1  109.99    4.40
  -7  -7  -1   98.49    4.90
   7   7   1  106.99    4.20
  -7  -7  -1  101.29    5.30
   7   7   2    0.50    1.00
  -7  -7  -2   -0.10    1.20
   7   7   2   -0.50    1.00
   7   7   2   -1.00    1.10
   7   7   2    0.00    0.80
  -7  -7  -2    0.00    0.80
  -7  -7  -2    0.90    1.00
  -7  -7  -3    5.20    1.30
   7   7   3    5.90    1.10
   7   7   3    6.70    1.00
  -7  -7  -3    6.00    1.20
  -7  -7  -3    6.40    1.10
   7   7   3    6.70    1.20
   7   7   4    3.60    0.90
   7   7   4    3.30    0.80
  -7  -7  -4    3.90    0.90
   7   7   5   -0.10    0.50
   7   7   5    0.40    0.50
  -7  -7  -5    0.40    0.50
  -7  -8  13   72.99    2.30
  -7  -8  12    3.30    0.90
  -7  -8  12    3.50    0.60
  -7  -8  12    2.50    0.80
  -7  -8  11    0.10    1.00
  -7  -8  11    1.10    0.60
  -7  -8  11    1.40    0.70
  -7  -8  10   -0.40    1.20
  -7  -8  10    0.70    0.70
  -7  -8   9   17.10    1.80
  -7  -8   9   18.30    1.80
  -7  -8   9   21.10    1.90
  -7  -8   8    5.40    1.30
  -7  -8   8    8.30    1.40
  -7  -8   8    8.60    1.40
  -7  -8   7   36.30    2.60
  -7  -8   7   38.50    2.80
  -7  -8   6    1.10    1.10
  -7  -8   6   -0.30    1.90
   7   8  -6    1.10    0.80
  -7  -8   6    0.20    0.70
  -7  -8   6    0.10    1.00
  -7  -8   5   91.39    4.00
  -7  -8   5   80.49    5.90
   7   8  -5   93.79    3.30
  -7  -8   5   87.09    3.90
  -7  -8   5   87.49    4.40
  -7  -8   4    0.80    1.20
   7   8  -4    1.20    0.90
  -7  -8   4   -0.70    1.00
  -7  -8   4    0.10    2.00
   7   8  -4   -1.10    0.80
  -7  -8   4    0.00    0.80
  -7  -8   4   -0.70    1.20
  -7  -8   3   -0.10    1.20
  -7  -8   3    0.20    1.00
  -7  -8   3   -0.40    1.80
   7   8  -3    0.70    0.90
  -7  -8   3    0.10    0.80
  -7  -8   3   -0.10    1.10
  -7  -8   2   23.70    2.30
  -7  -8   2   20.70    2.00
   7   8  -2   25.20    2.10
  -7  -8   2   20.60    2.30
  -7  -8   2   20.10    2.60
   7   8  -2   20.60    1.90
  -7  -8   1    5.60    1.80
   7   8  -1    6.50    1.20
  -7  -8   1    7.60    1.50
   7   8  -1    7.20    1.40
  -7  -8   1    5.40    1.60
  -7  -8   0   60.69    3.10
   7   8   0   62.29    3.10
   7   8   0   58.99    2.90
   7   8   0   60.69    2.90
  -7  -8   0   59.79    2.90
   7   8   0   57.09    2.60
  -7  -8   0   61.29    3.80
   7   8   0   55.69    2.80
  -7  -8   0   60.59    4.00
  -7  -8  -1    1.60    1.30
   7   8   1    1.40    0.90
  -7  -8  -1    1.10    0.90
   7   8   1    1.10    0.90
   7   8   1    0.30    0.90
   7   8   1    0.80    0.80
  -7  -8  -1    0.70    0.70
  -7  -8  -1    1.10    1.00
   7   8   1    1.10    0.60
   7   8   2    0.70    0.70
   7   8   2    0.70    0.80
   7   8   2    0.60    0.60
  -7  -8  -2    0.90    0.70
  -7  -8  -2    1.00    0.80
   7   8   3   20.20    1.40
  -7  -8  -3   19.60    1.30
   7   8   3   16.90    1.20
  -7  -9  12    1.50    0.70
  -7  -9  12    2.20    0.70
  -7  -9  11   35.90    2.10
  -7  -9  11   30.60    1.70
  -7  -9  11   35.70    1.90
  -7  -9  10    1.70    0.80
  -7  -9   9  105.39    3.70
  -7  -9   8   16.80    1.70
  -7  -9   8   14.60    1.60
  -7  -9   7   61.49    3.00
  -7  -9   7   57.69    3.10
   7   9  -6    0.60    0.70
  -7  -9   6    1.30    1.00
  -7  -9   6    0.30    0.70
  -7  -9   6    0.00    0.90
  -7  -9   6    0.80    1.00
   7   9  -5    5.80    1.00
  -7  -9   5    4.60    1.20
  -7  -9   5    4.30    1.00
  -7  -9   5    3.60    1.20
  -7  -9   5    3.50    1.40
  -7  -9   4   36.00    2.40
  -7  -9   4   32.60    2.30
  -7  -9   4   30.60    2.30
  -7  -9   4   33.00    2.60
  -7  -9   4   33.30    2.90
   7   9  -4   29.80    1.90
  -7  -9   3    5.90    1.20
   7   9  -3    9.20    1.40
  -7  -9   3    8.40    1.40
  -7  -9   3    5.60    1.20
  -7  -9   3    7.40    1.70
   7   9  -3    6.90    1.10
  -7  -9   2   32.10    2.20
   7   9  -2   30.50    2.00
   7   9  -2   29.40    2.00
  -7  -9   2   28.70    2.20
  -7  -9   2   31.20    2.80
   7   9  -2   27.20    1.80
  -7  -9   1   33.20    2.10
   7   9  -1   30.90    2.00
   7   9  -1   30.90    1.90
  -7  -9   1   31.90    2.20
   7   9  -1   31.00    2.00
  -7  -9   1   32.80    2.60
   7   9  -1   27.70    1.70
   7   9  -1   30.00    1.80
   7   9   0   25.70    1.70
   7   9   0   25.70    1.70
  -7  -9   0   26.50    1.90
   7   9   0   26.10    1.70
   7   9   0   23.40    1.40
  -7  -9   0   29.00    2.20
   7   9   0   25.30    1.50
   7   9   1   19.80    1.40
  -7  -9  -1   18.70    1.40
   7   9   1   18.40    1.30
  -7  -9  -1   20.50    1.50
   7   9   1   15.90    1.10
   7   9   2    0.30    0.50
  -7  -9  -2    0.60    0.50
  -7 -10  11    7.20    0.90
  -7 -10  11    6.20    0.70
  -7 -10  10    0.20    0.60
  -7 -10  10    1.50    0.60
  -7 -10   9   68.09    2.70
  -7 -10   9   65.89    2.50
  -7 -10   8    7.50    1.00
  -7 -10   8    8.80    1.10
  -7 -10   7   -0.10    0.60
  -7 -10   7   -0.20    0.70
  -7 -10   7   -0.20    0.50
  -7 -10   7    0.80    0.70
  -7 -10   6   23.80    1.70
  -7 -10   6   19.70    1.60
  -7 -10   6   18.70    1.50
  -7 -10   6   22.10    1.80
  -7 -10   5    1.30    0.80
  -7 -10   5    0.50    0.70
   7  10  -5    1.10    0.60
   7  10  -5    1.70    0.80
  -7 -10   5    0.90    0.70
  -7 -10   5    0.00    0.90
  -7 -10   4    4.40    0.90
  -7 -10   4    3.80    0.90
   7  10  -4    4.20    0.80
   7  10  -4    5.10    0.90
   7  10  -4    3.40    0.60
  -7 -10   4    3.70    0.90
  -7 -10   4    3.80    1.20
  -7 -10   3   10.90    1.20
   7  10  -3    8.40    1.00
   7  10  -3   10.60    1.10
  -7 -10   3    9.70    1.20
   7  10  -3   11.90    1.20
  -7 -10   3   11.40    1.60
   7  10  -3    8.50    0.80
  -7 -10   2    8.40    1.00
   7  10  -2    8.40    1.00
   7  10  -2    7.20    0.90
  -7 -10   2    8.40    1.10
   7  10  -2    8.80    1.00
  -7 -10   2    8.80    1.30
   7  10  -2    8.90    0.90
   7  10  -2    6.30    0.70
   7  10  -1    0.80    0.60
  -7 -10   1   -0.10    0.60
   7  10  -1    0.20    0.60
  -7 -10   1    0.30    0.70
   7  10  -1    0.00    0.40
  -7 -10   0    1.10    0.50
   7  10   0    1.70    0.60
  -7 -11   9   18.60    1.20
  -7 -11   8   25.90    1.30
  -7 -11   7    1.20    0.50
   7  11  -7    1.50    0.40
  -7 -11   6    5.60    0.70
   7  11  -6    6.30    0.70
   7  11  -6    7.80    0.80
  -7 -11   5   19.60    1.10
   7  11  -5   20.80    1.00
  -7 -11   5   20.10    1.20
   7  11  -5   23.50    1.20
  -7 -11   5   24.00    1.50
  -7 -11   4   19.80    1.20
   7  11  -4   23.30    1.20
  -7 -11   4   24.40    1.50
   7  11  -4   22.70    1.20
   7  11  -3    0.20    0.50
  -7 -11   3    0.10    0.60
   8 -13   2    7.10    0.80
   8 -13   3   10.50    0.90
  -8  13  -3   10.80    1.20
   8 -13   4    1.90    0.60
  -8  13  -4    2.10    0.80
  -8  13  -4    1.90    0.70
   8 -13   5    9.30    0.90
  -8  13  -5   11.00    1.10
  -8  13  -5   11.80    1.20
  -8  12   1   20.20    1.80
   8 -12  -1   18.30    1.20
  -8  12   0   15.60    1.30
  -8  12   0   19.70    1.70
   8 -12   0   18.40    1.40
   8 -12   1    0.80    0.50
   8 -12   1    1.20    0.70
  -8  12  -1    0.60    1.00
  -8  12  -1    0.50    0.80
  -8  12  -1    0.20    0.90
   8 -12   1    1.00    0.70
   8 -12   2    4.90    0.70
   8 -12   2    5.10    1.00
  -8  12  -2    5.50    1.40
  -8  12  -2    4.90    1.20
  -8  12  -2    5.00    1.30
  -8  12  -2    4.90    1.00
   8 -12   2    5.90    1.00
   8 -12   3    8.10    1.10
  -8  12  -3   10.70    1.50
   8 -12   3    6.50    0.90
  -8  12  -3    8.90    1.50
  -8  12  -3    9.50    1.40
  -8  12  -3    9.60    1.40
   8 -12   3    7.30    1.10
   8 -12   4    4.20    0.80
   8 -12   4    4.90    1.00
  -8  12  -4    4.80    1.10
  -8  12  -4    4.90    1.20
  -8  12  -4    4.30    1.10
  -8  12  -4    5.20    1.20
   8 -12   5   43.90    2.00
   8 -12   5   43.70    2.20
  -8  12  -5   53.39    2.90
  -8  12  -5   45.60    2.20
  -8  12  -5   53.99    2.90
   8 -12   6    1.80    0.80
  -8  12  -6    3.00    0.90
  -8  12  -6    3.10    1.00
   8 -12   7   29.80    1.60
  -8  12  -7   31.00    2.00
   8 -12   8   19.90    1.20
  -8  12  -8   17.10    1.20
  -8  11   3    2.50    1.00
   8 -11  -3    2.50    0.70
  -8  11   2  101.49    4.10
   8 -11  -2   90.89    3.10
  -8  11   1    2.30    1.30
   8 -11  -1    3.30    0.70
  -8  11   1    2.00    0.80
  -8  11   1    3.70    1.20
   8 -11  -1    2.70    0.90
   8 -11   0   14.10    1.30
  -8  11   0   17.10    2.30
  -8  11   0   15.00    1.80
  -8  11   0   15.20    2.00
   8 -11   0   16.40    1.70
   8 -11   1    0.90    0.80
  -8  11  -1    1.30    1.30
  -8  11  -1    0.40    1.00
  -8  11  -1    1.80    1.30
  -8  11  -1    1.80    0.90
   8 -11   1    1.00    0.90
  -8  11  -2   12.50    2.10
  -8  11  -2   12.20    1.90
   8 -11   2    9.50    1.30
  -8  11  -2   13.40    2.00
   8 -11   2   10.30    1.50
   8 -11   3   49.10    2.70
  -8  11  -3   64.49    3.80
   8 -11   3   54.79    2.70
  -8  11  -3   66.69    3.90
   8 -11   3   49.40    2.20
  -8  11  -3   59.69    3.50
   8 -11   3   57.19    3.10
   8 -11   4   13.80    1.60
  -8  11  -4   16.90    2.10
  -8  11  -4   18.90    2.10
   8 -11   4   14.60    1.30
  -8  11  -4   19.20    2.00
   8 -11   4   15.70    1.60
   8 -11   4   17.10    1.90
   8 -11   5   39.90    2.30
   8 -11   5   36.60    2.40
  -8  11  -5   39.50    2.80
   8 -11   5   34.00    1.90
  -8  11  -5   35.80    2.30
   8 -11   6   42.70    2.40
   8 -11   6   42.80    2.40
  -8  11  -6   49.60    2.90
   8 -11   6   39.50    2.10
  -8  11  -6   46.60    3.00
   8 -11   7    0.70    0.80
  -8  11  -7    0.60    0.70
   8 -11   7    0.30    0.60
  -8  11  -7    0.30    0.90
   8 -11   8   43.30    2.10
  -8  11  -8   45.70    2.30
   8 -11   9    5.00    0.80
   8 -11   9    3.10    0.60
   8 -10  -5    4.30    0.70
  -8  10   5    4.40    0.80
   8 -10  -4   17.40    1.10
  -8  10   4   17.30    1.70
  -8  10   4   17.00    1.60
   8 -10  -4   18.10    1.50
  -8  10   4   17.80    1.60
   8 -10  -3    0.40    0.60
  -8  10   3   -0.20    1.10
   8 -10  -3    0.80    0.90
  -8  10   3   -0.60    0.80
   8 -10  -2   14.40    1.40
  -8  10   2   14.40    2.20
  -8  10   2   14.40    1.60
  -8  10   2   11.80    1.90
   8 -10  -2   13.50    1.60
   8 -10  -1   25.20    2.00
  -8  10   1   30.70    3.10
  -8  10   1   26.80    2.40
  -8  10   1   28.70    2.80
  -8  10   1   28.10    2.70
   8 -10  -1   26.00    2.20
   8 -10   0    1.90    1.00
  -8  10   0    0.90    1.50
   8 -10   0    1.40    0.70
  -8  10   0    1.90    1.20
  -8  10   0    2.30    1.60
   8 -10   0    1.10    0.70
  -8  10   0    1.50    1.00
  -8  10   0    0.00    1.20
   8 -10   0    2.00    1.20
   8 -10   1    4.50    1.20
  -8  10  -1    5.40    1.90
   8 -10   1    3.30    0.80
  -8  10  -1    6.60    1.70
  -8  10  -1    6.20    1.70
   8 -10   1    4.70    1.00
  -8  10  -1    6.50    1.50
   8 -10   1    3.90    1.40
   8 -10   2   32.70    2.40
  -8  10  -2   39.90    3.50
  -8  10  -2   36.90    3.30
   8 -10   2   30.10    2.10
  -8  10  -2   34.70    3.10
   8 -10   2   36.40    2.80
   8 -10   3    0.60    1.00
   8 -10   3    0.90    1.00
  -8  10  -3    2.10    1.40
  -8  10  -3    1.00    1.40
  -8  10  -3    0.70    1.10
   8 -10   3    1.90    0.90
   8 -10   3    0.40    1.20
   8 -10   4   31.00    2.40
   8 -10   4   28.70    2.40
  -8  10  -4   38.10    3.10
  -8  10  -4   33.70    3.00
   8 -10   4   28.90    2.20
  -8  10  -4   34.20    2.70
   8 -10   4   30.80    2.70
   8 -10   5    0.80    1.10
   8 -10   5    0.40    1.00
  -8  10  -5   -0.30    1.10
  -8  10  -5    1.80    0.90
   8 -10   5   -0.10    0.80
   8 -10   6   11.60    1.60
  -8  10  -6   12.90    1.70
   8 -10   6   13.10    1.70
   8 -10   6   11.30    1.50
   8 -10   7  107.79    4.10
   8 -10   7   99.09    3.90
  -8  10  -7  102.19    3.90
   8 -10   7   99.99    3.80
  -8  10  -7  110.49    4.50
   8 -10   8   12.80    1.50
   8 -10   8    9.80    1.30
  -8  10  -8   10.80    1.40
   8 -10   9   25.90    1.70
  -8  10  -9   22.50    1.60
  -8  10 -10    0.80    0.60
   8 -10  10   -1.20    0.60
   8  -9  -6    3.90    0.60
   8  -9  -6    5.30    0.80
  -8   9   6    6.30    1.20
   8  -9  -5   -0.50    0.70
  -8   9   5   -0.30    0.70
   8  -9  -5   -0.30    0.60
  -8   9   5   -0.40    0.80
   8  -9  -5   -0.10    0.70
  -8   9   5    0.10    0.90
   8  -9  -4    0.40    0.80
  -8   9   4    1.20    1.10
   8  -9  -4    1.10    0.80
   8  -9  -4    0.60    0.90
  -8   9   4    0.50    0.90
   8  -9  -3    9.70    1.40
  -8   9   3   11.50    2.00
   8  -9  -3    9.10    1.40
  -8   9   3    9.30    1.90
  -8   9   3    9.40    1.80
   8  -9  -3    8.30    1.10
   8  -9  -3   10.20    1.50
  -8   9   3    9.50    1.60
   8  -9  -2   69.09    3.30
  -8   9   2   73.09    4.60
  -8   9   2   75.19    4.40
  -8   9   2   69.89    3.80
  -8   9   2   73.39    4.30
   8  -9  -2   63.79    2.90
  -8   9   2   69.49    4.30
   8  -9  -2   69.79    3.60
  -8   9   2   74.79    3.90
   8  -9  -1   11.40    1.60
  -8   9   1   11.30    2.30
  -8   9   1   12.60    2.10
  -8   9   1   10.80    1.90
   8  -9  -1    9.30    1.40
  -8   9   1   11.50    2.10
  -8   9   1   11.00    1.60
  -8   9   1   10.50    2.00
   8  -9  -1   10.40    1.70
   8  -9   0   74.79    3.70
  -8   9   0   77.59    5.00
  -8   9   0   73.29    4.20
  -8   9   0   72.99    4.40
   8  -9   0   64.99    3.20
  -8   9   0   73.49    4.60
  -8   9   0   69.59    4.30
   8  -9   0   69.59    3.80
   8  -9   1   26.30    2.40
  -8   9  -1   25.50    3.10
  -8   9  -1   25.90    2.90
   8  -9   1   22.70    2.00
  -8   9  -1   24.70    2.90
  -8   9  -1   24.40    2.60
   8  -9   1   23.90    2.40
   8  -9   2    0.90    1.10
  -8   9  -2    1.30    1.50
  -8   9  -2    1.20    1.40
  -8   9  -2    1.00    1.30
   8  -9   2    0.80    0.90
   8  -9   2    1.70    1.20
   8  -9   3  109.49    4.70
   8  -9   3   94.79    4.20
  -8   9  -3  117.69    5.80
  -8   9  -3  118.29    5.70
   8  -9   3  105.09    4.40
  -8   9  -3  115.19    5.20
   8  -9   3  107.09    4.90
   8  -9   4    1.90    1.20
  -8   9  -4    3.10    1.40
  -8   9  -4    2.10    1.40
   8  -9   4    2.30    1.30
  -8   9  -4    1.70    1.10
   8  -9   4    2.10    1.10
   8  -9   4    2.50    1.40
   8  -9   5   13.10    1.80
   8  -9   5   12.30    1.90
  -8   9  -5   15.00    2.10
   8  -9   5   13.00    1.80
   8  -9   6    1.30    1.30
   8  -9   6    1.30    1.00
   8  -9   6    0.60    0.60
  -8   9  -6    1.20    1.00
   8  -9   6    0.70    1.10
   8  -9   7   38.40    2.80
   8  -9   7   33.30    2.50
   8  -9   7   30.10    1.80
   8  -9   7   39.20    2.70
  -8   9  -7   35.30    2.80
   8  -9   8    2.80    1.10
   8  -9   8    2.30    0.80
   8  -9   8    2.20    1.00
  -8   9  -8    3.30    1.00
   8  -9   9   17.50    1.60
   8  -9   9   15.90    1.30
  -8   9  -9   17.60    1.60
   8  -9  10   19.60    1.20
  -8   9 -10   24.60    1.70
   8  -8  -8   22.50    1.10
  -8   8   8   27.00    1.70
   8  -8  -7    2.70    0.70
   8  -8  -7    3.70    0.80
   8  -8  -7    3.30    0.70
  -8   8   7    3.40    1.10
   8  -8  -6   63.69    2.60
   8  -8  -6   64.99    2.80
   8  -8  -6   58.89    2.60
  -8   8   6   66.69    3.70
  -8   8   5   18.30    2.10
   8  -8  -5   17.30    1.80
   8  -8  -5   17.00    1.40
   8  -8  -5   17.60    1.70
   8  -8  -5   17.70    1.70
  -8   8   5   19.50    2.30
   8  -8  -4   44.60    2.70
  -8   8   4   46.30    3.50
   8  -8  -4   42.70    2.80
   8  -8  -4   42.20    2.40
   8  -8  -4   41.90    2.70
  -8   8   4   47.50    3.50
  -8   8   3   37.10    3.40
   8  -8  -3   42.40    2.80
  -8   8   3   38.40    3.40
  -8   8   3   38.20    2.80
  -8   8   3   34.40    3.20
   8  -8  -3   37.40    2.40
   8  -8  -3   43.70    2.80
   8  -8  -3   40.80    2.90
  -8   8   3   44.30    3.30
  -8   8   2   97.69    5.60
   8  -8  -2  104.19    4.50
  -8   8   2   96.09    5.20
  -8   8   2  102.09    5.00
  -8   8   2  101.09    5.40
   8  -8  -2   97.59    4.00
   8  -8  -2  103.09    4.40
  -8   8   2   98.89    5.20
   8  -8  -2  100.89    4.50
  -8   8   2  114.29    5.10
   8  -8  -1  244.98    7.10
  -8   8   1  256.57    9.10
  -8   8   1  240.18    8.10
  -8   8   1  243.48    8.20
  -8   8   1  246.38    8.50
   8  -8  -1  233.58    6.60
  -8   8   1  225.18    7.20
  -8   8   1  238.18    8.10
   8  -8  -1  236.48    7.20
   8  -8   0   31.90    2.70
  -8   8   0   31.00    3.30
  -8   8   0   27.20    2.70
  -8   8   0   32.20    3.10
  -8   8   0   29.60    3.10
   8  -8   0   28.10    2.40
  -8   8   0   30.10    2.90
   8  -8   0   28.90    2.60
   8  -8   1   52.99    3.40
  -8   8  -1   62.79    4.60
  -8   8  -1   56.39    4.10
   8  -8   1   51.69    3.20
  -8   8  -1   60.39    4.10
  -8   8  -1   54.49    3.70
   8  -8   1   55.79    3.50
   8  -8   2    0.60    1.10
  -8   8  -2    1.40    1.50
  -8   8  -2    0.70    1.20
  -8   8  -2    0.80    1.20
   8  -8   2    0.60    1.00
   8  -8   2    1.20    1.30
   8  -8   3   52.99    3.10
  -8   8  -3   65.99    4.40
   8  -8   3   61.29    3.70
  -8   8  -3   66.39    4.30
   8  -8   3   58.09    3.50
  -8   8  -3   66.29    4.00
   8  -8   3   60.59    3.70
   8  -8   4   89.29    4.10
  -8   8  -4  105.49    5.30
  -8   8  -4  105.69    5.30
   8  -8   4   95.19    4.40
  -8   8  -4  103.29    4.60
   8  -8   4   94.49    4.60
   8  -8   4  101.99    4.80
   8  -8   5    0.90    1.20
   8  -8   5    0.30    0.90
  -8   8  -5    1.40    1.10
   8  -8   5    1.40    1.20
   8  -8   6   60.89    3.70
   8  -8   6   59.49    3.40
  -8   8  -6   66.99    3.70
   8  -8   6   61.99    3.60
  -8   8  -6   62.89    4.00
   8  -8   7   11.30    1.90
   8  -8   7   11.60    1.70
   8  -8   7   10.40    1.30
   8  -8   7    9.60    1.30
   8  -8   7    9.50    1.70
  -8   8  -7    9.20    1.60
   8  -8   8    9.50    1.50
   8  -8   8    9.50    1.20
   8  -8   8    9.80    1.30
   8  -8   8   10.00    1.60
  -8   8  -8    9.80    1.40
  -8   8  -8   11.10    1.60
   8  -8   9   -0.40    0.90
   8  -8   9    0.00    0.70
   8  -8   9   -0.40    0.80
  -8   8  -9    0.20    0.70
   8  -8  10   28.90    1.60
   8  -8  10   26.90    1.60
  -8   8 -10   27.90    1.90
   8  -8  11   -1.20    0.60
  -8   8 -11   -0.10    0.50
   8  -8  11   -0.70    0.50
   8  -7  -9   18.60    1.10
  -8   7   9   19.60    1.60
   8  -7  -8   56.89    2.10
  -8   7   8   59.89    3.00
   8  -7  -8   58.49    2.40
  -8   7   8   61.19    3.30
   8  -7  -7    7.70    1.20
   8  -7  -7    8.50    1.30
   8  -7  -7    7.00    1.00
  -8   7   7    8.30    1.70
   8  -7  -6  110.09    4.20
  -8   7   6  104.99    4.70
   8  -7  -6  109.09    3.90
   8  -7  -6   96.69    3.80
  -8   7   6  110.79    5.30
   8  -7  -5   26.40    2.20
  -8   7   5   21.60    2.40
   8  -7  -5   22.90    2.20
   8  -7  -5   21.70    2.00
  -8   7   5   25.60    2.80
   8  -7  -4    0.60    1.10
  -8   7   4    0.70    1.20
   8  -7  -4    0.10    1.00
   8  -7  -4   -0.10    1.00
  -8   7   4   -0.10    1.10
   8  -7  -3   12.90    1.80
  -8   7   3   14.10    2.40
   8  -7  -3   13.50    1.90
  -8   7   3   12.50    2.30
  -8   7   3   10.40    1.80
  -8   7   3   10.60    2.00
   8  -7  -3   10.50    1.60
  -8   7   3   13.30    2.00
   8  -7  -2  158.18    5.70
  -8   7   2  161.68    7.10
   8  -7  -2  156.48    5.70
  -8   7   2  148.49    6.50
  -8   7   2  145.79    6.20
  -8   7   2  147.69    6.50
  -8   7   2  145.59    6.40
   8  -7  -2  145.69    5.40
  -8   7   2  165.48    6.40
   8  -7  -1   -0.30    1.10
  -8   7   1    0.60    1.30
   8  -7  -1    0.60    0.90
  -8   7   1    0.60    1.20
  -8   7   1    0.70    1.10
  -8   7   1   -0.30    1.30
   8  -7  -1    0.50    1.00
  -8   7   1   -0.60    1.10
  -8   7   1   -0.20    1.20
   8  -7  -1   -0.50    1.00
   8  -7   0   56.19    3.40
  -8   7   0   59.39    4.40
  -8   7   0   59.09    4.10
  -8   7   0   58.59    4.10
   8  -7   0   58.09    3.40
  -8   7   0   60.39    4.00
   8  -7   0   55.69    3.40
  -8   7  -1  113.79    5.90
  -8   7  -1  111.89    5.60
  -8   7  -1  107.39    5.30
   8  -7   1  103.89    4.60
   8  -7   1  112.29    4.80
   8  -7   1  105.09    4.70
   8  -7   2   77.19    4.00
  -8   7  -2   77.89    4.90
  -8   7  -2   81.69    4.80
   8  -7   2   75.89    4.00
  -8   7  -2   79.79    4.40
   8  -7   2   78.89    4.10
   8  -7   3   18.40    2.20
   8  -7   3   18.10    1.90
  -8   7  -3   23.30    2.80
  -8   7  -3   20.80    2.60
   8  -7   3   17.20    2.10
  -8   7  -3   21.40    2.30
   8  -7   3   17.60    1.80
   8  -7   3   18.80    2.20
   8  -7   4    0.70    1.20
   8  -7   4    0.50    1.00
  -8   7  -4    0.40    1.10
  -8   7  -4    0.10    1.10
   8  -7   4    0.30    1.10
   8  -7   4   -0.10    0.90
   8  -7   4    0.70    1.20
   8  -7   5    7.40    1.60
   8  -7   5    6.40    1.40
   8  -7   5    6.60    1.20
  -8   7  -5    8.50    1.60
   8  -7   5    7.60    1.60
  -8   7  -5    8.70    1.90
   8  -7   5    8.00    1.40
   8  -7   6   43.80    3.20
   8  -7   6   43.00    2.90
   8  -7   6   40.30    2.70
  -8   7  -6   44.70    3.00
   8  -7   6   40.40    3.10
  -8   7  -6   45.40    3.40
   8  -7   6   44.90    2.80
   8  -7   7   -0.10    1.20
   8  -7   7    0.40    0.90
   8  -7   7    0.20    0.90
   8  -7   7    0.00    1.30
  -8   7  -7    0.00    0.90
   8  -7   8   19.90    1.90
   8  -7   8   17.90    1.80
   8  -7   8   17.30    1.80
   8  -7   8   17.50    2.00
  -8   7  -8   18.40    2.00
   8  -7   9   16.60    1.70
   8  -7   9   14.40    1.60
  -8   7  -9   16.80    1.90
  -8   7  -9   17.80    1.70
   8  -7  10    2.40    0.90
   8  -7  10    2.30    0.90
  -8   7 -10    2.00    0.90
   8  -7  11    1.80    0.70
  -8   7 -11    3.00    0.60
  -8   7 -11    2.20    0.70
   8  -7  11    1.20    0.50
   8  -6 -10    0.90    0.40
   8  -6  -9    6.60    0.90
   8  -6  -9    6.50    0.90
   8  -6  -9    5.30    0.70
  -8   6   9    7.60    1.40
   8  -6  -8    1.20    0.90
  -8   6   8   -0.30    1.10
   8  -6  -8    0.20    0.80
   8  -6  -8   -1.80    0.70
   8  -6  -8   -0.20    0.60
  -8   6   8    0.40    1.10
   8  -6  -7   95.09    3.80
   8  -6  -7   88.89    3.80
  -8   6   7   91.29    5.00
   8  -6  -6    3.00    1.40
   8  -6  -6    0.30    1.00
  -8   6   6    0.20    1.20
   8  -6  -6    0.20    0.70
   8  -6  -6    3.50    1.10
  -8   6   6    0.00    1.30
   8  -6  -5    2.40    1.30
  -8   6   5    1.60    1.20
   8  -6  -5    1.90    1.20
   8  -6  -5    0.50    0.80
   8  -6  -5    0.10    0.90
   8  -6  -5    0.90    0.90
  -8   6   5    0.90    1.20
   8  -6  -4   31.00    2.60
  -8   6   4   25.80    2.90
   8  -6  -4   26.80    2.50
  -8   6   4   23.10    2.30
   8  -6  -4   24.90    1.90
   8  -6  -4   19.10    1.80
   8  -6  -4   25.80    2.20
  -8   6   4   28.70    3.00
   8  -6  -3  162.88    5.70
  -8   6   3  149.39    6.80
   8  -6  -3  161.98    5.90
  -8   6   3  141.89    6.00
  -8   6   3  144.19    6.40
   8  -6  -3  151.58    4.70
   8  -6  -3  148.99    5.30
  -8   6   3  164.08    6.60
   8  -6  -2  447.86    9.90
  -8   6   2  435.56   11.90
   8  -6  -2  431.26   10.00
  -8   6   2  397.86   10.70
  -8   6   2  413.76   11.10
   8  -6  -2  416.26    8.30
  -8   6   2  380.76    9.70
   8  -6  -2  410.66    9.40
   8  -6  -1    8.10    1.60
  -8   6   1    8.00    1.90
   8  -6  -1    6.50    1.40
  -8   6   1    6.80    1.60
  -8   6   1    6.90    1.70
   8  -6  -1    6.70    1.10
  -8   6   1    5.90    1.40
   8  -6  -1    6.10    1.30
   8  -6   0   22.60    2.20
  -8   6   0   21.70    2.70
  -8   6   0   20.90    2.50
  -8   6   0   19.40    2.50
   8  -6   0   21.70    2.20
  -8   6   0   17.80    2.30
   8  -6   0   19.60    2.10
  -8   6  -1  144.99    6.60
  -8   6  -1  135.49    6.00
  -8   6  -1  135.39    5.80
   8  -6   1  132.29    5.10
   8  -6   1  129.39    5.10
   8  -6   1  123.89    5.00
   8  -6   2   18.30    1.80
  -8   6  -2   22.30    2.70
  -8   6  -2   19.60    2.40
   8  -6   2   18.10    2.10
  -8   6  -2   20.90    2.20
   8  -6   2   18.10    2.10
   8  -6   2   18.70    2.00
   8  -6   3   46.10    3.10
   8  -6   3   40.80    2.60
  -8   6  -3   53.19    3.80
  -8   6  -3   52.49    3.70
   8  -6   3   41.50    3.00
   8  -6   3   47.90    3.20
   8  -6   4   15.20    1.70
  -8   6  -4   16.90    2.20
   8  -6   4   16.20    2.10
  -8   6  -4   16.90    2.20
   8  -6   4   16.00    2.00
  -8   6  -4   16.70    2.40
   8  -6   4   15.00    1.80
   8  -6   4   16.00    2.00
   8  -6   5   48.30    3.30
   8  -6   5   47.70    3.00
  -8   6  -5   54.59    3.50
   8  -6   5   47.80    2.90
   8  -6   5   46.70    3.20
  -8   6  -5   51.59    3.70
   8  -6   5   47.40    3.00
   8  -6   6    0.80    1.20
   8  -6   6    0.50    0.90
   8  -6   6    1.00    1.10
   8  -6   6    0.20    1.10
  -8   6  -6    0.20    1.00
   8  -6   6   -0.10    1.00
   8  -6   7   34.90    2.50
   8  -6   7   32.50    2.60
   8  -6   7   33.50    2.80
  -8   6  -7   33.00    2.60
  -8   6  -7   33.60    2.80
   8  -6   8   12.00    1.60
   8  -6   8   10.40    1.60
   8  -6   8   11.50    1.60
   8  -6   8   10.70    1.70
  -8   6  -8   10.30    1.60
   8  -6   9   12.70    1.60
   8  -6   9   13.40    1.60
  -8   6  -9   13.40    1.70
  -8   6  -9   11.30    1.40
   8  -6  10   85.69    3.30
  -8   6 -10   79.19    3.20
  -8   6 -10   87.39    3.50
   8  -6  11   -0.10    0.60
  -8   6 -11    1.40    0.50
  -8   6 -11    1.80    0.70
  -8   6 -11   -1.40    1.10
   8  -6  11   -0.70    0.50
   8  -5 -10   11.50    1.10
   8  -5 -10    8.30    0.90
  -8   5  10    8.30    1.40
   8  -5  -9   62.69    2.10
  -8   5   9   51.39    3.00
   8  -5  -9   51.99    2.50
   8  -5  -9   54.89    2.00
   8  -5  -9   52.59    2.10
   8  -5  -9   43.70    1.90
  -8   5   9   56.39    3.60
   8  -5  -8    5.10    1.20
  -8   5   8    4.60    1.00
  -8   5   8    4.70    1.70
   8  -5  -7   58.29    3.30
  -8   5   7   49.70    3.50
  -8   5   7   61.49    4.40
   8  -5  -6   95.29    4.30
  -8   5   6   87.69    5.10
  -8   5   6   96.59    5.50
  -8   5   5   88.69    4.90
   8  -5  -5   93.99    4.40
   8  -5  -5  101.59    4.00
  -8   5   5   97.89    5.50
   8  -5  -4  142.29    5.30
  -8   5   4  120.59    6.00
   8  -5  -4  130.19    5.10
  -8   5   4  108.49    5.10
   8  -5  -4  128.29    4.50
   8  -5  -4  131.59    4.50
   8  -5  -4  121.39    4.60
  -8   5   4  132.69    6.10
   8  -5  -3    4.40    1.30
  -8   5   3    2.30    1.30
   8  -5  -3    1.90    1.10
  -8   5   3    2.70    1.20
  -8   5   3    2.50    1.30
   8  -5  -3    1.50    0.80
   8  -5  -3    0.70    1.00
   8  -5  -3    3.50    1.00
  -8   5   3    3.10    1.20
   8  -5  -2   11.10    1.70
  -8   5   2    8.90    1.90
  -8   5   2    1.10    4.90
   8  -5  -2    6.60    0.90
   8  -5  -2   10.30    1.60
  -8   5   2    8.90    1.70
   8  -5  -2    9.50    2.30
  -8   5   2    5.80    3.70
  -8   5   2    8.70    1.80
   8  -5  -2    8.50    1.30
   8  -5  -2    7.20    2.20
  -8   5   2    8.20    1.50
   8  -5  -2    9.30    1.40
  -8   5   1    1.60    1.30
   8  -5  -1    1.60    1.00
   8  -5  -1   -1.20    0.70
   8  -5  -1    1.40    0.80
  -8   5   1    2.20    1.20
  -8   5   1    0.00    2.20
  -8   5   1    1.90    1.30
   8  -5  -1    0.40    0.90
   8  -5  -1    1.50    1.20
  -8   5   1    2.10    1.00
   8  -5  -1    0.80    0.80
   8  -5   0    0.30    1.00
  -8   5   0   -0.20    1.20
  -8   5   0    0.60    1.00
  -8   5   0   -2.00    2.50
  -8   5   0   -0.20    1.00
   8  -5   0    0.10    0.90
   8  -5   0   -0.60    0.90
   8  -5   0    2.50    1.90
  -8   5   0    0.80    1.00
   8  -5   0    0.50    0.80
   8  -5   1   30.50    2.40
  -8   5  -1   32.30    3.20
  -8   5  -1   33.10    3.00
  -8   5  -1   18.60    4.90
  -8   5  -1   31.10    2.70
   8  -5   1   29.40    2.40
   8  -5   1   21.10    3.90
  -8   5  -1   30.10    2.80
   8  -5   1   27.80    2.30
   8  -5   2    6.60    1.40
  -8   5  -2    8.70    1.90
  -8   5  -2    9.00    3.30
  -8   5  -2    8.50    1.70
  -8   5  -2    7.50    1.40
   8  -5   2    8.60    1.50
   8  -5   2    4.60    2.30
  -8   5  -2    7.90    1.70
   8  -5   2    7.50    1.40
   8  -5   3  203.58    6.60
  -8   5  -3  228.98    7.90
  -8   5  -3  234.78    7.60
   8  -5   3  205.48    6.50
  -8   5  -3  223.98    7.60
   8  -5   3  223.98    6.70
   8  -5   4   78.29    4.00
   8  -5   4   74.49    3.40
  -8   5  -4   80.59    4.50
  -8   5  -4   85.89    4.40
   8  -5   4   80.49    4.10
  -8   5  -4   85.19    4.60
   8  -5   4   73.39    3.80
   8  -5   5   72.49    3.80
   8  -5   5   73.59    3.50
  -8   5  -5   73.59    3.90
   8  -5   5   67.99    3.80
  -8   5  -5   71.49    4.20
   8  -5   5   62.79    3.60
   8  -5   6   -0.40    1.00
   8  -5   6   -0.30    0.80
   8  -5   6    0.40    1.10
   8  -5   6   -0.10    1.20
  -8   5  -6    0.30    1.00
   8  -5   6    0.20    1.00
  -8   5  -6   -0.50    1.20
   8  -5   7    1.60    0.90
   8  -5   7    0.50    1.10
   8  -5   7    0.40    1.10
  -8   5  -7    0.40    1.00
   8  -5   8   59.69    2.90
   8  -5   8   59.79    3.40
   8  -5   8   54.69    3.00
  -8   5  -8   68.69    3.90
   8  -5   8   65.09    3.50
  -8   5  -8   61.09    3.40
   8  -5   9   48.30    2.90
   8  -5   9   43.00    2.50
  -8   5  -9   52.29    3.10
   8  -5   9   50.29    2.50
  -8   5  -9   46.90    2.60
   8  -5  10   17.80    1.40
   8  -5  10   19.10    1.80
   8  -5  10   16.30    1.40
  -8   5 -10   18.10    1.60
  -8   5 -10   18.70    1.80
   8  -5  11    2.20    0.60
   8  -5  11    1.20    0.60
  -8   5 -11    3.00    0.70
  -8   5 -11    3.00    0.80
  -8   5 -11    2.20    0.90
   8  -5  11    4.50    0.60
   8  -4 -11    9.70    1.00
   8  -4 -11    6.70    0.70
   8  -4 -11    5.90    0.60
   8  -4 -11    3.70    0.60
  -8   4  11    7.70    1.20
  -8   4  10   -0.10    0.60
   8  -4 -10    0.20    0.60
  -8   4  10   -0.30    1.10
  -8   4   9    1.50    0.80
  -8   4   9    1.30    1.00
   8  -4  -9    1.20    0.80
  -8   4   9    1.80    1.40
  -8   4   8    5.70    1.10
  -8   4   8    6.60    1.80
   8  -4  -8    5.40    1.20
  -8   4   8    6.30    1.20
  -8   4   8    6.20    1.80
   8  -4  -7    0.70    1.00
  -8   4   7    0.30    1.00
  -8   4   7    0.90    1.40
   8  -4  -6    6.20    1.40
  -8   4   6    5.80    1.70
  -8   4   6    6.90    1.90
  -8   4   5    5.30    1.60
   8  -4  -5   69.19    2.60
   8  -4  -5    5.70    1.40
   8  -4  -5   26.80    2.40
   8  -4  -5   74.39    3.50
  -8   4   5    5.30    1.70
  -8   4   4   46.50    3.60
   8  -4  -4   73.89    2.80
   8  -4  -4   40.60    2.90
  -8   4   4   40.30    3.10
   8  -4  -4   53.49    3.10
   8  -4  -4   67.89    3.30
  -8   4   4   46.10    3.60
   8  -4  -3   41.80    2.90
  -8   4   3   36.10    3.30
  -8   4   3   33.20    5.30
   8  -4  -3   43.40    2.30
   8  -4  -3   29.10    4.10
   8  -4  -3   41.40    2.90
  -8   4   3   36.30    3.00
  -8   4   3   32.80    6.50
   8  -4  -3   45.40    2.70
   8  -4  -3   37.20    2.50
   8  -4  -3   25.00    3.70
  -8   4   3   32.30    2.60
  -8   4   3   42.00    3.20
   8  -4  -2   14.70    1.80
  -8   4   2   16.10    2.30
   8  -4  -2   14.10    1.40
  -8   4   2    4.40    3.70
   8  -4  -2   13.20    1.80
  -8   4   2   14.20    2.10
  -8   4   2    8.30    3.70
   8  -4  -2   11.70    2.60
   8  -4  -2   14.20    1.60
   8  -4  -2   10.80    1.40
   8  -4  -2    6.60    2.10
  -8   4   2   15.70    2.00
   8  -4  -1    5.90    1.30
  -8   4   1    4.80    1.60
   8  -4  -1    4.00    0.90
   8  -4  -1    6.30    1.40
  -8   4   1    6.40    1.50
  -8   4   1    2.40    2.60
   8  -4  -1    3.60    1.00
   8  -4  -1    5.70    2.20
  -8   4   1    5.10    1.30
   8  -4   0  125.19    4.70
  -8   4   0  133.09   11.30
   8  -4   0  105.09    3.60
   8  -4   0  130.29    4.20
  -8   4   0  136.79    5.80
  -8   4   0  147.39    6.40
   8  -4   0  143.59    5.10
   8  -4   0  123.99    4.50
   8  -4   0  107.69    8.20
  -8   4   0  131.29    5.60
  -8   4   0  129.09   11.90
   8  -4   1    1.90    1.00
  -8   4  -1    0.90    1.20
   8  -4   1    1.80    0.90
  -8   4  -1   -1.40    2.50
  -8   4  -1    1.90    1.10
   8  -4   1    0.60    0.90
   8  -4   1    0.80    1.30
  -8   4  -1    1.40    0.90
   8  -4   2   -0.60    0.90
  -8   4  -2    0.90    1.20
   8  -4   2   -0.10    0.80
  -8   4  -2    1.20    1.90
  -8   4  -2    0.90    1.10
   8  -4   2    0.00    0.90
   8  -4   2   -0.80    1.30
  -8   4  -2   -0.30    1.00
   8  -4   2   -0.20    0.70
   8  -4   3   -0.30    0.80
  -8   4  -3   -0.40    1.10
  -8   4  -3   -2.20    2.00
  -8   4  -3    0.10    0.90
   8  -4   3    0.10    1.00
   8  -4   3   -0.10    1.30
  -8   4  -3    0.30    1.10
  -8   4  -4   49.60    3.50
   8  -4   4   44.00    2.90
   8  -4   4   43.30    2.60
  -8   4  -4   48.40    3.30
   8  -4   4   48.90    3.10
  -8   4  -4   49.99    3.50
   8  -4   4   42.40    3.00
   8  -4   5    6.10    1.30
   8  -4   5    6.70    1.20
   8  -4   5    8.70    1.60
  -8   4  -5    9.60    1.70
   8  -4   5    8.60    1.60
  -8   4  -5    8.70    1.70
   8  -4   6    0.90    0.90
   8  -4   6    1.10    0.80
   8  -4   6   -0.10    1.00
   8  -4   6    0.30    0.80
   8  -4   6    0.70    1.00
   8  -4   6    0.40    0.90
  -8   4  -6    0.30    0.80
   8  -4   6    0.60    1.10
  -8   4  -6    0.50    1.10
   8  -4   7   38.60    3.00
  -8   4  -7   46.40    3.30
   8  -4   7   39.70    2.50
   8  -4   7   42.60    2.90
  -8   4  -7   41.70    3.10
   8  -4   8   21.20    2.30
   8  -4   8   18.80    1.90
  -8   4  -8   22.70    2.30
   8  -4   8   23.10    1.90
   8  -4   8   21.50    2.00
  -8   4  -8   19.60    2.00
   8  -4   9   65.19    3.40
   8  -4   9   61.59    2.80
  -8   4  -9   67.69    3.40
   8  -4   9   63.29    2.70
  -8   4  -9   70.59    3.60
   8  -4   9   62.19    3.00
  -8   4  -9   55.69    2.70
   8  -4   9   58.09    2.30
   8  -4  10    3.10    0.80
   8  -4  10    2.60    1.00
   8  -4  10    1.90    0.80
  -8   4 -10    2.80    0.80
  -8   4 -10    2.40    0.90
   8  -4  10    1.10    0.60
   8  -4  11    2.00    0.60
  -8   4 -11    1.30    0.60
  -8   4 -11    2.10    0.70
  -8   4 -11    2.40    0.90
   8  -3 -12   37.60    1.40
   8  -3 -12   28.60    1.10
  -8   3  11   24.60    1.70
   8  -3 -11   21.10    1.30
  -8   3  11   22.10    2.10
   8  -3 -10    0.30    0.60
  -8   3  10    0.10    1.10
  -8   3   9   49.99    3.00
  -8   3   9   47.90    3.60
   8  -3  -9   47.60    2.70
  -8   3   9   51.29    4.00
  -8   3   8   39.70    2.80
  -8   3   8   37.70    3.50
   8  -3  -8   34.70    2.40
  -8   3   8   30.60    2.80
  -8   3   8   33.90    2.60
  -8   3   8   39.10    3.60
  -8   3   7    0.40    0.80
   8  -3  -7    0.40    0.80
  -8   3   7   -0.30    1.20
  -8   3   7    0.60    0.80
  -8   3   7    0.20    1.30
  -8   3   6    3.80    1.60
  -8   3   6    1.90    1.40
  -8   3   5    8.50    1.70
   8  -3  -5   10.50    1.60
  -8   3   5    9.50    1.60
  -8   3   5    9.10    2.00
  -8   3   5    8.80    1.90
   8  -3  -4  153.78    5.10
  -8   3   4  217.38    7.70
   8  -3  -4  170.88   10.10
   8  -3  -4  214.68    6.40
  -8   3   4  205.78    7.10
   8  -3  -4  252.97    6.60
   8  -3  -4  252.67    6.30
  -8   3   4  226.58    7.80
   8  -3  -3   57.39    3.10
   8  -3  -3   38.90    4.70
  -8   3   3   55.59    3.90
   8  -3  -3   50.89    3.00
  -8   3   3   48.40    3.50
   8  -3  -3   61.49    3.20
   8  -3  -3   55.09    2.90
   8  -3  -3   38.70    4.40
  -8   3   3   50.69    3.30
  -8   3   3   47.00    7.50
  -8   3   3   54.99    3.60
   8  -3  -2   10.90    1.50
  -8   3   2   10.00    1.90
   8  -3  -2   16.00    1.50
   8  -3  -2    9.20    1.40
  -8   3   2   10.40    1.80
  -8   3   2    6.80    3.30
   8  -3  -2    6.90    2.10
   8  -3  -2    9.90    1.40
   8  -3  -2    6.50    1.20
   8  -3  -2   12.20    2.80
  -8   3   2   10.90    1.70
   8  -3  -1   44.40    2.60
  -8   3   1   46.70    3.60
   8  -3  -1   36.20    2.10
  -8   3   1   41.50    3.20
   8  -3  -1   46.10    2.70
   8  -3  -1   39.50    4.90
  -8   3   1   42.60    3.10
  -8   3   1   40.20    6.60
   8  -3   0  176.28    5.20
   8  -3   0  144.59    4.40
   8  -3   0  180.88    5.20
  -8   3   0  200.98    7.30
  -8   3   0  184.58    6.70
   8  -3   0  189.58    5.70
  -8   3   0  177.88    7.00
   8  -3   0  169.28    5.30
  -8   3   0  175.98    6.40
  -8   3   0  168.38   12.90
   8  -3   1   94.79    3.80
  -8   3  -1  105.19    5.30
   8  -3   1   96.49    3.80
   8  -3   1   93.59    3.50
  -8   3  -1  101.39    4.90
   8  -3   1  101.19    4.10
  -8   3  -1  101.79    4.90
  -8   3  -1   91.59    9.50
   8  -3   2   24.20    2.00
   8  -3   2   25.10    2.00
  -8   3  -2   27.30    2.80
  -8   3  -2   24.90    5.00
   8  -3   2   24.80    1.90
  -8   3  -2   28.60    2.70
   8  -3   2   25.40    2.20
  -8   3  -2   29.80    2.70
   8  -3   2   31.60    5.40
  -8   3  -3    0.20    1.10
  -8   3  -3   -2.00    2.10
   8  -3   3    0.60    1.10
  -8   3  -3    1.80    1.10
   8  -3   3    0.90    0.80
  -8   3  -3    1.40    1.10
  -8   3  -3    2.50    1.10
   8  -3   4    5.30    1.20
  -8   3  -4    6.70    1.30
   8  -3   4    4.00    1.10
   8  -3   4    5.00    1.10
  -8   3  -4    6.10    1.50
   8  -3   4    5.50    1.40
  -8   3  -4    5.80    1.40
  -8   3  -5  366.36    9.70
   8  -3   5  313.97    7.90
   8  -3   5  352.96    8.40
   8  -3   5  322.17    7.90
  -8   3  -5  343.87    8.90
   8  -3   5  341.17    8.90
  -8   3  -5  352.76    9.50
   8  -3   6    0.40    1.10
  -8   3  -6    1.50    1.20
   8  -3   6    1.30    1.00
   8  -3   6    0.50    0.90
   8  -3   6    0.40    0.90
   8  -3   6    0.00    1.20
  -8   3  -6    0.30    1.10
   8  -3   7    5.80    1.60
  -8   3  -7    7.00    1.60
   8  -3   7    6.40    1.40
   8  -3   7    6.00    1.30
  -8   3  -7    4.80    1.30
   8  -3   8    0.00    1.10
   8  -3   8    1.00    0.90
  -8   3  -8    1.30    1.10
   8  -3   8    1.50    0.90
  -8   3  -8    1.10    1.20
  -8   3  -8    0.70    0.80
   8  -3   8    0.70    0.60
   8  -3   9    5.30    1.20
   8  -3   9    6.00    1.40
   8  -3   9    5.80    1.00
  -8   3  -9    8.00    1.30
   8  -3   9    6.80    1.20
  -8   3  -9    5.30    1.30
  -8   3  -9    4.00    1.30
   8  -3   9    6.30    0.80
   8  -3  10    0.10    0.70
   8  -3  10    0.00    0.80
   8  -3  10   -0.30    0.50
  -8   3 -10    0.40    0.50
  -8   3 -10    0.20    0.80
  -8   3 -10   -0.10    0.80
  -8   3 -10   -0.20    1.00
   8  -3  11    0.60    0.60
  -8   3 -11   -0.20    0.70
  -8   3 -11    0.00    0.50
  -8   3 -11    1.60    0.80
  -8   2  12    1.00    0.60
  -8   2  12    1.50    0.90
   8  -2 -11  212.68    4.70
  -8   2  11  231.38    7.10
   8  -2 -10    2.60    0.80
  -8   2  10    3.40    1.50
  -8   2   9  114.19    4.80
  -8   2   9  106.29    5.40
   8  -2  -9  106.09    4.00
  -8   2   9  107.29    5.90
  -8   2   8    7.30    1.40
  -8   2   8    7.40    1.80
   8  -2  -8    6.60    1.20
  -8   2   8    5.90    1.50
  -8   2   8    6.50    1.90
  -8   2   7   61.69    3.60
  -8   2   7   64.39    4.70
   8  -2  -7   59.09    3.20
  -8   2   7   60.79    4.30
  -8   2   7   55.49    4.30
  -8   2   6   11.40    1.50
  -8   2   6   13.00    2.40
   8  -2  -6   10.30    1.50
  -8   2   6   11.70    2.10
  -8   2   6   12.30    2.20
   8  -2  -5   22.70    3.80
  -8   2   5   25.00    2.60
   8  -2  -5   28.30    2.20
  -8   2   5   23.20    2.40
  -8   2   5   29.30    3.10
  -8   2   5   28.00    2.90
  -8   2   4   21.50    4.80
   8  -2  -4   23.60    2.00
  -8   2   4   23.00    2.40
   8  -2  -4   19.10    3.60
  -8   2   4   25.80    2.90
  -8   2   4   24.80    5.60
  -8   2   4   22.90    2.60
  -8   2   4   23.90    2.60
   8  -2  -3   32.80    2.20
  -8   2   3   26.90    2.80
   8  -2  -3   22.70    3.70
  -8   2   3   30.50    3.20
   8  -2  -3   30.50    2.20
  -8   2   3   27.70    2.60
  -8   2   3   22.40    5.30
  -8   2   3   31.00    3.00
   8  -2  -3   34.90    2.40
   8  -2  -3   30.10    2.10
   8  -2  -3   19.00    3.20
  -8   2   3   27.20    2.50
  -8   2   3   30.30    2.60
  -8   2   2  158.28   12.50
  -8   2   2  169.48    6.90
   8  -2  -2  156.68    8.80
   8  -2  -2  155.88    4.40
  -8   2   2  192.18    7.50
  -8   2   2  161.48    6.30
  -8   2   2  189.18    7.10
   8  -2  -2  183.78    5.40
   8  -2  -2  163.78    4.60
  -8   2   2  161.38    6.00
  -8   2   1   -0.70    1.30
   8  -2  -1    0.60    0.70
   8  -2  -1   -0.40    0.80
  -8   2   1    1.50    1.20
  -8   2   1   -0.60    1.90
  -8   2   1    0.20    0.80
  -8   2   1    0.00    1.00
   8  -2  -1   -0.80    1.00
  -8   2   1    0.10    0.90
   8  -2  -1    2.00    2.10
  -8   2   0    0.10    1.10
   8  -2   0   -0.80    0.80
   8  -2   0    0.00    0.80
  -8   2   0   -2.60    1.50
   8  -2   0    0.90    0.90
  -8   2   0    1.40    2.00
   8  -2   0   -2.40    2.50
  -8   2   0    0.30    0.90
  -8   2   0   -0.20    0.90
   8  -2   0    0.40    0.70
   8  -2   0   -0.80    1.10
  -8   2   0   -0.20    1.00
  -8   2   0    0.60    0.80
  -8   2  -1   30.10    2.40
   8  -2   1   27.80    2.20
   8  -2   1   25.40    2.00
  -8   2  -1   28.20    2.60
  -8   2  -1   28.70    2.90
   8  -2   1   30.40    2.20
  -8   2  -1   30.40    2.70
   8  -2   1   28.50    5.10
  -8   2  -1   28.00    2.50
  -8   2  -1   28.60    5.30
  -8   2  -2    4.90    1.60
  -8   2  -2    5.10    1.30
  -8   2  -2    5.10    2.60
   8  -2   2    5.00    1.10
   8  -2   2    3.50    1.00
  -8   2  -2    4.20    1.30
   8  -2   2    3.70    1.00
   8  -2   2    3.80    1.00
  -8   2  -2    4.40    1.30
   8  -2   2    3.20    2.30
  -8   2  -2    4.60    1.30
  -8   2  -3    3.90    1.40
  -8   2  -3    3.30    2.70
  -8   2  -3    3.60    1.20
   8  -2   3    2.20    1.60
  -8   2  -3    2.90    1.10
   8  -2   3    2.70    0.80
   8  -2   3    2.10    0.90
  -8   2  -3    4.20    1.40
  -8   2  -3    2.30    1.10
   8  -2   3    0.70    2.00
  -8   2  -4    5.40    1.40
   8  -2   4    4.40    1.20
   8  -2   4    4.10    1.10
   8  -2   4    4.60    1.10
   8  -2   4    5.40    1.30
  -8   2  -4    5.30    1.40
   8  -2   4    4.30    1.30
  -8   2  -4    5.30    1.40
  -8   2  -5   13.50    2.00
   8  -2   5   10.20    1.60
   8  -2   5   10.00    1.60
   8  -2   5   11.10    1.90
  -8   2  -5   10.70    1.90
   8  -2   6   32.30    2.80
  -8   2  -6   32.20    2.90
   8  -2   6   33.20    2.70
   8  -2   6   32.10    2.50
   8  -2   6   36.60    3.00
  -8   2  -6   34.40    2.90
   8  -2   7    5.00    1.50
  -8   2  -7    5.40    1.50
   8  -2   7    4.50    1.30
  -8   2  -7    4.40    1.40
  -8   2  -7    4.40    1.20
   8  -2   8   48.70    3.00
   8  -2   8   40.90    2.30
  -8   2  -8   53.19    3.20
   8  -2   8   50.59    2.90
  -8   2  -8   51.29    3.30
  -8   2  -8   48.80    3.10
  -8   2  -8   43.30    2.60
   8  -2   9    4.20    1.10
   8  -2   9    3.40    1.00
   8  -2   9    3.10    0.70
  -8   2  -9    3.50    0.90
   8  -2   9    4.10    1.10
  -8   2  -9    3.60    1.10
  -8   2  -9    4.70    1.30
   8  -2  10    0.00    0.70
  -8   2 -10   -1.40    0.90
   8  -2  10    0.80    0.70
  -8   2 -10    0.20    0.40
  -8   2 -10    0.00    0.60
  -8   2 -10   -0.30    0.70
   8  -1 -13   20.50    1.00
   8  -1 -13   25.30    1.00
  -8   1  12    8.20    1.20
  -8   1  12    6.80    1.20
  -8   1  11   12.40    1.60
  -8   1  11   11.50    1.90
  -8   1  10    9.00    1.60
  -8   1  10    8.30    2.00
  -8   1   9   23.80    2.40
  -8   1   9   21.80    2.90
  -8   1   8   75.49    4.10
  -8   1   8   68.89    4.80
  -8   1   8   65.99    4.40
  -8   1   8   71.59    5.00
   8  -1  -7  136.39    5.90
  -8   1   7  174.78    6.10
  -8   1   7  172.38    7.70
  -8   1   7  150.18    7.00
  -8   1   7  158.18    7.20
   8  -1  -6  139.99    5.10
  -8   1   6  166.48    5.80
  -8   1   6  163.08    7.50
  -8   1   6  148.89    6.90
  -8   1   6  159.08    7.10
  -8   1   5   37.40    3.20
   8  -1  -5   32.40    4.60
  -8   1   5   41.80    2.70
  -8   1   5   45.00    3.90
  -8   1   5   34.50    2.90
  -8   1   5   39.10    3.50
  -8   1   5   43.10    3.50
  -8   1   4   73.59    4.50
   8  -1  -4   65.19    6.30
  -8   1   4   71.59    8.50
  -8   1   4   61.19    7.80
  -8   1   4   89.69    5.30
  -8   1   4   70.89    4.20
  -8   1   4   80.99    4.80
   8  -1  -4   98.09    4.00
   8  -1  -4  103.69    3.70
  -8   1   4   82.99    4.60
  -8   1   3   44.60    6.60
   8  -1  -3   35.10    4.40
  -8   1   3   44.00    6.30
  -8   1   3   49.80    3.90
  -8   1   3   40.60    3.20
  -8   1   3   44.70    3.50
  -8   1   3   45.90    3.50
   8  -1  -3   46.40    2.70
   8  -1  -3   30.90    2.10
  -8   1   3   46.50    3.30
   8  -1  -3   34.80    5.40
  -8   1   2   25.80    2.80
   8  -1  -2   25.80    3.60
   8  -1  -2   38.30    2.20
  -8   1   2   23.10    4.50
  -8   1   2   28.20    2.90
  -8   1   2   25.90    2.60
  -8   1   2   25.40    5.00
  -8   1   2   28.60    2.80
   8  -1  -2   31.20    2.20
  -8   1   2   25.10    2.40
   8  -1  -2   26.10    4.80
   8  -1  -1   18.00    1.50
  -8   1   1   19.60    4.10
   8  -1  -1   19.30    1.80
  -8   1   1   17.00    2.30
  -8   1   1   17.10    2.10
  -8   1   1   11.00    3.70
   8  -1  -1   16.70    4.00
  -8   1   1   18.90    2.20
   8  -1  -1   18.00    1.80
  -8   1   1   19.00    2.40
  -8   1   1   15.40    1.90
   8  -1   0   62.99    2.80
   8  -1   0   78.59    3.50
  -8   1   0   80.29    4.60
   8  -1   0   74.49    3.30
  -8   1   0   73.19    4.10
   8  -1   0   73.39    3.10
  -8   1   0   76.79    4.00
  -8   1   0   78.49    4.60
   8  -1   0   71.59    8.10
  -8   1   0   68.49    3.90
  -8   1   0   67.99    3.60
  -8   1   0   65.79    7.60
  -8   1  -1   45.40    3.60
  -8   1  -1   43.70    2.90
   8  -1   1   46.50    2.80
  -8   1  -1   45.50    3.40
   8  -1   1   44.90    2.70
  -8   1  -1   47.20    3.30
   8  -1   1   43.80    2.50
   8  -1   1   51.69    6.90
  -8   1  -1   44.80    3.20
  -8   1  -1   42.80    3.00
  -8   1  -1   44.20    6.10
  -8   1  -2   22.20    2.70
  -8   1  -2   23.50    2.30
  -8   1  -2   21.70    4.30
   8  -1   2   22.30    2.00
  -8   1  -2   23.90    2.40
   8  -1   2   21.00    1.90
   8  -1   2   23.10    4.60
  -8   1  -2   23.30    2.40
  -8   1  -2   20.30    4.00
  -8   1  -3    4.60    1.40
  -8   1  -3    4.60    2.10
  -8   1  -3    4.50    1.30
  -8   1  -3    4.20    1.10
   8  -1   3    5.40    1.20
   8  -1   3    5.70    1.50
  -8   1  -3    5.00    1.40
  -8   1  -3    8.10    2.60
   8  -1   3    7.40    2.90
  -8   1  -4    1.60    1.00
   8  -1   4    2.40    1.10
   8  -1   4    1.30    1.00
   8  -1   4    2.10    1.20
   8  -1   4    2.30    1.30
  -8   1  -4    2.00    1.00
   8  -1   5   18.50    2.20
  -8   1  -5   20.80    2.40
   8  -1   5   20.10    2.20
  -8   1  -5   22.10    2.40
   8  -1   5   19.60    2.00
   8  -1   5   20.70    2.20
   8  -1   5   20.90    2.30
  -8   1  -5   20.40    2.40
   8  -1   6   79.39    4.00
  -8   1  -6   81.39    4.40
   8  -1   6   76.79    4.00
  -8   1  -6   89.89    4.50
   8  -1   6   80.39    4.00
  -8   1  -6   85.79    4.20
  -8   1  -6   71.69    4.00
   8  -1   7   12.10    1.70
   8  -1   7    8.00    1.20
  -8   1  -7   10.40    1.80
   8  -1   7   11.50    1.80
  -8   1  -7   11.20    1.80
  -8   1  -7   10.30    1.70
  -8   1  -7   10.00    1.50
   8  -1   8   27.70    2.10
  -8   1  -8   27.30    2.20
   8  -1   8   30.40    2.30
  -8   1  -8   30.70    2.50
  -8   1  -8   31.60    2.50
   8  -1   9    0.90    0.90
  -8   1  -9    0.00    0.90
   8  -1   9    0.60    0.70
  -8   1  -9    0.80    0.60
  -8   1  -9    1.00    0.90
  -8   1  -9    1.30    0.90
  -8   1  -9    3.30    1.30
   8  -1  10    7.50    1.00
  -8   1 -10    7.90    0.90
  -8   1 -10    7.00    1.00
  -8   1 -10    7.10    1.00
  -8   0  13   -0.50    0.70
   8   0 -13    9.20    1.00
  -8   0  12    5.40    1.10
  -8   0  12    3.90    1.20
  -8   0  11   38.10    2.30
  -8   0  11   37.80    2.70
  -8   0  11   33.10    3.00
  -8   0  10   33.80    2.40
  -8   0  10   33.90    2.80
  -8   0  10   29.30    3.20
  -8   0   9  125.19    4.60
  -8   0   9  122.59    5.30
  -8   0   9  113.49    5.80
  -8   0   9  119.29    6.30
  -8   0   8   25.40    2.10
  -8   0   8   26.00    2.50
  -8   0   8   21.80    2.90
  -8   0   8   23.30    3.00
  -8   0   7   47.80    3.20
  -8   0   7   40.50    3.80
  -8   0   7   37.60    3.60
  -8   0   7   43.50    3.90
  -8   0   6  195.28    6.40
  -8   0   6  182.38    7.90
  -8   0   6  179.38    7.60
  -8   0   6  170.48    7.40
  -8   0   5   38.40    3.30
   8   0  -5   40.80    5.20
  -8   0   5   49.80    3.00
  -8   0   5   39.20    6.50
  -8   0   5   49.99    4.10
  -8   0   5   41.40    3.20
  -8   0   5   43.70    3.70
  -8   0   5   41.40    3.20
  -8   0   5   48.90    3.70
  -8   0   4  126.49    6.00
  -8   0   4  137.99    4.80
  -8   0   4  116.99   10.50
  -8   0   4  138.29    6.60
  -8   0   4  116.79    5.40
   8   0  -4  114.39    8.40
  -8   0   4  132.59    6.10
   8   0  -4  149.39    4.90
   8   0  -4  118.69    3.80
   8   0  -4  117.89    9.40
  -8   0   4  132.99    5.90
  -8   0   3   52.89    3.90
   8   0  -3   40.80    4.90
  -8   0   3   45.30    6.30
  -8   0   3   52.79    4.10
  -8   0   3   47.90    3.50
  -8   0   3   54.09    3.90
   8   0  -3   56.99    3.00
   8   0  -3   46.90    6.20
  -8   0   3   49.20    3.40
  -8   0   2    8.60    1.90
   8   0  -2   18.20    1.60
  -8   0   2    7.80    2.70
   8   0  -2   11.50    1.50
  -8   0   2    9.40    2.10
  -8   0   2    8.50    1.60
  -8   0   2   10.20    3.50
  -8   0   2    9.60    1.80
   8   0  -2    7.70    1.30
   8   0  -2    6.20    2.70
  -8   0   1   -0.10    1.20
   8   0  -1   -0.10    0.80
   8   0  -1   -0.40    0.80
  -8   0   1    0.20    1.10
   8   0  -1    0.30    0.90
  -8   0   1   -3.30    2.10
  -8   0   1    0.20    0.80
   8   0  -1    2.10    2.60
  -8   0   1   -0.30    0.90
   8   0  -1   -0.20    1.00
  -8   0   1   -0.30    0.80
  -8   0   0   40.30    3.50
   8   0   0   35.70    2.10
  -8   0   0   42.90    2.90
   8   0   0   45.70    2.80
  -8   0   0   41.80    3.40
   8   0   0   43.20    2.60
  -8   0   0   41.00    3.20
   8   0   0   39.90    4.90
   8   0   0   42.20    2.50
   8   0   0   38.60    6.10
  -8   0   0   40.20    2.90
  -8   0   0   30.40    5.00
  -8   0  -1   32.70    3.30
  -8   0  -1   28.10    2.50
   8   0   1   27.20    5.40
   8   0   1   25.30    2.20
  -8   0  -1   19.90    3.90
  -8   0  -1   23.80    2.50
   8   0   1   24.60    2.10
  -8   0  -1   25.30    2.50
   8   0   1   28.80    4.50
   8   0   1   25.30    2.00
  -8   0  -1   24.90    2.40
  -8   0  -2   46.80    3.80
  -8   0  -2   47.70    3.30
   8   0   2   47.50    2.90
  -8   0  -2   45.60    3.20
  -8   0  -2   53.29    3.10
   8   0   2   51.89    6.20
   8   0   2   46.10    2.80
   8   0   2   50.89    7.20
  -8   0  -2   45.70    6.10
  -8   0  -2   49.90    3.40
  -8   0  -2   48.20    6.20
  -8   0  -3   37.20    3.40
  -8   0  -3   32.80    2.80
   8   0   3   32.70    2.60
  -8   0  -3   34.30    2.70
   8   0   3   29.10    2.40
   8   0   3   35.90    2.70
   8   0   3   33.40    2.60
  -8   0  -3   33.90    2.90
  -8   0  -4   38.30    3.10
   8   0   4   38.50    2.90
  -8   0  -4   38.80    3.00
   8   0   4   37.00    2.70
   8   0   4   37.20    2.90
  -8   0  -4   39.00    2.80
  -8   0  -4   40.70    3.10
   8   0   4   37.80    2.80
  -8   0  -4   38.00    3.10
   8   0   5   12.40    1.70
  -8   0  -5   14.60    2.10
   8   0   5   12.20    1.90
  -8   0  -5   13.00    1.90
   8   0   5   10.70    1.70
   8   0   5   13.80    2.00
  -8   0  -5   13.00    1.90
   8   0   5   12.90    1.90
  -8   0  -5   12.60    2.00
   8   0   6    1.50    1.00
  -8   0  -6    1.00    1.10
   8   0   6    1.50    1.30
  -8   0  -6    1.40    1.10
   8   0   6    1.50    1.30
  -8   0  -6    1.60    1.30
  -8   0  -6    1.10    1.00
   8   0   7  125.09    4.40
  -8   0  -7  119.99    4.80
   8   0   7  129.59    4.90
  -8   0  -7  125.09    5.00
  -8   0  -7  138.69    5.10
  -8   0  -7  137.19    5.10
  -8   0  -8    2.60    0.90
  -8   0  -8    2.20    0.90
   8   0   8    2.60    0.80
  -8   0  -8    2.50    0.90
   8   0   8    2.30    1.10
  -8   0  -8    2.40    1.00
  -8   0  -8    2.30    1.00
  -8   0  -8    5.50    1.50
   8   0   9    0.80    0.70
  -8   0  -9    1.90    0.80
  -8   0  -9    2.30    0.80
  -8   0  -9    0.70    0.90
  -8  -1  13   37.50    1.70
  -8  -1  13   35.90    2.00
  -8  -1  12   17.40    1.60
  -8  -1  12   16.30    1.80
  -8  -1  11   64.19    3.10
  -8  -1  11   62.99    3.50
  -8  -1  11   53.29    3.90
  -8  -1  10    0.40    1.00
  -8  -1  10    0.80    1.00
  -8  -1   9  140.99    5.10
  -8  -1   9  142.69    5.70
  -8  -1   9  119.59    6.00
  -8  -1   9  125.69    6.60
  -8  -1   8   70.79    3.50
  -8  -1   8   65.49    3.90
  -8  -1   8   58.79    4.50
  -8  -1   8   59.19    4.50
  -8  -1   7   28.90    2.20
  -8  -1   7   30.10    2.60
  -8  -1   7   23.70    3.00
  -8  -1   7   23.00    2.90
  -8  -1   6  126.79    5.10
  -8  -1   6  118.09    6.40
  -8  -1   6  121.49    6.10
  -8  -1   6  116.09    6.00
  -8  -1   5   83.99    4.90
   8   1  -5   70.89    6.90
  -8  -1   5   93.09    4.10
  -8  -1   5   68.59    8.20
  -8  -1   5   87.19    5.40
  -8  -1   5   85.99    5.00
   8   1  -5   98.49    3.90
  -8  -1   5   83.09    4.70
   8   1  -5   70.29    7.10
  -8  -1   5   92.29    5.20
  -8  -1   4   12.40    2.10
   8   1  -4   10.20    3.30
  -8  -1   4   11.80    1.50
  -8  -1   4    5.10    2.60
  -8  -1   4   11.10    2.10
   8   1  -4    7.80    2.30
  -8  -1   4    9.90    2.00
   8   1  -4   12.10    1.50
  -8  -1   4   12.40    2.10
  -8  -1   4   12.10    2.10
  -8  -1   3    0.80    1.20
  -8  -1   3    0.30    0.70
  -8  -1   3   -1.30    1.70
  -8  -1   3    0.90    1.30
  -8  -1   3    0.40    1.00
   8   1  -3    4.20    1.70
  -8  -1   3    0.20    1.10
   8   1  -3   -0.60    1.80
   8   1  -3   -0.10    0.90
  -8  -1   3   -0.90    1.20
  -8  -1   3    1.60    1.10
  -8  -1   2    3.10    1.50
   8   1  -2    4.40    1.10
   8   1  -2    2.30    2.30
  -8  -1   2    1.80    0.80
  -8  -1   2    3.10    1.90
   8   1  -2    2.30    1.00
  -8  -1   2    3.40    1.60
  -8  -1   2    1.90    1.10
  -8  -1   2    1.90    1.20
   8   1  -2    1.80    0.90
  -8  -1   2    1.40    1.00
  -8  -1   2    2.30    1.20
  -8  -1   2    1.20    0.90
  -8  -1   1   10.40    2.10
   8   1  -1   11.60    3.70
   8   1  -1    8.50    1.20
  -8  -1   1    9.80    1.50
   8   1  -1   12.30    1.50
  -8  -1   1    9.30    2.00
   8   1  -1   12.00    1.60
  -8  -1   1    9.90    1.80
  -8  -1   1    9.50    1.50
  -8  -1   1   12.10    2.10
  -8  -1   1    9.50    1.50
  -8  -1   0    7.10    1.80
  -8  -1   0    5.70    1.30
   8   1   0    5.90    1.20
  -8  -1   0    4.80    1.50
   8   1   0    5.60    1.20
   8   1   0    5.60    1.20
   8   1   0    4.60    2.20
  -8  -1   0    4.90    1.20
  -8  -1   0    7.40    1.80
  -8  -1   0    5.90    1.30
   8   1   0    2.60    2.20
  -8  -1  -1   41.50    3.70
  -8  -1  -1   34.30    2.80
   8   1   1   35.70    2.50
   8   1   1   33.90    5.10
   8   1   1   37.20    2.50
  -8  -1  -1   39.10    3.40
  -8  -1  -1   31.80    2.80
   8   1   1   28.60    5.60
  -8  -1  -2    2.80    1.60
  -8  -1  -2    3.00    1.20
   8   1   2    3.70    1.00
   8   1   2    2.90    1.10
  -8  -1  -2    3.50    1.10
   8   1   2    3.60    1.10
  -8  -1  -2    4.00    1.50
   8   1   2    3.80    1.20
  -8  -1  -2    3.20    1.20
  -8  -1  -3   56.69    4.20
  -8  -1  -3   62.69    3.90
   8   1   3   70.29    3.80
  -8  -1  -3   64.79    3.70
   8   1   3   64.09    3.40
   8   1   3   65.99    3.70
  -8  -1  -3   61.29    3.90
   8   1   3   67.09    3.50
  -8  -1  -3   59.69    3.90
   8   1   3   61.39    3.20
   8   1   4    9.60    1.50
  -8  -1  -4    9.70    1.80
   8   1   4   11.10    1.80
  -8  -1  -4    9.90    1.70
   8   1   4    8.50    1.50
   8   1   4   11.30    1.80
  -8  -1  -4   10.40    1.70
   8   1   4   11.80    1.70
  -8  -1  -4   10.00    1.90
   8   1   4    7.80    1.30
   8   1   5   43.20    2.70
  -8  -1  -5   40.40    3.10
   8   1   5   43.30    3.10
  -8  -1  -5   44.30    3.10
   8   1   5   48.30    3.20
  -8  -1  -5   47.10    3.20
   8   1   5   38.80    2.50
   8   1   6    0.80    0.70
   8   1   6    1.90    0.80
  -8  -1  -6    0.40    1.00
   8   1   6    1.10    1.30
  -8  -1  -6    0.90    1.20
  -8  -1  -6    0.20    0.90
  -8  -1  -6    4.00    1.50
  -8  -1  -7   25.70    2.30
  -8  -1  -7   26.90    1.90
  -8  -1  -7   22.50    2.00
   8   1   7   27.20    2.30
  -8  -1  -7   24.40    2.20
  -8  -1  -7   27.70    2.20
  -8  -1  -7   28.10    2.30
   8   1   7   25.70    1.70
  -8  -1  -8   49.99    2.10
   8   1   8   51.39    2.60
  -8  -1  -8   47.80    2.50
  -8  -1  -8   48.00    2.50
  -8  -1  -9   14.50    1.20
   8   1   9   11.40    1.00
  -8  -1  -9   13.00    1.10
  -8  -1  -9   16.50    1.30
  -8  -2  13    3.20    0.80
  -8  -2  13    2.40    0.80
  -8  -2  12   48.70    2.50
  -8  -2  12   44.90    2.70
  -8  -2  11   20.50    2.00
  -8  -2  11   19.00    2.10
  -8  -2  10    6.00    1.40
  -8  -2  10    5.10    1.50
  -8  -2  10    4.80    1.80
  -8  -2  10    4.00    1.30
  -8  -2   9   43.90    2.90
  -8  -2   9   43.40    3.20
  -8  -2   9   33.90    3.30
  -8  -2   9   36.10    3.60
  -8  -2   9   33.50    3.10
  -8  -2   8   88.49    4.00
  -8  -2   8   84.59    4.30
  -8  -2   8   71.29    4.90
  -8  -2   8   73.99    5.00
  -8  -2   7   33.40    2.50
  -8  -2   7   32.10    2.70
  -8  -2   7   27.30    3.20
  -8  -2   7   29.10    3.30
  -8  -2   6  356.86    8.00
  -8  -2   6  356.56    8.90
  -8  -2   6  318.87   10.90
  -8  -2   6  313.27    9.90
   8   2  -6  368.86    7.90
  -8  -2   6  297.57    9.20
  -8  -2   6  314.17   10.20
  -8  -2   5    4.00    1.40
  -8  -2   5    4.70    1.10
  -8  -2   5    4.10    1.20
  -8  -2   5    4.40    1.70
   8   2  -5   -2.10    1.50
   8   2  -5    4.10    1.10
   8   2  -5    4.70    2.20
  -8  -2   5    3.50    1.40
  -8  -2   5    3.90    1.60
   8   2  -4   41.60    5.30
  -8  -2   4   46.10    3.90
  -8  -2   4   48.20    2.70
  -8  -2   4   52.09    3.10
  -8  -2   4   54.79    6.90
  -8  -2   4   44.70    4.00
   8   2  -4   49.80    2.60
   8   2  -4   39.10    5.80
  -8  -2   4   49.70    3.80
   8   2  -3   80.59    7.00
  -8  -2   3   81.29    5.20
   8   2  -3   87.39    3.20
  -8  -2   3   88.09    3.90
  -8  -2   3   75.89    7.70
   8   2  -3   90.39    3.80
  -8  -2   3   82.09    5.30
   8   2  -3   68.49    7.90
   8   2  -3   83.29    3.40
  -8  -2   3   85.39    4.40
  -8  -2   3   84.59    5.00
  -8  -2   2    0.50    1.40
   8   2  -2    0.10    0.70
  -8  -2   2   -0.10    0.60
  -8  -2   2   -0.80    0.90
   8   2  -2    0.00    0.90
  -8  -2   2    0.00    1.30
   8   2  -2    1.30    1.10
  -8  -2   2    0.00    1.00
  -8  -2   2   -1.40    1.20
  -8  -2   2    0.30    0.80
   8   2  -2   -0.50    1.80
  -8  -2   1   14.40    2.40
   8   2  -1    8.00    1.10
  -8  -2   1   11.70    1.50
  -8  -2   1   10.60    1.60
   8   2  -1   13.50    1.70
   8   2  -1   14.40    1.70
   8   2  -1   15.80    1.70
   8   2  -1    9.70    2.60
  -8  -2   1   14.90    1.90
  -8  -2   1   13.10    2.20
   8   2  -1    8.60    3.50
  -8  -2   1   10.40    1.60
  -8  -2   0  149.39    7.10
  -8  -2   0  146.29    5.80
   8   2   0  158.38    5.30
   8   2   0  160.28    5.30
   8   2   0  144.79   10.10
   8   2   0  156.48   12.70
   8   2   0  163.78    5.30
  -8  -2   0  146.49    5.40
  -8  -2   0  158.58    6.80
  -8  -2   0  139.29    5.70
   8   2   1    7.30    1.20
  -8  -2  -1    7.50    2.10
  -8  -2  -1    6.20    1.50
   8   2   1    5.60    1.30
   8   2   1    6.20    1.20
   8   2   1    6.20    1.30
  -8  -2  -1    6.20    1.70
   8   2   1    7.50    1.30
  -8  -2  -1    5.00    1.40
   8   2   2    0.00    0.80
  -8  -2  -2    0.90    1.30
  -8  -2  -2   -0.30    0.90
   8   2   2    0.60    1.10
  -8  -2  -2   -0.10    0.90
   8   2   2    0.30    0.80
   8   2   2    0.10    0.90
  -8  -2  -2   -0.30    1.10
  -8  -2  -2   -0.20    0.90
  -8  -2  -3   11.80    2.20
  -8  -2  -3    9.50    1.80
   8   2   3    9.90    1.70
  -8  -2  -3   10.00    1.60
   8   2   3    7.80    1.20
   8   2   3    9.40    1.60
  -8  -2  -3   10.50    1.70
   8   2   3   11.30    1.80
  -8  -2  -3   10.00    1.70
   8   2   3    8.90    1.40
   8   2   4    0.40    0.90
  -8  -2  -4   -0.20    1.10
   8   2   4    1.00    1.20
  -8  -2  -4    0.00    1.00
  -8  -2  -4   -0.30    0.80
   8   2   4   -0.80    1.30
   8   2   4    1.70    1.40
  -8  -2  -4    0.10    1.30
   8   2   5    0.30    0.80
  -8  -2  -5   -0.20    1.10
   8   2   5    0.50    1.20
  -8  -2  -5    0.80    1.00
  -8  -2  -5    0.90    0.90
   8   2   5   -0.40    1.20
  -8  -2  -5   -0.20    1.20
  -8  -2  -6   13.60    1.90
  -8  -2  -6   12.60    1.70
   8   2   6   14.10    1.90
  -8  -2  -6   14.60    1.70
  -8  -2  -6   11.40    1.70
   8   2   6   13.30    1.50
  -8  -2  -7   56.39    2.80
   8   2   7   66.59    3.10
  -8  -2  -7   58.09    2.80
  -8  -2  -7   63.59    2.90
   8   2   7   55.09    2.40
   8   2   8    0.10    0.50
  -8  -2  -8   -0.10    0.60
  -8  -2  -8   -0.70    0.70
  -8  -2  -8    0.00    0.70
  -8  -3  13    7.50    1.10
  -8  -3  13    4.80    1.00
   8   3 -13    7.60    0.80
  -8  -3  12   50.39    2.70
  -8  -3  12   47.50    2.80
  -8  -3  11   54.09    3.00
  -8  -3  11   51.79    3.10
  -8  -3  11   44.30    2.80
  -8  -3  10    9.10    1.60
  -8  -3  10    7.30    1.60
  -8  -3  10    6.80    1.50
  -8  -3  10    7.40    1.60
  -8  -3   9  134.49    5.00
  -8  -3   9  129.79    5.30
  -8  -3   8  100.39    4.30
  -8  -3   8   97.09    4.60
  -8  -3   8   80.89    5.20
   8   3  -8  106.29    3.90
  -8  -3   8   84.19    5.10
  -8  -3   7  487.05   10.10
  -8  -3   7  478.75   10.80
   8   3  -7  488.15    9.10
  -8  -3   6   59.49    4.30
  -8  -3   6   71.89    3.50
  -8  -3   6   78.29    4.00
  -8  -3   6   64.59    4.90
   8   3  -6   71.59    3.10
  -8  -3   6   65.89    4.20
  -8  -3   6   59.89    4.10
  -8  -3   5   49.00    4.10
  -8  -3   5   53.79    3.00
  -8  -3   5   58.39    3.40
   8   3  -5   57.29    2.90
  -8  -3   5   53.29    4.40
  -8  -3   5   54.09    3.70
  -8  -3   5   50.89    3.90
   8   3  -4  169.88   10.80
  -8  -3   4  187.18    8.00
  -8  -3   4  191.48    5.70
   8   3  -4  189.98    4.80
  -8  -3   4  203.38    6.30
   8   3  -4  205.08    5.70
  -8  -3   4  177.98    8.00
   8   3  -4  171.58   12.10
  -8  -3   4  185.28    6.90
  -8  -3   4  188.48    7.60
  -8  -3   3    0.70    1.40
  -8  -3   3    0.00    0.70
   8   3  -3   -0.10    0.70
  -8  -3   3    0.10    0.70
   8   3  -3   -0.10    0.90
  -8  -3   3   -0.30    1.20
  -8  -3   3    0.50    1.40
   8   3  -3    0.30    2.60
  -8  -3   2  178.98    8.10
   8   3  -2  160.98    4.50
  -8  -3   2  184.28    5.50
  -8  -3   2  184.18    5.80
  -8  -3   2  163.58    6.00
   8   3  -2  186.78    5.60
   8   3  -2  197.08    5.80
  -8  -3   2  178.18    6.50
  -8  -3   2  184.78    7.50
  -8  -3   1   20.20    3.00
  -8  -3   1   20.90    1.90
  -8  -3   1   20.30    2.30
   8   3  -1   20.30    1.90
   8   3  -1   24.10    2.10
   8   3  -1   23.60    2.10
  -8  -3   1   20.50    2.20
  -8  -3   1   21.30    2.70
  -8  -3   0  134.89    7.00
  -8  -3   0  144.99    4.80
  -8  -3   0  140.19    5.80
   8   3   0  150.98    5.20
   8   3   0  154.68    5.20
  -8  -3   0  142.89    5.40
  -8  -3   0  149.09    6.60
  -8  -3  -1  225.88    6.50
  -8  -3  -1  199.08    8.50
  -8  -3  -1  191.48    5.70
  -8  -3  -1  194.68    7.00
   8   3   1  217.68    6.40
   8   3   1  205.38    6.20
   8   3   1  211.68    5.80
   8   3   1  217.78    6.40
  -8  -3  -1  204.08    6.40
  -8  -3  -1  204.18    7.60
   8   3   1  219.28    6.40
   8   3   2    0.70    1.00
  -8  -3  -2    1.90    0.90
  -8  -3  -2    0.60    1.40
  -8  -3  -2    1.10    1.10
   8   3   2    0.40    1.00
   8   3   2    2.70    1.00
   8   3   2    1.10    1.20
   8   3   2    2.00    1.30
  -8  -3  -2    0.20    1.00
  -8  -3  -3   16.00    1.60
  -8  -3  -3   15.40    2.50
  -8  -3  -3   16.10    2.10
   8   3   3   16.80    2.00
   8   3   3   14.40    1.60
   8   3   3   17.30    2.00
  -8  -3  -3   18.20    1.90
   8   3   3   17.10    2.10
   8   3   3   15.10    1.80
  -8  -3  -4   21.60    2.70
  -8  -3  -4   15.60    2.10
   8   3   4   14.70    1.60
   8   3   4   17.30    2.00
  -8  -3  -4   17.80    1.80
   8   3   4   20.20    2.10
  -8  -3  -4   18.80    1.90
   8   3   4   19.10    2.10
   8   3   4   18.10    1.90
  -8  -3  -5   74.39    4.20
  -8  -3  -5   62.99    3.50
   8   3   5   76.69    3.50
  -8  -3  -5   73.99    3.40
  -8  -3  -5   75.39    3.40
   8   3   5   70.49    3.30
  -8  -3  -6    7.50    1.30
   8   3   6    7.50    1.30
  -8  -3  -6    7.20    1.10
   8   3   6    7.00    1.00
  -8  -3  -6    7.60    1.20
  -8  -3  -6    8.10    1.40
   8   3   6    7.90    1.20
   8   3   7   -0.30    0.60
  -8  -3  -7   -1.10    0.70
  -8  -3  -7    0.00    0.70
  -8  -4  13   10.70    1.20
  -8  -4  13    7.90    1.00
  -8  -4  12   17.00    1.70
  -8  -4  12   12.30    1.50
  -8  -4  11   63.49    3.20
  -8  -4  11   59.19    3.20
  -8  -4  10    9.30    1.70
  -8  -4  10    5.70    1.40
  -8  -4  10    5.60    1.30
  -8  -4  10    4.70    1.40
  -8  -4   9   40.20    2.90
  -8  -4   9   37.10    2.90
  -8  -4   9   31.60    2.80
  -8  -4   9   30.60    3.10
  -8  -4   8    3.80    1.30
  -8  -4   8    3.00    1.80
  -8  -4   8    3.40    1.30
  -8  -4   8    2.30    1.30
  -8  -4   8    3.00    1.50
  -8  -4   7  110.39    4.60
  -8  -4   7  116.79    6.90
  -8  -4   7  116.29    5.00
   8   4  -7  110.49    3.90
  -8  -4   7  101.99    5.20
  -8  -4   7  110.09    5.80
  -8  -4   6  108.19    6.00
  -8  -4   6  109.69    4.50
  -8  -4   6  119.69    5.00
   8   4  -6  115.19    4.10
  -8  -4   6  113.99    5.40
  -8  -4   5   13.30    2.40
  -8  -4   5   16.30    1.80
  -8  -4   5   16.50    2.00
   8   4  -5   17.20    1.60
  -8  -4   5   17.60    2.30
  -8  -4   4  156.28    7.60
  -8  -4   4  167.28    5.50
   8   4  -4  143.59    4.00
  -8  -4   4  169.38    5.80
   8   4  -4  162.88    5.00
  -8  -4   4  163.38    6.40
  -8  -4   4  155.38    7.10
  -8  -4   3   50.99    3.80
  -8  -4   3   39.90    4.00
  -8  -4   3   44.00    2.80
  -8  -4   3   43.30    3.00
   8   4  -3   40.60    2.50
   8   4  -3   48.70    2.80
  -8  -4   3   41.80    3.30
  -8  -4   3   39.00    3.60
  -8  -4   2  153.88    6.90
  -8  -4   2  122.49    7.00
  -8  -4   2  138.69    5.00
   8   4  -2  147.89    5.00
   8   4  -2  154.08    5.10
  -8  -4   2  138.69    5.70
  -8  -4   2  136.69    6.60
  -8  -4   1    2.30    1.50
  -8  -4   1    1.20    1.70
  -8  -4   1    2.60    1.00
  -8  -4   1    2.00    1.10
   8   4  -1    1.50    1.00
   8   4  -1    2.30    1.20
  -8  -4   1    2.30    1.20
  -8  -4   1    0.90    1.40
   8   4   0    1.00    1.00
  -8  -4   0    0.30    1.40
  -8  -4   0    0.20    1.70
  -8  -4   0    0.10    0.80
  -8  -4   0    0.80    1.70
  -8  -4   0   -0.60    1.10
   8   4   0    0.40    0.90
   8   4   0   -0.50    1.00
   8   4   0   -0.10    1.20
  -8  -4   0    0.40    0.90
  -8  -4   0   -0.70    1.40
  -8  -4  -1   41.80    3.90
  -8  -4  -1   43.30    2.90
  -8  -4  -1   36.40    3.90
  -8  -4  -1   38.30    3.70
  -8  -4  -1   33.40    3.00
   8   4   1   38.80    2.60
   8   4   1   39.10    2.60
   8   4   1   39.20    2.80
   8   4   1   41.90    2.80
  -8  -4  -1   41.00    2.80
  -8  -4  -1   42.70    3.00
   8   4   1   39.70    2.80
   8   4   2    6.90    1.40
  -8  -4  -2    8.60    2.10
  -8  -4  -2    8.00    1.40
  -8  -4  -2    5.20    1.90
  -8  -4  -2    6.30    1.60
   8   4   2    6.60    1.40
   8   4   2    6.10    1.20
   8   4   2    6.80    1.50
   8   4   2    7.70    1.50
  -8  -4  -2    6.30    1.30
  -8  -4  -2    8.10    1.50
   8   4   3    3.30    1.20
  -8  -4  -3    3.80    1.70
  -8  -4  -3    2.80    1.00
  -8  -4  -3    3.70    1.40
   8   4   3    2.80    1.00
   8   4   3    2.30    1.00
   8   4   3    3.00    1.00
   8   4   3    3.20    1.30
   8   4   3    3.90    1.20
  -8  -4  -3    2.50    0.90
  -8  -4  -3    4.20    1.30
  -8  -4  -4   11.60    2.00
   8   4   4   11.20    1.30
   8   4   4   11.90    1.50
  -8  -4  -4   11.70    1.30
  -8  -4  -4    9.30    1.30
  -8  -4  -4   12.40    1.70
   8   4   4   11.10    1.50
   8   4   5    0.80    0.80
  -8  -4  -5   -0.60    1.00
   8   4   5    0.80    0.60
   8   4   5    0.90    0.80
  -8  -4  -5   -0.90    0.90
  -8  -4  -5    0.80    0.90
   8   4   6    0.50    0.60
  -8  -4  -6    0.00    0.60
   8   4   6   -0.40    0.50
  -8  -4  -6   -0.30    0.60
  -8  -4  -6    0.10    0.70
  -8  -4  -7   16.50    1.20
  -8  -5  13   34.50    1.80
  -8  -5  13   34.80    1.80
  -8  -5  12    4.50    1.20
  -8  -5  12    1.80    0.80
  -8  -5  11   24.30    2.10
  -8  -5  11   22.10    2.00
  -8  -5  11   18.20    1.70
  -8  -5  10   15.20    1.90
  -8  -5  10   12.50    1.70
  -8  -5  10   11.90    1.60
  -8  -5  10   12.30    2.00
  -8  -5   9   38.70    2.70
  -8  -5   9   34.30    2.70
  -8  -5   9   30.90    2.70
  -8  -5   9   36.20    3.30
  -8  -5   8   23.00    2.20
  -8  -5   8   24.40    3.20
  -8  -5   8   23.60    2.40
  -8  -5   8   20.70    2.40
  -8  -5   8   21.60    2.70
  -8  -5   7   36.40    2.70
  -8  -5   7   33.30    3.90
  -8  -5   7   36.70    2.90
  -8  -5   7   35.10    3.00
  -8  -5   7   34.60    3.40
  -8  -5   6    2.40    1.60
  -8  -5   6    2.60    1.20
  -8  -5   6    2.40    1.90
  -8  -5   6    2.60    1.10
  -8  -5   6    2.70    1.40
  -8  -5   6    3.10    1.50
  -8  -5   5   74.49    5.40
  -8  -5   5   89.39    4.10
  -8  -5   5   88.89    4.30
  -8  -5   5   98.49    6.70
   8   5  -5   93.99    3.80
  -8  -5   5   84.19    4.60
  -8  -5   5   83.79    4.90
  -8  -5   4    4.70    2.00
  -8  -5   4    6.20    1.40
  -8  -5   4    7.00    2.40
  -8  -5   4    5.70    1.40
   8   5  -4    7.90    1.30
  -8  -5   4    6.30    1.70
  -8  -5   4    5.80    1.60
  -8  -5   3   11.40    2.20
  -8  -5   3   12.20    2.60
  -8  -5   3   13.30    1.70
  -8  -5   3   12.60    2.90
   8   5  -3   12.00    1.60
   8   5  -3   15.60    1.90
  -8  -5   3   12.10    2.00
  -8  -5   3   13.60    1.90
  -8  -5   2   88.89    5.30
  -8  -5   2   79.89    5.80
  -8  -5   2   85.29    4.00
  -8  -5   2   97.49    6.40
   8   5  -2   81.89    3.60
   8   5  -2   91.69    4.00
  -8  -5   2   78.79    4.40
   8   5  -1    0.10    1.00
  -8  -5   1    0.70    1.30
  -8  -5   1    0.40    1.80
  -8  -5   1    0.40    0.90
  -8  -5   1    0.60    1.70
   8   5  -1    0.20    0.80
   8   5  -1    0.50    0.90
   8   5  -1    0.50    1.10
  -8  -5   1    0.70    1.20
  -8  -5   0   82.29    5.20
  -8  -5   0   88.69    4.20
  -8  -5   0   65.99    5.20
  -8  -5   0   73.89    3.60
  -8  -5   0   81.99    5.30
   8   5   0   74.39    3.30
   8   5   0   80.99    3.60
   8   5   0   80.89    3.70
   8   5   0   80.29    3.60
  -8  -5   0   75.79    4.00
   8   5   0   80.39    3.90
   8   5   1    2.20    1.20
  -8  -5  -1    3.60    1.80
  -8  -5  -1    3.80    1.20
  -8  -5  -1    2.00    1.80
  -8  -5  -1    3.80    1.50
   8   5   1    2.80    0.90
   8   5   1    3.90    1.20
   8   5   1    4.10    1.20
   8   5   1    4.50    1.20
  -8  -5  -1    3.40    1.10
  -8  -5  -1    3.10    1.10
  -8  -5  -2   19.70    2.70
  -8  -5  -2   20.40    1.90
   8   5   2   19.10    1.90
   8   5   2   17.20    1.60
   8   5   2   17.40    1.70
   8   5   2   16.10    1.70
   8   5   2   18.40    1.80
   8   5   2   18.60    1.60
  -8  -5  -2   19.80    2.00
   8   5   2   18.00    2.00
  -8  -5  -3   36.40    3.20
   8   5   3   35.10    2.20
   8   5   3   35.10    2.10
  -8  -5  -3   36.10    2.50
   8   5   3   35.50    2.40
   8   5   4   92.09    3.20
   8   5   4   87.69    3.00
  -8  -5  -4  100.49    3.80
   8   5   4   94.19    3.50
  -8  -5  -4   94.19    4.30
   8   5   5   12.90    1.00
   8   5   5   13.80    1.10
  -8  -5  -5   14.50    1.40
   8   5   5   15.50    1.30
  -8  -5  -5   12.50    1.40
   8   5   6    0.20    0.50
  -8  -5  -6    0.30    0.60
  -8  -6  13    3.90    0.80
  -8  -6  13    3.20    0.60
  -8  -6  12   42.40    2.20
  -8  -6  12   39.80    2.10
  -8  -6  11  166.48    4.80
  -8  -6  11  159.88    4.80
  -8  -6  10    1.60    1.10
  -8  -6  10    1.20    0.90
  -8  -6  10    0.80    0.90
  -8  -6   9   49.20    2.90
  -8  -6   9   45.00    3.70
  -8  -6   9   48.40    3.00
  -8  -6   9   45.30    3.00
  -8  -6   9   50.69    3.70
  -8  -6   8   28.00    2.30
  -8  -6   8   27.40    2.40
  -8  -6   8   29.60    3.40
  -8  -6   8   27.00    2.50
  -8  -6   8   29.20    3.00
  -8  -6   7   20.20    2.10
  -8  -6   7   19.90    2.10
  -8  -6   7   20.70    3.30
  -8  -6   7   18.30    2.30
  -8  -6   7   20.30    2.60
  -8  -6   6    4.20    1.80
  -8  -6   6    3.00    1.20
  -8  -6   6    4.50    2.10
  -8  -6   6    4.30    1.30
   8   6  -6    4.20    1.00
  -8  -6   6    2.60    1.30
  -8  -6   6    5.70    1.70
  -8  -6   5    3.70    1.90
  -8  -6   5    4.70    1.30
  -8  -6   5    3.60    1.20
  -8  -6   5    3.60    2.20
   8   6  -5    3.30    0.90
  -8  -6   5    3.30    1.40
  -8  -6   5    4.50    1.40
  -8  -6   4  122.99    7.00
  -8  -6   4  143.09    5.20
  -8  -6   4  161.58    8.30
   8   6  -4  140.09    4.40
   8   6  -4  155.78    4.90
  -8  -6   4  142.29    5.90
  -8  -6   4  150.18    5.90
  -8  -6   4  143.69    6.20
  -8  -6   3    0.40    1.10
  -8  -6   3   -0.10    1.70
  -8  -6   3   -0.50    1.00
  -8  -6   3   -0.20    2.00
   8   6  -3   -0.40    0.80
   8   6  -3    0.10    0.90
  -8  -6   3   -0.70    1.30
  -8  -6   3    0.00    0.70
   8   6  -2   53.89    3.10
  -8  -6   2   51.29    4.10
  -8  -6   2   43.90    4.50
  -8  -6   2   47.10    3.00
  -8  -6   2   52.59    4.70
   8   6  -2   54.69    2.90
  -8  -6   2   48.60    3.40
   8   6  -1    6.70    1.50
  -8  -6   1    5.70    1.90
  -8  -6   1    6.40    1.50
  -8  -6   1    4.90    2.30
  -8  -6   1    5.70    1.30
  -8  -6   1    5.90    2.00
   8   6  -1    6.80    1.40
   8   6  -1    5.70    1.20
   8   6  -1    6.20    1.20
  -8  -6   1    7.10    1.60
  -8  -6   0   15.20    2.50
  -8  -6   0   17.60    1.90
  -8  -6   0   14.70    2.30
   8   6   0   16.70    1.80
   8   6   0   14.10    1.60
   8   6   0   15.60    1.50
  -8  -6   0   15.50    1.90
   8   6   0   16.10    1.90
  -8  -6  -1   40.00    3.50
  -8  -6  -1   37.20    2.50
   8   6   1   35.20    2.40
   8   6   1   34.60    2.30
   8   6   1   31.40    2.10
   8   6   1   32.60    2.00
   8   6   1   35.90    2.20
  -8  -6  -1   36.10    2.40
   8   6   1   36.80    2.50
   8   6   2    0.40    1.00
  -8  -6  -2   -0.10    1.20
  -8  -6  -2    0.00    0.70
   8   6   2    0.00    0.80
   8   6   2   -0.40    0.90
   8   6   2    0.50    0.60
  -8  -6  -2    0.00    0.70
  -8  -6  -2   -0.80    1.00
   8   6   3    3.60    1.00
  -8  -6  -3    3.70    1.30
   8   6   3    4.50    1.00
  -8  -6  -3    3.60    0.90
  -8  -6  -3    2.90    0.80
   8   6   4   24.00    1.40
  -8  -6  -4   27.10    1.70
   8   6   4   25.90    1.60
  -8  -6  -4   23.50    1.80
  -8  -7  12   28.20    1.60
  -8  -7  12   27.10    1.50
  -8  -7  11   89.49    3.20
  -8  -7  11   89.19    3.20
  -8  -7  10    3.20    1.00
  -8  -7  10    3.30    1.00
  -8  -7  10    3.20    0.80
  -8  -7   9   21.60    1.90
  -8  -7   9   21.50    1.90
  -8  -7   9   20.90    2.00
  -8  -7   8    0.00    1.10
  -8  -7   8    1.90    1.60
  -8  -7   8    0.60    0.90
  -8  -7   8    1.20    0.90
  -8  -7   8    2.20    1.40
  -8  -7   7    7.60    1.40
  -8  -7   7    8.00    1.50
  -8  -7   7    8.90    2.40
  -8  -7   7    7.00    1.50
  -8  -7   7    7.80    1.70
  -8  -7   6   24.30    2.20
  -8  -7   6   22.10    3.30
  -8  -7   6   20.30    2.30
  -8  -7   6   22.00    2.40
  -8  -7   5    0.70    1.00
  -8  -7   5    0.00    1.90
   8   7  -5    0.30    0.80
  -8  -7   5    0.20    1.10
  -8  -7   5    0.40    0.90
  -8  -7   4   16.50    1.80
  -8  -7   4   17.80    3.20
   8   7  -4   17.80    1.60
  -8  -7   4   16.20    2.20
  -8  -7   4   17.60    1.80
  -8  -7   4   16.80    2.20
  -8  -7   3    8.90    1.90
   8   7  -3    7.00    1.40
  -8  -7   3    6.00    1.30
  -8  -7   3    6.40    2.30
   8   7  -3    5.60    1.10
  -8  -7   3    6.50    1.20
  -8  -7   3    6.80    1.70
  -8  -7   2   18.90    2.00
  -8  -7   2   16.20    1.80
  -8  -7   2   16.30    2.70
   8   7  -2   18.40    1.80
   8   7  -2   14.10    1.40
  -8  -7   2   16.40    2.10
  -8  -7   2   15.60    2.30
   8   7  -2   17.50    1.80
  -8  -7   1   31.60    2.40
   8   7  -1   29.60    2.10
   8   7  -1   27.50    1.90
  -8  -7   1   30.40    2.50
   8   7  -1   30.60    2.20
  -8  -7   1   27.80    2.90
  -8  -7   0    2.70    1.50
   8   7   0    1.80    1.00
  -8  -7   0    2.70    1.10
   8   7   0    3.50    1.10
   8   7   0    2.40    0.90
   8   7   0    1.80    0.70
   8   7   0    1.80    0.90
  -8  -7  -1    0.20    1.10
   8   7   1    0.90    0.90
  -8  -7  -1    1.00    0.80
   8   7   1    2.00    1.00
   8   7   1   -0.10    0.80
   8   7   1    1.20    0.70
  -8  -7  -1    0.40    0.60
  -8  -7  -1   -0.10    0.90
   8   7   2   10.00    1.20
   8   7   2    9.00    0.90
  -8  -7  -2    9.10    1.00
  -8  -7  -2    9.70    1.20
   8   7   2    9.60    1.20
  -8  -7  -2   10.10    1.50
   8   7   3    4.60    0.80
   8   7   3    5.30    0.80
  -8  -7  -3    3.20    0.70
  -8  -8  12   53.19    2.00
  -8  -8  12   56.49    1.90
  -8  -8  11   -1.10    0.80
  -8  -8  10   -1.00    1.00
  -8  -8   9    9.00    1.30
  -8  -8   9    7.50    1.20
  -8  -8   8   33.00    2.20
  -8  -8   8   32.30    2.30
  -8  -8   7   81.19    3.40
   8   8  -7   75.79    2.70
  -8  -8   7   72.39    3.50
  -8  -8   6    0.80    1.00
   8   8  -6    1.40    0.70
  -8  -8   6    0.70    1.00
  -8  -8   6    0.20    1.00
   8   8  -5   79.09    3.10
  -8  -8   5   80.19    3.50
   8   8  -5   77.89    2.80
  -8  -8   5   81.39    3.90
  -8  -8   4    0.10    0.90
   8   8  -4    0.20    0.60
  -8  -8   4   -0.60    0.70
  -8  -8   4    0.30    1.10
   8   8  -4    0.40    0.80
  -8  -8   3   39.70    2.60
  -8  -8   3   35.30    2.30
   8   8  -3   39.10    2.30
   8   8  -3   35.00    1.80
  -8  -8   3   35.50    2.20
  -8  -8   3   38.10    2.70
  -8  -8   3   39.90    3.00
   8   8  -3   37.60    2.20
  -8  -8   2   53.19    2.80
   8   8  -2   53.29    2.60
  -8  -8   2   48.70    2.60
  -8  -8   2   48.90    3.50
  -8  -8   2   51.29    3.40
   8   8  -2   50.09    2.50
  -8  -8   1    6.60    1.50
   8   8  -1    6.00    1.00
  -8  -8   1    7.00    1.20
   8   8  -1    7.00    1.20
   8   8  -1    6.80    1.10
  -8  -8   1    6.70    1.10
   8   8  -1    7.10    1.10
  -8  -8   1    5.50    1.40
  -8  -8   0    3.90    0.90
   8   8   0    4.90    1.00
   8   8   0    2.20    0.80
  -8  -8   0    3.90    0.90
   8   8   0    3.00    0.80
  -8  -8   0    4.00    1.10
   8   8   0    3.00    0.80
  -8  -8   0    5.20    1.30
   8   8   1    1.00    0.60
   8   8   1    1.60    0.70
  -8  -8  -1    1.20    0.60
   8   8   1    1.30    0.60
  -8  -8  -1    1.40    0.70
   8   8   2   30.20    1.40
  -8  -9  11    6.70    0.90
  -8  -9  11    5.80    0.70
  -8  -9  10    1.30    0.70
  -8  -9  10    2.00    0.70
   8   9  -9   39.00    1.40
  -8  -9   9   41.60    1.70
  -8  -9   8   -0.20    0.70
  -8  -9   8    0.10    0.60
   8   9  -8    0.50    0.50
  -8  -9   7   52.69    2.40
  -8  -9   7   53.59    2.60
   8   9  -7   45.50    1.90
  -8  -9   6   11.00    1.30
  -8  -9   6   11.40    1.40
  -8  -9   6    9.40    1.30
   8   9  -6    9.60    1.00
  -8  -9   5   43.80    2.40
  -8  -9   5   38.90    2.20
   8   9  -5   42.50    2.10
  -8  -9   5   44.00    2.50
  -8  -9   5   40.60    2.60
   8   9  -5   38.50    1.80
   8   9  -4    1.50    0.60
  -8  -9   4    1.30    0.80
  -8  -9   4    1.70    0.80
   8   9  -4    2.10    0.80
  -8  -9   4    0.90    0.60
  -8  -9   4    1.60    1.10
   8   9  -3    0.00    0.60
  -8  -9   3   -0.20    0.70
   8   9  -3    0.90    0.70
   8   9  -3    0.10    0.70
  -8  -9   3    0.20    0.50
  -8  -9   3    0.70    1.00
  -8  -9   2   24.00    1.60
   8   9  -2   23.30    1.50
   8   9  -2   21.60    1.40
  -8  -9   2   20.00    1.40
   8   9  -2   24.50    1.50
   8   9  -2   18.20    1.10
  -8  -9   2   26.10    2.00
   8   9  -2   22.30    1.30
   8   9  -1   10.20    1.00
   8   9  -1    9.10    1.00
  -8  -9   1    8.70    1.00
   8   9  -1   10.90    1.00
  -8  -9   1   10.90    1.30
   8   9  -1    9.20    0.80
   8   9   0   -0.40    0.50
  -8 -10   9    2.60    0.60
  -8 -10   8   33.30    1.50
   8  10  -8   35.20    1.40
  -8 -10   7    1.80    0.60
  -8 -10   7    1.50    0.60
   8  10  -7    2.10    0.60
  -8 -10   6    9.50    1.00
  -8 -10   6    9.30    1.00
   8  10  -6    9.80    0.90
  -8 -10   5    0.30    0.60
   8  10  -5    0.50    0.50
  -8 -10   5    0.30    0.60
  -8 -10   4    3.40    0.70
   8  10  -4    3.20    0.60
   8  10  -4    3.80    0.70
  -8 -10   4    2.80    0.90
   8  10  -4    2.50    0.50
   8  10  -3    2.90    0.60
   8  10  -3    4.50    0.70
  -8 -10   3    3.40    0.80
  -9  12  -1    0.70    0.80
  -9  12  -1   -0.80    0.70
   9 -12   1    0.70    0.60
   9 -12   2   12.70    0.90
  -9  12  -2   15.20    1.50
  -9  12  -2   17.30    1.50
   9 -12   3    0.30    0.50
   9 -12   3   -0.20    0.50
  -9  12  -3    0.20    0.60
  -9  12  -3    0.70    0.80
  -9  12  -3    0.60    0.70
   9 -12   4   13.50    1.00
  -9  12  -4   16.40    1.50
  -9  12  -4   15.50    1.40
   9 -12   5    6.20    0.70
  -9  12  -5    8.40    1.00
  -9  12  -5    9.70    1.20
  -9  12  -6   14.70    1.20
  -9  11   2   47.60    2.40
  -9  11   2   43.00    2.30
   9 -11  -2   40.90    1.70
   9 -11  -1   25.90    1.30
   9 -11  -1   23.40    1.20
  -9  11   1   26.40    1.60
   9 -11  -1   28.00    1.60
   9 -11   0    5.70    0.80
   9 -11   0    4.80    0.80
  -9  11   0    5.80    1.10
  -9  11   0    5.50    1.40
   9 -11   0    5.70    1.00
   9 -11   1    0.20    0.60
   9 -11   1    0.50    0.60
  -9  11  -1    1.00    1.10
  -9  11  -1    0.40    0.90
  -9  11  -1    0.40    0.70
   9 -11   1    0.50    0.70
   9 -11   2    0.30    0.70
   9 -11   2    1.10    0.70
  -9  11  -2   -0.30    1.10
  -9  11  -2    0.30    1.00
   9 -11   2    0.30    0.40
  -9  11  -2    1.30    0.90
   9 -11   2    1.10    0.80
   9 -11   3   19.70    1.60
   9 -11   3   18.70    1.40
  -9  11  -3   23.30    2.10
  -9  11  -3   22.90    2.10
   9 -11   3   16.90    1.20
  -9  11  -3   19.90    1.90
   9 -11   3   20.10    1.70
   9 -11   4   11.10    1.30
   9 -11   4    9.50    1.10
  -9  11  -4   11.20    1.40
  -9  11  -4   11.90    1.50
   9 -11   4    9.90    1.00
  -9  11  -4   12.10    1.60
   9 -11   5   24.70    1.70
   9 -11   5   22.80    1.50
  -9  11  -5   27.90    2.10
   9 -11   5   21.30    1.40
  -9  11  -5   27.90    2.20
   9 -11   6    3.30    0.80
  -9  11  -6    3.80    0.80
   9 -11   6    3.20    0.70
  -9  11  -6    4.80    1.10
   9 -11   7   10.90    1.00
  -9  11  -7   11.70    1.20
  -9  11  -7   11.70    1.30
   9 -10  -4   11.40    0.90
   9 -10  -3    5.10    0.80
  -9  10   3    4.90    1.20
  -9  10   3    5.60    1.20
   9 -10  -3    5.70    0.90
   9 -10  -2    6.50    1.00
  -9  10   2    6.60    1.50
  -9  10   2    5.70    1.00
   9 -10  -2    5.50    1.00
  -9  10   1   13.30    2.10
   9 -10  -1   10.20    1.30
  -9  10   1   11.20    1.50
   9 -10  -1   10.40    1.00
   9 -10  -1   10.20    1.30
   9 -10   0    1.40    0.90
  -9  10   0    1.70    1.50
  -9  10   0    0.40    1.00
   9 -10   0    2.30    0.70
  -9  10   0    1.70    0.90
   9 -10   0    1.60    1.00
   9 -10   1   -0.30    0.90
   9 -10   1   -0.20    0.70
  -9  10  -1    0.40    1.40
  -9  10  -1    0.10    1.10
  -9  10  -1   -0.60    1.20
   9 -10   1    0.40    0.70
  -9  10  -1    0.40    0.90
   9 -10   1    0.30    1.00
   9 -10   2   88.09    3.60
   9 -10   2   72.19    3.10
  -9  10  -2   95.09    4.80
  -9  10  -2   93.79    4.60
   9 -10   2   78.59    3.10
  -9  10  -2   90.39    4.20
  -9  10  -2   88.19    4.20
   9 -10   2   84.39    3.70
   9 -10   3    2.40    1.00
   9 -10   3    1.90    0.90
  -9  10  -3    3.90    1.40
  -9  10  -3    4.00    1.50
   9 -10   3    2.10    0.90
  -9  10  -3    3.30    1.30
   9 -10   3    2.60    1.10
   9 -10   4   83.59    3.30
   9 -10   4   95.69    3.70
  -9  10  -4   97.19    4.30
  -9  10  -4   99.89    4.50
   9 -10   4   83.19    3.30
  -9  10  -4  100.19    4.60
   9 -10   5   12.90    1.60
   9 -10   5   11.20    1.30
  -9  10  -5   13.30    1.70
   9 -10   5   12.80    1.40
  -9  10  -5   14.80    2.00
   9 -10   6    8.00    1.10
  -9  10  -6    9.00    1.30
   9 -10   6    7.10    1.10
  -9  10  -6   10.50    1.60
   9 -10   6    9.10    1.30
   9 -10   7   18.10    1.40
   9 -10   7   16.50    1.40
  -9  10  -7   19.80    1.70
  -9  10  -7   18.30    1.70
   9 -10   8   24.80    1.40
  -9  10  -8   27.10    1.80
  -9  10  -8   21.00    1.30
  -9  10  -8   24.60    1.60
  -9  10  -9    8.10    1.00
   9  -9  -5   13.00    1.00
  -9   9   5    9.10    1.10
   9  -9  -5   10.00    0.90
  -9   9   5   12.40    1.30
   9  -9  -4    7.60    1.00
  -9   9   4    9.30    1.50
  -9   9   4    9.00    1.50
   9  -9  -4    6.40    0.80
   9  -9  -4    7.20    1.00
  -9   9   4    6.90    1.10
   9  -9  -3   21.30    1.60
  -9   9   3   19.60    2.20
   9  -9  -3   18.70    1.40
   9  -9  -3   19.60    1.60
   9  -9  -2   18.40    1.70
  -9   9   2   20.10    2.50
  -9   9   2   17.30    1.90
   9  -9  -2   16.00    1.50
   9  -9  -2   16.10    1.70
   9  -9  -1    0.00    0.90
  -9   9   1   -0.70    1.40
  -9   9   1    0.60    1.10
   9  -9  -1   -0.30    0.80
  -9   9   1    0.00    0.80
   9  -9  -1   -0.20    0.90
   9  -9   0    0.30    1.00
  -9   9   0    1.50    1.60
  -9   9   0    0.10    1.10
  -9   9   0    1.00    1.40
   9  -9   0    0.70    0.80
  -9   9   0    0.90    1.00
   9  -9   0    1.10    1.00
   9  -9   1    1.70    1.10
   9  -9   1    2.10    0.80
  -9   9  -1    2.20    1.60
  -9   9  -1    1.40    1.30
  -9   9  -1    1.10    1.30
   9  -9   1    1.60    1.00
  -9   9  -1    0.70    1.00
   9  -9   1    1.40    1.10
   9  -9   2    4.50    1.40
   9  -9   2    3.60    1.00
  -9   9  -2    3.30    1.60
  -9   9  -2    4.20    1.70
  -9   9  -2    2.90    1.30
   9  -9   2    4.80    1.20
  -9   9  -2    4.10    1.50
   9  -9   2    3.20    1.20
   9  -9   3    0.50    1.20
   9  -9   3    0.60    0.80
  -9   9  -3    0.80    1.20
  -9   9  -3    0.10    1.20
  -9   9  -3   -0.10    1.00
   9  -9   3    1.10    1.00
  -9   9  -3    0.30    1.30
   9  -9   3   -0.50    1.10
   9  -9   4    3.90    1.40
   9  -9   4    3.50    1.00
  -9   9  -4    3.90    1.40
  -9   9  -4    3.80    1.30
   9  -9   4    3.80    1.20
  -9   9  -4    3.60    1.60
   9  -9   5  133.69    4.80
   9  -9   5  118.29    4.10
  -9   9  -5  138.99    5.30
   9  -9   5  125.19    4.50
  -9   9  -5  135.89    5.50
   9  -9   6   72.09    3.50
   9  -9   6   68.99    3.00
  -9   9  -6   74.19    3.40
   9  -9   6   72.49    3.40
  -9   9  -6   75.99    3.80
   9  -9   7   91.39    3.30
   9  -9   7   96.79    3.70
  -9   9  -7   98.79    3.90
  -9   9  -7  101.49    4.10
   9  -9   8    1.60    0.70
   9  -9   8    1.00    0.50
  -9   9  -8    1.50    0.90
   9  -9   8    1.00    0.80
  -9   9  -8    2.00    0.70
  -9   9  -8    1.20    0.80
   9  -9   9   18.80    1.00
  -9   9  -9   20.00    1.20
  -9   8   7    8.70    1.20
   9  -8  -7    7.40    0.70
  -9   8   7    9.30    1.10
   9  -8  -6   22.80    1.50
  -9   8   6   21.20    1.50
   9  -8  -6   19.70    1.10
   9  -8  -6   20.80    1.30
   9  -8  -5    2.30    0.90
  -9   8   5    1.40    0.90
  -9   8   5    2.90    1.10
   9  -8  -5    2.10    0.70
   9  -8  -5    1.40    0.70
  -9   8   5    2.40    1.00
   9  -8  -4   21.90    1.90
  -9   8   4   22.40    2.40
   9  -8  -4   20.70    1.60
   9  -8  -4   21.20    1.70
  -9   8   4   25.00    2.30
   9  -8  -3    3.40    1.20
  -9   8   3    4.20    1.50
  -9   8   3    4.00    1.10
   9  -8  -3    3.60    1.00
   9  -8  -3    3.10    1.00
  -9   8   3    3.40    1.10
  -9   8   2   68.49    4.50
  -9   8   2   69.19    4.00
   9  -8  -2   66.29    3.20
   9  -8  -2   72.09    3.50
   9  -8  -2   66.19    3.30
   9  -8  -1   32.50    2.60
  -9   8   1   35.00    3.50
  -9   8   1   32.30    3.00
  -9   8   1   34.20    3.20
   9  -8  -1   31.40    2.40
  -9   8   1   30.90    2.60
   9  -8  -1   32.20    2.50
   9  -8   0    1.40    1.20
  -9   8   0    1.40    1.70
  -9   8   0    2.20    1.50
  -9   8   0    2.50    1.50
   9  -8   0    1.90    1.10
  -9   8   0    1.20    1.10
   9  -8   0    0.80    1.00
   9  -8   1    0.40    1.10
   9  -8   1    0.80    0.70
  -9   8  -1    1.80    1.80
  -9   8  -1    0.50    1.30
  -9   8  -1    0.70    1.30
   9  -8   1    0.70    1.10
  -9   8  -1    0.20    1.10
   9  -8   1    0.60    1.00
   9  -8   2   13.60    1.90
   9  -8   2   11.30    1.50
  -9   8  -2   14.50    2.40
  -9   8  -2   14.00    2.30
   9  -8   2   11.00    1.70
  -9   8  -2   13.50    2.00
  -9   8  -2   13.10    2.20
   9  -8   2   14.00    1.90
   9  -8   3    4.90    1.50
   9  -8   3    5.00    1.10
  -9   8  -3    5.30    1.50
  -9   8  -3    5.20    1.70
   9  -8   3    5.50    1.40
  -9   8  -3    5.10    1.70
   9  -8   3    5.50    1.40
   9  -8   4   28.60    2.10
  -9   8  -4   28.70    2.70
  -9   8  -4   36.40    3.10
   9  -8   4   31.20    2.60
   9  -8   4   32.80    2.70
  -9   8  -4   36.50    3.20
   9  -8   5  103.89    4.40
   9  -8   5   95.89    3.80
  -9   8  -5  115.69    5.00
   9  -8   5  100.19    4.40
  -9   8  -5  109.29    5.10
   9  -8   6    7.60    1.50
   9  -8   6    7.50    1.20
   9  -8   6    6.50    1.00
   9  -8   6    6.40    1.10
  -9   8  -6    8.00    1.30
   9  -8   6    8.00    1.60
  -9   8  -6    7.60    1.60
   9  -8   7    1.10    0.80
   9  -8   7    0.50    0.60
   9  -8   7    0.50    0.70
   9  -8   7    1.40    1.10
  -9   8  -7    0.50    0.90
  -9   8  -7    1.10    1.00
   9  -8   8    2.50    0.70
   9  -8   8    2.30    0.80
  -9   8  -8    1.80    1.00
   9  -8   8    1.90    1.00
  -9   8  -8    1.30    0.70
  -9   8  -8    2.70    1.00
   9  -8   9    0.70    0.50
   9  -8   9    1.80    0.70
  -9   8  -9    2.00    0.80
  -9   8  -9    1.10    0.60
  -9   8 -10   -0.10    0.60
   9  -7  -8    6.80    0.80
  -9   7   8    8.10    1.20
   9  -7  -7   32.30    1.70
  -9   7   7   34.50    2.60
   9  -7  -7   29.90    1.80
   9  -7  -7   27.40    1.50
   9  -7  -7   24.30    1.30
  -9   7   7   34.80    2.50
   9  -7  -6   29.10    1.90
   9  -7  -6   25.20    1.90
  -9   7   6   26.20    2.20
   9  -7  -6   24.60    1.70
   9  -7  -6   23.20    1.60
  -9   7   6   28.70    2.50
   9  -7  -5   48.00    2.70
  -9   7   5   44.80    3.10
   9  -7  -5   44.60    2.70
  -9   7   5   45.20    3.40
   9  -7  -5   39.20    2.20
  -9   7   5   48.10    3.30
   9  -7  -4    0.70    1.10
  -9   7   4    0.60    1.20
   9  -7  -4    1.70    1.10
   9  -7  -4    1.30    1.00
   9  -7  -4    0.40    0.70
  -9   7   4    1.00    1.00
   9  -7  -3   89.99    4.00
  -9   7   3   85.69    5.00
   9  -7  -3   80.49    4.00
  -9   7   3   79.69    4.20
   9  -7  -3   83.09    3.80
   9  -7  -3   78.69    3.60
  -9   7   3   86.69    4.40
   9  -7  -2    0.50    1.10
  -9   7   2    0.00    1.40
  -9   7   2   -0.10    1.10
   9  -7  -2    0.90    1.10
  -9   7   2    1.50    1.00
   9  -7  -2    0.80    1.00
   9  -7  -1   20.10    2.20
  -9   7   1   25.30    3.20
  -9   7   1   21.90    2.60
   9  -7  -1   21.90    2.20
  -9   7   1   22.00    2.40
   9  -7  -1   20.30    2.00
   9  -7   0    9.90    1.70
  -9   7   0   10.90    2.30
  -9   7   0    8.80    1.80
  -9   7   0   10.20    2.00
   9  -7   0    7.80    1.50
  -9   7   0    9.20    1.80
   9  -7   0    7.60    1.40
   9  -7   1    0.20    1.10
   9  -7   1   -0.20    0.70
  -9   7  -1    0.00    1.50
  -9   7  -1   -0.70    1.40
  -9   7  -1   -0.30    1.20
   9  -7   1   -0.30    1.20
  -9   7  -1   -0.60    1.20
   9  -7   1   -0.40    1.00
   9  -7   2   20.90    1.80
  -9   7  -2   28.00    3.10
   9  -7   2   23.20    2.40
  -9   7  -2   26.40    2.90
   9  -7   2   21.40    2.20
  -9   7  -2   24.50    2.80
   9  -7   2   23.40    2.30
   9  -7   3    4.70    1.40
   9  -7   3    5.10    1.10
  -9   7  -3    6.70    1.80
  -9   7  -3    6.70    1.80
   9  -7   3    5.50    1.50
  -9   7  -3    7.10    1.80
   9  -7   3    4.60    1.20
   9  -7   3    4.90    1.40
   9  -7   4    2.40    1.40
   9  -7   4    2.30    0.90
   9  -7   4    1.70    0.90
  -9   7  -4    2.50    1.30
   9  -7   4    1.90    1.20
  -9   7  -4    1.40    1.10
  -9   7  -4    2.30    1.50
   9  -7   4    2.10    1.00
   9  -7   5   32.00    2.60
   9  -7   5   32.80    2.20
   9  -7   5   30.30    2.20
  -9   7  -5   39.50    2.90
   9  -7   5   32.80    2.70
  -9   7  -5   39.90    3.20
   9  -7   5   34.30    2.40
   9  -7   6   18.70    2.00
   9  -7   6   17.40    1.70
   9  -7   6   18.40    1.80
   9  -7   6   18.40    2.10
  -9   7  -6   22.70    2.30
   9  -7   6   19.00    1.80
  -9   7  -6   19.50    2.30
   9  -7   7   33.90    2.10
   9  -7   7   32.50    2.20
   9  -7   7   30.50    2.10
   9  -7   7   34.60    2.50
  -9   7  -7   34.90    2.50
  -9   7  -7   35.40    2.70
   9  -7   8    1.40    0.80
   9  -7   8    0.40    0.80
  -9   7  -8    1.40    1.10
   9  -7   8    1.30    1.00
  -9   7  -8    1.40    0.90
   9  -7   9   19.90    1.40
   9  -7   9   18.20    1.40
  -9   7  -9   18.60    1.70
  -9   7  -9   17.90    1.40
   9  -7  10   -0.50    0.60
  -9   7 -10    0.10    0.50
  -9   7 -10   -0.10    0.60
   9  -6  -9   13.50    1.00
   9  -6  -9   13.10    0.90
  -9   6   9   15.70    1.50
   9  -6  -8   22.70    1.50
  -9   6   8   22.70    2.10
   9  -6  -8   21.70    1.50
  -9   6   8   25.60    2.30
   9  -6  -7   65.19    2.80
  -9   6   7   70.79    4.20
   9  -6  -7   64.29    2.90
  -9   6   7   65.39    3.30
   9  -6  -7   59.59    2.10
  -9   6   7   67.49    3.90
   9  -6  -6    3.80    1.30
   9  -6  -6    3.80    1.10
  -9   6   6    4.50    1.50
   9  -6  -6    2.80    0.70
   9  -6  -6    3.10    0.80
  -9   6   6    3.80    1.40
   9  -6  -5   44.20    2.80
  -9   6   5   39.70    3.20
   9  -6  -5   40.60    2.80
  -9   6   5   42.00    3.50
   9  -6  -5   40.70    2.10
   9  -6  -5   37.50    2.30
  -9   6   5   40.40    3.30
   9  -6  -4   10.70    1.70
  -9   6   4   11.30    2.10
   9  -6  -4   11.10    1.70
  -9   6   4   10.40    1.60
   9  -6  -4    9.20    1.20
   9  -6  -4    8.60    1.30
  -9   6   4   11.40    1.90
   9  -6  -3    3.00    1.30
  -9   6   3    1.70    1.40
   9  -6  -3    2.20    1.20
  -9   6   3    2.30    1.10
   9  -6  -3    1.70    0.80
   9  -6  -3    1.90    0.90
  -9   6   3    2.50    1.10
   9  -6  -2  183.08    6.00
  -9   6   2  183.48    7.70
  -9   6   2  176.78    6.90
   9  -6  -2  181.68    6.00
   9  -6  -2  163.18    5.00
  -9   6   2  161.88    6.20
   9  -6  -2  163.58    5.40
   9  -6  -1   31.20    2.60
  -9   6   1   30.10    3.30
  -9   6   1   29.50    3.00
   9  -6  -1   30.40    2.60
  -9   6   1   29.40    2.80
   9  -6  -1   29.00    2.30
   9  -6   0  109.49    4.70
  -9   6   0  109.19    6.00
  -9   6   0  106.09    5.50
   9  -6   0  102.99    4.60
  -9   6   0   96.59    5.10
   9  -6   0   98.19    4.30
   9  -6   1   15.80    2.00
  -9   6  -1   18.60    2.80
  -9   6  -1   20.10    2.60
  -9   6  -1   17.20    2.40
   9  -6   1   16.50    2.00
  -9   6  -1   16.30    2.30
   9  -6   1   14.40    1.80
   9  -6   2    4.10    1.40
  -9   6  -2    4.40    1.70
  -9   6  -2    3.50    1.60
   9  -6   2    3.90    1.40
  -9   6  -2    4.00    1.60
   9  -6   2    4.20    1.20
   9  -6   3   41.30    3.00
  -9   6  -3   48.20    3.80
  -9   6  -3   47.00    3.60
   9  -6   3   41.40    3.00
  -9   6  -3   46.80    3.70
   9  -6   3   40.70    2.80
   9  -6   3   39.90    2.90
   9  -6   4    8.30    1.60
   9  -6   4    7.70    1.20
  -9   6  -4    6.60    1.60
  -9   6  -4    8.80    1.70
   9  -6   4    9.90    1.80
  -9   6  -4    9.00    2.00
   9  -6   4    7.70    1.50
   9  -6   5   61.59    3.50
   9  -6   5   61.59    3.00
   9  -6   5   59.29    3.30
  -9   6  -5   69.19    3.80
   9  -6   5   62.19    3.60
  -9   6  -5   62.89    4.00
   9  -6   5   59.39    3.40
  -9   6  -5   68.99    4.10
   9  -6   6   -0.70    1.00
   9  -6   6    0.30    0.70
   9  -6   6   -0.20    1.00
   9  -6   6   -0.10    1.10
  -9   6  -6   -0.50    1.00
   9  -6   6    0.20    1.00
  -9   6  -6    0.00    1.10
   9  -6   7    0.30    0.90
  -9   6  -7    1.50    1.20
   9  -6   7   -0.30    1.10
  -9   6  -7    0.20    0.70
  -9   6  -7   -0.30    1.00
   9  -6   8   -0.30    0.90
   9  -6   8    0.60    0.90
  -9   6  -8   -0.50    0.90
   9  -6   8    0.00    0.90
  -9   6  -8    0.90    0.90
   9  -6   9   11.50    1.30
   9  -6   9   11.10    1.20
  -9   6  -9   11.70    1.40
  -9   6  -9   12.30    1.50
  -9   6  -9    9.70    1.10
   9  -6  10   21.80    1.40
   9  -6  10   20.60    1.20
  -9   6 -10   20.30    1.30
  -9   6 -10   21.80    1.50
  -9   6 -10   21.00    1.40
   9  -5 -10    2.90    0.60
  -9   5  10    3.80    1.00
   9  -5  -9   47.80    2.00
  -9   5   9   43.80    2.40
   9  -5  -9   44.30    1.90
   9  -5  -9   41.10    1.50
  -9   5   9   51.29    3.00
   9  -5  -8    0.50    0.90
  -9   5   8    0.40    1.00
   9  -5  -8    0.60    0.70
   9  -5  -8    0.50    0.50
   9  -5  -8   -1.50    0.80
  -9   5   8    0.50    1.20
   9  -5  -7   66.79    3.10
  -9   5   7   68.29    4.50
   9  -5  -7   62.99    3.10
  -9   5   7   59.49    3.70
   9  -5  -7   62.69    2.60
  -9   5   7   65.49    4.10
   9  -5  -6   10.40    1.70
  -9   5   6   11.30    1.80
   9  -5  -6    9.30    1.50
  -9   5   6    9.30    1.90
   9  -5  -6   10.10    1.30
  -9   5   6    8.80    1.90
   9  -5  -5   76.29    3.70
  -9   5   5   70.69    4.40
   9  -5  -5   71.29    3.70
  -9   5   5   74.09    4.80
   9  -5  -5   70.19    3.20
  -9   5   5   77.49    4.70
   9  -5  -4   13.60    1.90
  -9   5   4   14.70    2.30
   9  -5  -4   11.50    1.80
  -9   5   4   12.60    1.90
   9  -5  -4   12.20    1.50
  -9   5   4   11.80    2.00
   9  -5  -3    4.50    1.40
  -9   5   3    3.70    1.60
   9  -5  -3    3.30    0.80
   9  -5  -3    4.80    1.40
  -9   5   3    3.10    1.30
   9  -5  -3    4.40    1.20
  -9   5   3    1.90    1.00
  -9   5   3    3.90    1.20
   9  -5  -2  132.39    5.00
  -9   5   2  130.39    6.50
   9  -5  -2  128.29    4.20
  -9   5   2  120.99    5.80
   9  -5  -2  125.29    4.50
  -9   5   2  113.59    5.20
   9  -5  -2  122.99    4.40
   9  -5  -1    4.40    1.20
  -9   5   1    3.90    1.70
   9  -5  -1    3.70    1.00
  -9   5   1    4.80    1.50
   9  -5  -1    3.40    1.20
  -9   5   1    3.00    1.20
   9  -5  -1    2.30    0.90
   9  -5   0   10.00    1.60
  -9   5   0    9.70    2.20
  -9   5   0   14.20    2.40
  -9   5   0   11.50    2.10
   9  -5   0   11.00    1.70
  -9   5   0   11.20    2.00
   9  -5   0   11.60    1.50
   9  -5   1   13.60    1.80
  -9   5  -1   16.70    2.30
  -9   5  -1   14.70    2.20
   9  -5   1   14.30    1.90
  -9   5  -1   18.60    2.70
  -9   5  -1   13.90    2.10
   9  -5   1   12.30    1.60
   9  -5   2    1.30    1.00
  -9   5  -2    1.70    1.40
  -9   5  -2    0.70    1.20
   9  -5   2    1.30    1.20
  -9   5  -2    0.90    1.30
   9  -5   2    2.40    1.10
   9  -5   3  151.98    5.70
  -9   5  -3  183.68    7.30
  -9   5  -3  183.88    6.90
   9  -5   3  166.88    5.90
  -9   5  -3  182.08    7.10
   9  -5   3  164.98    5.80
   9  -5   4    8.70    1.50
  -9   5  -4   10.80    1.90
  -9   5  -4   11.20    1.80
   9  -5   4    8.50    1.60
  -9   5  -4    9.60    1.90
   9  -5   4    9.10    1.70
  -9   5  -4   11.00    1.90
   9  -5   5    2.10    1.00
   9  -5   5    3.60    1.30
  -9   5  -5    4.60    1.20
   9  -5   5    3.20    1.30
  -9   5  -5    3.50    1.40
   9  -5   5    3.40    1.40
  -9   5  -5    3.30    1.40
   9  -5   6    0.00    1.10
  -9   5  -6    0.80    1.20
   9  -5   6    0.40    1.00
  -9   5  -6   -0.40    0.90
   9  -5   6   -0.10    1.10
  -9   5  -6    0.20    1.20
   9  -5   7   46.90    2.90
  -9   5  -7   52.79    3.40
   9  -5   7   46.30    2.80
  -9   5  -7   50.09    3.20
   9  -5   8   20.90    1.90
   9  -5   8   17.70    1.70
  -9   5  -8   20.00    2.00
  -9   5  -8   21.20    1.90
   9  -5   8   18.10    1.30
   9  -5   9   12.20    1.00
   9  -5   9   16.50    1.60
   9  -5   9   14.30    1.30
  -9   5  -9   15.40    1.50
  -9   5  -9   16.70    1.60
  -9   5  -9   12.10    1.40
  -9   5  -9   12.50    1.20
   9  -5  10   21.50    1.40
   9  -5  10   16.70    1.00
  -9   5 -10   16.60    1.10
  -9   5 -10   18.60    1.40
  -9   5 -10   20.80    1.40
   9  -4 -10    1.10    0.60
   9  -4 -10    0.40    0.40
   9  -4 -10    0.80    0.50
  -9   4  10    1.30    0.90
   9  -4  -9    2.00    0.90
  -9   4   9    0.80    1.00
   9  -4  -9    0.80    0.60
   9  -4  -9    2.30    0.80
   9  -4  -9    3.30    0.90
  -9   4   9    0.60    1.10
   9  -4  -8    7.90    1.50
  -9   4   8    4.30    1.60
   9  -4  -8    3.80    1.00
  -9   4   8    2.40    1.00
   9  -4  -8    8.40    1.30
  -9   4   8    4.70    1.60
   9  -4  -7    9.80    1.60
   9  -4  -7   16.60    1.20
  -9   4   7    6.40    2.00
   9  -4  -7    3.90    1.10
  -9   4   7    3.30    1.40
   9  -4  -7   11.40    1.50
   9  -4  -7   19.50    1.90
  -9   4   7    5.60    1.80
   9  -4  -6    2.80    1.30
  -9   4   6    1.30    1.20
   9  -4  -6   14.90    1.30
  -9   4   6    1.50    1.70
   9  -4  -6    1.50    1.00
  -9   4   6    0.80    1.30
   9  -4  -6    5.60    1.30
   9  -4  -6   13.10    1.80
  -9   4   6    1.80    1.50
   9  -4  -5   25.60    2.30
  -9   4   5   20.50    2.50
   9  -4  -5   29.20    1.80
   9  -4  -5   22.60    2.20
  -9   4   5   19.70    2.20
  -9   4   5   23.50    3.00
   9  -4  -5   24.70    2.20
   9  -4  -5   21.30    2.10
  -9   4   5   22.00    2.70
   9  -4  -4   46.10    2.90
  -9   4   4   39.90    3.60
   9  -4  -4   36.80    2.00
   9  -4  -4   44.50    3.00
  -9   4   4   39.60    3.20
  -9   4   4   38.70    3.80
   9  -4  -4   43.20    2.70
   9  -4  -4   37.10    2.40
  -9   4   4   49.50    3.70
   9  -4  -3    0.20    0.90
  -9   4   3   -0.30    1.30
   9  -4  -3    0.40    0.70
   9  -4  -3   -0.10    1.00
  -9   4   3    0.20    1.10
   9  -4  -3   -0.40    0.90
  -9   4   3   -0.10    0.90
  -9   4   3   -0.30    0.90
   9  -4  -2    1.00    0.90
  -9   4   2    2.20    1.50
   9  -4  -2    0.80    0.70
   9  -4  -2    2.10    0.90
  -9   4   2    3.20    1.80
  -9   4   2    1.60    1.30
   9  -4  -2    1.20    0.90
  -9   4   2    2.10    1.20
   9  -4  -1   40.20    2.70
  -9   4   1   42.20    3.80
   9  -4  -1   31.40    2.00
   9  -4  -1   39.00    2.50
  -9   4   1   48.30    4.10
  -9   4   1   42.70    3.50
   9  -4  -1   40.90    2.90
   9  -4  -1   41.20    2.70
  -9   4   1   37.40    3.20
  -9   4   1   39.80    2.80
   9  -4   0  145.29    5.20
  -9   4   0  156.48    7.10
   9  -4   0  144.99    4.80
  -9   4   0  159.08    6.70
   9  -4   0  150.18    5.40
  -9   4   0  150.28    6.30
  -9   4   0  142.39    5.60
   9  -4   1   92.09    4.10
  -9   4  -1  104.89    5.70
  -9   4  -1   93.89    4.30
   9  -4   1   90.19    3.80
  -9   4  -1  106.09    5.40
  -9   4  -1  100.19    5.30
  -9   4  -1  103.69    5.10
   9  -4   1  101.19    4.40
  -9   4  -1   96.99    5.10
  -9   4  -1   97.89    4.80
   9  -4   2    6.70    1.30
  -9   4  -2    5.30    1.80
  -9   4  -2    9.00    1.80
   9  -4   2    7.00    1.50
  -9   4  -2    4.70    1.50
  -9   4  -2    5.60    1.40
   9  -4   3   11.80    1.60
  -9   4  -3   12.80    2.20
  -9   4  -3   11.80    1.90
  -9   4  -3   12.10    1.90
   9  -4   3   12.10    1.80
  -9   4  -3   10.40    2.10
   9  -4   3   12.70    1.90
  -9   4  -3   11.40    1.90
   9  -4   4    1.50    1.00
  -9   4  -4    1.90    1.20
  -9   4  -4    2.90    1.30
   9  -4   4    1.50    0.90
  -9   4  -4    1.30    1.00
   9  -4   4    1.60    1.00
  -9   4  -4    1.00    1.10
   9  -4   4    2.10    1.20
  -9   4  -4    2.20    1.30
   9  -4   5    0.10    0.70
   9  -4   5    0.50    1.10
  -9   4  -5    0.50    1.10
   9  -4   5    0.30    0.80
   9  -4   5    1.00    1.00
  -9   4  -5    0.60    1.00
   9  -4   5    0.50    1.20
  -9   4  -5   -0.10    1.30
   9  -4   6   12.30    1.90
  -9   4  -6   15.00    2.10
   9  -4   6   12.80    1.50
   9  -4   6   12.80    1.70
   9  -4   6   13.30    2.00
  -9   4  -6   13.40    2.00
   9  -4   7   34.40    2.60
  -9   4  -7   35.10    2.80
   9  -4   7   32.60    2.10
   9  -4   7   33.20    2.30
  -9   4  -7   34.20    2.60
   9  -4   8   36.70    2.10
   9  -4   8   40.50    2.60
   9  -4   8   36.00    2.10
  -9   4  -8   40.80    2.70
   9  -4   8   36.30    1.90
  -9   4  -8   39.90    2.70
  -9   4  -8   34.90    2.30
   9  -4   9   86.89    3.20
   9  -4   9   77.19    2.60
  -9   4  -9   83.79    3.20
  -9   4  -9   88.09    3.40
   9  -4   9   72.39    2.50
  -9   4  -9   91.09    3.30
   9  -4  10    0.80    0.70
  -9   4 -10   -0.10    0.60
  -9   4 -10    0.60    0.60
  -9   4 -10    1.60    0.80
   9  -3 -11   67.99    2.00
   9  -3 -11   66.99    1.80
  -9   3  11   71.39    3.00
   9  -3 -10    1.70    0.80
  -9   3  10   -0.10    0.50
   9  -3 -10    0.00    0.50
   9  -3 -10    2.50    0.90
  -9   3  10    0.30    1.10
   9  -3  -9   18.70    5.00
   9  -3  -9   44.60    1.70
  -9   3   9   21.80    1.70
  -9   3   9   19.90    2.20
   9  -3  -9   18.20    1.50
   9  -3  -9   36.30    2.10
   9  -3  -9   53.19    2.40
  -9   3   9   21.90    2.60
   9  -3  -8   67.49    2.40
  -9   3   8    4.20    1.00
  -9   3   8    3.50    1.50
   9  -3  -8    3.80    1.00
  -9   3   8    3.00    1.20
   9  -3  -8   25.70    2.20
   9  -3  -8   61.89    2.80
  -9   3   8    4.80    1.80
   9  -3  -7  129.99    3.60
  -9   3   7   74.29    5.10
   9  -3  -7   68.79    3.30
  -9   3   7   63.79    4.40
   9  -3  -7  101.79    4.00
   9  -3  -7  122.99    4.20
  -9   3   7   74.99    4.90
   9  -3  -6    5.30    1.50
  -9   3   6    2.30    1.40
  -9   3   6    2.00    1.60
   9  -3  -6    1.50    0.90
  -9   3   6    0.70    1.30
  -9   3   6    1.30    1.40
   9  -3  -5   27.60    2.30
  -9   3   5   25.20    2.90
  -9   3   5   27.40    3.40
   9  -3  -5   27.00    2.20
  -9   3   5   22.90    2.50
  -9   3   5   27.80    3.20
   9  -3  -5   32.20    2.50
   9  -3  -5   35.30    2.50
  -9   3   5   25.90    2.90
   9  -3  -4   26.00    2.20
  -9   3   4   26.70    3.00
  -9   3   4   31.40    3.60
   9  -3  -4   22.90    2.10
  -9   3   4   22.80    2.60
  -9   3   4   29.40    3.30
   9  -3  -4   25.80    2.20
   9  -3  -4   24.90    2.00
  -9   3   4   27.40    2.80
   9  -3  -3  127.89    4.70
  -9   3   3  124.99    6.30
   9  -3  -3  105.69    3.70
  -9   3   3  152.38    7.30
  -9   3   3  122.69    5.80
  -9   3   3  130.49    6.40
   9  -3  -3  127.39    4.70
  -9   3   3  111.99    5.20
  -9   3   3  138.19    5.90
   9  -3  -2  211.08    6.00
  -9   3   2  218.58    8.40
   9  -3  -2  164.88    4.90
   9  -3  -2  213.28    6.00
  -9   3   2  253.77    9.20
  -9   3   2  205.98    7.70
  -9   3   2  225.48    8.30
   9  -3  -2  200.28    6.10
  -9   3   2  184.78    7.00
   9  -3  -1   17.30    1.80
  -9   3   1   20.50    2.70
   9  -3  -1   14.60    1.50
   9  -3  -1   19.00    1.90
  -9   3   1   22.00    2.80
   9  -3  -1   17.20    1.60
  -9   3   1   20.40    2.50
  -9   3   1   21.10    2.60
   9  -3  -1   21.40    2.10
   9  -3  -1   15.90    1.80
  -9   3   1   19.00    2.40
  -9   3   1   19.40    2.00
   9  -3   0  119.39    4.40
  -9   3   0  132.19    6.50
   9  -3   0  120.69    4.50
  -9   3   0  137.69    6.50
   9  -3   0  122.89    4.20
  -9   3   0  131.99    6.00
  -9   3   0  137.89    6.00
   9  -3   0  134.39    4.90
  -9   3   0  116.19    5.60
  -9   3   0  123.29    5.20
  -9   3  -1   66.29    4.70
  -9   3  -1   56.69    3.40
   9  -3   1   52.49    3.00
   9  -3   1   54.19    2.80
  -9   3  -1   58.99    4.00
  -9   3  -1   66.19    4.00
   9  -3   1   62.19    3.30
  -9   3  -1   59.99    4.00
  -9   3  -1   58.29    3.80
  -9   3  -2   78.69    4.20
   9  -3   2   72.19    3.30
  -9   3  -2   84.99    4.70
  -9   3  -2   81.39    5.00
   9  -3   2   83.19    3.80
  -9   3  -2   78.79    4.60
  -9   3  -2   79.59    4.40
  -9   3  -3    0.90    1.30
  -9   3  -3    0.30    0.90
  -9   3  -3   -0.30    0.90
   9  -3   3   -0.40    0.90
   9  -3   3   -0.20    0.90
  -9   3  -3    0.00    1.20
   9  -3   3    0.00    1.10
  -9   3  -3    0.60    1.00
  -9   3  -4    3.40    1.50
  -9   3  -4    2.70    1.20
   9  -3   4    2.10    1.00
  -9   3  -4    2.70    1.10
   9  -3   4    2.00    1.00
   9  -3   4    2.00    1.10
  -9   3  -4    2.60    1.30
   9  -3   4    2.90    1.30
  -9   3  -4    2.60    1.30
   9  -3   5   74.39    4.00
  -9   3  -5   77.89    4.30
   9  -3   5   73.29    3.60
   9  -3   5   79.99    3.60
   9  -3   5   74.59    3.50
   9  -3   5   76.69    4.10
  -9   3  -5   82.79    4.50
   9  -3   6    5.50    1.50
  -9   3  -6    4.70    1.50
   9  -3   6    4.10    1.10
   9  -3   6    3.90    1.00
   9  -3   6    3.70    1.10
   9  -3   6    4.80    1.50
  -9   3  -6    4.90    1.40
   9  -3   7    7.80    1.50
   9  -3   7    7.50    1.20
  -9   3  -7    7.00    1.50
  -9   3  -7    7.40    1.50
  -9   3  -7    4.80    1.20
  -9   3  -7    6.50    1.40
   9  -3   8   36.50    2.20
   9  -3   8   42.40    2.50
   9  -3   8   33.50    1.90
  -9   3  -8   40.40    2.60
   9  -3   8   35.50    2.10
  -9   3  -8   40.20    2.60
  -9   3  -8   41.10    2.50
  -9   3  -8   31.50    2.10
   9  -3   9   15.50    1.30
   9  -3   9   19.10    1.50
   9  -3   9   14.60    1.00
  -9   3  -9   17.10    1.40
  -9   3  -9   18.60    1.60
  -9   3  -9   19.40    1.60
  -9   3  -9   20.20    1.60
  -9   3 -10    4.30    0.80
   9  -2 -11   30.60    1.50
   9  -2 -11   26.80    1.00
  -9   2  11   32.70    1.70
   9  -2 -11   34.30    1.60
   9  -2 -11   34.90    1.60
  -9   2  11   30.30    2.30
   9  -2 -10   72.09    2.10
  -9   2  10   14.20    1.50
   9  -2 -10   29.40    2.00
   9  -2 -10   60.09    2.40
  -9   2  10   12.80    2.00
  -9   2   9   72.59    3.40
  -9   2   9   65.29    4.10
   9  -2  -9   61.09    2.60
  -9   2   9   75.09    4.60
  -9   2   8    7.10    1.20
  -9   2   8    6.50    1.90
   9  -2  -8    7.10    1.10
  -9   2   8    4.90    1.50
  -9   2   8    6.70    1.90
  -9   2   7    2.50    0.90
  -9   2   7    2.80    1.60
   9  -2  -7    1.90    0.80
  -9   2   7    2.30    1.40
  -9   2   7    2.60    1.60
   9  -2  -6   14.00    1.70
  -9   2   6   10.60    2.00
  -9   2   6    7.40    2.10
   9  -2  -6    8.20    1.30
  -9   2   6    9.70    2.10
  -9   2   6    9.10    2.00
   9  -2  -5    3.00    1.10
  -9   2   5    2.90    1.50
  -9   2   5    2.00    1.40
   9  -2  -5    1.40    0.80
  -9   2   5    1.40    1.10
  -9   2   5    1.70    1.30
  -9   2   5    0.40    1.40
   9  -2  -4  340.47    7.70
  -9   2   4  335.37   10.40
   9  -2  -4  298.37    6.70
  -9   2   4  366.26   11.60
  -9   2   4  300.87    9.40
  -9   2   4  346.87   10.70
   9  -2  -4  335.37    8.00
   9  -2  -4  310.47    7.10
  -9   2   4  351.26   10.10
  -9   2   3    6.40    1.70
  -9   2   3    6.50    2.00
  -9   2   3    2.30    1.20
  -9   2   3    4.70    1.70
   9  -2  -3    5.20    1.20
  -9   2   3    4.80    1.40
  -9   2   2   27.80    3.10
   9  -2  -2   23.10    1.80
   9  -2  -2   29.40    2.30
  -9   2   2   31.00    3.40
  -9   2   2   29.40    3.00
  -9   2   2   30.10    3.10
   9  -2  -2   29.30    2.40
  -9   2   1    8.00    2.00
   9  -2  -1    6.10    1.20
   9  -2  -1    8.60    1.40
  -9   2   1    7.00    1.90
   9  -2  -1    9.60    1.40
  -9   2   1   11.00    1.90
  -9   2   1   10.20    1.90
   9  -2  -1    9.40    1.40
   9  -2  -1    7.80    1.50
  -9   2   1    7.90    1.60
  -9   2   1    7.10    1.50
  -9   2   0   13.70    2.40
  -9   2   0   11.90    1.60
   9  -2   0   12.00    1.60
  -9   2   0   14.50    2.30
   9  -2   0   12.30    1.50
  -9   2   0   11.90    2.00
  -9   2   0   12.40    1.90
   9  -2   0   12.60    1.60
  -9   2   0   12.30    2.10
  -9   2   0   12.00    1.80
  -9   2  -1    6.40    1.90
  -9   2  -1    6.70    1.40
   9  -2   1    4.80    1.20
  -9   2  -1    4.50    1.50
   9  -2   1    4.10    1.10
  -9   2  -1    4.90    1.50
   9  -2   1    5.40    1.10
   9  -2   1    6.20    1.20
  -9   2  -1    5.40    1.60
  -9   2  -1    4.90    1.40
  -9   2  -2    4.30    1.70
  -9   2  -2    3.50    1.20
   9  -2   2    2.80    1.00
  -9   2  -2    3.60    1.30
   9  -2   2    2.60    0.90
   9  -2   2    3.70    1.00
  -9   2  -2    2.70    1.30
  -9   2  -3   20.00    2.60
  -9   2  -3   20.70    2.40
   9  -2   3   17.60    2.00
  -9   2  -3   18.50    2.20
   9  -2   3   15.80    1.70
   9  -2   3   17.70    2.00
   9  -2   3   19.30    2.20
  -9   2  -3   18.90    2.40
  -9   2  -4    7.90    1.80
   9  -2   4    9.40    1.60
  -9   2  -4    9.90    1.70
   9  -2   4    8.10    1.40
   9  -2   4    9.80    1.60
   9  -2   4   10.20    1.80
  -9   2  -4    9.90    1.90
   9  -2   5    1.20    1.20
  -9   2  -5    0.50    1.10
   9  -2   5    0.80    1.10
  -9   2  -5    1.20    1.10
   9  -2   5    0.90    1.00
  -9   2  -5   -1.40    1.50
  -9   2  -5   -0.40    1.00
   9  -2   5    1.20    1.30
  -9   2  -5    0.50    1.20
   9  -2   6    5.30    1.40
  -9   2  -6    5.80    1.60
   9  -2   6    5.40    1.30
  -9   2  -6    5.20    1.40
   9  -2   6    4.60    1.30
  -9   2  -6    2.70    1.10
  -9   2  -6    4.20    1.30
   9  -2   7   -0.60    1.00
   9  -2   7    0.80    0.70
  -9   2  -7    1.10    1.10
   9  -2   7   -0.30    0.90
  -9   2  -7    0.10    1.00
  -9   2  -7   -0.10    1.20
  -9   2  -7    0.80    0.90
   9  -2   8    5.20    1.10
   9  -2   8    4.40    0.80
  -9   2  -8    6.20    1.20
   9  -2   8    6.00    1.10
  -9   2  -8    6.20    1.20
  -9   2  -8    8.40    1.50
   9  -2   9    0.50    0.60
  -9   2  -9    0.50    0.50
   9  -2   9    1.50    0.60
  -9   2  -9    0.60    0.50
  -9   2  -9    0.20    0.60
  -9   2  -9    1.00    0.70
  -9   2  -9    1.90    0.90
  -9   1  12   14.90    1.10
   9  -1 -12   16.10    1.00
   9  -1 -11    4.00    0.80
  -9   1  11    1.80    0.80
  -9   1  11    1.70    1.10
  -9   1  10   14.70    1.70
  -9   1  10   13.70    2.20
  -9   1   9   -1.00    0.90
  -9   1   9    0.20    1.20
  -9   1   9   -0.30    1.50
  -9   1   8    1.40    0.90
  -9   1   8   -0.50    1.30
  -9   1   8    1.80    1.70
  -9   1   7   63.49    3.50
  -9   1   7   59.19    4.70
  -9   1   7   53.69    4.20
  -9   1   7   55.29    4.30
  -9   1   6   39.30    3.40
  -9   1   6   44.60    2.90
  -9   1   6   39.60    3.90
  -9   1   6   38.90    3.70
   9  -1  -6   52.79    3.20
  -9   1   6   38.90    3.70
  -9   1   5  698.23   15.60
   9  -1  -5  660.23   11.10
  -9   1   5  742.43   17.40
  -9   1   5  621.84   14.10
  -9   1   5  713.63   16.20
   9  -1  -5  727.93   12.60
   9  -1  -5  660.33   11.20
  -9   1   5  735.33   15.90
  -9   1   4   10.00    2.20
  -9   1   4   13.50    2.50
  -9   1   4   13.90    2.20
  -9   1   4   13.80    2.30
   9  -1  -4   14.80    1.80
   9  -1  -4    9.80    1.20
  -9   1   4   13.90    2.30
  -9   1   4   13.80    2.20
  -9   1   3   59.99    4.50
   9  -1  -3   67.09    3.00
  -9   1   3   68.09    4.90
  -9   1   3   62.39    4.20
  -9   1   3   64.89    4.50
   9  -1  -3   64.69    3.40
  -9   1   3   63.49    4.00
  -9   1   2    6.90    1.90
   9  -1  -2    4.40    1.00
   9  -1  -2    7.90    1.40
  -9   1   2    4.50    1.80
  -9   1   2    7.30    1.80
  -9   1   2    5.80    1.70
   9  -1  -2    7.20    1.20
   9  -1  -2    5.60    1.30
  -9   1   1    2.00    1.60
   9  -1  -1    1.60    0.80
   9  -1  -1    2.20    1.00
  -9   1   1    0.90    1.30
   9  -1  -1    2.00    0.90
  -9   1   1    1.90    1.30
   9  -1  -1    2.50    0.90
  -9   1   1    2.20    1.20
  -9   1   1    2.40    1.00
  -9   1   1    1.80    1.00
  -9   1   0    7.20    2.00
  -9   1   0    7.90    1.50
   9  -1   0    6.40    1.30
  -9   1   0    6.00    1.70
   9  -1   0    8.50    1.40
  -9   1   0    6.20    1.70
   9  -1   0    7.00    1.20
  -9   1   0    7.20    1.60
  -9   1   0    6.70    1.40
  -9   1  -1    6.80    2.00
  -9   1  -1    7.60    1.50
   9  -1   1    7.00    1.40
  -9   1  -1    6.60    1.60
   9  -1   1    6.90    1.30
  -9   1  -1    5.90    1.60
   9  -1   1    7.70    1.30
  -9   1  -1    7.00    1.50
  -9   1  -2   23.30    2.90
  -9   1  -2   25.80    2.50
   9  -1   2   23.60    2.20
  -9   1  -2   23.40    2.50
  -9   1  -2   25.10    2.20
   9  -1   2   22.40    2.00
  -9   1  -2   21.90    2.50
  -9   1  -3    4.60    1.60
  -9   1  -3    4.40    1.30
   9  -1   3    4.70    1.30
  -9   1  -3    4.50    1.20
   9  -1   3    3.30    1.00
   9  -1   3    2.90    1.10
   9  -1   3    3.20    1.40
  -9   1  -3    3.70    1.40
  -9   1  -4   12.90    2.10
  -9   1  -4   14.10    2.10
   9  -1   4   14.00    1.90
  -9   1  -4   15.20    2.00
   9  -1   4   12.00    1.60
   9  -1   4   15.60    1.90
  -9   1  -4   15.20    2.10
   9  -1   4   15.40    2.00
  -9   1  -4   12.80    2.00
   9  -1   5   49.20    3.10
  -9   1  -5   47.40    3.40
   9  -1   5   46.60    3.10
  -9   1  -5   44.30    3.10
   9  -1   5   46.00    3.00
  -9   1  -5   52.79    3.00
   9  -1   5   47.80    3.10
  -9   1  -5   40.40    3.10
   9  -1   6   -0.20    1.00
  -9   1  -6    0.00    1.00
   9  -1   6   -0.40    1.00
  -9   1  -6    0.20    0.90
  -9   1  -6    1.10    1.20
  -9   1  -6   -0.20    1.00
   9  -1   7  111.59    3.90
  -9   1  -7  107.39    4.30
   9  -1   7  118.49    4.10
  -9   1  -7  113.39    4.40
  -9   1  -7  122.99    4.20
  -9   1  -8    1.00    0.70
  -9   1  -8    0.40    0.60
   9  -1   8    1.00    0.70
  -9   1  -8    1.20    0.70
   9  -1   8    0.90    0.80
  -9   1  -8    1.50    0.90
  -9   1  -8    1.30    0.80
  -9   1  -8    1.30    0.90
   9  -1   9    9.40    1.00
  -9   1  -9   10.40    1.00
  -9   1  -9   10.90    0.90
  -9   0  12   77.89    2.70
   9   0 -12   72.79    2.20
   9   0 -11    8.20    0.90
  -9   0  11    5.80    1.10
  -9   0  11    6.10    1.40
  -9   0  10   31.80    2.40
  -9   0  10   29.50    3.00
  -9   0   9  114.29    4.70
  -9   0   9   98.59    5.30
  -9   0   9  102.49    5.70
  -9   0   8   49.99    3.20
  -9   0   8   44.10    3.90
  -9   0   8   44.90    4.00
  -9   0   7   90.39    4.30
  -9   0   7   80.59    5.40
   9   0  -7  111.49    4.40
   9   0  -7  127.69    4.10
  -9   0   7   83.59    5.30
  -9   0   6    4.10    1.60
  -9   0   6    3.70    1.10
  -9   0   6    3.20    1.80
  -9   0   6    1.40    1.30
   9   0  -6    6.90    1.70
  -9   0   6    3.50    1.80
  -9   0   5  236.28    8.80
  -9   0   5  275.77    7.30
  -9   0   5  260.47    9.90
  -9   0   5  248.08    9.10
   9   0  -5  264.77    7.00
   9   0  -5  240.08    5.80
  -9   0   5  244.78    8.40
  -9   0   5  263.67    9.10
  -9   0   4  614.64   14.90
  -9   0   4  616.94   15.60
  -9   0   4  568.04   13.60
  -9   0   4  624.34   14.70
   9   0  -4  627.54   11.40
  -9   0   4  600.74   14.30
  -9   0   4  621.74   14.00
  -9   0   3   16.50    2.60
   9   0  -3   22.70    1.90
   9   0  -3   16.20    1.80
  -9   0   3   16.30    2.70
  -9   0   3   13.80    2.20
  -9   0   3   12.80    2.30
   9   0  -3   15.00    1.80
  -9   0   3   16.30    2.50
  -9   0   3   15.60    2.10
  -9   0   2    8.50    2.10
   9   0  -2    5.70    1.10
   9   0  -2    7.40    1.30
  -9   0   2    9.10    2.10
   9   0  -2    9.40    1.50
  -9   0   2    6.80    1.70
  -9   0   2    9.70    1.90
   9   0  -2    6.90    1.30
  -9   0   2    8.30    1.60
  -9   0   2    6.50    1.40
  -9   0   1    6.10    1.90
   9   0  -1    2.90    1.00
   9   0  -1    5.80    1.30
  -9   0   1    3.90    1.70
   9   0  -1    5.60    1.30
  -9   0   1    4.70    1.40
   9   0  -1    4.40    1.10
  -9   0   1    4.00    1.30
  -9   0   1    6.50    1.40
  -9   0   1    3.50    1.10
  -9   0   0   82.99    5.50
  -9   0   0   82.29    4.20
   9   0   0   87.19    4.00
  -9   0   0   83.49    5.20
   9   0   0   84.79    3.90
  -9   0   0   81.99    4.80
   9   0   0   81.69    3.60
  -9   0   0   79.99    4.30
  -9   0  -1   14.00    2.60
  -9   0  -1   14.20    1.90
   9   0   1   12.00    1.70
   9   0   1   12.30    1.60
  -9   0  -1   14.70    2.50
  -9   0  -1   10.80    1.80
  -9   0  -2   20.20    2.80
  -9   0  -2   20.60    2.30
  -9   0  -2   20.00    2.00
   9   0   2   18.90    2.00
  -9   0  -2   23.20    2.80
   9   0   2   21.70    2.20
  -9   0  -2   21.10    2.40
  -9   0  -3    0.30    1.30
  -9   0  -3    0.40    1.00
   9   0   3   -0.10    1.20
  -9   0  -3    0.50    0.80
   9   0   3    0.40    1.00
   9   0   3    1.10    1.10
  -9   0  -3    0.80    1.20
   9   0   3    1.10    1.10
  -9   0  -3    0.40    1.20
  -9   0  -4   -0.40    1.10
   9   0   4    1.00    1.00
  -9   0  -4    0.30    1.00
   9   0   4   -0.60    1.20
  -9   0  -4    0.70    0.90
   9   0   4    0.60    1.00
   9   0   4    0.60    1.20
  -9   0  -4   -0.30    1.00
   9   0   4    0.70    1.00
  -9   0  -4    1.50    1.30
   9   0   5   25.30    2.10
  -9   0  -5   28.10    2.70
   9   0   5   31.20    2.60
  -9   0  -5   28.10    2.40
   9   0   5   28.50    2.50
  -9   0  -5   34.40    2.40
  -9   0  -5   25.70    2.50
   9   0   6   10.10    1.40
  -9   0  -6    9.50    1.60
   9   0   6   10.60    1.60
  -9   0  -6    9.30    1.50
  -9   0  -6   10.80    1.50
  -9   0  -6   13.70    1.80
  -9   0  -7    0.50    0.80
   9   0   7    0.70    0.70
  -9   0  -7    0.50    0.80
   9   0   7    0.90    1.00
  -9   0  -7    0.40    0.80
  -9   0  -7    0.50    0.70
  -9   0  -7   -0.10    1.00
   9   0   8    0.30    0.60
  -9   0  -8    0.10    0.50
  -9   0  -8    0.30    0.60
  -9   0  -8    1.40    0.70
  -9  -1  12    0.60    0.70
   9   1 -12    1.90    0.70
  -9  -1  12    0.10    0.60
  -9  -1  11   66.09    2.50
  -9  -1  11   69.79    3.20
   9   1 -11   73.49    2.80
  -9  -1  10    2.10    0.90
  -9  -1  10    0.70    0.90
  -9  -1  10    0.30    1.30
  -9  -1   9   19.80    1.80
  -9  -1   9   19.10    2.00
  -9  -1   9   15.10    2.30
  -9  -1   9   16.20    2.60
  -9  -1   9   14.70    2.00
  -9  -1   8    3.50    1.00
  -9  -1   8    1.90    1.10
  -9  -1   8    0.80    1.30
  -9  -1   8    2.20    1.70
  -9  -1   7   41.30    3.00
  -9  -1   7   35.50    3.80
   9   1  -7   44.90    2.30
  -9  -1   7   39.00    3.80
  -9  -1   6    0.30    1.30
  -9  -1   6    0.10    0.90
  -9  -1   6    1.20    1.60
   9   1  -6    1.10    1.10
  -9  -1   6   -1.30    1.20
  -9  -1   6    0.30    1.50
  -9  -1   5  414.36   12.00
   9   1  -5  428.16    8.20
  -9  -1   5  460.15    9.90
  -9  -1   5  414.26   12.80
   9   1  -5  437.06    9.00
  -9  -1   5  401.06   11.30
  -9  -1   5  398.36   11.60
  -9  -1   4    6.60    2.00
  -9  -1   4    9.30    1.40
   9   1  -4   12.20    1.70
  -9  -1   4    8.50    2.20
   9   1  -4   11.00    1.60
  -9  -1   4    8.00    1.90
  -9  -1   3   47.90    4.20
   9   1  -3   43.50    2.40
  -9  -1   3   49.30    2.90
   9   1  -3   53.39    3.10
  -9  -1   3   50.29    4.30
   9   1  -3   45.30    2.70
  -9  -1   3   49.99    3.60
  -9  -1   3   48.60    4.00
  -9  -1   2    1.90    1.60
   9   1  -2   -0.30    0.90
   9   1  -2    0.60    1.00
  -9  -1   2    0.90    1.60
   9   1  -2    0.60    1.10
   9   1  -2    1.30    1.00
  -9  -1   2    0.50    1.10
  -9  -1   2    0.20    1.30
  -9  -1   2   -0.30    0.80
  -9  -1   1    0.30    1.50
   9   1  -1   -0.10    0.90
  -9  -1   1    0.10    0.90
   9   1  -1   -0.20    0.90
  -9  -1   1    0.50    1.40
   9   1  -1    1.20    1.10
   9   1  -1    0.40    1.00
  -9  -1   1    1.00    1.00
  -9  -1   1    1.30    1.50
  -9  -1   1    0.70    0.90
  -9  -1   0    5.00    1.90
  -9  -1   0    4.70    1.30
   9   1   0    4.80    1.30
   9   1   0    5.10    1.30
   9   1   0    6.00    1.30
  -9  -1   0    5.90    1.80
  -9  -1   0    4.10    1.40
  -9  -1  -1   -0.70    1.70
  -9  -1  -1   -0.10    1.00
   9   1   1   -0.60    1.10
   9   1   1   -0.10    1.00
  -9  -1  -1    0.80    1.60
   9   1   1    0.20    0.80
   9   1   1   -0.80    1.00
  -9  -1  -1    0.10    1.00
  -9  -1  -2   14.90    2.60
  -9  -1  -2   15.70    2.10
   9   1   2   16.40    2.10
  -9  -1  -2   16.70    1.90
   9   1   2   15.30    1.90
   9   1   2   20.80    2.20
  -9  -1  -2   16.00    2.40
   9   1   2   17.60    1.90
  -9  -1  -2   14.20    2.10
   9   1   2   14.10    1.60
   9   1   3   -0.40    0.70
  -9  -1  -3   -0.30    1.30
  -9  -1  -3    1.10    1.10
   9   1   3   -0.20    1.30
  -9  -1  -3    0.70    0.90
   9   1   3    0.60    1.10
   9   1   3    1.20    1.30
  -9  -1  -3   -0.40    1.10
   9   1   3    0.60    0.90
  -9  -1  -3    0.80    1.10
   9   1   4   51.49    2.80
  -9  -1  -4   50.29    3.50
   9   1   4   56.49    3.30
  -9  -1  -4   49.40    3.10
  -9  -1  -4   58.29    3.10
   9   1   4   51.89    3.10
   9   1   4   57.19    3.40
   9   1   4   52.79    2.70
   9   1   5    1.90    0.70
   9   1   5    2.10    0.80
  -9  -1  -5    2.40    1.20
   9   1   5    2.50    1.30
  -9  -1  -5    2.30    1.10
  -9  -1  -5    2.00    0.90
   9   1   5    2.10    1.20
  -9  -1  -5    2.30    1.10
  -9  -1  -6   53.19    3.30
  -9  -1  -6   47.50    2.80
   9   1   6   54.89    2.90
  -9  -1  -6   51.19    2.60
  -9  -1  -6   52.39    2.60
  -9  -1  -7    0.40    0.70
  -9  -1  -7   -0.10    0.60
   9   1   7    0.10    0.80
  -9  -1  -7    0.70    0.60
  -9  -1  -7   -0.20    0.60
   9   1   8    4.20    0.70
  -9  -1  -8    5.90    0.90
  -9  -2  12   35.60    1.60
  -9  -2  12   38.50    2.10
   9   2 -12   34.60    1.50
  -9  -2  11   10.70    1.20
  -9  -2  11   10.60    1.40
  -9  -2  11    8.30    1.40
  -9  -2  10   41.20    2.30
  -9  -2  10   40.50    2.70
   9   2 -10   44.70    2.30
  -9  -2  10   35.00    2.80
  -9  -2  10   31.10    2.40
  -9  -2   9    1.20    0.90
  -9  -2   9    0.00    1.00
  -9  -2   9   -0.80    1.20
  -9  -2   9    0.30    1.10
  -9  -2   8   53.89    2.90
  -9  -2   8   55.09    3.40
  -9  -2   8   47.60    4.10
   9   2  -8   59.59    2.90
  -9  -2   8   51.09    3.80
  -9  -2   7    0.70    0.80
  -9  -2   7    0.60    0.90
  -9  -2   7    1.00    1.40
   9   2  -7    0.70    0.90
  -9  -2   6    4.50    1.60
  -9  -2   6    6.20    1.20
  -9  -2   6    6.80    1.40
  -9  -2   6    7.90    2.20
   9   2  -6    5.40    1.20
  -9  -2   6    4.20    1.50
  -9  -2   5  176.58    7.90
   9   2  -5  215.08    5.40
  -9  -2   5  207.98    6.50
   9   2  -5  203.98    5.90
  -9  -2   5  179.58    8.40
   9   2  -5  190.28    5.50
  -9  -2   5  193.18    7.30
  -9  -2   5  181.78    7.50
  -9  -2   4  161.88    7.70
   9   2  -4  151.28    4.50
  -9  -2   4  176.48    5.80
   9   2  -4  166.88    5.40
  -9  -2   4  152.68    7.70
   9   2  -4  160.28    4.90
  -9  -2   4  165.38    6.60
  -9  -2   4  158.68    7.10
  -9  -2   3    7.00    2.10
  -9  -2   3    6.90    1.30
   9   2  -3    5.90    1.00
   9   2  -3    7.20    1.40
  -9  -2   3    7.40    2.10
   9   2  -3    9.40    1.60
  -9  -2   3    7.70    1.70
  -9  -2   3    8.10    2.00
  -9  -2   2   66.79    5.10
   9   2  -2   52.39    2.60
   9   2  -2   60.59    3.30
   9   2  -2   64.19    3.40
   9   2  -2   62.99    3.30
  -9  -2   2   58.89    3.70
  -9  -2   2   63.89    4.60
  -9  -2   1    0.50    1.60
  -9  -2   1    1.20    1.00
   9   2  -1    1.00    1.00
   9   2  -1    1.30    1.00
   9   2  -1    1.00    1.00
  -9  -2   1    1.10    1.00
  -9  -2   1    1.10    1.40
   9   2   0   79.79    3.70
  -9  -2   0   81.69    5.60
  -9  -2   0   75.39    4.20
   9   2   0   86.49    4.00
   9   2   0   84.09    3.90
  -9  -2   0   80.79    4.00
  -9  -2   0   83.79    5.20
   9   2   0   83.59    3.60
   9   2   1    1.70    1.00
  -9  -2  -1    1.60    1.70
  -9  -2  -1    2.10    1.20
   9   2   1    2.70    1.30
   9   2   1    2.50    1.30
  -9  -2  -1    2.40    1.50
   9   2   1    1.40    0.90
  -9  -2  -2   13.10    2.40
  -9  -2  -2   15.40    2.10
   9   2   2   16.40    2.00
  -9  -2  -2   17.30    1.90
   9   2   2   16.60    2.00
   9   2   2   18.70    2.10
  -9  -2  -2   16.70    2.20
   9   2   2   15.20    1.70
   9   2   3    0.80    0.90
  -9  -2  -3    0.90    1.30
   9   2   3    1.50    0.80
  -9  -2  -3    1.40    1.20
   9   2   3    2.50    1.30
   9   2   3    1.60    1.20
   9   2   3    1.20    1.30
  -9  -2  -3    0.90    0.90
  -9  -2  -4   79.59    4.70
  -9  -2  -4   67.79    3.90
   9   2   4   73.89    3.60
  -9  -2  -4   71.79    3.10
   9   2   4   73.19    3.60
   9   2   4   66.69    3.00
   9   2   5    1.60    0.70
  -9  -2  -5    1.50    1.20
  -9  -2  -5    1.50    1.00
   9   2   5    2.00    1.10
  -9  -2  -5    2.00    0.80
  -9  -2  -5    0.80    0.70
   9   2   6    1.40    0.50
  -9  -2  -6    2.60    1.00
   9   2   6    2.40    1.00
  -9  -2  -6    2.40    0.70
  -9  -2  -6    0.90    0.60
  -9  -2  -7   -0.10    0.60
  -9  -3  13    0.30    0.50
   9   3 -12   47.60    1.50
   9   3 -12   47.70    1.50
  -9  -3  11   73.39    2.90
  -9  -3  11   76.69    3.30
   9   3 -11   67.09    2.30
  -9  -3  11   66.09    3.10
  -9  -3  10    3.80    1.10
  -9  -3  10    3.10    1.10
   9   3 -10    2.20    0.70
  -9  -3  10    2.10    1.10
  -9  -3  10    3.20    1.20
  -9  -3   9   75.69    3.40
  -9  -3   9   80.39    3.90
   9   3  -9   72.19    2.80
  -9  -3   9   69.49    4.00
  -9  -3   9   71.19    4.20
  -9  -3   8    0.90    0.90
  -9  -3   8   -0.10    1.30
  -9  -3   8    0.80    1.10
   9   3  -8    0.50    0.70
  -9  -3   8    0.90    1.30
  -9  -3   8    0.40    1.20
  -9  -3   7   73.49    3.50
  -9  -3   7   77.09    4.00
   9   3  -7   71.99    3.20
   9   3  -7   68.19    3.00
  -9  -3   7   68.19    4.30
  -9  -3   7   72.29    4.70
  -9  -3   6   28.60    3.20
  -9  -3   6   31.30    2.40
  -9  -3   6   34.10    2.70
   9   3  -6   32.80    2.30
   9   3  -6   30.50    2.00
  -9  -3   6   28.70    3.00
  -9  -3   5    1.20    1.40
  -9  -3   5    4.00    1.10
  -9  -3   5    4.00    1.20
   9   3  -5    3.80    1.10
  -9  -3   5    4.80    1.70
  -9  -3   5    3.30    1.60
  -9  -3   4   31.20    3.60
  -9  -3   4   32.40    2.30
   9   3  -4   29.20    1.90
  -9  -3   4   32.60    2.60
   9   3  -4   31.30    2.30
   9   3  -4   33.20    2.50
  -9  -3   4   32.40    3.00
  -9  -3   4   31.70    3.30
  -9  -3   3    3.90    1.40
  -9  -3   3    4.20    2.00
  -9  -3   3    4.10    1.00
   9   3  -3    1.80    0.80
  -9  -3   3    2.90    1.00
   9   3  -3    3.30    1.10
   9   3  -3    4.00    1.30
  -9  -3   3    3.40    1.40
  -9  -3   3    3.50    1.60
  -9  -3   2   63.59    5.00
  -9  -3   2   65.59    3.20
  -9  -3   2   57.69    3.50
   9   3  -2   64.99    3.30
   9   3  -2   70.69    3.60
   9   3  -2   70.89    3.50
  -9  -3   2   64.39    3.90
  -9  -3   2   63.69    4.70
  -9  -3   1    1.50    1.80
  -9  -3   1    1.70    1.00
   9   3  -1    1.90    1.20
   9   3  -1    1.60    1.20
  -9  -3   1    2.00    1.10
  -9  -3   1    1.40    1.60
   9   3   0    6.60    1.30
  -9  -3   0    4.70    2.10
  -9  -3   0    5.80    1.50
   9   3   0    5.90    1.40
   9   3   0    5.70    1.40
   9   3   0    5.60    1.10
   9   3   0    5.80    1.40
  -9  -3   0    4.60    1.20
  -9  -3   0    4.90    1.80
   9   3   1    4.10    1.10
  -9  -3  -1    3.10    0.90
  -9  -3  -1    3.10    2.00
  -9  -3  -1    4.50    1.70
  -9  -3  -1    3.00    1.30
   9   3   1    2.90    1.20
   9   3   1    2.50    0.90
   9   3   1    2.30    1.20
   9   3   1    3.20    1.30
  -9  -3  -1    3.50    1.40
  -9  -3  -2   25.20    3.00
  -9  -3  -2   16.00    2.60
  -9  -3  -2   17.60    2.20
   9   3   2   21.60    2.10
   9   3   2   17.00    1.50
   9   3   2   19.20    2.00
   9   3   2   20.40    2.10
   9   3   2   18.60    1.80
   9   3   3    0.90    0.90
  -9  -3  -3    0.20    1.40
  -9  -3  -3    1.90    1.30
  -9  -3  -3    0.10    1.10
   9   3   3    1.00    0.70
   9   3   3    0.40    1.00
   9   3   3    0.50    1.10
   9   3   3    0.10    1.10
  -9  -3  -3    0.10    0.90
   9   3   4    1.50    0.80
  -9  -3  -4    2.00    1.30
   9   3   4    2.70    1.10
   9   3   4    2.10    1.10
  -9  -3  -4    2.20    1.00
   9   3   5   -0.20    0.60
   9   3   5    0.60    0.80
  -9  -3  -5   -1.40    0.60
  -9  -3  -5    0.50    0.80
  -9  -3  -5    0.30    0.90
   9   3   6    3.10    0.60
  -9  -3  -6    4.20    0.80
  -9  -3  -6    5.10    0.90
  -9  -4  12    8.60    1.00
  -9  -4  12    9.90    1.10
  -9  -4  11   11.00    1.30
  -9  -4  11   13.00    1.50
  -9  -4  11   10.60    1.30
  -9  -4  10   29.90    2.00
  -9  -4  10   31.70    2.30
   9   4 -10   27.60    1.50
  -9  -4  10   29.50    2.30
  -9  -4  10   30.10    2.50
  -9  -4   9   54.99    2.90
  -9  -4   9   52.99    3.10
   9   4  -9   49.70    2.30
  -9  -4   9   50.09    3.30
  -9  -4   9   51.39    3.60
  -9  -4   8    7.90    1.40
  -9  -4   8    8.40    1.60
  -9  -4   8    8.30    2.00
   9   4  -8    7.20    1.10
  -9  -4   8    8.80    1.80
  -9  -4   8    8.90    2.00
  -9  -4   7   10.80    1.60
  -9  -4   7   14.90    1.90
  -9  -4   7   10.90    2.50
   9   4  -7   13.70    1.40
  -9  -4   7   12.70    2.00
  -9  -4   7   10.90    2.20
  -9  -4   6    1.60    1.50
  -9  -4   6    0.00    0.90
  -9  -4   6    0.70    1.70
  -9  -4   6   -0.50    1.10
   9   4  -6    0.40    0.80
  -9  -4   6   -0.10    1.20
  -9  -4   6    1.60    1.30
  -9  -4   5   13.90    2.60
  -9  -4   5   13.90    1.70
   9   4  -5   11.90    1.20
  -9  -4   5   14.90    1.90
   9   4  -5   13.60    1.50
   9   4  -5   15.30    1.70
  -9  -4   5   15.90    2.30
  -9  -4   4    9.10    2.30
  -9  -4   4    9.80    1.40
  -9  -4   4    9.70    1.60
   9   4  -4    4.00    0.90
   9   4  -4    9.30    1.30
   9   4  -4   11.80    1.60
  -9  -4   4    8.60    1.90
  -9  -4   3   16.20    2.30
  -9  -4   3   13.20    2.60
  -9  -4   3   14.00    1.60
   9   4  -3   15.00    1.80
   9   4  -3   17.80    2.00
  -9  -4   3   16.40    2.30
  -9  -4   2   14.90    2.30
  -9  -4   2   14.20    2.90
  -9  -4   2   12.20    1.60
   9   4  -2   14.60    1.70
   9   4  -2   15.70    1.90
  -9  -4   2   12.50    1.90
   9   4  -1   10.60    1.60
  -9  -4   1   11.70    2.30
  -9  -4   1   10.60    2.60
  -9  -4   1    9.00    1.30
  -9  -4   1    9.30    2.40
   9   4  -1   10.90    1.50
   9   4  -1    8.70    1.50
   9   4  -1   10.50    1.40
   9   4  -1   11.10    1.70
  -9  -4   1   10.80    1.70
   9   4   0    3.60    1.20
  -9  -4   0    3.80    1.70
  -9  -4   0    4.20    1.10
  -9  -4   0    3.60    2.10
  -9  -4   0    2.20    1.60
   9   4   0    3.00    1.00
   9   4   0    3.10    1.00
   9   4   0    3.20    1.30
   9   4   0    2.90    1.20
  -9  -4   0    3.20    1.10
  -9  -4  -1    6.50    1.90
  -9  -4  -1    7.50    1.20
  -9  -4  -1    6.00    2.00
  -9  -4  -1    7.00    1.80
   9   4   1    5.90    1.20
   9   4   1    6.70    1.10
   9   4   1    6.80    1.40
   9   4   1    7.60    1.40
  -9  -4  -1    7.90    1.30
   9   4   1    7.20    1.30
  -9  -4  -2   17.90    2.50
  -9  -4  -2   15.00    1.50
   9   4   2   16.40    1.60
   9   4   2   12.00    1.50
   9   4   2   11.00    1.30
   9   4   2   12.90    1.60
   9   4   2   14.60    1.70
  -9  -4  -2   16.80    1.70
   9   4   2   13.70    1.60
  -9  -4  -3   37.40    3.10
   9   4   3   31.60    1.90
   9   4   3   32.00    2.00
   9   4   3   31.60    2.10
  -9  -4  -3   35.20    2.30
   9   4   3   33.20    2.10
   9   4   4   -0.30    0.70
  -9  -4  -4   -0.10    1.00
   9   4   4   -0.10    0.40
   9   4   4   -0.20    0.70
  -9  -4  -4    0.10    0.70
  -9  -4  -5   21.70    1.40
   9   4   5   19.40    1.20
  -9  -4  -5   21.20    1.60
  -9  -5  12   49.90    1.90
  -9  -5  12   53.49    2.10
  -9  -5  11   14.60    1.30
  -9  -5  11   14.70    1.50
  -9  -5  11   13.80    1.30
  -9  -5  10    0.80    0.90
  -9  -5  10    0.20    0.80
  -9  -5  10   -0.10    0.80
  -9  -5  10    0.30    1.00
  -9  -5   9   14.90    1.60
  -9  -5   9   16.10    1.80
  -9  -5   9   14.80    1.80
  -9  -5   9   15.40    2.10
   9   5  -8   15.00    1.20
  -9  -5   8    8.00    1.40
  -9  -5   8    8.90    1.50
  -9  -5   8    8.90    2.10
  -9  -5   8    7.90    1.60
  -9  -5   8   11.20    2.10
  -9  -5   7    5.30    1.20
   9   5  -7    6.20    0.90
  -9  -5   7    6.20    2.10
  -9  -5   7    6.00    1.40
   9   5  -7    5.90    1.10
  -9  -5   7    5.70    1.50
  -9  -5   7    5.90    1.80
  -9  -5   6   12.20    2.40
  -9  -5   6   12.70    1.60
  -9  -5   6   11.80    1.70
  -9  -5   6   13.20    2.80
   9   5  -6   13.00    1.50
  -9  -5   6   12.60    2.00
  -9  -5   6   12.90    2.10
  -9  -5   5    2.50    1.60
  -9  -5   5    3.50    1.10
  -9  -5   5    1.80    1.10
  -9  -5   5    2.30    2.10
   9   5  -5    2.60    1.00
  -9  -5   5    2.40    1.40
  -9  -5   5    2.00    1.40
  -9  -5   4   54.29    4.60
  -9  -5   4   61.59    3.20
  -9  -5   4   66.79    5.50
   9   5  -4   60.19    2.90
   9   5  -4   67.89    3.30
  -9  -5   4   63.49    3.90
  -9  -5   4   64.09    3.90
  -9  -5   3   27.20    2.80
  -9  -5   3   19.80    3.20
  -9  -5   3   24.30    2.10
  -9  -5   3   27.40    3.70
   9   5  -3   25.70    1.80
   9   5  -3   23.80    1.90
   9   5  -3   27.60    2.20
  -9  -5   3   25.10    2.60
  -9  -5   3   24.70    2.30
   9   5  -2   23.60    2.20
  -9  -5   2   20.70    2.50
  -9  -5   2   20.40    3.20
  -9  -5   2   21.80    1.90
  -9  -5   2   21.90    3.20
   9   5  -2   18.60    1.60
   9   5  -2   18.80    1.70
   9   5  -2   20.20    2.00
  -9  -5   2   20.30    2.20
   9   5  -1    1.80    1.10
  -9  -5   1    2.00    1.50
  -9  -5   1    2.80    1.10
  -9  -5   1    0.90    1.90
  -9  -5   1    1.50    0.80
  -9  -5   1    1.70    1.60
   9   5  -1    1.00    0.80
   9   5  -1    2.10    0.90
   9   5  -1    1.80    1.10
   9   5  -1    1.70    0.90
  -9  -5   1    2.40    1.10
  -9  -5   0   68.89    4.40
  -9  -5   0   64.49    3.20
  -9  -5   0   50.59    4.30
  -9  -5   0   56.89    4.10
   9   5   0   54.09    2.60
   9   5   0   55.89    2.70
   9   5   0   60.19    3.00
   9   5   0   56.09    2.80
  -9  -5   0   60.39    3.20
   9   5   0   60.99    3.20
   9   5   1   -0.90    1.00
  -9  -5  -1    0.40    1.30
  -9  -5  -1   -0.50    0.70
  -9  -5  -1    0.00    1.00
   9   5   1    0.20    0.80
   9   5   1   -0.20    0.70
   9   5   1    0.00    0.70
   9   5   1   -0.50    0.90
   9   5   1   -0.60    0.80
  -9  -5  -2   59.49    3.70
   9   5   2   57.29    2.60
   9   5   2   52.49    2.30
   9   5   2   56.39    2.50
  -9  -5  -2   60.89    2.60
   9   5   2   57.99    2.70
   9   5   3    0.20    0.70
  -9  -5  -3    0.50    1.00
   9   5   3    0.70    0.60
   9   5   3    0.40    0.60
  -9  -5  -3    0.40    0.60
   9   5   4    4.20    0.80
  -9  -5  -4    3.80    0.90
  -9  -5  -4    4.40    0.70
  -9  -6  12   38.60    1.60
  -9  -6  12   37.90    1.60
  -9  -6  11   23.60    1.50
  -9  -6  11   24.10    1.60
   9   6 -11   20.30    1.00
  -9  -6  10    0.40    0.80
  -9  -6  10    1.30    0.80
   9   6 -10    1.50    0.50
  -9  -6  10    2.10    0.80
  -9  -6   9   10.90    1.40
  -9  -6   9   10.50    1.40
   9   6  -9    9.80    1.00
  -9  -6   9   11.80    1.50
  -9  -6   9   13.50    1.90
  -9  -6   8    9.90    1.40
  -9  -6   8   11.80    1.60
  -9  -6   8   11.00    2.10
   9   6  -8   11.20    1.10
  -9  -6   8   11.60    1.70
  -9  -6   8   13.40    2.00
  -9  -6   7   43.60    2.60
  -9  -6   7   42.00    2.70
  -9  -6   7   44.00    4.00
   9   6  -7   40.00    2.00
  -9  -6   7   43.80    3.10
  -9  -6   7   44.70    3.30
  -9  -6   6    0.00    0.80
  -9  -6   6    0.60    1.80
   9   6  -6    0.30    0.70
   9   6  -6    1.20    1.00
  -9  -6   6    0.10    1.20
  -9  -6   6    0.30    1.10
  -9  -6   5    5.10    1.90
  -9  -6   5    7.60    1.30
  -9  -6   5    8.80    2.60
   9   6  -5    6.20    1.00
   9   6  -5    7.70    1.30
  -9  -6   5    6.70    1.60
  -9  -6   5    8.40    1.60
  -9  -6   4    0.90    1.00
  -9  -6   4    0.40    1.60
  -9  -6   4    0.20    0.80
  -9  -6   4    1.20    1.90
   9   6  -4    0.20    0.70
   9   6  -4    0.80    0.90
  -9  -6   4    0.30    1.20
  -9  -6   4    1.50    1.00
  -9  -6   3    2.00    1.10
   9   6  -3    2.70    1.10
  -9  -6   3    2.00    1.80
  -9  -6   3    1.60    0.90
  -9  -6   3    2.30    2.00
   9   6  -3    2.70    1.00
  -9  -6   3    1.70    1.20
  -9  -6   2    6.80    1.60
   9   6  -2    7.50    1.40
  -9  -6   2    7.70    1.40
  -9  -6   2    5.70    1.10
  -9  -6   2    9.00    2.20
   9   6  -2    9.00    1.30
   9   6  -2    7.60    1.20
   9   6  -2    7.50    1.10
  -9  -6   2    8.00    1.60
  -9  -6   1    1.30    1.20
   9   6  -1    3.00    1.10
  -9  -6   1    2.20    1.00
  -9  -6   1    2.30    1.50
   9   6  -1    2.00    0.90
   9   6  -1    1.70    0.90
   9   6  -1    2.60    0.80
  -9  -6   1    2.00    1.00
  -9  -6   0   62.89    2.90
   9   6   0   63.79    2.90
   9   6   0   58.29    2.60
   9   6   0   58.69    2.60
   9   6   0   56.39    2.30
   9   6   0   59.09    2.40
   9   6   0   60.89    2.80
  -9  -6   0   65.79    3.90
   9   6   1    0.00    0.70
  -9  -6  -1   -0.40    1.10
  -9  -6  -1    0.10    0.60
   9   6   1    0.30    0.70
   9   6   1   -1.20    0.80
   9   6   1   -0.30    0.50
  -9  -6  -1   -0.70    0.90
  -9  -6  -2    6.30    1.30
   9   6   2    6.20    0.90
  -9  -6  -2    4.40    0.90
   9   6   2    6.20    1.00
   9   6   3   24.40    1.30
  -9  -6  -3   26.50    1.70
  -9  -7  11  130.99    3.20
  -9  -7  10   13.60    1.20
  -9  -7  10   10.00    1.00
  -9  -7   9   19.60    1.60
  -9  -7   9   19.50    1.60
  -9  -7   8    0.30    0.80
   9   7  -8    0.10    0.70
  -9  -7   8    0.70    0.90
  -9  -7   7    7.90    1.20
  -9  -7   7    6.30    1.90
   9   7  -7    7.30    1.00
  -9  -7   7    5.60    1.30
  -9  -7   6   45.30    2.50
  -9  -7   6   44.10    4.00
   9   7  -6   44.20    2.20
  -9  -7   6   46.50    2.90
  -9  -7   6   45.70    2.80
  -9  -7   5    0.10    0.80
  -9  -7   5   -0.60    1.70
   9   7  -5   -0.10    0.70
  -9  -7   5    0.30    1.00
  -9  -7   4    2.50    0.90
  -9  -7   4    2.20    1.80
   9   7  -4    3.80    1.10
   9   7  -4    1.60    0.80
  -9  -7   4    2.20    1.10
  -9  -7   4    1.60    0.90
  -9  -7   3   69.09    3.20
  -9  -7   3   57.69    2.70
  -9  -7   3   60.19    4.30
   9   7  -3   63.49    2.70
   9   7  -3   54.29    2.40
  -9  -7   3   63.69    3.30
  -9  -7   3   59.09    3.40
   9   7  -3   62.79    2.80
  -9  -7   2   10.70    1.40
   9   7  -2    8.60    1.20
   9   7  -2    7.90    1.00
  -9  -7   2   10.40    1.50
  -9  -7   2    9.50    1.70
   9   7  -2    8.40    1.20
  -9  -7   1   11.20    1.30
   9   7  -1   11.20    1.30
   9   7  -1   10.70    1.20
   9   7  -1    8.80    0.90
  -9  -7   1    8.40    1.00
   9   7  -1   11.40    1.10
  -9  -7   1    9.50    1.60
  -9  -7   1   10.90    1.70
   9   7  -1    9.70    1.20
  -9  -7   0    8.30    1.00
   9   7   0    8.40    1.10
   9   7   0    7.00    0.90
  -9  -7   0    6.10    0.80
   9   7   0    7.40    0.80
  -9  -7   0    7.80    1.30
   9   7   0    8.70    1.10
  -9  -7   0    8.30    1.40
   9   7   1   -0.20    0.60
   9   7   1    0.30    0.60
  -9  -7  -1    0.00    0.40
  -9  -7  -1   -0.20    0.60
  -9  -7  -1   -0.40    0.90
  -9  -8  10    7.20    0.80
  -9  -8   9    8.20    1.00
   9   8  -9    7.80    0.70
  -9  -8   9    7.40    0.90
  -9  -8   8   10.30    1.10
   9   8  -8    8.60    0.80
  -9  -8   8   10.00    1.20
   9   8  -7   35.10    1.70
  -9  -8   7   35.30    1.90
   9   8  -7   33.50    1.50
  -9  -8   7   38.90    2.20
  -9  -8   6   13.90    1.30
   9   8  -6   12.50    1.00
  -9  -8   6   14.60    1.50
  -9  -8   6    9.60    1.30
   9   8  -6   12.90    1.20
  -9  -8   5   73.69    3.00
  -9  -8   5   65.39    2.70
   9   8  -5   66.89    2.50
   9   8  -5   56.39    2.00
  -9  -8   5   73.09    3.10
  -9  -8   5   54.19    2.90
   9   8  -5   64.69    2.40
   9   8  -4    0.00    0.60
  -9  -8   4   -0.60    0.80
  -9  -8   4    0.20    0.60
   9   8  -4    1.20    0.70
   9   8  -4   -0.80    0.50
  -9  -8   4    0.00    0.80
  -9  -8   4   -0.10    0.90
   9   8  -3    2.00    0.70
  -9  -8   3    2.70    0.80
   9   8  -3    2.60    0.80
   9   8  -3    2.90    0.80
  -9  -8   3    1.60    1.00
  -9  -8   2   26.60    1.60
   9   8  -2   23.90    1.50
   9   8  -2   23.40    1.40
   9   8  -2   22.60    1.30
  -9  -8   2   24.30    1.90
   9   8  -2   23.80    1.40
   9   8  -1   28.10    1.50
   9   8  -1   25.60    1.30
   9   8  -1   25.90    1.20
  -9  -8   1   26.90    1.80
   9   8  -1   25.80    1.30
  -9  -9   8   -0.20    0.50
   9   9  -8    0.10    0.50
  -9  -9   7   57.89    2.00
  -9  -9   7   53.89    1.90
   9   9  -7   52.09    1.70
  -9  -9   6    1.30    0.60
  -9  -9   6    1.30    0.60
   9   9  -6    1.50    0.60
  -9  -9   5   25.60    1.40
   9   9  -5   23.10    1.20
  -9  -9   4    4.90    0.80
   9   9  -4    4.70    0.60
   9   9  -4    5.30    0.70
   9   9  -4    4.80    0.70
  -9  -9   4    3.40    0.90
   9   9  -3    1.90    0.50
 -10  11   0   20.10    1.60
 -10  11   0   16.50    1.50
  10 -11   1    2.80    0.70
 -10  11  -1    2.80    1.00
 -10  11  -1    3.50    0.90
 -10  11  -1    3.70    1.00
  10 -11   2   -0.80    0.60
 -10  11  -2   -0.20    0.80
 -10  11  -2   -0.50    0.80
 -10  11  -2    0.10    0.60
 -10  11  -2    0.20    0.60
  10 -11   3   11.70    1.00
 -10  11  -3   14.20    1.40
 -10  11  -3   13.60    1.30
  10 -11   4   13.60    1.10
 -10  11  -4   14.50    1.30
 -10  11  -4   14.90    1.40
 -10  11  -4   13.30    1.20
 -10  11  -5    0.70    0.70
  10 -10  -2   -0.40    0.60
 -10  10   2   -0.10    0.90
 -10  10   2   -0.20    0.80
 -10  10   2    0.30    0.90
  10 -10  -2   -0.40    0.50
  10 -10  -1    9.10    1.00
 -10  10   1    7.80    1.40
 -10  10   1    9.60    1.30
 -10  10   1    9.70    1.20
  10 -10  -1    6.70    0.70
 -10  10   1    8.70    1.40
  10 -10  -1    7.40    0.90
  10 -10   0    4.20    0.90
  10 -10   0    2.90    0.50
 -10  10   0    5.30    1.40
 -10  10   0    4.40    0.90
 -10  10   0    4.50    1.10
  10 -10   0    3.40    0.70
 -10  10   0    4.30    0.80
  10 -10   0    3.10    0.80
  10 -10   1    1.30    0.80
  10 -10   1    1.50    0.50
 -10  10  -1    2.10    1.20
 -10  10  -1    2.10    1.00
  10 -10   1    1.40    0.60
 -10  10  -1    2.20    0.90
  10 -10   1    1.00    0.70
 -10  10  -1    1.50    0.60
  10 -10   2   12.30    1.30
  10 -10   2   10.20    0.90
 -10  10  -2   15.40    1.80
 -10  10  -2   13.70    1.70
  10 -10   2   11.00    1.10
 -10  10  -2   14.20    1.60
 -10  10  -2   12.20    1.30
  10 -10   3    1.10    0.80
  10 -10   3    1.20    0.50
 -10  10  -3    2.20    1.00
 -10  10  -3    1.60    1.00
 -10  10  -3    2.70    0.90
  10 -10   3    1.60    0.70
 -10  10  -3    1.60    1.00
 -10  10  -3    0.90    0.80
  10 -10   4    4.40    0.90
  10 -10   4    3.50    0.60
 -10  10  -4    3.60    0.90
 -10  10  -4    3.70    1.00
  10 -10   4    3.60    0.80
 -10  10  -4    4.00    1.20
 -10  10  -4    5.10    1.10
  10 -10   5   36.40    1.90
  10 -10   5   28.90    1.30
 -10  10  -5   31.90    1.60
 -10  10  -5   37.30    2.10
  10 -10   5   32.00    1.70
 -10  10  -5   39.00    2.30
 -10  10  -5   38.30    2.20
 -10  10  -6    1.80    0.70
  10 -10   6    0.70    0.60
 -10  10  -6    1.40    0.70
 -10  10  -6    1.20    0.80
  10  -9  -4   10.90    1.00
 -10   9   4   12.70    1.40
  10  -9  -3    0.40    0.60
 -10   9   3    0.10    0.90
 -10   9   3    0.40    1.00
 -10   9   3    0.20    0.90
  10  -9  -3   -0.40    0.50
  10  -9  -3    0.10    0.50
  10  -9  -2    0.10    0.70
 -10   9   2    1.80    1.30
 -10   9   2    1.00    1.10
 -10   9   2    0.50    0.70
 -10   9   2    0.70    1.10
  10  -9  -2    0.20    0.60
  10  -9  -2    0.60    0.60
  10  -9  -1   71.39    2.90
 -10   9   1   73.29    3.60
  10  -9  -1   65.99    2.70
  10  -9  -1   65.59    2.70
  10  -9   0   10.00    1.40
 -10   9   0   11.30    2.00
 -10   9   0   10.30    1.60
 -10   9   0   10.30    1.60
  10  -9   0    9.60    1.30
 -10   9   0    9.20    1.40
  10  -9   0   10.20    1.30
  10  -9   1   21.60    1.80
  10  -9   1   15.40    1.20
 -10   9  -1   22.70    2.50
 -10   9  -1   20.70    2.20
  10  -9   1   18.00    1.60
 -10   9  -1   20.10    2.10
  10  -9   1   18.40    1.70
 -10   9  -1   21.60    1.80
  10  -9   2   44.20    2.50
  10  -9   2   34.70    1.80
 -10   9  -2   46.40    3.30
 -10   9  -2   47.80    3.20
  10  -9   2   43.60    2.40
 -10   9  -2   45.60    3.00
  10  -9   2   39.80    2.40
  10  -9   3    1.90    1.00
  10  -9   3    1.70    0.60
 -10   9  -3    2.40    1.20
 -10   9  -3    3.00    1.30
 -10   9  -3    2.80    1.00
  10  -9   3    1.30    0.90
 -10   9  -3    1.80    1.30
  10  -9   4   14.80    1.60
  10  -9   4   12.80    1.10
 -10   9  -4   11.20    1.50
 -10   9  -4   14.60    1.40
 -10   9  -4   15.70    1.80
  10  -9   4   12.80    1.50
 -10   9  -4   14.90    1.90
 -10   9  -4   15.30    1.80
  10  -9   5   55.39    2.60
  10  -9   5   49.60    2.00
 -10   9  -5   56.69    2.70
 -10   9  -5   58.19    2.90
  10  -9   5   56.19    2.60
 -10   9  -5   58.69    3.10
 -10   9  -5   60.19    3.10
  10  -9   6   16.00    1.10
  10  -9   6   12.00    0.80
 -10   9  -6   18.20    1.50
  10  -9   6   16.70    1.40
 -10   9  -6   18.20    1.70
 -10   9  -6   17.80    1.70
 -10   9  -7    6.60    1.00
  10  -9   7    6.10    1.00
 -10   9  -7    6.60    1.10
  10  -8  -6   36.90    1.40
 -10   8   6   42.60    2.30
  10  -8  -5    3.00    0.70
 -10   8   5    1.60    1.10
 -10   8   5    2.00    0.90
  10  -8  -5    1.90    0.60
  10  -8  -5    1.10    0.40
  10  -8  -4   24.90    1.60
 -10   8   4   27.60    2.30
 -10   8   4   30.80    2.70
 -10   8   4   27.00    2.30
  10  -8  -4   22.70    1.50
  10  -8  -4   20.00    1.30
  10  -8  -3   19.20    1.60
 -10   8   3   21.30    2.30
 -10   8   3   23.50    2.60
 -10   8   3   18.70    1.70
 -10   8   3   20.50    2.40
  10  -8  -3   16.90    1.50
  10  -8  -3   16.60    1.40
  10  -8  -2   14.10    1.60
 -10   8   2   15.80    2.30
 -10   8   2   16.60    2.30
 -10   8   2   15.20    1.90
  10  -8  -2   13.00    1.50
  10  -8  -2   12.60    1.30
  10  -8  -1   14.40    1.70
 -10   8   1   13.30    2.30
 -10   8   1   14.60    2.20
 -10   8   1   15.20    2.00
  10  -8  -1   12.80    1.50
 -10   8   1   14.10    1.70
  10  -8  -1   12.70    1.40
  10  -8   0   41.80    2.70
 -10   8   0   48.70    3.80
 -10   8   0   53.19    3.50
 -10   8   0   47.30    3.40
  10  -8   0   42.20    2.60
 -10   8   0   43.70    3.00
  10  -8   0   41.60    2.50
 -10   8   0   46.70    2.60
  10  -8   1    0.80    1.00
 -10   8  -1    0.20    1.40
 -10   8  -1    0.60    1.30
  10  -8   1    0.30    1.00
 -10   8  -1    1.50    1.20
  10  -8   1    0.50    0.80
  10  -8   2    3.80    1.20
 -10   8  -2    2.90    1.50
 -10   8  -2    2.70    1.40
  10  -8   2    3.90    1.30
 -10   8  -2    2.70    1.40
  10  -8   2    2.90    1.00
  10  -8   3    0.80    1.00
 -10   8  -3    2.40    1.30
 -10   8  -3    2.00    0.80
 -10   8  -3    2.80    1.40
 -10   8  -3    3.40    1.10
  10  -8   3    1.40    1.10
 -10   8  -3    2.10    1.40
  10  -8   4   35.00    2.40
  10  -8   4   30.60    1.70
 -10   8  -4   33.80    2.60
 -10   8  -4   37.40    2.40
 -10   8  -4   37.90    2.80
  10  -8   4   34.30    2.40
 -10   8  -4   36.90    2.90
 -10   8  -4   37.50    2.80
  10  -8   5    5.10    1.10
  10  -8   5    4.00    0.80
 -10   8  -5    5.50    1.20
 -10   8  -5    4.30    1.10
  10  -8   5    4.10    1.10
 -10   8  -5    4.40    1.30
 -10   8  -5    5.00    1.40
  10  -8   6    5.50    0.80
  10  -8   6    5.00    0.80
 -10   8  -6    6.80    1.20
  10  -8   6    6.20    1.10
 -10   8  -6    5.60    1.10
 -10   8  -6    5.70    1.30
  10  -8   7    7.40    0.90
 -10   8  -7   10.20    1.30
  10  -8   7   10.20    1.20
 -10   8  -7    9.70    1.30
  10  -8   8   21.10    1.10
 -10   8  -8   24.90    1.60
 -10   8  -8   22.30    1.40
  10  -7  -7   20.20    1.10
 -10   7   7   24.20    1.80
  10  -7  -6    2.10    0.70
 -10   7   6    2.60    1.30
 -10   7   6    3.20    1.00
  10  -7  -6    2.90    0.70
 -10   7   6    3.10    0.90
  10  -7  -5   73.49    2.80
 -10   7   5   75.09    3.50
 -10   7   5   85.89    4.60
 -10   7   5   79.89    3.90
  10  -7  -5   68.99    2.70
 -10   7   5   79.09    3.50
  10  -7  -4   35.50    2.20
 -10   7   4   34.20    2.80
 -10   7   4   38.40    3.40
 -10   7   4   34.30    3.00
  10  -7  -4   34.50    2.10
  10  -7  -4   29.50    1.70
 -10   7   4   35.30    2.40
  10  -7  -3   30.30    2.20
 -10   7   3   33.40    3.10
 -10   7   3   37.50    3.50
 -10   7   3   30.20    2.50
 -10   7   3   30.60    3.10
  10  -7  -3   30.70    2.20
  10  -7  -3   26.40    1.80
  10  -7  -2    3.90    1.20
 -10   7   2    5.10    1.90
 -10   7   2    4.40    1.70
 -10   7   2    3.50    1.30
  10  -7  -2    5.00    1.30
 -10   7   2    4.10    1.10
  10  -7  -2    3.20    0.90
  10  -7  -1    4.80    1.30
 -10   7   1    4.60    1.90
 -10   7   1    5.90    1.80
 -10   7   1    4.80    1.50
  10  -7  -1    4.20    1.30
 -10   7   1    3.90    1.30
  10  -7  -1    3.10    0.90
  10  -7   0   47.80    2.90
 -10   7   0   54.09    4.20
 -10   7   0   60.49    4.00
 -10   7   0   51.69    3.80
  10  -7   0   48.30    3.00
 -10   7   0   48.70    3.40
  10  -7   0   44.90    2.60
 -10   7   0   52.19    3.00
  10  -7   1    0.60    1.00
 -10   7  -1    0.60    1.50
 -10   7  -1    1.00    1.40
  10  -7   1    0.40    1.20
 -10   7  -1    1.30    1.30
  10  -7   1    0.20    0.80
 -10   7  -1    1.50    1.00
  10  -7   2   81.19    3.80
 -10   7  -2   90.69    5.10
 -10   7  -2   89.09    4.80
 -10   7  -2   94.49    4.60
  10  -7   2   86.39    4.00
 -10   7  -2   87.19    4.70
  10  -7   2   81.59    3.40
 -10   7  -2   82.19    4.20
  10  -7   3    1.70    1.10
 -10   7  -3    4.80    1.60
  10  -7   3    3.00    0.80
 -10   7  -3    2.80    1.00
 -10   7  -3    3.10    1.40
  10  -7   3    1.70    1.20
 -10   7  -3    2.00    1.40
  10  -7   3    3.40    1.00
 -10   7  -3    3.60    1.30
  10  -7   4   53.19    3.00
 -10   7  -4   55.49    3.50
  10  -7   4   51.49    2.60
 -10   7  -4   54.29    3.20
 -10   7  -4   60.89    3.60
  10  -7   4   54.19    3.10
 -10   7  -4   57.39    3.70
  10  -7   4   50.69    2.60
 -10   7  -4   59.99    3.60
  10  -7   5   12.40    1.50
  10  -7   5   11.20    1.30
 -10   7  -5   13.40    1.70
 -10   7  -5   11.50    1.50
  10  -7   5   11.70    1.60
 -10   7  -5   12.50    1.80
  10  -7   5   11.00    1.30
 -10   7  -5   14.30    1.90
  10  -7   6    0.80    0.70
 -10   7  -6    0.80    0.90
  10  -7   6    0.50    0.90
 -10   7  -6    0.20    0.80
 -10   7  -6    0.50    1.00
  10  -7   7    1.30    0.70
  10  -7   7    2.00    0.70
 -10   7  -7    0.70    0.90
  10  -7   7    1.70    0.80
 -10   7  -7    1.70    0.90
  10  -7   8   -0.60    0.60
  10  -7   8    0.00    0.60
 -10   7  -8   -0.20    0.70
 -10   7  -8   -0.60    0.70
 -10   7  -8   -0.30    0.60
  10  -6  -8    5.50    0.70
  10  -6  -8    5.20    0.70
 -10   6   8    6.90    1.10
  10  -6  -7   83.59    2.70
 -10   6   7   93.39    4.10
 -10   6   7   73.39    3.00
  10  -6  -7   80.89    2.60
 -10   6   7   93.29    3.80
  10  -6  -6    3.90    1.00
 -10   6   6    4.40    1.60
 -10   6   6    4.20    1.30
  10  -6  -6    6.00    1.10
 -10   6   6    3.30    1.20
  10  -6  -5  128.59    4.20
 -10   6   5  126.29    5.20
 -10   6   5  154.98    6.70
 -10   6   5  132.49    5.70
  10  -6  -5  134.79    4.30
 -10   6   5  148.69    5.50
  10  -6  -4    4.70    1.20
 -10   6   4    6.00    1.70
 -10   6   4    6.10    2.00
 -10   6   4    4.40    1.20
 -10   6   4    6.40    1.80
  10  -6  -4    4.70    1.30
 -10   6   4    5.40    1.30
  10  -6  -3   39.00    2.60
 -10   6   3   34.20    3.30
 -10   6   3   42.30    3.90
 -10   6   3   33.70    2.90
 -10   6   3   36.10    3.50
  10  -6  -3   38.40    2.60
  10  -6  -2   35.70    2.50
 -10   6   2   40.50    3.70
 -10   6   2   37.80    3.20
 -10   6   2   43.60    3.80
  10  -6  -2   39.60    2.70
 -10   6   2   35.10    2.80
  10  -6  -1    7.50    1.40
 -10   6   1    9.10    2.30
 -10   6   1    9.40    2.10
 -10   6   1    9.90    2.00
  10  -6  -1    8.40    1.60
 -10   6   1    8.30    1.70
  10  -6  -1    6.80    1.10
  10  -6   0   89.19    4.00
 -10   6   0  100.99    5.70
 -10   6   0  108.39    5.60
 -10   6   0   96.69    5.20
 -10   6   0   99.69    5.30
  10  -6   0   89.39    4.10
 -10   6   0   83.39    4.70
  10  -6   0   84.99    3.60
 -10   6   0   91.39    4.20
  10  -6   1    5.90    1.40
 -10   6  -1    8.50    2.20
 -10   6  -1    8.80    2.00
 -10   6  -1    8.80    1.80
  10  -6   1    7.60    1.60
 -10   6  -1    7.40    1.80
  10  -6   1    5.30    1.10
 -10   6  -1    6.60    1.40
  10  -6   2    9.40    1.50
 -10   6  -2    9.50    2.10
 -10   6  -2    8.90    1.40
 -10   6  -2   11.00    2.10
  10  -6   2    9.90    1.70
 -10   6  -2    8.00    1.60
 -10   6  -2    8.80    1.90
  10  -6   2    9.90    1.50
 -10   6  -2   10.30    1.80
  10  -6   3    7.00    1.30
 -10   6  -3    8.70    1.90
 -10   6  -3    8.80    1.40
 -10   6  -3    8.40    1.80
  10  -6   3    8.30    1.60
 -10   6  -3    7.40    1.80
  10  -6   3    8.40    1.40
 -10   6  -3    8.70    1.80
  10  -6   4    3.90    1.10
 -10   6  -4    3.80    1.40
  10  -6   4    4.80    1.10
 -10   6  -4    5.00    1.30
 -10   6  -4    4.40    1.30
  10  -6   4    5.70    1.40
 -10   6  -4    4.50    1.60
  10  -6   4    5.00    1.30
 -10   6  -4    5.10    1.50
  10  -6   5   33.10    2.20
  10  -6   5   32.70    2.30
 -10   6  -5   35.60    2.70
 -10   6  -5   31.90    2.30
  10  -6   5   32.90    2.40
 -10   6  -5   33.40    2.70
  10  -6   5   32.60    2.30
 -10   6  -5   33.40    2.80
  10  -6   6    3.50    1.00
 -10   6  -6    3.80    1.20
  10  -6   6    2.70    1.00
 -10   6  -6    2.60    1.20
  10  -6   7   14.10    1.40
  10  -6   7   11.40    1.30
 -10   6  -7   16.70    1.70
  10  -6   7   14.20    1.40
 -10   6  -7   14.20    1.60
  10  -6   8    5.20    0.90
  10  -6   8    5.30    0.90
 -10   6  -8    5.60    1.00
 -10   6  -8    5.80    1.00
 -10   6  -8    5.00    0.90
  10  -5  -9   14.10    0.90
  10  -5  -9   14.20    0.90
  10  -5  -8    1.70    0.70
  10  -5  -8    1.00    0.40
 -10   5   8    1.20    1.00
  10  -5  -8    0.50    0.40
 -10   5   8    1.00    0.90
  10  -5  -7    2.70    0.80
  10  -5  -7    2.70    0.60
 -10   5   7    2.10    1.30
 -10   5   7    1.90    1.10
  10  -5  -7    2.20    0.70
 -10   5   7    2.90    1.30
  10  -5  -6    6.30    1.20
 -10   5   6    8.50    1.50
 -10   5   6    7.30    2.00
 -10   5   6    8.30    1.80
  10  -5  -6    6.40    1.00
 -10   5   6    6.50    1.50
  10  -5  -5    1.40    1.00
 -10   5   5    1.10    1.20
  10  -5  -5    1.60    0.70
 -10   5   5    2.00    1.70
 -10   5   5    1.40    1.40
  10  -5  -5    1.20    0.80
 -10   5   5    1.00    1.00
  10  -5  -4   55.29    3.00
 -10   5   4   55.69    4.10
  10  -5  -4   41.80    1.90
  10  -5  -4   55.69    2.50
 -10   5   4   63.99    4.80
 -10   5   4   47.80    3.30
 -10   5   4   62.19    4.40
  10  -5  -4   52.69    2.70
 -10   5   4   61.29    3.80
  10  -5  -3   27.80    2.20
 -10   5   3   25.80    3.00
  10  -5  -3   27.00    1.90
 -10   5   3   33.90    3.70
 -10   5   3   29.40    2.80
 -10   5   3   31.20    3.30
  10  -5  -3   30.00    2.40
  10  -5  -3   25.30    2.00
  10  -5  -2   -0.50    1.00
 -10   5   2    0.30    1.50
  10  -5  -2    0.10    0.70
 -10   5   2    1.00    1.60
 -10   5   2    0.80    1.30
 -10   5   2    0.10    1.60
  10  -5  -2    1.20    1.20
 -10   5   2    0.20    1.00
  10  -5  -1    1.80    1.00
 -10   5   1    0.90    1.60
  10  -5  -1    1.60    0.80
 -10   5   1    1.70    1.50
 -10   5   1    2.20    1.50
 -10   5   1    0.30    1.40
  10  -5  -1    2.40    1.30
 -10   5   1    1.70    1.20
  10  -5   0   18.70    1.90
 -10   5   0   18.00    2.80
  10  -5   0   17.70    1.60
 -10   5   0   20.60    2.70
 -10   5   0   20.10    2.60
 -10   5   0   20.80    2.60
  10  -5   0   20.10    2.20
 -10   5   0   18.70    2.40
 -10   5   0   19.00    2.10
  10  -5   1   12.60    1.70
 -10   5  -1   14.40    2.60
 -10   5  -1   17.10    2.50
 -10   5  -1   14.90    2.10
  10  -5   1   13.20    1.90
 -10   5  -1   13.70    2.20
 -10   5  -1   13.70    2.00
  10  -5   2   33.30    2.50
 -10   5  -2   43.30    3.70
 -10   5  -2   38.40    2.80
 -10   5  -2   38.80    3.40
  10  -5   2   35.60    2.70
 -10   5  -2   37.70    3.30
 -10   5  -2   38.10    3.10
  10  -5   3    0.50    0.80
 -10   5  -3   -0.30    1.20
 -10   5  -3    0.10    0.80
 -10   5  -3    0.80    1.10
  10  -5   3    0.30    1.00
 -10   5  -3   -0.60    1.30
  10  -5   3    0.00    1.10
 -10   5  -3   -0.20    1.10
  10  -5   4   20.50    1.80
 -10   5  -4   20.10    2.30
 -10   5  -4   23.80    2.30
 -10   5  -4   21.60    2.30
  10  -5   4   19.70    2.00
 -10   5  -4   20.80    2.40
  10  -5   4   18.90    2.00
 -10   5  -4   23.30    2.50
  10  -5   5   13.20    1.70
 -10   5  -5   15.20    1.90
  10  -5   5   14.10    1.70
  10  -5   5   14.10    1.80
 -10   5  -5   14.10    2.00
  10  -5   6   12.50    1.60
 -10   5  -6   12.70    1.70
  10  -5   6   13.00    1.50
 -10   5  -6   14.60    1.90
  10  -5   7    3.10    1.00
  10  -5   7    2.50    0.90
 -10   5  -7    2.70    1.00
 -10   5  -7    2.80    1.00
 -10   5  -7    2.40    1.00
  10  -5   8    1.70    0.80
  10  -5   8    0.70    0.70
 -10   5  -8    0.80    0.80
 -10   5  -8    0.80    0.70
 -10   5  -8    0.20    0.60
  10  -4  -9    7.10    0.80
 -10   4   9    7.70    1.10
  10  -4  -9    6.80    0.70
 -10   4   9    9.10    1.40
  10  -4  -8    1.60    0.70
 -10   4   8    0.70    1.10
  10  -4  -8    0.90    0.60
 -10   4   8    0.90    1.10
  10  -4  -7   51.59    2.50
 -10   4   7   58.09    4.00
 -10   4   7   49.80    3.40
  10  -4  -7   50.89    2.40
 -10   4   7   53.59    3.60
  10  -4  -6   39.00    2.40
 -10   4   6   39.30    3.00
  10  -4  -6   30.80    1.60
 -10   4   6   45.70    4.00
 -10   4   6   38.70    3.30
  10  -4  -6   40.60    2.30
 -10   4   6   43.60    3.40
  10  -4  -5    2.80    1.00
 -10   4   5    1.80    1.30
  10  -4  -5    1.20    0.60
 -10   4   5    4.00    2.00
 -10   4   5    2.10    1.00
 -10   4   5    3.00    1.60
  10  -4  -5    2.20    1.00
 -10   4   5    2.20    1.20
  10  -4  -4    0.00    0.90
 -10   4   4    0.10    1.40
  10  -4  -4   -0.40    0.70
  10  -4  -4    0.00    0.80
 -10   4   4    0.40    1.70
 -10   4   4   -0.10    1.00
 -10   4   4    1.10    1.60
  10  -4  -4    0.00    1.00
 -10   4   4    0.00    1.00
  10  -4  -3    4.20    1.10
 -10   4   3    3.10    1.60
  10  -4  -3    2.50    0.80
  10  -4  -3    5.00    1.10
 -10   4   3    4.70    2.00
 -10   4   3    4.00    1.40
 -10   4   3    3.70    1.80
  10  -4  -3    4.10    1.40
  10  -4  -3    4.50    1.20
  10  -4  -2   15.50    1.70
 -10   4   2   20.30    2.90
  10  -4  -2   11.10    1.30
  10  -4  -2   16.80    1.70
 -10   4   2   24.50    3.10
 -10   4   2   19.60    2.60
 -10   4   2   20.10    2.70
  10  -4  -2   20.60    2.10
  10  -4  -1   14.20    1.70
 -10   4   1   15.30    2.70
  10  -4  -1   13.30    1.60
 -10   4   1   18.30    2.70
 -10   4   1   16.40    2.40
 -10   4   1   14.70    2.40
  10  -4  -1   16.50    2.00
 -10   4   1   13.20    2.10
 -10   4   1   14.30    1.80
  10  -4   0    7.90    1.30
 -10   4   0   15.50    2.70
  10  -4   0    9.80    1.40
 -10   4   0   11.40    2.10
 -10   4   0    9.50    2.00
 -10   4   0   13.40    2.10
  10  -4   0    8.00    1.50
 -10   4   0    9.90    2.00
 -10   4   0    8.70    1.60
  10  -4   1    1.80    0.90
 -10   4  -1    4.50    1.80
 -10   4  -1    2.70    1.00
 -10   4  -1    4.10    1.60
 -10   4  -1    2.50    1.20
  10  -4   1    2.10    1.10
 -10   4  -1    3.20    1.50
 -10   4  -1    1.80    1.10
  10  -4   2   39.40    2.50
 -10   4  -2   47.50    4.00
 -10   4  -2   45.60    3.10
 -10   4  -2   45.00    3.50
  10  -4   2   45.80    2.90
 -10   4  -2   46.00    3.60
 -10   4  -2   45.70    3.40
 -10   4  -3    7.20    1.80
 -10   4  -3    5.20    1.40
  10  -4   3    4.80    1.10
 -10   4  -3    3.60    1.30
  10  -4   3    5.30    1.20
 -10   4  -3    6.50    1.80
  10  -4   3    4.50    1.40
 -10   4  -3    4.40    1.40
 -10   4  -4   -0.30    1.10
 -10   4  -4    0.80    1.10
  10  -4   4    1.40    0.90
 -10   4  -4    0.60    0.80
  10  -4   4    1.00    0.90
  10  -4   4    0.90    1.20
 -10   4  -4    0.40    1.20
  10  -4   5    2.80    1.20
 -10   4  -5    3.50    1.30
  10  -4   5    3.40    1.00
  10  -4   5    2.90    0.90
  10  -4   5    3.20    1.30
 -10   4  -5    2.80    1.30
  10  -4   6   51.39    2.90
 -10   4  -6   51.79    3.20
  10  -4   6   45.90    2.20
 -10   4  -6   49.70    2.90
  10  -4   6   44.30    2.30
 -10   4  -6   46.70    2.80
 -10   4  -6   48.30    3.10
  10  -4   7   45.90    1.90
  10  -4   7   59.89    2.80
  10  -4   7   48.80    2.30
 -10   4  -7   63.19    3.10
 -10   4  -7   59.69    2.90
 -10   4  -7   55.49    2.30
 -10   4  -7   56.79    2.90
  10  -4   8   32.20    1.80
  10  -4   8   26.60    1.40
 -10   4  -8   33.70    2.00
 -10   4  -8   32.10    1.90
  10  -3 -10   62.99    1.80
 -10   3  10   68.49    3.00
  10  -3  -9  104.59    2.90
 -10   3   9  103.99    4.10
  10  -3  -9  105.99    2.90
  10  -3  -8    0.20    0.60
  10  -3  -8    1.50    0.60
 -10   3   8   -0.90    1.10
  10  -3  -8    0.30    0.70
  10  -3  -8   -1.60    0.90
 -10   3   8   -0.30    1.10
  10  -3  -7   51.49    2.50
  10  -3  -7   45.50    2.00
 -10   3   7   53.49    4.10
 -10   3   7   46.20    3.50
  10  -3  -7   53.59    2.60
  10  -3  -7   42.80    2.20
 -10   3   7   56.59    3.90
  10  -3  -6   24.30    1.90
 -10   3   6   24.70    2.60
  10  -3  -6   22.70    1.50
 -10   3   6   24.80    3.10
 -10   3   6   23.40    2.80
  10  -3  -6   24.30    2.00
 -10   3   6   23.90    2.70
  10  -3  -5   27.40    2.10
 -10   3   5   33.60    3.20
  10  -3  -5   24.80    1.70
 -10   3   5   32.90    3.70
 -10   3   5   26.90    2.60
 -10   3   5   29.50    3.20
  10  -3  -5   30.40    2.20
 -10   3   5   31.40    3.00
  10  -3  -4   16.10    1.70
 -10   3   4   20.80    2.80
  10  -3  -4   14.40    1.50
  10  -3  -4   16.00    1.70
 -10   3   4   15.00    2.80
 -10   3   4   16.50    2.30
 -10   3   4   20.40    2.80
  10  -3  -4   16.50    1.80
 -10   3   4   14.80    2.20
 -10   3   4   19.80    2.40
  10  -3  -3   41.00    2.50
 -10   3   3   47.50    4.10
  10  -3  -3   35.20    2.20
  10  -3  -3   44.40    2.70
 -10   3   3   50.09    4.40
  10  -3  -3   42.00    2.40
 -10   3   3   45.30    3.60
 -10   3   3   51.29    4.20
  10  -3  -3   47.70    2.90
  10  -3  -3   45.80    2.80
  10  -3  -2   84.89    3.70
 -10   3   2   98.19    5.90
  10  -3  -2   76.19    3.20
  10  -3  -2   92.69    3.90
 -10   3   2  110.09    6.30
  10  -3  -2   91.49    3.50
 -10   3   2   96.89    5.40
 -10   3   2  105.29    5.70
  10  -3  -2  101.39    4.20
 -10   3   1    0.50    1.50
  10  -3  -1   -0.10    0.90
 -10   3   1   -0.50    1.30
  10  -3  -1   -0.60    0.80
 -10   3   1   -0.20    1.30
 -10   3   1   -0.10    1.20
  10  -3  -1    0.20    0.90
 -10   3   1   -0.10    0.80
 -10   3   0  110.39    6.20
  10  -3   0   96.99    4.00
 -10   3   0  112.49    5.90
  10  -3   0   95.19    3.70
 -10   3   0  103.89    5.50
 -10   3   0  117.39    5.50
  10  -3   0  103.39    4.20
 -10   3   0  105.09    4.80
 -10   3  -1   13.00    2.60
 -10   3  -1   12.30    1.70
  10  -3   1   10.50    1.40
 -10   3  -1   11.30    2.20
  10  -3   1   11.90    1.60
 -10   3  -1   11.90    1.90
 -10   3  -2   12.20    2.30
 -10   3  -2   13.80    1.90
 -10   3  -2   12.70    2.10
  10  -3   2   13.10    1.60
  10  -3   2   12.40    1.50
 -10   3  -2   12.80    2.00
 -10   3  -3   -0.50    1.30
 -10   3  -3    0.40    1.00
  10  -3   3    0.20    0.90
 -10   3  -3    0.40    0.90
  10  -3   3    1.00    0.80
  10  -3   3    0.50    0.80
  10  -3   3   -0.50    1.20
 -10   3  -3    0.20    1.10
 -10   3  -4    4.40    1.50
 -10   3  -4    4.00    1.40
  10  -3   4    4.10    1.10
 -10   3  -4    4.50    1.30
  10  -3   4    3.90    1.00
  10  -3   4    3.70    1.00
  10  -3   4    4.80    1.40
 -10   3  -4    3.60    1.40
  10  -3   5    0.50    1.10
 -10   3  -5    1.00    1.10
  10  -3   5    1.50    0.90
 -10   3  -5    1.50    1.00
  10  -3   5   -0.10    0.80
 -10   3  -5    0.10    0.90
  10  -3   5    1.00    1.20
 -10   3  -5    0.80    1.10
  10  -3   6   -0.40    1.00
 -10   3  -6   -0.20    1.00
  10  -3   6   -0.10    0.70
 -10   3  -6   -0.10    0.90
 -10   3  -6    0.20    0.90
  10  -3   7    7.20    0.90
  10  -3   7    9.80    1.30
  10  -3   7    7.40    1.00
 -10   3  -7    8.60    1.30
  10  -3   7    7.30    1.00
 -10   3  -7    8.70    1.30
 -10   3  -7   10.80    1.20
 -10   3  -7    7.00    1.20
  10  -3   8   14.40    1.00
  10  -3   8   17.70    1.30
 -10   3  -8   16.50    1.40
 -10   3  -8   17.50    1.40
 -10   3  -8   19.80    1.40
  10  -2 -10   12.20    0.90
  10  -2 -10   10.70    0.70
  10  -2 -10   15.30    1.10
 -10   2  10   13.90    1.70
  10  -2  -9   46.50    2.00
  10  -2  -9   47.30    1.80
 -10   2   9   52.19    2.20
 -10   2   9   44.50    3.00
  10  -2  -9   48.70    2.20
 -10   2   9   50.39    3.40
  10  -2  -8    2.40    0.70
 -10   2   8    2.90    1.60
  10  -2  -8    3.40    1.10
  10  -2  -8    0.00    0.80
 -10   2   8    2.00    1.50
  10  -2  -7    6.50    1.10
 -10   2   7    8.10    2.20
 -10   2   7    6.40    1.80
  10  -2  -7    8.20    1.30
  10  -2  -7    3.90    1.00
 -10   2   7    7.50    1.90
  10  -2  -6    1.20    0.70
 -10   2   6    2.20    1.20
 -10   2   6    1.90    1.60
 -10   2   6    2.30    1.60
  10  -2  -6    3.50    1.20
 -10   2   6    2.00    1.30
 -10   2   5  153.38    6.80
 -10   2   5  156.48    7.60
 -10   2   5  152.28    7.00
  10  -2  -5  145.29    4.80
 -10   2   5  155.98    6.60
 -10   2   4   40.90    3.70
  10  -2  -4   37.20    2.20
  10  -2  -4   41.60    2.70
 -10   2   4   48.70    4.40
 -10   2   4   36.70    3.30
 -10   2   4   41.80    3.90
  10  -2  -4   41.60    2.70
 -10   2   4   39.80    3.40
 -10   2   4   43.90    3.40
 -10   2   3    1.00    1.70
  10  -2  -3    1.10    0.90
  10  -2  -3    1.00    1.00
 -10   2   3    0.60    1.70
  10  -2  -3    1.50    1.00
 -10   2   3    1.30    1.30
 -10   2   3    0.30    1.50
  10  -2  -3    1.00    0.90
  10  -2  -3    0.50    1.20
 -10   2   2   40.80    3.90
  10  -2  -2   32.10    2.20
  10  -2  -2   42.70    2.80
 -10   2   2   46.10    4.20
  10  -2  -2   38.50    2.50
 -10   2   2   42.70    3.60
 -10   2   2   45.00    3.80
  10  -2  -2   43.20    2.60
 -10   2   1   10.00    2.30
  10  -2  -1    7.90    1.50
 -10   2   1    9.60    2.20
  10  -2  -1    7.40    1.30
 -10   2   1   10.00    2.00
 -10   2   1   10.80    1.90
  10  -2  -1    9.40    1.40
 -10   2   1    9.50    1.60
 -10   2   0   41.40    4.00
  10  -2   0   41.80    2.80
 -10   2   0   43.70    3.80
  10  -2   0   37.90    2.50
 -10   2   0   43.10    3.60
 -10   2   0   41.50    3.30
  10  -2   0   43.10    2.60
 -10   2   0   38.30    3.00
 -10   2  -1    3.50    2.00
 -10   2  -1    3.80    1.10
  10  -2   1    4.80    1.20
 -10   2  -1    4.80    1.60
  10  -2   1    4.00    1.00
 -10   2  -1    3.50    1.30
 -10   2  -2   14.30    2.40
 -10   2  -2   11.80    1.80
 -10   2  -2   12.20    1.90
  10  -2   2   10.60    1.30
  10  -2   2   12.60    1.60
  10  -2   2   14.20    2.00
 -10   2  -2   12.80    2.10
 -10   2  -3   34.10    3.20
 -10   2  -3   37.40    2.90
  10  -2   3   33.10    2.50
 -10   2  -3   34.10    2.50
  10  -2   3   29.30    2.00
  10  -2   3   31.50    2.40
  10  -2   3   33.50    2.70
 -10   2  -3   33.40    2.90
 -10   2  -4    0.30    1.00
 -10   2  -4    1.00    1.10
  10  -2   4    1.70    1.10
 -10   2  -4    1.50    0.90
  10  -2   4    1.60    1.00
 -10   2  -4    1.20    1.10
  10  -2   4    1.20    1.20
 -10   2  -4    2.10    1.30
  10  -2   5    0.90    1.10
 -10   2  -5    0.20    1.00
  10  -2   5    0.10    0.90
 -10   2  -5    0.30    0.90
  10  -2   5    0.50    0.90
 -10   2  -5    0.90    0.90
  10  -2   5    0.20    1.10
 -10   2  -5    0.30    1.10
  10  -2   6    6.00    1.20
 -10   2  -6    6.00    1.30
  10  -2   6    6.40    1.10
 -10   2  -6    5.60    1.10
 -10   2  -6    4.80    1.20
  10  -2   7    2.50    0.90
  10  -2   7    1.40    0.50
 -10   2  -7    1.50    0.80
  10  -2   7    2.50    0.80
 -10   2  -7    1.90    0.80
 -10   2  -7    1.80    0.80
  10  -2   8   -0.20    0.50
  10  -2   8    0.60    0.50
 -10   2  -8    0.20    0.50
 -10   2  -8    0.30    0.60
  10  -1 -11    6.40    0.50
  10  -1 -11    7.80    0.80
  10  -1 -10   43.90    1.60
 -10   1  10   42.00    1.90
  10  -1 -10   37.30    1.80
 -10   1  10   35.80    2.70
 -10   1   9    1.40    0.70
 -10   1   9    0.80    1.10
  10  -1  -9    1.50    0.90
  10  -1  -9   -1.20    0.80
 -10   1   9    1.20    1.30
 -10   1   8    0.60    0.70
 -10   1   8    0.90    1.40
  10  -1  -8    1.40    1.00
  10  -1  -8    0.10    0.80
 -10   1   8    0.10    1.30
 -10   1   8    0.50    0.80
 -10   1   7    1.80    0.70
 -10   1   7    1.30    1.50
  10  -1  -7    1.60    1.10
  10  -1  -7   -1.40    1.00
 -10   1   7    2.10    1.60
 -10   1   6    3.60    1.40
 -10   1   6    4.70    2.00
 -10   1   6    3.50    1.70
  10  -1  -6    4.80    1.30
 -10   1   6    3.50    1.50
 -10   1   5   26.80    3.10
  10  -1  -5   35.50    2.30
 -10   1   5   29.10    3.60
 -10   1   5   26.00    3.10
  10  -1  -5   28.60    2.30
 -10   1   5   24.50    2.60
 -10   1   5   28.70    3.00
 -10   1   4   60.29    4.60
  10  -1  -4   48.90    2.60
  10  -1  -4   55.89    3.10
 -10   1   4   59.29    4.90
 -10   1   4   59.59    4.50
  10  -1  -4   56.39    3.20
 -10   1   4   55.69    4.00
 -10   1   4   51.19    3.70
 -10   1   3    1.20    1.60
  10  -1  -3    0.00    0.90
  10  -1  -3    0.90    1.10
 -10   1   3    0.10    1.70
  10  -1  -3    0.70    1.00
 -10   1   3   -0.20    1.40
  10  -1  -3    0.70    0.80
 -10   1   3   -0.60    1.70
  10  -1  -3    0.00    0.80
  10  -1  -3   -0.10    1.10
 -10   1   3    0.50    1.40
 -10   1   2   57.79    4.60
  10  -1  -2   43.50    2.60
  10  -1  -2   57.79    3.20
 -10   1   2   59.89    4.80
  10  -1  -2   57.29    3.10
 -10   1   2   54.29    4.10
  10  -1  -2   52.09    2.60
 -10   1   2   55.69    4.10
 -10   1   2   61.89    3.70
 -10   1   2   61.19    4.50
 -10   1   1   15.30    2.80
  10  -1  -1   17.50    1.90
 -10   1   1   19.80    2.80
  10  -1  -1   15.30    1.80
 -10   1   1   15.60    2.40
  10  -1  -1   16.30    1.60
 -10   1   1   17.20    2.30
 -10   1   1   18.00    2.10
 -10   1   0   24.30    3.30
 -10   1   0   19.90    2.10
  10  -1   0   21.70    2.10
 -10   1   0   20.50    2.70
  10  -1   0   20.80    2.00
 -10   1   0   21.20    2.60
  10  -1   0   19.70    1.80
 -10   1   0   22.20    2.40
 -10   1  -1   43.80    4.00
 -10   1  -1   37.50    2.90
  10  -1   1   34.30    2.50
  10  -1   1   33.60    2.30
 -10   1  -1   40.50    3.80
 -10   1  -1   35.00    3.00
 -10   1  -2   44.40    3.90
 -10   1  -2   45.20    3.20
  10  -1   2   46.30    3.00
  10  -1   2   41.60    2.60
  10  -1   2   46.70    2.90
 -10   1  -2   49.40    3.90
  10  -1   2   49.20    3.10
 -10   1  -2   41.80    3.30
 -10   1  -3    1.10    1.30
 -10   1  -3    0.80    1.00
  10  -1   3    0.40    1.10
 -10   1  -3    1.60    0.80
  10  -1   3    1.10    0.90
  10  -1   3    1.80    1.10
 -10   1  -3    1.80    1.30
  10  -1   3    2.10    1.10
 -10   1  -3    1.60    1.30
  10  -1   4   63.49    3.30
 -10   1  -4   64.59    3.70
  10  -1   4   67.59    3.40
 -10   1  -4   65.69    3.30
  10  -1   4   66.49    3.30
 -10   1  -4   63.69    3.70
  10  -1   4   65.79    3.40
 -10   1  -4   61.09    3.80
  10  -1   5    0.20    0.90
 -10   1  -5   -0.20    1.00
  10  -1   5   -0.10    0.90
 -10   1  -5    0.20    0.80
  10  -1   5   -0.20    0.90
 -10   1  -5    0.40    1.00
  10  -1   6    0.90    0.80
  10  -1   6   -0.40    0.50
 -10   1  -6    0.10    0.80
  10  -1   6    1.30    0.90
 -10   1  -6    0.40    0.70
 -10   1  -6    1.50    0.80
 -10   1  -7   37.30    2.10
  10  -1   7   34.40    1.60
 -10   1  -7   35.80    2.00
  10  -1   7   39.20    1.90
 -10   1  -7   38.80    1.90
  10   0 -11   25.10    1.10
 -10   0  11   24.20    1.40
  10   0 -11   23.30    1.20
 -10   0  10    8.30    1.10
  10   0 -10    6.90    1.00
 -10   0   9   44.60    2.50
 -10   0   9   38.30    3.10
  10   0  -9   41.80    2.20
 -10   0   8   10.50    1.40
 -10   0   8    9.10    2.00
  10   0  -8    9.40    1.40
 -10   0   8    8.00    1.90
 -10   0   8    5.90    1.40
 -10   0   7   98.79    4.00
 -10   0   7   88.69    5.50
  10   0  -7   91.19    3.60
 -10   0   7   90.59    5.20
 -10   0   6   18.10    2.50
 -10   0   6   22.10    1.90
 -10   0   6   21.40    3.10
  10   0  -6   21.00    1.90
 -10   0   6   19.10    2.60
 -10   0   5   20.10    2.80
  10   0  -5   29.50    2.10
  10   0  -5   22.50    2.10
 -10   0   5   21.20    3.10
  10   0  -5   22.80    2.00
 -10   0   5   20.50    2.50
 -10   0   4  129.49    6.70
  10   0  -4  105.39    3.80
  10   0  -4  122.69    4.60
 -10   0   4  131.59    7.10
  10   0  -4  119.79    4.50
 -10   0   4  124.59    5.70
 -10   0   4  124.99    6.10
 -10   0   3  332.57   11.10
  10   0  -3  340.57    8.10
 -10   0   3  338.97   11.40
  10   0  -3  340.77    7.90
  10   0  -3  324.27    7.20
 -10   0   3  354.56    9.50
 -10   0   3  349.37   10.70
 -10   0   2    4.80    2.00
  10   0  -2    3.10    1.10
  10   0  -2    6.20    1.50
 -10   0   2    6.80    2.20
  10   0  -2    4.90    1.30
  10   0  -2    5.90    1.20
 -10   0   2    6.90    1.60
 -10   0   2    5.70    1.90
 -10   0   2    5.60    1.30
 -10   0   1   10.50    2.60
  10   0  -1   10.10    1.70
 -10   0   1   11.60    2.30
  10   0  -1   10.00    1.60
  10   0  -1    8.70    1.40
 -10   0   1   11.60    1.70
 -10   0   1   11.80    2.30
 -10   0   1   10.10    1.70
 -10   0   0    5.40    2.10
 -10   0   0    5.00    1.30
  10   0   0    4.00    1.20
  10   0   0    4.00    1.10
 -10   0   0    2.70    1.70
 -10   0   0    4.40    1.30
 -10   0  -1    6.90    2.10
 -10   0  -1    8.50    1.60
  10   0   1    7.60    1.50
  10   0   1    7.70    1.40
 -10   0  -1    8.60    2.20
  10   0   1   10.30    1.60
 -10   0  -1    9.40    1.70
 -10   0  -2    2.60    1.60
 -10   0  -2    2.60    1.20
  10   0   2    2.20    1.20
  10   0   2    3.60    1.10
  10   0   2    1.70    1.10
 -10   0  -2    1.90    1.30
  10   0   2    2.50    1.10
 -10   0  -2    1.60    1.20
 -10   0  -3    1.20    1.30
 -10   0  -3    1.30    1.20
  10   0   3    1.70    1.20
 -10   0  -3    0.30    0.70
  10   0   3    0.80    0.90
  10   0   3    1.20    1.20
 -10   0  -3   -0.10    1.00
  10   0   3    1.10    1.00
 -10   0  -3    1.10    1.20
  10   0   4    0.40    0.80
 -10   0  -4    0.90    1.10
  10   0   4    1.50    1.10
 -10   0  -4    0.50    0.70
 -10   0  -4    0.80    0.80
  10   0   4    0.00    1.10
 -10   0  -4    0.80    0.90
  10   0   5   40.80    2.20
 -10   0  -5   44.40    2.80
  10   0   5   45.00    2.50
 -10   0  -5   41.30    2.40
 -10   0  -5   44.00    2.20
 -10   0  -6    8.20    1.40
  10   0   6    5.70    0.80
 -10   0  -6    6.50    1.10
  10   0   6    8.50    1.20
 -10   0  -6    6.40    0.90
  10   0   7   12.60    1.00
  10   0   7   13.90    1.20
 -10  -1  11    2.50    0.70
  10   1 -11    2.00    0.60
  10   1 -11    1.40    0.50
 -10  -1  11    1.90    0.80
 -10  -1  10   10.90    1.30
  10   1 -10    9.80    1.10
 -10  -1  10    9.70    1.50
 -10  -1   9   28.50    2.10
  10   1  -9   25.10    1.70
 -10  -1   9   23.80    2.40
 -10  -1   9   21.10    2.00
 -10  -1   8   29.30    2.20
 -10  -1   8   26.20    2.90
  10   1  -8   27.30    1.90
 -10  -1   8   24.90    2.50
 -10  -1   7    4.20    1.10
  10   1  -7    4.20    1.20
 -10  -1   7    3.40    1.80
  10   1  -7    3.60    1.00
 -10  -1   6    0.00    1.20
 -10  -1   6    0.10    0.80
  10   1  -6    0.80    1.10
 -10  -1   6    0.60    1.70
  10   1  -6    0.00    0.80
 -10  -1   6    0.20    1.40
 -10  -1   6    0.00    1.00
 -10  -1   5    0.10    1.40
  10   1  -5    4.30    1.30
 -10  -1   5    0.90    0.80
  10   1  -5    1.30    1.10
 -10  -1   5    2.10    1.80
  10   1  -5    1.00    0.90
 -10  -1   5    0.60    1.50
 -10  -1   5    0.40    1.10
 -10  -1   4  151.68    7.30
  10   1  -4  128.49    4.20
 -10  -1   4  153.08    5.00
  10   1  -4  152.48    5.10
 -10  -1   4  147.89    7.50
  10   1  -4  153.58    5.10
 -10  -1   4  159.58    6.40
 -10  -1   4  146.29    6.70
 -10  -1   3   82.09    5.50
  10   1  -3   67.19    3.00
  10   1  -3   83.99    3.90
 -10  -1   3   81.59    5.60
  10   1  -3   88.99    3.90
  10   1  -3   83.19    3.60
 -10  -1   3   87.99    4.60
 -10  -1   3   84.09    5.20
 -10  -1   2   21.20    3.10
  10   1  -2   19.90    2.10
  10   1  -2   21.30    2.10
  10   1  -2   21.30    1.90
 -10  -1   2   20.30    2.20
 -10  -1   2   20.00    2.80
 -10  -1   1    8.70    2.40
 -10  -1   1    6.90    1.30
  10   1  -1    7.40    1.50
  10   1  -1    7.00    1.40
  10   1  -1    8.70    1.50
 -10  -1   1    8.30    1.50
 -10  -1   1    8.20    2.20
 -10  -1   0   10.90    2.60
 -10  -1   0    8.50    1.50
  10   1   0    8.20    1.50
  10   1   0    9.40    1.50
 -10  -1   0    9.00    2.20
  10   1   0   10.90    1.50
  10   1   0    8.90    1.30
  10   1   1    1.60    0.80
 -10  -1  -1    1.30    1.80
 -10  -1  -1    2.40    1.20
  10   1   1    1.20    1.20
  10   1   1    2.70    1.10
 -10  -1  -1    3.20    1.60
  10   1   1    1.00    0.90
 -10  -1  -2   32.90    3.30
 -10  -1  -2   37.20    2.90
  10   1   2   36.40    2.70
  10   1   2   31.70    2.40
  10   1   2   37.30    2.70
 -10  -1  -2   34.20    3.00
  10   1   2   33.70    2.20
  10   1   2   31.30    2.00
 -10  -1  -3    0.30    1.10
  10   1   3   -0.40    0.70
 -10  -1  -3   -0.30    1.10
  10   1   3    0.50    1.10
  10   1   3    0.20    1.00
  10   1   3    0.80    1.20
 -10  -1  -3    0.10    0.90
  10   1   3   -0.30    0.70
  10   1   4    6.70    1.00
 -10  -1  -4    7.50    1.40
  10   1   4    7.50    1.40
  10   1   4    8.00    1.40
 -10  -1  -5    6.60    1.40
 -10  -1  -5    4.00    1.00
  10   1   5    4.50    1.10
 -10  -1  -6   10.80    1.20
  10   1   6   11.00    1.10
 -10  -1  -6   12.00    1.10
 -10  -2  11    8.90    1.00
  10   2 -11    7.10    0.70
  10   2 -11    6.20    0.70
 -10  -2  11    6.60    1.00
 -10  -2  10   57.39    2.70
  10   2 -10   49.80    2.00
  10   2 -10   49.60    1.90
 -10  -2  10   52.39    2.90
 -10  -2  10   49.30    2.50
 -10  -2   9    5.40    1.10
  10   2  -9    5.00    1.00
  10   2  -9    3.80    0.80
 -10  -2   9    4.00    1.40
 -10  -2   9    5.00    1.30
 -10  -2   8    0.10    0.80
  10   2  -8    0.30    0.80
  10   2  -8   -0.30    0.80
 -10  -2   8    0.30    1.30
 -10  -2   8    0.70    1.20
 -10  -2   7   47.10    2.80
  10   2  -7   42.90    2.50
  10   2  -7   40.00    2.20
 -10  -2   7   44.20    3.40
 -10  -2   7   45.10    3.60
 -10  -2   6    3.50    1.60
 -10  -2   6    1.50    0.90
  10   2  -6    1.10    0.90
 -10  -2   6    1.30    1.60
  10   2  -6    0.90    0.80
 -10  -2   6    2.20    1.50
 -10  -2   5  299.77   10.10
 -10  -2   5  317.97    7.70
  10   2  -5  302.07    7.10
  10   2  -5  318.47    7.40
 -10  -2   5  309.67    9.00
 -10  -2   5  290.37    9.20
 -10  -2   4   -0.60    1.70
  10   2  -4    0.10    0.80
 -10  -2   4    0.10    0.70
  10   2  -4    0.00    1.10
  10   2  -4    0.90    1.20
  10   2  -4    1.40    1.00
 -10  -2   4   -0.10    1.30
 -10  -2   4    1.40    1.50
 -10  -2   3   84.49    5.60
  10   2  -3   70.09    3.00
  10   2  -3   80.49    3.70
  10   2  -3   86.49    3.80
  10   2  -3   88.39    3.70
 -10  -2   3   84.99    4.40
 -10  -2   3   84.79    5.20
 -10  -2   2   36.90    4.00
  10   2  -2   31.80    2.50
  10   2  -2   34.00    2.50
  10   2  -2   36.00    2.50
 -10  -2   2   35.60    2.90
 -10  -2   2   37.00    3.60
  10   2  -1    1.00    0.80
 -10  -2   1    1.60    1.90
 -10  -2   1    1.70    0.90
  10   2  -1    2.20    1.10
  10   2  -1    2.10    1.10
 -10  -2   1    2.00    1.00
 -10  -2   1    1.40    1.60
  10   2  -1    1.30    0.80
 -10  -2   0   22.20    3.10
 -10  -2   0   18.60    2.10
  10   2   0   21.20    2.10
  10   2   0   20.60    2.10
  10   2   0   20.80    2.00
 -10  -2   0   21.40    2.70
  10   2   0   19.60    1.60
  10   2   0   22.20    1.90
  10   2   1    3.80    0.90
 -10  -2  -1    2.10    1.70
 -10  -2  -1    3.20    1.20
  10   2   1    3.20    1.20
  10   2   1    2.90    1.20
  10   2   1    4.20    1.40
 -10  -2  -1    2.80    1.40
 -10  -2  -2   56.79    4.00
  10   2   2   58.99    2.60
 -10  -2  -2   65.59    3.90
 -10  -2  -2   55.49    3.40
  10   2   2   64.89    3.20
  10   2   2   63.19    3.10
  10   2   2   66.39    3.30
  10   2   2   61.79    2.70
 -10  -2  -3   28.90    2.80
 -10  -2  -3   21.60    2.30
 -10  -2  -3   22.80    2.10
  10   2   3   25.00    2.00
  10   2   3   27.70    2.10
 -10  -2  -3   27.60    1.90
  10   2   3   22.30    1.60
  10   2   4    3.30    0.70
 -10  -2  -4    4.50    1.40
 -10  -2  -4    3.70    1.10
  10   2   4    3.70    1.00
 -10  -2  -4    3.40    0.90
 -10  -2  -5    9.90    1.30
  10   2   5   10.80    1.10
 -10  -2  -5   11.20    1.10
 -10  -3  11    0.20    0.60
 -10  -3  11    0.50    0.70
 -10  -3  10   43.20    1.90
 -10  -3  10   49.80    2.50
  10   3 -10   40.80    1.70
 -10  -3  10   45.50    2.60
 -10  -3  10   45.00    2.50
 -10  -3   9   40.80    2.00
 -10  -3   9   44.60    2.50
  10   3  -9   39.00    1.90
  10   3  -9   37.40    1.70
 -10  -3   9   44.30    2.90
 -10  -3   9   43.90    2.90
 -10  -3   8   -0.10    0.70
 -10  -3   8    1.10    1.30
 -10  -3   8    0.20    0.80
  10   3  -8    1.00    0.70
  10   3  -8    0.60    0.60
 -10  -3   8    0.90    1.20
 -10  -3   8    0.50    1.20
 -10  -3   7   37.90    2.20
  10   3  -7   37.10    1.90
 -10  -3   7   39.70    2.60
 -10  -3   7   43.40    3.90
  10   3  -7   36.20    2.10
 -10  -3   7   41.40    3.20
 -10  -3   7   41.50    3.40
 -10  -3   6    4.00    1.60
 -10  -3   6    6.30    1.00
  10   3  -6    5.10    0.90
 -10  -3   6    5.70    1.20
  10   3  -6    4.20    1.00
  10   3  -6    5.60    1.30
 -10  -3   6    4.20    1.60
 -10  -3   6    5.10    1.80
 -10  -3   5  364.66    8.30
  10   3  -5  349.77    7.40
  10   3  -5  364.16    7.80
 -10  -3   5  374.26    9.70
 -10  -3   4   91.39    5.70
  10   3  -4   87.59    3.60
  10   3  -4   88.79    3.70
  10   3  -4   90.39    3.70
 -10  -3   4   91.89    4.60
 -10  -3   3    0.30    1.70
  10   3  -3   -0.80    1.20
  10   3  -3    0.90    1.10
 -10  -3   3    0.90    1.20
 -10  -3   3    0.00    1.50
 -10  -3   2   42.60    3.30
 -10  -3   2   36.50    3.90
  10   3  -2   35.90    2.50
  10   3  -2   39.50    2.60
 -10  -3   2   39.90    2.90
 -10  -3   2   39.30    3.60
  10   3  -1    0.30    0.80
 -10  -3   1   -0.10    1.20
 -10  -3   1    0.00    0.70
 -10  -3   1    0.00    1.80
  10   3  -1    0.10    0.90
  10   3  -1   -1.20    1.20
  10   3  -1    0.60    0.60
  10   3  -1   -0.20    1.10
 -10  -3   1    0.30    0.90
 -10  -3   1   -0.50    1.40
 -10  -3   0   31.40    3.10
 -10  -3   0   20.70    3.00
 -10  -3   0   26.80    3.00
  10   3   0   25.00    2.00
  10   3   0   25.10    2.20
  10   3   0   26.60    2.20
 -10  -3   0   29.10    2.10
  10   3   0   26.60    2.00
  10   3   1    0.00    0.70
 -10  -3  -1    0.20    1.30
 -10  -3  -1    1.10    1.50
 -10  -3  -1    0.40    1.20
  10   3   1   -0.40    0.80
  10   3   1   -0.10    1.10
  10   3   1    0.70    1.00
  10   3   2    1.10    0.70
 -10  -3  -2    0.60    1.30
 -10  -3  -2    1.30    1.30
  10   3   2    1.40    0.60
  10   3   2    1.20    0.90
  10   3   2    0.20    1.00
  10   3   2    1.10    1.00
 -10  -3  -3   40.50    2.90
  10   3   3   37.30    2.10
  10   3   3   37.00    2.10
  10   3   3   33.60    1.80
  10   3   4    0.10    0.40
 -10  -3  -4    0.20    0.90
  10   3   4    0.50    0.60
 -10  -3  -4    0.70    0.50
  10   4 -11    5.80    0.50
 -10  -4  11    7.20    0.90
  10   4 -11    6.20    0.70
 -10  -4  10   -0.60    0.60
  10   4 -10    1.80    0.50
 -10  -4  10    0.10    0.70
 -10  -4  10   -0.50    0.80
 -10  -4   9   14.00    1.20
  10   4  -9   12.70    1.00
 -10  -4   9   15.40    1.50
  10   4  -9   11.60    0.90
 -10  -4   9   13.50    1.70
 -10  -4   9   14.50    1.80
 -10  -4   8   13.90    1.30
  10   4  -8   11.80    1.00
 -10  -4   8   15.20    1.60
 -10  -4   8   15.60    2.20
  10   4  -8   12.20    1.10
  10   4  -8   15.20    1.40
 -10  -4   8   15.70    1.90
 -10  -4   8   15.30    2.00
 -10  -4   7   20.90    1.70
  10   4  -7   16.70    1.20
 -10  -4   7   21.70    1.90
 -10  -4   7   23.50    2.90
  10   4  -7   18.50    1.40
  10   4  -7   21.10    1.70
 -10  -4   7   21.40    2.30
 -10  -4   7   24.10    2.60
 -10  -4   6    1.50    1.40
 -10  -4   6    0.80    0.70
  10   4  -6   -0.40    0.60
 -10  -4   6    0.10    1.60
 -10  -4   6    0.20    0.80
  10   4  -6    0.50    0.60
  10   4  -6    0.40    0.90
 -10  -4   6    1.40    1.40
 -10  -4   6    0.40    1.20
 -10  -4   5    5.10    1.90
 -10  -4   5    7.20    1.10
 -10  -4   5    7.30    2.40
  10   4  -5    4.90    1.00
  10   4  -5    6.10    1.20
  10   4  -5    7.80    1.40
 -10  -4   5    7.90    1.80
 -10  -4   5    7.60    1.70
 -10  -4   4    3.00    1.80
 -10  -4   4    3.90    0.90
 -10  -4   4    5.10    2.30
  10   4  -4    3.50    1.10
  10   4  -4    4.50    1.20
 -10  -4   4    4.60    1.50
 -10  -4   4    3.70    1.30
 -10  -4   3   54.09    3.40
 -10  -4   3   49.99    4.40
 -10  -4   3   52.39    2.60
 -10  -4   3   64.19    5.10
  10   4  -3   49.90    2.70
  10   4  -3   54.99    2.90
 -10  -4   3   56.49    3.40
 -10  -4   3   55.59    3.30
  10   4  -2   10.50    1.40
 -10  -4   2   12.30    2.00
 -10  -4   2   10.20    2.60
 -10  -4   2   10.70    2.50
  10   4  -2    9.50    1.30
  10   4  -2    8.70    1.30
  10   4  -2   10.10    1.20
  10   4  -2   10.80    1.50
 -10  -4   2   11.50    1.70
 -10  -4   2    9.20    1.40
  10   4  -1    3.80    1.10
 -10  -4   1    3.30    1.40
 -10  -4   1    3.60    1.00
 -10  -4   1    2.00    1.90
 -10  -4   1    2.70    1.70
  10   4  -1    2.50    0.90
  10   4  -1    3.20    0.80
  10   4  -1    2.70    1.10
  10   4  -1    2.90    1.10
 -10  -4   1    3.20    1.10
  10   4   0    0.40    0.80
 -10  -4   0    0.10    1.10
 -10  -4   0   -0.90    0.70
 -10  -4   0   -0.10    1.50
 -10  -4   0    0.00    1.20
  10   4   0    0.70    0.80
  10   4   0    0.10    0.50
  10   4   0    0.20    0.90
  10   4   0   -0.20    0.90
 -10  -4   0    0.40    0.70
 -10  -4  -1   11.30    1.90
 -10  -4  -1    9.70    1.60
  10   4   1    8.80    1.10
  10   4   1    9.20    1.10
  10   4   1    7.20    0.90
  10   4   1    9.50    1.30
  10   4   1    9.20    1.30
  10   4   1    8.70    1.20
 -10  -4  -2    6.50    1.50
  10   4   2    5.60    0.80
  10   4   2    5.00    0.90
  10   4   2    6.40    1.00
  10   4   2    5.30    0.90
  10   4   3   21.70    1.20
  10   4   3   22.10    1.30
 -10  -5  11    0.40    0.50
 -10  -5  10   69.49    2.30
  10   5 -10   63.79    1.90
 -10  -5  10   66.89    2.50
 -10  -5   9   18.20    1.40
 -10  -5   9   19.20    1.60
  10   5  -9   16.90    1.20
 -10  -5   9   18.30    1.70
 -10  -5   9   18.80    1.90
 -10  -5   8   23.50    1.60
 -10  -5   8   21.00    1.80
 -10  -5   8   20.10    2.30
  10   5  -8   21.10    1.40
 -10  -5   8   22.50    2.00
 -10  -5   8   24.90    2.30
 -10  -5   7   24.90    1.80
 -10  -5   7   25.00    2.90
  10   5  -7   21.70    1.50
  10   5  -7   26.10    1.80
 -10  -5   7   27.60    2.40
 -10  -5   7   27.70    2.50
 -10  -5   6   88.99    4.80
 -10  -5   6  102.29    3.50
 -10  -5   6  113.59    6.10
  10   5  -6   94.49    3.20
  10   5  -6  106.59    3.60
 -10  -5   6  112.79    4.60
 -10  -5   6  114.29    4.80
 -10  -5   5   16.60    2.50
 -10  -5   5   19.00    1.60
 -10  -5   5   21.20    3.10
  10   5  -5   17.40    1.50
  10   5  -5   20.20    1.70
 -10  -5   5   20.50    2.20
 -10  -5   5   21.90    2.20
 -10  -5   4    0.70    1.50
 -10  -5   4   -0.10    0.60
 -10  -5   4    1.30    1.80
  10   5  -4    0.10    0.70
  10   5  -4    0.50    0.90
 -10  -5   4    1.20    1.10
 -10  -5   4    0.40    0.80
  10   5  -3   46.90    2.50
 -10  -5   3   42.70    3.80
 -10  -5   3   42.20    2.20
 -10  -5   3   49.80    4.20
  10   5  -3   45.30    2.20
  10   5  -3   43.60    2.40
 -10  -5   3   48.90    3.00
 -10  -5   3   46.40    2.60
 -10  -5   3   48.50    3.00
 -10  -5   2   17.20    1.60
 -10  -5   2   12.40    2.50
 -10  -5   2   18.90    2.70
  10   5  -2   12.50    1.10
  10   5  -2   14.60    1.30
  10   5  -2   13.80    1.50
  10   5  -2   14.80    1.40
 -10  -5   2   16.40    1.80
  10   5  -2   15.40    1.50
 -10  -5   2   16.20    2.00
 -10  -5   1   22.10    2.30
 -10  -5   1   21.70    1.60
 -10  -5   1   18.10    2.30
  10   5  -1   18.30    1.30
  10   5  -1   16.60    1.30
  10   5  -1   17.00    1.50
  10   5  -1   19.90    1.50
 -10  -5   1   21.70    1.80
  10   5  -1   19.90    1.60
 -10  -5   0   16.00    1.90
 -10  -5   0   13.50    1.20
 -10  -5   0   15.00    1.80
  10   5   0   15.60    1.30
  10   5   0   12.90    1.10
  10   5   0   14.30    1.10
  10   5   0   13.90    1.30
  10   5   0   15.20    1.30
  10   5   0   15.00    1.40
  10   5   1    3.20    0.80
 -10  -5  -1    3.00    1.10
  10   5   1    3.20    0.70
  10   5   1    2.90    0.70
  10   5   2   20.70    1.20
 -10  -5  -2   21.50    1.80
 -10  -6  10    9.00    0.80
  10   6 -10   10.90    0.80
 -10  -6   9   25.40    1.40
  10   6  -9   25.90    1.40
 -10  -6   9   25.00    1.70
 -10  -6   8    0.50    0.60
  10   6  -8    0.00    0.40
  10   6  -8    0.50    0.60
 -10  -6   8    0.10    0.80
 -10  -6   7   58.39    2.40
 -10  -6   7   62.99    3.90
  10   6  -7   59.69    2.30
 -10  -6   7   60.99    3.00
 -10  -6   7   64.89    3.20
 -10  -6   6    2.00    0.70
 -10  -6   6    1.20    1.50
  10   6  -6    1.90    0.60
  10   6  -6    2.20    0.80
 -10  -6   6    2.00    1.10
 -10  -6   6    3.20    1.00
  10   6  -5   12.10    1.30
 -10  -6   5   11.60    1.20
 -10  -6   5   14.60    2.50
  10   6  -5    9.10    0.90
  10   6  -5   11.80    1.30
 -10  -6   5   12.90    1.70
 -10  -6   5   12.80    1.40
 -10  -6   4   21.70    1.50
 -10  -6   4   26.30    3.00
  10   6  -4   23.80    1.50
  10   6  -4   23.70    1.60
  10   6  -4   21.20    1.40
 -10  -6   4   26.70    2.20
 -10  -6   4   24.20    1.70
  10   6  -4   22.90    1.70
 -10  -6   3    0.30    0.70
  10   6  -3    1.30    0.80
 -10  -6   3    1.30    0.80
 -10  -6   3    1.30    1.40
  10   6  -3    1.40    0.70
  10   6  -3    0.20    0.70
  10   6  -3    0.60    0.50
 -10  -6   3    1.20    0.90
 -10  -6   2   11.20    1.20
 -10  -6   2   11.50    1.90
  10   6  -2   10.40    1.00
  10   6  -2    9.10    1.10
  10   6  -2    9.50    0.90
 -10  -6   2   12.90    1.40
 -10  -6   2   11.00    1.50
  10   6  -2   10.10    1.20
 -10  -6   1    1.40    1.00
  10   6  -1   -0.30    0.70
 -10  -6   1   -0.20    0.60
  10   6  -1    0.30    0.60
  10   6  -1   -0.20    0.50
  10   6  -1    0.10    0.60
  10   6  -1    0.30    0.40
  10   6   0   30.80    1.50
  10   6   0   32.60    1.60
 -10  -6   0   31.20    2.10
 -10  -6  -1    0.60    0.80
  10   6   1    0.10    0.50
  10   7  -8    8.40    0.80
 -10  -7   8    8.60    0.90
  10   7  -8    8.70    0.80
 -10  -7   8    8.60    1.10
  10   7  -7   12.10    1.00
 -10  -7   7   11.70    1.00
  10   7  -7   11.20    0.90
 -10  -7   7   12.70    1.30
  10   7  -6    0.40    0.60
 -10  -7   6   -0.50    0.60
  10   7  -6   -0.40    0.50
 -10  -7   6    0.20    0.80
 -10  -7   6    0.10    0.60
 -10  -7   5   24.80    1.60
 -10  -7   5   19.90    1.30
  10   7  -5   21.80    1.30
  10   7  -5   18.40    1.20
 -10  -7   5   23.60    1.70
  10   7  -5   22.30    1.40
  10   7  -4    0.40    0.60
 -10  -7   4   -0.50    0.70
  10   7  -4    0.30    0.60
  10   7  -4   -0.20    0.50
 -10  -7   4    0.10    0.70
 -10  -7   4   -0.10    0.90
  10   7  -3   57.79    1.90
  10   7  -3   61.49    2.20
 -10  -7   2    7.80    0.80
  10   7  -2    7.50    0.90
  10   7  -2    6.40    0.70
 -10  -7   2    4.50    1.00
  10   7  -2    6.80    0.80
  10   7  -1   29.60    1.30
  10   7  -1   31.30    1.30
  11 -10   1    1.10    0.60
  11 -10   2   -0.10    0.50
 -11  10  -2    0.40    0.70
  11  -9  -2    4.10    0.70
 -11   9   2    6.30    1.20
 -11   9   2    5.50    1.10
  11  -9  -1    2.20    0.70
 -11   9   1    1.10    1.10
 -11   9   1    2.40    0.90
 -11   9   1    2.00    0.90
  11  -9  -1    2.20    0.60
  11  -9   0   61.09    2.30
 -11   9   0   67.99    3.30
 -11   9   0   68.39    3.00
 -11   9   0   66.39    3.00
  11  -9   0   58.39    2.10
  11  -9   1   34.80    1.80
 -11   9  -1   42.60    2.60
 -11   9  -1   39.30    2.40
  11  -9   1   33.80    1.70
 -11   9  -1   40.70    2.30
  11  -9   2    9.40    1.00
 -11   9  -2    8.60    1.30
 -11   9  -2    9.70    1.40
  11  -9   2    9.10    1.00
 -11   9  -2    6.00    0.90
 -11   9  -2    7.40    0.90
  11  -9   3    0.60    0.60
 -11   9  -3    0.50    0.70
 -11   9  -3    0.90    0.80
  11  -9   3    1.00    0.70
 -11   9  -3    0.90    0.90
 -11   9  -3    0.60    0.70
  11  -9   4    0.20    0.60
 -11   9  -4   -0.20    0.60
  11  -9   4    0.10    0.60
 -11   9  -4    0.50    0.70
  11  -9   5    1.60    0.60
 -11   9  -5    2.00    0.80
  11  -8  -4   21.30    1.20
 -11   8   4   25.30    1.90
 -11   8   4   25.40    1.80
  11  -8  -3   16.80    1.20
 -11   8   3   20.30    1.80
 -11   8   3   20.10    1.90
 -11   8   3   20.90    1.90
  11  -8  -3   16.20    1.20
  11  -8  -2    0.10    0.60
 -11   8   2   -0.50    1.10
 -11   8   2   -0.50    0.90
 -11   8   2   -0.60    0.80
 -11   8   2   -0.20    1.00
  11  -8  -2   -0.60    0.70
  11  -8  -1   53.29    2.40
 -11   8   1   65.09    3.70
 -11   8   1   59.89    3.10
 -11   8   1   59.79    3.10
 -11   8   1   67.59    3.50
  11  -8  -1   51.69    2.30
  11  -8   0    5.20    1.00
 -11   8   0    8.00    1.70
 -11   8   0    6.80    1.40
 -11   8   0    6.70    1.40
  11  -8   0    5.50    1.00
  11  -8   1    1.00    0.80
 -11   8  -1    1.00    1.20
 -11   8  -1    1.90    1.10
 -11   8  -1    1.70    0.90
  11  -8   1    1.90    0.90
 -11   8  -1    1.30    0.90
 -11   8  -1    1.30    0.70
  11  -8   2    0.40    0.70
 -11   8  -2    0.20    1.10
 -11   8  -2    0.50    1.00
 -11   8  -2   -0.50    0.70
  11  -8   2    0.10    0.80
 -11   8  -2    0.50    1.00
 -11   8  -2    0.10    0.70
  11  -8   3    1.20    0.80
 -11   8  -3    2.60    1.10
 -11   8  -3    2.40    1.00
  11  -8   3    2.00    0.80
 -11   8  -3    2.20    1.10
 -11   8  -3    2.30    0.90
  11  -8   4    9.70    1.10
  11  -8   4    6.20    0.60
 -11   8  -4    8.00    0.90
 -11   8  -4   10.40    1.30
  11  -8   4    9.20    1.10
 -11   8  -4   10.70    1.30
  11  -8   5    5.70    0.60
 -11   8  -5    8.10    0.90
  11  -8   5    7.70    1.00
 -11   8  -5    9.60    1.20
  11  -8   6   10.90    1.00
 -11   8  -6   12.10    1.20
  11  -7  -5   23.30    1.30
 -11   7   5   28.20    2.20
 -11   7   5   27.20    1.90
  11  -7  -5   22.10    1.30
  11  -7  -4    1.50    0.70
 -11   7   4    2.00    1.00
 -11   7   4    1.60    1.20
 -11   7   4    1.30    1.00
  11  -7  -4    1.40    0.70
  11  -7  -3   23.50    1.60
 -11   7   3   26.80    2.40
 -11   7   3   28.80    2.70
 -11   7   3   26.40    2.00
 -11   7   3   29.50    2.50
  11  -7  -3   23.90    1.70
  11  -7  -2    0.20    0.70
 -11   7   2    0.50    1.30
 -11   7   2    1.10    1.10
 -11   7   2    0.80    1.00
 -11   7   2    1.50    1.30
  11  -7  -2    0.50    0.90
  11  -7  -1   72.59    3.00
 -11   7   1   79.89    4.50
 -11   7   1   83.49    4.20
 -11   7   1   77.09    3.90
 -11   7   1   87.39    4.40
  11  -7  -1   73.39    3.10
  11  -7   0   56.49    2.70
 -11   7   0   70.59    4.20
 -11   7   0   68.19    3.60
 -11   7   0   68.89    3.80
 -11   7   0   73.29    3.90
  11  -7   0   58.39    2.80
  11  -7   0   57.29    2.40
  11  -7   1   11.10    1.30
 -11   7  -1   12.30    2.00
 -11   7  -1   14.00    1.90
 -11   7  -1   13.90    1.70
  11  -7   1   12.40    1.50
 -11   7  -1   12.60    1.80
  11  -7   1   11.10    1.20
 -11   7  -1   12.50    1.50
  11  -7   2   33.70    2.10
 -11   7  -2   38.10    3.00
 -11   7  -2   36.50    2.80
  11  -7   2   36.60    2.30
 -11   7  -2   36.20    2.70
  11  -7   2   34.70    1.90
 -11   7  -2   35.20    2.40
  11  -7   3    6.70    1.10
 -11   7  -3    7.50    1.50
  11  -7   3    7.60    0.90
 -11   7  -3    9.20    1.50
  11  -7   3    8.60    1.30
 -11   7  -3    8.30    1.50
  11  -7   3    6.70    1.00
 -11   7  -3    7.90    1.30
  11  -7   4    6.60    1.00
  11  -7   4    5.90    0.80
 -11   7  -4    6.70    1.00
 -11   7  -4    6.50    1.10
  11  -7   4    6.10    1.10
  11  -7   4    5.70    0.90
 -11   7  -4    6.90    1.30
  11  -7   5    6.20    0.80
  11  -7   5    7.20    0.90
 -11   7  -5    9.10    1.10
 -11   7  -5    7.20    0.90
  11  -7   5    7.80    1.10
 -11   7  -5    9.40    1.30
 -11   7  -6   35.70    1.90
  11  -7   6   35.20    1.70
 -11   7  -6   33.70    1.80
 -11   7  -6   36.40    2.00
  11  -6  -6    4.70    0.70
 -11   6   6    5.90    1.40
 -11   6   6    5.10    1.10
  11  -6  -6    3.90    0.70
  11  -6  -5   50.39    2.10
 -11   6   5   53.99    2.80
 -11   6   5   61.69    3.60
 -11   6   5   58.09    3.20
  11  -6  -5   53.09    2.20
  11  -6  -4   23.00    1.60
 -11   6   4   25.00    2.40
 -11   6   4   28.90    2.80
 -11   6   4   21.20    1.70
 -11   6   4   28.00    2.60
  11  -6  -4   25.10    1.80
  11  -6  -3   64.29    2.70
 -11   6   3   67.99    4.00
 -11   6   3   74.99    4.40
 -11   6   3   65.39    3.40
 -11   6   3   73.89    4.20
  11  -6  -3   64.19    2.90
  11  -6  -2    1.10    0.80
 -11   6   2    2.80    1.60
 -11   6   2    2.50    1.40
 -11   6   2    3.10    1.30
 -11   6   2    2.80    1.50
  11  -6  -2    2.10    1.00
  11  -6  -1   19.50    1.70
 -11   6   1   24.20    2.90
 -11   6   1   22.10    2.50
 -11   6   1   21.40    2.40
 -11   6   1   23.30    2.50
  11  -6  -1   20.60    1.90
  11  -6   0   82.99    3.30
 -11   6   0   90.59    5.00
 -11   6   0   96.89    4.60
 -11   6   0   90.49    4.60
 -11   6   0   98.69    4.60
  11  -6   0   84.49    3.60
 -11   6   0   85.19    3.50
  11  -6   1    9.60    1.30
 -11   6  -1   11.00    2.10
 -11   6  -1   11.40    1.90
 -11   6  -1   11.30    1.60
  11  -6   1   10.60    1.50
  11  -6   1   10.10    1.40
 -11   6  -1   10.40    1.50
  11  -6   2    9.80    1.20
 -11   6  -2   11.20    2.00
 -11   6  -2   11.10    1.80
  11  -6   2   10.80    1.50
  11  -6   2    9.70    1.30
 -11   6  -2   10.80    1.60
  11  -6   3    7.20    1.10
 -11   6  -3   11.70    1.80
  11  -6   3    7.20    1.10
 -11   6  -3    9.00    1.20
 -11   6  -3    9.50    1.60
  11  -6   3    8.50    1.30
  11  -6   3    7.90    1.20
 -11   6  -3    8.30    1.50
  11  -6   4   21.40    1.60
 -11   6  -4   21.40    1.80
 -11   6  -4   24.20    1.90
  11  -6   4   20.30    1.70
  11  -6   4   23.00    1.70
 -11   6  -4   23.60    2.10
  11  -6   5   24.20    1.60
 -11   6  -5   26.50    1.90
 -11   6  -5   22.90    1.50
  11  -6   5   22.70    1.60
 -11   6  -5   26.70    2.10
  11  -6   6    2.60    0.70
  11  -6   6    1.90    0.70
 -11   6  -6    2.00    0.80
 -11   6  -6    2.20    0.60
  11  -6   6    1.80    0.60
 -11   6  -6    1.70    0.60
 -11   6  -6    2.10    0.80
  11  -6   7    1.70    0.60
 -11   6  -7    2.70    0.70
  11  -5  -7   44.80    1.70
  11  -5  -7   50.89    1.90
 -11   5   7   50.39    2.40
  11  -5  -6    9.10    1.00
  11  -5  -6   10.30    0.80
 -11   5   6   13.90    2.00
 -11   5   6   11.20    1.60
  11  -5  -6   11.20    1.20
 -11   5   6    9.40    1.30
  11  -5  -5   10.20    1.10
 -11   5   5    9.30    1.60
  11  -5  -5   11.30    1.00
 -11   5   5   11.30    2.10
 -11   5   5   12.20    1.90
  11  -5  -5   11.80    1.30
 -11   5   5   11.70    1.40
  11  -5  -4   31.00    1.90
 -11   5   4   30.70    2.90
  11  -5  -4   28.30    1.60
 -11   5   4   35.80    3.30
 -11   5   4   29.70    2.30
 -11   5   4   34.20    3.00
  11  -5  -4   32.70    2.10
  11  -5  -3    9.50    1.20
 -11   5   3    9.80    2.10
  11  -5  -3    9.60    1.10
 -11   5   3   10.80    2.20
 -11   5   3   10.50    1.80
 -11   5   3   11.20    2.10
  11  -5  -3   10.50    1.50
 -11   5   3   12.50    1.70
  11  -5  -2    1.90    0.80
 -11   5   2    2.20    1.70
  11  -5  -2    2.10    0.70
 -11   5   2    2.00    1.40
 -11   5   2    2.80    1.30
 -11   5   2    2.10    1.50
  11  -5  -2    2.70    1.10
  11  -5  -1   35.90    2.20
 -11   5   1   37.00    3.60
  11  -5  -1   32.20    1.80
 -11   5   1   42.20    3.50
 -11   5   1   40.90    3.30
 -11   5   1   41.40    3.30
  11  -5  -1   35.90    2.40
  11  -5   0    1.40    0.80
 -11   5   0    1.20    1.60
 -11   5   0    1.90    1.20
 -11   5   0    0.70    1.30
 -11   5   0    1.70    1.10
  11  -5   0    1.80    1.00
 -11   5   0    2.60    1.00
  11  -5   1    5.70    1.00
 -11   5  -1    6.70    1.90
 -11   5  -1    7.00    1.70
 -11   5  -1    5.50    1.30
  11  -5   1    6.70    1.30
  11  -5   1    5.50    1.30
 -11   5  -1    6.60    1.30
  11  -5   2   16.50    1.40
 -11   5  -2   22.10    2.60
 -11   5  -2   19.70    1.70
 -11   5  -2   19.80    2.30
  11  -5   2   17.10    1.70
  11  -5   2   19.90    1.90
 -11   5  -2   19.90    2.10
 -11   5  -3   20.80    2.40
 -11   5  -3   21.30    1.90
 -11   5  -3   19.90    2.00
  11  -5   3   19.90    1.70
  11  -5   3   20.70    1.90
 -11   5  -3   20.00    2.10
  11  -5   4   15.70    1.50
 -11   5  -4   16.10    1.70
 -11   5  -4   15.80    1.40
  11  -5   4   14.00    1.40
  11  -5   4   14.20    1.60
 -11   5  -4   15.80    1.90
  11  -5   5   16.50    1.50
 -11   5  -5   18.60    1.70
 -11   5  -5   15.60    1.30
  11  -5   5   15.50    1.30
 -11   5  -5   19.30    1.90
 -11   5  -5   17.50    1.80
  11  -5   6   17.30    1.40
  11  -5   6   14.80    1.20
 -11   5  -6   16.60    1.50
 -11   5  -6   14.20    1.20
 -11   5  -6   17.10    1.50
  11  -5   7    0.00    0.60
  11  -5   7    0.30    0.50
 -11   5  -7   -0.50    0.60
  11  -4  -8    4.40    0.60
 -11   4   8    4.10    1.10
  11  -4  -8    4.30    0.70
 -11   4   8    4.20    0.90
  11  -4  -7    3.00    0.60
  11  -4  -7    3.50    0.70
 -11   4   7    3.30    1.30
  11  -4  -7    3.90    0.80
 -11   4   7    3.50    1.00
  11  -4  -6    5.30    0.90
 -11   4   6    4.80    1.20
  11  -4  -6    5.50    0.90
 -11   4   6    4.90    1.70
 -11   4   6    3.70    1.30
  11  -4  -6    5.10    1.00
  11  -4  -6    5.50    0.90
 -11   4   6    4.50    1.20
  11  -4  -5   -0.20    0.70
 -11   4   5    1.30    1.20
  11  -4  -5    0.80    0.70
 -11   4   5    1.70    1.60
 -11   4   5    0.50    1.30
  11  -4  -5    0.50    0.80
 -11   4   5    1.00    1.00
  11  -4  -4    1.80    0.70
 -11   4   4    2.00    1.40
  11  -4  -4    2.30    0.80
 -11   4   4    2.20    1.80
 -11   4   4    1.60    1.10
 -11   4   4    1.50    1.40
  11  -4  -4    2.00    1.00
  11  -4  -3   13.90    1.30
 -11   4   3   14.80    2.40
  11  -4  -3   14.60    1.40
 -11   4   3   15.80    2.60
 -11   4   3   14.20    2.10
 -11   4   3   16.30    2.40
  11  -4  -3   16.40    1.70
 -11   4   3   15.50    2.00
  11  -4  -2    0.90    0.70
 -11   4   2    1.90    1.70
  11  -4  -2    0.80    0.70
 -11   4   2    1.70    1.60
 -11   4   2    1.70    1.30
 -11   4   2    1.00    1.30
  11  -4  -2    1.30    0.90
  11  -4  -1   12.10    1.30
 -11   4   1   11.40    2.40
  11  -4  -1   12.30    1.40
 -11   4   1   14.40    2.30
 -11   4   1   13.00    2.20
 -11   4   1   14.00    2.10
  11  -4  -1   12.90    1.60
 -11   4   0   24.90    3.10
 -11   4   0   24.90    2.70
 -11   4   0   23.50    2.60
 -11   4   0   24.60    2.40
  11  -4   0   20.10    1.80
 -11   4   0   20.90    2.00
 -11   4  -1    1.10    1.50
 -11   4  -1    1.70    1.30
  11  -4   1    0.50    0.80
  11  -4   1    1.00    1.10
 -11   4  -1    1.50    1.00
 -11   4  -2  139.59    6.20
 -11   4  -2  133.19    4.60
  11  -4   2  121.29    3.90
 -11   4  -2  139.69    5.60
  11  -4   2  122.69    4.10
  11  -4   2  131.99    4.70
 -11   4  -2  135.19    5.20
 -11   4  -3   17.80    2.20
 -11   4  -3   15.70    1.70
  11  -4   3   14.40    1.40
  11  -4   3   13.60    1.40
  11  -4   3   15.80    1.80
 -11   4  -3   14.80    1.90
  11  -4   4   40.40    2.40
 -11   4  -4   42.30    2.60
  11  -4   4   39.50    2.00
 -11   4  -4   38.80    2.10
  11  -4   4   36.00    1.90
 -11   4  -4   45.30    3.10
  11  -4   4   39.50    2.50
 -11   4  -4   41.90    2.80
  11  -4   5    3.60    1.00
 -11   4  -5    3.40    1.00
  11  -4   5    4.20    0.70
 -11   4  -5    3.70    0.80
 -11   4  -5    4.20    1.10
 -11   4  -5    3.50    1.10
  11  -4   6    0.70    0.70
  11  -4   6   -0.10    0.60
 -11   4  -6    1.20    0.80
 -11   4  -6    0.30    0.60
 -11   4  -6    1.20    0.80
  11  -4   7   21.60    1.20
 -11   4  -7   19.90    1.40
  11  -3  -9   82.79    2.00
 -11   3   9   52.69    2.30
  11  -3  -8   19.80    1.00
  11  -3  -8   16.90    0.90
  11  -3  -8   27.90    1.40
 -11   3   8   26.80    2.20
  11  -3  -8   27.80    1.50
  11  -3  -8   23.80    1.40
 -11   3   8   26.80    2.10
  11  -3  -7   57.09    2.00
  11  -3  -7   64.49    2.40
 -11   3   7   70.79    4.10
  11  -3  -7   65.19    2.50
  11  -3  -7   66.19    2.50
 -11   3   7   69.69    3.60
  11  -3  -6   56.49    2.20
 -11   3   6   61.39    3.40
  11  -3  -6   45.00    1.90
  11  -3  -6   58.89    2.50
 -11   3   6   70.19    4.50
  11  -3  -6   54.69    2.00
 -11   3   6   59.39    3.80
  11  -3  -6   62.09    2.70
  11  -3  -6   62.89    2.70
 -11   3   6   62.19    3.50
  11  -3  -5   11.80    1.10
 -11   3   5   11.20    2.00
  11  -3  -5    9.90    1.10
  11  -3  -5   13.30    1.40
 -11   3   5   16.50    2.70
  11  -3  -5   12.20    1.10
 -11   3   5   13.00    2.20
  11  -3  -5   13.00    1.40
  11  -3  -5   13.40    1.50
 -11   3   5   16.00    1.90
 -11   3   4    5.30    1.80
  11  -3  -4    2.50    0.80
  11  -3  -4    5.00    1.10
 -11   3   4    6.20    2.10
  11  -3  -4    5.00    0.90
 -11   3   4    5.60    1.80
  11  -3  -4    5.40    1.10
 -11   3   4    6.00    1.40
 -11   3   3    3.60    1.80
  11  -3  -3    5.10    1.10
 -11   3   3    5.10    1.90
  11  -3  -3    4.40    0.90
 -11   3   3    5.00    1.60
 -11   3   3    3.30    1.60
  11  -3  -3    4.60    1.10
 -11   3   3    4.40    1.20
 -11   3   3    4.40    1.50
 -11   3   2   37.10    3.70
  11  -3  -2   25.60    2.00
 -11   3   2   34.20    3.40
  11  -3  -2   26.20    1.70
 -11   3   2   29.20    2.90
 -11   3   2   31.20    3.00
  11  -3  -2   28.20    2.00
 -11   3   2   33.70    3.20
 -11   3   1    0.50    1.70
  11  -3  -1    1.50    0.90
 -11   3   1    2.60    1.50
  11  -3  -1    0.80    0.70
 -11   3   1    1.80    1.40
 -11   3   1    1.50    1.20
  11  -3  -1    1.30    0.80
 -11   3   1    2.00    1.00
 -11   3   0   35.50    3.60
 -11   3   0   30.40    2.90
 -11   3   0   33.50    3.10
 -11   3   0   32.00    2.60
  11  -3   0   30.30    2.10
 -11   3   0   34.10    2.60
 -11   3  -1    5.40    1.90
 -11   3  -1    3.70    1.00
 -11   3  -1    5.20    1.60
  11  -3   1    3.30    0.90
  11  -3   1    4.00    1.00
  11  -3   1    4.00    1.40
 -11   3  -1    2.70    1.10
 -11   3  -2    5.60    1.80
 -11   3  -2    8.20    1.30
  11  -3   2    8.00    1.30
  11  -3   2    6.70    1.00
  11  -3   2    8.20    1.10
  11  -3   2    8.20    1.60
 -11   3  -2    8.10    1.50
 -11   3  -3    1.70    1.20
 -11   3  -3    0.80    0.80
  11  -3   3    0.60    0.80
  11  -3   3    0.40    0.70
 -11   3  -3   -0.20    1.30
  11  -3   3    1.00    1.10
 -11   3  -3    0.70    1.00
  11  -3   4    0.60    0.90
 -11   3  -4    0.60    0.80
  11  -3   4    0.10    0.70
 -11   3  -4   -0.20    0.70
  11  -3   4   -0.40    0.60
 -11   3  -4   -0.10    0.90
  11  -3   4   -0.10    1.00
 -11   3  -4    0.30    1.00
  11  -3   5    0.40    0.80
 -11   3  -5    1.10    0.80
  11  -3   5    1.60    0.70
 -11   3  -5    0.90    0.70
 -11   3  -5    0.70    0.70
 -11   3  -5    0.50    0.80
  11  -3   6   35.10    1.80
 -11   3  -6   34.70    2.00
  11  -3   6   30.80    1.40
 -11   3  -6   31.20    1.60
 -11   3  -6   35.80    1.70
  11  -2  -9   14.30    1.00
  11  -2  -9   13.70    0.90
  11  -2  -9   12.40    1.00
 -11   2   9   12.30    1.40
  11  -2  -8    4.40    0.60
  11  -2  -8    6.10    0.90
 -11   2   8    6.80    1.50
  11  -2  -8    5.70    0.70
  11  -2  -8    7.00    0.90
  11  -2  -8    5.90    0.90
  11  -2  -7   15.40    1.20
  11  -2  -7   20.70    1.60
 -11   2   7   20.10    2.50
  11  -2  -7   20.10    1.30
  11  -2  -7   19.40    1.40
  11  -2  -7   21.00    1.50
 -11   2   7   16.10    1.60
 -11   2   6    9.90    1.70
  11  -2  -6    9.00    1.00
  11  -2  -6   11.50    1.40
 -11   2   6   13.00    2.40
  11  -2  -6   11.40    1.10
  11  -2  -6   11.80    1.30
  11  -2  -6   11.80    1.40
 -11   2   5   42.00    3.40
  11  -2  -5   36.40    2.30
 -11   2   5   43.30    4.00
  11  -2  -5   35.90    2.00
 -11   2   5   44.10    3.60
  11  -2  -5   39.00    2.20
  11  -2  -5   40.70    2.40
 -11   2   4    0.90    1.50
  11  -2  -4    0.00    0.90
  11  -2  -4    0.30    0.90
 -11   2   4    1.30    1.80
  11  -2  -4    0.90    0.80
 -11   2   4   -0.40    1.50
  11  -2  -4    0.50    0.70
 -11   2   4    0.90    1.00
 -11   2   4    1.80    1.20
 -11   2   3  162.48    7.20
  11  -2  -3  139.19    4.60
 -11   2   3  162.28    7.40
  11  -2  -3  132.79    4.20
 -11   2   3  157.48    6.60
  11  -2  -3  138.79    4.30
 -11   2   3  155.08    5.50
 -11   2   3  149.29    6.30
 -11   2   2   13.00    2.50
  11  -2  -2   13.60    1.60
 -11   2   2   13.30    2.40
  11  -2  -2   12.50    1.40
 -11   2   2   12.20    2.00
  11  -2  -2   11.90    1.30
 -11   2   2   12.80    2.20
 -11   2   1    1.70    1.80
  11  -2  -1   -0.20    1.00
 -11   2   1    0.50    1.30
  11  -2  -1   -0.40    0.80
  11  -2  -1   -0.30    0.70
 -11   2   1    0.80    1.50
 -11   2   1    1.20    0.90
 -11   2   0    4.40    2.00
  11  -2   0    4.10    1.00
 -11   2   0    4.60    1.80
 -11   2   0    4.60    1.20
 -11   2  -1    2.30    1.70
 -11   2  -1    2.30    0.90
  11  -2   1    3.10    1.10
  11  -2   1    3.00    1.00
 -11   2  -1    1.70    1.60
  11  -2   1    2.00    1.10
 -11   2  -1    2.10    1.10
 -11   2  -2   10.80    2.10
 -11   2  -2   11.50    1.60
  11  -2   2   10.80    1.50
  11  -2   2    8.10    1.00
  11  -2   2   10.10    1.30
 -11   2  -2   12.30    2.10
  11  -2   2   10.80    1.60
 -11   2  -2    9.50    1.60
 -11   2  -3    3.80    1.30
 -11   2  -3    4.30    1.10
  11  -2   3    5.30    1.10
  11  -2   3    4.20    1.00
 -11   2  -3    4.90    1.40
  11  -2   3    3.60    1.20
 -11   2  -3    2.90    1.20
  11  -2   4    3.80    1.10
 -11   2  -4    2.80    1.10
  11  -2   4    3.90    1.00
 -11   2  -4    3.50    0.80
  11  -2   4    3.20    0.90
 -11   2  -4    3.20    1.00
  11  -2   4    3.40    1.00
 -11   2  -4    2.90    1.10
  11  -2   5    1.00    0.80
 -11   2  -5    1.40    0.80
  11  -2   5    2.30    0.80
 -11   2  -5    0.80    0.60
 -11   2  -5    1.70    0.60
  11  -2   6    0.50    0.60
 -11   2  -6    0.10    0.70
  11  -2   6    0.70    0.60
  11  -1 -10   47.90    1.50
  11  -1 -10   43.60    1.40
  11  -1  -9    2.90    0.60
  11  -1  -9    4.50    0.80
  11  -1  -9    4.20    0.60
  11  -1  -9    4.00    0.60
  11  -1  -9    3.40    0.70
 -11   1   9    4.00    1.10
  11  -1  -8   31.00    1.50
  11  -1  -8   39.40    1.90
 -11   1   8   37.60    2.90
  11  -1  -8   35.40    1.60
  11  -1  -8   36.40    1.90
 -11   1   8   37.80    2.60
 -11   1   8   32.70    2.00
  11  -1  -7   40.20    1.90
  11  -1  -7   47.70    2.30
 -11   1   7   51.89    3.80
  11  -1  -7   47.40    2.10
  11  -1  -7   48.30    2.30
 -11   1   6    2.10    1.30
  11  -1  -6    1.20    0.80
  11  -1  -6    1.70    1.00
 -11   1   6    2.80    1.80
  11  -1  -6    1.40    0.80
  11  -1  -6    0.60    0.60
  11  -1  -6    0.40    0.90
 -11   1   6    1.10    1.20
 -11   1   5  141.39    6.30
  11  -1  -5  138.39    4.50
 -11   1   5  149.19    7.00
  11  -1  -5  133.59    4.10
  11  -1  -5  135.89    3.90
 -11   1   5  145.79    5.60
 -11   1   5  134.59    5.20
 -11   1   4    2.30    1.60
  11  -1  -4    0.40    0.80
  11  -1  -4    2.40    1.10
 -11   1   4    3.40    1.90
  11  -1  -4    3.60    1.00
 -11   1   4    2.50    1.20
 -11   1   4    2.20    1.20
 -11   1   3  223.98    8.60
  11  -1  -3  222.68    6.00
 -11   1   3  242.18    9.00
  11  -1  -3  210.58    5.60
  11  -1  -3  205.48    4.90
 -11   1   3  236.68    6.90
 -11   1   3  232.08    8.10
 -11   1   2   14.80    2.70
  11  -1  -2   10.20    1.50
 -11   1   2   14.70    2.50
  11  -1  -2    9.80    1.40
  11  -1  -2    9.70    1.20
 -11   1   2   13.30    1.60
 -11   1   2   14.00    2.40
 -11   1   1    5.00    2.10
  11  -1  -1    3.80    1.10
  11  -1  -1    3.70    0.90
 -11   1   1    4.50    1.80
 -11   1   1    5.00    1.20
 -11   1   0    8.90    2.30
  11  -1   0    7.60    1.30
  11  -1   0    8.60    1.20
 -11   1   0    9.60    2.20
 -11   1   0    9.20    1.50
 -11   1  -1   26.20    3.00
 -11   1  -1   26.40    2.20
  11  -1   1   28.50    2.20
  11  -1   1   23.40    1.70
  11  -1   1   29.30    2.10
 -11   1  -1   32.00    3.10
  11  -1   1   29.70    2.20
 -11   1  -1   25.40    2.30
 -11   1  -2   10.50    2.00
 -11   1  -2   10.80    1.50
  11  -1   2   11.50    1.60
  11  -1   2    9.30    1.20
  11  -1   2   11.90    1.50
 -11   1  -2   11.70    1.90
  11  -1   2   11.50    1.50
 -11   1  -2   10.00    1.70
 -11   1  -3   13.50    1.90
  11  -1   3   13.70    1.50
 -11   1  -3   14.60    1.70
  11  -1   3   15.10    1.60
  11  -1   3   14.90    1.50
 -11   1  -3   15.30    1.90
  11  -1   3   14.60    1.50
  11  -1   4   13.40    1.30
 -11   1  -4   12.60    1.50
  11  -1   4   12.30    1.30
  11  -1   4   12.00    1.30
 -11   1  -4   10.30    1.30
  11  -1   5    1.70    0.70
 -11   1  -5    2.30    0.80
  11  -1   5    2.40    0.80
 -11   1  -6    1.80    0.70
  11   0 -10   30.00    1.30
  11   0 -10   28.00    1.10
  11   0 -10   26.40    1.10
 -11   0  10   27.50    1.70
  11   0  -9   17.00    1.00
  11   0  -9   18.90    1.30
  11   0  -9   19.40    1.20
 -11   0   9   20.50    1.80
  11   0  -8    3.10    0.70
 -11   0   8    3.50    0.70
  11   0  -8    3.60    0.90
  11   0  -8    2.60    0.80
 -11   0   8    3.10    1.30
 -11   0   8    3.10    1.00
  11   0  -7   39.20    1.90
  11   0  -7   44.20    2.30
 -11   0   7   47.10    3.70
  11   0  -7   43.40    1.80
  11   0  -7   43.50    2.20
 -11   0   7   46.70    3.10
 -11   0   7   47.50    3.10
 -11   0   6   31.70    2.90
  11   0  -6   26.80    1.70
  11   0  -6   30.10    2.10
 -11   0   6   31.10    3.30
  11   0  -6   29.90    2.00
  11   0  -6   28.70    1.60
  11   0  -6   29.30    1.90
 -11   0   6   35.40    2.80
 -11   0   5   49.30    3.80
  11   0  -5   46.10    2.30
  11   0  -5   52.79    2.80
 -11   0   5   55.19    4.40
  11   0  -5   51.29    2.60
  11   0  -5   48.20    2.20
 -11   0   5   50.99    3.40
 -11   0   5   50.39    3.30
 -11   0   4   13.10    2.40
  11   0  -4   10.10    1.30
  11   0  -4   15.40    1.70
 -11   0   4   14.50    2.60
  11   0  -4   15.20    1.60
  11   0  -4   13.20    1.30
 -11   0   4   15.00    2.00
 -11   0   4   16.30    2.30
 -11   0   3   24.20    3.20
  11   0  -3   21.80    2.00
 -11   0   3   18.50    2.80
  11   0  -3   17.70    1.80
  11   0  -3   19.20    1.60
 -11   0   3   20.50    2.10
 -11   0   3   20.50    2.70
 -11   0   2    3.80    2.10
  11   0  -2    2.50    1.10
  11   0  -2    1.60    1.00
  11   0  -2    2.60    0.90
 -11   0   2    3.60    1.10
 -11   0   2    4.40    1.80
 -11   0   1    3.50    2.00
  11   0  -1    3.00    1.10
  11   0  -1    2.70    0.90
 -11   0   1    2.80    1.60
 -11   0   0    4.70    1.90
 -11   0   0    4.70    1.10
  11   0   0    4.20    1.00
 -11   0   0    4.30    1.70
  11   0   0    4.80    1.10
 -11   0  -1    9.30    2.10
 -11   0  -1    7.60    1.30
  11   0   1    8.90    1.50
  11   0   1    7.40    1.20
  11   0   1    8.80    1.40
 -11   0  -1    8.30    1.80
  11   0   1    8.40    1.30
 -11   0  -2    0.30    1.20
 -11   0  -2   -0.20    0.80
  11   0   2    0.70    0.90
  11   0   2    0.80    0.80
  11   0   2    0.60    1.00
 -11   0  -2    0.20    1.00
  11   0   2    0.10    0.80
 -11   0  -3    0.20    0.90
  11   0   3    0.60    0.70
 -11   0  -3    0.80    0.80
  11   0   3    1.00    0.90
  11   0   3    0.60    0.80
 -11   0  -3    0.20    0.80
 -11   0  -4    9.90    1.60
  11   0   4    7.70    0.90
 -11   0  -4    7.90    1.20
  11   0   4    7.90    1.10
 -11   0  -5    6.50    1.20
 -11   0  -5    4.20    0.90
  11   0   5    6.30    0.90
  11   1 -10   30.90    1.30
  11   1 -10   32.90    1.30
 -11  -1  10   33.00    1.80
  11   1  -9    6.30    0.70
 -11  -1   9    6.80    0.80
  11   1  -9    6.80    0.80
  11   1  -9    7.20    0.90
  11   1  -9    6.40    0.60
 -11  -1   9    7.80    1.30
 -11  -1   9    6.60    1.00
  11   1  -8   15.00    1.10
 -11  -1   8   20.10    1.40
  11   1  -8   17.70    1.40
  11   1  -8   18.70    1.40
  11   1  -8   16.80    1.20
 -11  -1   8   20.70    2.00
 -11  -1   8   19.80    1.90
  11   1  -7    1.90    0.80
 -11  -1   7    2.00    1.20
 -11  -1   7    1.40    0.60
  11   1  -7    1.20    0.80
  11   1  -7    1.60    0.90
  11   1  -7    1.90    0.70
 -11  -1   7    1.00    1.20
 -11  -1   7    1.10    1.10
 -11  -1   6    7.90    1.80
 -11  -1   6    8.30    1.10
  11   1  -6    7.20    1.00
  11   1  -6    7.90    1.30
  11   1  -6    8.10    1.30
  11   1  -6    8.70    1.10
 -11  -1   6    8.30    1.70
 -11  -1   5    0.90    1.40
  11   1  -5    0.90    0.80
  11   1  -5    2.10    1.00
  11   1  -5    2.70    1.10
  11   1  -5    2.90    0.90
 -11  -1   5    1.40    1.20
 -11  -1   5    1.90    1.20
 -11  -1   4    0.10    1.50
  11   1  -4   -0.40    0.80
  11   1  -4    0.70    1.00
  11   1  -4    1.30    1.00
  11   1  -4    0.60    0.70
 -11  -1   4    0.70    1.10
 -11  -1   4   -0.20    1.30
 -11  -1   3   80.69    5.20
  11   1  -3   75.99    3.40
  11   1  -3   77.89    3.40
  11   1  -3   76.89    3.10
 -11  -1   3   84.19    4.00
 -11  -1   3   79.09    4.70
  11   1  -2    0.00    0.60
 -11  -1   2    0.20    1.00
 -11  -1   2    0.10    1.80
  11   1  -2   -0.90    1.10
  11   1  -2   -0.70    0.90
 -11  -1   2   -0.20    0.80
 -11  -1   2    0.20    1.40
 -11  -1   1   20.50    3.00
  11   1  -1   20.20    1.90
  11   1  -1   20.50    1.70
 -11  -1   1   23.60    2.80
  11   1  -1   22.20    1.70
  11   1  -1   19.30    1.40
 -11  -1   0   13.40    2.50
 -11  -1   0   12.80    1.50
  11   1   0   13.50    1.60
  11   1   0   11.20    1.40
  11   1   0   14.50    1.70
 -11  -1   0   14.30    2.20
  11   1   0   13.50    1.40
 -11  -1  -1   30.30    3.00
 -11  -1  -1   31.70    2.30
  11   1   1   35.70    2.30
  11   1   1   32.00    2.00
  11   1   1   36.70    2.40
 -11  -1  -1   33.20    2.80
  11   1   1   31.10    1.90
 -11  -1  -2   22.90    2.40
 -11  -1  -2   19.00    2.20
  11   1   2   17.00    1.40
 -11  -1  -2   17.30    1.90
 -11  -1  -2   15.20    1.60
  11   1   2   17.90    1.70
  11   1   2   16.70    1.50
  11   1   2   19.00    1.70
 -11  -1  -3    1.00    1.10
  11   1   3    0.10    0.50
 -11  -1  -3    1.60    0.80
  11   1   3    1.10    0.80
  11   1   3    1.90    0.80
 -11  -1  -4   -0.70    0.90
  11   1   4   -0.20    0.70
  11   2 -10  109.69    2.50
 -11  -2  10  116.29    3.20
  11   2  -9   12.30    0.90
 -11  -2   9   15.70    1.20
  11   2  -9   13.50    1.00
  11   2  -9   14.90    1.10
  11   2  -9   15.50    1.00
 -11  -2   9   16.70    1.60
 -11  -2   9   15.40    1.40
  11   2  -8    0.90    0.60
 -11  -2   8    1.40    0.70
  11   2  -8    1.50    0.60
  11   2  -8    2.30    0.80
  11   2  -8    3.00    0.70
 -11  -2   8    3.00    1.20
 -11  -2   8    2.00    1.10
  11   2  -7   40.90    1.90
 -11  -2   7   51.69    2.40
 -11  -2   7   58.99    3.80
  11   2  -7   46.90    2.20
  11   2  -7   51.29    2.40
  11   2  -7   47.50    2.10
 -11  -2   7   56.69    3.20
 -11  -2   7   56.29    3.40
 -11  -2   6   30.00    2.80
  11   2  -6   22.20    1.50
 -11  -2   6   31.90    2.00
 -11  -2   6   35.70    3.40
  11   2  -6   30.50    1.90
  11   2  -6   31.90    2.00
  11   2  -6   32.80    1.90
 -11  -2   6   32.00    2.60
 -11  -2   6   33.40    2.80
 -11  -2   5   23.50    2.70
  11   2  -5   17.90    1.40
  11   2  -5   21.10    1.70
  11   2  -5   22.70    1.80
  11   2  -5   21.80    1.70
 -11  -2   5   24.10    2.30
 -11  -2   4   48.40    3.90
  11   2  -4   44.60    2.50
  11   2  -4   47.50    2.60
  11   2  -4   47.20    2.40
 -11  -2   4   53.39    3.20
 -11  -2   3   19.20    2.90
  11   2  -3   18.70    1.80
  11   2  -3   20.80    1.70
 -11  -2   3   22.60    2.10
 -11  -2   3   20.20    2.50
 -11  -2   2   13.60    1.80
 -11  -2   2   15.60    2.70
  11   2  -2   10.80    1.50
  11   2  -2   10.70    1.40
 -11  -2   2   11.00    1.40
 -11  -2   2   12.70    2.20
  11   2  -2   11.60    1.20
 -11  -2   1   19.00    2.20
 -11  -2   1   13.70    2.60
  11   2  -1   15.10    1.60
  11   2  -1   14.20    1.50
 -11  -2   1   15.90    1.50
 -11  -2   1   16.50    2.30
  11   2  -1   14.60    1.30
 -11  -2   0   14.00    1.90
 -11  -2   0   12.70    2.30
 -11  -2   0   15.10    2.30
  11   2   0   12.30    1.50
  11   2   0   11.90    1.40
  11   2   0   12.90    1.50
  11   2   0   11.70    1.10
  11   2   1    3.80    0.70
 -11  -2  -1    5.00    1.40
 -11  -2  -1    4.10    1.50
  11   2   1    3.00    0.70
 -11  -2  -1    5.00    1.40
  11   2   1    4.10    1.10
  11   2   1    3.10    0.90
  11   2   1    4.30    1.10
 -11  -2  -2   16.30    1.90
  11   2   2   11.90    1.20
  11   2   2   12.60    1.30
 -11  -2  -3   12.90    1.50
  11   2   3   10.10    1.00
  11   3 -10    7.30    0.70
  11   3  -9   16.50    0.90
 -11  -3   9   25.30    1.40
  11   3  -9   20.20    1.00
  11   3  -9   23.60    1.30
  11   3  -9   24.40    1.20
 -11  -3   9   25.60    1.80
 -11  -3   9   28.40    1.90
 -11  -3   8    5.00    0.90
  11   3  -8    3.50    0.60
  11   3  -8    3.90    0.70
  11   3  -8    4.20    0.80
  11   3  -8    5.00    0.80
 -11  -3   8    5.60    1.20
 -11  -3   8    4.90    1.20
  11   3  -7   18.20    1.20
 -11  -3   7   27.80    2.60
  11   3  -7   21.30    1.40
  11   3  -7   22.70    1.50
  11   3  -7   24.20    1.50
 -11  -3   7   24.70    2.10
 -11  -3   7   27.80    2.30
 -11  -3   6   52.89    3.40
 -11  -3   6   64.49    4.30
  11   3  -6   50.99    2.20
  11   3  -6   58.69    2.50
  11   3  -6   59.99    2.50
 -11  -3   6   63.59    3.40
 -11  -3   6   63.79    3.60
 -11  -3   5   16.50    2.30
 -11  -3   5   19.40    2.80
  11   3  -5   16.70    1.50
  11   3  -5   18.20    1.50
 -11  -3   5   19.00    2.00
 -11  -3   5   20.00    2.20
 -11  -3   4    0.20    1.40
 -11  -3   4    1.40    1.80
  11   3  -4    0.30    0.80
  11   3  -4    0.80    0.80
 -11  -3   4    1.20    1.00
 -11  -3   4    0.60    1.00
  11   3  -3    7.60    1.10
 -11  -3   3    6.60    2.00
 -11  -3   3    6.70    2.10
  11   3  -3    5.60    1.10
  11   3  -3    6.90    1.20
 -11  -3   3    7.30    1.30
 -11  -3   3    5.60    1.20
 -11  -3   2   43.60    2.70
 -11  -3   2   45.60    3.80
 -11  -3   2   48.60    3.90
  11   3  -2   41.70    2.20
  11   3  -2   39.30    2.20
 -11  -3   2   45.50    2.50
 -11  -3   2   39.30    2.40
  11   3  -2   39.90    2.00
 -11  -3   1    9.30    1.50
 -11  -3   1    8.80    2.10
 -11  -3   1    9.30    2.00
  11   3  -1    6.90    1.10
  11   3  -1    8.00    1.20
  11   3  -1    9.00    1.30
 -11  -3   1    9.40    1.10
  11   3  -1    8.60    1.00
 -11  -3   0   21.40    2.10
 -11  -3   0   17.60    2.40
 -11  -3   0   19.90    2.20
  11   3   0   18.70    1.50
  11   3   0   18.50    1.50
  11   3   0   20.30    1.60
  11   3   0   16.60    1.30
 -11  -3  -1   12.30    1.60
  11   3   1   10.50    1.10
  11   3   1    9.90    1.10
  11   3   1   11.30    1.20
  11   3   1   10.10    0.90
 -11  -3  -2    0.20    0.90
  11   3   2    0.40    0.50
  11   4  -9   15.90    1.00
  11   4  -9   16.80    1.00
 -11  -4   9   18.40    1.40
  11   4  -8   13.70    1.00
  11   4  -8   12.60    1.00
 -11  -4   8   15.90    1.50
 -11  -4   8   16.20    1.60
 -11  -4   7    3.10    1.30
  11   4  -7    2.90    0.70
  11   4  -7    4.10    0.80
 -11  -4   7    3.10    1.10
 -11  -4   7    3.90    1.10
 -11  -4   6    7.70    1.50
 -11  -4   6   10.20    2.00
  11   4  -6    8.20    1.00
  11   4  -6    8.70    1.10
 -11  -4   6   10.50    1.50
 -11  -4   6   10.90    1.50
 -11  -4   5    6.30    1.70
 -11  -4   5    9.80    2.10
  11   4  -5    6.70    1.00
  11   4  -5    7.50    1.10
 -11  -4   5    9.20    1.40
 -11  -4   5    8.00    1.30
  11   4  -4   28.10    1.70
 -11  -4   4   29.90    2.80
 -11  -4   4   35.30    3.30
  11   4  -4   26.70    1.50
  11   4  -4   25.60    1.60
  11   4  -4   28.60    1.80
 -11  -4   4   34.40    2.30
 -11  -4   4   32.50    2.20
  11   4  -3    0.40    0.70
 -11  -4   3    0.30    0.50
 -11  -4   3    0.30    1.40
 -11  -4   3    0.50    1.40
  11   4  -3   -0.20    0.50
  11   4  -3   -0.30    0.80
 -11  -4   3    0.40    0.80
 -11  -4   3   -0.40    0.60
 -11  -4   2   27.40    1.50
 -11  -4   2   28.70    2.90
 -11  -4   2   35.70    3.00
  11   4  -2   29.10    1.60
  11   4  -2   31.40    1.80
  11   4  -2   32.20    1.80
 -11  -4   2   33.40    2.00
  11   4  -2   32.00    1.70
 -11  -4   2   30.90    2.10
 -11  -4   1    9.10    1.60
  11   4  -1    6.90    0.80
  11   4  -1    7.40    1.00
  11   4  -1    9.10    1.00
  11   4  -1    8.20    0.90
 -11  -4   1    8.20    1.30
  11   4   0   -0.10    0.50
 -11  -4   0    0.50    0.80
 -11  -4   0    0.10    0.70
  11   4   0    0.30    0.40
  11   4   0   -0.20    0.50
  11   4   0    0.10    0.60
  11   4   0   -0.70    0.60
 -11  -4  -1    2.40    1.00
  11   5  -8    1.50    0.60
 -11  -5   8    0.80    0.70
 -11  -5   7    0.50    1.00
  11   5  -7    0.20    0.40
  11   5  -7    1.30    0.60
 -11  -5   7    0.90    0.80
 -11  -5   7    1.30    0.80
  11   5  -6    1.20    0.60
 -11  -5   6    0.00    1.20
  11   5  -6   -0.10    0.50
  11   5  -6    2.10    0.50
  11   5  -6    0.60    0.60
 -11  -5   6    0.10    0.80
 -11  -5   6    0.70    0.70
 -11  -5   5    7.40    1.70
  11   5  -5    4.50    0.60
  11   5  -5    6.10    0.90
 -11  -5   5    6.80    1.10
 -11  -5   5    5.90    1.00
  11   5  -5    6.20    0.90
  11   5  -4    2.30    0.70
 -11  -5   4    2.60    0.70
 -11  -5   4    1.50    1.30
  11   5  -4    1.90    0.50
  11   5  -4    1.40    0.70
  11   5  -4    1.70    0.60
 -11  -5   4    1.90    0.80
 -11  -5   4    1.20    0.60
  11   5  -3    1.80    0.70
 -11  -5   3    2.70    0.60
 -11  -5   3    2.50    1.30
  11   5  -3    1.50    0.40
  11   5  -3    1.50    0.60
  11   5  -3    2.20    0.60
 -11  -5   3    2.60    0.80
 -11  -5   2    5.60    1.30
  11   5  -2    4.80    0.80
  11   5  -2    5.60    0.70
  11   5  -2    5.20    0.80
  11   5  -1    6.50    0.70
  11   5  -1    6.80    0.80
  11   5  -1    7.20    0.80
  11   6  -7    0.20    0.40
 -11  -6   7   -0.10    0.60
  11   6  -6    2.10    0.60
  11   6  -6    1.90    0.50
 -11  -6   6    1.90    0.70
  11   6  -5    8.90    0.80
 -11  -6   5   10.60    1.10
  11   6  -5    8.30    0.80
  11   6  -4   35.10    1.40
 -11  -6   4   40.30    1.80
  11   6  -4   37.90    1.50
  11   6  -3    1.30    0.50
  11   6  -3    1.30    0.50
 -11  -6   3    1.00    0.80
 -12   8   0    1.00    0.90
 -12   8   0    0.40    0.70
  12  -8   0   -0.10    0.50
 -12   8  -1    0.70    0.80
  12  -8   1    0.00    0.50
  12  -8   2    6.70    0.80
 -12   7   3   26.40    1.70
  12  -7  -3   22.30    1.20
  12  -7  -2    8.90    0.70
 -12   7   2   13.10    1.60
 -12   7   2   14.40    1.40
  12  -7  -2   12.70    1.00
  12  -7  -1   17.00    1.00
 -12   7   1   19.30    1.90
 -12   7   1   19.50    1.70
 -12   7   1   21.10    1.60
  12  -7  -1   19.50    1.30
  12  -7   0   20.70    1.20
 -12   7   0   34.20    2.40
 -12   7   0   29.80    2.10
 -12   7   0   25.50    1.60
  12  -7   0   24.20    1.40
 -12   7   0   28.90    2.00
  12  -7   1    1.00    0.40
 -12   7  -1    2.20    1.00
 -12   7  -1    1.40    0.90
  12  -7   1    1.30    0.60
 -12   7  -2   25.00    1.80
 -12   7  -2   26.90    1.80
  12  -7   2   24.30    1.40
  12  -7   3   -0.20    0.50
 -12   7  -3   -0.20    0.90
 -12   6   4    1.60    1.00
  12  -6  -4    1.90    0.60
  12  -6  -3   56.39    1.80
 -12   6   3   77.59    3.40
 -12   6   3   80.59    3.50
 -12   6   3   78.49    3.40
  12  -6  -3   64.49    2.20
  12  -6  -2    5.80    0.70
 -12   6   2   10.20    1.70
 -12   6   2    8.80    1.40
 -12   6   2    9.30    1.40
  12  -6  -2    7.80    1.00
 -12   6   2    5.90    1.00
  12  -6  -2    6.80    0.80
  12  -6  -1   -0.10    0.50
 -12   6   1    0.60    1.10
 -12   6   1    1.20    0.80
 -12   6   1    1.10    1.00
 -12   6   1    0.00    0.80
  12  -6  -1    0.30    0.60
 -12   6   1    1.60    0.90
  12  -6  -1    0.80    0.60
  12  -6   0    0.90    0.40
 -12   6   0    3.20    1.40
 -12   6   0    1.60    1.00
 -12   6   0    1.60    0.80
  12  -6   0    1.40    0.70
 -12   6   0    1.80    1.00
  12  -6   0    2.00    0.70
 -12   6  -1    8.40    1.60
  12  -6   1    5.70    0.70
 -12   6  -1    9.20    1.40
  12  -6   1    6.50    0.90
  12  -6   1    7.30    0.90
 -12   6  -1    6.40    0.90
 -12   6  -2   10.20    1.50
  12  -6   2    9.00    0.90
  12  -6   2    8.40    0.90
 -12   6  -2   12.20    1.70
  12  -6   2    9.30    1.00
 -12   6  -2    9.30    1.10
  12  -6   3    0.10    0.50
  12  -6   3    0.70    0.50
 -12   6  -3    0.90    0.90
  12  -6   3    0.70    0.60
 -12   6  -3    1.20    0.70
  12  -6   4    0.30    0.50
 -12   6  -4   -0.20    0.70
 -12   6  -4   -0.50    0.70
 -12   5   5   10.30    1.50
  12  -5  -5    8.00    0.80
 -12   5   4   14.30    1.70
 -12   5   4   14.70    1.80
  12  -5  -4   11.80    1.00
  12  -5  -3    6.10    0.70
 -12   5   3    8.90    1.60
 -12   5   3    8.20    1.60
 -12   5   3    9.20    1.50
  12  -5  -3    8.20    1.00
 -12   5   2   18.20    2.20
 -12   5   2   23.10    2.20
 -12   5   2   19.90    2.00
  12  -5  -2   16.90    1.30
 -12   5   2   18.50    1.80
 -12   5   1    3.50    1.50
 -12   5   1    4.40    1.20
 -12   5   1    2.80    1.10
 -12   5   1    3.60    1.10
  12  -5  -1    3.60    0.80
 -12   5   1    4.50    1.30
  12  -5  -1    3.70    0.90
 -12   5   0    7.60    1.70
 -12   5   0    8.00    1.50
  12  -5   0    5.90    0.90
 -12   5   0    7.80    1.60
  12  -5   0    7.00    1.10
 -12   5  -1   48.60    3.20
  12  -5   1   45.10    2.00
  12  -5   1   47.90    2.30
 -12   5  -1   43.90    2.20
 -12   5  -2    1.30    1.00
  12  -5   2    1.80    0.70
  12  -5   2    1.90    0.60
 -12   5  -2    2.90    1.20
  12  -5   2    1.50    0.80
 -12   5  -2    1.90    0.80
 -12   5  -3    2.30    0.80
  12  -5   3    2.90    0.70
  12  -5   3    1.30    0.40
 -12   5  -3    2.60    1.00
  12  -5   3    1.90    0.80
 -12   5  -3    2.60    0.80
  12  -5   4    3.20    0.70
 -12   5  -4    4.00    0.90
 -12   5  -4    3.40    0.80
 -12   4   6    2.30    1.20
  12  -4  -6    2.00    0.50
 -12   4   5   30.40    2.10
  12  -4  -5   28.40    1.30
  12  -4  -5   30.70    1.50
 -12   4   4    6.30    1.40
  12  -4  -4    3.90    0.70
 -12   4   4    5.10    1.50
  12  -4  -4    4.50    0.80
 -12   4   3    5.50    1.60
 -12   4   3    5.50    1.50
  12  -4  -3    6.10    0.90
 -12   4   3    5.20    1.10
 -12   4   2    2.50    1.50
 -12   4   2    1.90    1.20
  12  -4  -2    1.40    0.70
 -12   4   2    1.20    1.00
 -12   4   1   21.50    2.50
 -12   4   1   20.00    2.10
  12  -4  -1   18.20    1.40
 -12   4   1   21.10    2.20
 -12   4   0   19.50    2.40
  12  -4   0   12.40    1.10
  12  -4   0   12.00    1.10
 -12   4   0   17.00    2.10
  12  -4   0   14.60    1.50
 -12   4   0   12.80    1.20
 -12   4  -1   18.10    2.20
  12  -4   1   17.30    1.20
  12  -4   1   17.60    1.20
 -12   4  -1   22.50    2.30
  12  -4   1   19.70    1.60
 -12   4  -1   18.10    1.60
 -12   4  -2   23.80    2.20
  12  -4   2   22.00    1.60
  12  -4   2   19.10    1.20
 -12   4  -2   24.80    2.30
  12  -4   2   23.10    1.70
 -12   4  -2   19.80    1.70
 -12   4  -3   -0.20    0.70
  12  -4   3    0.70    0.70
 -12   4  -3    0.80    0.50
 -12   4  -3    1.00    0.90
  12  -4   3    0.40    0.70
 -12   4  -3    0.70    0.70
  12  -4   4    8.40    1.00
 -12   4  -4    9.30    1.10
 -12   4  -4    9.80    1.20
 -12   3   7   22.50    1.90
  12  -3  -6    1.30    0.50
 -12   3   6    1.30    1.20
  12  -3  -6    1.50    0.50
 -12   3   6    1.00    0.70
 -12   3   5    3.10    1.20
  12  -3  -5    1.60    0.60
 -12   3   5    2.60    1.40
  12  -3  -5    2.90    0.60
 -12   3   5    2.20    0.80
 -12   3   4   12.40    1.90
  12  -3  -4   10.00    1.10
 -12   3   4   14.40    2.10
  12  -3  -4    9.60    1.00
 -12   3   4   10.90    1.20
 -12   3   3   13.00    2.10
  12  -3  -3    8.30    1.00
 -12   3   3   10.50    1.90
  12  -3  -3    7.40    0.90
 -12   3   3   10.50    1.60
 -12   3   2    0.00    1.40
 -12   3   2    0.00    1.20
  12  -3  -2    0.10    0.50
 -12   3   2    0.20    1.10
 -12   3   1    8.50    2.00
  12  -3  -1    6.00    0.80
  12  -3  -1    7.40    0.80
 -12   3   1    7.50    1.60
 -12   3   0   12.30    2.10
  12  -3   0   11.20    1.20
  12  -3   0   11.20    1.00
 -12   3   0   13.20    2.00
  12  -3   0   11.10    1.40
 -12   3   0   10.80    1.20
 -12   3  -1   15.00    2.10
  12  -3   1   14.30    1.30
 -12   3  -1   17.30    2.10
  12  -3   1   13.80    1.50
 -12   3  -1   13.20    1.40
 -12   3  -2   23.70    2.20
  12  -3   2   23.00    1.70
  12  -3   2   23.00    1.40
 -12   3  -2   28.40    2.30
  12  -3   2   25.30    1.70
 -12   3  -2   22.00    1.80
 -12   3  -3    3.30    0.90
  12  -3   3    4.60    0.90
 -12   3  -3    3.10    0.70
  12  -3   3    3.60    0.70
 -12   3  -3    4.70    1.10
  12  -3   3    4.00    0.90
  12  -3   4    1.90    0.70
 -12   3  -4    2.10    0.70
  12  -2  -7   23.20    1.20
 -12   2   7   22.50    1.60
  12  -2  -6    0.30    0.60
 -12   2   6    0.60    1.20
  12  -2  -6    0.70    0.40
  12  -2  -6    1.20    0.40
 -12   2   6    1.40    0.80
 -12   2   6    0.40    0.70
 -12   2   5    3.60    1.30
  12  -2  -5    2.20    0.70
 -12   2   5    3.40    1.50
  12  -2  -5    2.30    0.60
  12  -2  -5    1.90    0.50
 -12   2   5    2.40    0.90
 -12   2   4    5.30    1.50
  12  -2  -4    6.30    1.00
 -12   2   4    7.00    1.80
  12  -2  -4    5.00    0.80
 -12   2   4    6.00    1.00
 -12   2   4    5.10    1.20
 -12   2   3  115.59    5.30
  12  -2  -3   87.59    3.10
 -12   2   3  105.19    5.00
  12  -2  -3   86.09    2.70
 -12   2   3  101.39    4.30
 -12   2   2   11.00    2.10
  12  -2  -2    7.60    0.90
 -12   2   2    9.00    1.70
 -12   2   1   26.80    2.90
  12  -2  -1   26.80    1.60
 -12   2   1   32.40    2.80
  12  -2  -1   30.40    2.00
 -12   2   0   43.20    3.30
  12  -2   0   40.20    2.10
  12  -2   0   38.40    1.90
 -12   2   0   46.00    3.20
  12  -2   0   41.80    2.30
 -12   2  -1   11.40    1.90
  12  -2   1   12.90    1.30
  12  -2   1    9.70    1.10
 -12   2  -1   12.50    1.80
  12  -2   1   11.90    1.40
 -12   2  -2    1.70    1.00
  12  -2   2    1.70    0.80
 -12   2  -2    1.70    0.60
  12  -2   2    2.30    0.80
  12  -2   2    2.50    0.70
 -12   2  -2    2.40    1.10
  12  -2   2    2.30    0.80
  12  -2   3    1.40    0.70
 -12   2  -3    1.30    0.60
  12  -2   3    1.90    0.70
 -12   2  -3    1.90    0.80
 -12   2  -4    8.90    1.30
  12  -2   4    7.80    0.80
  12  -1  -8    3.70    0.60
 -12   1   8    3.70    0.80
  12  -1  -7    7.00    0.80
  12  -1  -7    7.20    0.70
 -12   1   7    9.40    1.20
 -12   1   7    6.40    1.00
 -12   1   6   16.10    1.60
  12  -1  -6   19.80    1.40
  12  -1  -6   18.70    1.20
 -12   1   6   20.30    1.80
 -12   1   5   20.10    2.10
  12  -1  -5   18.60    1.40
  12  -1  -5   18.10    1.30
 -12   1   5   20.40    1.70
 -12   1   4    9.70    1.90
  12  -1  -4    7.70    1.10
  12  -1  -4    7.10    0.90
 -12   1   4    9.70    1.30
 -12   1   4    8.30    1.40
 -12   1   3   81.09    4.50
  12  -1  -3   73.29    2.70
 -12   1   3   86.09    4.10
 -12   1   2  131.69    5.90
 -12   1   2  127.59    5.20
 -12   1   1   48.50    3.70
  12  -1  -1   46.10    2.20
 -12   1   1   53.59    3.40
  12  -1  -1   47.60    2.40
 -12   1   0   15.20    2.20
  12  -1   0   15.30    1.50
  12  -1   0   12.30    0.90
  12  -1   0   17.30    1.40
 -12   1   0   17.20    2.10
  12  -1   0   16.00    1.40
 -12   1  -1    3.40    1.40
  12  -1   1    2.90    0.90
  12  -1   1    2.80    0.80
 -12   1  -1    3.20    1.20
  12  -1   1    3.40    0.80
 -12   1  -2    9.20    1.40
  12  -1   2    9.30    1.00
 -12   1  -2    7.80    0.90
  12  -1   2   10.00    1.10
  12  -1   2    9.10    1.00
 -12   1  -2    9.90    1.40
  12  -1   2    8.60    1.00
 -12   1  -3    0.50    0.90
  12  -1   3   -0.30    0.50
  12  -1   3   -0.30    0.60
  12   0  -8    0.00    0.50
 -12   0   8    0.40    0.70
  12   0  -7    6.00    0.80
  12   0  -7    6.50    0.80
 -12   0   7    7.80    1.20
 -12   0   7    7.50    1.10
 -12   0   6    3.60    1.00
 -12   0   6    6.60    1.40
  12   0  -6    4.50    0.90
  12   0  -6    5.10    0.80
 -12   0   6    6.50    1.10
 -12   0   6    5.90    1.20
 -12   0   5   10.60    1.70
  12   0  -5   11.40    1.20
  12   0  -5   12.20    1.10
  12   0  -5   10.10    0.80
 -12   0   5   13.60    1.50
 -12   0   4   20.70    2.40
  12   0  -4   20.30    1.60
  12   0  -4   21.60    1.50
  12   0  -4   19.40    1.20
 -12   0   4   23.90    1.80
 -12   0   3   42.40    3.40
  12   0  -3   34.00    1.90
  12   0  -3   32.20    1.50
 -12   0   3   40.20    2.10
 -12   0   3   37.80    2.80
  12   0  -2   29.30    1.80
  12   0  -2   28.80    1.50
 -12   0   2   33.80    2.70
  12   0  -2   31.00    1.80
 -12   0   1   56.29    2.70
 -12   0   1   55.09    3.70
  12   0  -1   55.89    2.50
  12   0  -1   46.80    1.90
  12   0  -1   54.69    2.40
 -12   0   1   55.39    3.40
  12   0  -1   52.49    2.20
 -12   0   0    3.10    1.00
 -12   0   0    4.80    1.50
  12   0   0    3.90    0.90
  12   0   0    3.40    0.70
  12   0   0    4.50    0.90
 -12   0   0    4.90    1.30
  12   0   0    3.40    0.70
 -12   0  -1    4.80    1.20
 -12   0  -1    5.40    1.40
  12   0   1    3.90    0.70
 -12   0  -1    4.90    1.20
  12   0   1    4.20    0.90
  12   0   1    4.40    0.90
 -12   0  -1    5.10    1.20
  12   0   1    3.20    0.70
 -12   0  -2    4.60    1.00
  12   0   2    5.40    0.70
  12   0   2    7.30    1.00
  12   0   2    6.20    0.90
 -12   0  -3    2.20    0.90
  12   0   3    2.00    0.60
  12   1  -8    9.40    0.70
  12   1  -8   10.20    0.80
  12   1  -7    0.30    0.50
  12   1  -7    0.60    0.60
 -12  -1   7    1.40    0.80
 -12  -1   7    1.00    0.80
 -12  -1   6   -0.50    0.80
 -12  -1   6    0.80    1.10
  12   1  -6   -0.40    0.60
  12   1  -6    0.00    0.60
  12   1  -6    0.10    0.40
 -12  -1   6    0.60    0.80
 -12  -1   6   -0.30    0.90
 -12  -1   5   -0.40    1.00
 -12  -1   5    0.00    1.20
  12   1  -5    0.10    0.60
  12   1  -5    0.20    0.50
 -12  -1   5    0.60    0.80
 -12  -1   5   -0.30    0.90
 -12  -1   4    0.00    1.20
  12   1  -4    0.40    0.70
  12   1  -4   -0.20    0.60
 -12  -1   4    0.20    0.70
 -12  -1   3  152.28    5.90
  12   1  -3  129.89    3.60
  12   1  -3  126.49    3.30
 -12  -1   3  151.48    4.00
  12   1  -3  135.49    3.30
 -12  -1   2   23.00    2.60
  12   1  -2   23.80    1.60
  12   1  -2   19.10    1.30
  12   1  -2   19.70    1.20
 -12  -1   1    1.70    0.80
 -12  -1   1    2.30    1.40
 -12  -1   1    2.80    1.40
  12   1  -1    3.10    0.90
  12   1  -1    2.10    0.70
  12   1  -1    3.30    0.90
  12   1  -1    1.30    0.50
 -12  -1   1    1.50    0.70
 -12  -1   0   -0.30    0.70
 -12  -1   0    0.50    1.10
  12   1   0   -1.00    0.50
 -12  -1   0   -0.10    1.00
  12   1   0    0.20    0.70
  12   1   0    0.00    0.50
  12   1   0   -0.10    0.70
 -12  -1  -1    6.90    1.20
 -12  -1  -1    4.20    1.10
  12   1   1    6.80    0.90
  12   1   1    6.60    0.90
 -12  -1  -2   10.80    1.30
  12   1   2   10.20    0.90
  12   2  -8   36.50    1.30
 -12  -2   8   47.80    1.90
  12   2  -7    8.30    0.80
  12   2  -7    7.60    0.70
 -12  -2   7   10.20    1.10
 -12  -2   7   10.50    1.20
  12   2  -6    1.50    0.40
 -12  -2   6    2.40    1.20
  12   2  -6    1.60    0.60
  12   2  -6    1.80    0.50
 -12  -2   6    2.20    0.80
 -12  -2   6    2.10    0.90
 -12  -2   5   15.90    1.80
 -12  -2   5   19.20    2.20
  12   2  -5   13.90    1.20
  12   2  -5   14.90    1.10
 -12  -2   5   18.20    1.50
 -12  -2   5   18.20    1.70
  12   2  -5   10.40    0.80
  12   2  -4   -0.40    0.40
 -12  -2   4   -0.10    1.10
 -12  -2   4   -0.30    1.30
  12   2  -4   -0.10    0.70
  12   2  -4   -0.90    0.60
 -12  -2   4    0.50    0.70
 -12  -2   4   -0.40    0.80
 -12  -2   3   67.49    3.80
 -12  -2   3   79.89    4.30
  12   2  -3   61.89    2.30
  12   2  -3   57.89    2.10
 -12  -2   3   69.49    2.50
 -12  -2   3   62.99    2.80
  12   2  -3   43.90    1.60
 -12  -2   2   35.50    2.80
  12   2  -2   33.50    1.70
  12   2  -2   29.40    1.50
  12   2  -2   35.20    1.80
 -12  -2   2   26.80    1.60
 -12  -2   1    2.50    1.20
 -12  -2   1    2.20    1.10
  12   2  -1    1.40    0.60
  12   2  -1    1.50    0.60
  12   2  -1    2.20    0.80
 -12  -2   0   11.30    1.20
 -12  -2   0   14.40    1.70
  12   2   0   12.70    1.00
  12   2   0   12.90    1.10
  12   2   1    2.40    0.60
  12   3  -7    4.80    0.60
 -12  -3   7    5.90    0.90
 -12  -3   6    0.40    1.00
  12   3  -6    0.60    0.50
  12   3  -6    0.40    0.50
 -12  -3   6    0.60    0.60
 -12  -3   6    1.20    0.80
 -12  -3   5   24.50    1.90
 -12  -3   5   36.10    2.60
  12   3  -5   25.20    1.20
  12   3  -5   25.80    1.30
  12   3  -5   29.00    1.40
 -12  -3   5   33.50    1.70
 -12  -3   5   36.30    2.00
  12   3  -5   21.60    1.10
  12   3  -4    2.60    0.50
 -12  -3   4    2.90    1.20
 -12  -3   4    4.00    1.40
  12   3  -4    2.90    0.60
  12   3  -4    2.80    0.60
  12   3  -4    3.40    0.70
 -12  -3   4    3.80    0.70
 -12  -3   4    4.30    0.80
 -12  -3   3   12.50    1.70
 -12  -3   3   15.20    1.90
  12   3  -3   11.20    0.90
  12   3  -3   11.80    1.00
  12   3  -3   14.30    1.10
  12   3  -3    9.90    0.70
 -12  -3   2    0.30    1.10
 -12  -3   2    0.10    1.00
  12   3  -2    0.20    0.40
  12   3  -2    0.00    0.60
  12   3  -2    0.50    0.60
  12   3  -1    0.60    0.50
  12   3  -1    0.00    0.50
 -12  -4   5    2.50    1.10
  12   4  -5    1.90    0.50
 -12  -4   4   62.29    2.90
  12   4  -4   50.69    1.60
 -13   4   2    3.00    1.10
  13  -4  -2    2.70    0.60
 -13   4   1    1.00    1.00
  13  -4  -1   -0.10    0.50
 -13   4   0    6.00    1.00
  13  -4   0    4.40    0.70
 -13   3   3   21.00    1.80
  13  -3  -3   19.00    1.10
 -13   3   2    0.10    1.00
  13  -3  -2   -0.20    0.50
 -13   3   1    3.50    1.20
 -13   3   1    3.70    1.00
  13  -3  -1    3.40    0.70
 -13   3   0    0.10    0.90
  13  -3   0    0.70    0.50
 -13   3   0    1.70    0.90
  13  -3   0    1.40    0.60
  13  -2  -4    2.50    0.60
 -13   2   4    1.60    0.80
 -13   2   3    7.00    1.30
  13  -2  -3    5.70    0.70
  13  -2  -3    7.50    0.80
 -13   2   2   -0.20    1.00
  13  -2  -2    0.10    0.50
  13  -2  -2    0.00    0.50
 -13   2   1   18.40    1.80
  13  -2  -1   13.90    1.00
 -13   2   1   18.30    1.60
  13  -2  -1   16.00    1.00
  13  -2   0    1.10    0.50
 -13   2   0    1.90    0.90
  13  -1  -4    1.00    0.50
 -13   1   4    2.00    0.80
  13  -1  -3   35.80    1.50
 -13   1   3   32.80    1.80
 -13   1   2    0.30    1.00
  13  -1  -2    0.50    0.50
 -13   1   1   28.30    2.00
 -13   1   1   30.00    2.20
  13   0  -4   -0.20    0.50
 -13   0   3   50.49    2.70
  13   0  -3   36.50    1.40
 -13   0   2    1.30    1.00
 -13   0   2    2.00    1.10
  13   0  -2    1.60    0.60
   0   0   0    0.00    0.00

_computing_structure_solution     'SHELXT 2014/5 (Sheldrick, 2014)'
;
_shelx_hkl_checksum              58775
loop_
_space_group_symop_operation_xyz
'x, y, z'
'-x, -y, -z'
loop_
_atom_site_label
_atom_site_type_symbol
_atom_site_fract_x
_atom_site_fract_y
_atom_site_fract_z
_atom_site_U_iso_or_equiv
_atom_site_adp_type
_atom_site_occupancy
_atom_site_site_symmetry_order
_atom_site_calc_flag
_atom_site_refinement_flags_posn
_atom_site_refinement_flags_adp
S1 S 0.56195(7) 0.17468(6) 0.50941(6) 0.02647(18) Uani 1 1 d . .
S2 S 0.45290(7) 0.16799(6) 0.07416(6) 0.02600(18) Uani 1 1 d . .
N5 N 0.4259(2) -0.0370(2) 0.10509(19) 0.0227(4) Uani 1 1 d . .
O1 O 0.5357(3) 0.5033(2) 0.7375(2) 0.0472(6) Uani 1 1 d . .
N4 N 0.5822(2) -0.0464(2) 0.3812(2) 0.0255(5) Uani 1 1 d . .
N2 N -0.0014(2) 0.3300(2) 0.7016(2) 0.0306(5) Uani 1 1 d . .
N1 N 1.0985(2) 0.3346(2) 0.0067(2) 0.0322(5) Uani 1 1 d . .
C26 C 0.3405(2) 0.1214(2) 0.2448(2) 0.0205(5) Uani 1 1 d . .
C28 C 0.4035(2) 0.0738(2) 0.1460(2) 0.0210(5) Uani 1 1 d . .
C14 C 0.6152(2) 0.0694(3) 0.3960(2) 0.0226(5) Uani 1 1 d . .
C33 C 0.5122(2) 0.0492(2) -0.0156(2) 0.0210(5) Uani 1 1 d . .
C32 C 0.4890(3) 0.0535(3) 0.5385(2) 0.0239(5) Uani 1 1 d . .
C13 C 0.6935(2) 0.1127(3) 0.3253(2) 0.0226(5) Uani 1 1 d . .
C27 C 0.3525(2) 0.2460(2) 0.3046(2) 0.0216(5) Uani 1 1 d . .
H27 H 0.4039 0.3022 0.2820 0.026 Uiso 1 1 calc R U
N3 N 0.5499(3) 0.3762(3) 0.8315(3) 0.0419(7) Uani 1 1 d . .
C21 C 0.2042(3) 0.0795(3) 0.3712(2) 0.0244(5) Uani 1 1 d . .
C7 C 0.8399(3) 0.0732(3) 0.1891(2) 0.0250(5) Uani 1 1 d . .
C22 C 0.2905(2) 0.2904(2) 0.3972(2) 0.0216(5) Uani 1 1 d . .
C12 C 0.6977(3) 0.2289(3) 0.3239(2) 0.0240(5) Uani 1 1 d . .
H12 H 0.6497 0.2819 0.3703 0.029 Uiso 1 1 calc R U
C17 C 0.1412(3) 0.2500(2) 0.5248(2) 0.0228(5) Uani 1 1 d . .
C20 C 0.2144(2) 0.2058(2) 0.4295(2) 0.0212(5) Uani 1 1 d . .
C6 C 0.8435(2) 0.1912(2) 0.1891(2) 0.0217(5) Uani 1 1 d . .
C16 C 0.1866(3) 0.2563(3) 0.6331(2) 0.0260(6) Uani 1 1 d . .
H16 H 0.2673 0.2332 0.6493 0.031 Uiso 1 1 calc R U
C15 C 0.1133(3) 0.2966(3) 0.7173(2) 0.0294(6) Uani 1 1 d . .
H15 H 0.1467 0.3006 0.7908 0.035 Uiso 1 1 calc R U
C4 C 0.8835(3) 0.2417(3) 0.0185(2) 0.0263(6) Uani 1 1 d . .
H4 H 0.7932 0.2113 -0.0156 0.032 Uiso 1 1 calc R U
C9 C 0.7710(3) 0.2687(2) 0.2560(2) 0.0239(5) Uani 1 1 d . .
C5 C 0.9703(3) 0.2912(3) -0.0348(3) 0.0297(6) Uani 1 1 d . .
H5 H 0.9360 0.2942 -0.1053 0.036 Uiso 1 1 calc R U
C3 C 0.9302(3) 0.2371(2) 0.1222(2) 0.0227(5) Uani 1 1 d . .
C11 C 0.7644(3) 0.0355(3) 0.2568(2) 0.0251(5) Uani 1 1 d . .
H11 H 0.7611 -0.0442 0.2565 0.030 Uiso 1 1 calc R U
C18 C 0.0215(3) 0.2847(3) 0.5074(2) 0.0286(6) Uani 1 1 d . .
H18 H -0.0142 0.2820 0.4349 0.034 Uiso 1 1 calc R U
C19 C -0.0445(3) 0.3233(3) 0.5969(3) 0.0308(6) Uani 1 1 d . .
H19 H -0.1259 0.3464 0.5832 0.037 Uiso 1 1 calc R U
C25 C 0.2677(3) 0.0387(2) 0.2797(2) 0.0241(5) Uani 1 1 d . .
H25 H 0.2615 -0.0467 0.2404 0.029 Uiso 1 1 calc R U
C23 C 0.3082(3) 0.4265(3) 0.4611(3) 0.0293(6) Uani 1 1 d . .
H23A H 0.2586 0.4424 0.5233 0.044 Uiso 1 1 calc R U
H23B H 0.4016 0.4623 0.4924 0.044 Uiso 1 1 calc R U
H23C H 0.2757 0.4634 0.4093 0.044 Uiso 1 1 calc R U
C2 C 1.0634(3) 0.2814(3) 0.1654(3) 0.0337(7) Uani 1 1 d . .
H2 H 1.1003 0.2797 0.2358 0.040 Uiso 1 1 calc R U
C29 C 0.4918(3) 0.4489(3) 0.7936(3) 0.0348(7) Uani 1 1 d . .
C8 C 0.9154(3) -0.0126(3) 0.1171(3) 0.0366(7) Uani 1 1 d . .
H8A H 0.9632 0.0273 0.0747 0.055 Uiso 1 1 calc R U
H8B H 0.9781 -0.0340 0.1660 0.055 Uiso 1 1 calc R U
H8C H 0.8542 -0.0871 0.0636 0.055 Uiso 1 1 calc R U
C10 C 0.7708(3) 0.3944(3) 0.2553(3) 0.0350(7) Uani 1 1 d . .
H10A H 0.8267 0.4083 0.2035 0.053 Uiso 1 1 calc R U
H10B H 0.6808 0.3999 0.2298 0.053 Uiso 1 1 calc R U
H10C H 0.8046 0.4565 0.3322 0.053 Uiso 1 1 calc R U
C1 C 1.1427(3) 0.3283(3) 0.1059(3) 0.0366(7) Uani 1 1 d . .
H1 H 1.2338 0.3576 0.1374 0.044 Uiso 1 1 calc R U
C24 C 0.1232(3) -0.0126(3) 0.4047(3) 0.0350(7) Uani 1 1 d . .
H24A H 0.0851 0.0305 0.4702 0.052 Uiso 1 1 calc R U
H24B H 0.0525 -0.0652 0.3408 0.052 Uiso 1 1 calc R U
H24C H 0.1795 -0.0630 0.4247 0.052 Uiso 1 1 calc R U
C30 C 0.6804(5) 0.3577(4) 0.8124(4) 0.0638(12) Uani 1 1 d . .
H30A H 0.7066 0.3014 0.8464 0.096 Uiso 1 1 calc R U
H30B H 0.6798 0.3227 0.7306 0.096 Uiso 1 1 calc R U
H30C H 0.7430 0.4363 0.8475 0.096 Uiso 1 1 calc R U
C31 C 0.4863(6) 0.3173(4) 0.8989(4) 0.0668(13) Uani 1 1 d . .
H31A H 0.5428 0.2673 0.9195 0.100 Uiso 1 1 calc R U
H31B H 0.4718 0.3801 0.9682 0.100 Uiso 1 1 calc R U
H31C H 0.4017 0.2650 0.8543 0.100 Uiso 1 1 calc R U
H100 H 0.406(4) 0.458(4) 0.817(3) 0.048(11) Uiso 1 1 d . .
loop_
_atom_site_aniso_label
_atom_site_aniso_U_11
_atom_site_aniso_U_22
_atom_site_aniso_U_33
_atom_site_aniso_U_23
_atom_site_aniso_U_13
_atom_site_aniso_U_12
S1 0.0313(3) 0.0295(3) 0.0286(4) 0.0171(3) 0.0187(3) 0.0107(3)
S2 0.0368(4) 0.0276(3) 0.0254(3) 0.0169(3) 0.0206(3) 0.0127(3)
N5 0.0249(10) 0.0285(11) 0.0219(11) 0.0147(9) 0.0136(9) 0.0072(9)
O1 0.0481(14) 0.0518(15) 0.0604(16) 0.0428(13) 0.0137(12) 0.0079(11)
N4 0.0262(11) 0.0341(12) 0.0272(12) 0.0188(10) 0.0168(9) 0.0117(9)
N2 0.0342(13) 0.0315(12) 0.0306(13) 0.0125(10) 0.0214(10) 0.0062(10)
N1 0.0313(12) 0.0394(13) 0.0383(14) 0.0251(11) 0.0177(11) 0.0091(10)
C26 0.0213(11) 0.0307(13) 0.0167(11) 0.0143(10) 0.0107(9) 0.0076(10)
C28 0.0196(11) 0.0284(13) 0.0209(12) 0.0143(10) 0.0097(9) 0.0056(9)
C14 0.0212(12) 0.0325(13) 0.0232(13) 0.0174(11) 0.0105(10) 0.0105(10)
C33 0.0219(11) 0.0272(13) 0.0205(12) 0.0144(10) 0.0105(9) 0.0064(9)
C32 0.0248(12) 0.0319(14) 0.0253(13) 0.0184(11) 0.0134(10) 0.0110(10)
C13 0.0198(11) 0.0325(14) 0.0226(12) 0.0162(11) 0.0098(10) 0.0079(10)
C27 0.0228(12) 0.0299(13) 0.0216(12) 0.0179(10) 0.0119(10) 0.0075(10)
N3 0.0576(18) 0.0376(14) 0.0413(16) 0.0257(13) 0.0096(13) 0.0148(13)
C21 0.0242(12) 0.0309(14) 0.0249(13) 0.0159(11) 0.0135(10) 0.0051(10)
C7 0.0276(13) 0.0300(13) 0.0248(13) 0.0147(11) 0.0135(10) 0.0108(10)
C22 0.0222(12) 0.0289(13) 0.0207(12) 0.0147(10) 0.0096(10) 0.0086(10)
C12 0.0240(12) 0.0323(14) 0.0252(13) 0.0167(11) 0.0137(10) 0.0126(10)
C17 0.0234(12) 0.0260(12) 0.0235(13) 0.0124(10) 0.0128(10) 0.0052(10)
C20 0.0203(11) 0.0306(13) 0.0192(12) 0.0141(10) 0.0099(9) 0.0076(10)
C6 0.0204(11) 0.0303(13) 0.0201(12) 0.0142(10) 0.0084(9) 0.0071(10)
C16 0.0266(13) 0.0326(14) 0.0268(14) 0.0177(11) 0.0132(11) 0.0074(11)
C15 0.0378(15) 0.0343(14) 0.0211(13) 0.0144(11) 0.0144(11) 0.0052(12)
C4 0.0239(12) 0.0358(14) 0.0251(13) 0.0158(11) 0.0107(10) 0.0080(11)
C9 0.0237(12) 0.0290(13) 0.0257(13) 0.0150(11) 0.0105(10) 0.0093(10)
C5 0.0335(14) 0.0404(16) 0.0266(14) 0.0212(12) 0.0153(11) 0.0130(12)
C3 0.0240(12) 0.0259(12) 0.0243(13) 0.0135(10) 0.0121(10) 0.0081(10)
C11 0.0287(13) 0.0279(13) 0.0279(14) 0.0171(11) 0.0140(11) 0.0102(10)
C18 0.0276(13) 0.0403(15) 0.0257(14) 0.0180(12) 0.0125(11) 0.0111(11)
C19 0.0272(13) 0.0394(16) 0.0345(16) 0.0188(13) 0.0173(12) 0.0120(12)
C25 0.0266(13) 0.0257(12) 0.0239(13) 0.0114(10) 0.0139(10) 0.0052(10)
C23 0.0361(15) 0.0293(14) 0.0311(15) 0.0161(12) 0.0194(12) 0.0103(11)
C2 0.0273(14) 0.0514(18) 0.0300(15) 0.0252(14) 0.0067(11) 0.0052(13)
C29 0.0366(16) 0.0345(15) 0.0408(17) 0.0236(13) 0.0082(13) 0.0054(12)
C8 0.0508(18) 0.0356(16) 0.0408(17) 0.0228(14) 0.0324(15) 0.0208(14)
C10 0.0467(17) 0.0328(15) 0.0409(17) 0.0227(13) 0.0258(14) 0.0182(13)
C1 0.0252(14) 0.0509(19) 0.0402(17) 0.0261(15) 0.0102(12) 0.0021(13)
C24 0.0421(16) 0.0295(14) 0.0381(16) 0.0146(13) 0.0266(14) 0.0030(12)
C30 0.064(3) 0.063(3) 0.064(3) 0.019(2) 0.002(2) 0.035(2)
C31 0.109(4) 0.052(2) 0.052(2) 0.038(2) 0.014(2) 0.007(2)
loop_
_atom_type_symbol
_atom_type_description
_atom_type_scat_dispersion_real
_atom_type_scat_dispersion_imag
_atom_type_scat_source
C C 0.0181 0.0091 'International Tables Vol C Tables 4.2.6.8 and 6.1.1.4'
H H 0.0000 0.0000 'International Tables Vol C Tables 4.2.6.8 and 6.1.1.4'
N N 0.0311 0.0180 'International Tables Vol C Tables 4.2.6.8 and 6.1.1.4'
O O 0.0492 0.0322 'International Tables Vol C Tables 4.2.6.8 and 6.1.1.4'
Mg Mg 0.1719 0.1771 'International Tables Vol C Tables 4.2.6.8 and 6.1.1.4'
S S 0.3331 0.5567 'International Tables Vol C Tables 4.2.6.8 and 6.1.1.4'
loop_
_geom_angle_atom_site_label_1
_geom_angle_atom_site_label_2
_geom_angle_atom_site_label_3
_geom_angle
_geom_angle_site_symmetry_1
_geom_angle_site_symmetry_3
C32 S1 C14 88.45(13) . .
C33 S2 C28 88.46(12) . .
C28 N5 C33 108.7(2) . 2_655
C14 N4 C32 108.4(2) . 2_656
C15 N2 C19 115.9(2) . .
C5 N1 C1 116.0(2) . .
C27 C26 C25 119.4(2) . .
C27 C26 C28 121.7(2) . .
C25 C26 C28 119.0(2) . .
N5 C28 C26 124.2(2) . .
N5 C28 S2 115.89(19) . .
C26 C28 S2 119.89(19) . .
N4 C14 C13 123.9(2) . .
N4 C14 S1 115.92(19) . .
C13 C14 S1 120.2(2) . .
N5 C33 C33 118.3(3) 2_655 2_655
N5 C33 S2 133.0(2) 2_655 .
C33 C33 S2 108.7(2) 2_655 .
N4 C32 C32 118.2(3) 2_656 2_656
N4 C32 S1 132.8(2) 2_656 .
C32 C32 S1 109.1(3) 2_656 .
C12 C13 C11 118.8(2) . .
C12 C13 C14 121.7(2) . .
C11 C13 C14 119.5(2) . .
C26 C27 C22 121.4(2) . .
C26 C27 H27 119.3 . .
C22 C27 H27 119.3 . .
C29 N3 C30 121.3(3) . .
C29 N3 C31 120.6(3) . .
C30 N3 C31 118.1(3) . .
C25 C21 C20 119.3(2) . .
C25 C21 C24 119.4(3) . .
C20 C21 C24 121.2(2) . .
C11 C7 C6 119.1(2) . .
C11 C7 C8 119.5(2) . .
C6 C7 C8 121.4(2) . .
C27 C22 C20 118.6(2) . .
C27 C22 C23 119.7(2) . .
C20 C22 C23 121.7(2) . .
C9 C12 C13 121.3(2) . .
C9 C12 H12 119.3 . .
C13 C12 H12 119.3 . .
C16 C17 C18 116.9(2) . .
C16 C17 C20 122.2(2) . .
C18 C17 C20 120.9(2) . .
C21 C20 C22 120.4(2) . .
C21 C20 C17 119.5(2) . .
C22 C20 C17 120.1(2) . .
C9 C6 C7 120.2(2) . .
C9 C6 C3 119.4(2) . .
C7 C6 C3 120.3(2) . .
C15 C16 C17 119.4(3) . .
C15 C16 H16 120.3 . .
C17 C16 H16 120.3 . .
N2 C15 C16 124.2(3) . .
N2 C15 H15 117.9 . .
C16 C15 H15 117.9 . .
C3 C4 C5 119.3(3) . .
C3 C4 H4 120.3 . .
C5 C4 H4 120.3 . .
C12 C9 C6 119.3(2) . .
C12 C9 C10 119.6(2) . .
C6 C9 C10 121.1(2) . .
N1 C5 C4 124.2(3) . .
N1 C5 H5 117.9 . .
C4 C5 H5 117.9 . .
C2 C3 C4 116.8(2) . .
C2 C3 C6 119.8(2) . .
C4 C3 C6 123.4(2) . .
C7 C11 C13 121.3(2) . .
C7 C11 H11 119.4 . .
C13 C11 H11 119.4 . .
C19 C18 C17 119.3(3) . .
C19 C18 H18 120.3 . .
C17 C18 H18 120.3 . .
N2 C19 C18 124.3(3) . .
N2 C19 H19 117.9 . .
C18 C19 H19 117.9 . .
C21 C25 C26 120.9(2) . .
C21 C25 H25 119.6 . .
C26 C25 H25 119.6 . .
C22 C23 H23A 109.5 . .
C22 C23 H23B 109.5 . .
H23A C23 H23B 109.5 . .
C22 C23 H23C 109.5 . .
H23A C23 H23C 109.5 . .
H23B C23 H23C 109.5 . .
C1 C2 C3 119.9(3) . .
C1 C2 H2 120.0 . .
C3 C2 H2 120.0 . .
O1 C29 N3 126.3(3) . .
O1 C29 H100 120(2) . .
N3 C29 H100 113(2) . .
C7 C8 H8A 109.5 . .
C7 C8 H8B 109.5 . .
H8A C8 H8B 109.5 . .
C7 C8 H8C 109.5 . .
H8A C8 H8C 109.5 . .
H8B C8 H8C 109.5 . .
C9 C10 H10A 109.5 . .
C9 C10 H10B 109.5 . .
H10A C10 H10B 109.5 . .
C9 C10 H10C 109.5 . .
H10A C10 H10C 109.5 . .
H10B C10 H10C 109.5 . .
N1 C1 C2 123.8(3) . .
N1 C1 H1 118.1 . .
C2 C1 H1 118.1 . .
C21 C24 H24A 109.5 . .
C21 C24 H24B 109.5 . .
H24A C24 H24B 109.5 . .
C21 C24 H24C 109.5 . .
H24A C24 H24C 109.5 . .
H24B C24 H24C 109.5 . .
N3 C30 H30A 109.5 . .
N3 C30 H30B 109.5 . .
H30A C30 H30B 109.5 . .
N3 C30 H30C 109.5 . .
H30A C30 H30C 109.5 . .
H30B C30 H30C 109.5 . .
N3 C31 H31A 109.5 . .
N3 C31 H31B 109.5 . .
H31A C31 H31B 109.5 . .
N3 C31 H31C 109.5 . .
H31A C31 H31C 109.5 . .
H31B C31 H31C 109.5 . .
loop_
_geom_bond_atom_site_label_1
_geom_bond_atom_site_label_2
_geom_bond_distance
_geom_bond_site_symmetry_2
S1 C32 1.723(3) .
S1 C14 1.758(3) .
S2 C33 1.726(3) .
S2 C28 1.760(3) .
N5 C28 1.308(3) .
N5 C33 1.361(3) 2_655
O1 C29 1.220(4) .
N4 C14 1.318(4) .
N4 C32 1.363(3) 2_656
N2 C15 1.336(4) .
N2 C19 1.338(4) .
N1 C5 1.334(4) .
N1 C1 1.338(4) .
C26 C27 1.387(4) .
C26 C25 1.396(4) .
C26 C28 1.469(3) .
C14 C13 1.470(3) .
C33 N5 1.361(3) 2_655
C33 C33 1.377(5) 2_655
C32 N4 1.363(3) 2_656
C32 C32 1.376(5) 2_656
C13 C12 1.394(4) .
C13 C11 1.395(4) .
C27 C22 1.395(3) .
C27 H27 0.9500 .
N3 C29 1.327(4) .
N3 C30 1.451(5) .
N3 C31 1.463(5) .
C21 C25 1.388(4) .
C21 C20 1.404(4) .
C21 C24 1.511(4) .
C7 C11 1.390(4) .
C7 C6 1.410(4) .
C7 C8 1.503(4) .
C22 C20 1.410(3) .
C22 C23 1.507(4) .
C12 C9 1.391(4) .
C12 H12 0.9500 .
C17 C16 1.388(4) .
C17 C18 1.396(4) .
C17 C20 1.496(3) .
C6 C9 1.400(4) .
C6 C3 1.500(3) .
C16 C15 1.386(4) .
C16 H16 0.9500 .
C15 H15 0.9500 .
C4 C3 1.388(4) .
C4 C5 1.391(4) .
C4 H4 0.9500 .
C9 C10 1.510(4) .
C5 H5 0.9500 .
C3 C2 1.386(4) .
C11 H11 0.9500 .
C18 C19 1.383(4) .
C18 H18 0.9500 .
C19 H19 0.9500 .
C25 H25 0.9500 .
C23 H23A 0.9800 .
C23 H23B 0.9800 .
C23 H23C 0.9800 .
C2 C1 1.385(4) .
C2 H2 0.9500 .
C29 H100 0.99(4) .
C8 H8A 0.9800 .
C8 H8B 0.9800 .
C8 H8C 0.9800 .
C10 H10A 0.9800 .
C10 H10B 0.9800 .
C10 H10C 0.9800 .
C1 H1 0.9500 .
C24 H24A 0.9800 .
C24 H24B 0.9800 .
C24 H24C 0.9800 .
C30 H30A 0.9800 .
C30 H30B 0.9800 .
C30 H30C 0.9800 .
C31 H31A 0.9800 .
C31 H31B 0.9800 .
C31 H31C 0.9800 .
