#------------------------------------------------------------------------------
#$Date: 2019-11-26 03:27:17 +0200 (Tue, 26 Nov 2019) $
#$Revision: 242509 $
#$URL: file:///home/coder/svn-repositories/cod/cif/4/13/25/4132543.cif $
#------------------------------------------------------------------------------
#
# This file is available in the Crystallography Open Database (COD),
# http://www.crystallography.net/
#
# All data on this site have been placed in the public domain by the
# contributors.
#
data_4132543
loop_
_publ_author_name
'Jiang, Hao'
'Jia, Jiangtao'
'Shkurenko, Aleksander'
'Chen, Zhijie'
'Adil, Karim'
'Belmabkhout, Youssef'
'Weselinski, Lukasz J.'
'Assen, Ayalew H.'
'Xue, Dong-Xu'
'O'Keeffe, Michael'
'Eddaoudi, Mohamed'
_publ_section_title
;
 Enriching the Reticular Chemistry Repertoire: Merged Nets Approach for
 the Rational Design of Intricate Mixed-Linker Metal-Organic Framework
 Platforms.
;
_journal_issue                   28
_journal_name_full               'Journal of the American Chemical Society'
_journal_page_first              8858
_journal_page_last               8867
_journal_paper_doi               10.1021/jacs.8b04745
_journal_volume                  140
_journal_year                    2018
_chemical_absolute_configuration ad
_chemical_formula_moiety         '2(C2 H8 N 1+), (C174 H122 N6 O38 Tb6 2-)'
_chemical_formula_sum            'C178 H138 N8 O38 Tb6'
_chemical_formula_weight         3950.48
_space_group_crystal_system      tetragonal
_space_group_IT_number           80
_space_group_name_Hall           'I 4bw'
_space_group_name_H-M_alt        'I 41'
_atom_sites_solution_hydrogens   geom
_atom_sites_solution_primary     direct
_atom_sites_solution_secondary   difmap
_audit_creation_method           SHELXL-2014/7
_cell_angle_alpha                90
_cell_angle_beta                 90
_cell_angle_gamma                90
_cell_formula_units_Z            8
_cell_length_a                   39.740(1)
_cell_length_b                   39.740(1)
_cell_length_c                   56.261(2)
_cell_measurement_reflns_used    9946
_cell_measurement_temperature    100.0(1)
_cell_measurement_theta_max      47.35
_cell_measurement_theta_min      2.22
_cell_volume                     88851(4)
_computing_cell_refinement       'SAINT v8.34A (Bruker, 2013)'
_computing_data_collection
'Bruker APEX2 v2009.3-0 (Bruker AXS Inc., 2009)'
_computing_data_reduction        'SAINT v8.34A (Bruker, 2013)'
_computing_molecular_graphics    'DIAMOND (Crystal Impact GbR, 2009'
_computing_publication_material
'PublCIF. Westrip, S. P. (2010). J. Appl. Cryst. 43, 920-925.'
_computing_structure_refinement  'SHELXL-2014/7 (Sheldrick, 2014)'
_computing_structure_solution    'ShelXS (Sheldrick, 2008)'
_diffrn_ambient_temperature      100.0(1)
_diffrn_detector_area_resol_mean 8.3
_diffrn_measured_fraction_theta_full 0.929
_diffrn_measured_fraction_theta_max 0.929
_diffrn_measurement_device_type  'Bruker X8 PROSPECTOR APEX2 CCD'
_diffrn_measurement_method       '\f and \w scans'
_diffrn_radiation_monochromator  mirrors
_diffrn_radiation_type           CuK\a
_diffrn_radiation_wavelength     1.54178
_diffrn_reflns_av_R_equivalents  0.0835
_diffrn_reflns_av_unetI/netI     0.0630
_diffrn_reflns_Laue_measured_fraction_full 0.929
_diffrn_reflns_Laue_measured_fraction_max 0.929
_diffrn_reflns_limit_h_max       22
_diffrn_reflns_limit_h_min       -22
_diffrn_reflns_limit_k_max       22
_diffrn_reflns_limit_k_min       -22
_diffrn_reflns_limit_l_max       25
_diffrn_reflns_limit_l_min       -26
_diffrn_reflns_number            26832
_diffrn_reflns_point_group_measured_fraction_full 0.909
_diffrn_reflns_point_group_measured_fraction_max 0.909
_diffrn_reflns_theta_full        25.374
_diffrn_reflns_theta_max         25.374
_diffrn_reflns_theta_min         1.572
_diffrn_source                   'Incoatec I\ms'
_exptl_absorpt_coefficient_mu    4.837
_exptl_absorpt_correction_T_max  0.1183
_exptl_absorpt_correction_T_min  0.0438
_exptl_absorpt_correction_type   multi-scan
_exptl_absorpt_process_details
;
SADABS-2016/2 (Bruker,2016/2) was used for absorption correction.
wR2(int) was 0.0483 before and 0.0329 after correction.
The Ratio of minimum to maximum transmission is 0.3702.
The \l/2 correction factor is Not present.
;
_exptl_crystal_colour            colorless
_exptl_crystal_density_diffrn    0.591
_exptl_crystal_description       'tetragonal bipyramid'
_exptl_crystal_F_000             15648
_exptl_crystal_size_max          0.150
_exptl_crystal_size_mid          0.050
_exptl_crystal_size_min          0.050
_refine_diff_density_max         0.612
_refine_diff_density_min         -0.700
_refine_diff_density_rms         0.093
_refine_ls_abs_structure_details
;
 Flack x determined using 3187 quotients [(I+)-(I-)]/[(I+)+(I-)]
 (Parsons, Flack and Wagner, Acta Cryst. B69 (2013) 249-259).
;
_refine_ls_abs_structure_Flack   0.497(3)
_refine_ls_extinction_method     none
_refine_ls_goodness_of_fit_ref   2.467
_refine_ls_hydrogen_treatment    constr
_refine_ls_matrix_type           full
_refine_ls_number_parameters     776
_refine_ls_number_reflns         7268
_refine_ls_number_restraints     1597
_refine_ls_restrained_S_all      2.267
_refine_ls_R_factor_all          0.1430
_refine_ls_R_factor_gt           0.1404
_refine_ls_shift/su_max          0.000
_refine_ls_shift/su_mean         0.000
_refine_ls_structure_factor_coef Fsqd
_refine_ls_weighting_details
'w=1/[\s^2^(Fo^2^)+(0.2000P)^2^] where P=(Fo^2^+2Fc^2^)/3'
_refine_ls_weighting_scheme      calc
_refine_ls_wR_factor_gt          0.3705
_refine_ls_wR_factor_ref         0.3748
_reflns_Friedel_coverage         0.911
_reflns_Friedel_fraction_full    0.888
_reflns_Friedel_fraction_max     0.888
_reflns_number_gt                7108
_reflns_number_total             7268
_reflns_threshold_expression     'I > 2\s(I)'
_cod_data_source_file            ja8b04745_si_006.cif
_cod_data_source_block           Tb_sph_MOF_4
_cod_original_cell_volume        88849(6)
_cod_database_code               4132543
_shelx_shelxl_version_number     2014/7
_shelx_space_group_comment
;
The symmetry employed for this shelxl refinement is uniquely defined
by the following loop, which should always be used as a source of
symmetry information in preference to the above space-group names.
They are only intended as comments.
;
_shelx_estimated_absorpt_t_min   0.531
_shelx_estimated_absorpt_t_max   0.794
_platon_squeeze_void_probe_radius 1.20
_shelx_res_file
;

    shelx.res created by SHELXL-2014/7

TITL KME_1181 in I41 #80
CELL 1.54178 39.7396 39.7396 56.2608 90 90 90
ZERR 8 0.0012 0.0012 0.002 0 0 0
LATT -2
SYMM -Y,0.5+X,0.25+Z
SYMM -X,-Y,+Z
SYMM +Y,0.5-X,0.25+Z
SFAC C H N O Tb
UNIT 1424 1104 64 304 48
EQIV $1 1-Y,-0.5+X,0.25+Z
EQIV $2 0.5-X,0.5-Y,-0.5+Z
EQIV $3 1.5-Y,+X,-0.25+Z
EQIV $4 0.5+X,-0.5+Y,-0.5+Z
EQIV $5 0.5-X,0.5-Y,0.5+Z
EQIV $6 +Y,1.5-X,0.25+Z
EQIV $7 -0.5+X,0.5+Y,0.5+Z
EQIV $8 +Y,0.5-X,0.25+Z
EQIV $9 1-X,1-Y,+Z
EQIV $10 0.5+Y,1-X,-0.25+Z
EQIV $11 0.5-Y,+X,-0.25+Z
DFIX 1.23 0.01 C101 O101 C101 O102 C108 O103 C108 O104 C115 O105 C115 O106
DFIX 1.23 0.01 C201 O201 C201 O202 C208 O203 C208 O204 C215 O205 C215 O206
DFIX 1.5 0.005 C101 C102 C115 C116 C108 C109
DFIX 1.5 0.005 C201 C202 C208 C209 C215 C216
DFIX 2.23 O101 O102 O103 O104 O105 O106 O201 O202 O203 O204 O205 O206
DFIX 1.5 0.01 C105 C122 C112 C123 C119 C124
DFIX 1.5 0.005 C205 C222 C212 C223 C219 C224
DFIX 2.23 O1AG O2AG
DFIX 2.23 O1BH O2BH
DFIX 2.23 O1CI O2CI
DFIX 2.23 O1DJ O2DJ
DFIX 2.23 O1EK O2EK
DFIX 2.23 O1FL O2FL
DFIX 1.23 O1AG C1A O2AG C1A O1AG C1G O2AG C1G
DFIX 1.23 O1BH C1B O2BH C1B O1BH C1H O2BH C1H
DFIX 1.23 O1CI C1C O2CI C1C O1CI C1I O2CI C1I
DFIX 1.23 O1DJ C1D O2DJ C1D O1DJ C1J O2DJ C1J
DFIX 1.23 O1EK C1E O2EK C1E O1EK C1K O2EK C1K
DFIX 1.23 O1FL C1F O2FL C1F O1FL C1L O2FL C1L
DFIX 1.5 0.01 C1A C2A C1B C2B C1C C2C C1D C2D C1E C2E C1F C2F C1G C2G C1H =
 C2H C1I C2I C1J C2J C1K C2K C1L C2L
DFIX 1.5 0.01 C5A C8A
DFIX 1.5 0.01 C11A C14A
DFIX 1.5 0.01 C17A C20A
DFIX 1.5 0.01 C1G C2G
DFIX 1.5 0.01 C5G C8G
DFIX 1.5 0.01 C11G C14G
DFIX 1.5 0.01 C17G C20G
DFIX 1.5 0.01 C5D C8D
DFIX 1.5 0.01 C11D C14D
DFIX 1.5 0.01 C17D C20D
DFIX 1.5 0.01 C5J C8J
DFIX 1.5 0.01 C11J C14J
DFIX 1.5 0.01 C17J C20J
DFIX 1.5 0.01 C5B C8B
DFIX 1.5 0.01 C11B C14B
DFIX 1.5 0.01 C17B C20B
DFIX 1.5 0.01 C5H C8H
DFIX 1.5 0.01 C11H C14H
DFIX 1.5 0.01 C17H C20H
DFIX 1.5 0.01 C5E C8E
DFIX 1.5 0.01 C11E C14E
DFIX 1.5 0.01 C17E C20E
DFIX 1.5 0.01 C5K C8K
DFIX 1.5 0.01 C11K C14K
DFIX 1.5 0.01 C17K C20K
DFIX 1.5 0.01 C5C C8C
DFIX 1.5 0.01 C11C C14C
DFIX 1.5 0.01 C17C C20C
DFIX 1.5 0.01 C5I C8I
DFIX 1.5 0.01 C11I C14I
DFIX 1.5 0.01 C17I C20I
DFIX 1.5 0.01 C5F C8F
DFIX 1.5 0.01 C5L C8L
DFIX 1.5 0.01 C11L C14L
DFIX 1.5 0.01 C17L C20L
DFIX -3.2 C20D C16J
DFIX -3.7 C20A C16L
DFIX -3.1 C19J C12J
DFIX -3.1 C4J C13J
DFIX -3.1 C20D C18G
DFIX -3.1 C19G C10G
DFIX -3.1 C13G C6G
DFIX -3.1 C13G C4G
DFIX -3.1 C19H C12H
DFIX -3.1 C15H C10H
DFIX -3.1 C4H C9H
DFIX -3.1 C6H C13H
DFIX -3.1 C20E C18I
DFIX -3.1 C20F C16I
DFIX -3.1 C19I C12I
DFIX -3.1 C15I C10I
DFIX -3.1 C13I C6I
DFIX -3.1 C9I C4I
DFIX -3.1 C20C C16K
DFIX -3.1 C20B C18K
DFIX -3.6 C20F C18G
DFIX -3.1 C20A C18J
DFIX -3.1 C20B C16J
DFIX -3.7 C20J C16A
DFIX -3.1 C20J C18A
DFIX -3.1 C20L C16A
DFIX -3.1 C15A C12A
DFIX -3.1 C19A C10A
DFIX -3.7 C20L C18C
DFIX -3.1 C20L C16C
DFIX -3.1 C20K C18C
DFIX -3.1 C20D C18H
DFIX -3.1 C20E C16H
DFIX -3.1 C13F C6F
DFIX -3.1 C9F C4F
DFIX 1.5 0.01 C11F C14F
DFIX 1.5 0.01 C17F C20F
DFIX -3.1 C20I C18F
DFIX -3.1 C20G C16F
DFIX -3.1 C19F C12F
DFIX -3.1 C15F C10F
DFIX -3.7 C20G C18F
DFIX -3.1 C15D C10D
DFIX -3.1 C19D C12D
DFIX -3.1 C13E C4E
DFIX -3.1 C9E C6E
DFIX -3.7 C20I C18E
DFIX -3.7 C20H C18D
DFIX -3.7 0.01 C18B C20J
DFIX -3.7 0.01 C20K C16B
DFIX -3.7 0.01 C20D C16H
DFIX -3.7 0.01 C20E C18H
SADI 0.01 Tb1 O2H Tb2 O2H Tb3 O2H Tb4 O8H Tb5 O8H Tb6 O8H
SADI 0.01 Tb1 O4H Tb2 O5H Tb3 O7H Tb4 O1H Tb5 O3H Tb6 O6H
SADI 0.01 Tb1 O1H Tb1 O3H Tb2 O1H Tb2 O6H Tb3 O3H Tb3 O6H Tb4 O4H Tb4 O5H =
 TB5 O4H TB5 O7H TB6 O5H TB6 O7H
SADI O1H O8H O2H O4H O2H O5H O2H O7H O3H O6H O3H O8H O4H O5H O6H O8H
SADI Tb1 C101 Tb2 C101 Tb6_$10 C108 Tb4_$10 C108 Tb4_$11 C115 Tb5_$11 C115 =
 TB1 C201 TB3 C201 TB2_$9 C208 TB3_$9 C208 TB5_$11 C215 TB6_$11 C215
SADI 0.01 Tb1 O101 Tb2 O102 Tb6 O103_$1 Tb4 O104_$1 Tb4 O105_$8 Tb5 O106_$8 =
 TB1 O201 TB3 O202 TB3 O203_$9 TB2 O204_$9 TB6 O205_$8 TB5 O206_$8
SADI C103 C101 C107 C101
SADI C110 C108 C114 C108
SADI C117 C115 C121 C115
SADI C122 C104 C122 C106
SADI C123 C111 C123 C113
SADI C124 C118 C124 C120
SADI N103 C105 N101 C105
SADI N101 C112 N102 C112
SADI N102 C119 N103 C119
SADI O201 C202 O202 C202
SADI O203 C209 O204 C209
SADI O205 C216 O206 C216
SADI C203 C201 C207 C201
SADI C210 C208 C214 C208
SADI C217 C215 C221 C215
SADI C222 C204 C222 C206
SADI C223 C211 C223 C213
SADI C224 C218 C224 C220
SADI N201 C205 N203 C205
SADI N201 C212 N202 C212
SADI N202 C219 N203 C219
SADI 0.01 Tb3 O1AG Tb5 O2AG Tb1_$5 O1BH Tb4_$5 O2BH Tb6_$6 O1CI Tb2_$6 O2CI =
 TB1_$8 O1DJ TB5_$8 O2DJ TB4_$7 O1EK TB2_$7 O2EK TB6_$9 O1FL TB3_$9 O2FL
SADI Tb5 C1A Tb3 C1A Tb1 C1B_$2 Tb4 C1B_$2 Tb6 C1I_$3 Tb2 C1I_$3 Tb5 =
 C1D_$11 TB1 C1D_$11 TB4 C1E_$4 TB2 C1E_$4 TB3 C1F_$9 TB6 C1F_$9 TB3 C1G TB5 =
 C1G TB1 C1H_$2 TB4 C1H_$2 TB6 C1C_$3 TB2 C1C_$3 TB5 C1J_$11 TB1 C1J_$11 TB4 =
 C1K_$4 TB2 C1K_$4 TB6 C1L_$9 TB3 C1L_$9
SADI O1AG C2A O2AG C2A
SADI C3A C1A C7A C1A
SADI C8A C4A C8A C6A
SADI C9A C5A C5A C13A
SADI C14A C10A C14A C12A
SADI C15A C11A C19A C11A
SADI C20A C16A C20A C18A
SADI O1AG C2G O2AG C2G
SADI C3G C1G C7G C1G
SADI C8G C4G C8G C6G
SADI C9G C5G C5G C13G
SADI C14G C10G C14G C12G
SADI 0.05 C15G C11G C19G C11G
SADI C20G C16G C20G C18G
SADI C19G C11G C15G C11G
SADI O1DJ C2D O2DJ C2D
SADI C3D C1D C7D C1D
SADI C8D C4D C8D C6D
SADI C9D C5D C5D C13D
SADI C14D C10D C14D C12D
SADI C15D C11D C19D C11D
SADI C20D C16D C20D C18D
SADI O1DJ C2J O2DJ C2J
SADI C3J C1J C7J C1J
SADI C8J C4J C8J C6J
SADI C9J C5J C5J C13J
SADI C14J C10J C14J C12J
SADI C15J C11J C19J C11J
SADI C20J C16J C20J C18J
SADI O1BH C2B O2BH C2B
SADI C3B C1B C7B C1B
SADI C8B C4B C8B C6B
SADI C9B C5B C5B C13B
SADI C14B C10B C14B C12B
SADI C15B C11B C19B C11B
SADI C20B C16B C20B C18B
SADI O1BH C2H O2BH C2H
SADI C3H C1H C7H C1H
SADI C8H C4H C8H C6H
SADI C9H C5H C5H C13H
SADI C14H C12H C14H C10H
SADI C15H C11H C19H C11H
SADI C20H C16H C20H C18H
SADI O1EK C2E O2EK C2E
SADI C3E C1E C7E C1E
SADI C8E C4E C8E C6E
SADI C9E C5E C5E C13E
SADI C14E C10E C14E C12E
SADI C15E C11E C19E C11E
SADI C20E C16E C20E C18E
SADI O1EK C2K O2EK C2K
SADI C3K C1K C7K C1K
SADI C8K C4K C8K C6K
SADI C9K C5K C5K C13K
SADI C14K C10K C14K C12K
SADI C15K C11K C19K C11K
SADI C20K C16K C20K C18K
SADI O1CI C2C O2CI C2C
SADI C3C C1C C7C C1C
SADI C8C C4C C8C C6C
SADI C9C C5C C5C C13C
SADI C14C C10C C14C C12C
SADI C15C C11C C19C C11C
SADI C20C C16C C20C C18C
SADI O1CI C2I O2CI C2I
SADI C3I C1I C7I C1I
SADI C8I C4I C8I C6I
SADI C9I C5I C5I C13I
SADI C15I C11I C19I C11I
SADI C14I C12I C14I C10I
SADI C20I C16I C20I C18I
SADI O1FL C2F O2FL C2F
SADI C7F C1F C3F C1F
SADI C8F C6F C8F C4F
SADI C9F C5F C5F C13F
SADI O1FL C2L O2FL C2L
SADI C3L C1L C7L C1L
SADI C8L C4L C8L C6L
SADI C5L C13L C9L C5L
SADI C14L C10L C14L C12L
SADI C19L C11L C15L C11L
SADI C20L C18L C20L C16L
SADI C20L C17A C20J C17A
SADI C20A C17L C20C C17L
SADI C20L C17C C20K C17C
SADI C20C C17K C20B C17K
SADI C20K C17B C20J C17B
SADI C20B C17J C20A C17J
SADI C20G C17D C20H C17D
SADI C20D C17H C20E C17H
SADI C20H C17E C20I C17E
SADI C20E C17I C20F C17I
SADI C20F C17G C20D C17G
SADI C14F C12F C14F C10F
SADI C15F C11F C19F C11F
SADI C20F C18F C20F C16F
SADI C20I C17F C20G C17F
FLAT 0.05 Tb1 Tb2 Tb5 Tb6 O101 O102
FLAT 0.05 Tb1 Tb3 Tb4 Tb6 O103_$1 O104_$1
FLAT 0.05 Tb2 Tb3 Tb4 Tb5 O105_$8 O106_$8
FLAT 0.05 Tb1 Tb3 Tb4 Tb6 O201 O202
FLAT 0.05 Tb2 Tb3 Tb4 Tb5 O203_$9 O204_$9
FLAT 0.05 Tb1 Tb2 Tb5 Tb6 O205_$8 O206_$8
FLAT 0.02 O101 O102 C101 C102
FLAT 0.02 O103 O104 C108 C109
FLAT 0.02 O105 O106 C115 C116
FLAT 0.05 C101 C102 C103 C107
FLAT 0.05 C104 C105 C106 C122
FLAT 0.05 C108 C109 C110 C114
FLAT 0.07 C111 C112 C113 C123
FLAT 0.07 C115 C116 C117 C121
FLAT 0.07 C118 C119 C120 C124
FLAT 0.07 N101 N102 C112 C123
FLAT 0.07 N102 N103 C119 C124
FLAT 0.07 N101 N103 C105 C122
FLAT 0.02 O201 O202 C201 C202
FLAT 0.02 O203 O204 C208 C209
FLAT 0.02 O205 O206 C215 C216
FLAT 0.05 C201 C202 C203 C207
FLAT 0.05 C208 C209 C210 C214
FLAT 0.05 C215 C216 C217 C221
FLAT 0.07 C204 C205 C206 C222
FLAT 0.07 C211 C212 C213 C223
FLAT 0.07 C218 C219 C220 C224
FLAT 0.07 N201 N203 C205 C222
FLAT 0.07 N201 N202 C212 C223
FLAT 0.07 N202 N203 C219 C224
FLAT 0.05 Tb2 Tb3 Tb4 Tb5 O1AG O2AG
FLAT 0.05 Tb1 Tb3 Tb4 Tb6 O1BH_$2 O2BH_$2
FLAT 0.05 Tb1 Tb2 Tb5 Tb6 O1CI_$3 O2CI_$3
FLAT 0.05 Tb1 Tb2 Tb5 Tb6 O1DJ_$11 O2DJ_$11
FLAT 0.05 Tb1 Tb3 Tb4 Tb6 O1FL_$9 O2FL_$9
FLAT 0.05 Tb2 Tb3 Tb4 Tb5 O1EK_$4 O2EK_$4
FLAT 0.02 O1AG O2AG C1A C2A
FLAT 0.02 O1BH O2BH C1B C2B
FLAT 0.02 O1BH O2BH C1H C2H
FLAT 0.02 O1CI O2CI C1C C2C
FLAT 0.02 O1CI O2CI C1I C2I
FLAT 0.02 O1DJ O2DJ C1D C2D
FLAT 0.02 O1DJ O2DJ C1J C2J
FLAT 0.02 O1FL O2FL C1F C2F
FLAT 0.02 O1FL O2FL C1L C2L
FLAT 0.02 O1EK O2EK C1E C2E
FLAT 0.02 O1EK O2EK C1K C2K
FLAT 0.05 C1A C2A C3A C7A
FLAT 0.07 C5A C8A C9A C13A
FLAT 0.07 C10A C11A C12A C14A
FLAT 0.07 C11A C14A C15A C19A
FLAT 0.07 C16A C17A C18A C20A
FLAT 0.02 O1AG O2AG C1G C2G
FLAT 0.05 C1G C2G C3G C7G
FLAT 0.05 C4G C5G C6G C8G
FLAT 0.05 C5G C8G C9G C13G
FLAT 0.05 C10G C11G C12G C14G
FLAT 0.05 C11G C14G C15G C19G
FLAT 0.05 C16G C17G C18G C20G
FLAT 0.05 C1D C2D C3D C7D
FLAT 0.05 C4D C5D C6D C8D
FLAT 0.05 C5D C8D C9D C13D
FLAT 0.05 C10D C11D C12D C14D
FLAT 0.05 C11D C14D C15D C19D
FLAT 0.05 C16D C17D C18D C20D
FLAT 0.05 C1J C2J C3J C7J
FLAT 0.05 C4J C5J C6J C8J
FLAT 0.05 C5J C8J C9J C13J
FLAT 0.05 C10J C11J C12J C14J
FLAT 0.05 C11J C14J C15J C19J
FLAT 0.05 C16J C17J C18J C20J
FLAT 0.05 C1B C2B C3B C7B
FLAT 0.05 C4B C5B C6B C8B
FLAT 0.05 C5B C8B C9B C13B
FLAT 0.05 C10B C11B C12B C14B
FLAT 0.05 C11B C14B C15B C19B
FLAT 0.05 C16B C17B C18B C20B
FLAT 0.05 C1H C2H C3H C7H
FLAT 0.05 C4H C5H C6H C8H
FLAT 0.05 C10H C11H C12H C14H
FLAT 0.05 C11H C14H C15H C19H
FLAT 0.05 C16H C17H C18H C20H
FLAT 0.05 C1E C2E C3E C7E
FLAT 0.05 C4E C5E C6E C8E
FLAT 0.05 C5E C8E C9E C13E
FLAT 0.05 C10E C11E C12E C14E
FLAT 0.05 C11E C14E C15E C19E
FLAT 0.05 C16E C17E C18E C20E
FLAT 0.05 C1K C2K C3K C7K
FLAT 0.05 C4K C5K C6K C8K
FLAT 0.05 C5K C8K C9K C13K
FLAT 0.05 C10K C11K C12K C14K
FLAT 0.05 C11K C14K C15K C19K
FLAT 0.05 C16K C17K C18K C20K
FLAT 0.05 C1C C2C C3C C7C
FLAT 0.05 C4C C5C C6C C8C
FLAT 0.05 C5C C8C C9C C13C
FLAT 0.05 C10C C11C C12C C14C
FLAT 0.05 C11C C14C C15C C19C
FLAT 0.05 C16C C17C C18C C20C
FLAT 0.05 C1F C2F C3F C7F
FLAT 0.05 C4F C5F C6F C8F
FLAT 0.05 C5F C8F C9F C13F
FLAT 0.05 C1L C2L C3L C7L
FLAT 0.05 C4L C5L C6L C8L
FLAT 0.05 C5L C8L C9L C13L
FLAT 0.05 C10L C11L C12L C14L
FLAT 0.05 C11L C14L C15L C19L
FLAT 0.05 C16L C17L C18L C20L
FLAT 0.15 C20A C20J C20B C20K C20C C20L C17A C17J C17B C17K C17C C17L
FLAT 0.05 C4I C5I C6I C8I
FLAT 0.05 C5I C8I C9I C13I
FLAT 0.05 C10I C11I C12I C14I
FLAT 0.05 C1I C2I C3I C7I
FLAT 0.05 C11I C14I C15I C19I
FLAT 0.05 C5H C8H C9H C13H
FLAT 0.05 C10F C11F C12F C14F
FLAT 0.05 C11F C14F C15F C19F
FLAT 0.05 C16F C17F C18F C20F
FLAT 0.15 C20D C20H C20E C20I C20F C20G C17D C17H C17E C17I C17F C17G
SIMU 0.01 0.02 2 O101 > O106 C101 > C122 N101 C123 N102 C124 N103
SIMU 0.01 0.02 2 O201 > O206 C201 > C222 N201 C223 N202 C224 N203
SIMU 0.01 0.02 2 O1AG O2AG O1BH O2BH O1CI O2CI O1DJ O2DJ O1EK O2EK O1FL =
 O2FL C1A > C19A C1B > C19B C1C > C19C C1D > C19D C1E > C19E C1F > C19F C1G =
 > C19G C1H > C19H C1I > C19I C1J > C19J C1K > C19K C1L > C19L C20A C20J =
 C20B C20K C20C C20L C20D C20H C20E C20I C20F C20G
ISOR 0.01 0.02 Tb5 Tb3 Tb2 Tb4 Tb6 Tb1
EADP O1H > O8H O101 > O106 O201 > O206 O1AG O2AG O1BH O2BH O1CI O2CI O1DJ =
 O2DJ O1EK O2EK O1FL O2FL

L.S. 5 0 2603
PLAN  20
SIZE 0.05 0.05 0.15
TEMP -173
BOND $H
CONF
ABIN
fmap 2 53
acta
MERG 2
OMIT 0 180
OMIT 0 1 -1
OMIT 0 1 1
OMIT 0 1 -7
OMIT 9 9 0
OMIT -1 2 -15
OMIT 11 13 0
OMIT 7 7 0
OMIT -3 15 0
REM <olex2.extras>
REM <HklSrc "%.\\kme_1181_sq.hkl">
REM </olex2.extras>

WGHT    0.200000
FVAR       0.00943
TB1   5    0.457528    0.260952    0.245781    11.00000    0.12775    0.11500 =
         0.13931    0.03443   -0.00578   -0.00330
TB2   5    0.554077    0.261172    0.246255    11.00000    0.12771    0.10901 =
         0.15174    0.02862   -0.00038   -0.00264
TB3   5    0.505470    0.309889    0.294822    11.00000    0.11259    0.10141 =
         0.11210    0.02697    0.00316   -0.00626
TB4   5    0.505844    0.180744    0.261689    11.00000    0.16943    0.15533 =
         0.18516    0.01572   -0.01913   -0.02352
TB5   5    0.456401    0.228786    0.310712    11.00000    0.17529    0.13436 =
         0.14886    0.02780   -0.00211    0.00910
TB6   5    0.554137    0.229215    0.310899    11.00000    0.14879    0.13997 =
         0.18417    0.01430    0.00020   -0.00015
O1H   4    0.506119    0.231958    0.236785    11.00000    0.16744
O2H   4    0.505599    0.289963    0.256277    11.00000    0.16744
O3H   4    0.458374    0.279204    0.284644    11.00000    0.16744
O4H   4    0.458563    0.210748    0.271780    11.00000    0.16744
O5H   4    0.552862    0.211125    0.272118    11.00000    0.16744
O6H   4    0.552933    0.279628    0.285074    11.00000    0.16744
O7H   4    0.505134    0.257865    0.318987    11.00000    0.16744
O8H   4    0.505421    0.200986    0.300176    11.00000    0.16744
O101  4    0.477720    0.278596    0.210332    11.00000    0.16744
O102  4    0.534666    0.278715    0.210573    11.00000    0.16744
O103  4    0.674935    0.428856    0.059741    11.00000    0.16744
O104  4    0.646646    0.457362    0.030770    11.00000    0.16744
O105  4    0.354680    0.469337    0.029869    11.00000    0.16744
O106  4    0.325749    0.440613    0.058591    11.00000    0.16744
C101  1    0.506126    0.284449    0.203456    11.00000    0.17145
AFIX  66
C102  1    0.503257    0.303465    0.180590    11.00000    0.18155
C103  1    0.532284    0.311435    0.168007    11.00000    0.18798
AFIX  43
H103  2    0.553676    0.304993    0.174015    11.00000   -1.20000
AFIX  65
C104  1    0.530011    0.328829    0.146633    11.00000    0.18866
AFIX  43
H104  2    0.549849    0.334276    0.138033    11.00000   -1.20000
AFIX  65
C105  1    0.498711    0.338254    0.137841    11.00000    0.18811
C106  1    0.469683    0.330285    0.150424    11.00000    0.18376
AFIX  43
H106  2    0.448291    0.336727    0.144416    11.00000   -1.20000
AFIX  65
C107  1    0.471956    0.312891    0.171799    11.00000    0.18165
AFIX  43
H107  2    0.452117    0.307444    0.180399    11.00000   -1.20000
AFIX   0
C108  1    0.651400    0.438628    0.047587    11.00000    0.16892
AFIX  66
C109  1    0.619387    0.422926    0.056079    11.00000    0.17422
C110  1    0.589138    0.439585    0.052151    11.00000    0.17150
AFIX  43
H110  2    0.588927    0.460336    0.043768    11.00000   -1.20000
AFIX  65
C111  1    0.559199    0.425884    0.060488    11.00000    0.17519
AFIX  43
H111  2    0.538525    0.437270    0.057804    11.00000   -1.20000
AFIX  65
C112  1    0.559507    0.395522    0.072753    11.00000    0.17795
C113  1    0.589755    0.378862    0.076681    11.00000    0.17470
AFIX  43
H113  2    0.589966    0.358111    0.085063    11.00000   -1.20000
AFIX  65
C114  1    0.619695    0.392563    0.068344    11.00000    0.17484
AFIX  43
H114  2    0.640368    0.381177    0.071028    11.00000   -1.20000
AFIX   0
C115  1    0.349322    0.450937    0.046957    11.00000    0.17217
AFIX  66
C116  1    0.379374    0.434932    0.058181    11.00000    0.17840
C117  1    0.376884    0.403098    0.068266    11.00000    0.18672
AFIX  43
H117  2    0.355632    0.392236    0.069223    11.00000   -1.20000
AFIX  65
C118  1    0.405488    0.387158    0.076949    11.00000    0.19104
AFIX  43
H118  2    0.403786    0.365401    0.083842    11.00000   -1.20000
AFIX  65
C119  1    0.436583    0.403052    0.075549    11.00000    0.18551
C120  1    0.439074    0.434886    0.065464    11.00000    0.18039
AFIX  43
H120  2    0.460326    0.445748    0.064507    11.00000   -1.20000
AFIX  65
C121  1    0.410469    0.450826    0.056781    11.00000    0.17806
AFIX  43
H121  2    0.412172    0.472584    0.049888    11.00000   -1.20000
AFIX  66
C122  1    0.497468    0.357221    0.115202    11.00000    0.18667
N101  3    0.527700    0.364737    0.103967    11.00000    0.18695
C123  1    0.527736    0.383456    0.083097    11.00000    0.18375
N102  3    0.497540    0.394659    0.073460    11.00000    0.17924
C124  1    0.467308    0.387143    0.084694    11.00000    0.18302
N103  3    0.467271    0.368424    0.105565    11.00000    0.18202
AFIX   0
O201  4    0.440164    0.315302    0.246640    11.00000    0.16744
O202  4    0.468262    0.342549    0.275044    11.00000    0.16744
O203  4    0.457561    0.656204    0.275982    11.00000    0.16744
O204  4    0.429008    0.684225    0.247566    11.00000    0.16744
O205  4    0.288519    0.533481    0.096359    11.00000    0.16744
O206  4    0.288782    0.476454    0.096297    11.00000    0.16744
C201  1    0.450759    0.340426    0.257210    11.00000    0.16056
AFIX  66
C202  1    0.440393    0.373621    0.246578    11.00000    0.15010
C203  1    0.453880    0.403324    0.255492    11.00000    0.15141
AFIX  43
H203  2    0.469827    0.402597    0.268062    11.00000   -1.20000
AFIX  65
C204  1    0.444035    0.434089    0.246016    11.00000    0.15287
AFIX  43
H204  2    0.453252    0.454390    0.252109    11.00000   -1.20000
AFIX  65
C205  1    0.420703    0.435152    0.227625    11.00000    0.15078
C206  1    0.407216    0.405450    0.218710    11.00000    0.14940
AFIX  43
H206  2    0.391269    0.406176    0.206141    11.00000   -1.20000
AFIX  65
C207  1    0.417061    0.374684    0.228186    11.00000    0.14939
AFIX  43
H207  2    0.407843    0.354384    0.222093    11.00000   -1.20000
AFIX   0
C208  1    0.440337    0.659360    0.257825    11.00000    0.16470
AFIX  66
C209  1    0.432382    0.625687    0.246983    11.00000    0.15729
C210  1    0.421691    0.622796    0.223548    11.00000    0.15275
AFIX  43
H210  2    0.419253    0.642360    0.213998    11.00000   -1.20000
AFIX  65
C211  1    0.414569    0.591280    0.214085    11.00000    0.15481
AFIX  43
H211  2    0.407263    0.589304    0.198068    11.00000   -1.20000
AFIX  65
C212  1    0.418137    0.562656    0.228058    11.00000    0.15677
C213  1    0.428828    0.565546    0.251494    11.00000    0.15311
AFIX  43
H213  2    0.431266    0.545983    0.261043    11.00000   -1.20000
AFIX  65
C214  1    0.435950    0.597062    0.260956    11.00000    0.15061
AFIX  43
H214  2    0.443257    0.599038    0.276973    11.00000   -1.20000
AFIX   0
C215  1    0.295681    0.505114    0.103172    11.00000    0.16682
AFIX  66
C216  1    0.317726    0.503866    0.124824    11.00000    0.16621
C217  1    0.318339    0.474581    0.138327    11.00000    0.16778
AFIX  43
H217  2    0.304975    0.455830    0.133788    11.00000   -1.20000
AFIX  65
C218  1    0.338506    0.472731    0.158470    11.00000    0.16128
AFIX  43
H218  2    0.338925    0.452716    0.167699    11.00000   -1.20000
AFIX  65
C219  1    0.358059    0.500166    0.165112    11.00000    0.15647
C220  1    0.357446    0.529451    0.151609    11.00000    0.15901
AFIX  43
H220  2    0.370811    0.548202    0.156148    11.00000   -1.20000
AFIX  65
C221  1    0.337280    0.531302    0.131465    11.00000    0.16534
AFIX  43
H221  2    0.336861    0.551317    0.122237    11.00000   -1.20000
AFIX  66
C222  1    0.409697    0.468360    0.217304    11.00000    0.14934
N201  3    0.419379    0.498616    0.227643    11.00000    0.15489
C223  1    0.409003    0.528935    0.217742    11.00000    0.15552
N202  3    0.388945    0.528999    0.197502    11.00000    0.15239
C224  1    0.379263    0.498744    0.187163    11.00000    0.15226
N203  3    0.389639    0.468424    0.197063    11.00000    0.14676
AFIX   0
O1AG  4    0.470779    0.316058    0.322171    11.00000    0.16744
O2AG  4    0.441344    0.268904    0.332147    11.00000    0.16744
O1BH  4    0.056675    0.279415    0.724561    11.00000    0.16744
O2BH  4    0.028151    0.326586    0.734002    11.00000    0.16744
O1CI  4    0.235932    0.897461    0.547620    11.00000    0.16744
O2CI  4    0.254714    0.897486    0.509719    11.00000    0.16744
O1DJ  4    0.254377    0.091209    0.508657    11.00000    0.16744
O2DJ  4    0.235419    0.091738    0.546787    11.00000    0.16744
O1EK  4    0.040105    0.673118    0.734249    11.00000    0.16744
O2EK  4    0.068555    0.720501    0.725104    11.00000    0.16744
O1FL  4    0.432058    0.729914    0.331912    11.00000    0.16744
O2FL  4    0.460655    0.682260    0.322543    11.00000    0.16744
PART 1
C1A   1    0.448958    0.299476    0.331254    10.50000    0.17166
AFIX  66
C2A   1    0.423459    0.319322    0.345446    10.50000    0.17697
C3A   1    0.391048    0.306654    0.347941    10.50000    0.17726
AFIX  43
H3A   2    0.385217    0.285766    0.340837    10.50000   -1.20000
AFIX  65
C4A   1    0.367169    0.324547    0.360832    10.50000    0.18223
AFIX  43
H4A   2    0.345018    0.315889    0.362537    10.50000   -1.20000
AFIX  65
C5A   1    0.375701    0.355109    0.371227    10.50000    0.18772
C6A   1    0.408112    0.367778    0.368732    10.50000    0.18521
AFIX  43
H6A   2    0.413943    0.388666    0.375837    10.50000   -1.20000
AFIX  65
C7A   1    0.431991    0.349885    0.355842    10.50000    0.17982
AFIX  43
H7A   2    0.454142    0.358543    0.354136    10.50000   -1.20000
AFIX  66
C8A   1    0.350390    0.372742    0.386995    10.50000    0.19708
C9A   1    0.332369    0.354152    0.403607    10.50000    0.20158
AFIX  43
H9A   2    0.335642    0.330526    0.404744    10.50000   -1.20000
AFIX  65
C10A  1    0.309560    0.370131    0.418555    10.50000    0.20422
AFIX  43
H10A  2    0.297244    0.357425    0.429909    10.50000   -1.20000
AFIX  65
C11A  1    0.304772    0.404699    0.416892    10.50000    0.20609
C12A  1    0.322793    0.423289    0.400280    10.50000    0.20466
AFIX  43
H12A  2    0.319521    0.446915    0.399143    10.50000   -1.20000
AFIX  65
C13A  1    0.345602    0.407311    0.385331    10.50000    0.20016
AFIX  43
H13A  2    0.357919    0.420016    0.373978    10.50000   -1.20000
AFIX  66
C14A  1    0.281117    0.422447    0.434088    10.50000    0.20770
C15A  1    0.257413    0.445275    0.425717    10.50000    0.20899
AFIX  43
H15A  2    0.255343    0.449250    0.409131    10.50000   -1.20000
AFIX  65
C16A  1    0.236739    0.462288    0.441615    10.50000    0.21296
AFIX  43
H16A  2    0.220538    0.477890    0.435895    10.50000   -1.20000
AFIX  65
C17A  1    0.239768    0.456472    0.465883    10.50000    0.21160
C18A  1    0.263471    0.433643    0.474254    10.50000    0.20778
AFIX  43
H18A  2    0.265541    0.429668    0.490840    10.50000   -1.20000
AFIX  65
C19A  1    0.284146    0.416631    0.458356    10.50000    0.20680
AFIX  43
H19A  2    0.300346    0.401028    0.464077    10.50000   -1.20000
AFIX   0
C1B   1    0.046582    0.308152    0.722894    10.50000    0.17165
AFIX  66
C2B   1    0.060533    0.325670    0.701478    10.50000    0.17762
C3B   1    0.088402    0.346531    0.703880    10.50000    0.18171
AFIX  43
H3B   2    0.098747    0.349267    0.718980    10.50000   -1.20000
AFIX  65
C4B   1    0.101136    0.363387    0.684189    10.50000    0.18508
AFIX  43
H4B   2    0.120183    0.377645    0.685831    10.50000   -1.20000
AFIX  65
C5B   1    0.086000    0.359384    0.662096    10.50000    0.18781
C6B   1    0.058130    0.338523    0.659694    10.50000    0.18638
AFIX  43
H6B   2    0.047786    0.335787    0.644594    10.50000   -1.20000
AFIX  65
C7B   1    0.045396    0.321666    0.679385    10.50000    0.18167
AFIX  43
H7B   2    0.026349    0.307409    0.677743    10.50000   -1.20000
AFIX  66
C8B   1    0.100180    0.377395    0.640822    10.50000    0.19136
C9B   1    0.079481    0.385475    0.621742    10.50000    0.19158
AFIX  43
H9B   2    0.056258    0.379838    0.622189    10.50000   -1.20000
AFIX  65
C10B  1    0.092760    0.401803    0.602008    10.50000    0.19465
AFIX  43
H10B  2    0.078613    0.407325    0.588968    10.50000   -1.20000
AFIX  65
C11B  1    0.126739    0.410051    0.601355    10.50000    0.19887
C12B  1    0.147438    0.401971    0.620435    10.50000    0.19600
AFIX  43
H12B  2    0.170661    0.407608    0.619988    10.50000   -1.20000
AFIX  65
C13B  1    0.134160    0.385643    0.640169    10.50000    0.19350
AFIX  43
H13B  2    0.148307    0.380121    0.653209    10.50000   -1.20000
AFIX  66
C14B  1    0.141344    0.427520    0.580087    10.50000    0.20781
C15B  1    0.134783    0.415850    0.557262    10.50000    0.21128
AFIX  43
H15B  2    0.120588    0.396884    0.554997    10.50000   -1.20000
AFIX  65
C16B  1    0.148991    0.431930    0.537751    10.50000    0.21434
AFIX  43
H16B  2    0.144507    0.423954    0.522151    10.50000   -1.20000
AFIX  65
C17B  1    0.169760    0.459680    0.541065    10.50000    0.21365
C18B  1    0.176321    0.471350    0.563889    10.50000    0.21093
AFIX  43
H18B  2    0.190516    0.490316    0.566154    10.50000   -1.20000
AFIX  65
C19B  1    0.162113    0.455270    0.583401    10.50000    0.21018
AFIX  43
H19B  2    0.166598    0.463246    0.599000    10.50000   -1.20000
AFIX   0
C1C   1    0.243132    0.886307    0.528232    10.50000    0.16958
AFIX  66
C2C   1    0.236587    0.849184    0.525513    10.50000    0.17191
C3C   1    0.240360    0.834689    0.503186    10.50000    0.17410
AFIX  43
H3C   2    0.246374    0.848266    0.489953    10.50000   -1.20000
AFIX  65
C4C   1    0.235334    0.800330    0.500222    10.50000    0.17581
AFIX  43
H4C   2    0.237913    0.790424    0.484962    10.50000   -1.20000
AFIX  65
C5C   1    0.226535    0.780465    0.519584    10.50000    0.17663
C6C   1    0.222761    0.794959    0.541910    10.50000    0.17489
AFIX  43
H6C   2    0.216747    0.781383    0.555143    10.50000   -1.20000
AFIX  65
C7C   1    0.227787    0.829319    0.544875    10.50000    0.17238
AFIX  43
H7C   2    0.225208    0.839225    0.560134    10.50000   -1.20000
AFIX  66
C8C   1    0.221929    0.743226    0.516211    10.50000    0.18252
C9C   1    0.246709    0.724917    0.504515    10.50000    0.18417
AFIX  43
H9C   2    0.266186    0.735988    0.498622    10.50000   -1.20000
AFIX  65
C10C  1    0.242992    0.690411    0.501441    10.50000    0.18789
AFIX  43
H10C  2    0.259928    0.677898    0.493447    10.50000   -1.20000
AFIX  65
C11C  1    0.214495    0.674214    0.510062    10.50000    0.19171
C12C  1    0.189715    0.692522    0.521758    10.50000    0.18633
AFIX  43
H12C  2    0.170238    0.681451    0.527650    10.50000   -1.20000
AFIX  65
C13C  1    0.193431    0.727028    0.524832    10.50000    0.18312
AFIX  43
H13C  2    0.176495    0.739541    0.532826    10.50000   -1.20000
AFIX  66
C14C  1    0.211231    0.636872    0.507084    10.50000    0.19989
C15C  1    0.239973    0.617559    0.503600    10.50000    0.20499
AFIX  43
H15C  2    0.261389    0.628105    0.502709    10.50000   -1.20000
AFIX  65
C16C  1    0.237380    0.582814    0.501420    10.50000    0.20835
AFIX  43
H16C  2    0.257024    0.569615    0.499039    10.50000   -1.20000
AFIX  65
C17C  1    0.206045    0.567383    0.502723    10.50000    0.20903
C18C  1    0.177302    0.586695    0.506207    10.50000    0.20422
AFIX  43
H18C  2    0.155886    0.576148    0.507098    10.50000   -1.20000
AFIX  65
C19C  1    0.179895    0.621440    0.508388    10.50000    0.20353
AFIX  43
H19C  2    0.160251    0.634639    0.510768    10.50000   -1.20000
AFIX   0
C1D   1    0.245881    0.101809    0.527932    10.50000    0.17441
AFIX  66
C2D   1    0.249574    0.139073    0.528433    10.50000    0.18205
C3D   1    0.258764    0.155173    0.549384    10.50000    0.18529
AFIX  43
H3D   2    0.262647    0.142396    0.563389    10.50000   -1.20000
AFIX  65
C4D   1    0.262272    0.189968    0.549843    10.50000    0.18752
AFIX  43
H4D   2    0.268552    0.200972    0.564162    10.50000   -1.20000
AFIX  65
C5D   1    0.256590    0.208664    0.529352    10.50000    0.19206
C6D   1    0.247401    0.192564    0.508401    10.50000    0.18833
AFIX  43
H6D   2    0.243518    0.205342    0.494395    10.50000   -1.20000
AFIX  65
C7D   1    0.243893    0.157769    0.507941    10.50000    0.18409
AFIX  43
H7D   2    0.237612    0.146766    0.493622    10.50000   -1.20000
AFIX  66
C8D   1    0.260156    0.245843    0.530061    10.50000    0.20176
C9D   1    0.243570    0.263997    0.547632    10.50000    0.20362
AFIX  43
H9D   2    0.229809    0.252647    0.558873    10.50000   -1.20000
AFIX  65
C10D  1    0.247119    0.298758    0.548755    10.50000    0.20617
AFIX  43
H10D  2    0.235784    0.311165    0.560764    10.50000   -1.20000
AFIX  65
C11D  1    0.267254    0.315365    0.532307    10.50000    0.20898
C12D  1    0.283840    0.297212    0.514736    10.50000    0.20639
AFIX  43
H12D  2    0.297601    0.308563    0.503495    10.50000   -1.20000
AFIX  65
C13D  1    0.280291    0.262451    0.513613    10.50000    0.20465
AFIX  43
H13D  2    0.291627    0.250044    0.501604    10.50000   -1.20000
AFIX  66
C14D  1    0.271235    0.352796    0.533784    10.50000    0.21272
C15D  1    0.242964    0.373292    0.535199    10.50000    0.21487
AFIX  43
H15D  2    0.221115    0.363609    0.534793    10.50000   -1.20000
AFIX  65
C16D  1    0.246660    0.407958    0.537208    10.50000    0.21495
AFIX  43
H16D  2    0.227337    0.421966    0.538175    10.50000   -1.20000
AFIX  65
C17D  1    0.278628    0.422127    0.537802    10.50000    0.21408
C18D  1    0.306900    0.401630    0.536387    10.50000    0.21529
AFIX  43
H18D  2    0.328749    0.411314    0.536792    10.50000   -1.20000
AFIX  65
C19D  1    0.303204    0.366965    0.534378    10.50000    0.21607
AFIX  43
H19D  2    0.322527    0.352956    0.533411    10.50000   -1.20000
AFIX   0
C1E   1    0.060135    0.691435    0.724605    10.50000    0.17267
AFIX  66
C2E   1    0.080341    0.672314    0.706905    10.50000    0.17831
C3E   1    0.105901    0.688249    0.694345    10.50000    0.17866
AFIX  43
H3E   2    0.110427    0.711420    0.697001    10.50000   -1.20000
AFIX  65
C4E   1    0.124838    0.670284    0.677900    10.50000    0.18203
AFIX  43
H4E   2    0.142307    0.681175    0.669316    10.50000   -1.20000
AFIX  65
C5E   1    0.118215    0.636382    0.674015    10.50000    0.18873
C6E   1    0.092655    0.620446    0.686574    10.50000    0.18506
AFIX  43
H6E   2    0.088129    0.597276    0.683918    10.50000   -1.20000
AFIX  65
C7E   1    0.073718    0.638411    0.703019    10.50000    0.18155
AFIX  43
H7E   2    0.056249    0.627520    0.711603    10.50000   -1.20000
AFIX  66
C8E   1    0.138565    0.617071    0.656530    10.50000    0.19887
C9E   1    0.137636    0.625695    0.632595    10.50000    0.20121
AFIX  43
H9E   2    0.123931    0.643855    0.627411    10.50000   -1.20000
AFIX  65
C10E  1    0.156758    0.607749    0.616247    10.50000    0.20330
AFIX  43
H10E  2    0.156123    0.613643    0.599889    10.50000   -1.20000
AFIX  65
C11E  1    0.176810    0.581177    0.623833    10.50000    0.20551
C12E  1    0.177739    0.572553    0.647768    10.50000    0.20432
AFIX  43
H12E  2    0.191443    0.554393    0.652952    10.50000   -1.20000
AFIX  65
C13E  1    0.158617    0.590499    0.664116    10.50000    0.20107
AFIX  43
H13E  2    0.159252    0.584604    0.680474    10.50000   -1.20000
AFIX  66
C14E  1    0.197804    0.562650    0.606426    10.50000    0.21041
C15E  1    0.199004    0.573127    0.582870    10.50000    0.21592
AFIX  43
H15E  2    0.185860    0.591771    0.577818    10.50000   -1.20000
AFIX  65
C16E  1    0.219435    0.556327    0.566704    10.50000    0.21613
AFIX  43
H16E  2    0.220255    0.563489    0.550605    10.50000   -1.20000
AFIX  65
C17E  1    0.238666    0.529049    0.574096    10.50000    0.21432
C18E  1    0.237466    0.518571    0.597652    10.50000    0.21402
AFIX  43
H18E  2    0.250610    0.499927    0.602703    10.50000   -1.20000
AFIX  65
C19E  1    0.217036    0.535371    0.613817    10.50000    0.21050
AFIX  43
H19E  2    0.216216    0.528209    0.629917    10.50000   -1.20000
AFIX   0
C1F   1    0.441503    0.701350    0.332860    10.50000    0.17601
AFIX  66
C2F   1    0.425239    0.682812    0.352749    10.50000    0.18444
C3F   1    0.403894    0.655906    0.348070    10.50000    0.18956
AFIX  43
H3F   2    0.398858    0.649926    0.332113    10.50000   -1.20000
AFIX  65
C4F   1    0.389919    0.637750    0.366737    10.50000    0.19430
AFIX  43
H4F   2    0.375330    0.619361    0.363539    10.50000   -1.20000
AFIX  65
C5F   1    0.397288    0.646499    0.390085    10.50000    0.19682
C6F   1    0.418632    0.673405    0.394765    10.50000    0.19494
AFIX  43
H6F   2    0.423669    0.679385    0.410722    10.50000   -1.20000
AFIX  65
C7F   1    0.432608    0.691562    0.376098    10.50000    0.18876
AFIX  43
H7F   2    0.447197    0.709951    0.379296    10.50000   -1.20000
AFIX  66
C8F   1    0.383114    0.626615    0.410261    10.50000    0.20195
C9F   1    0.388219    0.592035    0.411150    10.50000    0.20502
AFIX  43
H9F   2    0.400254    0.581084    0.398780    10.50000   -1.20000
AFIX  65
C10F  1    0.375716    0.573478    0.430139    10.50000    0.20716
AFIX  43
H10F  2    0.379206    0.549844    0.430747    10.50000   -1.20000
AFIX  65
C11F  1    0.358107    0.589500    0.448239    10.50000    0.21032
C12F  1    0.353001    0.624080    0.447350    10.50000    0.20653
AFIX  43
H12F  2    0.340967    0.635031    0.459721    10.50000   -1.20000
AFIX  65
C13F  1    0.365504    0.642638    0.428361    10.50000    0.20378
AFIX  43
H13F  2    0.362015    0.666272    0.427753    10.50000   -1.20000
AFIX  66
C14F  1    0.344431    0.569540    0.468402    10.50000    0.21474
C15F  1    0.319990    0.545280    0.464074    10.50000    0.21865
AFIX  43
H15F  2    0.312231    0.541493    0.448328    10.50000   -1.20000
AFIX  65
C16F  1    0.306902    0.526560    0.482785    10.50000    0.22148
AFIX  43
H16F  2    0.290198    0.509980    0.479827    10.50000   -1.20000
AFIX  65
C17F  1    0.318255    0.532100    0.505824    10.50000    0.22126
C18F  1    0.342696    0.556360    0.510152    10.50000    0.22023
AFIX  43
H18F  2    0.350455    0.560146    0.525898    10.50000   -1.20000
AFIX  65
C19F  1    0.355784    0.575080    0.491441    10.50000    0.21941
AFIX  43
H19F  2    0.372488    0.591660    0.494399    10.50000   -1.20000
AFIX   0
PART 0
PART 2
C1G   1    0.452304    0.297596    0.332810    10.50000    0.17160
AFIX  66
C2G   1    0.438214    0.315941    0.353682    10.50000    0.17662
C3G   1    0.409310    0.304653    0.365084    10.50000    0.17905
AFIX  43
H3G   2    0.398465    0.284702    0.359808    10.50000   -1.20000
AFIX  65
C4G   1    0.396273    0.322558    0.384207    10.50000    0.18487
AFIX  43
H4G   2    0.376518    0.314843    0.391999    10.50000   -1.20000
AFIX  65
C5G   1    0.412140    0.351751    0.391927    10.50000    0.18790
C6G   1    0.441043    0.363039    0.380525    10.50000    0.18282
AFIX  43
H6G   2    0.451888    0.382991    0.385802    10.50000   -1.20000
AFIX  65
C7G   1    0.454081    0.345135    0.361403    10.50000    0.17837
AFIX  43
H7G   2    0.473836    0.352850    0.353610    10.50000   -1.20000
AFIX  66
C8G   1    0.397942    0.371319    0.411935    10.50000    0.19725
C9G   1    0.378165    0.399391    0.407236    10.50000    0.19865
AFIX  43
H9G   2    0.374124    0.406084    0.391279    10.50000   -1.20000
AFIX  65
C10G  1    0.364301    0.417670    0.425886    10.50000    0.20052
AFIX  43
H10G  2    0.350784    0.436856    0.422674    10.50000   -1.20000
AFIX  65
C11G  1    0.370213    0.407877    0.449233    10.50000    0.20259
C12G  1    0.389990    0.379805    0.453932    10.50000    0.19985
AFIX  43
H12G  2    0.394031    0.373112    0.469889    10.50000   -1.20000
AFIX  65
C13G  1    0.403855    0.361525    0.435283    10.50000    0.19923
AFIX  43
H13G  2    0.417372    0.342339    0.438494    10.50000   -1.20000
AFIX  66
C14G  1    0.353446    0.426034    0.468831    10.50000    0.20426
C15G  1    0.371085    0.447827    0.483603    10.50000    0.20928
AFIX  43
H15G  2    0.394472    0.451384    0.481172    10.50000   -1.20000
AFIX  65
C16G  1    0.354504    0.464416    0.501931    10.50000    0.20765
AFIX  43
H16G  2    0.366559    0.479310    0.512027    10.50000   -1.20000
AFIX  65
C17G  1    0.320284    0.459211    0.505488    10.50000    0.20660
C18G  1    0.302645    0.437418    0.490716    10.50000    0.20681
AFIX  43
H18G  2    0.279257    0.433861    0.493147    10.50000   -1.20000
AFIX  65
C19G  1    0.319225    0.420829    0.472387    10.50000    0.20575
AFIX  43
H19G  2    0.307170    0.405935    0.462291    10.50000   -1.20000
AFIX   0
C1H   1    0.047870    0.308915    0.724288    10.50000    0.17167
AFIX  66
C2H   1    0.068860    0.326457    0.706266    10.50000    0.17783
C3H   1    0.057527    0.355031    0.694478    10.50000    0.18159
AFIX  43
H3H   2    0.036006    0.364104    0.698079    10.50000   -1.20000
AFIX  65
C4H   1    0.077684    0.370330    0.677422    10.50000    0.18432
AFIX  43
H4H   2    0.069938    0.389859    0.669365    10.50000   -1.20000
AFIX  65
C5H   1    0.109173    0.357054    0.672153    10.50000    0.18756
C6H   1    0.120506    0.328480    0.683941    10.50000    0.18279
AFIX  43
H6H   2    0.142027    0.319407    0.680340    10.50000   -1.20000
AFIX  65
C7H   1    0.100349    0.313181    0.700997    10.50000    0.17967
AFIX  43
H7H   2    0.108095    0.293652    0.709054    10.50000   -1.20000
AFIX  66
C8H   1    0.131257    0.373453    0.654184    10.50000    0.19080
C9H   1    0.140230    0.407007    0.657099    10.50000    0.19306
AFIX  43
H9H   2    0.132032    0.419353    0.670348    10.50000   -1.20000
AFIX  65
C10H  1    0.161199    0.422498    0.640627    10.50000    0.19577
AFIX  43
H10H  2    0.167331    0.445431    0.642619    10.50000   -1.20000
AFIX  65
C11H  1    0.173194    0.404435    0.621241    10.50000    0.19769
C12H  1    0.164221    0.370881    0.618326    10.50000    0.19491
AFIX  43
H12H  2    0.172419    0.358536    0.605076    10.50000   -1.20000
AFIX  65
C13H  1    0.143253    0.355390    0.634797    10.50000    0.19312
AFIX  43
H13H  2    0.137120    0.332457    0.632805    10.50000   -1.20000
AFIX  66
C14H  1    0.195559    0.421722    0.603927    10.50000    0.20418
C15H  1    0.183235    0.449073    0.591222    10.50000    0.20890
AFIX  43
H15H  2    0.160476    0.455873    0.593123    10.50000   -1.20000
AFIX  65
C16H  1    0.204212    0.466473    0.575736    10.50000    0.21047
AFIX  43
H16H  2    0.195789    0.485166    0.567053    10.50000   -1.20000
AFIX  65
C17H  1    0.237512    0.456523    0.572955    10.50000    0.21134
C18H  1    0.249837    0.429173    0.585660    10.50000    0.20866
AFIX  43
H18H  2    0.272596    0.422373    0.583759    10.50000   -1.20000
AFIX  65
C19H  1    0.228861    0.411773    0.601146    10.50000    0.20667
AFIX  43
H19H  2    0.237284    0.393080    0.609829    10.50000   -1.20000
AFIX   0
C1I   1    0.246725    0.886794    0.528807    10.50000    0.16954
AFIX  66
C2I   1    0.251029    0.849570    0.530571    10.50000    0.17199
C3I   1    0.259008    0.830481    0.510650    10.50000    0.17392
AFIX  43
H3I   2    0.261690    0.841097    0.495640    10.50000   -1.20000
AFIX  65
C4I   1    0.263062    0.795860    0.512692    10.50000    0.17567
AFIX  43
H4I   2    0.268515    0.782813    0.499077    10.50000   -1.20000
AFIX  65
C5I   1    0.259138    0.780327    0.534654    10.50000    0.17677
C6I   1    0.251159    0.799416    0.554575    10.50000    0.17358
AFIX  43
H6I   2    0.248477    0.788800    0.569585    10.50000   -1.20000
AFIX  65
C7I   1    0.247105    0.834037    0.552534    10.50000    0.17251
AFIX  43
H7I   2    0.241651    0.847083    0.566149    10.50000   -1.20000
AFIX  66
C8I   1    0.263475    0.743246    0.536838    10.50000    0.18523
C9I   1    0.293552    0.728255    0.529986    10.50000    0.19046
AFIX  43
H9I   2    0.311528    0.741726    0.524210    10.50000   -1.20000
AFIX  65
C10I  1    0.297327    0.693556    0.531586    10.50000    0.19467
AFIX  43
H10I  2    0.317883    0.683311    0.526903    10.50000   -1.20000
AFIX  65
C11I  1    0.271025    0.673847    0.540038    10.50000    0.19554
C12I  1    0.240948    0.688837    0.546891    10.50000    0.18819
AFIX  43
H12I  2    0.222972    0.675366    0.552667    10.50000   -1.20000
AFIX  65
C13I  1    0.237172    0.723536    0.545291    10.50000    0.18463
AFIX  43
H13I  2    0.216616    0.733781    0.549974    10.50000   -1.20000
AFIX  66
C14I  1    0.274505    0.636588    0.540670    10.50000    0.20221
C15I  1    0.270784    0.618495    0.519689    10.50000    0.20464
AFIX  43
H15I  2    0.266160    0.629944    0.505230    10.50000   -1.20000
AFIX  65
C16I  1    0.273829    0.583651    0.519864    10.50000    0.20823
AFIX  43
H16I  2    0.271286    0.571286    0.505525    10.50000   -1.20000
AFIX  65
C17I  1    0.280595    0.566900    0.541020    10.50000    0.21063
C18I  1    0.284315    0.584992    0.562000    10.50000    0.20579
AFIX  43
H18I  2    0.288940    0.573543    0.576459    10.50000   -1.20000
AFIX  65
C19I  1    0.281271    0.619835    0.561825    10.50000    0.20690
AFIX  43
H19I  2    0.283814    0.632201    0.576165    10.50000   -1.20000
AFIX   0
C1J   1    0.243035    0.102430    0.527323    10.50000    0.17437
AFIX  66
C2J   1    0.237179    0.139733    0.525148    10.50000    0.18180
C3J   1    0.234554    0.159747    0.545325    10.50000    0.18526
AFIX  43
H3J   2    0.235940    0.149833    0.560659    10.50000   -1.20000
AFIX  65
C4J   1    0.229902    0.194266    0.543066    10.50000    0.18893
AFIX  43
H4J   2    0.228108    0.207944    0.556856    10.50000   -1.20000
AFIX  65
C5J   1    0.227874    0.208771    0.520630    10.50000    0.19216
C6J   1    0.230498    0.188758    0.500453    10.50000    0.18780
AFIX  43
H6J   2    0.229112    0.198672    0.485119    10.50000   -1.20000
AFIX  65
C7J   1    0.235150    0.154239    0.502711    10.50000    0.18414
AFIX  43
H7J   2    0.236944    0.140560    0.488921    10.50000   -1.20000
AFIX  66
C8J   1    0.223449    0.246099    0.517905    10.50000    0.20229
C9J   1    0.250651    0.267441    0.521644    10.50000    0.20498
AFIX  43
H9J   2    0.271814    0.258439    0.526253    10.50000   -1.20000
AFIX  65
C10J  1    0.246890    0.301954    0.518638    10.50000    0.20765
AFIX  43
H10J  2    0.265481    0.316540    0.521193    10.50000   -1.20000
AFIX  65
C11J  1    0.215926    0.315126    0.511893    10.50000    0.21080
C12J  1    0.188723    0.293785    0.508155    10.50000    0.20841
AFIX  43
H12J  2    0.167561    0.302788    0.503546    10.50000   -1.20000
AFIX  65
C13J  1    0.192485    0.259272    0.511161    10.50000    0.20523
AFIX  43
H13J  2    0.173893    0.244686    0.508606    10.50000   -1.20000
AFIX  66
C14J  1    0.212067    0.352543    0.508953    10.50000    0.21474
C15J  1    0.223002    0.373775    0.527004    10.50000    0.21529
AFIX  43
H15J  2    0.232758    0.364604    0.540993    10.50000   -1.20000
AFIX  65
C16J  1    0.219663    0.408424    0.524588    10.50000    0.21616
AFIX  43
H16J  2    0.227137    0.422935    0.536924    10.50000   -1.20000
AFIX  65
C17J  1    0.205388    0.421842    0.504120    10.50000    0.21631
C18J  1    0.194453    0.400610    0.486069    10.50000    0.21669
AFIX  43
H18J  2    0.184697    0.409781    0.472081    10.50000   -1.20000
AFIX  65
C19J  1    0.197792    0.365961    0.488486    10.50000    0.21710
AFIX  43
H19J  2    0.190318    0.351450    0.476149    10.50000   -1.20000
AFIX   0
C1K   1    0.058598    0.691795    0.722573    10.50000    0.17267
AFIX  66
C2K   1    0.071184    0.674024    0.700404    10.50000    0.17840
C3K   1    0.071500    0.690150    0.678481    10.50000    0.18079
AFIX  43
H3K   2    0.064186    0.712842    0.677242    10.50000   -1.20000
AFIX  65
C4K   1    0.082518    0.673075    0.658372    10.50000    0.18693
AFIX  43
H4K   2    0.082734    0.684097    0.643389    10.50000   -1.20000
AFIX  65
C5K   1    0.093220    0.639874    0.660186    10.50000    0.18916
C6K   1    0.092904    0.623748    0.682108    10.50000    0.18504
AFIX  43
H6K   2    0.100218    0.601056    0.683348    10.50000   -1.20000
AFIX  65
C7K   1    0.081886    0.640822    0.702218    10.50000    0.18158
AFIX  43
H7K   2    0.081670    0.629800    0.717201    10.50000   -1.20000
AFIX  66
C8K   1    0.106051    0.621126    0.638511    10.50000    0.20022
C9K   1    0.139232    0.610075    0.638099    10.50000    0.20138
AFIX  43
H9K   2    0.153558    0.614273    0.651288    10.50000   -1.20000
AFIX  65
C10K  1    0.151452    0.592883    0.618390    10.50000    0.20327
AFIX  43
H10K  2    0.174130    0.585331    0.618109    10.50000   -1.20000
AFIX  65
C11K  1    0.130491    0.586742    0.599093    10.50000    0.20537
C12K  1    0.097310    0.597792    0.599505    10.50000    0.19983
AFIX  43
H12K  2    0.082984    0.593594    0.586316    10.50000   -1.20000
AFIX  65
C13K  1    0.085090    0.614984    0.619214    10.50000    0.19976
AFIX  43
H13K  2    0.062412    0.622537    0.619495    10.50000   -1.20000
AFIX  66
C14K  1    0.144420    0.567952    0.577895    10.50000    0.21415
C15K  1    0.178048    0.572224    0.571803    10.50000    0.21600
AFIX  43
H15K  2    0.191760    0.587323    0.580610    10.50000   -1.20000
AFIX  65
C16K  1    0.191611    0.554405    0.552825    10.50000    0.21647
AFIX  43
H16K  2    0.214594    0.557325    0.548661    10.50000   -1.20000
AFIX  65
C17K  1    0.171547    0.532313    0.539938    10.50000    0.21868
C18K  1    0.137920    0.528041    0.546030    10.50000    0.22028
AFIX  43
H18K  2    0.124208    0.512942    0.537223    10.50000   -1.20000
AFIX  65
C19K  1    0.124356    0.545860    0.565009    10.50000    0.21888
AFIX  43
H19K  2    0.101374    0.542940    0.569172    10.50000   -1.20000
AFIX   0
C1L   1    0.439875    0.700475    0.332153    10.50000    0.17598
AFIX  66
C2L   1    0.418090    0.680557    0.348814    10.50000    0.18473
C3L   1    0.425913    0.647200    0.353784    10.50000    0.19025
AFIX  43
H3L   2    0.445459    0.637246    0.347070    10.50000   -1.20000
AFIX  65
C4L   1    0.405138    0.628407    0.368577    10.50000    0.19438
AFIX  43
H4L   2    0.410485    0.605609    0.371974    10.50000   -1.20000
AFIX  65
C5L   1    0.376539    0.642971    0.378401    10.50000    0.19785
C6L   1    0.368715    0.676328    0.373431    10.50000    0.19504
AFIX  43
H6L   2    0.349169    0.686282    0.380145    10.50000   -1.20000
AFIX  65
C7L   1    0.389490    0.695122    0.358638    10.50000    0.18839
AFIX  43
H7L   2    0.384143    0.717920    0.355241    10.50000   -1.20000
AFIX  66
C8L   1    0.353568    0.622514    0.393931    10.50000    0.20174
C9L   1    0.341997    0.591374    0.386200    10.50000    0.20410
AFIX  43
H9L   2    0.348854    0.582875    0.371179    10.50000   -1.20000
AFIX  65
C10L  1    0.320392    0.572669    0.400446    10.50000    0.20693
AFIX  43
H10L  2    0.312484    0.551386    0.395162    10.50000   -1.20000
AFIX  65
C11L  1    0.310360    0.585104    0.422424    10.50000    0.20778
C12L  1    0.321931    0.616244    0.430156    10.50000    0.20585
AFIX  43
H12L  2    0.315074    0.624743    0.445177    10.50000   -1.20000
AFIX  65
C13L  1    0.343535    0.634950    0.415909    10.50000    0.20339
AFIX  43
H13L  2    0.351444    0.656233    0.421194    10.50000   -1.20000
AFIX  66
C14L  1    0.286732    0.565384    0.437856    10.50000    0.21447
C15L  1    0.254418    0.577426    0.441985    10.50000    0.21739
AFIX  43
H15L  2    0.247246    0.597836    0.434800    10.50000   -1.20000
AFIX  65
C16L  1    0.232597    0.559607    0.456628    10.50000    0.21586
AFIX  43
H16L  2    0.210511    0.567837    0.459450    10.50000   -1.20000
AFIX  65
C17L  1    0.243091    0.529744    0.467141    10.50000    0.21532
C18L  1    0.275405    0.517701    0.463012    10.50000    0.22006
AFIX  43
H18L  2    0.282577    0.497291    0.470197    10.50000   -1.20000
AFIX  65
C19L  1    0.297226    0.535520    0.448369    10.50000    0.21847
AFIX  43
H19L  2    0.319311    0.527289    0.445547    10.50000   -1.20000
AFIX  66
PART 0
C20A  1    0.218643    0.476245    0.483755    11.00000    0.21527
PART 2
AFIX  43
H20A  2    0.229522    0.463865    0.471524    10.50000   -1.20000
AFIX  65
PART 0
C20J  1    0.201489    0.459403    0.501702    11.00000    0.21529
PART 1
AFIX  43
H20J  2    0.200644    0.435513    0.501736    10.50000   -1.20000
AFIX  65
PART 0
C20B  1    0.185570    0.477517    0.519598    11.00000    0.21516
PART 2
AFIX  43
H20B  2    0.173846    0.466007    0.531864    10.50000   -1.20000
AFIX  65
PART 0
C20K  1    0.186806    0.512473    0.519548    11.00000    0.21605
PART 1
AFIX  43
H20K  2    0.175927    0.524853    0.531779    10.50000   -1.20000
AFIX  65
PART 0
C20C  1    0.203960    0.529315    0.501602    11.00000    0.21070
PART 2
AFIX  43
H20C  2    0.204805    0.553206    0.501568    10.50000   -1.20000
AFIX  65
PART 0
C20L  1    0.219878    0.511201    0.483705    11.00000    0.21275
PART 1
AFIX  43
H20L  2    0.231602    0.522712    0.471440    10.50000   -1.20000
AFIX  66
PART 0
C20D  1    0.281868    0.459311    0.540573    11.00000    0.21206
PART 2
AFIX  43
H20D  2    0.281953    0.435409    0.540309    10.50000   -1.20000
AFIX  65
PART 0
C20H  1    0.260870    0.476381    0.556227    11.00000    0.21110
PART 1
AFIX  43
H20H  2    0.246604    0.464145    0.566662    10.50000   -1.20000
AFIX  65
PART 0
C20E  1    0.260745    0.511354    0.556613    11.00000    0.21020
PART 2
AFIX  43
H20E  2    0.246395    0.523021    0.567312    10.50000   -1.20000
AFIX  65
PART 0
C20I  1    0.281618    0.529258    0.541345    11.00000    0.21182
PART 1
AFIX  43
H20I  2    0.281533    0.553160    0.541609    10.50000   -1.20000
AFIX  65
PART 0
C20F  1    0.302616    0.512188    0.525691    11.00000    0.21775
PART 2
AFIX  43
H20F  2    0.316882    0.524425    0.515256    10.50000   -1.20000
AFIX  65
PART 0
C20G  1    0.302741    0.477215    0.525305    11.00000    0.20967
PART 1
AFIX  43
H20G  2    0.317092    0.465549    0.514606    10.50000   -1.20000
AFIX   0
HKLF 4

REM  KME_1181 in I41 #80
REM R1 =  0.1404 for    7108 Fo > 4sig(Fo)  and  0.1430 for all    7268 data
REM    776 parameters refined using   1597 restraints

END

WGHT      0.2000      0.0000

REM Highest difference peak  0.612,  deepest hole -0.700,  1-sigma level  0.093
Q1    1   0.4632  0.2800  0.2785  11.00000  0.05    0.61
Q2    1   0.5006  0.2960  0.2592  11.00000  0.05    0.59
Q3    1   0.4335  0.2437  0.3403  11.00000  0.05    0.59
Q4    1   0.3009  0.5943  0.4918  11.00000  0.05    0.53
Q5    1   0.2555  0.4044  0.4689  11.00000  0.05    0.51
Q6    1   0.2483  0.5059  0.5197  11.00000  0.05    0.49
Q7    1   0.4344  0.2531  0.3497  11.00000  0.05    0.49
Q8    1   0.2020  0.4199  0.5519  11.00000  0.05    0.48
Q9    1   0.1192  0.4580  0.5566  11.00000  0.05    0.48
Q10   1   0.1244  0.4594  0.5528  11.00000  0.05    0.48
Q11   1   0.4595  0.1990  0.2678  11.00000  0.05    0.46
Q12   1   0.5367  0.2205  0.2704  11.00000  0.05    0.45
Q13   1   0.2002  0.4009  0.5580  11.00000  0.05    0.45
Q14   1   0.2251  0.1164  0.5626  11.00000  0.05    0.44
Q15   1   0.5015  0.1992  0.2925  11.00000  0.05    0.43
Q16   1   0.3596  0.4985  0.4791  11.00000  0.05    0.43
Q17   1   0.1954  0.4423  0.5598  11.00000  0.05    0.43
Q18   1   0.5272  0.2367  0.2818  11.00000  0.05    0.43
Q19   1   0.2393  0.4377  0.4594  11.00000  0.05    0.42
Q20   1   0.2177  0.0996  0.4981  11.00000  0.05    0.42
;
_shelx_res_checksum              80983
_shelx_hkl_file
;
  -2   0   0    2.65    0.20
  -2   0   0    2.65    0.12
   2   0   0   -0.02    0.05
   2   0   0    0.18    0.05
  -4   0   0  307.41    8.55
  -4   0   0  289.85    8.53
   4   0   0  323.37    9.25
  -6   0   0    3.49    0.49
  -6   0   0    4.29    0.31
   6   0   0    3.59    0.29
  -8   0   0    1.67    0.47
  -8   0   0    1.81    0.05
  -8   0   0    1.99    0.28
   8   0   0    2.40    0.32
 -10   0   0   18.63    0.51
 -10   0   0   17.67    0.70
  10   0   0   20.77    0.85
 -12   0   0   10.67    0.30
 -12   0   0   10.32    0.62
  12   0   0   11.33    0.73
 -14   0   0    6.16    0.17
  14   0   0    6.72    0.58
 -16   0   0    9.47    0.27
  16   0   0   11.15    0.80
 -18   0   0   23.72    0.66
  18   0   0   23.20    1.13
 -20   0   0   74.76    2.09
  20   0   0   67.02    2.22
 -22   0   0   16.58    0.47
  22   0   0   13.42    1.03
 -21   1   0    5.37    0.15
  19  -1   0   15.01    0.90
  17  -1   0   11.27    0.85
 -17   1   0    9.43    0.27
  15  -1   0    0.52    0.38
 -15   1   0    0.65    0.03
  13  -1   0    1.02    0.43
 -13   1   0    0.98    0.04
  11  -1   0    3.05    0.43
 -11   1   0    2.48    0.37
 -11   1   0    3.12    0.69
   9  -1   0    1.22    0.34
  -9   1   0    1.28    0.52
  -9   1   0    1.30    0.30
   7  -1   0   -0.15    0.20
  -7   1   0    0.06    0.37
  -7   1   0    0.18    0.23
   5  -1   0    0.64    0.18
  -5   1   0    0.75    0.18
   3  -1   0    3.75    0.21
  -3   1   0    3.71    0.21
  -1  -1   0    0.00    0.02
   1   1   0    0.01    0.02
  -3  -1   0    3.61    0.19
   3   1   0    3.46    0.19
  -5  -1   0    0.81    0.17
   5   1   0    0.60    0.25
   5   1   0    0.59    0.18
  -7  -1   0    0.14    0.21
   7   1   0    0.04    0.24
  -9  -1   0    1.27    0.04
  -9  -1   0    1.34    0.29
   9   1   0    1.29    0.34
 -11  -1   0    2.61    0.36
 -11  -1   0    2.79    0.08
  11   1   0    3.50    0.43
 -13  -1   0    1.08    0.04
  13   1   0    0.98    0.43
 -15  -1   0    0.66    0.03
  15   1   0    0.45    0.45
 -17  -1   0    9.82    0.28
  17   1   0   10.31    0.81
 -19  -1   0   16.38    0.46
  19   1   0   13.85    0.86
 -21  -1   0    4.64    0.13
  21   1   0    4.43    0.68
 -22   2   0   44.67    1.25
 -20   2   0   11.44    0.32
  18  -2   0   26.27    1.13
 -18   2   0   28.18    0.79
  16  -2   0    5.51    0.58
 -16   2   0    5.22    0.15
  14  -2   0    1.53    0.39
 -14   2   0    1.18    0.72
 -14   2   0    1.82    0.06
  12  -2   0   21.94    0.89
 -12   2   0   20.12    0.89
 -12   2   0   23.96    1.36
  10  -2   0   23.67    0.93
 -10   2   0   20.81    1.24
 -10   2   0   22.63    0.86
   8  -2   0    4.87    0.41
  -8   2   0    5.17    0.45
   6  -2   0    8.77    0.41
  -6   2   0    8.89    0.40
  -4   2   0    7.46    0.32
  -2  -2   0  715.75   20.20
   2   2   0  734.51   20.74
  -4  -2   0    7.56    0.32
   4   2   0    7.88    0.33
  -6  -2   0    8.20    0.40
   6   2   0    8.56    0.39
  -8  -2   0    4.58    0.13
  -8  -2   0    4.52    0.34
   8   2   0    5.26    0.45
 -10  -2   0   20.01    0.56
 -10  -2   0   20.38    0.79
  10   2   0   23.23    0.91
 -12  -2   0   20.66    0.56
 -12  -2   0   19.36    0.78
  12   2   0   22.55    0.95
 -14  -2   0    1.65    0.05
  14   2   0    1.91    0.45
 -16  -2   0    5.19    0.15
  16   2   0    5.41    0.68
 -18  -2   0   27.20    0.76
  18   2   0   28.68    1.23
 -20  -2   0   11.49    0.32
  20   2   0   10.87    0.91
 -22  -2   0   42.85    1.20
  22   2   0   40.83    1.61
 -21   3   0    1.33    0.05
 -19   3   0    9.38    0.26
 -17   3   0    2.13    0.82
 -17   3   0    1.98    0.06
 -15   3   0    0.31    0.69
 -13   3   0    2.57    0.75
 -11   3   0    8.84    1.02
 -11   3   0    7.23    0.59
  -9   3   0    0.92    0.32
  -7   3   0    0.58    0.26
  -5   3   0    0.20    0.20
  -3   3   0   -0.06    0.12
   1  -3   0    3.05    0.23
  -3  -3   0    0.13    0.12
   3   3   0   -0.09    0.11
  -5  -3   0    0.20    0.16
   5   3   0    0.10    0.17
  -7  -3   0    0.37    0.22
   7   3   0    0.16    0.24
  -9  -3   0    0.75    0.23
  -9  -3   0    0.90    0.03
   9   3   0    0.70    0.32
 -11  -3   0    6.59    0.46
 -11  -3   0    7.15    0.20
  11   3   0    7.29    0.53
 -13  -3   0    2.31    0.07
  13   3   0    2.77    0.46
 -15  -3   0   -0.05    0.02
  15   3   0    0.23    0.43
 -17  -3   0    2.13    0.07
  17   3   0    1.78    0.43
 -19  -3   0    9.24    0.26
  19   3   0    9.16    0.86
  21   3   0    1.08    0.57
 -20   4   0   10.24    0.29
 -18   4   0   12.68    1.43
 -18   4   0   12.51    0.35
 -16   4   0    2.20    0.85
 -14   4   0    3.85    0.84
 -12   4   0   15.27    0.71
 -10   4   0    6.13    0.55
  -8   4   0   52.45    1.62
  -6   4   0    1.51    0.27
  -4   4   0   11.75    0.50
   2  -4   0    7.08    0.37
   2   4   0    7.66    0.32
  -4  -4   0   10.40    0.42
   4   4   0   10.45    0.40
  -6  -4   0    1.58    0.23
  -6  -4   0    1.58    0.05
   6   4   0    1.52    0.24
  -8  -4   0   46.89    1.47
  -8  -4   0   47.86    1.33
   8   4   0   46.47    1.44
 -10  -4   0    4.99    0.41
 -10  -4   0    5.38    0.15
  10   4   0    6.28    0.54
 -12  -4   0   13.08    0.68
 -12  -4   0   15.17    0.40
  12   4   0   15.79    0.78
 -14  -4   0    3.55    0.10
  14   4   0    4.05    0.43
 -16  -4   0    1.83    0.06
  16   4   0    2.26    0.49
 -18  -4   0   12.15    0.34
  18   4   0   12.49    0.77
 -20  -4   0    9.86    0.28
  20   4   0   10.00    0.86
 -21   5   0    1.45    0.05
 -19   5   0    3.50    1.06
 -17   5   0    0.75    0.87
 -15   5   0    0.65    0.78
 -11   5   0    5.96    0.59
  -9   5   0    1.17    0.34
  -7   5   0    6.18    0.43
  -3   5   0    0.27    0.22
   1  -5   0    0.68    0.22
   3   5   0    0.21    0.18
  -5  -5   0    0.38    0.21
   5   5   0    0.51    0.22
  -7  -5   0    5.87    0.17
  -7  -5   0    6.70    0.44
   7   5   0    6.53    0.46
  -9  -5   0    1.04    0.25
  -9  -5   0    1.40    0.04
   9   5   0    1.14    0.28
 -11  -5   0    5.59    0.51
 -11  -5   0    5.93    0.17
  11   5   0    6.87    0.58
 -13  -5   0    2.31    0.07
  13   5   0    2.42    0.43
 -15  -5   0    0.37    0.02
  15   5   0    0.60    0.36
 -17  -5   0    0.02    0.02
  17   5   0    0.03    0.47
 -19  -5   0    3.60    0.11
  19   5   0    3.52    0.58
 -21  -5   0    1.40    0.05
  21   5   0    1.08    0.46
 -20   6   0    3.05    1.14
 -18   6   0    5.77    1.16
 -16   6   0    3.33    0.99
 -12   6   0   11.23    0.79
 -10   6   0   33.73    1.16
  -8   6   0   29.63    1.07
   2  -6   0    8.50    0.53
   2   6   0    8.30    0.32
  -4  -6   0    1.57    0.05
   4   6   0    1.38    0.21
  -6  -6   0  108.94    3.14
  -6  -6   0  115.80    3.26
   6   6   0  114.68    3.32
  -8  -6   0   28.75    1.00
  -8  -6   0   28.64    0.80
   8   6   0   29.38    1.03
 -10  -6   0   33.71    1.18
 -10  -6   0   34.87    0.96
  10   6   0   33.35    1.16
 -12  -6   0   10.49    0.29
  12   6   0   10.92    0.68
 -14  -6   0    6.51    0.18
  14   6   0    7.25    0.67
 -16  -6   0    3.00    0.09
  16   6   0    3.52    0.52
 -18  -6   0    5.31    0.15
  18   6   0    4.55    0.52
 -20  -6   0    2.17    0.07
  20   6   0    2.05    0.48
 -19   7   0   -0.52    1.02
 -17   7   0    0.08    0.77
 -11   7   0    0.55    0.32
  -9   7   0   16.68    0.74
   3  -7   0   -0.11    0.33
   3  -7   0    0.18    0.01
   1  -7   0    0.17    0.31
  -3  -7   0    0.14    0.01
   3   7   0    0.19    0.16
   3   7   0    0.19    0.23
  -5  -7   0    6.52    0.18
   5   7   0    6.51    0.47
  -7  -7   0   -0.16    0.27
  -7  -7   0    0.01    0.02
   7   7   0   -0.33    0.24
  -9  -7   0   18.10    0.50
  -9  -7   0   17.42    0.76
   9   7   0   17.06    0.76
 -11  -7   0    0.44    0.02
  11   7   0    0.67    0.39
 -13  -7   0    4.32    0.12
  13   7   0    3.48    0.40
 -15  -7   0    4.59    0.13
  15   7   0    4.18    0.53
 -17  -7   0    0.13    0.02
  17   7   0   -0.08    0.48
 -19  -7   0    0.03    0.02
  19   7   0   -0.15    0.51
 -20   8   0    2.94    1.07
 -18   8   0   10.57    1.45
 -10   8   0   19.22    0.89
   4  -8   0   59.35    1.66
   2  -8   0    4.56    0.51
   2  -8   0    4.88    0.14
   0  -8   0    1.92    0.05
   0  -8   0    1.51    0.16
  -2  -8   0    4.88    0.14
  -4  -8   0   54.38    1.52
   4   8   0   49.98    1.55
  -6  -8   0   31.00    0.87
   6   8   0   28.40    1.00
  -8  -8   0  132.51    4.03
  -8  -8   0  145.09    3.88
   8   8   0  133.36    3.88
 -10  -8   0   20.52    0.57
  10   8   0   19.02    0.79
 -12  -8   0   23.62    0.66
  12   8   0   21.81    0.93
 -14  -8   0   17.50    0.49
  14   8   0   15.46    0.83
 -16  -8   0    9.27    0.26
  16   8   0    8.57    0.76
 -18  -8   0    8.63    0.24
  18   8   0    8.93    0.80
 -20  -8   0    1.18    0.04
  20   8   0    2.17    0.58
 -19   9   0    1.24    1.22
   5  -9   0    1.67    0.05
   3  -9   0    1.24    0.04
   3  -9   0    0.59    0.45
   1  -9   0    1.45    0.05
   1  -9   0    1.53    0.46
  -1  -9   0    1.46    0.05
  -3  -9   0    1.17    0.04
  -5  -9   0    1.64    0.05
   5   9   0    1.24    0.32
  -7  -9   0   19.30    0.54
   7   9   0   18.06    0.78
  -9  -9   0   -0.03    0.02
   9   9   0   -0.16    0.37
 -11  -9   0   16.07    0.45
  11   9   0   15.10    0.80
 -13  -9   0    5.74    0.16
  13   9   0    6.09    0.66
 -15  -9   0   -0.05    0.02
  15   9   0   -0.58    0.46
  17   9   0    2.53    0.56
 -19  -9   0    1.41    0.05
  19   9   0    0.40    0.53
   6 -10   0   42.23    1.18
   4 -10   0    6.50    0.18
   4 -10   0    5.57    0.65
   2 -10   0   24.06    1.13
   2 -10   0   24.17    0.67
   0 -10   0   21.94    0.61
  -2 -10   0   23.93    0.67
  -4 -10   0    6.44    0.18
   4  10   0    6.57    0.50
   4  10   0    4.96    0.38
  -6 -10   0   40.63    1.14
   6  10   0   34.91    1.20
  -8 -10   0   21.46    0.60
   8  10   0   19.84    0.86
 -10 -10   0   78.84    2.20
  10  10   0   69.30    2.17
 -12 -10   0   11.41    0.32
  12  10   0   10.69    0.74
 -14 -10   0    8.78    0.25
  14  10   0    7.95    0.71
 -16 -10   0    9.89    0.28
  16  10   0   10.27    0.80
 -18 -10   0    3.52    0.10
  18  10   0    4.61    0.63
   5 -11   0    7.11    0.20
   3 -11   0    8.89    0.85
   3 -11   0    8.76    0.25
   1 -11   0    3.41    0.10
   1 -11   0    3.64    0.62
  -1 -11   0    3.42    0.10
  -3 -11   0    9.01    0.25
  -5 -11   0    7.34    0.21
   5  11   0    5.65    0.46
   5  11   0    5.86    0.42
  -7 -11   0    0.64    0.03
   7  11   0    0.59    0.37
  -9 -11   0   17.97    0.50
   9  11   0   15.54    0.80
 -11 -11   0   -0.01    0.02
  11  11   0   -0.08    0.43
 -13 -11   0    1.29    0.05
  13  11   0    1.22    0.49
 -15 -11   0    4.26    0.12
  15  11   0    4.66    0.58
 -17 -11   0    2.38    0.07
  17  11   0    2.25    0.48
 -19 -11   0   -0.28    0.03
  19  11   0    0.34    0.45
   6 -12   0   12.74    0.36
   4 -12   0   18.92    1.11
   4 -12   0   18.79    0.53
   2 -12   0   26.59    0.76
   2 -12   0   27.86    1.31
   0 -12   0   13.08    0.92
   0 -12   0   13.15    0.37
  -2 -12   0   25.88    0.72
  -4 -12   0   18.68    0.52
   4  12   0   14.91    0.71
  -6 -12   0   13.31    0.37
   6  12   0    9.62    0.50
   6  12   0   10.61    0.63
  -8 -12   0   28.61    0.80
   8  12   0   22.42    0.93
 -10 -12   0   12.80    0.36
  10  12   0   10.73    0.73
 -12 -12   0    7.97    0.23
  12  12   0    6.73    0.70
 -14 -12   0    3.79    0.11
  14  12   0    3.79    0.49
 -16 -12   0   11.37    0.32
  16  12   0    9.63    0.84
 -18 -12   0    2.24    0.07
  18  12   0    2.35    0.52
   5 -13   0    2.66    0.08
   3 -13   0    3.32    0.67
   3 -13   0    2.91    0.09
   1 -13   0    0.83    0.53
   1 -13   0    0.67    0.16
   1 -13   0    1.17    0.04
  -1 -13   0    1.13    0.04
  -3 -13   0    2.93    0.09
  -5 -13   0    3.01    0.09
   5  13   0    2.11    0.38
  -7 -13   0    5.58    0.16
   7  13   0    3.60    0.44
   7  13   0    3.88    0.40
  -9 -13   0    7.04    0.20
   9  13   0    5.97    0.49
   9  13   0    5.81    0.63
 -11 -13   0    1.32    0.05
  11  13   0    1.63    0.48
 -13 -13   0   -0.27    0.03
  13  13   0   -0.76    0.48
 -15 -13   0    1.87    0.06
  15  13   0    3.04    0.58
  17  13   0    0.22    0.45
   6 -14   0    7.30    0.21
   4 -14   0    4.19    0.12
   4 -14   0    4.60    0.73
   2 -14   0    2.05    0.06
   2 -14   0    2.02    0.56
   0 -14   0    8.20    1.02
   0 -14   0    7.96    0.23
  -2 -14   0    1.99    0.06
  -4 -14   0    4.39    0.13
   4  14   0    3.51    0.44
  -6 -14   0    8.17    0.23
   6  14   0    6.16    0.58
  -8 -14   0   22.90    0.64
   8  14   0   16.66    0.84
   8  14   0   18.42    0.75
 -10 -14   0   10.06    0.28
  10  14   0    7.73    0.55
  10  14   0    7.88    0.60
 -12 -14   0    2.97    0.09
  12  14   0    2.89    0.54
 -14 -14   0    1.47    0.05
  14  14   0    2.14    0.48
 -16 -14   0    7.07    0.20
  16  14   0    5.58    0.68
   5 -15   0    0.61    0.03
   3 -15   0    0.00    0.02
   3 -15   0   -0.37    0.64
   1 -15   0    1.31    0.57
   1 -15   0    0.69    0.03
  -1 -15   0    0.78    0.03
  -1 -15   0    0.52    0.71
  -3 -15   0    0.07    0.02
  -5 -15   0    0.63    0.03
   5  15   0    0.67    0.37
  -7 -15   0    5.75    0.16
   7  15   0    3.99    0.50
  -9 -15   0    0.10    0.03
   9  15   0    0.08    0.41
   9  15   0    0.47    0.33
 -11 -15   0    3.99    0.12
  11  15   0    3.83    0.55
  11  15   0    3.69    0.41
 -13 -15   0    2.46    0.08
  13  15   0    2.37    0.48
  13  15   0    2.43    0.39
 -15 -15   0   -0.27    0.03
  15  15   0   -0.12    0.45
   6 -16   0    3.72    0.11
   4 -16   0    2.42    0.07
   2 -16   0    6.77    0.87
   2 -16   0    6.39    0.18
   0 -16   0   12.27    0.35
   0 -16   0   13.27    1.18
  -2 -16   0    6.61    0.90
  -2 -16   0    6.72    0.19
  -4 -16   0    2.39    0.07
   4  16   0    1.85    0.41
  -6 -16   0    4.12    0.12
   6  16   0    2.70    0.38
  -8 -16   0   11.02    0.31
   8  16   0    8.57    0.68
 -10 -16   0   12.20    0.34
  10  16   0   10.10    0.74
  10  16   0    9.40    0.59
 -12 -16   0   13.71    0.39
  12  16   0    8.51    0.68
  12  16   0    8.69    0.62
 -14 -16   0    7.82    0.22
  14  16   0    5.98    0.67
  14  16   0    6.12    0.63
   5 -17   0   -0.05    0.02
   3 -17   0    2.65    0.08
   3 -17   0    1.36    0.65
   1 -17   0   11.82    1.09
   1 -17   0   12.38    0.35
  -1 -17   0   13.36    1.13
  -1 -17   0   11.87    0.34
  -3 -17   0    2.26    0.73
  -3 -17   0    2.83    0.09
  -5 -17   0   -0.03    0.03
   5  17   0    0.28    0.40
   7  17   0    0.42    0.41
  -9 -17   0    2.31    0.08
   9  17   0    2.44    0.47
 -11 -17   0    3.01    0.09
  11  17   0    1.72    0.43
  13  17   0   -0.04    0.51
   6 -18   0    7.16    0.20
   4 -18   0   15.16    0.43
   2 -18   0   34.61    1.79
   0 -18   0   28.69    1.56
   0 -18   0   28.99    0.81
  -2 -18   0   33.28    1.82
  -2 -18   0   32.29    0.91
  -4 -18   0   15.58    1.26
  -4 -18   0   15.43    0.43
   4  18   0   11.75    0.76
  -6 -18   0    5.87    0.17
   6  18   0    5.26    0.53
  -8 -18   0   11.63    0.33
   8  18   0    7.72    0.59
 -10 -18   0    5.22    0.15
  10  18   0    4.44    0.54
 -12 -18   0    1.75    0.07
  12  18   0    2.34    0.53
   5 -19   0    3.84    0.11
   3 -19   0   11.13    1.17
   3 -19   0   11.27    0.32
   1 -19   0   18.10    1.58
   1 -19   0   19.27    0.53
  -1 -19   0   17.45    1.61
  -1 -19   0   19.52    0.54
  -3 -19   0   12.10    1.26
  -3 -19   0   12.34    0.35
   3  19   0    8.99    0.77
  -5 -19   0    3.69    0.11
  -5 -19   0    5.45    1.05
   5  19   0    2.96    0.42
  -7 -19   0   -0.03    0.03
   7  19   0   -0.09    0.42
  -9 -19   0    1.86    0.06
   9  19   0    0.80    0.37
  11  19   0    0.04    0.47
   6 -20   0    2.98    0.09
   4 -20   0   11.63    0.33
   2 -20   0   15.71    1.49
   2 -20   0   14.29    0.41
   0 -20   0   94.05    3.43
   0 -20   0   91.57    2.59
  -2 -20   0   14.85    0.41
  -2 -20   0   13.32    1.34
  -4 -20   0   13.31    1.31
  -4 -20   0   12.36    0.35
   4  20   0    9.12    0.76
  -6 -20   0    2.86    0.09
  -6 -20   0    1.81    0.83
   6  20   0    2.17    0.49
  -8 -20   0    0.61    0.04
   8  20   0    1.22    0.38
   5 -21   0    1.21    0.05
   1 -21   0    5.35    1.18
   1 -21   0    6.29    0.18
  -1 -21   0    5.19    1.02
  -1 -21   0    6.16    0.17
  -3 -21   0    1.43    0.87
   3  21   0    1.17    0.44
  -5 -21   0    1.07    1.02
  -5 -21   0    0.88    0.04
   5  21   0    0.92    0.40
   2 -22   0   53.34    1.49
   0 -22   0   18.91    1.57
  -2 -22   0   58.17    1.56
  -2 -22   0   51.88    2.41
   2  22   0   36.67    1.40
  -1 -22   1   32.94    1.89
  -1 -22   1   33.78    0.94
   1 -22   1   35.18    2.09
   1 -22   1   37.33    1.03
   6  21  -1    0.84    0.39
  -6 -21   1    2.63    0.87
  -6 -21   1    2.21    0.08
   4  21  -1    5.19    0.62
  -4 -21   1    6.90    1.04
  -4 -21   1    7.30    0.21
   2  21  -1    9.41    0.85
  -2 -21   1   12.82    0.36
  -2 -21   1   13.70    1.33
   0 -21   1   18.28    0.52
   0 -21   1   20.57    1.68
   2 -21   1   12.61    0.36
   2 -21   1   13.08    1.30
   4 -21   1    7.10    0.20
   6 -21   1    1.77    0.06
   9  20  -1    1.01    0.38
  -9 -20   1    1.60    0.06
   7  20  -1    2.03    0.48
  -7 -20   1    2.25    0.08
   5  20  -1    1.23    0.48
  -5 -20   1    0.78    0.04
  -5 -20   1    1.28    0.98
   3  20  -1    7.39    0.76
  -3 -20   1   10.19    1.25
  -3 -20   1    9.56    0.27
  -1 -20   1   25.87    1.63
  -1 -20   1   28.27    0.77
   1 -20   1   26.87    0.74
   1 -20   1   25.63    1.58
   3 -20   1   10.35    0.29
   3 -20   1    9.41    1.16
   5 -20   1    1.34    0.05
  10  19  -1    1.37    0.40
 -10 -19   1    1.41    0.06
   8  19  -1    1.12    0.45
  -8 -19   1   -0.01    0.03
   6  19  -1    3.08    0.49
  -6 -19   1    4.70    0.14
   4  19  -1   10.53    0.76
  -4 -19   1   14.60    1.30
  -4 -19   1   14.43    0.41
  -2 -19   1   35.51    0.97
  -2 -19   1   33.01    1.77
   0 -19   1   47.72    2.20
   0 -19   1   46.47    1.31
   2 -19   1   35.71    0.98
   2 -19   1   33.39    1.73
   4 -19   1   14.42    0.41
   6 -19   1    4.92    0.14
  11  18  -1    3.23    0.55
 -11 -18   1    4.40    0.13
   9  18  -1    6.43    0.57
  -9 -18   1    9.77    0.28
   7  18  -1    6.26    0.65
  -7 -18   1    6.82    0.20
   5  18  -1    2.91    0.48
  -5 -18   1    4.08    0.12
   3  18  -1    7.69    0.71
  -3 -18   1    9.06    0.25
  -3 -18   1    7.90    0.96
  -1 -18   1   13.88    0.39
  -1 -18   1   14.00    1.42
   1 -18   1   14.41    0.40
   1 -18   1   14.21    1.36
   3 -18   1    9.11    0.26
   3 -18   1   10.04    1.23
   5 -18   1    4.09    0.12
   7 -18   1    9.19    0.26
  14  17  -1    2.12    0.50
  14  17  -1    2.29    0.46
 -14 -17   1    3.55    0.11
  12  17  -1    4.03    0.49
  12  17  -1    2.76    0.47
 -12 -17   1    3.93    0.12
  10  17  -1    2.38    0.50
 -10 -17   1    2.54    0.08
   8  17  -1    2.42    0.40
  -8 -17   1    2.11    0.07
   6  17  -1    1.10    0.34
  -6 -17   1    1.17    0.04
   4  17  -1    2.14    0.45
  -4 -17   1    3.24    0.10
  -2 -17   1   14.22    0.40
   0 -17   1   30.40    1.54
   0 -17   1   30.64    0.85
   2 -17   1   14.24    0.40
   2 -17   1   14.37    1.26
   4 -17   1    2.97    0.67
   4 -17   1    2.86    0.09
   6 -17   1    1.07    0.04
  15  16  -1    4.62    0.50
  15  16  -1    4.25    0.65
 -15 -16   1    5.73    0.17
  13  16  -1    7.39    0.80
  13  16  -1    7.23    0.63
 -13 -16   1    7.52    0.21
  11  16  -1    9.05    0.67
  11  16  -1    9.22    0.78
 -11 -16   1    9.72    0.28
   9  16  -1   10.16    0.71
  -9 -16   1   14.11    0.40
   7  16  -1    3.51    0.47
  -7 -16   1    4.75    0.14
   5  16  -1    1.97    0.42
  -5 -16   1    2.09    0.07
  -3 -16   1    2.40    0.07
  -1 -16   1    6.02    0.17
  -1 -16   1    5.81    0.89
   1 -16   1    6.62    0.78
   1 -16   1    5.92    0.17
   3 -16   1    1.71    0.71
   3 -16   1    2.06    0.06
   5 -16   1    1.85    0.06
   7 -16   1    4.80    0.14
  16  15  -1    4.16    0.66
 -16 -15   1    5.45    0.16
  14  15  -1    1.86    0.47
  14  15  -1    2.67    0.59
 -14 -15   1    1.31    0.05
  12  15  -1    3.29    0.56
  12  15  -1    3.06    0.39
 -12 -15   1    3.03    0.09
  10  15  -1    5.84    0.53
  10  15  -1    5.77    0.67
 -10 -15   1    7.65    0.22
   8  15  -1    5.95    0.62
  -8 -15   1   10.07    0.28
   6  15  -1    3.67    0.45
  -6 -15   1    5.55    0.16
   4  15  -1    0.16    0.36
  -4 -15   1    0.41    0.03
  -2 -15   1    1.82    0.06
   0 -15   1    4.51    0.13
   0 -15   1    3.76    0.77
   2 -15   1    2.48    0.70
   2 -15   1    1.86    0.06
   2 -15   1    1.74    0.22
   4 -15   1    0.42    0.02
   4 -15   1    0.32    0.63
   6 -15   1    4.88    0.14
  17  14  -1    2.07    0.60
 -17 -14   1    2.81    0.09
  15  14  -1    2.54    0.59
 -15 -14   1    1.53    0.05
  13  14  -1    2.00    0.55
 -13 -14   1    1.74    0.06
  11  14  -1    4.01    0.41
  11  14  -1    4.77    0.55
 -11 -14   1    6.06    0.17
   9  14  -1    5.68    0.54
   9  14  -1    6.99    0.56
  -9 -14   1    8.95    0.25
   7  14  -1    6.92    0.62
  -7 -14   1   10.07    0.28
   5  14  -1    3.07    0.42
  -5 -14   1    3.88    0.11
  -3 -14   1    1.67    0.05
  -1 -14   1   10.61    0.30
   1 -14   1    8.68    0.42
   1 -14   1   10.61    0.28
   1 -14   1   10.86    1.04
   3 -14   1    1.13    0.64
   3 -14   1    1.53    0.05
   5 -14   1    3.31    0.10
   7 -14   1    9.23    0.26
  16  13  -1    6.74    0.82
 -16 -13   1    6.92    0.20
  14  13  -1    2.32    0.48
 -14 -13   1    2.18    0.07
  12  13  -1    1.55    0.51
 -12 -13   1    1.85    0.06
  10  13  -1    9.34    0.70
  10  13  -1    7.95    0.59
 -10 -13   1   10.53    0.30
   8  13  -1   18.06    0.84
   8  13  -1   17.72    0.78
  -8 -13   1   23.15    0.65
   6  13  -1    8.12    0.54
  -6 -13   1   11.72    0.33
   4  13  -1    7.32    0.58
  -4 -13   1    9.70    0.27
  -2 -13   1   12.34    0.35
   0 -13   1    1.75    0.06
   2 -13   1   11.80    0.33
   2 -13   1   11.98    1.01
   4 -13   1    7.73    0.92
   4 -13   1    8.45    0.24
   6 -13   1   10.66    0.30
  17  12  -1    3.17    0.52
 -17 -12   1    3.54    0.11
  15  12  -1    3.73    0.60
  13  12  -1    0.83    0.50
 -13 -12   1    1.70    0.06
  11  12  -1    2.67    0.50
 -11 -12   1    3.85    0.11
   9  12  -1   10.13    0.70
  -9 -12   1   11.62    0.33
   7  12  -1    4.85    0.45
   7  12  -1    5.31    0.57
  -7 -12   1    6.03    0.17
   5  12  -1    3.00    0.40
  -5 -12   1    4.28    0.12
  -3 -12   1    7.10    0.20
  -1 -12   1   14.54    0.41
   1 -12   1   13.16    1.01
   1 -12   1   14.42    0.40
   3 -12   1    7.13    0.85
   3 -12   1    6.96    0.20
   5 -12   1    3.85    0.11
  18  11  -1    3.54    0.54
 -18 -11   1    3.92    0.11
  16  11  -1    8.93    0.72
 -16 -11   1    8.35    0.24
  14  11  -1    5.37    0.60
 -14 -11   1    5.25    0.15
  12  11  -1    2.95    0.44
 -12 -11   1    3.52    0.10
  10  11  -1   17.40    0.87
 -10 -11   1   21.99    0.62
   8  11  -1   19.90    0.87
  -8 -11   1   23.32    0.65
   6  11  -1    9.83    0.53
   6  11  -1    9.69    0.63
  -6 -11   1   11.90    0.33
   4  11  -1   13.12    0.61
  -4 -11   1   16.85    0.47
  -2 -11   1   19.35    0.54
   0 -11   1    7.55    0.20
   0 -11   1    6.55    0.37
   2 -11   1   19.51    0.54
   2 -11   1   18.99    0.97
   4 -11   1   16.11    0.45
   4 -11   1   15.58    0.89
   6 -11   1   11.64    0.33
  19  10  -1    1.67    0.58
 -19 -10   1    1.57    0.06
  17  10  -1    2.98    0.59
 -17 -10   1    2.25    0.07
  15  10  -1    5.37    0.62
 -15 -10   1    6.69    0.19
  13  10  -1    8.88    0.65
 -13 -10   1    9.25    0.26
  11  10  -1   18.72    0.89
 -11 -10   1   20.61    0.58
   9  10  -1   35.72    1.28
  -9 -10   1   37.00    1.03
   7  10  -1   18.02    0.75
  -7 -10   1   20.93    0.59
   5  10  -1    3.99    0.50
   5  10  -1    2.84    0.30
  -5 -10   1    4.39    0.13
  -3 -10   1   11.05    0.31
  -1 -10   1    8.00    0.23
   1 -10   1    7.96    0.22
   3 -10   1   12.11    0.83
   3 -10   1   11.20    0.32
   5 -10   1    4.25    0.12
 -19  10  -1    1.50    1.10
  20   9  -1    0.79    0.57
 -20  -9   1    0.92    0.04
  18   9  -1    6.20    0.79
 -18  -9   1    7.68    0.22
  16   9  -1   10.12    0.81
 -16  -9   1   10.54    0.30
  14   9  -1    6.83    0.70
 -14  -9   1    7.15    0.20
  12   9  -1    9.04    0.62
 -12  -9   1   10.17    0.29
  10   9  -1   34.01    1.20
 -10  -9   1   37.09    1.04
   8   9  -1   37.85    1.30
  -8  -9   1   42.42    1.19
   6   9  -1   26.92    0.95
  -6  -9   1   29.22    0.82
   4   9  -1   11.73    0.52
   4   9  -1   11.97    0.60
  -4  -9   1   13.51    0.38
  -2  -9   1   29.08    0.81
   0  -9   1    6.88    0.18
   0  -9   1    5.85    0.33
   2  -9   1   29.79    1.20
   2  -9   1   29.23    0.82
   4  -9   1   13.61    0.38
   4  -9   1   13.58    0.83
   6  -9   1   32.79    0.92
 -10   9  -1   34.21    1.28
 -18   9  -1   12.77    1.85
 -20   9  -1    1.58    1.26
  19   8  -1    1.37    0.47
 -19  -8   1    1.04    0.04
  17   8  -1    3.21    0.57
 -17  -8   1    2.90    0.09
  15   8  -1    8.11    0.74
 -15  -8   1    7.68    0.22
  13   8  -1   18.88    0.90
 -13  -8   1   19.33    0.54
  11   8  -1   19.24    0.88
 -11  -8   1   19.80    0.55
   9   8  -1   37.34    1.28
  -9  -8   1   36.25    1.29
  -9  -8   1   39.62    1.06
   7   8  -1   39.43    1.31
  -7  -8   1   41.31    1.15
   5   8  -1   31.41    1.08
  -5  -8   1   32.55    0.91
   3   8  -1   23.45    0.84
  -3  -8   1   26.57    0.74
  -1  -8   1    2.60    0.07
   1  -8   1    2.58    0.07
   3  -8   1   27.61    0.77
   3  -8   1   27.33    1.09
   5  -8   1   34.52    0.96
 -17   8  -1    3.04    1.16
 -19   8  -1    1.94    1.20
  20   7  -1    1.53    0.57
 -20  -7   1    2.24    0.07
  18   7  -1    5.84    0.66
 -18  -7   1    7.01    0.20
  16   7  -1    4.15    0.55
 -16  -7   1    3.86    0.11
  14   7  -1    7.22    0.69
 -14  -7   1    7.82    0.22
  12   7  -1    3.80    0.47
 -12  -7   1    4.97    0.14
  10   7  -1   19.00    0.84
 -10  -7   1   19.51    0.53
 -10  -7   1   17.98    0.80
   8   7  -1   39.65    1.31
  -8  -7   1   40.03    1.10
  -8  -7   1   38.55    1.29
   6   7  -1   70.14    2.11
  -6  -7   1   75.03    2.04
  -6  -7   1   70.84    2.18
   4   7  -1    2.99    0.30
  -4  -7   1    3.22    0.09
  -2  -7   1    1.17    0.04
   2  -7   1    1.18    0.04
   2  -7   1    1.41    0.34
   4  -7   1    4.13    0.43
   4  -7   1    3.62    0.10
 -10   7  -1   18.76    0.86
 -16   7  -1    3.71    1.05
 -18   7  -1    8.49    1.35
 -20   7  -1    2.29    1.18
  21   6  -1    1.35    0.57
 -21  -6   1    1.62    0.06
  19   6  -1    4.00    0.61
 -19  -6   1    3.91    0.11
  17   6  -1    0.77    0.50
 -17  -6   1    0.70    0.03
  15   6  -1    4.82    0.53
 -15  -6   1    4.16    0.12
  13   6  -1    8.88    0.68
 -13  -6   1    9.25    0.26
  11   6  -1    8.95    0.64
 -11  -6   1    9.82    0.27
 -11  -6   1    9.31    0.60
   9   6  -1   25.99    0.97
  -9  -6   1   26.44    0.73
  -9  -6   1   25.28    0.95
   7   6  -1   70.35    2.11
  -7  -6   1   72.43    1.96
  -7  -6   1   67.97    2.09
   5   6  -1    9.90    0.50
  -5  -6   1    8.33    0.25
  -5  -6   1    9.73    0.48
   3   6  -1    2.17    0.24
   3   6  -1    2.32    0.27
  -1  -6   1    6.46    0.28
   3  -6   1    3.01    0.34
  -9   6  -1   27.54    1.03
 -11   6  -1   10.22    0.67
 -15   6  -1    4.64    1.01
 -17   6  -1    0.81    0.95
 -19   6  -1    4.58    1.00
 -21   6  -1    1.84    1.11
 -21   6  -1    1.33    0.05
  20   5  -1    1.44    0.56
 -20  -5   1    1.35    0.05
  18   5  -1    3.59    0.50
 -18  -5   1    3.93    0.11
  16   5  -1    1.28    0.48
 -16  -5   1    1.57    0.05
  14   5  -1    2.86    0.41
 -14  -5   1    2.79    0.08
  12   5  -1    3.79    0.49
 -12  -5   1    3.32    0.10
  10   5  -1    4.19    0.53
 -10  -5   1    3.76    0.11
 -10  -5   1    4.00    0.47
   8   5  -1   30.14    1.04
  -8  -5   1   29.73    1.01
  -8  -5   1   28.73    0.82
   6   5  -1    9.54    0.50
  -6  -5   1    9.34    0.46
  -6  -5   1    8.07    0.24
   4   5  -1    1.68    0.20
  -4  -5   1    1.77    0.22
   2   5  -1   13.02    0.45
   2  -5   1   13.90    0.57
  -6   5  -1    7.03    0.51
  -8   5  -1   31.63    1.10
 -10   5  -1    4.71    0.54
 -12   5  -1    3.20    0.43
 -14   5  -1    3.65    0.88
 -16   5  -1    1.56    0.74
 -18   5  -1    3.52    1.06
 -20   5  -1    1.24    0.05
  21   4  -1    4.78    0.56
 -21  -4   1    5.75    0.16
  19   4  -1   11.19    0.89
 -19  -4   1   11.26    0.32
  17   4  -1    1.75    0.52
 -17  -4   1    2.56    0.08
  15   4  -1    0.18    0.44
 -15  -4   1    0.37    0.02
  13   4  -1    7.00    0.56
 -13  -4   1    7.29    0.21
  11   4  -1   13.86    0.67
 -11  -4   1   12.19    0.64
 -11  -4   1   13.35    0.36
   9   4  -1   12.06    0.63
  -9  -4   1   11.39    0.32
  -9  -4   1   11.21    0.57
   7   4  -1    3.10    0.31
  -7  -4   1    3.26    0.29
  -7  -4   1    2.69    0.08
   5   4  -1    1.72    0.23
  -5  -4   1    1.61    0.22
   3   4  -1   10.25    0.41
  -3  -4   1   10.11    0.38
  -1  -4   1   73.10    2.09
   3  -4   1   11.24    0.49
  -5   4  -1    1.62    0.22
  -7   4  -1    3.27    0.42
  -9   4  -1   13.33    0.66
 -11   4  -1   13.65    0.71
 -13   4  -1    7.98    1.14
 -15   4  -1    0.15    0.76
 -17   4  -1    2.47    0.93
 -19   4  -1   11.84    0.33
 -21   4  -1    5.53    0.16
  20   3  -1    7.76    0.85
 -20  -3   1    7.11    0.20
  18   3  -1    7.21    0.80
 -18  -3   1    7.91    0.22
  16   3  -1    1.64    0.49
 -16  -3   1    1.60    0.05
  14   3  -1    1.21    0.37
 -14  -3   1    1.29    0.04
  12   3  -1    5.89    0.62
 -12  -3   1    5.56    0.51
 -12  -3   1    5.59    0.16
  10   3  -1   10.14    0.63
 -10  -3   1    8.41    0.48
 -10  -3   1    8.85    0.24
   8   3  -1   23.66    0.86
  -8  -3   1   23.42    0.82
  -8  -3   1   22.26    0.64
   6   3  -1    2.62    0.34
  -6  -3   1    2.19    0.26
   4   3  -1    9.66    0.39
  -4  -3   1    9.46    0.38
   2   3  -1   98.99    2.82
  -2  -3   1  100.07    2.85
   2  -3   1   96.23    2.77
  -4   3  -1   10.84    0.43
  -6   3  -1    2.49    0.29
  -8   3  -1   24.53    0.89
 -10   3  -1    9.12    0.88
 -10   3  -1    9.91    0.60
 -12   3  -1    7.11    1.04
 -12   3  -1    5.30    0.56
 -14   3  -1    1.67    0.75
 -16   3  -1    1.73    0.69
 -18   3  -1    7.43    0.21
 -20   3  -1    8.69    0.25
  21   2  -1    9.93    0.90
 -21  -2   1    9.16    0.26
  19   2  -1   28.54    1.27
 -19  -2   1   27.58    0.77
  17   2  -1   11.86    0.84
 -17  -2   1   11.55    0.32
  15   2  -1    1.69    0.47
 -15  -2   1    1.31    0.04
  13   2  -1   10.25    0.72
 -13  -2   1    9.14    0.26
  11   2  -1   18.33    0.83
 -11  -2   1   15.52    0.43
 -11  -2   1   15.19    0.70
   9   2  -1   28.18    1.01
  -9  -2   1   24.12    0.69
  -9  -2   1   25.61    0.89
   7   2  -1    1.13    0.27
  -7  -2   1    1.18    0.20
  -7  -2   1    0.91    0.03
   5   2  -1   14.66    0.54
  -5  -2   1   12.75    0.46
   3   2  -1   92.52    2.63
  -3  -2   1   92.11    2.62
   1   2  -1  200.39    5.63
   1   2  -1  190.51    5.49
  -5   2  -1   14.70    0.54
  -7   2  -1    1.07    0.22
   7  -2   1    1.21    0.28
  -9   2  -1   26.23    1.35
  -9   2  -1   28.41    0.95
   9  -2   1   29.52    1.01
 -11   2  -1   17.14    1.22
 -11   2  -1   16.31    0.75
  11  -2   1   18.78    0.84
 -13   2  -1   10.10    1.12
  13  -2   1   10.47    0.73
 -15   2  -1    1.48    0.05
  15  -2   1    1.68    0.48
 -17   2  -1   11.57    0.33
  17  -2   1   11.92    0.76
 -19   2  -1   27.74    0.78
 -21   2  -1    9.88    0.28
  22   1  -1   24.52    1.25
 -22  -1   1   26.18    0.73
  20   1  -1   21.97    1.15
 -20  -1   1   21.42    0.60
  18   1  -1   10.94    0.77
 -18  -1   1   11.59    0.33
  16   1  -1    4.78    0.56
 -16  -1   1    4.94    0.14
  14   1  -1    9.11    0.72
 -14  -1   1    8.51    0.24
  12   1  -1   14.21    0.78
 -12  -1   1   11.20    0.58
 -12  -1   1   11.68    0.32
  10   1  -1    7.71    0.52
 -10  -1   1    7.05    0.51
 -10  -1   1    6.50    0.19
   8   1  -1    2.91    0.36
  -8  -1   1    2.54    0.25
  -8  -1   1    2.15    0.06
   6   1  -1    7.06    0.39
   6   1  -1    6.63    0.51
  -6  -1   1    7.10    0.37
   4   1  -1   68.33    2.15
   4   1  -1   72.81    2.03
  -4  -1   1   72.90    2.10
   2   1  -1  182.02    5.21
  -2  -1   1  189.74    5.44
  -4   1  -1   76.92    2.21
   4  -1   1   79.28    2.28
  -6   1  -1    7.18    0.38
  -6   1  -1    6.63    0.60
   6  -1   1    7.70    0.37
  -8   1  -1    2.46    0.30
  -8   1  -1    2.92    0.55
   8  -1   1    2.86    0.33
 -10   1  -1    6.80    0.51
 -10   1  -1    6.98    0.93
  10  -1   1    7.81    0.58
 -12   1  -1   12.22    0.33
 -12   1  -1   11.18    0.59
 -12   1  -1   10.35    1.09
  12  -1   1   13.64    0.75
 -14   1  -1    8.66    0.24
  14  -1   1    9.18    0.62
 -16   1  -1    4.83    0.14
  16  -1   1    5.72    0.71
 -18   1  -1   12.69    0.36
  18  -1   1   12.20    0.91
 -20   1  -1   21.91    0.61
  20  -1   1   23.79    1.20
 -22   1  -1   27.40    0.77
  21   0  -1   13.18    1.01
 -21   0   1   14.51    0.41
  19   0  -1   38.56    1.53
 -19   0   1   39.39    1.10
  17   0  -1   25.26    1.06
 -17   0   1   25.28    0.71
  15   0  -1    4.24    0.53
 -15   0   1    3.73    0.11
  13   0  -1    1.53    0.38
 -13   0   1    1.65    0.05
 -13   0   1    1.24    0.41
  11   0  -1    7.89    0.63
 -11   0   1    6.70    0.19
 -11   0   1    6.59    0.46
   9   0  -1    6.80    0.47
  -9   0   1    5.65    0.16
  -9   0   1    5.87    0.73
  -9   0   1    5.38    0.39
   7   0  -1    0.66    0.26
  -7   0   1    0.52    0.19
  -7   0   1    0.64    0.35
   5   0  -1   13.51    0.50
  -5   0   1   13.14    0.48
  -5   0   1   12.51    0.61
   3   0  -1  151.49    4.35
  -3   0   1  135.37    4.05
  -3   0   1  146.44    4.02
   1   0  -1    0.00    0.01
  -1   0   1    0.01    0.02
  -1   0  -1    0.01    0.03
  -1   0  -1    0.01    0.02
   1   0   1    0.01    0.03
   1   0   1    0.00    0.02
  -3   0  -1  145.04    4.00
  -3   0  -1  138.21    4.13
   3   0   1  136.06    4.17
   3   0   1  150.40    4.11
  -5   0  -1   12.17    0.67
  -5   0  -1   13.35    0.47
   5   0   1   13.44    0.48
  -7   0  -1    0.74    0.22
  -7   0  -1    0.34    0.40
   7   0   1    0.87    0.25
  -9   0  -1    5.78    0.16
  -9   0  -1    5.36    0.39
   9   0   1    6.26    0.52
 -11   0  -1    7.00    0.19
 -11   0  -1    6.59    0.52
  11   0   1    8.12    0.62
 -13   0  -1    1.78    0.06
  13   0   1    2.25    0.45
 -15   0  -1    3.73    0.11
  15   0   1    3.72    0.44
 -17   0  -1   24.67    0.69
  17   0   1   26.54    1.15
 -19   0  -1   39.27    1.10
  19   0   1   38.02    1.51
 -21   0  -1   14.66    0.41
  21   0   1   13.40    0.88
 -22   1   1   27.43    0.77
  20  -1  -1   21.94    1.16
 -20   1   1   21.08    0.59
  18  -1  -1   12.66    0.93
 -18   1   1   12.31    0.35
  16  -1  -1    5.22    0.58
 -16   1   1    4.92    0.14
  14  -1  -1    8.78    0.71
 -14   1   1    8.55    0.24
  12  -1  -1   13.65    0.77
 -12   1   1   12.29    1.06
 -12   1   1   12.23    0.34
 -12   1   1   12.12    0.67
  10  -1  -1    7.61    0.52
 -10   1   1    7.42    0.53
 -10   1   1    7.35    0.86
   8  -1  -1    2.76    0.34
  -8   1   1    2.60    0.48
  -8   1   1    2.56    0.30
   6  -1  -1    7.97    0.42
  -6   1   1    7.05    0.38
   4  -1  -1   78.84    2.27
  -4   1   1   79.40    2.28
   2  -1  -1  190.05    5.45
  -2   1   1  215.06    6.13
   0   1   1    0.02    0.02
  -2  -1  -1  193.63    5.54
   2   1   1  194.38    5.55
  -4  -1  -1   72.50    2.08
   4   1   1   74.28    2.13
  -6  -1  -1    6.77    0.35
   6   1   1    7.52    0.39
  -8  -1  -1    2.26    0.07
  -8  -1  -1    2.51    0.30
   8   1   1    3.04    0.32
 -10  -1  -1    6.03    0.43
 -10  -1  -1    6.70    0.18
  10   1   1    7.22    0.50
 -12  -1  -1   11.60    0.64
 -12  -1  -1   12.00    0.33
  12   1   1   12.79    0.66
 -14  -1  -1    8.55    0.24
  14   1   1    9.49    0.62
 -16  -1  -1    4.80    0.14
  16   1   1    5.80    0.69
 -18  -1  -1   12.04    0.34
  18   1   1   11.98    0.88
 -20  -1  -1   20.24    0.57
  20   1   1   20.24    1.00
 -22  -1  -1   27.00    0.76
  22   1   1   24.95    1.24
 -21   2   1    9.84    0.28
 -19   2   1   29.74    0.83
  17  -2  -1   13.71    0.90
 -17   2   1   11.75    0.33
  15  -2  -1    1.64    0.41
 -15   2   1    1.38    0.05
 -15   2   1    1.54    0.69
  13  -2  -1   10.16    0.73
 -13   2   1   10.68    1.06
 -13   2   1    9.13    0.57
  11  -2  -1   18.24    0.84
 -11   2   1   17.47    1.15
 -11   2   1   16.21    0.76
   9  -2  -1   28.60    1.03
  -9   2   1   27.75    0.95
  -9   2   1   26.91    1.26
   7  -2  -1    1.25    0.27
  -7   2   1    1.08    0.22
   5  -2  -1   15.93    0.58
  -5   2   1   14.89    0.55
  -3   2   1  107.67    3.06
  -1   2   1  168.88    4.79
  -3  -2  -1   91.40    2.60
   3   2   1   91.45    2.60
  -5  -2  -1   13.43    0.49
   5   2   1   13.54    0.50
  -7  -2  -1    0.84    0.03
  -7  -2  -1    0.96    0.19
   7   2   1    0.91    0.21
  -9  -2  -1   24.28    0.85
  -9  -2  -1   24.97    0.69
   9   2   1   28.40    1.00
 -11  -2  -1   14.49    0.68
 -11  -2  -1   15.55    0.42
  11   2   1   17.80    0.80
 -13  -2  -1    9.28    0.26
  13   2   1   10.40    0.71
 -15  -2  -1    1.40    0.05
  15   2   1    1.56    0.46
 -17  -2  -1   11.61    0.33
  17   2   1   12.04    0.74
 -19  -2  -1   27.25    0.76
  19   2   1   25.77    1.11
 -21  -2  -1   10.22    0.29
  21   2   1    9.04    0.87
 -20   3   1    8.01    0.23
 -18   3   1    7.12    0.20
 -16   3   1    1.59    0.77
 -16   3   1    1.64    0.05
 -14   3   1    0.84    0.70
  12  -3  -1    6.36    0.65
 -12   3   1    5.51    0.49
 -12   3   1    6.41    0.99
  10  -3  -1    9.60    0.57
 -10   3   1   10.13    0.62
  -8   3   1   25.24    0.91
  -6   3   1    2.75    0.28
  -2   3   1   94.03    2.73
   0  -3  -1  146.74    4.19
   2   3   1   97.96    2.78
  -4  -3  -1    9.50    0.37
   4   3   1    8.90    0.34
  -6  -3  -1    2.43    0.23
   6   3   1    2.34    0.24
  -8  -3  -1   22.24    0.63
  -8  -3  -1   23.04    0.80
   8   3   1   23.42    0.84
 -10  -3  -1    9.08    0.53
 -10  -3  -1    9.25    0.26
  10   3   1   10.09    0.60
 -12  -3  -1    5.59    0.16
 -12  -3  -1    5.21    0.50
  12   3   1    6.38    0.61
 -14  -3  -1    1.23    0.04
  14   3   1    1.09    0.43
 -16  -3  -1    1.61    0.05
  16   3   1    2.17    0.42
 -18  -3  -1    7.64    0.22
  18   3   1    6.90    0.76
 -20  -3  -1    7.76    0.22
  20   3   1    7.58    0.83
 -21   4   1    5.95    0.17
 -19   4   1   11.21    0.32
 -17   4   1    2.98    0.87
 -15   4   1    0.53    0.73
 -13   4   1    8.23    1.09
 -11   4   1   15.16    0.75
  -9   4   1   13.52    0.67
  -7   4   1    3.30    0.33
  -3   4   1    9.87    0.46
   1  -4  -1   72.64    2.15
  -3  -4  -1   10.05    0.39
   3   4   1    9.67    0.38
  -5  -4  -1    1.76    0.22
   5   4   1    1.71    0.21
  -7  -4  -1    2.99    0.35
  -7  -4  -1    2.78    0.08
   7   4   1    3.05    0.30
  -9  -4  -1   11.72    0.33
  -9  -4  -1   12.13    0.58
   9   4   1   11.84    0.60
 -11  -4  -1   12.65    0.64
 -11  -4  -1   13.48    0.37
  11   4   1   14.11    0.72
 -13  -4  -1    7.48    0.21
  13   4   1    7.76    0.64
 -15  -4  -1    0.44    0.02
  15   4   1    0.34    0.36
 -17  -4  -1    2.68    0.08
  17   4   1    2.75    0.44
 -19  -4  -1   11.33    0.32
  19   4   1   11.00    0.86
 -21  -4  -1    5.64    0.16
  21   4   1    4.81    0.55
 -20   5   1    1.37    0.96
 -20   5   1    0.93    0.04
 -18   5   1    4.76    1.04
 -16   5   1    1.86    0.82
 -14   5   1    3.15    0.82
 -12   5   1    3.08    0.43
 -10   5   1    4.21    0.53
  -8   5   1   31.61    1.10
   2  -5  -1   14.68    0.64
  -4  -5  -1    1.78    0.19
   4   5   1    1.75    0.21
  -6  -5  -1    8.46    0.44
  -6  -5  -1    8.01    0.23
   6   5   1    8.77    0.46
  -8  -5  -1   29.39    0.82
  -8  -5  -1   29.51    1.00
   8   5   1   28.92    0.99
 -10  -5  -1    4.00    0.11
 -10  -5  -1    3.63    0.38
  10   5   1    4.35    0.50
 -12  -5  -1    3.40    0.10
  12   5   1    2.87    0.43
 -14  -5  -1    2.77    0.08
  14   5   1    2.52    0.45
 -16  -5  -1    1.60    0.05
  16   5   1    1.34    0.38
 -18  -5  -1    3.75    0.11
  18   5   1    3.53    0.48
 -20  -5  -1    0.64    0.03
  20   5   1    1.39    0.46
 -21   6   1    0.92    0.04
 -21   6   1    0.94    1.02
 -19   6   1    4.48    1.12
 -17   6   1    0.87    0.76
 -11   6   1    9.77    0.59
  -9   6   1   28.31    1.04
   1  -6  -1    6.67    0.50
   3   6   1    2.40    0.31
  -5  -6  -1    8.27    0.24
  -5  -6  -1    9.30    0.46
   5   6   1    8.89    0.45
  -7  -6  -1   71.53    2.14
  -7  -6  -1   71.45    2.00
   7   6   1   70.40    2.10
  -9  -6  -1   26.90    0.74
  -9  -6  -1   26.13    0.96
   9   6   1   25.92    0.95
 -11  -6  -1    9.51    0.58
 -11  -6  -1   10.02    0.28
  11   6   1   10.11    0.63
 -13  -6  -1    9.18    0.26
  13   6   1    8.61    0.66
 -15  -6  -1    4.25    0.12
  15   6   1    4.24    0.50
 -17  -6  -1    0.84    0.03
  17   6   1    0.63    0.48
 -19  -6  -1    3.39    0.10
  19   6   1    3.17    0.56
 -21  -6  -1    1.56    0.05
  21   6   1    0.72    0.54
 -20   7   1    2.03    1.09
 -18   7   1    7.98    1.29
 -10   7   1   19.50    0.87
  -8   7   1   40.11    1.33
   4  -7  -1    3.67    0.10
   2  -7  -1    1.23    0.04
   2  -7  -1    1.20    0.36
   0  -7  -1    0.52    0.28
  -2  -7  -1    1.15    0.04
   2   7   1    1.24    0.14
  -4  -7  -1    3.17    0.09
   4   7   1    2.66    0.31
  -6  -7  -1   75.76    2.10
  -6  -7  -1   74.27    2.24
   6   7   1   71.57    2.14
  -8  -7  -1   40.65    1.12
  -8  -7  -1   39.28    1.30
   8   7   1   38.37    1.26
 -10  -7  -1   19.29    0.53
 -10  -7  -1   18.38    0.79
  10   7   1   18.00    0.80
 -12  -7  -1    4.86    0.14
  12   7   1    3.83    0.45
 -14  -7  -1    7.80    0.22
  14   7   1    6.83    0.65
 -16  -7  -1    4.00    0.12
  16   7   1    4.05    0.53
 -18  -7  -1    5.14    0.15
  18   7   1    7.04    0.75
 -20  -7  -1    2.17    0.07
  20   7   1    1.44    0.54
 -19   8   1    1.38    1.13
 -11   8   1   19.03    0.87
  -9   8   1   38.24    1.30
   3  -8  -1   27.82    0.76
   3  -8  -1   26.06    1.07
   1  -8  -1    2.71    0.08
   1  -8  -1    2.78    0.40
  -1  -8  -1    2.64    0.08
  -3  -8  -1   25.38    0.71
   3   8   1   23.84    0.75
   3   8   1   23.55    0.83
  -5  -8  -1   32.23    0.90
   5   8   1   30.60    1.04
  -7  -8  -1   42.82    1.20
   7   8   1   39.28    1.29
  -9  -8  -1   40.98    1.10
  -9  -8  -1   37.05    1.31
   9   8   1   37.29    1.27
 -11  -8  -1   20.64    0.58
  11   8   1   18.28    0.83
 -13  -8  -1   19.50    0.55
  13   8   1   17.63    0.84
 -15  -8  -1    7.85    0.22
  15   8   1    6.46    0.67
  17   8   1    2.95    0.54
 -19  -8  -1   -0.21    0.03
  19   8   1    0.61    0.53
 -20   9   1    1.09    1.21
 -10   9   1   34.37    1.27
   4  -9  -1   13.70    0.38
   2  -9  -1   30.34    1.24
   2  -9  -1   30.38    0.85
   0  -9  -1    7.18    0.73
   0  -9  -1    6.87    0.19
  -2  -9  -1   28.77    0.80
  -4  -9  -1   13.79    0.39
   4   9   1   12.25    0.60
   4   9   1   11.75    0.48
  -6  -9  -1   30.23    0.85
   6   9   1   26.46    0.97
  -8  -9  -1   41.67    1.16
   8   9   1   37.51    1.27
 -10  -9  -1   35.79    1.00
  10   9   1   32.75    1.15
 -12  -9  -1   10.02    0.28
  12   9   1    8.40    0.66
 -14  -9  -1    7.38    0.21
  14   9   1    6.41    0.66
 -16  -9  -1   10.68    0.30
  16   9   1    9.53    0.77
 -18  -9  -1    7.67    0.22
  18   9   1    6.79    0.76
 -20  -9  -1    1.10    0.04
  20   9   1    1.29    0.56
 -19  10   1    2.29    1.28
   5 -10  -1    4.34    0.12
   3 -10  -1   11.28    0.31
   3 -10  -1   10.85    0.87
   1 -10  -1    8.15    0.23
   1 -10  -1    8.83    0.81
  -1 -10  -1    8.07    0.23
  -3 -10  -1   10.98    0.31
  -5 -10  -1    4.40    0.13
   5  10   1    3.82    0.49
  -7 -10  -1   21.72    0.61
   7  10   1   19.52    0.82
  -9 -10  -1   38.42    1.07
   9  10   1   34.14    1.22
 -11 -10  -1   20.83    0.58
  11  10   1   18.43    0.87
 -13 -10  -1    9.12    0.26
  13  10   1    8.30    0.61
 -15 -10  -1    6.14    0.17
  15  10   1    5.41    0.59
 -17 -10  -1    1.12    0.05
  17  10   1    2.77    0.55
 -19 -10  -1    1.40    0.05
  19  10   1    1.30    0.56
   4 -11  -1   16.11    0.45
   2 -11  -1   19.99    0.57
   2 -11  -1   20.84    1.10
   0 -11  -1    6.58    0.74
   0 -11  -1    7.54    0.21
  -2 -11  -1   18.92    0.53
  -4 -11  -1   16.48    0.46
   4  11   1   13.45    0.66
  -6 -11  -1   11.51    0.32
   6  11   1   10.18    0.62
  -8 -11  -1   23.29    0.65
   8  11   1   19.26    0.84
 -10 -11  -1   21.90    0.61
  10  11   1   18.49    0.87
 -12 -11  -1    3.67    0.11
  12  11   1    3.26    0.49
 -14 -11  -1    5.68    0.16
  14  11   1    4.83    0.56
 -16 -11  -1    7.56    0.21
  16  11   1    8.63    0.68
 -18 -11  -1    4.03    0.12
  18  11   1    3.26    0.59
   5 -12  -1    3.96    0.11
   3 -12  -1    7.11    0.77
   3 -12  -1    7.46    0.21
   1 -12  -1   13.80    0.94
   1 -12  -1   14.39    0.40
  -1 -12  -1   14.07    0.40
  -1 -12  -1   15.16    0.96
  -3 -12  -1    6.96    0.20
  -5 -12  -1    3.84    0.11
   5  12   1    3.26    0.40
  -7 -12  -1    5.77    0.16
   7  12   1    5.51    0.56
   7  12   1    4.60    0.43
  -9 -12  -1   11.88    0.33
   9  12   1    9.41    0.59
 -11 -12  -1    3.90    0.11
  11  12   1    2.44    0.47
 -13 -12  -1    2.03    0.07
  13  12   1    2.22    0.51
 -15 -12  -1    3.12    0.09
  15  12   1    3.16    0.55
 -17 -12  -1    3.49    0.10
  17  12   1    2.92    0.50
   6 -13  -1   11.51    0.32
   4 -13  -1    9.02    0.25
   2 -13  -1   12.05    0.34
   2 -13  -1   12.77    1.04
   0 -13  -1    1.70    0.68
   0 -13  -1    1.79    0.06
  -2 -13  -1   11.70    0.33
  -4 -13  -1    8.62    0.24
   4  13   1    6.61    0.48
  -6 -13  -1   11.81    0.33
   6  13   1    9.25    0.62
  -8 -13  -1   23.54    0.66
   8  13   1   17.30    0.71
   8  13   1   17.99    0.82
 -10 -13  -1   10.25    0.29
  10  13   1    9.08    0.70
 -12 -13  -1    1.82    0.06
  12  13   1    2.00    0.50
 -14 -13  -1    2.29    0.07
  14  13   1    2.09    0.54
 -16 -13  -1    7.36    0.21
  16  13   1    7.09    0.80
   5 -14  -1    3.52    0.10
   3 -14  -1    1.56    0.67
   3 -14  -1    1.55    0.05
   1 -14  -1   10.45    0.29
   1 -14  -1   10.18    1.03
  -1 -14  -1   11.61    1.10
  -1 -14  -1   10.49    0.30
  -3 -14  -1    1.48    0.05
  -5 -14  -1    3.55    0.10
   5  14   1    2.81    0.40
  -7 -14  -1    9.48    0.27
   7  14   1    7.81    0.62
  -9 -14  -1    8.94    0.25
   9  14   1    6.68    0.51
   9  14   1    5.70    0.62
 -11 -14  -1    5.71    0.16
  11  14   1    4.65    0.54
 -13 -14  -1    1.38    0.05
  13  14   1    2.42    0.54
 -15 -14  -1    1.31    0.05
  15  14   1    2.43    0.57
 -17 -14  -1    2.02    0.07
  17  14   1    1.80    0.48
   6 -15  -1    5.40    0.15
   4 -15  -1    0.44    0.02
   2 -15  -1    2.20    0.07
   2 -15  -1    2.33    0.62
   0 -15  -1    4.35    0.13
   0 -15  -1    5.22    0.81
  -2 -15  -1    2.46    0.76
  -2 -15  -1    1.67    0.06
  -4 -15  -1    0.42    0.02
   4  15   1    0.11    0.35
  -6 -15  -1    5.43    0.16
   6  15   1    4.21    0.46
  -8 -15  -1    9.64    0.27
   8  15   1    6.06    0.53
 -10 -15  -1    8.13    0.23
  10  15   1    6.56    0.66
  10  15   1    5.41    0.52
 -12 -15  -1    2.16    0.07
  12  15   1    3.45    0.42
  12  15   1    2.93    0.54
 -14 -15  -1    1.29    0.05
  14  15   1    2.45    0.58
 -16 -15  -1    5.77    0.17
  16  15   1    3.56    0.62
   5 -16  -1    1.67    0.05
   3 -16  -1    2.66    0.74
   3 -16  -1    2.11    0.07
   1 -16  -1    6.12    0.17
   1 -16  -1    5.93    0.78
  -1 -16  -1    6.08    0.17
  -1 -16  -1    7.01    0.93
  -3 -16  -1    2.05    0.06
  -3 -16  -1    1.90    0.67
  -5 -16  -1    2.08    0.07
   5  16   1    1.08    0.39
  -7 -16  -1    5.05    0.15
   7  16   1    4.55    0.49
  -9 -16  -1   12.58    0.35
   9  16   1   10.28    0.71
 -11 -16  -1    9.79    0.28
  11  16   1    8.38    0.64
  11  16   1    8.30    0.57
 -13 -16  -1    7.63    0.22
  13  16   1    7.77    0.61
  13  16   1    7.13    0.79
 -15 -16  -1    6.13    0.18
  15  16   1    3.97    0.63
  15  16   1    4.91    0.53
   6 -17  -1    1.01    0.04
   4 -17  -1    2.89    0.09
   2 -17  -1   13.04    1.27
   2 -17  -1   14.74    0.41
   0 -17  -1   31.63    0.88
   0 -17  -1   31.60    1.55
  -2 -17  -1   14.14    1.17
  -2 -17  -1   14.40    0.40
  -4 -17  -1    4.06    0.92
  -4 -17  -1    3.45    0.10
   4  17   1    2.48    0.44
  -6 -17  -1    1.03    0.04
   6  17   1    0.59    0.34
  -8 -17  -1    2.03    0.07
   8  17   1    2.55    0.47
 -10 -17  -1    1.96    0.07
  10  17   1    1.75    0.41
 -12 -17  -1    4.24    0.13
  12  17   1    2.67    0.55
 -14 -17  -1    2.99    0.09
  14  17   1    2.03    0.57
   5 -18  -1    4.27    0.12
   3 -18  -1    9.92    0.28
   1 -18  -1   13.98    0.39
   1 -18  -1   12.52    1.21
  -1 -18  -1   13.51    1.23
  -1 -18  -1   14.80    0.41
  -3 -18  -1   10.11    0.28
  -3 -18  -1    9.55    1.12
   3  18   1    7.48    0.70
  -5 -18  -1    3.27    0.10
  -5 -18  -1    4.16    0.99
   5  18   1    3.32    0.48
  -7 -18  -1    7.43    0.21
   7  18   1    6.28    0.64
  -9 -18  -1   10.11    0.29
   9  18   1    6.07    0.65
 -11 -18  -1    4.89    0.14
  11  18   1    3.36    0.53
   6 -19  -1    5.09    0.15
   4 -19  -1   13.81    0.39
   2 -19  -1   33.38    1.71
   2 -19  -1   33.93    0.94
   0 -19  -1   49.17    1.35
   0 -19  -1   46.72    2.11
  -2 -19  -1   36.91    1.96
  -2 -19  -1   35.77    1.01
  -4 -19  -1   13.68    0.39
  -4 -19  -1   15.40    1.48
   4  19   1   10.21    0.75
  -6 -19  -1    4.38    0.13
  -6 -19  -1    4.26    0.87
   6  19   1    3.74    0.50
  -8 -19  -1    1.87    0.77
   8  19   1    0.97    0.37
 -10 -19  -1    0.99    0.04
  10  19   1    1.26    0.47
   5 -20  -1    1.22    0.05
   3 -20  -1    8.91    0.25
   1 -20  -1   25.47    1.64
   1 -20  -1   29.41    0.79
  -1 -20  -1   27.51    0.75
  -1 -20  -1   24.82    1.79
  -3 -20  -1   11.05    1.26
  -3 -20  -1   10.39    0.30
   3  20   1    7.27    0.74
  -5 -20  -1    1.34    1.01
  -5 -20  -1    0.56    0.04
   5  20   1    1.16    0.47
  -7 -20  -1    2.14    0.07
  -7 -20  -1    2.90    1.03
   7  20   1    1.78    0.39
  -9 -20  -1    0.31    0.93
  -9 -20  -1    0.61    0.04
   9  20   1    0.72    0.44
   4 -21  -1    6.96    0.20
   2 -21  -1   12.24    0.34
   0 -21  -1   19.37    1.71
   0 -21  -1   18.58    0.52
  -2 -21  -1   11.96    1.34
  -2 -21  -1   12.43    0.35
  -4 -21  -1    7.81    1.04
  -4 -21  -1    7.61    0.22
   4  21   1    4.77    0.59
  -6 -21  -1    1.29    0.05
  -6 -21  -1    1.55    0.85
   6  21   1    0.31    0.44
   1 -22  -1   34.79    0.97
  -1 -22  -1   38.46    1.03
  -1 -22  -1   32.65    1.93
   0 -22   2   64.23    2.75
   0 -22   2   63.41    1.78
   5  21  -2   -0.05    0.47
  -5 -21   2    0.88    1.00
   3  21  -2    3.16    0.57
  -3 -21   2    4.75    0.14
  -3 -21   2    6.19    1.01
  -1 -21   2    5.53    0.99
  -1 -21   2    5.39    0.16
   1 -21   2    4.70    1.14
   1 -21   2    5.70    0.16
   3 -21   2    5.16    0.92
   3 -21   2    5.10    0.15
   5 -21   2    0.45    0.03
   8  20  -2    2.03    0.49
  -8 -20   2    1.41    0.06
   6  20  -2    1.59    0.48
  -6 -20   2    2.63    0.08
   4  20  -2    3.84    0.56
  -4 -20   2    4.90    0.14
  -4 -20   2    5.40    0.94
  -2 -20   2   39.63    1.99
  -2 -20   2   43.42    1.18
   0 -20   2   19.87    1.66
   0 -20   2   22.03    0.61
   2 -20   2   40.38    1.16
   2 -20   2   43.49    2.06
   4 -20   2    5.29    0.15
   6 -20   2    2.69    0.08
  11  19  -2    2.46    0.45
 -11 -19   2    5.27    0.15
   9  19  -2    2.35    0.48
  -9 -19   2    4.59    0.14
   7  19  -2    2.02    0.47
  -7 -19   2    3.00    0.09
   5  19  -2    1.46    0.40
  -5 -19   2    1.19    0.05
   3  19  -2    4.40    0.58
  -3 -19   2    6.98    0.20
  -3 -19   2    7.23    0.97
  -1 -19   2   22.01    0.61
  -1 -19   2   20.56    1.46
   1 -19   2   21.74    0.61
   1 -19   2   21.69    1.45
   3 -19   2    7.73    0.22
   3 -19   2    7.57    1.07
   5 -19   2    2.20    0.07
   7 -19   2    3.95    0.12
  12  18  -2    1.86    0.54
  10  18  -2    5.04    0.57
 -10 -18   2    7.19    0.21
   8  18  -2    4.99    0.64
  -8 -18   2    6.61    0.19
   6  18  -2    6.24    0.56
  -6 -18   2    9.66    0.27
   4  18  -2    7.90    0.70
  -4 -18   2   11.83    0.33
  -2 -18   2   20.91    0.59
   0 -18   2   40.71    1.97
   2 -18   2   19.85    1.31
   2 -18   2   21.25    0.59
   4 -18   2   10.63    0.30
   4 -18   2   11.14    1.21
   6 -18   2    8.86    0.25
  13  17  -2    3.77    0.60
  13  17  -2    3.51    0.48
 -13 -17   2    4.07    0.12
  11  17  -2    3.71    0.55
 -11 -17   2    5.88    0.17
   9  17  -2    4.42    0.52
  -9 -17   2    6.95    0.20
   7  17  -2    4.18    0.50
  -7 -17   2    7.49    0.21
   5  17  -2    0.90    0.42
  -5 -17   2    0.66    0.03
   3  17  -2    2.80    0.48
  -3 -17   2    4.05    0.12
  -1 -17   2   10.13    1.07
  -1 -17   2    9.82    0.28
   1 -17   2    9.46    0.27
   1 -17   2    9.06    1.03
   3 -17   2    3.63    0.11
   3 -17   2    4.20    0.82
   5 -17   2    0.66    0.03
   7 -17   2    6.25    0.18
  14  16  -2    6.06    0.60
  14  16  -2    5.97    0.67
 -14 -16   2    7.45    0.21
  12  16  -2    8.61    0.79
  12  16  -2    8.67    0.66
 -12 -16   2   11.16    0.32
  10  16  -2   10.33    0.66
 -10 -16   2   16.27    0.46
   8  16  -2    8.92    0.69
  -8 -16   2   12.43    0.35
   6  16  -2    2.97    0.39
  -6 -16   2    4.78    0.14
   4  16  -2    1.35    0.41
  -4 -16   2    2.24    0.07
  -2 -16   2    6.46    0.18
   0 -16   2   13.87    0.39
   2 -16   2    6.32    0.18
   2 -16   2    7.12    0.87
   4 -16   2    2.24    0.71
   4 -16   2    2.13    0.07
   6 -16   2    4.04    0.12
  15  15  -2    5.14    0.54
  15  15  -2    5.77    0.68
 -15 -15   2    6.83    0.20
  13  15  -2    3.32    0.43
  13  15  -2    3.48    0.60
 -13 -15   2    3.45    0.10
  11  15  -2    3.14    0.47
  11  15  -2    3.38    0.44
 -11 -15   2    3.71    0.11
   9  15  -2    8.74    0.70
  -9 -15   2   12.46    0.35
   7  15  -2    2.47    0.39
  -7 -15   2    3.69    0.11
   5  15  -2    0.96    0.39
  -5 -15   2    1.82    0.06
  -3 -15   2    0.67    0.03
  -1 -15   2    8.26    0.23
   1 -15   2    8.79    0.88
   1 -15   2    7.80    0.22
   3 -15   2    0.65    0.64
   3 -15   2    0.58    0.03
   5 -15   2    1.50    0.05
   5 -15   2    1.41    0.53
   7 -15   2    3.25    0.10
  16  14  -2    4.79    0.67
 -16 -14   2    6.60    0.19
  14  14  -2    3.41    0.61
 -14 -14   2    3.45    0.10
  12  14  -2    4.04    0.45
  12  14  -2    4.30    0.58
 -12 -14   2    5.38    0.16
  10  14  -2   10.62    0.65
  10  14  -2   11.01    0.75
 -10 -14   2   14.05    0.39
   8  14  -2   12.54    0.74
  -8 -14   2   15.56    0.44
   6  14  -2    9.64    0.66
  -6 -14   2   15.13    0.42
   4  14  -2    3.58    0.43
  -4 -14   2    5.19    0.15
  -2 -14   2    3.99    0.12
   0 -14   2    4.90    0.14
   2 -14   2    3.60    0.72
   2 -14   2    3.72    0.11
   4 -14   2    4.51    0.13
   4 -14   2    4.36    0.61
   6 -14   2   13.18    0.37
  17  13  -2    3.76    0.55
 -17 -13   2    4.42    0.13
  15  13  -2    3.55    0.61
 -15 -13   2    3.73    0.11
  13  13  -2    3.42    0.58
 -13 -13   2    3.75    0.11
  11  13  -2    4.14    0.47
  11  13  -2    3.74    0.42
 -11 -13   2    5.17    0.15
   9  13  -2    7.10    0.58
   9  13  -2    7.80    0.56
  -9 -13   2    9.91    0.28
   7  13  -2    6.64    0.62
  -7 -13   2    9.22    0.26
   5  13  -2    6.06    0.58
  -5 -13   2    7.68    0.22
  -3 -13   2   12.58    0.35
  -1 -13   2    7.44    0.21
   1 -13   2    7.31    0.21
   1 -13   2    8.51    0.82
   3 -13   2   11.89    0.33
   3 -13   2   11.62    0.98
   5 -13   2    7.34    0.76
   5 -13   2    7.06    0.20
   7 -13   2    8.22    0.23
  18  12  -2    1.77    0.61
 -18 -12   2    2.07    0.07
  16  12  -2    8.08    0.73
 -16 -12   2    9.85    0.28
  14  12  -2    4.01    0.59
 -14 -12   2    5.13    0.15
  12  12  -2    1.35    0.42
 -12 -12   2    1.30    0.05
  10  12  -2   18.19    0.83
 -10 -12   2   21.93    0.61
   8  12  -2   14.46    0.69
   8  12  -2   15.00    0.77
  -8 -12   2   17.66    0.49
   6  12  -2   11.33    0.67
  -6 -12   2   15.51    0.43
   4  12  -2    7.66    0.58
  -4 -12   2   10.23    0.29
  -2 -12   2   10.94    0.31
   0 -12   2   32.79    0.88
   0 -12   2   29.75    1.01
   2 -12   2   10.37    0.81
   2 -12   2   10.37    0.29
   4 -12   2   10.45    0.88
   4 -12   2    9.31    0.27
   6 -12   2   14.57    0.41
  19  11  -2    3.46    0.65
 -19 -11   2    4.10    0.12
  17  11  -2    4.95    0.66
 -17 -11   2    4.85    0.14
  15  11  -2    3.84    0.60
 -15 -11   2    3.10    0.09
  13  11  -2    4.87    0.58
 -13 -11   2    4.85    0.14
  11  11  -2   10.54    0.76
 -11 -11   2   11.28    0.32
   9  11  -2    1.56    0.43
  -9 -11   2    2.01    0.06
   7  11  -2   10.13    0.59
   7  11  -2   11.09    0.67
  -7 -11   2   12.49    0.35
   5  11  -2    4.21    0.44
  -5 -11   2    5.10    0.15
  -3 -11   2    4.98    0.14
  -1 -11   2   11.38    0.32
   1 -11   2   11.46    0.32
   3 -11   2    4.49    0.13
   3 -11   2    3.98    0.53
   5 -11   2    4.93    0.14
   5 -11   2    4.84    0.62
   7 -11   2   13.14    0.37
 -19  11  -2    5.03    1.35
  18  10  -2    6.35    0.70
 -18 -10   2    6.45    0.18
  16  10  -2   11.42    0.87
 -16 -10   2   13.33    0.37
  14  10  -2    9.71    0.78
 -14 -10   2   11.63    0.33
  12  10  -2   18.25    0.92
 -12 -10   2   19.06    0.53
  10  10  -2   17.33    0.86
 -10 -10   2   17.64    0.49
   8  10  -2   66.30    2.07
  -8 -10   2   78.74    2.20
   6  10  -2    7.08    0.50
   6  10  -2    7.39    0.59
  -6 -10   2    8.07    0.23
   4  10  -2   20.98    0.79
  -4 -10   2   25.47    0.71
  -2 -10   2   25.07    0.70
   0 -10   2    8.13    0.22
   0 -10   2    7.34    0.42
   2 -10   2   24.15    0.68
   4 -10   2   24.79    0.68
   4 -10   2   23.31    1.03
   6 -10   2    8.19    0.23
 -18  10  -2    9.77    1.61
  19   9  -2    3.21    0.63
 -19  -9   2    3.22    0.09
  17   9  -2    6.27    0.69
 -17  -9   2    6.24    0.18
  15   9  -2    9.81    0.80
 -15  -9   2    9.75    0.27
  13   9  -2    7.44    0.71
 -13  -9   2    7.95    0.22
  11   9  -2    1.70    0.45
 -11  -9   2    1.59    0.05
   9   9  -2   18.95    0.87
  -9  -9   2   19.56    0.52
  -9  -9   2   16.34    0.90
   7   9  -2    1.15    0.30
  -7  -9   2    1.31    0.05
   5   9  -2    5.80    0.45
   5   9  -2    7.15    0.54
  -5  -9   2    7.04    0.20
   3   9  -2    6.00    0.43
  -3  -9   2    7.06    0.20
  -1  -9   2   11.17    0.48
  -1  -9   2   11.86    0.33
   1  -9   2   11.72    0.33
   3  -9   2    7.21    0.68
   3  -9   2    6.48    0.19
   5  -9   2    6.85    0.19
   5  -9   2    6.42    0.68
 -19   9  -2    3.11    1.36
  20   8  -2    2.51    0.61
 -20  -8   2    2.42    0.08
  18   8  -2    6.18    0.79
 -18  -8   2    6.16    0.18
  16   8  -2    8.80    0.80
 -16  -8   2    9.95    0.28
  14   8  -2   12.28    0.80
 -14  -8   2   12.95    0.36
  12   8  -2   15.61    0.83
 -12  -8   2   15.30    0.43
  10   8  -2   66.05    2.08
 -10  -8   2   69.74    1.95
   8   8  -2   17.72    0.74
  -8  -8   2   19.00    0.51
  -8  -8   2   17.40    0.74
   6   8  -2   84.70    2.53
  -6  -8   2   89.96    2.52
   4   8  -2   12.36    0.56
   4   8  -2   13.29    0.62
  -4  -8   2   14.39    0.40
  -2  -8   2   18.36    0.51
   0  -8   2   19.71    0.55
   2  -8   2   18.20    0.51
   4  -8   2   13.72    0.77
   4  -8   2   14.88    0.41
   6  -8   2  100.98    2.82
 -10   8  -2   66.01    2.09
 -18   8  -2    8.67    1.44
 -20   8  -2    3.03    1.08
  19   7  -2    2.04    0.58
 -19  -7   2    3.06    0.09
  17   7  -2    6.06    0.63
 -17  -7   2    5.38    0.15
  15   7  -2    2.24    0.52
 -15  -7   2    2.60    0.08
  13   7  -2    6.19    0.56
 -13  -7   2    7.08    0.20
  11   7  -2   10.64    0.70
 -11  -7   2   10.73    0.30
   9   7  -2    1.14    0.38
  -9  -7   2    1.18    0.33
  -9  -7   2    1.04    0.04
   7   7  -2   26.80    0.98
  -7  -7   2   27.34    0.76
  -7  -7   2   26.64    0.97
   5   7  -2    4.32    0.45
  -5  -7   2    4.18    0.12
   3   7  -2    5.04    0.41
   3   7  -2    5.83    0.36
  -3  -7   2    5.75    0.16
  -1  -7   2    4.22    0.28
   3  -7   2    6.20    0.18
   3  -7   2    6.41    0.46
   5  -7   2    4.44    0.13
  -9   7  -2    0.58    0.37
 -11   7  -2   10.43    0.77
 -17   7  -2    5.29    1.19
 -19   7  -2    3.63    1.20
  20   6  -2    1.96    0.49
 -20  -6   2    1.80    0.06
  18   6  -2    6.62    0.68
 -18  -6   2    7.07    0.20
  16   6  -2    3.96    0.56
 -16  -6   2    3.46    0.10
  14   6  -2   11.22    0.76
 -14  -6   2   11.09    0.31
  12   6  -2   13.05    0.68
 -12  -6   2   12.34    0.35
  10   6  -2    7.53    0.60
 -10  -6   2    6.68    0.55
 -10  -6   2    6.92    0.19
   8   6  -2   84.45    2.52
  -8  -6   2   83.08    2.28
  -8  -6   2   79.81    2.43
   6   6  -2    7.40    0.49
  -6  -6   2    6.74    0.46
  -6  -6   2    6.26    0.18
   4   6  -2    1.75    0.27
  -4  -6   2    1.63    0.05
   4  -6   2    1.81    0.30
  -8   6  -2   91.86    2.74
 -10   6  -2    7.24    0.58
 -16   6  -2    3.13    1.01
 -18   6  -2    7.75    1.28
 -20   6  -2    2.83    1.16
  21   5  -2    0.46    0.46
 -21  -5   2    0.49    0.03
  19   5  -2    2.66    0.58
 -19  -5   2    1.64    0.05
  17   5  -2    1.27    0.51
 -17  -5   2    0.55    0.03
  15   5  -2    1.17    0.39
 -15  -5   2    1.47    0.05
  13   5  -2    5.73    0.55
 -13  -5   2    5.88    0.17
  11   5  -2    5.01    0.58
 -11  -5   2    3.92    0.11
 -11  -5   2    3.94    0.42
   9   5  -2    6.63    0.55
  -9  -5   2    5.91    0.17
  -9  -5   2    6.13    0.49
   7   5  -2    4.38    0.39
  -7  -5   2    3.93    0.42
  -7  -5   2    3.84    0.11
   5   5  -2    1.40    0.22
  -5  -5   2    1.44    0.23
   3   5  -2    8.18    0.37
   3   5  -2    8.90    0.41
  -1  -5   2    4.05    0.24
   3  -5   2    8.72    0.47
  -7   5  -2    3.51    0.36
  -9   5  -2    5.87    0.52
 -11   5  -2    4.10    0.46
 -13   5  -2    7.97    1.19
 -15   5  -2    1.30    0.86
 -17   5  -2    0.36    0.73
 -19   5  -2    2.07    1.06
 -21   5  -2    0.13    0.03
  20   4  -2    3.98    0.62
 -20  -4   2    4.53    0.13
  18   4  -2    9.11    0.72
 -18  -4   2    8.75    0.25
  16   4  -2    1.96    0.43
 -16  -4   2    1.70    0.05
  14   4  -2    4.25    0.51
 -14  -4   2    3.81    0.11
  12   4  -2    8.29    0.58
 -12  -4   2    7.84    0.22
 -12  -4   2    7.51    0.57
  10   4  -2   22.35    0.90
 -10  -4   2   20.93    0.57
 -10  -4   2   19.96    0.77
   8   4  -2   13.81    0.65
  -8  -4   2   12.33    0.34
  -8  -4   2   11.93    0.53
   6   4  -2    1.93    0.27
  -6  -4   2    1.65    0.25
  -6  -4   2    1.64    0.05
   4   4  -2   -0.04    0.14
  -4  -4   2    0.29    0.14
   2   4  -2  163.58    4.61
   2   4  -2  161.53    4.60
  -6   4  -2    1.22    0.20
  -8   4  -2   14.00    0.64
 -10   4  -2   22.55    0.85
 -12   4  -2    8.07    0.60
 -12   4  -2    8.24    1.00
 -14   4  -2    4.33    0.91
 -16   4  -2    2.03    0.87
 -18   4  -2    8.93    1.39
 -18   4  -2    9.19    0.26
 -20   4  -2    4.49    0.13
  21   3  -2    3.35    0.63
 -21  -3   2    3.38    0.10
  19   3  -2    4.81    0.64
 -19  -3   2    6.12    0.17
  17   3  -2    3.57    0.48
 -17  -3   2    3.19    0.09
  15   3  -2    0.29    0.45
 -15  -3   2    0.47    0.02
  13   3  -2   10.66    0.73
 -13  -3   2    9.35    0.26
  11   3  -2    4.76    0.59
 -11  -3   2    4.12    0.49
 -11  -3   2    3.93    0.11
   9   3  -2    6.44    0.46
  -9  -3   2    5.70    0.16
  -9  -3   2    6.15    0.48
   7   3  -2    5.20    0.37
  -7  -3   2    4.75    0.14
  -7  -3   2    5.28    0.39
   5   3  -2    8.45    0.38
  -5  -3   2    7.56    0.37
   3   3  -2    7.72    0.32
  -3  -3   2    7.89    0.33
  -1  -3   2    1.79    0.15
   3  -3   2    6.49    0.30
  -5   3  -2    8.05    0.35
  -7   3  -2    5.01    0.41
  -9   3  -2    6.55    0.51
 -11   3  -2    3.62    0.68
 -11   3  -2    3.58    0.43
 -13   3  -2   10.84    1.19
 -15   3  -2    0.43    0.77
 -17   3  -2    3.01    0.09
 -21   3  -2    3.83    0.11
  20   2  -2   33.33    1.40
 -20  -2   2   32.30    0.90
  18   2  -2   17.16    0.99
 -18  -2   2   16.97    0.48
  16   2  -2    5.76    0.59
 -16  -2   2    5.01    0.14
  14   2  -2    3.00    0.42
 -14  -2   2    3.03    0.09
  12   2  -2    9.46    0.61
 -12  -2   2    8.45    0.58
 -12  -2   2    8.55    0.24
  10   2  -2   22.58    0.91
 -10  -2   2   20.13    0.79
 -10  -2   2   19.89    0.56
   8   2  -2   18.08    0.73
  -8  -2   2   15.14    0.43
  -8  -2   2   16.02    0.60
   6   2  -2    1.80    0.25
   6   2  -2    1.85    0.34
  -6  -2   2    1.92    0.23
   4   2  -2  163.06    4.62
  -4  -2   2  150.45    4.26
   2   2  -2    3.21    0.18
  -2  -2   2    3.22    0.18
  -4   2  -2  174.19    4.93
  -6   2  -2    1.94    0.24
  -8   2  -2   16.40    1.04
  -8   2  -2   17.35    0.65
   8  -2   2   19.13    0.72
 -10   2  -2   22.03    1.31
 -10   2  -2   20.67    0.83
  10  -2   2   22.56    0.86
 -12   2  -2    9.62    0.98
 -12   2  -2    9.08    0.60
  12  -2   2   10.09    0.70
 -14   2  -2    3.69    0.83
  14  -2   2    3.18    0.49
 -16   2  -2    5.23    0.15
  16  -2   2    5.46    0.61
 -18   2  -2   17.55    0.49
 -20   2  -2   31.45    0.88
  21   1  -2    3.00    0.66
 -21  -1   2    3.58    0.11
  19   1  -2   16.79    0.93
 -19  -1   2   15.96    0.45
  17   1  -2    8.16    0.69
 -17  -1   2    7.49    0.21
  15   1  -2    7.01    0.70
 -15  -1   2    6.12    0.17
  13   1  -2    7.05    0.59
 -13  -1   2    6.64    0.65
 -13  -1   2    6.20    0.18
  11   1  -2   11.20    0.70
 -11  -1   2    9.98    0.28
 -11  -1   2    9.81    0.53
   9   1  -2   11.50    0.58
  -9  -1   2   11.39    0.56
  -9  -1   2   10.07    0.29
   7   1  -2    5.01    0.42
  -7  -1   2    4.43    0.37
   5   1  -2    4.66    0.32
   5   1  -2    4.39    0.38
  -5  -1   2    4.45    0.29
   3   1  -2    2.17    0.18
  -3  -1   2    1.97    0.17
  -3   1  -2    1.87    0.17
  -5   1  -2    4.65    0.52
  -5   1  -2    4.82    0.29
   5  -1   2    4.79    0.31
  -7   1  -2    4.23    0.66
  -7   1  -2    4.15    0.36
   7  -1   2    4.65    0.40
  -9   1  -2   10.39    0.87
  -9   1  -2   10.95    0.55
   9  -1   2   11.75    0.62
 -11   1  -2   10.23    0.60
 -11   1  -2   10.02    1.07
  11  -1   2    9.83    0.58
 -13   1  -2    6.16    0.17
  13  -1   2    6.78    0.65
 -15   1  -2    6.54    0.18
  15  -1   2    6.41    0.69
 -17   1  -2    7.30    0.21
  17  -1   2    9.12    0.79
  19  -1   2   18.98    1.07
 -21   1  -2    4.14    0.12
  22   0  -2   49.51    1.86
 -22   0   2   48.02    1.34
  20   0  -2   16.02    0.94
 -20   0   2   15.98    0.45
  16   0  -2   12.49    0.74
 -16   0   2   11.36    0.32
  14   0  -2    4.93    0.54
 -14   0   2    4.07    0.12
  12   0  -2   29.52    1.08
 -12   0   2   25.60    0.95
 -12   0   2   26.60    0.73
  10   0  -2    8.77    0.63
 -10   0   2    6.87    0.46
 -10   0   2    7.42    0.20
   8   0  -2   20.15    0.78
  -8   0   2   16.90    0.49
  -8   0   2   17.66    0.68
  -8   0   2   17.88    0.94
   6   0  -2    6.15    0.39
  -6   0   2    5.31    0.30
  -6   0   2    4.87    0.49
   4   0  -2    6.36    0.30
  -4   0   2    5.84    0.28
  -4   0   2    5.38    0.35
   2   0  -2 1000.00   28.14
  -2   0  -2  929.00   26.70
   2   0   2  911.51   26.22
  -4   0  -2    5.73    0.42
  -4   0  -2    5.48    0.26
   4   0   2    5.09    0.41
   4   0   2    6.25    0.28
  -6   0  -2    5.21    0.53
  -6   0  -2    5.86    0.33
   6   0   2    5.76    0.32
  -8   0  -2   18.06    0.67
  -8   0  -2   16.71    0.48
   8   0   2   19.87    0.76
 -10   0  -2    7.36    0.50
 -10   0  -2    7.29    0.21
  10   0   2    7.46    0.50
 -12   0  -2   26.98    0.73
 -12   0  -2   25.27    0.97
  12   0   2   28.47    1.08
 -14   0  -2    3.99    0.11
  14   0   2    4.46    0.50
 -16   0  -2   11.01    0.31
  16   0   2   11.29    0.70
  18   0   2   35.48    1.41
 -20   0  -2   15.40    0.43
  20   0   2   15.05    1.00
 -22   0  -2   50.10    1.40
  22   0   2   48.45    1.81
  21  -1  -2    4.05    0.59
 -21   1   2    4.19    0.12
  19  -1  -2   20.21    1.12
 -19   1   2   17.95    0.50
  17  -1  -2    8.40    0.80
 -17   1   2    7.34    0.21
  15  -1  -2    6.79    0.71
 -15   1   2    6.54    0.19
  13  -1  -2    6.85    0.68
 -13   1   2    5.23    0.56
 -13   1   2    6.20    0.92
 -13   1   2    6.23    0.17
  11  -1  -2   10.79    0.69
 -11   1   2    9.88    0.93
 -11   1   2    9.57    0.54
 -11   1   2   10.13    0.28
   9  -1  -2   12.27    0.65
  -9   1   2   11.53    0.59
  -9   1   2   10.37    0.83
   7  -1  -2    4.74    0.42
  -7   1   2    4.54    0.33
   5  -1  -2    4.23    0.27
  -5   1   2    4.33    0.26
   3  -1  -2    2.11    0.18
  -3   1   2    1.85    0.15
  -1   1   2    3.54    0.14
  -1  -1  -2    2.31    0.09
  -1  -1  -2    2.65    0.15
   1   1   2    1.16    0.10
   1   1   2    1.31    0.06
  -3  -1  -2    1.89    0.15
   3   1   2    1.98    0.16
  -5  -1  -2    3.87    0.26
   5   1   2    4.43    0.28
  -7  -1  -2    4.22    0.12
  -7  -1  -2    3.93    0.34
   7   1   2    4.49    0.39
  -9  -1  -2   10.46    0.30
  -9  -1  -2   11.06    0.53
   9   1   2   12.88    0.64
 -11  -1  -2    9.38    0.57
 -11  -1  -2    9.89    0.27
  11   1   2   11.48    0.68
 -13  -1  -2    6.38    0.18
  13   1   2    7.30    0.65
 -15  -1  -2    6.31    0.18
  15   1   2    7.56    0.69
 -17  -1  -2    7.57    0.21
  17   1   2    8.13    0.75
  19   1   2   16.36    1.00
 -21  -1  -2    4.35    0.13
  21   1   2    3.05    0.54
 -20   2   2   34.37    0.96
  18  -2  -2   19.42    1.06
 -18   2   2   17.15    0.48
  16  -2  -2    6.05    0.62
 -16   2   2    5.06    0.14
  14  -2  -2    3.25    0.51
 -14   2   2    3.30    0.10
 -14   2   2    3.00    0.73
  12  -2  -2   10.50    0.72
 -12   2   2    9.89    1.00
 -12   2   2    8.20    0.55
  10  -2  -2   23.31    0.93
 -10   2   2   21.94    1.19
 -10   2   2   22.14    0.87
   8  -2  -2   18.79    0.75
  -8   2   2   18.43    0.73
   6  -2  -2    1.72    0.21
  -6   2   2    2.03    0.25
   4  -2  -2  172.22    4.88
  -4   2   2  172.11    4.88
   0   2   2  989.27   28.05
  -2  -2  -2    2.37    0.14
   2   2   2    2.32    0.13
  -4  -2  -2  156.58    4.43
   4   2   2  151.07    4.27
  -6  -2  -2    1.76    0.21
   6   2   2    1.79    0.23
  -8  -2  -2   15.56    0.45
  -8  -2  -2   16.66    0.63
   8   2   2   17.91    0.70
 -10  -2  -2   20.07    0.57
 -10  -2  -2   20.80    0.79
  10   2   2   22.11    0.83
 -12  -2  -2    8.95    0.24
 -12  -2  -2    7.70    0.49
  12   2   2   10.06    0.67
 -14  -2  -2    3.22    0.09
  14   2   2    3.85    0.43
 -16  -2  -2    5.03    0.14
  16   2   2    5.57    0.56
 -18  -2  -2   16.70    0.47
  18   2   2   15.69    0.93
 -20  -2  -2   32.35    0.90
  20   2   2   29.72    1.21
 -21   3   2    3.94    0.12
 -19   3   2    5.69    0.16
 -17   3   2    2.99    0.82
 -17   3   2    3.05    0.09
 -15   3   2    0.40    0.66
  13  -3  -2   10.98    0.75
 -13   3   2    8.38    0.57
 -13   3   2   11.17    1.16
  11  -3  -2    3.45    0.39
 -11   3   2    4.44    0.55
   9  -3  -2    6.56    0.56
  -9   3   2    6.27    0.46
  -7   3   2    5.51    0.38
  -5   3   2    9.03    0.42
  -1   3   2    1.61    0.19
  -1  -3  -2    2.47    0.23
  -3  -3  -2    7.67    0.30
   3   3   2    6.92    0.27
  -5  -3  -2    8.59    0.37
   5   3   2    8.38    0.37
  -7  -3  -2    5.04    0.36
  -7  -3  -2    4.96    0.14
   7   3   2    5.25    0.39
  -9  -3  -2    5.65    0.39
  -9  -3  -2    5.86    0.16
   9   3   2    6.16    0.43
 -11  -3  -2    4.02    0.11
 -11  -3  -2    3.13    0.36
  11   3   2    4.19    0.53
 -13  -3  -2    8.76    0.25
  13   3   2   10.58    0.69
 -15  -3  -2    0.41    0.02
  15   3   2    0.89    0.43
 -17  -3  -2    2.91    0.09
  17   3   2    3.00    0.51
  19   3   2    5.93    0.66
 -21  -3  -2    3.53    0.10
  21   3   2    3.55    0.53
 -20   4   2    4.35    0.13
 -18   4   2    9.39    1.27
 -18   4   2    8.44    0.24
 -16   4   2    2.11    0.80
 -14   4   2    4.13    0.82
 -12   4   2    7.76    0.56
 -10   4   2   22.86    0.87
  -8   4   2   13.46    0.64
  -6   4   2    1.58    0.28
  -2   4   2  157.46    4.55
   0  -4  -2    6.40    0.35
   2   4   2  163.07    4.61
  -4  -4  -2    0.27    0.15
   4   4   2    0.22    0.17
  -6  -4  -2    1.56    0.22
  -6  -4  -2    1.56    0.05
   6   4   2    1.69    0.23
  -8  -4  -2   11.74    0.51
  -8  -4  -2   12.37    0.34
   8   4   2   13.45    0.60
 -10  -4  -2   21.23    0.60
 -10  -4  -2   21.59    0.81
  10   4   2   21.37    0.84
 -12  -4  -2    8.03    0.23
  12   4   2    8.41    0.62
 -14  -4  -2    3.77    0.11
  14   4   2    4.02    0.48
 -16  -4  -2    1.72    0.05
  16   4   2    1.89    0.47
 -18  -4  -2    8.48    0.24
  18   4   2    8.94    0.77
 -20  -4  -2    3.28    0.10
  20   4   2    4.16    0.52
 -21   5   2    0.19    0.03
 -19   5   2    1.85    0.95
 -19   5   2    1.65    0.06
 -17   5   2    0.37    0.81
 -15   5   2    0.78    0.76
 -11   5   2    4.61    0.57
  -9   5   2    6.61    0.55
  -7   5   2    4.59    0.40
   1  -5  -2    5.07    0.37
   3   5   2    8.64    0.37
  -5  -5  -2    1.18    0.21
   5   5   2    1.00    0.21
  -7  -5  -2    3.94    0.11
  -7  -5  -2    4.37    0.40
   7   5   2    4.04    0.40
  -9  -5  -2    5.87    0.46
  -9  -5  -2    5.80    0.16
   9   5   2    6.63    0.49
 -11  -5  -2    4.19    0.12
 -11  -5  -2    3.78    0.47
  11   5   2    4.07    0.52
 -13  -5  -2    5.82    0.16
  13   5   2    5.93    0.51
 -15  -5  -2    1.40    0.05
  15   5   2    1.49    0.44
 -17  -5  -2    0.64    0.03
  17   5   2    0.35    0.47
  19   5   2    1.51    0.54
 -21  -5  -2   -0.27    0.03
  21   5   2    0.69    0.54
 -20   6   2    2.54    1.04
 -18   6   2    7.09    1.16
 -16   6   2    2.83    0.90
 -12   6   2   12.91    0.68
 -10   6   2    7.15    0.52
  -8   6   2   89.85    2.67
   0  -6  -2    5.22    0.42
  -4  -6  -2    1.62    0.05
   4   6   2    1.57    0.23
  -6  -6  -2    6.47    0.19
  -6  -6  -2    7.24    0.43
   6   6   2    6.45    0.43
  -8  -6  -2   81.62    2.49
  -8  -6  -2   86.10    2.35
   8   6   2   78.90    2.34
 -10  -6  -2    7.01    0.20
 -10  -6  -2    6.63    0.53
  10   6   2    7.14    0.54
 -12  -6  -2   11.80    0.33
  12   6   2   11.61    0.67
 -14  -6  -2   11.01    0.31
  14   6   2   11.23    0.71
 -16  -6  -2    3.43    0.10
  16   6   2    3.14    0.43
 -18  -6  -2    6.16    0.18
  18   6   2    7.34    0.75
 -20  -6  -2    1.91    0.06
  20   6   2    1.36    0.53
 -19   7   2    4.10    1.13
 -17   7   2    6.28    1.13
 -11   7   2   10.26    0.62
  -9   7   2    1.19    0.38
   3  -7  -2    6.52    0.18
   1  -7  -2    4.48    0.55
  -1  -7  -2    4.67    0.46
  -3  -7  -2    5.99    0.17
   3   7   2    5.13    0.37
  -5  -7  -2    4.22    0.12
   5   7   2    4.19    0.41
  -7  -7  -2   27.86    0.77
  -7  -7  -2   27.03    0.96
   7   7   2   26.27    0.92
  -9  -7  -2    0.88    0.31
  -9  -7  -2    1.20    0.04
   9   7   2    0.55    0.33
 -11  -7  -2   10.93    0.31
  11   7   2    9.43    0.62
 -13  -7  -2    7.27    0.21
  13   7   2    7.06    0.61
 -15  -7  -2    2.89    0.09
  15   7   2    2.78    0.47
 -17  -7  -2    4.79    0.14
  17   7   2    5.02    0.57
 -19  -7  -2    2.63    0.08
  19   7   2    2.50    0.46
 -20   8   2    2.72    1.01
 -18   8   2    7.63    1.29
 -10   8   2   69.84    2.19
   4  -8  -2   14.58    0.41
   2  -8  -2   19.31    0.53
   2  -8  -2   18.31    0.93
   0  -8  -2   20.70    0.58
   0  -8  -2   21.00    0.96
  -2  -8  -2   17.65    0.49
  -4  -8  -2   14.22    0.40
   4   8   2   13.75    0.60
  -6  -8  -2   92.86    2.60
   6   8   2   82.50    2.45
  -8  -8  -2   18.26    0.78
  -8  -8  -2   19.35    0.53
   8   8   2   18.00    0.76
 -10  -8  -2   69.75    1.95
  10   8   2   63.40    1.97
 -12  -8  -2   15.30    0.43
  12   8   2   13.92    0.73
 -14  -8  -2   12.97    0.36
  14   8   2   12.11    0.74
 -16  -8  -2    9.84    0.28
  16   8   2    8.81    0.72
 -18  -8  -2    4.92    0.14
  18   8   2    5.89    0.71
 -20  -8  -2    1.24    0.05
  20   8   2    1.63    0.46
 -19   9   2    3.74    1.26
 -11   9   2    1.19    0.41
   3  -9  -2    6.96    0.20
   1  -9  -2   12.19    0.33
   1  -9  -2   11.17    0.74
  -1  -9  -2   11.84    0.84
  -1  -9  -2   11.61    0.33
  -3  -9  -2    6.81    0.19
   3   9   2    5.57    0.29
  -5  -9  -2    7.21    0.20
   5   9   2    6.73    0.50
  -7  -9  -2    1.35    0.04
   7   9   2    1.21    0.33
  -9  -9  -2   20.60    0.58
   9   9   2   18.76    0.81
 -11  -9  -2    1.79    0.06
  11   9   2    1.37    0.40
 -13  -9  -2    8.63    0.24
  13   9   2    7.01    0.55
 -15  -9  -2    9.80    0.28
  15   9   2    8.98    0.72
 -17  -9  -2    5.16    0.15
  17   9   2    5.22    0.61
 -19  -9  -2    3.34    0.10
  19   9   2    3.16    0.57
 -10  10   2   14.64    0.75
   4 -10  -2   24.84    0.69
   2 -10  -2   25.40    0.71
   2 -10  -2   25.45    1.19
   0 -10  -2    9.49    0.85
   0 -10  -2    8.88    0.25
  -2 -10  -2   23.98    0.67
  -4 -10  -2   25.28    0.71
   4  10   2   21.80    0.82
   4  10   2   20.60    0.70
  -6 -10  -2    8.34    0.23
   6  10   2    7.50    0.49
  -8 -10  -2   79.02    2.21
   8  10   2   65.34    2.02
 -10 -10  -2   18.41    0.52
  10  10   2   16.67    0.80
 -12 -10  -2   20.03    0.56
  12  10   2   16.72    0.83
 -14 -10  -2   11.94    0.34
  14  10   2    9.98    0.72
 -16 -10  -2   12.23    0.34
  16  10   2   11.06    0.81
 -18 -10  -2    4.95    0.14
  18  10   2    5.21    0.62
   5 -11  -2    5.30    0.15
   3 -11  -2    4.76    0.14
   1 -11  -2   11.50    0.32
   1 -11  -2   11.04    0.82
  -1 -11  -2   11.40    0.85
  -1 -11  -2   11.39    0.32
  -3 -11  -2    4.51    0.13
  -5 -11  -2    4.75    0.14
   5  11   2    3.98    0.34
   5  11   2    4.29    0.49
  -7 -11  -2   12.68    0.36
   7  11   2   10.52    0.63
  -9 -11  -2    1.83    0.06
   9  11   2    2.12    0.42
 -11 -11  -2   12.29    0.35
  11  11   2   10.61    0.71
 -13 -11  -2    5.47    0.16
  13  11   2    4.62    0.52
 -15 -11  -2    1.35    0.05
  15  11   2    2.57    0.51
 -17 -11  -2    4.60    0.13
  17  11   2    4.04    0.59
 -19 -11  -2    3.94    0.12
  19  11   2    2.79    0.59
   4 -12  -2    9.60    0.27
   2 -12  -2   10.95    0.31
   2 -12  -2   10.96    0.99
   0 -12  -2   32.55    1.47
   0 -12  -2   31.99    0.90
  -2 -12  -2   10.75    0.88
  -2 -12  -2   10.12    0.29
  -4 -12  -2    9.59    0.27
   4  12   2    7.89    0.56
  -6 -12  -2   16.06    0.45
   6  12   2   12.12    0.52
   6  12   2   12.34    0.66
  -8 -12  -2   18.00    0.50
   8  12   2   14.39    0.73
 -10 -12  -2   22.16    0.62
  10  12   2   18.40    0.86
 -12 -12  -2    1.28    0.05
  12  12   2    0.85    0.45
 -14 -12  -2    3.77    0.11
  14  12   2    4.69    0.58
 -16 -12  -2   10.15    0.29
  16  12   2    7.54    0.76
  18  12   2    1.55    0.47
   5 -13  -2    7.31    0.21
   3 -13  -2   12.47    0.35
   1 -13  -2    7.61    0.83
   1 -13  -2    7.58    0.21
  -1 -13  -2    7.64    0.22
  -1 -13  -2    8.58    0.87
  -3 -13  -2   11.82    0.33
  -3 -13  -2   12.41    0.97
  -5 -13  -2    7.27    0.21
   5  13   2    5.92    0.55
  -7 -13  -2    8.72    0.25
   7  13   2    7.51    0.59
   7  13   2    6.86    0.45
  -9 -13  -2    9.78    0.28
   9  13   2    8.11    0.64
 -11 -13  -2    5.35    0.15
  11  13   2    4.51    0.51
 -13 -13  -2    2.81    0.09
  13  13   2    3.17    0.53
 -15 -13  -2    3.79    0.11
  15  13   2    2.92    0.56
 -17 -13  -2    4.20    0.12
  17  13   2    3.25    0.50
   4 -14  -2    5.17    0.15
   2 -14  -2    3.79    0.75
   2 -14  -2    4.05    0.12
   0 -14  -2    6.13    0.72
   0 -14  -2    4.84    0.14
  -2 -14  -2    4.64    0.80
  -2 -14  -2    3.88    0.11
  -4 -14  -2    4.87    0.14
   4  14   2    3.26    0.35
  -6 -14  -2   14.50    0.41
   6  14   2   10.80    0.66
  -8 -14  -2   15.69    0.44
   8  14   2   11.78    0.56
   8  14   2   11.82    0.70
 -10 -14  -2   14.41    0.41
  10  14   2   11.40    0.74
 -12 -14  -2    2.18    0.07
  12  14   2    4.77    0.56
 -14 -14  -2    2.54    0.08
  14  14   2    3.13    0.48
 -16 -14  -2    7.41    0.21
  16  14   2    5.00    0.63
   5 -15  -2    1.73    0.06
   3 -15  -2    0.46    0.02
   1 -15  -2    8.29    0.24
   1 -15  -2    8.93    0.92
  -1 -15  -2    7.90    0.23
  -1 -15  -2    8.77    0.93
  -3 -15  -2    0.52    0.74
  -3 -15  -2    0.67    0.03
  -5 -15  -2    1.62    0.06
   5  15   2    1.15    0.37
  -7 -15  -2    3.48    0.10
   7  15   2    2.83    0.43
  -9 -15  -2   12.37    0.35
   9  15   2    9.02    0.53
   9  15   2    9.26    0.69
 -11 -15  -2    0.83    0.04
  11  15   2    2.99    0.37
  11  15   2    2.38    0.51
 -13 -15  -2    3.33    0.10
  13  15   2    2.90    0.56
 -15 -15  -2    7.90    0.22
  15  15   2    5.21    0.63
   4 -16  -2    1.92    0.06
   2 -16  -2    6.42    0.89
   2 -16  -2    6.35    0.18
   0 -16  -2   13.51    0.39
   0 -16  -2   14.85    1.09
  -2 -16  -2    6.29    0.18
  -2 -16  -2    6.47    0.90
  -4 -16  -2    2.56    0.70
  -4 -16  -2    2.19    0.07
   4  16   2    1.51    0.40
  -6 -16  -2    4.29    0.12
   6  16   2    3.25    0.44
  -8 -16  -2   13.06    0.37
   8  16   2    8.67    0.67
 -10 -16  -2   13.76    0.39
  10  16   2   10.92    0.68
  10  16   2   11.46    0.60
 -12 -16  -2   10.90    0.31
  12  16   2    8.22    0.58
  12  16   2    8.17    0.75
 -14 -16  -2    8.44    0.24
  14  16   2    6.07    0.77
   5 -17  -2    0.55    0.03
   3 -17  -2    3.90    0.11
   1 -17  -2    9.17    1.05
   1 -17  -2    9.46    0.27
  -1 -17  -2    9.93    1.23
  -1 -17  -2    9.53    0.27
  -3 -17  -2    3.89    0.79
  -3 -17  -2    4.11    0.12
  -5 -17  -2    0.67    0.03
  -5 -17  -2    0.35    0.68
   5  17   2    0.43    0.40
  -7 -17  -2    4.31    0.13
   7  17   2    4.58    0.45
  -9 -17  -2    7.92    0.23
   9  17   2    4.82    0.53
 -11 -17  -2    5.96    0.17
  11  17   2    3.89    0.54
 -13 -17  -2    4.95    0.14
  13  17   2    3.20    0.49
   4 -18  -2   10.01    0.28
   2 -18  -2   20.54    0.56
   2 -18  -2   18.65    1.34
   0 -18  -2   37.75    1.81
   0 -18  -2   40.28    1.10
  -2 -18  -2   22.04    1.39
  -2 -18  -2   21.43    0.60
  -4 -18  -2    9.60    0.28
  -4 -18  -2   11.92    1.17
   4  18   2    7.25    0.66
  -6 -18  -2    8.35    0.24
  -6 -18  -2   10.83    1.32
   6  18   2    6.93    0.64
  -8 -18  -2    6.57    0.19
  -8 -18  -2    7.85    0.94
   8  18   2    6.02    0.64
 -10 -18  -2    7.20    0.21
  10  18   2    5.14    0.57
 -12 -18  -2    2.29    0.08
  12  18   2    2.41    0.53
   5 -19  -2    1.97    0.06
   3 -19  -2    7.57    0.21
   1 -19  -2   20.98    0.58
   1 -19  -2   19.78    1.43
  -1 -19  -2   21.02    1.45
  -1 -19  -2   21.17    0.59
  -3 -19  -2    7.48    0.22
  -3 -19  -2    8.96    1.18
   3  19   2    5.70    0.69
  -5 -19  -2    2.47    0.83
  -5 -19  -2    1.55    0.06
   5  19   2    1.43    0.45
  -7 -19  -2    3.77    1.01
  -7 -19  -2    2.60    0.08
   7  19   2    2.51    0.40
  -9 -19  -2    2.67    0.84
  -9 -19  -2    4.41    0.13
   9  19   2    2.31    0.47
 -11 -19  -2    4.81    0.14
  11  19   2    3.85    0.55
   4 -20  -2    5.24    0.15
   2 -20  -2   38.84    1.09
   0 -20  -2   19.26    1.50
   0 -20  -2   20.79    0.57
  -2 -20  -2   40.94    1.20
  -2 -20  -2   46.54    2.17
  -4 -20  -2    4.68    0.14
  -4 -20  -2    6.49    1.13
   4  20   2    4.23    0.54
  -6 -20  -2    2.78    0.86
  -6 -20  -2    2.63    0.08
   6  20   2    1.72    0.39
  -8 -20  -2    2.73    0.09
  -8 -20  -2    2.41    0.85
   8  20   2    2.64    0.48
   5 -21  -2    0.43    0.03
   3 -21  -2    4.96    0.14
   1 -21  -2    5.11    0.15
  -1 -21  -2    5.48    0.16
  -1 -21  -2    5.88    1.04
  -3 -21  -2    5.53    0.16
  -3 -21  -2    4.64    0.98
   3  21   2    2.92    0.46
  -5 -21  -2    1.66    1.01
   5  21   2    0.55    0.46
   0 -22  -2   62.62    1.72
   0 -22  -2   59.78    2.58
   6  21  -3    1.79    0.50
  -6 -21   3    3.09    0.10
   4  21  -3    2.29    0.55
  -4 -21   3    3.65    0.11
  -4 -21   3    4.32    0.94
   2  21  -3    8.67    0.85
  -2 -21   3   12.58    1.29
  -2 -21   3   11.84    0.34
   0 -21   3   21.41    1.65
   0 -21   3   19.48    0.56
   2 -21   3   11.58    0.33
   2 -21   3   11.26    1.43
   4 -21   3    3.30    0.96
   4 -21   3    3.90    0.11
   6 -21   3    2.94    0.09
   9  20  -3    3.08    0.51
  -9 -20   3    6.58    0.19
   7  20  -3    1.05    0.46
  -7 -20   3    2.29    0.08
   5  20  -3    1.16    0.49
  -5 -20   3    0.96    0.04
   3  20  -3    6.92    0.77
  -3 -20   3    8.50    0.24
  -3 -20   3    6.46    1.00
  -1 -20   3   13.36    1.35
  -1 -20   3   16.42    0.45
   1 -20   3   17.20    1.34
   1 -20   3   17.19    0.48
   3 -20   3    8.04    0.23
   3 -20   3    7.09    1.07
   5 -20   3    1.31    0.05
   7 -20   3    2.03    0.07
  10  19  -3    4.01    0.55
 -10 -19   3    5.22    0.15
   8  19  -3    3.86    0.53
  -8 -19   3    5.06    0.15
   6  19  -3    3.36    0.51
  -6 -19   3    6.05    0.17
   4  19  -3    6.79    0.62
  -4 -19   3    9.77    0.28
  -2 -19   3   23.09    0.65
   0 -19   3   47.29    1.34
   0 -19   3   48.65    2.21
   2 -19   3   21.49    1.53
   2 -19   3   22.34    0.62
   4 -19   3    8.94    0.26
   4 -19   3   11.64    1.24
   6 -19   3    4.97    0.14
  11  18  -3    3.96    0.49
 -11 -18   3    6.71    0.19
   9  18  -3    5.70    0.57
  -9 -18   3   10.32    0.29
   7  18  -3    6.75    0.67
  -7 -18   3   10.38    0.29
   5  18  -3    1.73    0.40
  -5 -18   3    1.96    0.07
   3  18  -3    3.52    0.53
  -3 -18   3    5.13    0.15
  -1 -18   3   14.33    0.39
  -1 -18   3   11.56    1.20
   1 -18   3   13.55    0.37
   1 -18   3   11.67    1.15
   3 -18   3    4.80    0.14
   3 -18   3    5.20    0.79
   5 -18   3    2.29    0.07
   5 -18   3    2.09    0.78
   7 -18   3    9.03    0.25
  12  17  -3    2.12    0.54
 -12 -17   3    3.47    0.11
  10  17  -3   10.43    0.77
 -10 -17   3   15.78    0.44
   8  17  -3    8.73    0.62
  -8 -17   3   14.53    0.41
   6  17  -3    4.64    0.53
  -6 -17   3    7.84    0.22
   4  17  -3    0.85    0.36
  -4 -17   3    1.34    0.05
  -2 -17   3   13.35    0.38
   0 -17   3   20.48    0.57
   2 -17   3   12.43    0.35
   2 -17   3   12.30    1.04
   4 -17   3    1.40    0.05
   4 -17   3    1.71    0.73
   6 -17   3    6.91    0.20
  15  16  -3    1.62    0.51
  15  16  -3    2.43    0.51
 -15 -16   3    2.81    0.09
  13  16  -3    7.13    0.80
  13  16  -3    6.80    0.67
 -13 -16   3    8.81    0.25
  11  16  -3   10.97    0.72
 -11 -16   3   15.86    0.45
   9  16  -3    7.10    0.68
  -9 -16   3    9.83    0.28
   7  16  -3    7.93    0.67
  -7 -16   3   12.04    0.34
   5  16  -3    1.95    0.43
  -5 -16   3    2.49    0.08
   3  16  -3    1.87    0.37
  -3 -16   3    2.64    0.08
  -1 -16   3    5.45    0.16
   1 -16   3    4.84    0.14
   1 -16   3    5.12    0.83
   3 -16   3    2.53    0.08
   3 -16   3    2.87    0.73
   5 -16   3    2.36    0.07
   5 -16   3    2.01    0.69
   7 -16   3   10.48    0.30
  16  15  -3    1.95    0.62
  16  15  -3    2.56    0.50
 -16 -15   3    2.93    0.09
  14  15  -3    7.28    0.63
  14  15  -3    6.01    0.70
 -14 -15   3    8.52    0.24
  12  15  -3    5.13    0.55
  12  15  -3    5.00    0.54
 -12 -15   3    6.68    0.19
  10  15  -3   10.04    0.67
  10  15  -3    9.17    0.74
 -10 -15   3   12.27    0.35
   8  15  -3   11.21    0.73
  -8 -15   3   18.05    0.51
   6  15  -3    3.61    0.45
  -6 -15   3    5.90    0.17
   4  15  -3    1.28    0.40
  -4 -15   3    1.46    0.05
  -2 -15   3    4.69    0.14
   0 -15   3   18.07    0.51
   2 -15   3    4.01    0.74
   2 -15   3    4.28    0.12
   4 -15   3    2.02    0.63
   4 -15   3    1.20    0.05
   6 -15   3    4.87    0.14
  15  14  -3    7.09    0.68
  15  14  -3    6.52    0.72
 -15 -14   3    8.43    0.24
  13  14  -3    3.44    0.46
  13  14  -3    2.95    0.59
 -13 -14   3    4.40    0.13
  11  14  -3    6.15    0.60
  11  14  -3    5.91    0.71
 -11 -14   3    8.12    0.23
   9  14  -3   11.57    0.67
   9  14  -3   12.35    0.69
  -9 -14   3   15.88    0.45
   7  14  -3    9.00    0.67
  -7 -14   3   12.98    0.36
   5  14  -3    5.04    0.57
  -5 -14   3    6.17    0.18
  -3 -14   3    3.72    0.11
  -1 -14   3    7.19    0.20
   1 -14   3    7.13    0.20
   3 -14   3    3.87    0.68
   3 -14   3    3.33    0.10
   5 -14   3    5.58    0.16
   5 -14   3    5.77    0.72
   7 -14   3   11.70    0.33
  16  13  -3    6.67    0.85
 -16 -13   3    7.92    0.22
  14  13  -3    3.81    0.62
 -14 -13   3    4.15    0.12
  12  13  -3    4.92    0.51
  12  13  -3    4.18    0.58
 -12 -13   3    5.74    0.16
  10  13  -3   16.12    0.76
  10  13  -3   16.83    0.88
 -10 -13   3   20.05    0.56
   8  13  -3   14.17    0.70
   8  13  -3   12.29    0.68
  -8 -13   3   17.04    0.48
   6  13  -3   12.26    0.64
  -6 -13   3   18.42    0.52
   4  13  -3   10.40    0.65
  -4 -13   3   13.81    0.39
  -2 -13   3    9.41    0.27
   0 -13   3   12.54    0.35
   2 -13   3    8.86    0.25
   4 -13   3   12.32    0.96
   4 -13   3   12.50    0.35
   6 -13   3   16.63    0.47
  17  12  -3    2.56    0.63
 -17 -12   3    3.18    0.10
  15  12  -3    6.10    0.68
 -15 -12   3    6.14    0.18
  13  12  -3    4.80    0.62
 -13 -12   3    5.55    0.16
  11  12  -3    7.47    0.71
  11  12  -3    7.69    0.58
 -11 -12   3   10.03    0.28
   9  12  -3    4.61    0.54
   9  12  -3    5.55    0.50
  -9 -12   3    6.04    0.17
   7  12  -3   10.23    0.61
   7  12  -3    9.96    0.67
  -7 -12   3   12.24    0.34
   5  12  -3    7.87    0.61
  -5 -12   3   10.38    0.29
  -3 -12   3    7.06    0.20
  -1 -12   3   13.99    0.39
   1 -12   3   13.61    0.38
   3 -12   3    6.54    0.19
   3 -12   3    6.88    0.83
   5 -12   3    9.97    0.28
   5 -12   3   10.22    0.86
   7 -12   3   11.60    0.33
  18  11  -3    5.28    0.69
 -18 -11   3    5.33    0.15
  16  11  -3   12.03    0.91
 -16 -11   3   14.03    0.39
  14  11  -3    6.59    0.78
 -14 -11   3    7.11    0.20
  12  11  -3    9.20    0.77
 -12 -11   3    9.15    0.26
  10  11  -3   10.17    0.74
 -10 -11   3   11.54    0.32
   8  11  -3   18.24    0.84
   8  11  -3   17.61    0.76
  -8 -11   3   21.73    0.61
   6  11  -3   16.47    0.72
   6  11  -3   15.10    0.70
  -6 -11   3   19.43    0.54
   4  11  -3    6.86    0.56
  -4 -11   3    9.93    0.28
  -2 -11   3   40.67    1.14
   0 -11   3   11.72    0.33
   2 -11   3   39.93    1.12
   4 -11   3    8.30    0.24
   4 -11   3   10.08    0.80
   6 -11   3   19.03    0.53
  19  10  -3    4.57    0.68
 -19 -10   3    4.72    0.14
  17  10  -3   11.49    0.91
 -17 -10   3   11.79    0.33
  15  10  -3   10.22    0.84
 -15 -10   3   10.14    0.29
  13  10  -3   17.06    0.92
 -13 -10   3   17.10    0.48
  11  10  -3   10.51    0.76
 -11 -10   3   10.92    0.31
   9  10  -3   19.64    0.90
  -9 -10   3   21.35    0.60
   7  10  -3   10.60    0.59
   7  10  -3   10.55    0.58
  -7 -10   3   12.13    0.34
   5  10  -3   13.53    0.68
   5  10  -3   12.80    0.63
  -5 -10   3   15.18    0.43
  -3 -10   3    7.29    0.21
  -1 -10   3   12.67    0.36
   1 -10   3   12.70    0.36
   3 -10   3    6.93    0.63
   3 -10   3    6.20    0.18
   5 -10   3   14.92    0.94
   5 -10   3   14.92    0.42
   7 -10   3   13.07    0.37
 -19  10  -3    4.57    1.51
  20   9  -3    4.18    0.66
 -20  -9   3    4.32    0.13
  18   9  -3    7.15    0.72
 -18  -9   3    7.73    0.22
  16   9  -3    7.46    0.70
 -16  -9   3    8.00    0.23
  14   9  -3   12.25    0.83
 -14  -9   3   13.03    0.37
  12   9  -3    6.07    0.70
 -12  -9   3    5.65    0.16
  10   9  -3   20.39    0.93
 -10  -9   3   20.86    0.58
   8   9  -3   19.35    0.86
  -8  -9   3   20.22    0.57
   6   9  -3   17.22    0.73
   6   9  -3   16.63    0.71
  -6  -9   3   17.39    0.49
   4   9  -3    6.71    0.52
  -4  -9   3    7.82    0.22
  -2  -9   3    6.84    0.19
   0  -9   3   67.14    1.88
   2  -9   3    6.38    0.18
   4  -9   3    7.21    0.66
   4  -9   3    7.62    0.21
   6  -9   3   18.95    0.53
 -18   9  -3    8.84    1.53
 -20   9  -3    4.88    1.47
  19   8  -3    3.94    0.64
 -19  -8   3    4.76    0.14
  17   8  -3   10.75    0.86
 -17  -8   3   11.54    0.32
  15   8  -3   12.64    0.84
 -15  -8   3   13.69    0.38
  13   8  -3   13.21    0.73
 -13  -8   3   13.65    0.38
  11   8  -3   18.98    0.90
 -11  -8   3   19.35    0.54
   9   8  -3   18.04    0.78
  -9  -8   3   18.30    0.81
  -9  -8   3   19.36    0.53
   7   8  -3   27.84    1.03
  -7  -8   3   28.07    0.78
   5   8  -3   25.74    0.92
   5   8  -3   25.02    0.93
  -5  -8   3   27.02    0.76
   3   8  -3   13.70    0.62
  -3  -8   3   14.83    0.42
  -1  -8   3    7.11    0.20
  -1  -8   3    6.91    0.40
   1  -8   3    7.02    0.20
   3  -8   3   15.68    0.44
   5  -8   3   28.93    0.81
   5  -8   3   28.86    1.11
 -17   8  -3   14.28    1.57
 -19   8  -3    5.44    1.40
  20   7  -3    1.80    0.59
 -20  -7   3    1.75    0.06
  18   7  -3    7.33    0.70
 -18  -7   3    7.87    0.22
  16   7  -3    9.70    0.80
 -16  -7   3    9.16    0.26
  14   7  -3    9.10    0.75
 -14  -7   3    9.68    0.27
  12   7  -3   10.51    0.72
 -12  -7   3    9.95    0.28
  10   7  -3   12.09    0.72
 -10  -7   3   10.70    0.64
 -10  -7   3   11.07    0.31
   8   7  -3   27.30    1.01
  -8  -7   3   25.07    0.94
  -8  -7   3   25.95    0.72
   6   7  -3   28.48    0.97
  -6  -7   3   30.00    0.85
  -6  -7   3   30.87    1.05
   4   7  -3    5.97    0.44
   4   7  -3    7.24    0.42
  -4  -7   3    6.76    0.19
  -2  -7   3   18.34    0.51
   2  -7   3   19.51    0.55
   4  -7   3    6.76    0.52
   4  -7   3    6.93    0.19
   6  -7   3   35.19    0.98
 -10   7  -3   11.68    0.70
 -16   7  -3    9.44    1.30
 -18   7  -3    8.32    1.40
 -20   7  -3    2.40    1.03
  21   6  -3    1.52    0.58
 -21  -6   3    2.35    0.07
  19   6  -3    3.44    0.61
 -19  -6   3    3.70    0.11
  17   6  -3    5.65    0.62
 -17  -6   3    5.43    0.15
  15   6  -3    3.83    0.53
 -15  -6   3    4.14    0.12
  13   6  -3   14.38    0.80
 -13  -6   3   13.79    0.39
  11   6  -3   16.77    0.82
 -11  -6   3   14.78    0.74
 -11  -6   3   15.70    0.43
   9   6  -3   15.45    0.75
  -9  -6   3   15.90    0.43
  -9  -6   3   14.76    0.71
   7   6  -3   31.59    1.09
  -7  -6   3   29.17    0.82
  -7  -6   3   29.16    1.01
   5   6  -3    3.34    0.32
  -5  -6   3    2.85    0.08
  -5  -6   3    3.09    0.39
   3   6  -3    0.26    0.22
   3   6  -3    0.44    0.23
  -1  -6   3    1.11    0.18
   5  -6   3    3.76    0.46
   5  -6   3    3.67    0.10
  -9   6  -3   16.71    0.77
 -11   6  -3   14.49    0.68
 -15   6  -3    4.56    1.03
 -17   6  -3    5.99    1.06
 -19   6  -3    4.77    1.22
 -21   6  -3    2.49    0.08
  20   5  -3    1.12    0.57
 -20  -5   3    1.25    0.05
  18   5  -3    1.15    0.46
 -18  -5   3    1.96    0.06
  16   5  -3    2.55    0.52
 -16  -5   3    1.70    0.05
  14   5  -3    4.88    0.56
 -14  -5   3    4.66    0.13
  12   5  -3    8.45    0.67
 -12  -5   3    7.76    0.22
  10   5  -3   12.77    0.70
 -10  -5   3   11.83    0.63
 -10  -5   3   12.51    0.34
   8   5  -3   24.57    0.92
  -8  -5   3   23.49    0.87
  -8  -5   3   23.48    0.66
   6   5  -3    3.12    0.32
  -6  -5   3    2.83    0.08
  -6  -5   3    3.10    0.38
   4   5  -3    2.45    0.28
  -4  -5   3    2.53    0.27
   2   5  -3    8.72    0.37
   4  -5   3    2.86    0.30
  -8   5  -3   24.25    0.86
  -8   5  -3   25.33    0.93
 -10   5  -3   12.28    0.56
 -10   5  -3   12.33    0.61
 -14   5  -3    4.96    0.98
 -16   5  -3    2.42    0.96
 -18   5  -3    2.99    1.07
 -20   5  -3    0.85    0.04
  21   4  -3    2.31    0.51
 -21  -4   3    3.09    0.09
  19   4  -3    8.83    0.86
 -19  -4   3    7.85    0.22
  17   4  -3    1.40    0.52
 -17  -4   3    1.15    0.04
  15   4  -3    1.18    0.48
 -15  -4   3    0.99    0.04
  13   4  -3   11.10    0.65
 -13  -4   3   10.04    0.28
  11   4  -3    8.58    0.65
 -11  -4   3    7.57    0.49
 -11  -4   3    7.71    0.22
   9   4  -3    7.36    0.56
  -9  -4   3    6.72    0.44
  -9  -4   3    6.37    0.18
   7   4  -3    7.50    0.49
  -7  -4   3    6.23    0.18
  -7  -4   3    6.59    0.39
   5   4  -3    2.25    0.28
  -5  -4   3    2.33    0.26
   3   4  -3   14.86    0.53
   3   4  -3   13.43    0.53
  -3  -4   3   14.23    0.52
  -1  -4   3   60.58    1.78
  -7   4  -3    5.41    0.34
  -7   4  -3    6.91    0.47
  -9   4  -3    7.25    0.53
 -11   4  -3    8.56    0.60
 -11   4  -3    7.50    1.11
 -13   4  -3   11.19    1.25
 -15   4  -3    1.34    0.83
 -17   4  -3    1.23    0.91
 -19   4  -3    7.79    0.22
 -21   4  -3    2.88    0.09
  20   3  -3    6.81    0.84
 -20  -3   3    6.20    0.18
  18   3  -3    3.45    0.59
 -18  -3   3    3.45    0.10
  16   3  -3    1.83    0.50
 -16  -3   3    2.10    0.06
  14   3  -3    3.75    0.51
 -14  -3   3    2.68    0.08
  12   3  -3    6.94    0.65
 -12  -3   3    4.95    0.53
 -12  -3   3    5.53    0.15
  10   3  -3    6.11    0.59
 -10  -3   3    5.53    0.16
 -10  -3   3    6.39    0.50
   8   3  -3   13.06    0.58
  -8  -3   3   13.62    0.60
  -8  -3   3   12.74    0.37
   6   3  -3    0.36    0.24
  -6  -3   3    0.31    0.18
   4   3  -3   14.12    0.52
  -4  -3   3   13.25    0.49
   2   3  -3   73.12    2.12
   2   3  -3   74.23    2.14
  -2  -3   3   74.15    2.13
  -6   3  -3    0.38    0.14
  -6   3  -3    0.39    0.23
  -8   3  -3   13.80    0.62
 -10   3  -3    5.78    0.86
 -10   3  -3    5.98    0.52
 -12   3  -3    5.53    0.91
 -12   3  -3    5.16    0.46
 -14   3  -3    2.99    0.86
 -16   3  -3    2.14    0.87
 -18   3  -3    4.12    0.12
  21   2  -3    9.26    0.89
 -21  -2   3    8.52    0.24
  19   2  -3   19.33    1.07
 -19  -2   3   17.69    0.50
  17   2  -3   11.04    0.83
 -17  -2   3    9.75    0.27
  15   2  -3    3.40    0.45
 -15  -2   3    3.64    0.11
  13   2  -3    8.55    0.71
 -13  -2   3    7.49    0.21
  11   2  -3   35.69    1.27
 -11  -2   3   31.90    0.88
 -11  -2   3   30.80    1.07
   9   2  -3    7.17    0.57
  -9  -2   3    6.29    0.48
  -9  -2   3    5.68    0.16
   7   2  -3   14.27    0.79
   7   2  -3   18.17    0.66
  -7  -2   3   17.73    0.67
   5   2  -3    9.67    0.43
  -5  -2   3    8.76    0.39
   3   2  -3   71.32    2.05
  -3  -2   3   66.69    1.91
   1   2  -3  148.45    4.19
  -1  -2   3  137.32    3.90
  -5   2  -3    9.65    0.33
  -5   2  -3   10.23    0.42
  -7   2  -3   18.89    0.68
  -7   2  -3   16.80    1.01
  -9   2  -3    5.36    0.41
  -9   2  -3    5.10    0.79
   9  -2   3    6.56    0.48
 -11   2  -3   34.24    1.60
 -11   2  -3   33.72    1.14
  11  -2   3   37.82    1.31
 -13   2  -3    8.07    1.14
  13  -2   3    8.30    0.69
 -15   2  -3    3.73    0.11
 -17   2  -3   10.30    0.29
 -19   2  -3   18.53    0.52
 -21   2  -3    9.23    0.26
  20   1  -3   12.33    0.84
 -20  -1   3   13.37    0.38
  18   1  -3   10.84    0.77
 -18  -1   3   10.39    0.29
  16   1  -3    3.94    0.48
 -16  -1   3    3.85    0.11
  14   1  -3    6.91    0.60
 -14  -1   3    6.00    0.17
  12   1  -3   12.98    0.78
 -12  -1   3   11.28    0.65
 -12  -1   3   11.59    0.32
  10   1  -3   12.26    0.70
 -10  -1   3   10.57    0.30
 -10  -1   3   10.60    0.59
   8   1  -3    6.84    0.44
  -8  -1   3    6.53    0.44
  -8  -1   3    5.87    0.17
   6   1  -3    1.20    0.24
  -6  -1   3    1.22    0.21
   4   1  -3   64.20    1.96
   4   1  -3   66.85    1.90
  -4  -1   3   64.55    1.87
   2   1  -3  141.58    4.05
  -2  -1   3  125.94    3.55
  -4   1  -3   64.38    2.11
  -4   1  -3   67.84    1.91
  -6   1  -3    1.13    0.43
  -6   1  -3    1.15    0.18
   6  -1   3    1.07    0.22
  -8   1  -3    7.22    0.87
  -8   1  -3    6.90    0.45
   8  -1   3    7.36    0.44
 -10   1  -3   11.16    0.58
 -10   1  -3   11.89    1.09
  10  -1   3   11.15    0.58
 -12   1  -3   12.36    0.34
 -12   1  -3   11.63    0.64
  12  -1   3   12.33    0.72
 -14   1  -3    5.92    0.17
  14  -1   3    5.71    0.56
 -16   1  -3    3.86    0.11
  16  -1   3    4.31    0.55
 -18   1  -3   10.62    0.30
  18  -1   3   12.25    0.88
 -20   1  -3   13.71    0.38
  21   0  -3   14.05    0.91
 -21   0   3   15.69    0.44
  19   0  -3   39.73    1.56
 -19   0   3   36.36    1.02
  17   0  -3   18.25    0.98
 -17   0   3   16.03    0.45
  15   0  -3   17.09    0.91
 -15   0   3   14.84    0.42
  13   0  -3   12.65    0.79
 -13   0   3    9.78    0.65
 -13   0   3   10.58    0.29
  11   0  -3   11.44    0.64
 -11   0   3    9.89    0.27
 -11   0   3    9.53    0.54
   9   0  -3   68.20    2.08
  -9   0   3   59.64    2.05
  -9   0   3   57.02    1.65
  -9   0   3   60.94    1.82
   7   0  -3    7.24    0.47
  -7   0   3    5.07    0.53
  -7   0   3    6.68    0.40
   5   0  -3    1.86    0.21
  -5   0   3    1.29    0.24
  -5   0   3    2.00    0.25
   3   0  -3   37.87    1.11
  -3   0   3   35.46    1.04
  -1   0   3  186.35    5.23
  -1   0   3  181.89    5.20
  -3   0  -3   36.71    1.04
  -3   0  -3   34.47    1.02
   3   0   3   32.17    1.22
   3   0   3   38.84    1.04
  -5   0  -3    1.59    0.18
  -5   0  -3    1.43    0.34
   5   0   3    1.87    0.20
  -7   0  -3    6.14    0.38
   7   0   3    6.74    0.43
  -9   0  -3   60.06    1.80
  -9   0  -3   58.08    1.65
   9   0   3   67.57    2.05
 -11   0  -3    9.84    0.57
 -11   0  -3    9.85    0.28
  11   0   3   12.19    0.68
 -13   0  -3   10.50    0.29
  13   0   3   10.61    0.62
 -15   0  -3   14.81    0.41
  15   0   3   14.71    0.74
 -17   0  -3   16.28    0.46
  17   0   3   16.20    0.83
 -19   0  -3   39.72    1.11
  19   0   3   39.74    1.52
 -21   0  -3   16.31    0.46
  21   0   3   15.22    1.00
  20  -1  -3   13.91    1.01
 -20   1   3   13.85    0.39
  18  -1  -3   11.38    0.81
 -18   1   3   10.53    0.30
  16  -1  -3    3.85    0.48
 -16   1   3    4.19    0.12
  14  -1  -3    5.93    0.58
 -14   1   3    6.03    0.17
  12  -1  -3   12.53    0.68
 -12   1   3   12.07    0.33
 -12   1   3   11.15    1.06
 -12   1   3   11.88    0.67
  10  -1  -3   12.17    0.70
 -10   1   3   12.03    0.95
 -10   1   3   11.08    0.62
   8  -1  -3    7.44    0.52
  -8   1   3    6.93    0.68
  -8   1   3    6.54    0.41
   6  -1  -3    1.40    0.24
  -6   1   3    1.10    0.19
   4  -1  -3   70.44    2.04
  -4   1   3   70.29    2.03
   2  -1  -3  154.28    4.41
  -2   1   3  154.25    4.37
  -2  -1  -3  149.68    4.15
  -2  -1  -3  143.70    4.19
   2   1   3  145.61    4.04
   2   1   3  138.49    4.02
  -4  -1  -3   64.64    1.86
   4   1   3   68.10    1.96
  -6  -1  -3    1.29    0.19
   6   1   3    0.79    0.21
  -8  -1  -3    6.13    0.18
  -8  -1  -3    6.78    0.42
   8   1   3    6.35    0.40
 -10  -1  -3   11.08    0.56
 -10  -1  -3   10.64    0.30
  10   1   3   12.47    0.66
 -12  -1  -3   11.50    0.32
 -12  -1  -3   11.54    0.62
  12   1   3   13.26    0.73
 -14  -1  -3    5.81    0.16
  14   1   3    5.70    0.55
 -16  -1  -3    4.03    0.12
  16   1   3    3.94    0.52
 -18  -1  -3   10.45    0.29
  18   1   3   10.09    0.71
 -20  -1  -3   13.62    0.38
  20   1   3   13.79    0.94
 -21   2   3    8.65    0.24
  19  -2  -3   19.92    1.11
 -19   2   3   17.36    0.49
  17  -2  -3   11.89    0.87
 -17   2   3   10.25    0.29
  15  -2  -3    4.27    0.54
 -15   2   3    3.60    0.73
 -15   2   3    3.73    0.11
  13  -2  -3    8.59    0.71
 -13   2   3    7.42    0.61
 -13   2   3    7.55    0.94
  11  -2  -3   35.46    1.22
 -11   2   3   36.69    1.62
 -11   2   3   34.69    1.24
   9  -2  -3    7.34    0.56
  -9   2   3    6.88    0.52
   7  -2  -3   18.54    0.71
  -7   2   3   19.98    0.74
   5  -2  -3    9.73    0.40
  -5   2   3    9.87    0.43
  -3   2   3   80.21    2.30
   1  -2  -3  145.65    4.11
   1   2   3  140.14    4.00
  -3  -2  -3   69.95    1.99
   3   2   3   67.21    1.92
  -5  -2  -3    9.27    0.39
   5   2   3    9.18    0.38
  -7  -2  -3   16.59    0.48
  -7  -2  -3   17.98    0.63
   7   2   3   18.46    0.68
  -9  -2  -3    5.72    0.16
  -9  -2  -3    6.21    0.45
   9   2   3    6.89    0.51
 -11  -2  -3   32.64    0.90
 -11  -2  -3   31.57    1.10
  11   2   3   35.96    1.23
 -13  -2  -3    7.39    0.21
  13   2   3    8.32    0.65
 -15  -2  -3    3.56    0.10
  15   2   3    3.71    0.49
 -17  -2  -3   10.13    0.28
  17   2   3   10.45    0.78
 -19  -2  -3   18.41    0.52
  19   2   3   17.53    0.97
 -21  -2  -3    9.22    0.26
  21   2   3    8.29    0.85
 -20   3   3    6.22    0.18
 -18   3   3    3.86    0.11
 -16   3   3    2.06    0.06
 -16   3   3    2.16    0.72
  14  -3  -3    3.07    0.44
 -14   3   3    3.24    0.80
  12  -3  -3    5.53    0.65
 -12   3   3    4.67    0.50
 -12   3   3    6.57    0.92
  10  -3  -3    6.33    0.59
 -10   3   3    6.11    0.56
   8  -3  -3   14.68    0.67
  -8   3   3   15.51    0.68
  -6   3   3    0.50    0.24
  -4   3   3   15.50    0.56
   0   3   3   34.68    1.09
  -2  -3  -3   72.88    2.15
   2   3   3   72.80    2.07
  -4  -3  -3   13.68    0.48
   4   3   3   12.83    0.44
  -6  -3  -3    0.14    0.18
   6   3   3    0.41    0.19
  -8  -3  -3   13.32    0.38
  -8  -3  -3   13.92    0.57
   8   3   3   14.28    0.61
 -10  -3  -3    5.56    0.16
 -10  -3  -3    5.57    0.41
  10   3   3    6.07    0.45
 -12  -3  -3    5.15    0.48
 -12  -3  -3    5.58    0.16
  12   3   3    6.74    0.60
 -14  -3  -3    2.71    0.08
  14   3   3    3.22    0.46
 -16  -3  -3    2.06    0.06
  16   3   3    2.16    0.48
 -18  -3  -3    3.90    0.11
  18   3   3    3.91    0.56
 -20  -3  -3    5.76    0.16
  20   3   3    5.72    0.64
 -21   4   3    3.05    0.09
 -19   4   3    7.97    0.23
 -19   4   3    8.37    1.24
 -17   4   3    1.45    0.77
 -15   4   3    1.23    0.69
 -13   4   3   11.48    0.70
 -11   4   3    8.01    0.62
  -9   4   3    7.56    0.57
  -7   4   3    7.84    0.50
  -5   4   3    2.73    0.27
  -1   4   3   63.57    1.94
  -1  -4  -3   65.90    1.98
   3   4   3   13.38    0.45
  -5  -4  -3    2.48    0.28
   5   4   3    2.19    0.26
  -7  -4  -3    6.47    0.18
  -7  -4  -3    6.75    0.40
   7   4   3    6.45    0.41
  -9  -4  -3    6.86    0.46
  -9  -4  -3    6.70    0.19
   9   4   3    7.08    0.43
 -11  -4  -3    7.98    0.22
 -11  -4  -3    7.26    0.52
  11   4   3    7.83    0.57
 -13  -4  -3   10.80    0.30
  13   4   3   11.44    0.69
 -15  -4  -3    1.12    0.04
  15   4   3    0.75    0.43
 -17  -4  -3    1.14    0.04
  17   4   3    1.20    0.47
 -19  -4  -3    5.93    0.17
  19   4   3    7.29    0.66
 -21  -4  -3    2.42    0.07
  21   4   3    2.38    0.57
 -20   5   3    1.11    0.04
 -20   5   3    1.39    0.90
 -18   5   3    1.87    0.88
 -16   5   3    1.99    0.82
 -12   5   3    8.07    0.64
 -10   5   3   14.44    0.68
  -8   5   3   24.37    0.91
  -6   5   3    3.65    0.34
   0  -5  -3    1.59    0.25
  -2  -5  -3    9.98    0.53
  -4  -5  -3    2.26    0.27
   4   5   3    2.59    0.26
  -6  -5  -3    2.85    0.08
  -6  -5  -3    2.92    0.33
   6   5   3    2.92    0.33
  -8  -5  -3   23.92    0.66
  -8  -5  -3   23.45    0.84
   8   5   3   22.16    0.81
 -10  -5  -3   12.75    0.61
 -10  -5  -3   12.85    0.36
  10   5   3   12.50    0.62
 -12  -5  -3    8.09    0.23
  12   5   3    7.53    0.59
 -14  -5  -3    5.10    0.14
  14   5   3    5.24    0.59
 -16  -5  -3    1.94    0.06
  16   5   3    1.45    0.46
 -18  -5  -3    1.03    0.04
  18   5   3    2.69    0.53
 -20  -5  -3    0.71    0.03
  20   5   3    0.90    0.53
 -21   6   3    2.22    0.07
 -21   6   3    2.86    1.01
 -19   6   3    5.08    1.07
 -17   6   3    6.81    1.08
 -11   6   3   15.20    0.78
  -9   6   3   16.46    0.71
  -7   6   3   32.62    1.13
   1  -6  -3    1.24    0.29
  -1  -6  -3    1.18    0.27
   3   6   3    0.36    0.19
  -5  -6  -3    3.46    0.34
  -5  -6  -3    3.02    0.09
   5   6   3    2.91    0.32
  -7  -6  -3   30.55    0.85
  -7  -6  -3   29.95    1.01
   7   6   3   28.48    0.96
  -9  -6  -3   16.31    0.45
  -9  -6  -3   15.70    0.69
   9   6   3   15.21    0.67
 -11  -6  -3   16.17    0.45
  11   6   3   14.95    0.71
 -13  -6  -3   14.40    0.40
  13   6   3   12.80    0.71
 -15  -6  -3    4.58    0.13
  15   6   3    3.76    0.48
 -17  -6  -3    5.65    0.16
  17   6   3    5.25    0.57
 -19  -6  -3    3.73    0.11
  19   6   3    3.72    0.49
  21   6   3    2.38    0.47
 -20   7   3    1.82    1.04
 -18   7   3   10.70    1.47
 -12   7   3    9.72    0.62
 -10   7   3    9.92    0.58
  -8   7   3   28.38    1.05
   2  -7  -3   18.94    0.53
   0  -7  -3    5.97    0.59
  -2  -7  -3   18.26    0.87
  -2  -7  -3   19.34    0.53
  -4  -7  -3    6.90    0.19
   4   7   3    7.62    0.43
  -6  -7  -3   31.21    0.87
   6   7   3   29.09    0.97
  -8  -7  -3   26.16    0.95
  -8  -7  -3   27.44    0.75
   8   7   3   24.29    0.88
 -10  -7  -3   11.23    0.61
 -10  -7  -3   11.29    0.32
  10   7   3    9.92    0.59
 -12  -7  -3   10.33    0.29
  12   7   3    9.36    0.62
 -14  -7  -3   10.01    0.28
  14   7   3    9.38    0.66
 -16  -7  -3    9.04    0.25
  16   7   3    8.42    0.69
 -18  -7  -3    6.23    0.18
  18   7   3    7.21    0.73
 -20  -7  -3    1.10    0.04
  20   7   3    1.92    0.54
 -19   8   3    5.03    1.19
 -11   8   3   18.44    0.86
  -9   8   3   19.39    0.88
   3  -8  -3   15.91    0.44
   1  -8  -3    6.70    0.60
   1  -8  -3    7.69    0.21
  -1  -8  -3    8.42    0.70
  -1  -8  -3    7.02    0.20
  -3  -8  -3   14.99    0.42
   3   8   3   13.70    0.58
  -5  -8  -3   27.14    0.76
   5   8   3   24.98    0.88
  -7  -8  -3   29.38    0.82
   7   8   3   25.04    0.90
  -9  -8  -3   19.82    0.54
  -9  -8  -3   18.74    0.80
   9   8   3   18.87    0.78
 -11  -8  -3   19.20    0.54
  11   8   3   16.86    0.71
 -13  -8  -3   14.65    0.41
  13   8   3   12.93    0.71
 -15  -8  -3   13.79    0.39
  15   8   3   12.28    0.68
 -17  -8  -3    9.81    0.28
  17   8   3    9.86    0.66
 -19  -8  -3    3.62    0.11
  19   8   3    4.56    0.59
 -20   9   3    6.16    1.34
 -10   9   3   18.73    0.89
   4  -9  -3    7.61    0.21
   2  -9  -3    6.57    0.18
   0  -9  -3   69.20    2.28
   0  -9  -3   69.66    1.94
  -2  -9  -3    6.01    0.17
  -2  -9  -3    7.23    0.78
  -4  -9  -3    7.62    0.21
   4   9   3    7.14    0.49
  -6  -9  -3   18.61    0.52
   6   9   3   16.23    0.70
  -8  -9  -3   21.55    0.60
   8   9   3   19.42    0.80
 -10  -9  -3   21.45    0.60
  10   9   3   17.96    0.80
 -12  -9  -3    5.80    0.16
  12   9   3    5.16    0.58
 -14  -9  -3   13.41    0.38
  14   9   3   11.65    0.73
 -16  -9  -3    7.18    0.20
  16   9   3    6.14    0.68
 -18  -9  -3    7.28    0.21
  18   9   3    5.67    0.71
 -20  -9  -3    4.44    0.13
  20   9   3    3.35    0.58
   3 -10  -3    7.03    0.20
   1 -10  -3   13.45    0.38
   1 -10  -3   13.26    0.84
  -1 -10  -3   13.19    0.93
  -1 -10  -3   12.79    0.36
  -3 -10  -3    6.78    0.19
  -5 -10  -3   15.98    0.45
   5  10   3   13.95    0.65
  -7 -10  -3   12.72    0.36
   7  10   3   10.66    0.60
  -9 -10  -3   22.73    0.64
   9  10   3   18.46    0.81
 -11 -10  -3   10.81    0.30
  11  10   3   10.20    0.66
 -13 -10  -3   18.97    0.53
  13  10   3   16.02    0.81
 -15 -10  -3   10.91    0.31
  15  10   3    8.46    0.71
 -17 -10  -3   11.69    0.33
  17  10   3   10.24    0.79
 -19 -10  -3    3.80    0.11
  19  10   3    4.35    0.60
 -10  11   3    9.30    0.71
   4 -11  -3    9.21    0.26
   2 -11  -3   41.26    1.14
   2 -11  -3   40.02    1.63
   0 -11  -3   11.61    0.32
   0 -11  -3   10.94    0.84
  -2 -11  -3   39.37    1.13
  -2 -11  -3   41.51    1.57
  -4 -11  -3    8.41    0.24
   4  11   3    7.20    0.36
   4  11   3    7.81    0.53
  -6 -11  -3   19.14    0.54
   6  11   3   17.04    0.76
  -8 -11  -3   21.33    0.60
   8  11   3   19.16    0.82
 -10 -11  -3   11.52    0.32
  10  11   3   10.25    0.67
 -12 -11  -3    9.59    0.27
  12  11   3    8.27    0.66
 -14 -11  -3    7.63    0.22
  14  11   3    6.35    0.66
 -16 -11  -3   13.46    0.38
  16  11   3   11.11    0.80
 -18 -11  -3    5.63    0.16
  18  11   3    4.49    0.59
   5 -12  -3   10.51    0.30
   3 -12  -3    6.75    0.19
   1 -12  -3   13.26    1.06
   1 -12  -3   13.92    0.39
  -1 -12  -3   14.07    0.39
  -1 -12  -3   13.20    1.07
  -3 -12  -3    6.57    0.19
  -3 -12  -3    7.97    0.96
  -5 -12  -3    9.84    0.28
   5  12   3    7.60    0.39
   5  12   3    8.46    0.56
  -7 -12  -3   12.16    0.34
   7  12   3   10.16    0.63
  -9 -12  -3    6.37    0.18
   9  12   3    4.79    0.49
 -11 -12  -3    9.87    0.28
  11  12   3    8.77    0.68
 -13 -12  -3    5.93    0.17
  13  12   3    5.94    0.67
 -15 -12  -3    6.40    0.18
  15  12   3    4.78    0.57
 -17 -12  -3    3.05    0.09
  17  12   3    2.04    0.54
   4 -13  -3   13.37    0.37
   2 -13  -3    8.86    0.25
   2 -13  -3    9.28    0.99
   0 -13  -3   12.19    0.95
   0 -13  -3   12.42    0.35
  -2 -13  -3    9.19    0.26
  -2 -13  -3    9.01    0.90
  -4 -13  -3   13.37    1.11
  -4 -13  -3   12.23    0.35
   4  13   3   10.57    0.61
  -6 -13  -3   17.10    0.48
   6  13   3   13.64    0.54
   6  13   3   13.28    0.69
  -8 -13  -3   17.17    0.48
   8  13   3   13.58    0.71
 -10 -13  -3   21.07    0.59
  10  13   3   15.53    0.81
 -12 -13  -3    5.71    0.16
  12  13   3    5.54    0.66
 -14 -13  -3    4.05    0.12
  14  13   3    3.01    0.46
 -16 -13  -3    8.47    0.24
  16  13   3    6.92    0.76
   5 -14  -3    6.11    0.17
   3 -14  -3    3.69    0.11
   1 -14  -3    6.90    0.86
   1 -14  -3    7.70    0.21
  -1 -14  -3    6.95    0.20
  -1 -14  -3    7.89    0.88
  -3 -14  -3    3.42    0.10
  -3 -14  -3    3.95    0.67
  -5 -14  -3    5.73    0.16
  -5 -14  -3    5.23    0.72
   5  14   3    4.93    0.54
  -7 -14  -3   12.11    0.34
   7  14   3    9.46    0.47
   7  14   3    9.77    0.64
  -9 -14  -3   16.16    0.45
   9  14   3   12.73    0.74
 -11 -14  -3    8.23    0.23
  11  14   3    6.13    0.67
 -13 -14  -3    4.47    0.13
  13  14   3    3.73    0.55
 -15 -14  -3    8.62    0.24
  15  14   3    6.48    0.76
   4 -15  -3    1.39    0.05
   2 -15  -3    4.33    0.12
   0 -15  -3   18.12    0.50
   0 -15  -3   17.77    1.14
  -2 -15  -3    4.35    0.12
  -2 -15  -3    4.09    0.71
  -4 -15  -3    1.43    0.05
  -4 -15  -3    1.04    0.62
   4  15   3    1.25    0.36
  -6 -15  -3    5.22    0.15
  -6 -15  -3    4.36    0.73
   6  15   3    4.22    0.45
  -8 -15  -3   16.91    0.47
   8  15   3   13.00    0.58
   8  15   3   12.91    0.74
 -10 -15  -3   12.30    0.35
  10  15   3    9.42    0.71
  10  15   3    9.33    0.56
 -12 -15  -3    6.90    0.20
  12  15   3    5.48    0.59
 -14 -15  -3    9.45    0.27
  14  15   3    6.82    0.77
 -16 -15  -3    2.61    0.08
  16  15   3    1.97    0.56
   5 -16  -3    2.43    0.07
   3 -16  -3    2.39    0.07
   1 -16  -3    3.88    0.73
   1 -16  -3    5.25    0.15
  -1 -16  -3    4.85    0.14
  -1 -16  -3    4.54    0.75
  -3 -16  -3    2.78    0.08
  -3 -16  -3    3.18    0.72
  -5 -16  -3    2.78    0.71
  -5 -16  -3    2.65    0.08
   5  16   3    2.31    0.41
  -7 -16  -3   11.72    1.25
  -7 -16  -3   11.24    0.32
   7  16   3    8.96    0.66
  -9 -16  -3    9.47    0.27
   9  16   3    7.67    0.66
   9  16   3    7.24    0.48
 -11 -16  -3   16.38    0.46
  11  16   3   12.27    0.64
  11  16   3   12.28    0.80
 -13 -16  -3    9.41    0.27
  13  16   3    7.32    0.76
 -15 -16  -3    2.91    0.09
  15  16   3    1.49    0.55
   4 -17  -3    1.09    0.04
   2 -17  -3   12.33    0.35
   0 -17  -3   20.94    0.59
   0 -17  -3   21.03    1.47
  -2 -17  -3   12.83    1.14
  -2 -17  -3   12.22    0.35
  -4 -17  -3    1.65    0.86
  -4 -17  -3    1.42    0.05
   4  17   3    0.65    0.39
  -6 -17  -3    7.03    0.90
  -6 -17  -3    7.28    0.21
   6  17   3    5.04    0.59
  -8 -17  -3   14.24    0.40
   8  17   3    9.92    0.70
 -10 -17  -3   15.00    0.42
  10  17   3   10.59    0.75
 -12 -17  -3    3.53    0.11
  12  17   3    2.76    0.54
   5 -18  -3    2.16    0.07
   3 -18  -3    4.37    0.13
   1 -18  -3   12.95    0.36
   1 -18  -3   13.01    1.38
  -1 -18  -3   11.93    1.38
  -1 -18  -3   13.36    0.37
  -3 -18  -3    4.69    0.99
  -3 -18  -3    4.74    0.14
   3  18   3    3.61    0.49
  -5 -18  -3    1.67    0.06
  -5 -18  -3    3.14    0.97
   5  18   3    1.78    0.38
  -7 -18  -3    9.02    1.13
  -7 -18  -3    9.66    0.27
   7  18   3    7.18    0.65
  -9 -18  -3    7.98    1.12
  -9 -18  -3   10.64    0.29
   9  18   3    5.86    0.64
 -11 -18  -3    6.37    0.18
 -11 -18  -3    5.69    0.90
  11  18   3    4.26    0.56
   4 -19  -3    8.74    0.25
   2 -19  -3   21.83    0.61
   0 -19  -3   47.49    1.32
   0 -19  -3   46.89    2.22
  -2 -19  -3   22.02    0.61
  -2 -19  -3   20.91    1.46
  -4 -19  -3   10.20    0.29
  -4 -19  -3   12.03    1.23
   4  19   3    7.54    0.60
  -6 -19  -3    4.72    1.05
  -6 -19  -3    5.19    0.15
   6  19   3    3.34    0.48
  -8 -19  -3    4.87    1.08
  -8 -19  -3    5.87    0.17
   8  19   3    4.35    0.51
 -10 -19  -3    4.96    0.93
 -10 -19  -3    5.75    0.16
  10  19   3    4.46    0.54
   3 -20  -3    8.32    0.24
   1 -20  -3   15.28    0.43
  -1 -20  -3   16.32    0.46
  -1 -20  -3   17.21    1.60
  -3 -20  -3    7.37    0.21
  -3 -20  -3    7.72    1.18
   3  20   3    5.77    0.69
  -5 -20  -3    1.31    0.82
  -5 -20  -3    1.68    0.06
   5  20   3    0.83    0.45
  -7 -20  -3    2.47    0.08
  -7 -20  -3    2.74    0.86
   7  20   3    2.08    0.47
  -9 -20  -3    5.60    0.16
  -9 -20  -3    4.22    0.93
   9  20   3    3.29    0.51
   4 -21  -3    3.42    0.10
   2 -21  -3   11.06    0.31
  -2 -21  -3   11.65    0.33
  -2 -21  -3   11.44    1.33
  -4 -21  -3    3.77    0.11
  -4 -21  -3    3.99    1.11
   4  21   3    2.80    0.52
  -6 -21  -3    2.93    0.89
  -6 -21  -3    3.26    0.10
   6  21   3    1.80    0.47
   5  21  -4    1.46    0.51
  -5 -21   4    0.80    0.04
   3  21  -4    0.60    0.53
  -3 -21   4    2.69    0.90
  -3 -21   4    2.00    0.07
  -1 -21   4    9.72    0.27
  -1 -21   4    8.13    1.08
   1 -21   4    8.54    0.24
   1 -21   4    8.49    1.05
   3 -21   4    1.70    0.06
   3 -21   4    2.32    0.81
   5 -21   4    1.50    0.06
   8  20  -4    0.51    0.39
  -8 -20   4    1.07    0.05
   6  20  -4    0.66    0.39
  -6 -20   4    1.84    0.07
   4  20  -4    5.14    0.60
  -4 -20   4    8.35    0.24
  -2 -20   4   11.50    1.25
  -2 -20   4   12.31    0.34
   0 -20   4   24.69    1.70
   0 -20   4   24.91    0.70
   2 -20   4   12.65    1.36
   2 -20   4   10.77    0.31
   4 -20   4    7.90    1.04
   4 -20   4    7.84    0.22
   6 -20   4    1.40    0.05
   9  19  -4    8.54    0.73
  -9 -19   4   14.35    0.40
   7  19  -4    5.26    0.56
  -7 -19   4    7.91    0.23
   5  19  -4    3.97    0.53
  -5 -19   4    4.86    0.14
   3  19  -4    6.21    0.74
  -3 -19   4    7.66    0.22
  -1 -19   4   13.03    1.28
  -1 -19   4   14.33    0.40
   1 -19   4   12.46    0.36
   1 -19   4   14.34    1.23
   3 -19   4    7.75    1.01
   3 -19   4    7.37    0.21
   5 -19   4    4.26    0.87
   5 -19   4    4.46    0.13
   7 -19   4    7.26    0.21
  12  18  -4    5.38    0.65
 -12 -18   4    8.64    0.25
  10  18  -4    2.55    0.44
 -10 -18   4    3.91    0.12
   8  18  -4    7.33    0.69
  -8 -18   4   12.90    0.36
   6  18  -4    3.89    0.52
  -6 -18   4    6.66    0.19
   4  18  -4    5.25    0.67
  -4 -18   4    5.47    0.16
  -2 -18   4   15.29    0.43
   0 -18   4   28.99    0.81
   0 -18   4   28.41    1.68
   2 -18   4   13.87    0.39
   2 -18   4   14.40    1.29
   4 -18   4    5.51    0.16
   4 -18   4    5.89    0.78
   6 -18   4    5.64    0.16
   8 -18   4   11.06    0.31
  13  17  -4    1.81    0.57
 -13 -17   4    2.09    0.07
  11  17  -4    8.61    0.77
 -11 -17   4   13.27    0.37
   9  17  -4   15.14    0.84
  -9 -17   4   27.15    0.76
   7  17  -4    9.85    0.72
  -7 -17   4   15.39    0.43
   5  17  -4    2.54    0.47
  -5 -17   4    3.63    0.11
   3  17  -4    1.21    0.38
  -3 -17   4    1.88    0.06
  -1 -17   4   11.06    0.31
   1 -17   4   10.13    1.03
   1 -17   4   10.60    0.30
   3 -17   4    1.35    0.61
   3 -17   4    1.81    0.06
   5 -17   4    3.36    0.10
   5 -17   4    3.65    0.76
   7 -17   4   13.99    0.39
  14  16  -4    4.24    0.55
  14  16  -4    3.80    0.55
 -14 -16   4    5.04    0.15
  12  16  -4    7.91    0.68
  12  16  -4    6.21    0.78
 -12 -16   4   11.19    0.32
  10  16  -4   11.55    0.71
 -10 -16   4   18.54    0.52
   8  16  -4   10.60    0.74
  -8 -16   4   15.68    0.44
   6  16  -4    5.16    0.61
  -6 -16   4    7.77    0.22
   4  16  -4    1.92    0.37
  -4 -16   4    2.55    0.08
  -2 -16   4    6.06    0.17
   0 -16   4    8.30    0.23
   2 -16   4    6.11    0.17
   2 -16   4    5.55    0.72
   4 -16   4    2.30    0.07
   4 -16   4    3.47    0.71
   6 -16   4    6.65    0.19
   6 -16   4    6.62    0.79
   8 -16   4   13.72    0.39
  15  15  -4    0.99    0.43
  15  15  -4    0.29    0.59
 -15 -15   4    0.19    0.03
  13  15  -4    8.01    0.64
  13  15  -4    7.21    0.71
 -13 -15   4   10.91    0.31
  11  15  -4   13.03    0.73
  11  15  -4   13.25    0.85
 -11 -15   4   15.19    0.43
   9  15  -4    7.59    0.68
  -9 -15   4   11.90    0.34
   7  15  -4    7.04    0.57
  -7 -15   4   11.54    0.33
   5  15  -4    3.45    0.46
  -5 -15   4    4.54    0.13
   3  15  -4    2.70    0.39
  -3 -15   4    3.30    0.10
  -1 -15   4   13.89    0.39
   1 -15   4   12.88    0.36
   3 -15   4    2.96    0.09
   3 -15   4    2.91    0.69
   5 -15   4    4.68    0.62
   5 -15   4    3.98    0.12
   7 -15   4    9.75    0.27
  16  14  -4    4.73    0.57
  16  14  -4    4.38    0.68
 -16 -14   4    4.49    0.13
  14  14  -4    9.31    0.70
  14  14  -4    9.77    0.77
 -14 -14   4   11.90    0.34
  12  14  -4    3.16    0.44
  12  14  -4    2.65    0.48
 -12 -14   4    2.82    0.09
  10  14  -4   11.34    0.66
  10  14  -4   11.09    0.78
 -10 -14   4   14.69    0.41
   8  14  -4   17.36    0.85
  -8 -14   4   23.30    0.65
   6  14  -4    8.12    0.64
  -6 -14   4   11.50    0.32
   4  14  -4    4.49    0.57
  -4 -14   4    6.57    0.19
  -2 -14   4    2.95    0.09
   0 -14   4    5.12    0.15
   2 -14   4    1.91    0.55
   2 -14   4    2.79    0.08
   4 -14   4    6.20    0.72
   4 -14   4    5.80    0.17
   6 -14   4    9.10    0.26
   6 -14   4   10.31    0.92
   8 -14   4   23.29    0.65
  17  13  -4    2.56    0.64
 -17 -13   4    2.46    0.08
  15  13  -4    9.00    0.88
 -15 -13   4    9.65    0.27
  13  13  -4    4.20    0.50
  13  13  -4    4.35    0.62
 -13 -13   4    4.93    0.14
  11  13  -4   10.76    0.71
  11  13  -4    9.73    0.68
 -11 -13   4   13.53    0.38
   9  13  -4   12.42    0.69
   9  13  -4   12.62    0.73
  -9 -13   4   15.80    0.44
   7  13  -4   13.25    0.75
  -7 -13   4   16.76    0.47
   5  13  -4    6.58    0.59
  -5 -13   4    9.37    0.26
  -3 -13   4    7.84    0.22
  -1 -13   4   32.44    0.91
   1 -13   4   31.68    0.89
   3 -13   4    7.36    0.86
   3 -13   4    7.04    0.20
   5 -13   4    8.27    0.24
   5 -13   4    9.29    0.85
   7 -13   4   15.42    0.43
  18  12  -4    7.32    0.90
 -18 -12   4    7.54    0.21
  16  12  -4    8.65    0.88
 -16 -12   4    9.70    0.27
  14  12  -4    2.87    0.61
 -14 -12   4    2.82    0.09
  12  12  -4    7.80    0.77
  12  12  -4    7.01    0.62
 -12 -12   4    8.75    0.25
  10  12  -4    6.82    0.70
  10  12  -4    7.45    0.63
 -10 -12   4    9.13    0.26
   8  12  -4   15.99    0.75
   8  12  -4   16.14    0.81
  -8 -12   4   20.72    0.58
   6  12  -4   13.64    0.67
  -6 -12   4   19.71    0.55
   4  12  -4   10.76    0.65
  -4 -12   4   14.65    0.41
  -2 -12   4    8.48    0.24
   0 -12   4   15.93    0.45
   2 -12   4    7.66    0.22
   4 -12   4   13.45    0.38
   4 -12   4   13.12    0.91
   6 -12   4   18.34    1.01
   6 -12   4   17.90    0.50
  17  11  -4   10.49    0.91
 -17 -11   4   10.91    0.31
  15  11  -4   13.72    0.94
 -15 -11   4   14.23    0.40
  13  11  -4   12.06    0.87
 -13 -11   4   12.10    0.34
  11  11  -4    6.20    0.71
 -11 -11   4    6.60    0.19
   9  11  -4   13.87    0.80
   9  11  -4   14.42    0.76
  -9 -11   4   16.77    0.47
   7  11  -4    4.37    0.49
   7  11  -4    5.44    0.59
  -7 -11   4    5.38    0.15
   5  11  -4   11.38    0.66
  -5 -11   4   14.94    0.42
  -3 -11   4   37.39    1.05
  -1 -11   4   44.71    1.25
   1 -11   4   42.58    1.19
   3 -11   4   32.87    0.92
   5 -11   4   15.03    0.89
   5 -11   4   14.40    0.41
   7 -11   4    4.97    0.14
  18  10  -4    1.66    0.63
 -18 -10   4    2.59    0.08
  16  10  -4   13.02    0.93
 -16 -10   4   14.38    0.40
  14  10  -4   13.02    0.89
 -14 -10   4   12.74    0.36
  12  10  -4    7.54    0.65
 -12 -10   4    8.17    0.23
  10  10  -4   21.05    0.89
 -10 -10   4   25.23    0.71
   8  10  -4   10.04    0.63
   8  10  -4   12.73    0.72
  -8 -10   4   12.24    0.34
   6  10  -4   22.53    0.94
   6  10  -4   25.18    0.94
  -6 -10   4   26.80    0.75
   4  10  -4    6.27    0.54
  -4 -10   4    7.21    0.20
  -2 -10   4   18.69    0.52
   0 -10   4   38.49    1.08
   2 -10   4   17.50    0.49
   4 -10   4    6.79    0.70
   4 -10   4    6.93    0.19
   6 -10   4   28.90    1.17
   6 -10   4   27.93    0.79
 -18  10  -4    3.90    1.25
  19   9  -4    9.36    0.79
 -19  -9   4   10.63    0.30
  17   9  -4   20.15    1.08
 -17  -9   4   20.02    0.56
  15   9  -4    8.08    0.70
 -15  -9   4    8.95    0.25
  13   9  -4   14.46    0.87
 -13  -9   4   13.67    0.38
  11   9  -4   14.97    0.84
 -11  -9   4   14.95    0.42
   9   9  -4    0.42    0.41
  -9  -9   4    0.69    0.03
  -9  -9   4    0.56    0.33
   7   9  -4    6.55    0.50
   7   9  -4    6.25    0.52
  -7  -9   4    7.23    0.20
   5   9  -4    1.69    0.30
   5   9  -4    2.03    0.31
  -5  -9   4    2.01    0.06
   3   9  -4    8.71    0.49
  -3  -9   4   10.14    0.28
  -1  -9   4   42.90    1.20
   1  -9   4   42.16    1.18
   3  -9   4    9.04    0.25
   5  -9   4    1.85    0.06
   5  -9   4    2.10    0.41
   7  -9   4    7.81    0.22
 -17   9  -4   24.52    2.17
 -19   9  -4   10.88    1.91
  20   8  -4    0.53    0.50
 -20  -8   4    0.75    0.04
  18   8  -4    8.54    0.86
 -18  -8   4    9.34    0.26
  16   8  -4   11.89    0.88
 -16  -8   4   11.65    0.33
  14   8  -4   18.00    0.94
 -14  -8   4   19.21    0.54
  12   8  -4   17.89    0.91
 -12  -8   4   16.91    0.47
  10   8  -4   13.21    0.77
 -10  -8   4   10.82    0.30
 -10  -8   4   10.23    0.74
   8   8  -4   36.39    1.27
  -8  -8   4   35.58    0.97
  -8  -8   4   33.35    1.20
   6   8  -4    7.01    0.56
   6   8  -4    7.04    0.56
  -6  -8   4    6.95    0.20
   4   8  -4   16.38    0.70
  -4  -8   4   17.68    0.49
  -2  -8   4    6.14    0.17
   0  -8   4    9.44    0.26
   2  -8   4    5.70    0.16
   4  -8   4   19.33    0.54
   4  -8   4   19.06    0.85
   6  -8   4    7.18    0.21
   6  -8   4    7.90    0.65
 -16   8  -4   14.01    1.70
 -18   8  -4   10.98    1.51
 -20   8  -4    0.63    1.24
  19   7  -4    5.54    0.60
 -19  -7   4    5.60    0.16
  17   7  -4   11.21    0.88
 -17  -7   4   11.87    0.33
  15   7  -4    9.04    0.78
 -15  -7   4    8.54    0.24
  13   7  -4   12.51    0.79
 -13  -7   4   12.75    0.36
  11   7  -4    5.17    0.54
 -11  -7   4    4.58    0.13
   9   7  -4    7.60    0.64
  -9  -7   4    6.61    0.19
  -9  -7   4    6.97    0.55
   7   7  -4    1.27    0.30
  -7  -7   4    1.47    0.05
  -7  -7   4    1.48    0.27
   5   7  -4   12.55    0.61
   5   7  -4   13.87    0.64
  -5  -7   4   12.93    0.36
   3   7  -4    4.69    0.37
  -3  -7   4    4.66    0.13
  -1  -7   4    8.85    0.50
   3  -7   4    4.80    0.14
   5  -7   4   13.40    0.67
   5  -7   4   14.48    0.39
 -15   7  -4   10.54    1.49
 -17   7  -4   12.16    1.65
 -19   7  -4    7.48    1.40
  20   6  -4    0.80    0.58
 -20  -6   4    0.95    0.04
  18   6  -4    4.10    0.55
 -18  -6   4    4.38    0.13
  16   6  -4    6.23    0.63
 -16  -6   4    5.51    0.16
  14   6  -4    9.91    0.76
 -14  -6   4    8.42    0.24
  12   6  -4   14.77    0.81
 -12  -6   4   15.12    0.42
  10   6  -4   23.01    0.95
 -10  -6   4   21.99    0.89
 -10  -6   4   22.80    0.63
   8   6  -4    6.61    0.49
  -8  -6   4    6.36    0.51
  -8  -6   4    6.36    0.18
   6   6  -4   49.16    1.54
  -6  -6   4   48.15    1.49
  -6  -6   4   47.51    1.34
   4   6  -4    5.49    0.40
   4   6  -4    5.38    0.43
  -4  -6   4    5.47    0.15
   4  -6   4    6.57    0.43
   6  -6   4   60.12    1.68
 -10   6  -4   22.71    0.92
 -14   6  -4    8.57    1.15
 -16   6  -4    7.16    1.20
 -18   6  -4    5.88    1.24
 -20   6  -4    0.61    0.92
  21   5  -4    1.05    0.58
 -21  -5   4    1.16    0.05
  19   5  -4    3.81    0.62
 -19  -5   4    3.63    0.11
  17   5  -4    3.40    0.59
 -17  -5   4    2.80    0.08
  15   5  -4    3.88    0.47
 -15  -5   4    3.28    0.10
  13   5  -4    6.95    0.68
 -13  -5   4    6.83    0.19
  11   5  -4   12.47    0.73
 -11  -5   4   10.79    0.64
 -11  -5   4   11.73    0.32
   9   5  -4    1.78    0.39
  -9  -5   4    1.71    0.28
  -9  -5   4    1.80    0.05
   7   5  -4   13.57    0.65
  -7  -5   4   12.05    0.34
  -7  -5   4   12.42    0.59
   5   5  -4    0.37    0.25
  -5  -5   4    0.06    0.22
   3   5  -4    1.68    0.23
   3   5  -4    1.95    0.24
   5  -5   4   -0.15    0.22
  -9   5  -4    1.70    0.35
 -11   5  -4   11.56    0.66
 -11   5  -4   10.63    0.49
 -13   5  -4    8.25    1.07
 -13   5  -4    5.83    0.44
 -15   5  -4    4.50    1.01
 -17   5  -4    2.84    1.03
 -19   5  -4    3.64    1.16
 -21   5  -4    0.79    0.04
  20   4  -4    6.15    0.68
 -20  -4   4    6.05    0.17
  18   4  -4    4.36    0.53
 -18  -4   4    4.76    0.14
  16   4  -4    1.61    0.51
 -16  -4   4    1.91    0.06
  14   4  -4    4.93    0.56
 -14  -4   4    4.75    0.14
  12   4  -4   11.91    0.67
 -12  -4   4   11.15    0.30
 -12  -4   4   10.19    0.57
  10   4  -4    6.59    0.60
 -10  -4   4    5.67    0.16
 -10  -4   4    5.74    0.51
   8   4  -4   16.59    0.73
  -8  -4   4   15.64    0.43
  -8  -4   4   15.25    0.66
   6   4  -4    5.42    0.43
  -6  -4   4    5.13    0.14
  -6  -4   4    4.87    0.34
   4   4  -4    8.31    0.37
  -4  -4   4    8.19    0.40
   2   4  -4    4.49    0.29
  -2  -4   4    4.04    0.27
   4  -4   4    8.77    0.39
  -8   4  -4   16.13    0.65
 -10   4  -4    5.64    0.52
 -10   4  -4    5.08    0.33
 -12   4  -4   13.37    1.29
 -14   4  -4    5.23    0.99
 -16   4  -4    2.32    0.92
 -18   4  -4    4.39    0.13
 -20   4  -4    5.84    0.17
  21   3  -4    1.26    0.49
 -21  -3   4    1.32    0.05
  19   3  -4    6.82    0.81
 -19  -3   4    5.95    0.17
  17   3  -4    1.43    0.44
 -17  -3   4    1.61    0.05
  15   3  -4    3.01    0.52
 -15  -3   4    2.39    0.07
  13   3  -4    6.19    0.57
 -13  -3   4    5.90    0.17
  11   3  -4   31.38    1.16
 -11  -3   4   27.04    0.75
 -11  -3   4   26.63    0.99
   9   3  -4   10.53    0.63
  -9  -3   4    8.90    0.54
  -9  -3   4    8.19    0.24
   7   3  -4    4.72    0.45
  -7  -3   4    4.22    0.12
  -7  -3   4    4.17    0.39
   5   3  -4    1.79    0.21
  -5  -3   4    1.66    0.21
   3   3  -4    0.75    0.16
   3   3  -4    0.78    0.16
  -3  -3   4    0.82    0.15
  -7   3  -4    5.15    0.41
  -9   3  -4    8.40    1.06
  -9   3  -4    9.13    0.55
 -11   3  -4   28.48    1.06
 -11   3  -4   30.42    1.63
 -13   3  -4    6.38    0.98
 -15   3  -4    3.38    0.90
 -17   3  -4    1.41    0.05
 -19   3  -4    5.89    0.17
 -21   3  -4    1.05    0.04
  20   2  -4    8.51    0.89
 -20  -2   4    8.86    0.25
  18   2  -4   13.22    0.91
 -18  -2   4   11.46    0.32
  16   2  -4    5.70    0.73
 -16  -2   4    4.91    0.14
  14   2  -4    2.41    0.49
 -14  -2   4    2.37    0.07
  12   2  -4    8.26    0.60
 -12  -2   4    6.87    0.49
 -12  -2   4    6.45    0.18
  10   2  -4   17.93    0.82
 -10  -2   4   14.74    0.64
 -10  -2   4   14.71    0.41
   8   2  -4    6.16    0.51
  -8  -2   4    5.02    0.14
  -8  -2   4    5.56    0.44
   6   2  -4    6.94    0.49
   6   2  -4    7.64    0.43
  -6  -2   4    6.42    0.38
   4   2  -4    4.62    0.30
  -4  -2   4    4.11    0.26
   2   2  -4  311.75    8.66
   2   2  -4  302.15    8.74
  -2  -2   4  296.49    8.28
  -2  -2   4  289.76    8.34
  -6   2  -4    7.22    0.40
  -6   2  -4    8.14    0.74
  -8   2  -4    5.59    0.89
  -8   2  -4    5.85    0.44
 -10   2  -4   15.68    0.66
 -10   2  -4   16.37    1.25
 -12   2  -4    6.91    0.54
 -12   2  -4    6.81    0.97
 -16   2  -4    4.90    0.14
 -18   2  -4   12.04    0.34
 -20   2  -4    8.48    0.24
  21   1  -4    6.38    0.74
 -21  -1   4    6.78    0.19
  19   1  -4   10.70    0.80
 -19  -1   4   10.52    0.30
  17   1  -4    8.66    0.69
 -17  -1   4    8.43    0.24
  15   1  -4   11.61    0.71
 -15  -1   4   10.81    0.30
  13   1  -4   28.58    1.09
 -13  -1   4   22.81    0.92
 -13  -1   4   26.07    0.69
  11   1  -4   41.43    1.43
 -11  -1   4   34.94    1.19
 -11  -1   4   36.18    1.00
   9   1  -4   44.45    1.45
  -9  -1   4   38.51    1.23
  -9  -1   4   36.63    1.05
   7   1  -4   10.34    0.49
  -7  -1   4   10.32    0.49
   5   1  -4    9.41    0.43
  -5  -1   4    8.26    0.35
   3   1  -4    6.38    0.29
  -3  -1   4    5.70    0.26
   1   1  -4    1.94    0.15
   1   1  -4    2.28    0.13
  -1  -1   4    2.23    0.13
  -1  -1   4    2.21    0.17
  -1   1  -4    2.83    0.28
  -3   1  -4    6.43    0.28
  -3   1  -4    6.30    0.49
  -5   1  -4    9.03    0.38
  -5   1  -4    8.77    0.63
  -7   1  -4    9.96    0.47
  -7   1  -4    9.79    0.89
   7  -1   4   11.27    0.54
  -9   1  -4   37.32    1.73
  -9   1  -4   40.48    1.26
   9  -1   4   44.90    1.44
 -11   1  -4   36.37    1.23
  11  -1   4   41.32    1.39
 -13   1  -4   26.61    0.74
  13  -1   4   29.44    1.12
 -15   1  -4   10.90    0.31
  15  -1   4   12.16    0.78
 -17   1  -4    8.45    0.24
  17  -1   4    8.91    0.79
 -19   1  -4   10.94    0.31
 -21   1  -4    7.00    0.20
  20   0  -4   19.74    1.12
 -20   0   4   20.22    0.57
  18   0  -4   23.75    1.15
 -18   0   4   22.88    0.64
  16   0  -4    7.65    0.65
 -16   0   4    6.64    0.19
  14   0  -4    4.64    0.54
 -14   0   4    4.25    0.12
  12   0  -4   14.98    0.82
 -12   0   4   12.60    0.63
 -12   0   4   12.84    0.36
  10   0  -4   36.71    1.24
 -10   0   4   31.72    0.90
 -10   0   4   32.87    1.12
   8   0  -4    9.30    0.50
  -8   0   4    7.70    0.59
  -8   0   4    8.17    0.23
  -8   0   4    9.01    0.49
   6   0  -4    6.35    0.41
  -6   0   4    6.56    0.44
  -6   0   4    5.91    0.37
   4   0  -4  133.71    3.80
  -4   0   4  120.35    3.42
   2   0  -4    1.96    0.18
   2   0  -4    1.61    0.14
  -2   0   4    1.50    0.13
  -2   0  -4    1.74    0.12
   2   0   4    1.63    0.29
  -4   0  -4  123.73    3.51
   4   0   4  136.49    3.87
  -6   0  -4    6.48    0.34
   6   0   4    6.92    0.42
  -8   0  -4    8.14    0.23
  -8   0  -4    8.66    0.46
   8   0   4    9.08    0.46
 -10   0  -4   31.64    1.08
 -10   0  -4   31.96    0.89
  10   0   4   35.13    1.16
 -12   0  -4   12.72    0.35
 -12   0  -4   12.01    0.63
  12   0   4   15.01    0.76
 -14   0  -4    4.26    0.12
  14   0   4    4.15    0.52
 -16   0  -4    6.53    0.18
  16   0   4    7.03    0.60
 -18   0  -4   21.97    0.61
  18   0   4   21.08    0.97
 -20   0  -4   19.64    0.55
  20   0   4   18.44    0.94
  21  -1  -4    6.53    0.76
 -21   1   4    6.30    0.18
  19  -1  -4   11.62    0.95
 -19   1   4   10.69    0.30
  17  -1  -4    9.65    0.83
 -17   1   4    8.39    0.24
  15  -1  -4   11.81    0.81
 -15   1   4   11.40    0.32
  13  -1  -4   28.33    1.13
 -13   1   4   26.57    1.39
 -13   1   4   26.20    0.72
 -13   1   4   24.64    1.01
  11  -1  -4   42.09    1.44
 -11   1   4   37.26    1.27
 -11   1   4   37.49    1.59
 -11   1   4   36.97    1.04
   9  -1  -4   43.32    1.42
  -9   1   4   38.62    1.23
  -9   1   4   37.37    1.48
   7  -1  -4   10.41    0.49
  -7   1   4   10.98    0.52
   5  -1  -4    9.47    0.42
  -5   1   4    9.16    0.38
   3  -1  -4    6.35    0.27
  -3   1   4    5.82    0.26
   1  -1  -4    0.01    0.01
  -1   1   4    2.64    0.17
  -1   1   4    2.76    0.13
   1   1   4    1.97    0.08
  -3  -1  -4    5.82    0.23
   3   1   4    5.85    0.24
  -5  -1  -4    8.37    0.35
   5   1   4    9.72    0.42
  -7  -1  -4    9.04    0.25
  -7  -1  -4    9.15    0.43
   7   1   4   11.00    0.51
  -9  -1  -4   37.90    1.07
  -9  -1  -4   38.46    1.22
   9   1   4   43.43    1.39
 -11  -1  -4   35.61    1.20
 -11  -1  -4   36.45    1.01
  11   1   4   40.21    1.35
 -13  -1  -4   25.72    0.72
  13   1   4   26.76    1.00
 -15  -1  -4   10.66    0.30
  15   1   4   11.62    0.75
 -17  -1  -4    7.80    0.22
  17   1   4    9.34    0.76
 -19  -1  -4    9.87    0.28
  19   1   4   10.38    0.84
 -21  -1  -4    7.04    0.20
  21   1   4    6.42    0.81
  20  -2  -4    9.16    0.92
 -20   2   4    8.77    0.25
  18  -2  -4   11.34    0.79
 -18   2   4   11.54    0.32
  16  -2  -4    5.22    0.62
 -16   2   4    5.19    0.15
  14  -2  -4    3.19    0.51
 -14   2   4    2.41    0.07
 -14   2   4    2.14    0.64
  12  -2  -4    6.84    0.57
 -12   2   4    6.76    0.95
 -12   2   4    6.90    0.59
  10  -2  -4   17.06    0.73
 -10   2   4   16.10    0.70
   8  -2  -4    5.95    0.50
  -8   2   4    5.77    0.47
   6  -2  -4    7.69    0.43
  -6   2   4    8.10    0.40
   4  -2  -4    4.45    0.28
  -4   2   4    4.90    0.30
  -2   2   4  351.22    9.96
  -2  -2  -4  308.28    8.73
   2   2   4  281.21    8.04
   2   2   4  286.40    8.02
  -4  -2  -4    4.05    0.23
   4   2   4    4.32    0.25
  -6  -2  -4    7.09    0.35
   6   2   4    7.69    0.38
  -8  -2  -4    5.60    0.40
  -8  -2  -4    5.07    0.15
   8   2   4    5.91    0.45
 -10  -2  -4   15.09    0.65
 -10  -2  -4   15.17    0.42
  10   2   4   17.98    0.76
 -12  -2  -4    6.58    0.18
 -12  -2  -4    6.36    0.50
  12   2   4    7.59    0.61
 -14  -2  -4    2.45    0.07
  14   2   4    2.65    0.44
 -16  -2  -4    4.94    0.14
  16   2   4    5.66    0.65
 -18  -2  -4   11.15    0.31
  18   2   4   10.99    0.71
 -20  -2  -4    7.99    0.23
  20   2   4    7.95    0.80
 -21   3   4    1.06    0.04
 -19   3   4    6.53    0.19
 -17   3   4    1.33    0.05
 -17   3   4    1.08    0.69
  15  -3  -4    2.51    0.44
 -15   3   4    2.95    0.70
  13  -3  -4    6.21    0.58
 -13   3   4    5.46    0.60
 -13   3   4    7.44    0.93
  11  -3  -4   30.68    1.15
 -11   3   4   29.00    1.08
   9  -3  -4   10.11    0.62
  -9   3   4    9.69    0.54
   7  -3  -4    5.33    0.45
  -7   3   4    5.28    0.45
  -5   3   4    2.22    0.25
  -3   3   4    1.01    0.18
   1  -3  -4    5.96    0.26
   1   3   4    5.36    0.32
  -3  -3  -4    0.70    0.12
  -3  -3  -4    0.83    0.18
   3   3   4    0.63    0.10
  -5  -3  -4    1.64    0.17
   5   3   4    1.81    0.20
  -7  -3  -4    4.34    0.13
  -7  -3  -4    4.76    0.35
   7   3   4    4.52    0.41
  -9  -3  -4    8.44    0.25
  -9  -3  -4    9.48    0.50
   9   3   4    9.23    0.54
 -11  -3  -4   27.50    0.76
 -11  -3  -4   26.42    0.97
  11   3   4   30.02    1.07
 -13  -3  -4    5.56    0.16
  13   3   4    6.44    0.60
 -15  -3  -4    2.50    0.08
  15   3   4    3.16    0.48
 -17  -3  -4    1.57    0.05
  17   3   4    1.48    0.47
 -19  -3  -4    4.20    0.12
  19   3   4    5.89    0.75
 -21  -3  -4    0.27    0.03
  21   3   4    1.21    0.54
 -20   4   4    6.69    0.19
 -18   4   4    5.04    1.00
 -18   4   4    4.84    0.14
 -16   4   4    2.23    0.76
 -14   4   4    5.57    0.95
 -12   4   4   11.43    0.63
 -10   4   4    6.07    0.57
  -8   4   4   18.28    0.73
  -6   4   4    6.03    0.43
   0   4   4  122.66    3.57
   0   4   4  130.30    3.77
  -2  -4  -4    4.84    0.37
   2   4   4    4.49    0.23
  -4  -4  -4    8.49    0.35
   4   4   4    7.36    0.32
  -6  -4  -4    5.40    0.34
  -6  -4  -4    5.49    0.15
   6   4   4    4.81    0.33
  -8  -4  -4   16.25    0.64
  -8  -4  -4   16.01    0.45
   8   4   4   15.59    0.63
 -10  -4  -4    5.60    0.46
 -10  -4  -4    5.87    0.16
  10   4   4    6.41    0.51
 -12  -4  -4   11.59    0.32
  12   4   4   11.51    0.66
 -14  -4  -4    4.58    0.13
  14   4   4    4.49    0.48
 -16  -4  -4    1.95    0.06
  16   4   4    1.97    0.46
 -18  -4  -4    3.89    0.11
  18   4   4    5.50    0.70
 -20  -4  -4    4.95    0.14
  20   4   4    5.93    0.75
 -21   5   4    1.05    0.04
 -19   5   4    3.60    0.93
 -19   5   4    3.62    0.11
 -17   5   4    3.76    0.88
 -15   5   4    3.23    0.79
 -13   5   4    7.06    0.63
 -11   5   4   12.29    0.65
  -9   5   4    2.09    0.37
  -7   5   4   13.71    0.64
  -1  -5  -4    9.42    0.50
  -3  -5  -4    1.94    0.30
   3   5   4    1.77    0.19
  -5  -5  -4    0.10    0.21
   5   5   4    0.02    0.20
  -7  -5  -4   12.15    0.36
  -7  -5  -4   13.66    0.56
   7   5   4   12.10    0.53
  -9  -5  -4    1.76    0.05
  -9  -5  -4    1.60    0.29
   9   5   4    1.83    0.30
 -11  -5  -4   11.03    0.61
 -11  -5  -4   12.62    0.34
  11   5   4   11.74    0.64
 -13  -5  -4    6.99    0.20
  13   5   4    6.01    0.50
 -15  -5  -4    3.42    0.10
  15   5   4    3.29    0.47
 -17  -5  -4    2.68    0.08
  17   5   4    2.57    0.50
 -19  -5  -4    3.62    0.11
  19   5   4    2.93    0.54
 -21  -5  -4    0.87    0.03
  21   5   4    0.83    0.44
 -20   6   4    1.09    0.04
 -20   6   4    1.70    0.94
 -18   6   4    5.51    1.07
 -16   6   4    7.03    1.16
 -12   6   4   15.26    0.81
 -10   6   4   24.53    0.98
  -8   6   4    6.30    0.55
   0  -6  -4    6.92    0.56
  -2  -6  -4    7.82    0.56
   4   6   4    5.22    0.34
  -6  -6  -4   51.24    1.53
  -6  -6  -4   49.45    1.41
   6   6   4   46.08    1.40
  -8  -6  -4    6.36    0.46
  -8  -6  -4    6.28    0.18
   8   6   4    6.24    0.45
 -10  -6  -4   23.62    0.65
 -10  -6  -4   22.40    0.87
  10   6   4   20.52    0.80
 -12  -6  -4   14.78    0.41
  12   6   4   14.69    0.72
 -14  -6  -4    8.67    0.24
  14   6   4    8.30    0.64
 -16  -6  -4    5.53    0.16
  16   6   4    5.14    0.63
 -18  -6  -4    2.57    0.08
  18   6   4    4.33    0.48
 -20  -6  -4    1.37    0.05
  20   6   4    0.55    0.51
 -19   7   4    5.40    1.12
 -17   7   4   13.47    1.44
 -11   7   4    3.60    0.45
  -9   7   4    7.32    0.61
  -7   7   4    1.36    0.29
  -1  -7  -4   11.11    0.70
  -3  -7  -4    4.82    0.14
  -3  -7  -4    4.76    0.49
   3   7   4    4.91    0.36
  -5  -7  -4   13.59    0.38
   5   7   4   12.80    0.55
  -7  -7  -4    1.47    0.28
  -7  -7  -4    1.60    0.05
   7   7   4    1.37    0.28
  -9  -7  -4    6.82    0.55
  -9  -7  -4    6.86    0.19
   9   7   4    6.61    0.49
 -11  -7  -4    4.70    0.13
  11   7   4    4.64    0.50
 -13  -7  -4   13.61    0.38
  13   7   4   11.84    0.69
 -15  -7  -4    8.99    0.25
  15   7   4    7.81    0.65
 -17  -7  -4   10.52    0.30
  17   7   4   10.15    0.75
 -19  -7  -4    5.17    0.15
  19   7   4    5.64    0.60
 -20   8   4    0.11    1.04
 -18   8   4   11.84    1.52
 -12   8   4   15.36    0.82
 -10   8   4   11.02    0.69
  -8   8   4   36.44    1.24
   2  -8  -4    5.55    0.16
   0  -8  -4    9.43    0.76
   0  -8  -4   10.13    0.28
  -2  -8  -4    5.39    0.15
  -2  -8  -4    5.37    0.58
  -4  -8  -4   18.19    0.51
   4   8   4   17.27    0.67
  -6  -8  -4    6.77    0.19
   6   8   4    6.37    0.45
  -8  -8  -4   35.72    1.23
  -8  -8  -4   38.38    1.04
   8   8   4   32.43    1.09
 -10  -8  -4   11.60    0.33
  10   8   4   10.99    0.61
 -12  -8  -4   17.66    0.49
  12   8   4   15.41    0.74
 -14  -8  -4   19.79    0.55
  14   8   4   17.19    0.83
 -16  -8  -4   12.59    0.35
  16   8   4   10.48    0.74
 -18  -8  -4    9.35    0.26
  18   8   4    8.33    0.74
 -20  -8  -4    0.62    0.03
  20   8   4    0.92    0.52
 -19   9   4   11.86    1.66
 -11   9   4   14.45    0.78
  -9   9   4    0.54    0.32
   3  -9  -4    9.50    0.27
   1  -9  -4   44.33    1.21
   1  -9  -4   41.52    1.55
  -1  -9  -4   40.99    1.56
  -1  -9  -4   42.14    1.16
  -3  -9  -4    8.92    0.26
  -3  -9  -4   10.30    0.84
  -5  -9  -4    1.97    0.06
   5   9   4    2.02    0.31
  -7  -9  -4    7.54    0.21
   7   9   4    7.19    0.51
  -9  -9  -4    0.66    0.03
   9   9   4    0.25    0.33
 -11  -9  -4   16.23    0.45
  11   9   4   12.81    0.68
 -13  -9  -4   14.40    0.40
  13   9   4   12.53    0.71
 -15  -9  -4    9.60    0.27
  15   9   4    8.63    0.70
 -17  -9  -4   21.15    0.59
  17   9   4   17.99    0.93
 -19  -9  -4   10.57    0.30
  19   9   4    8.40    0.78
 -10  10   4   23.31    1.00
   2 -10  -4   18.62    0.52
   0 -10  -4   38.52    1.48
   0 -10  -4   39.14    1.09
  -2 -10  -4   18.00    0.51
  -2 -10  -4   18.83    1.06
  -4 -10  -4    6.82    0.85
  -4 -10  -4    6.66    0.19
   4  10   4    6.50    0.49
  -6 -10  -4   28.34    0.79
   6  10   4   23.99    0.89
  -8 -10  -4   12.42    0.35
   8  10   4   11.06    0.62
 -10 -10  -4   26.73    0.75
  10  10   4   22.31    0.90
 -12 -10  -4    8.84    0.25
  12  10   4    7.43    0.61
 -14 -10  -4   13.11    0.37
  14  10   4   10.08    0.70
 -16 -10  -4   14.26    0.40
  16  10   4   11.57    0.70
 -18 -10  -4    2.92    0.09
  18  10   4    2.91    0.47
   3 -11  -4   34.96    0.98
   1 -11  -4   41.93    1.65
   1 -11  -4   45.77    1.23
  -1 -11  -4   41.51    1.62
  -1 -11  -4   43.59    1.19
  -3 -11  -4   34.24    1.48
  -3 -11  -4   33.15    0.94
  -5 -11  -4   13.89    0.39
   5  11   4   12.02    0.62
  -7 -11  -4    5.19    0.15
   7  11   4    4.96    0.51
  -9 -11  -4   17.00    0.48
   9  11   4   14.36    0.72
 -11 -11  -4    6.76    0.19
  11  11   4    5.38    0.58
 -13 -11  -4   13.01    0.37
  13  11   4    9.82    0.69
 -15 -11  -4   15.73    0.44
  15  11   4   11.64    0.77
 -17 -11  -4   10.93    0.31
  17  11   4    8.46    0.76
   4 -12  -4   14.27    0.40
   2 -12  -4    8.23    0.23
   0 -12  -4   15.16    0.98
   0 -12  -4   15.20    0.43
  -2 -12  -4    8.04    0.84
  -2 -12  -4    7.82    0.22
  -4 -12  -4   13.17    1.09
  -4 -12  -4   14.09    0.39
   4  12   4   11.15    0.61
  -6 -12  -4   19.18    0.54
   6  12   4   15.28    0.72
  -8 -12  -4   20.38    0.57
   8  12   4   16.89    0.77
 -10 -12  -4    9.69    0.27
  10  12   4    7.90    0.63
 -12 -12  -4    9.18    0.26
  12  12   4    7.41    0.67
 -14 -12  -4    3.37    0.10
  14  12   4    3.10    0.50
 -16 -12  -4   10.09    0.28
  16  12   4    7.11    0.73
 -18 -12  -4    8.20    0.23
  18  12   4    5.43    0.63
   3 -13  -4    7.30    0.21
   1 -13  -4   29.78    1.40
   1 -13  -4   33.05    0.89
  -1 -13  -4   31.42    0.87
  -1 -13  -4   30.34    1.40
  -3 -13  -4    7.05    0.20
  -3 -13  -4    7.75    0.86
  -5 -13  -4    8.68    0.24
  -5 -13  -4    7.34    0.86
   5  13   4    6.75    0.55
  -7 -13  -4   16.39    0.46
   7  13   4   12.99    0.69
  -9 -13  -4   15.99    0.45
   9  13   4   13.36    0.73
 -11 -13  -4   13.78    0.39
  11  13   4   10.64    0.72
 -13 -13  -4    5.44    0.16
  13  13   4    5.64    0.67
 -15 -13  -4   10.43    0.29
  15  13   4    7.82    0.74
 -17 -13  -4    2.65    0.08
  17  13   4    1.68    0.53
   4 -14  -4    6.02    0.17
   2 -14  -4    2.81    0.08
   0 -14  -4    4.89    0.70
   0 -14  -4    5.00    0.14
  -2 -14  -4    3.60    0.77
  -2 -14  -4    2.88    0.08
  -4 -14  -4    5.82    0.17
  -4 -14  -4    6.09    0.85
   4  14   4    4.42    0.51
  -6 -14  -4    9.66    0.97
  -6 -14  -4   10.06    0.28
   6  14   4    8.11    0.60
  -8 -14  -4   24.91    0.70
   8  14   4   17.90    0.81
 -10 -14  -4   14.69    0.41
  10  14   4   12.44    0.75
 -12 -14  -4    3.29    0.10
  12  14   4    2.64    0.51
 -14 -14  -4   12.36    0.35
  14  14   4    8.52    0.76
 -16 -14  -4    5.30    0.15
  16  14   4    3.57    0.56
   3 -15  -4    3.14    0.09
   1 -15  -4   13.41    0.38
   1 -15  -4   13.91    1.17
  -1 -15  -4   12.95    1.05
  -1 -15  -4   13.27    0.37
  -3 -15  -4    3.01    0.09
  -3 -15  -4    3.10    0.69
  -5 -15  -4    5.04    0.75
  -5 -15  -4    4.43    0.13
   5  15   4    3.83    0.43
  -7 -15  -4   10.51    0.29
  -7 -15  -4    9.39    1.02
   7  15   4    8.63    0.64
  -9 -15  -4   11.96    0.34
   9  15   4    9.18    0.52
   9  15   4    9.26    0.68
 -11 -15  -4   15.90    0.45
  11  15   4   12.91    0.80
 -13 -15  -4   11.26    0.32
  13  15   4    7.26    0.64
 -15 -15  -4    0.37    0.03
  15  15   4    0.40    0.41
   4 -16  -4    2.36    0.07
   2 -16  -4    5.72    0.16
   0 -16  -4    7.88    0.23
   0 -16  -4    9.02    0.98
  -2 -16  -4    6.00    0.17
  -2 -16  -4    6.71    0.81
  -4 -16  -4    2.49    0.08
  -4 -16  -4    3.31    0.85
   4  16   4    2.14    0.40
  -6 -16  -4    7.36    0.98
  -6 -16  -4    7.22    0.21
   6  16   4    4.94    0.57
  -8 -16  -4   14.43    0.41
  -8 -16  -4   15.67    1.34
   8  16   4   11.40    0.71
 -10 -16  -4   18.03    0.51
  10  16   4   13.25    0.71
  10  16   4   11.97    0.70
 -12 -16  -4   11.42    0.32
  12  16   4    7.88    0.73
 -14 -16  -4    4.96    0.15
  14  16   4    3.20    0.49
   3 -17  -4    1.60    0.05
   1 -17  -4   10.99    0.31
  -1 -17  -4   10.73    1.26
  -1 -17  -4   10.47    0.30
  -3 -17  -4    2.30    0.73
  -3 -17  -4    2.10    0.07
   3  17   4    1.34    0.41
  -5 -17  -4    3.84    0.78
  -5 -17  -4    3.32    0.10
   5  17   4    3.28    0.44
  -7 -17  -4   14.88    0.41
  -7 -17  -4   12.99    1.37
   7  17   4   10.34    0.70
  -9 -17  -4   25.71    1.50
  -9 -17  -4   26.97    0.74
   9  17   4   18.57    0.89
 -11 -17  -4   12.42    1.34
 -11 -17  -4   13.33    0.37
  11  17   4    9.12    0.75
 -13 -17  -4    2.63    0.08
  13  17   4    1.96    0.53
   4 -18  -4    4.70    0.13
   2 -18  -4   13.35    0.37
   0 -18  -4   28.66    1.70
   0 -18  -4   26.92    0.77
  -2 -18  -4   14.84    1.23
  -2 -18  -4   13.55    0.39
  -4 -18  -4    5.57    0.16
  -4 -18  -4    5.49    1.02
   4  18   4    4.37    0.49
  -6 -18  -4    6.00    0.17
  -6 -18  -4    6.13    0.91
   6  18   4    3.81    0.49
  -8 -18  -4   11.68    0.33
  -8 -18  -4   11.62    1.19
   8  18   4    7.78    0.67
 -10 -18  -4    4.48    1.02
 -10 -18  -4    3.84    0.12
  10  18   4    2.61    0.50
 -12 -18  -4    8.32    1.11
 -12 -18  -4    8.57    0.24
  12  18   4    5.64    0.61
   3 -19  -4    7.39    0.21
   1 -19  -4   13.44    0.38
  -1 -19  -4   13.94    1.48
  -1 -19  -4   14.23    0.40
  -3 -19  -4    7.39    1.13
  -3 -19  -4    8.08    0.23
   3  19   4    6.02    0.67
  -5 -19  -4    5.35    1.05
  -5 -19  -4    4.73    0.14
   5  19   4    3.30    0.49
  -7 -19  -4    6.35    1.11
  -7 -19  -4    7.62    0.21
   7  19   4    5.10    0.63
  -9 -19  -4   12.72    0.35
  -9 -19  -4   10.81    1.25
   9  19   4    9.77    0.72
   4 -20  -4    7.11    0.20
   2 -20  -4   10.85    0.31
   0 -20  -4   25.18    0.70
  -2 -20  -4   11.52    1.28
  -2 -20  -4   10.96    0.31
  -4 -20  -4    7.69    0.22
  -4 -20  -4    7.39    1.02
   4  20   4    5.86    0.66
  -6 -20  -4    2.16    1.00
  -6 -20  -4    1.70    0.06
   6  20   4    0.62    0.43
  -8 -20  -4    1.18    0.05
  -8 -20  -4    0.70    1.00
   8  20   4    0.93    0.44
   3 -21  -4    1.42    0.05
   1 -21  -4    9.11    0.26
  -1 -21  -4    8.27    0.23
  -3 -21  -4    2.16    1.10
  -3 -21  -4    1.70    0.06
   3  21   4    1.37    0.49
  -5 -21  -4    2.24    0.90
  -5 -21  -4    1.28    0.05
   5  21   4    0.92    0.46
   4  21  -5    2.69    0.56
  -4 -21   5    2.94    0.09
   2  21  -5   10.08    0.77
  -2 -21   5   14.19    1.34
  -2 -21   5   14.60    0.41
   0 -21   5   11.25    0.32
   0 -21   5   13.83    1.45
   2 -21   5   13.47    0.38
   2 -21   5   14.83    1.41
   4 -21   5    4.13    0.94
   4 -21   5    2.74    0.08
   7  20  -5    1.37    0.41
  -7 -20   5    2.22    0.08
   5  20  -5    1.06    0.41
  -5 -20   5    1.37    0.06
   3  20  -5    4.07    0.59
  -3 -20   5    5.42    0.16
  -1 -20   5    5.84    0.95
  -1 -20   5    6.23    0.18
   1 -20   5    5.55    0.16
   1 -20   5    4.96    0.91
   3 -20   5    6.67    1.03
   3 -20   5    5.19    0.15
   5 -20   5    1.24    0.05
   5 -20   5    1.87    0.81
   7 -20   5    2.04    0.07
  10  19  -5   10.23    0.70
 -10 -19   5   17.96    0.50
   8  19  -5    8.98    0.65
  -8 -19   5   14.66    0.41
   6  19  -5    6.22    0.68
  -6 -19   5    8.18    0.23
   4  19  -5    3.79    0.55
  -4 -19   5    5.44    0.16
  -2 -19   5   15.31    0.43
   0 -19   5   23.67    0.66
   2 -19   5   16.22    1.38
   2 -19   5   15.03    0.43
   4 -19   5    5.14    0.15
   4 -19   5    5.59    0.91
   6 -19   5    7.53    0.21
   8 -19   5   13.51    0.38
  11  18  -5    4.98    0.53
 -11 -18   5    8.27    0.24
   9  18  -5    4.92    0.57
  -9 -18   5    9.03    0.26
   7  18  -5    5.15    0.66
  -7 -18   5    8.75    0.25
   5  18  -5    3.12    0.50
  -5 -18   5    3.83    0.11
   3  18  -5    1.92    0.43
  -3 -18   5    3.18    0.10
  -1 -18   5    7.43    0.21
   1 -18   5    6.96    0.19
   1 -18   5    5.28    0.96
   3 -18   5    3.00    0.09
   3 -18   5    2.33    0.81
   5 -18   5    3.90    0.80
   5 -18   5    3.42    0.10
   7 -18   5    7.57    0.21
  12  17  -5    8.36    0.80
 -12 -17   5   11.49    0.32
  10  17  -5   12.52    0.82
 -10 -17   5   17.88    0.50
   8  17  -5   19.41    0.87
  -8 -17   5   34.77    0.97
   6  17  -5   11.33    0.75
  -6 -17   5   16.61    0.47
   4  17  -5    1.76    0.46
  -4 -17   5    2.54    0.08
  -2 -17   5    8.92    0.25
   0 -17   5   19.31    0.54
   2 -17   5    8.25    0.23
   2 -17   5    7.07    0.91
   4 -17   5    2.80    0.72
   4 -17   5    2.21    0.07
   6 -17   5   13.78    1.11
   6 -17   5   14.36    0.40
   8 -17   5   31.29    0.88
  13  16  -5    2.61    0.50
  13  16  -5    3.39    0.48
 -13 -16   5    3.38    0.10
  11  16  -5    8.40    0.68
 -11 -16   5   12.37    0.35
   9  16  -5   18.27    0.91
  -9 -16   5   25.79    0.72
   7  16  -5    4.11    0.53
  -7 -16   5    7.69    0.22
   5  16  -5    1.94    0.37
  -5 -16   5    3.03    0.09
   3  16  -5    0.67    0.43
  -3 -16   5    1.40    0.05
  -1 -16   5    5.38    0.15
   1 -16   5    5.35    0.15
   3 -16   5    1.74    0.56
   3 -16   5    1.11    0.04
   5 -16   5    2.68    0.08
   5 -16   5    2.67    0.66
   7 -16   5    6.71    0.19
  14  15  -5    3.53    0.50
  14  15  -5    3.01    0.54
 -14 -15   5    4.34    0.13
  12  15  -5   11.04    0.75
  12  15  -5   11.80    0.79
 -12 -15   5   15.30    0.43
  10  15  -5   14.36    0.84
 -10 -15   5   19.68    0.55
   8  15  -5   11.83    0.74
  -8 -15   5   16.91    0.47
   6  15  -5    5.87    0.61
  -6 -15   5    9.75    0.28
   4  15  -5    1.06    0.41
  -4 -15   5    1.67    0.06
  -2 -15   5    9.21    0.26
   0 -15   5   14.73    0.41
   2 -15   5    8.90    0.25
   4 -15   5    1.20    0.04
   4 -15   5    1.62    0.61
   6 -15   5    8.74    0.24
   6 -15   5    8.09    0.91
   8 -15   5   13.92    0.39
  15  14  -5    4.38    0.59
  15  14  -5    3.52    0.65
 -15 -14   5    3.91    0.12
  13  14  -5    9.51    0.69
  13  14  -5    7.88    0.73
 -13 -14   5   10.53    0.30
  11  14  -5    9.19    0.72
  11  14  -5    9.38    0.78
 -11 -14   5   11.78    0.33
   9  14  -5    9.68    0.63
  -9 -14   5   13.90    0.39
   7  14  -5   10.89    0.71
  -7 -14   5   14.76    0.41
   5  14  -5    5.53    0.59
  -5 -14   5    8.95    0.25
   3  14  -5    2.66    0.44
  -3 -14   5    4.05    0.12
  -1 -14   5    4.79    0.14
   1 -14   5    4.66    0.13
   3 -14   5    3.51    0.10
   5 -14   5    8.69    0.85
   5 -14   5    8.00    0.23
   7 -14   5   12.31    0.35
  16  13  -5    2.81    0.54
  16  13  -5    2.55    0.64
 -16 -13   5    3.07    0.09
  14  13  -5    8.55    0.71
  14  13  -5    8.01    0.85
 -14 -13   5   10.34    0.29
  12  13  -5    5.46    0.65
  12  13  -5    6.31    0.61
 -12 -13   5    6.78    0.19
  10  13  -5   12.69    0.77
  10  13  -5   12.18    0.80
 -10 -13   5   15.94    0.45
   8  13  -5   20.60    0.92
  -8 -13   5   28.74    0.80
   6  13  -5    8.86    0.65
  -6 -13   5   12.02    0.34
   4  13  -5    5.53    0.58
  -4 -13   5    6.94    0.20
  -2 -13   5   28.48    0.80
   0 -13   5   38.60    1.08
   2 -13   5   26.55    0.74
   4 -13   5    6.66    0.81
   4 -13   5    5.61    0.16
   6 -13   5   11.21    0.31
   6 -13   5   10.93    0.87
   8 -13   5   27.91    0.78
  17  12  -5    9.27    0.92
 -17 -12   5   10.01    0.28
  15  12  -5   13.32    0.96
 -15 -12   5   13.87    0.39
  13  12  -5    5.60    0.64
  13  12  -5    6.08    0.79
 -13 -12   5    6.91    0.20
  11  12  -5    6.54    0.72
  11  12  -5    6.58    0.66
 -11 -12   5    8.21    0.23
   9  12  -5   13.39    0.77
   9  12  -5   12.49    0.78
  -9 -12   5   15.27    0.43
   7  12  -5   11.12    0.70
  -7 -12   5   14.46    0.41
   5  12  -5    7.62    0.53
  -5 -12   5   11.04    0.31
   3  12  -5    1.55    0.38
  -3 -12   5    2.11    0.07
  -1 -12   5   20.88    0.58
   1 -12   5   20.54    0.57
   3 -12   5    1.84    0.06
   5 -12   5   10.42    0.29
   5 -12   5    9.73    0.82
   7 -12   5   13.87    0.39
  18  11  -5    6.37    0.76
 -18 -11   5    6.22    0.18
  16  11  -5   11.22    0.92
 -16 -11   5   10.07    0.28
  14  11  -5   10.40    0.88
 -14 -11   5   10.39    0.29
  12  11  -5    7.03    0.65
 -12 -11   5    7.88    0.22
  10  11  -5   18.76    0.92
  10  11  -5   18.38    0.90
 -10 -11   5   20.29    0.57
   8  11  -5    9.82    0.67
   8  11  -5    9.61    0.68
  -8 -11   5   11.46    0.32
   6  11  -5   12.77    0.71
  -6 -11   5   15.90    0.45
   4  11  -5   13.69    0.70
  -4 -11   5   17.61    0.49
  -2 -11   5   26.85    0.75
   0 -11   5   38.74    1.08
   2 -11   5   25.03    0.70
   4 -11   5   15.19    0.90
   4 -11   5   15.54    0.43
   6 -11   5   15.47    0.88
   6 -11   5   15.46    0.43
   8 -11   5   12.15    0.34
 -18  11  -5    7.42    1.47
  19  10  -5   13.16    0.91
 -19 -10   5   14.08    0.40
  17  10  -5   12.82    0.85
 -17 -10   5   14.38    0.40
  15  10  -5   15.47    0.96
 -15 -10   5   16.19    0.45
  13  10  -5   12.95    0.78
 -13 -10   5   13.39    0.38
  11  10  -5   18.53    0.94
 -11 -10   5   18.66    0.52
   9  10  -5    5.15    0.64
   9  10  -5    5.05    0.56
  -9 -10   5    5.27    0.15
   7  10  -5   16.28    0.79
   7  10  -5   15.24    0.71
  -7 -10   5   17.63    0.49
   5  10  -5    5.12    0.47
  -5 -10   5    5.85    0.17
   3  10  -5   19.19    0.76
  -3 -10   5   27.15    0.76
  -1 -10   5   11.17    0.31
   1 -10   5   10.09    0.28
   3 -10   5   25.16    0.70
   5 -10   5    5.60    0.16
   5 -10   5    6.49    0.65
   7 -10   5   19.21    0.54
 -17  10  -5   17.44    2.08
 -19  10  -5   14.66    1.86
  18   9  -5    6.15    0.71
 -18  -9   5    6.20    0.18
  16   9  -5   20.45    1.09
 -16  -9   5   20.42    0.57
  14   9  -5   10.55    0.73
 -14  -9   5   11.45    0.32
  12   9  -5   13.78    0.77
 -12  -9   5   13.71    0.38
  10   9  -5    4.92    0.55
 -10  -9   5    5.08    0.15
   8   9  -5   10.35    0.70
   8   9  -5    9.57    0.68
  -8  -9   5   10.03    0.28
   6   9  -5   12.85    0.69
   6   9  -5   12.68    0.70
  -6  -9   5   14.05    0.39
   4   9  -5    5.22    0.51
  -4  -9   5    6.05    0.17
  -2  -9   5   91.77    2.57
   0  -9   5   29.79    0.83
   2  -9   5   86.06    2.41
   4  -9   5    5.98    0.17
   6  -9   5   14.73    0.83
   6  -9   5   15.03    0.42
 -16   9  -5   24.57    2.10
 -18   9  -5    6.06    1.49
  19   8  -5    9.60    0.92
 -19  -8   5   10.70    0.30
  17   8  -5   25.89    1.13
 -17  -8   5   25.91    0.73
  15   8  -5   11.69    0.76
 -15  -8   5   12.15    0.34
  13   8  -5   24.13    1.07
 -13  -8   5   23.13    0.65
  11   8  -5    9.92    0.65
 -11  -8   5   10.23    0.29
   9   8  -5   10.04    0.69
  -9  -8   5    9.77    0.27
  -9  -8   5    9.40    0.62
   7   8  -5    2.82    0.39
   7   8  -5    4.33    0.54
  -7  -8   5    3.77    0.11
   5   8  -5    7.61    0.55
   5   8  -5    6.92    0.51
  -5  -8   5    7.02    0.20
   3   8  -5   15.35    0.63
  -3  -8   5   17.43    0.49
  -1  -8   5   22.85    0.64
   1  -8   5   21.34    0.60
   3  -8   5   16.20    0.45
   5  -8   5    7.47    0.21
   5  -8   5    7.41    0.62
   7  -8   5    3.98    0.11
 -15   8  -5   12.60    1.64
 -17   8  -5   31.11    2.22
 -19   8  -5   12.72    1.64
  20   7  -5    0.80    0.49
 -20  -7   5    1.57    0.05
  18   7  -5    6.17    0.69
 -18  -7   5    6.11    0.17
  16   7  -5    5.97    0.66
 -16  -7   5    5.66    0.16
  14   7  -5   11.87    0.82
 -14  -7   5   11.16    0.31
  12   7  -5   12.14    0.70
 -12  -7   5   12.27    0.34
  10   7  -5   16.21    0.83
 -10  -7   5   15.53    0.42
 -10  -7   5   14.22    0.68
   8   7  -5    4.53    0.56
  -8  -7   5    3.98    0.49
  -8  -7   5    3.75    0.11
   6   7  -5   11.49    0.63
   6   7  -5   12.30    0.63
  -6  -7   5   11.86    0.56
  -6  -7   5   11.64    0.33
   4   7  -5   13.62    0.59
   4   7  -5   15.00    0.69
  -4  -7   5   14.45    0.40
  -2  -7   5    9.09    0.25
   4  -7   5   15.59    0.44
   6  -7   5   13.70    0.69
   6  -7   5   13.39    0.38
 -10   7  -5   16.15    0.88
 -14   7  -5   12.97    1.52
 -16   7  -5    6.78    1.10
 -18   7  -5    7.44    1.21
 -20   7  -5    2.23    1.27
  19   6  -5    5.74    0.70
 -19  -6   5    6.35    0.18
  17   6  -5   12.24    0.89
 -17  -6   5   11.52    0.32
  15   6  -5    7.38    0.66
 -15  -6   5    7.26    0.21
  13   6  -5   10.73    0.76
 -13  -6   5    9.36    0.26
  11   6  -5   13.35    0.78
 -11  -6   5   11.18    0.67
 -11  -6   5   12.62    0.34
   9   6  -5   13.17    0.65
  -9  -6   5   12.99    0.35
  -9  -6   5   11.79    0.65
   7   6  -5   12.61    0.65
  -7  -6   5   12.03    0.59
  -7  -6   5   11.59    0.33
   5   6  -5   24.32    0.84
   5   6  -5   24.35    0.90
  -5  -6   5   24.22    0.84
  -5  -6   5   22.82    0.66
   3   6  -5   18.04    0.65
   5  -6   5   28.94    0.78
   5  -6   5   26.83    0.97
  -9   6  -5   12.49    0.68
 -13   6  -5   11.09    1.20
 -15   6  -5    8.28    1.38
 -17   6  -5   12.90    1.62
 -19   6  -5    7.33    1.34
  20   5  -5    0.45    0.46
 -20  -5   5    0.96    0.04
  18   5  -5    3.53    0.61
 -18  -5   5    2.81    0.08
  16   5  -5    2.00    0.45
 -16  -5   5    2.38    0.07
  14   5  -5    7.47    0.71
 -14  -5   5    6.44    0.18
  12   5  -5    8.71    0.61
 -12  -5   5    7.53    0.59
 -12  -5   5    8.27    0.23
  10   5  -5    5.26    0.51
 -10  -5   5    5.21    0.51
 -10  -5   5    5.00    0.14
   8   5  -5    7.61    0.57
  -8  -5   5    6.41    0.50
  -8  -5   5    6.55    0.18
   6   5  -5   24.38    0.88
  -6  -5   5   22.11    0.63
  -6  -5   5   23.04    0.81
   4   5  -5    1.25    0.26
   4   5  -5    1.09    0.26
  -4  -5   5    1.14    0.20
   2   5  -5    0.93    0.18
  -8   5  -5    7.08    0.53
 -10   5  -5    5.73    0.53
 -12   5  -5    9.87    1.11
 -14   5  -5    8.13    1.29
 -16   5  -5    2.75    0.98
 -18   5  -5    3.37    1.12
 -20   5  -5    0.87    0.04
  21   4  -5    1.96    0.60
 -21  -4   5    2.24    0.07
  19   4  -5    3.64    0.62
 -19  -4   5    3.70    0.11
  17   4  -5    2.07    0.46
 -17  -4   5    1.71    0.06
  15   4  -5    1.38    0.50
 -15  -4   5    1.14    0.04
  13   4  -5    5.77    0.67
 -13  -4   5    5.33    0.15
  11   4  -5   15.01    0.72
 -11  -4   5   13.92    0.69
 -11  -4   5   13.64    0.38
   9   4  -5    6.27    0.57
  -9  -4   5    4.74    0.48
  -9  -4   5    5.19    0.14
   7   4  -5   13.41    0.59
  -7  -4   5   12.84    0.36
  -7  -4   5   12.64    0.58
   5   4  -5    0.90    0.25
  -5  -4   5    0.73    0.22
   3   4  -5    6.43    0.40
   3   4  -5    7.01    0.37
  -3  -4   5    7.29    0.37
   5  -4   5    1.07    0.18
  -7   4  -5   14.22    0.63
  -9   4  -5    5.48    0.49
 -11   4  -5   13.49    1.31
 -11   4  -5   14.22    0.64
 -13   4  -5    3.73    0.28
 -13   4  -5    5.76    0.99
 -15   4  -5    1.82    0.91
 -17   4  -5    2.37    0.99
 -19   4  -5    3.15    0.09
 -21   4  -5    1.75    0.06
  20   3  -5    4.45    0.56
 -20  -3   5    4.10    0.12
  18   3  -5    2.36    0.58
 -18  -3   5    2.23    0.07
  16   3  -5    1.08    0.51
 -16  -3   5    0.85    0.03
  14   3  -5    2.71    0.43
 -14  -3   5    3.00    0.09
  12   3  -5    1.84    0.45
 -12  -3   5    1.42    0.35
 -12  -3   5    1.60    0.05
  10   3  -5   22.30    0.93
 -10  -3   5   19.74    0.55
 -10  -3   5   19.64    0.81
   8   3  -5   14.39    0.79
   8   3  -5   16.79    0.71
  -8  -3   5   15.37    0.65
  -8  -3   5   14.61    0.42
   6   3  -5   18.28    0.67
  -6  -3   5   16.88    0.63
   4   3  -5    7.33    0.38
   4   3  -5    6.41    0.43
  -4  -3   5    6.62    0.34
   2   3  -5   13.46    0.48
  -2  -3   5   12.08    0.48
  -6   3  -5   18.93    0.69
  -8   3  -5   16.14    0.68
  -8   3  -5   16.28    1.17
 -10   3  -5   20.56    0.84
 -10   3  -5   21.69    0.68
 -10   3  -5   22.63    1.31
 -12   3  -5    1.34    0.80
 -14   3  -5    3.16    0.89
 -16   3  -5    0.74    0.03
 -18   3  -5    2.28    0.07
 -20   3  -5    2.99    0.09
  21   2  -5   10.71    0.82
 -21  -2   5   10.20    0.29
  19   2  -5   11.79    0.81
 -19  -2   5   12.32    0.35
  17   2  -5    7.28    0.78
 -17  -2   5    6.88    0.19
  15   2  -5    8.27    0.75
 -15  -2   5    7.21    0.20
  13   2  -5   25.77    1.08
 -13  -2   5   21.12    0.86
 -13  -2   5   22.05    0.61
  11   2  -5   25.47    1.03
 -11  -2   5   21.69    0.60
 -11  -2   5   21.33    0.82
   9   2  -5   87.70    2.63
  -9  -2   5   73.39    2.09
  -9  -2   5   76.03    2.24
   7   2  -5    8.18    0.51
  -7  -2   5    7.77    0.41
   5   2  -5    0.93    0.19
   5   2  -5    1.37    0.23
  -5  -2   5    1.15    0.19
   3   2  -5   12.94    0.46
   3   2  -5   12.73    0.50
  -3  -2   5   12.03    0.43
   1   2  -5   72.71    2.08
  -5   2  -5    1.04    0.19
  -5   2  -5    1.02    0.36
  -7   2  -5    8.10    0.45
  -7   2  -5    8.80    0.90
  -9   2  -5   80.37    2.35
  -9   2  -5   77.05    2.78
 -11   2  -5   21.24    0.81
 -11   2  -5   21.99    1.46
 -13   2  -5   23.30    1.55
 -15   2  -5    7.02    0.20
 -17   2  -5    6.95    0.20
 -19   2  -5   10.51    0.30
 -21   2  -5    9.55    0.27
  20   1  -5    3.84    0.56
 -20  -1   5    4.31    0.13
  18   1  -5    5.36    0.66
 -18  -1   5    6.00    0.17
  16   1  -5    5.90    0.74
 -16  -1   5    4.30    0.12
  14   1  -5    3.63    0.53
 -14  -1   5    3.64    0.11
  12   1  -5   19.52    0.92
 -12  -1   5   16.76    0.77
 -12  -1   5   17.00    0.47
  10   1  -5   11.73    0.72
 -10  -1   5    8.68    0.50
 -10  -1   5    8.87    0.25
   8   1  -5   20.70    0.82
  -8  -1   5   17.32    0.49
  -8  -1   5   18.14    0.70
   6   1  -5   43.15    1.34
  -6  -1   5   39.01    1.19
   4   1  -5    1.83    0.20
  -4  -1   5    1.73    0.22
   2   1  -5   73.89    2.11
   2   1  -5   69.77    2.05
  -2  -1   5   66.44    1.94
  -2  -1   5   69.92    2.01
   0   1  -5   93.45    2.75
  -2   1  -5   73.00    2.28
  -4   1  -5    1.29    0.39
  -4   1  -5    1.68    0.20
  -6   1  -5   42.72    1.65
  -6   1  -5   41.18    1.27
  -8   1  -5   21.52    1.26
  -8   1  -5   19.09    0.74
   8  -1   5   21.72    0.82
 -10   1  -5    8.88    0.48
 -10   1  -5    8.90    0.98
  10  -1   5   10.90    0.64
 -12   1  -5   17.12    0.46
 -12   1  -5   15.36    0.68
  12  -1   5   17.44    0.82
 -14   1  -5    3.59    0.10
  14  -1   5    4.55    0.50
 -16   1  -5    4.42    0.13
  16  -1   5    4.48    0.55
 -18   1  -5    5.98    0.17
  21   0  -5    7.91    0.79
 -21   0   5    8.35    0.24
  19   0  -5   20.58    1.11
 -19   0   5   18.43    0.52
  17   0  -5   14.63    0.83
 -17   0   5   13.69    0.38
  15   0  -5   13.11    0.84
 -15   0   5   11.62    0.33
  13   0  -5   36.68    1.35
 -13   0   5   29.90    0.84
 -13   0   5   30.57    1.12
  11   0  -5   38.21    1.30
 -11   0   5   32.59    1.15
 -11   0   5   32.60    0.91
   9   0  -5   30.97    1.07
  -9   0   5   26.45    0.73
  -9   0   5   23.70    1.09
  -9   0   5   27.60    0.94
   7   0  -5   50.68    1.57
  -7   0   5   42.51    1.46
  -7   0   5   45.32    1.36
   5   0  -5    2.75    0.30
  -5   0   5    2.27    0.26
   3   0  -5   69.08    1.95
   3   0  -5   66.55    2.01
  -3   0   5   65.63    1.88
   1   0  -5    0.01    0.01
  -1   0   5   89.27    2.54
  -1   0   5   86.10    2.49
  -3   0  -5   66.77    1.91
   3   0   5   57.35    1.89
  -5   0  -5    2.66    0.26
   5   0   5    2.67    0.27
  -7   0  -5   41.88    1.21
  -7   0  -5   45.03    1.33
   7   0   5   49.77    1.51
  -9   0  -5   27.24    0.77
  -9   0  -5   27.59    0.94
   9   0   5   31.93    1.09
 -11   0  -5   31.82    1.10
 -11   0  -5   32.47    0.90
  11   0   5   36.85    1.26
 -13   0  -5   30.92    0.86
  13   0   5   33.20    1.21
 -15   0  -5   11.59    0.33
  15   0   5   12.93    0.78
 -17   0  -5   14.16    0.40
  17   0   5   14.69    0.78
 -19   0  -5   16.56    0.46
  19   0   5   17.18    0.88
 -21   0  -5    8.17    0.23
  20  -1  -5    4.91    0.69
 -20   1   5    4.25    0.12
  18  -1  -5    6.75    0.82
 -18   1   5    5.59    0.16
  16  -1  -5    3.91    0.48
 -16   1   5    4.38    0.13
  14  -1  -5    4.07    0.46
 -14   1   5    3.92    0.11
  12  -1  -5   18.52    0.90
 -12   1   5   16.37    0.79
 -12   1   5   17.46    0.49
 -12   1   5   18.20    1.12
  10  -1  -5   10.39    0.60
 -10   1   5    8.65    0.75
 -10   1   5    9.42    0.59
 -10   1   5    9.32    0.26
   8  -1  -5   20.30    0.76
  -8   1   5   20.06    0.77
   6  -1  -5   43.71    1.35
  -6   1   5   40.69    1.26
   4  -1  -5    1.62    0.18
  -4   1   5    1.78    0.23
   2  -1  -5   72.31    2.12
   2  -1  -5   76.75    2.17
  -2   1   5   76.19    2.17
   0   1   5   94.46    2.66
  -2  -1  -5   75.08    2.12
   2   1   5   78.12    2.20
  -4  -1  -5    1.59    0.19
   4   1   5    1.49    0.16
  -6  -1  -5   40.25    1.22
   6   1   5   42.87    1.30
  -8  -1  -5   17.89    0.67
  -8  -1  -5   18.04    0.50
   8   1   5   19.87    0.75
 -10  -1  -5    9.07    0.25
 -10  -1  -5    8.81    0.47
  10   1   5   10.08    0.60
 -12  -1  -5   16.04    0.72
 -12  -1  -5   16.77    0.46
  12   1   5   18.48    0.83
 -14  -1  -5    3.64    0.10
  14   1   5    3.67    0.47
 -16  -1  -5    4.24    0.12
  16   1   5    5.38    0.65
 -18  -1  -5    5.41    0.15
  18   1   5    5.33    0.61
 -20  -1  -5    4.13    0.12
  20   1   5    3.65    0.60
 -21   2   5   10.92    0.31
  19  -2  -5   11.40    0.94
 -19   2   5   11.90    0.33
  17  -2  -5    7.19    0.79
 -17   2   5    6.97    0.20
  15  -2  -5    8.52    0.75
 -15   2   5    7.46    0.21
 -15   2   5    7.25    0.99
  13  -2  -5   25.54    1.07
 -13   2   5   23.52    0.64
 -13   2   5   22.37    0.96
 -13   2   5   22.65    1.25
  11  -2  -5   24.14    0.94
 -11   2   5   22.14    1.22
 -11   2   5   22.77    0.92
   9  -2  -5   83.12    2.48
  -9   2   5   86.31    2.58
   7  -2  -5    8.38    0.44
  -7   2   5    8.80    0.49
   5  -2  -5    1.12    0.20
  -5   2   5    0.88    0.21
   3  -2  -5   13.93    0.48
  -3   2   5   14.81    0.50
  -1   2   5   83.30    2.21
  -1   2   5   72.31    2.25
   1   2   5   70.61    1.99
  -3  -2  -5   13.21    0.42
   3   2   5   12.28    0.47
   3   2   5   12.50    0.40
  -5  -2  -5    1.19    0.18
  -5  -2  -5    1.08    0.18
   5   2   5    1.11    0.16
  -7  -2  -5    7.80    0.40
  -7  -2  -5    7.35    0.21
   7   2   5    8.16    0.48
  -9  -2  -5   77.64    2.27
  -9  -2  -5   75.45    2.14
   9   2   5   83.16    2.46
 -11  -2  -5   21.51    0.60
 -11  -2  -5   21.65    0.83
  11   2   5   24.76    0.95
 -13  -2  -5   20.99    0.59
  13   2   5   21.87    0.87
 -15  -2  -5    7.19    0.20
  15   2   5    7.92    0.67
 -17  -2  -5    6.71    0.19
  17   2   5    8.30    0.71
 -19  -2  -5   10.25    0.29
  19   2   5   10.91    0.82
 -21  -2  -5    9.63    0.27
  21   2   5    8.45    0.71
 -20   3   5    4.40    0.13
 -18   3   5    2.47    0.08
  16  -3  -5    1.03    0.51
 -16   3   5    0.92    0.03
 -16   3   5    0.65    0.63
  14  -3  -5    2.82    0.42
 -14   3   5    3.28    0.74
  12  -3  -5    1.77    0.45
 -12   3   5    1.68    0.40
  10  -3  -5   23.00    0.88
 -10   3   5   23.33    0.92
   8  -3  -5   17.46    0.74
  -8   3   5   17.51    0.74
  -6   3   5   20.43    0.75
  -4   3   5    8.07    0.41
   2  -3  -5   13.11    0.47
   2   3   5   12.00    0.39
   2   3   5   12.72    0.50
  -4  -3  -5    6.76    0.37
  -4  -3  -5    6.66    0.30
   4   3   5    6.22    0.29
  -6  -3  -5   17.31    0.60
   6   3   5   17.41    0.61
  -8  -3  -5   15.82    0.61
  -8  -3  -5   14.55    0.42
   8   3   5   16.31    0.65
 -10  -3  -5   21.41    0.58
 -10  -3  -5   19.94    0.79
  10   3   5   22.02    0.85
 -12  -3  -5    1.56    0.05
  12   3   5    1.55    0.39
 -14  -3  -5    2.93    0.09
  14   3   5    2.40    0.43
 -16  -3  -5    0.86    0.03
  16   3   5    0.83    0.35
 -18  -3  -5    1.28    0.05
  18   3   5    1.69    0.42
 -20  -3  -5    2.17    0.07
  20   3   5    3.66    0.49
 -21   4   5    2.00    0.07
 -19   4   5    4.13    0.88
 -19   4   5    4.01    0.12
 -17   4   5    1.91    0.06
 -17   4   5    2.09    0.73
 -15   4   5    1.47    0.67
 -13   4   5    5.19    0.60
 -11   4   5   14.50    0.75
  -9   4   5    5.97    0.55
  -7   4   5   15.77    0.68
  -5   4   5    1.12    0.24
  -3  -4  -5    6.97    0.43
   3   4   5    6.28    0.27
  -5  -4  -5    1.11    0.20
   5   4   5    0.95    0.17
  -7  -4  -5   13.63    0.55
  -7  -4  -5   13.33    0.38
   7   4   5   13.69    0.58
  -9  -4  -5    5.49    0.42
  -9  -4  -5    5.39    0.15
   9   4   5    5.16    0.45
 -11  -4  -5   14.10    0.39
 -11  -4  -5   13.50    0.64
  11   4   5   14.31    0.69
 -13  -4  -5    5.42    0.15
  13   4   5    5.04    0.48
 -15  -4  -5    1.14    0.04
  15   4   5    1.21    0.42
 -17  -4  -5    1.81    0.06
  17   4   5    1.81    0.47
 -19  -4  -5    3.46    0.10
  19   4   5    3.86    0.57
 -21  -4  -5    1.43    0.05
  21   4   5    1.82    0.45
 -20   5   5    1.19    0.05
 -20   5   5    1.09    0.83
 -18   5   5    3.09    0.87
 -16   5   5    2.94    0.78
 -12   5   5    8.89    0.67
 -10   5   5    5.82    0.59
  -8   5   5    7.71    0.57
  -6   5   5   26.50    0.93
   2  -5  -5    1.06    0.16
   0   5   5    2.55    0.18
  -2  -5  -5    1.17    0.30
  -4  -5  -5    0.91    0.29
   4   5   5    0.84    0.16
  -6  -5  -5   23.14    0.66
  -6  -5  -5   23.80    0.79
   6   5   5   22.09    0.74
  -8  -5  -5    6.70    0.49
  -8  -5  -5    6.84    0.19
   8   5   5    7.08    0.44
 -10  -5  -5    5.27    0.45
 -10  -5  -5    5.06    0.14
  10   5   5    5.55    0.48
 -12  -5  -5    9.00    0.25
  12   5   5    8.88    0.59
 -14  -5  -5    6.61    0.19
  14   5   5    6.46    0.60
 -16  -5  -5    2.32    0.07
  16   5   5    1.91    0.45
 -18  -5  -5    3.06    0.09
  18   5   5    3.03    0.52
 -20  -5  -5    1.21    0.04
  20   5   5    0.95    0.43
 -19   6   5    6.18    1.06
 -17   6   5   12.42    1.33
 -13   6   5    9.02    0.80
 -11   6   5   13.45    0.76
  -9   6   5   13.88    0.66
  -7   6   5   13.46    0.66
  -1  -6  -5   45.25    1.53
  -3  -6  -5   17.55    0.80
   3   6   5   18.93    0.65
  -5  -6  -5   24.17    0.68
   5   6   5   22.42    0.76
  -7  -6  -5   12.06    0.34
  -7  -6  -5   12.67    0.58
   7   6   5   11.48    0.51
  -9  -6  -5   12.82    0.61
  -9  -6  -5   13.30    0.37
   9   6   5   11.96    0.57
 -11  -6  -5   13.04    0.37
  11   6   5   11.90    0.62
 -13  -6  -5    9.64    0.27
  13   6   5    9.01    0.62
 -15  -6  -5    7.45    0.21
  15   6   5    7.16    0.63
 -17  -6  -5   12.33    0.35
  17   6   5   10.79    0.75
 -19  -6  -5    6.39    0.18
  19   6   5    5.87    0.72
 -20   7   5    1.79    0.96
 -18   7   5    7.83    1.32
 -12   7   5   11.57    0.75
 -10   7   5   16.39    0.80
  -8   7   5    4.88    0.55
   2  -7  -5    9.50    0.26
   2  -7  -5    8.91    0.36
  -2  -7  -5    8.71    0.60
  -4  -7  -5   14.50    0.41
  -4  -7  -5   15.15    0.81
   4   7   5   14.00    0.55
  -6  -7  -5   12.79    0.36
   6   7   5   11.60    0.52
  -8  -7  -5    4.35    0.43
  -8  -7  -5    4.28    0.12
   8   7   5    3.54    0.41
 -10  -7  -5   16.58    0.45
 -10  -7  -5   15.07    0.70
  10   7   5   13.65    0.64
 -12  -7  -5   12.81    0.36
  12   7   5   10.98    0.63
 -14  -7  -5   11.65    0.33
  14   7   5   10.11    0.66
 -16  -7  -5    5.76    0.16
  16   7   5    4.89    0.53
 -18  -7  -5    6.50    0.19
  18   7   5    5.58    0.68
 -20  -7  -5    1.73    0.06
  20   7   5    1.17    0.52
 -19   8   5   12.26    1.55
 -11   8   5   10.49    0.70
  -9   8   5   10.39    0.68
   1  -8  -5   22.57    0.63
  -1  -8  -5   22.50    0.98
  -1  -8  -5   22.43    0.63
  -3  -8  -5   16.80    0.84
  -3  -8  -5   16.54    0.47
   3   8   5   16.06    0.62
  -5  -8  -5    7.26    0.20
  -5  -8  -5    6.85    0.73
   5   8   5    7.63    0.46
  -7  -8  -5    4.04    0.11
   7   8   5    3.73    0.41
  -9  -8  -5   10.37    0.29
  -9  -8  -5   10.25    0.58
   9   8   5    9.65    0.55
 -11  -8  -5   10.23    0.29
  11   8   5    8.91    0.58
 -13  -8  -5   24.51    0.69
  13   8   5   20.53    0.87
 -15  -8  -5   13.41    0.38
  15   8   5   10.80    0.70
 -17  -8  -5   26.28    0.74
  17   8   5   21.35    0.98
 -19  -8  -5   10.84    0.30
  19   8   5    9.82    0.79
 -10   9   5    5.27    0.61
   2  -9  -5   87.75    2.45
   0  -9  -5   29.59    0.83
   0  -9  -5   29.87    1.28
  -2  -9  -5   82.43    2.65
  -2  -9  -5   84.03    2.33
  -4  -9  -5    6.55    0.77
  -4  -9  -5    5.98    0.17
   4   9   5    5.17    0.43
  -6  -9  -5   14.74    0.41
   6   9   5   11.69    0.57
  -8  -9  -5   10.85    0.30
   8   9   5    9.49    0.55
 -10  -9  -5    5.52    0.16
  10   9   5    4.36    0.50
 -12  -9  -5   15.01    0.42
  12   9   5   12.40    0.67
 -14  -9  -5   12.13    0.34
  14   9   5    9.64    0.67
 -16  -9  -5   21.10    0.59
  16   9   5   17.17    0.81
 -18  -9  -5    6.68    0.19
  18   9   5    4.96    0.58
 -11  10   5   17.79    0.87
  -9  10   5    4.82    0.52
   3 -10  -5   26.61    0.74
   1 -10  -5   10.38    0.29
  -1 -10  -5   10.24    0.29
  -1 -10  -5   11.02    0.81
  -3 -10  -5   25.45    0.73
  -3 -10  -5   27.00    1.24
  -5 -10  -5    6.79    0.84
  -5 -10  -5    5.47    0.16
   5  10   5    5.49    0.47
  -7 -10  -5   18.55    0.52
   7  10   5   15.00    0.67
  -9 -10  -5    5.61    0.16
   9  10   5    4.46    0.50
 -11 -10  -5   20.84    0.58
  11  10   5   16.88    0.78
 -13 -10  -5   14.42    0.40
  13  10   5   12.00    0.70
 -15 -10  -5   17.07    0.48
  15  10   5   13.81    0.79
 -17 -10  -5   14.97    0.42
  17  10   5   12.48    0.81
 -19 -10  -5   14.28    0.40
  19  10   5   11.40    0.84
 -10  11   5   18.09    0.89
   2 -11  -5   25.30    0.71
   0 -11  -5   38.12    1.06
   0 -11  -5   37.38    1.51
  -2 -11  -5   24.19    0.68
  -2 -11  -5   24.48    1.26
  -4 -11  -5   15.20    0.43
  -4 -11  -5   15.29    1.06
   4  11   5   14.48    0.70
  -6 -11  -5   17.34    1.09
  -6 -11  -5   15.86    0.45
   6  11   5   12.92    0.65
  -8 -11  -5   11.99    0.34
   8  11   5    9.73    0.59
 -10 -11  -5   21.90    0.61
  10  11   5   17.74    0.79
 -12 -11  -5    8.20    0.23
  12  11   5    6.29    0.60
 -14 -11  -5   11.24    0.32
  14  11   5    9.02    0.69
 -16 -11  -5   10.88    0.31
  16  11   5    8.08    0.71
 -18 -11  -5    6.47    0.18
  18  11   5    4.78    0.60
   3 -12  -5    1.97    0.06
   1 -12  -5   19.99    0.56
  -1 -12  -5   20.81    1.11
  -1 -12  -5   19.93    0.56
  -3 -12  -5    1.47    0.67
  -3 -12  -5    1.97    0.06
  -5 -12  -5   10.56    1.04
  -5 -12  -5   10.32    0.29
   5  12   5    8.87    0.56
  -7 -12  -5   15.13    0.42
  -7 -12  -5   14.93    1.00
   7  12   5   11.88    0.64
  -9 -12  -5   16.24    0.46
   9  12   5   13.28    0.71
 -11 -12  -5    8.55    0.24
  11  12   5    6.47    0.61
 -13 -12  -5    7.25    0.21
  13  12   5    5.89    0.64
 -15 -12  -5   15.06    0.42
  15  12   5   10.78    0.76
 -17 -12  -5   10.52    0.30
  17  12   5    7.52    0.74
   4 -13  -5    6.48    0.18
   2 -13  -5   27.22    0.76
   0 -13  -5   37.09    1.59
   0 -13  -5   38.73    1.07
  -2 -13  -5   26.81    0.75
  -2 -13  -5   26.87    1.30
  -4 -13  -5    6.87    0.85
  -4 -13  -5    6.25    0.18
   4  13   5    5.27    0.50
  -6 -13  -5   12.46    1.12
  -6 -13  -5   11.47    0.33
   6  13   5    9.06    0.59
  -8 -13  -5   30.07    0.84
   8  13   5   22.34    0.90
 -10 -13  -5   15.77    0.44
  10  13   5   12.28    0.72
 -12 -13  -5    7.79    0.22
  12  13   5    5.58    0.64
 -14 -13  -5   11.04    0.31
  14  13   5    8.58    0.73
 -16 -13  -5    3.47    0.10
  16  13   5    1.89    0.52
   3 -14  -5    3.56    0.10
   1 -14  -5    4.92    0.14
  -1 -14  -5    4.49    0.70
  -1 -14  -5    4.51    0.13
  -3 -14  -5    3.06    0.76
  -3 -14  -5    3.51    0.10
  -5 -14  -5    8.34    0.23
  -5 -14  -5    7.35    0.91
   5  14   5    6.24    0.54
  -7 -14  -5   13.07    1.20
  -7 -14  -5   13.70    0.38
   7  14   5   10.35    0.47
   7  14   5   11.14    0.66
  -9 -14  -5   14.65    1.08
  -9 -14  -5   14.68    0.41
   9  14   5   10.24    0.68
 -11 -14  -5   12.44    0.35
  11  14   5    9.89    0.72
 -13 -14  -5   11.63    0.33
  13  14   5    9.16    0.75
 -15 -14  -5    4.59    0.13
  15  14   5    3.43    0.54
   4 -15  -5    1.76    0.06
   2 -15  -5    8.49    0.24
   0 -15  -5   15.92    1.20
   0 -15  -5   13.48    0.39
  -2 -15  -5    9.26    1.11
  -2 -15  -5    8.52    0.24
  -4 -15  -5    1.65    0.05
  -4 -15  -5    0.74    0.76
   4  15   5    1.32    0.36
  -6 -15  -5    9.41    1.00
  -6 -15  -5    8.78    0.25
   6  15   5    6.71    0.58
  -8 -15  -5   15.41    0.43
  -8 -15  -5   15.58    1.30
   8  15   5   11.95    0.69
   8  15   5   10.93    0.51
 -10 -15  -5   18.35    1.39
 -10 -15  -5   20.32    0.56
  10  15   5   14.89    0.81
 -12 -15  -5   16.84    0.47
  12  15   5   11.84    0.80
 -14 -15  -5    4.58    0.13
  14  15   5    3.41    0.56
   3 -16  -5    1.18    0.04
   1 -16  -5    5.12    0.15
  -1 -16  -5    4.00    0.76
  -1 -16  -5    5.89    0.16
  -3 -16  -5    1.19    0.78
  -3 -16  -5    1.08    0.04
  -5 -16  -5    2.92    0.09
  -5 -16  -5    2.16    0.70
   5  16   5    2.41    0.41
  -7 -16  -5    7.85    1.01
  -7 -16  -5    7.26    0.21
   7  16   5    4.45    0.58
  -9 -16  -5   27.10    1.62
  -9 -16  -5   26.37    0.74
   9  16   5   17.84    0.81
 -11 -16  -5   12.55    1.32
 -11 -16  -5   12.48    0.35
  11  16   5    8.74    0.73
 -13 -16  -5    4.16    0.91
 -13 -16  -5    3.52    0.11
  13  16   5    2.06    0.53
   4 -17  -5    2.05    0.07
   2 -17  -5    7.74    0.22
   0 -17  -5   18.08    0.51
  -2 -17  -5    7.94    0.23
  -2 -17  -5    8.99    1.07
  -4 -17  -5    2.75    0.89
  -4 -17  -5    2.50    0.08
   4  17   5    1.87    0.40
  -6 -17  -5   14.37    1.19
  -6 -17  -5   15.83    0.44
   6  17   5   11.88    0.71
  -8 -17  -5   33.23    0.91
  -8 -17  -5   30.83    1.64
   8  17   5   22.76    0.98
 -10 -17  -5   16.68    1.30
 -10 -17  -5   18.37    0.50
  10  17   5   12.83    0.79
 -12 -17  -5   10.93    1.15
 -12 -17  -5   11.33    0.32
  12  17   5    8.95    0.76
   3 -18  -5    2.93    0.09
   1 -18  -5    7.18    0.20
  -1 -18  -5    6.85    1.06
  -1 -18  -5    6.59    0.19
  -3 -18  -5    3.25    0.10
  -3 -18  -5    3.18    0.83
   3  18   5    1.94    0.43
  -5 -18  -5    5.70    1.02
  -5 -18  -5    3.64    0.11
   5  18   5    2.46    0.44
  -7 -18  -5    8.30    1.01
  -7 -18  -5    8.07    0.23
   7  18   5    5.38    0.54
  -9 -18  -5    8.42    0.24
  -9 -18  -5    8.38    0.99
   9  18   5    6.16    0.65
 -11 -18  -5    8.34    0.24
 -11 -18  -5    8.63    1.00
  11  18   5    6.08    0.70
   4 -19  -5    4.85    0.14
   2 -19  -5   14.62    0.41
   0 -19  -5   22.10    0.62
  -2 -19  -5   15.48    1.47
  -2 -19  -5   14.65    0.41
  -4 -19  -5    5.18    1.07
  -4 -19  -5    5.08    0.15
   4  19   5    3.99    0.50
  -6 -19  -5    8.07    0.23
  -6 -19  -5    8.02    1.01
   6  19   5    6.06    0.63
  -8 -19  -5   14.20    1.47
  -8 -19  -5   14.10    0.40
   8  19   5    9.83    0.71
 -10 -19  -5   14.22    1.53
 -10 -19  -5   17.35    0.47
  10  19   5   12.79    0.81
   3 -20  -5    5.13    0.15
   1 -20  -5    5.15    0.15
  -1 -20  -5    5.48    0.16
  -3 -20  -5    5.47    0.16
  -3 -20  -5    5.51    1.00
   3  20   5    4.27    0.53
  -5 -20  -5    1.22    1.01
  -5 -20  -5    1.30    0.05
   5  20   5    1.22    0.44
  -7 -20  -5    2.14    0.07
  -7 -20  -5    1.82    1.03
   7  20   5    1.36    0.45
   2 -21  -5   12.31    0.35
   0 -21  -5   11.08    0.31
  -2 -21  -5   12.72    0.36
   2  21   5   10.55    0.80
  -4 -21  -5    2.88    0.09
  -4 -21  -5    3.07    0.93
   4  21   5    2.25    0.49
   5  21  -6    1.11    0.42
  -5 -21   6    1.95    0.07
   3  21  -6    2.04    0.56
  -3 -21   6    3.78    0.11
  -1 -21   6    8.36    1.19
  -1 -21   6    8.35    0.24
   1 -21   6    8.54    1.04
   1 -21   6    8.55    0.24
   3 -21   6    4.25    0.97
   3 -21   6    3.17    0.10
   5 -21   6    1.95    0.07
   5 -21   6    2.83    0.89
   8  20  -6    6.23    0.72
  -8 -20   6   10.85    0.31
   6  20  -6    0.03    0.47
  -6 -20   6    0.50    0.04
   4  20  -6    0.75    0.51
  -4 -20   6    1.55    0.06
   2  20  -6    2.49    0.58
  -2 -20   6    4.39    0.13
   0 -20   6   10.57    0.30
   0 -20   6   10.09    1.19
   2 -20   6    3.97    0.12
   2 -20   6    4.15    0.95
   4 -20   6    1.06    0.80
   4 -20   6    1.47    0.05
   6 -20   6    0.55    0.03
   8 -20   6   10.80    0.30
   9  19  -6    9.57    0.68
  -9 -19   6   18.09    0.51
   7  19  -6   10.56    0.69
  -7 -19   6   16.57    0.47
   5  19  -6    3.22    0.46
  -5 -19   6    4.88    0.14
   3  19  -6    1.71    0.43
  -3 -19   6    2.52    0.08
  -1 -19   6   10.97    0.31
   1 -19   6   11.58    1.15
   1 -19   6   10.72    0.31
   3 -19   6    2.67    0.85
   3 -19   6    2.24    0.07
   5 -19   6    4.50    0.13
   5 -19   6    3.94    0.73
   7 -19   6   14.84    0.42
  12  18  -6    1.73    0.47
 -12 -18   6    2.66    0.09
  10  18  -6    9.57    0.78
 -10 -18   6   16.97    0.48
   8  18  -6    3.02    0.45
  -8 -18   6    4.20    0.12
   6  18  -6    5.32    0.57
  -6 -18   6    8.72    0.25
   4  18  -6    2.54    0.51
  -4 -18   6    3.88    0.12
  -2 -18   6   11.43    0.32
   0 -18   6    5.73    0.16
   2 -18   6   12.07    1.22
   2 -18   6   10.57    0.30
   4 -18   6    3.98    0.82
   4 -18   6    3.48    0.10
   6 -18   6    7.66    0.89
   6 -18   6    7.77    0.22
   8 -18   6    3.86    0.11
  13  17  -6    6.31    0.80
 -13 -17   6    8.43    0.24
  11  17  -6   10.09    0.81
 -11 -17   6   15.05    0.42
   9  17  -6   18.44    0.92
  -9 -17   6   28.94    0.81
   7  17  -6   18.59    0.85
  -7 -17   6   30.48    0.85
   5  17  -6    5.71    0.65
  -5 -17   6    8.95    0.25
   3  17  -6    1.18    0.46
  -3 -17   6    0.96    0.04
  -1 -17   6   12.54    0.35
   1 -17   6   12.55    0.35
   3 -17   6    1.80    0.71
   3 -17   6    1.17    0.05
   5 -17   6    7.93    0.23
   5 -17   6    8.42    0.98
   7 -17   6   27.42    0.77
  14  16  -6    1.82    0.50
  14  16  -6    1.88    0.47
 -14 -16   6    2.02    0.07
  12  16  -6    7.48    0.79
 -12 -16   6   12.07    0.34
  10  16  -6   12.32    0.74
 -10 -16   6   20.38    0.57
   8  16  -6   13.22    0.79
  -8 -16   6   21.47    0.60
   6  16  -6    3.83    0.49
  -6 -16   6    5.82    0.17
   4  16  -6    1.21    0.43
  -4 -16   6    1.53    0.06
  -2 -16   6    2.00    0.07
   0 -16   6   11.66    0.33
   2 -16   6    1.94    0.06
   4 -16   6    1.29    0.64
   4 -16   6    1.32    0.05
   6 -16   6    5.31    0.15
   6 -16   6    4.72    0.72
   8 -16   6   19.35    0.54
  15  15  -6    2.72    0.65
  15  15  -6    2.07    0.49
 -15 -15   6    2.83    0.09
  13  15  -6    4.74    0.57
  13  15  -6    4.81    0.54
 -13 -15   6    5.69    0.16
  11  15  -6   13.01    0.77
 -11 -15   6   16.37    0.46
   9  15  -6   15.49    0.84
  -9 -15   6   21.93    0.61
   7  15  -6    7.13    0.66
  -7 -15   6   11.18    0.32
   5  15  -6    2.12    0.43
  -5 -15   6    2.60    0.08
   3  15  -6    3.88    0.42
  -3 -15   6    5.43    0.16
  -1 -15   6   18.78    0.53
   1 -15   6   18.35    0.51
   3 -15   6    4.85    0.71
   3 -15   6    4.74    0.14
   5 -15   6    1.74    0.60
   5 -15   6    2.08    0.07
   7 -15   6    9.81    0.89
   7 -15   6    9.87    0.28
  16  14  -6    2.22    0.65
  16  14  -6    1.68    0.50
 -16 -14   6    2.14    0.07
  14  14  -6    2.32    0.52
  14  14  -6    3.19    0.56
 -14 -14   6    2.63    0.08
  12  14  -6   11.02    0.73
  12  14  -6   10.56    0.75
 -12 -14   6   13.49    0.38
  10  14  -6    9.04    0.74
 -10 -14   6   10.78    0.30
   8  14  -6   10.98    0.73
  -8 -14   6   14.89    0.42
   6  14  -6    8.07    0.65
  -6 -14   6   12.10    0.34
   4  14  -6    2.16    0.42
  -4 -14   6    2.97    0.09
  -2 -14   6    4.52    0.13
   0 -14   6    3.91    0.11
   2 -14   6    4.18    0.12
   4 -14   6    2.60    0.61
   4 -14   6    2.60    0.08
   6 -14   6   10.46    0.30
   6 -14   6   10.91    0.87
   8 -14   6   13.46    0.38
  17  13  -6    6.07    0.74
  17  13  -6    6.96    0.78
 -17 -13   6    7.75    0.22
  15  13  -6    4.88    0.60
  15  13  -6    3.95    0.62
 -15 -13   6    5.60    0.16
  13  13  -6    9.42    0.86
  13  13  -6    9.59    0.72
 -13 -13   6   11.54    0.32
  11  13  -6    8.85    0.67
  11  13  -6    8.53    0.66
 -11 -13   6   11.20    0.32
   9  13  -6   17.62    0.81
  -9 -13   6   22.56    0.63
   7  13  -6    9.72    0.68
  -7 -13   6   11.57    0.33
   5  13  -6    3.13    0.37
  -5 -13   6    4.96    0.14
   3  13  -6   13.37    0.74
  -3 -13   6   17.74    0.50
  -1 -13   6   50.12    1.40
   1 -13   6   48.64    1.36
   3 -13   6   15.34    0.43
   5 -13   6    3.61    0.59
   5 -13   6    3.90    0.11
   7 -13   6   10.26    0.91
   7 -13   6   10.12    0.29
  18  12  -6    1.85    0.67
 -18 -12   6    2.25    0.07
  16  12  -6    9.32    0.80
  16  12  -6   10.33    0.82
 -16 -12   6   10.62    0.30
  14  12  -6   11.68    0.93
  14  12  -6   11.75    0.81
 -14 -12   6   12.32    0.35
  12  12  -6    0.13    0.52
  12  12  -6    0.37    0.40
 -12 -12   6    0.02    0.03
  10  12  -6   11.37    0.71
  10  12  -6   12.24    0.80
 -10 -12   6   14.40    0.40
   8  12  -6   11.97    0.73
  -8 -12   6   15.83    0.44
   6  12  -6    7.99    0.63
  -6 -12   6   11.04    0.31
   4  12  -6    2.42    0.41
  -4 -12   6    3.60    0.11
  -2 -12   6    7.18    0.20
   0 -12   6   14.26    0.40
   2 -12   6    6.57    0.19
   4 -12   6    3.11    0.09
   6 -12   6   10.72    0.78
   6 -12   6    9.97    0.28
   8 -12   6   15.64    0.44
 -18  12  -6    1.70    1.56
  17  11  -6   10.84    0.95
 -17 -11   6   11.63    0.33
  15  11  -6   13.29    0.85
 -15 -11   6   15.22    0.43
  13  11  -6   10.02    0.74
  13  11  -6   10.38    0.74
 -13 -11   6   10.31    0.29
  11  11  -6   16.32    0.83
  11  11  -6   16.97    0.90
 -11 -11   6   19.01    0.53
   9  11  -6    7.29    0.68
   9  11  -6    7.03    0.68
  -9 -11   6    8.10    0.23
   7  11  -6   13.51    0.68
  -7 -11   6   17.89    0.50
   5  11  -6    7.85    0.61
  -5 -11   6    9.43    0.27
   3  11  -6   19.85    0.79
  -3 -11   6   26.32    0.74
  -1 -11   6   71.75    2.01
   1 -11   6   66.84    1.87
   3 -11   6   22.82    0.64
   5 -11   6    9.19    0.74
   5 -11   6    8.74    0.25
   7 -11   6   18.43    0.91
   7 -11   6   17.52    0.50
  18  10  -6   11.39    0.98
 -18 -10   6   11.69    0.33
  16  10  -6   15.41    1.00
 -16 -10   6   15.95    0.45
  14  10  -6    8.87    0.73
 -14 -10   6    9.54    0.27
  12  10  -6   12.77    0.86
 -12 -10   6   12.31    0.35
  10  10  -6    4.14    0.48
  10  10  -6    4.29    0.55
 -10 -10   6    4.55    0.13
   8  10  -6   12.14    0.75
   8  10  -6   12.11    0.73
  -8 -10   6   13.28    0.37
   6  10  -6   11.44    0.62
  -6 -10   6   13.75    0.39
   4  10  -6    8.41    0.59
  -4 -10   6   11.07    0.31
  -2 -10   6    8.25    0.23
   0 -10   6   10.47    0.29
   2 -10   6    7.17    0.20
   4 -10   6   10.27    0.29
   6 -10   6   13.51    0.79
   6 -10   6   14.20    0.39
   8 -10   6   14.90    0.42
 -18  10  -6   14.69    2.14
  19   9  -6   13.29    1.03
 -19  -9   6   13.60    0.38
  17   9  -6   20.93    1.14
 -17  -9   6   21.79    0.61
  15   9  -6   19.58    1.06
 -15  -9   6   17.01    0.48
  13   9  -6   18.74    0.90
 -13  -9   6   19.25    0.54
  11   9  -6    7.67    0.73
 -11  -9   6    7.52    0.21
   9   9  -6   11.94    0.73
   9   9  -6    9.80    0.69
  -9  -9   6   10.80    0.29
  -9  -9   6    8.79    0.73
   7   9  -6    4.79    0.56
   7   9  -6    4.76    0.54
  -7  -9   6    4.12    0.12
   5   9  -6    5.08    0.46
  -5  -9   6    6.50    0.18
   3   9  -6   80.07    2.40
  -3  -9   6   94.40    2.64
  -1  -9   6   55.46    1.55
   1  -9   6   52.54    1.47
   3  -9   6   87.07    2.43
   5  -9   6    7.10    0.66
   5  -9   6    6.58    0.19
   7  -9   6    4.69    0.13
   7  -9   6    4.66    0.55
 -17   9  -6   25.72    2.18
 -19   9  -6   18.32    2.15
  20   8  -6    7.43    0.93
 -20  -8   6    7.76    0.22
  18   8  -6    4.21    0.67
 -18  -8   6    3.24    0.10
  16   8  -6   16.21    0.99
 -16  -8   6   16.17    0.45
  14   8  -6   12.23    0.76
 -14  -8   6   12.21    0.34
  12   8  -6   13.87    0.85
 -12  -8   6   12.77    0.36
  10   8  -6   12.51    0.77
 -10  -8   6   12.36    0.33
 -10  -8   6   10.51    0.76
   8   8  -6    6.53    0.61
   8   8  -6    6.94    0.63
  -8  -8   6    6.78    0.56
  -8  -8   6    6.50    0.19
   6   8  -6   21.28    0.89
   6   8  -6   21.81    0.87
  -6  -8   6   22.10    0.62
   4   8  -6    9.33    0.57
  -4  -8   6    8.54    0.24
  -2  -8   6   13.48    0.38
   0  -8   6    4.46    0.13
   2  -8   6   12.45    0.35
   4  -8   6    8.97    0.25
   6  -8   6   23.74    0.67
   6  -8   6   24.67    0.94
 -16   8  -6   19.18    1.90
 -18   8  -6    4.09    1.36
 -20   8  -6   10.45    1.70
  19   7  -6   11.56    0.97
 -19  -7   6   12.94    0.36
  17   7  -6   23.15    1.06
 -17  -7   6   22.70    0.64
  15   7  -6    8.81    0.80
 -15  -7   6    8.14    0.23
  13   7  -6    9.82    0.76
 -13  -7   6    9.08    0.26
  11   7  -6   16.32    0.85
 -11  -7   6   15.45    0.43
   9   7  -6    4.50    0.49
  -9  -7   6    4.24    0.51
  -9  -7   6    4.07    0.12
   7   7  -6    5.75    0.56
   7   7  -6    6.08    0.58
  -7  -7   6    5.40    0.44
  -7  -7   6    4.91    0.14
   5   7  -6    7.62    0.60
   5   7  -6    6.53    0.53
  -5  -7   6    6.18    0.17
   3   7  -6    5.59    0.46
  -3  -7   6    5.59    0.16
  -1  -7   6   79.08    2.21
   3  -7   6    5.35    0.15
   5  -7   6    6.41    0.18
   7  -7   6    5.95    0.17
 -15   7  -6    8.71    1.51
 -17   7  -6   24.46    1.81
 -19   7  -6   15.94    1.64
  20   6  -6    0.32    0.58
 -20  -6   6    0.54    0.03
  18   6  -6    7.02    0.85
 -18  -6   6    5.95    0.17
  16   6  -6    4.90    0.54
 -16  -6   6    4.50    0.13
  14   6  -6    9.35    0.77
 -14  -6   6    8.79    0.25
  12   6  -6    8.87    0.72
 -12  -6   6    8.27    0.23
  10   6  -6   13.34    0.76
 -10  -6   6   11.91    0.34
 -10  -6   6   12.16    0.67
   8   6  -6   22.76    0.92
  -8  -6   6   20.56    0.57
  -8  -6   6   20.31    0.81
   6   6  -6    1.06    0.33
   6   6  -6    0.65    0.28
  -6  -6   6    0.94    0.03
  -6  -6   6    1.11    0.29
   4   6  -6   16.81    0.68
   4   6  -6   16.84    0.73
  -4  -6   6   15.72    0.44
   2   6  -6   10.47    0.50
   6  -6   6    1.10    0.04
   6  -6   6    0.98    0.29
 -10   6  -6   11.37    0.67
 -12   6  -6    9.71    1.15
 -14   6  -6   10.89    1.44
 -16   6  -6    5.35    1.15
 -18   6  -6    7.02    1.34
  21   5  -6    0.64    0.59
 -21  -5   6    1.49    0.05
  19   5  -6    3.10    0.53
 -19  -5   6    3.45    0.10
  17   5  -6    6.31    0.68
 -17  -5   6    6.54    0.19
  15   5  -6    1.50    0.51
 -15  -5   6    1.85    0.06
  13   5  -6    3.99    0.54
 -13  -5   6    3.63    0.10
  11   5  -6    8.24    0.59
 -11  -5   6    7.61    0.57
 -11  -5   6    7.74    0.22
   9   5  -6    6.29    0.60
  -9  -5   6    5.72    0.16
  -9  -5   6    6.30    0.52
   7   5  -6    6.35    0.53
  -7  -5   6    5.43    0.16
  -7  -5   6    5.95    0.46
   5   5  -6    5.17    0.44
   5   5  -6    4.22    0.48
  -5  -5   6    4.74    0.40
  -5  -5   6    4.79    0.14
   3   5  -6    4.40    0.32
  -9   5  -6    6.30    0.53
 -11   5  -6    8.06    1.24
 -13   5  -6    3.49    0.94
 -15   5  -6    2.17    0.96
 -17   5  -6    6.71    1.08
 -19   5  -6    3.59    0.11
 -21   5  -6    1.76    0.06
  20   4  -6    1.08    0.58
 -20  -4   6    1.09    0.04
  18   4  -6    3.59    0.62
 -18  -4   6    2.42    0.07
  16   4  -6    1.16    0.52
 -16  -4   6    1.11    0.04
  14   4  -6    2.92    0.52
 -14  -4   6    2.21    0.07
  12   4  -6    3.53    0.50
 -12  -4   6    2.80    0.08
 -12  -4   6    2.83    0.38
  10   4  -6    9.35    0.67
 -10  -4   6    8.38    0.56
 -10  -4   6    8.38    0.24
   8   4  -6    8.71    0.53
  -8  -4   6    7.75    0.23
  -8  -4   6    8.85    0.51
   6   4  -6   17.29    0.70
  -6  -4   6   15.77    0.64
  -6  -4   6   16.69    0.46
   4   4  -6    0.19    0.25
   4   4  -6   -0.19    0.21
  -4  -4   6    0.09    0.16
   2   4  -6    5.60    0.33
  -8   4  -6    8.76    0.54
 -10   4  -6    8.67    0.58
 -10   4  -6   10.06    1.04
 -12   4  -6    2.54    0.75
 -14   4  -6    2.22    0.91
 -16   4  -6    1.81    0.92
 -18   4  -6    1.80    0.06
 -20   4  -6    0.58    0.03
  21   3  -6    2.56    0.63
 -21  -3   6    2.52    0.08
  19   3  -6    1.67    0.48
 -19  -3   6    1.59    0.05
  17   3  -6    1.30    0.53
 -17  -3   6    0.75    0.03
  15   3  -6    4.15    0.56
 -15  -3   6    3.72    0.11
  13   3  -6   14.92    0.84
 -13  -3   6   13.12    0.37
  11   3  -6   23.79    1.00
 -11  -3   6   19.96    0.56
 -11  -3   6   20.15    0.83
   9   3  -6   85.90    2.58
  -9  -3   6   74.83    2.11
  -9  -3   6   76.13    2.27
   7   3  -6    5.28    0.49
   7   3  -6    5.86    0.49
  -7  -3   6    4.92    0.14
  -7  -3   6    5.68    0.42
   5   3  -6    4.99    0.46
   5   3  -6    5.23    0.39
  -5  -3   6    4.34    0.33
   3   3  -6    3.94    0.32
   3   3  -6    4.02    0.29
  -3  -3   6    3.68    0.27
   1   3  -6    4.19    0.25
  -7   3  -6    5.71    0.89
  -7   3  -6    5.43    0.42
  -9   3  -6   82.36    2.45
  -9   3  -6   81.89    2.96
 -11   3  -6   19.95    0.81
 -11   3  -6   19.09    1.31
 -13   3  -6   13.27    1.36
 -15   3  -6    4.18    0.98
 -17   3  -6    0.68    0.03
 -19   3  -6    0.93    0.04
 -21   3  -6    1.45    0.05
  20   2  -6    3.31    0.63
 -20  -2   6    3.42    0.10
  18   2  -6    9.13    0.74
 -18  -2   6    8.55    0.24
  16   2  -6    2.01    0.51
 -16  -2   6    1.55    0.05
  14   2  -6    4.37    0.57
 -14  -2   6    3.64    0.11
  12   2  -6    6.49    0.68
 -12  -2   6    5.48    0.15
 -12  -2   6    4.33    0.46
  10   2  -6    7.72    0.65
 -10  -2   6    6.43    0.52
 -10  -2   6    5.80    0.17
   8   2  -6   13.56    0.68
  -8  -2   6   10.31    0.50
  -8  -2   6   10.39    0.29
   6   2  -6   11.22    0.53
  -6  -2   6   10.25    0.47
   4   2  -6    5.36    0.42
   4   2  -6    5.60    0.34
  -4  -2   6    5.13    0.29
   2   2  -6    0.74    0.13
  -2  -2   6    0.69    0.13
  -4   2  -6    5.45    0.55
  -6   2  -6    9.10    0.78
  -6   2  -6   10.71    0.46
  -8   2  -6   10.91    0.55
  -8   2  -6   12.39    0.99
 -10   2  -6    6.97    0.97
 -10   2  -6    6.14    0.49
 -12   2  -6    6.22    0.99
 -14   2  -6    3.60    0.10
 -16   2  -6    1.41    0.05
 -18   2  -6    7.75    0.22
 -20   2  -6    2.56    0.08
  21   1  -6    6.47    0.72
 -21  -1   6    5.90    0.17
  19   1  -6    9.69    0.88
 -19  -1   6    8.62    0.24
  17   1  -6   11.65    0.87
 -17  -1   6    9.40    0.26
  15   1  -6   16.15    0.90
 -15  -1   6   14.56    0.41
  13   1  -6   45.28    1.57
 -13  -1   6   37.29    1.32
 -13  -1   6   38.80    1.07
  11   1  -6   68.48    2.15
 -11  -1   6   59.13    1.84
 -11  -1   6   58.47    1.64
   9   1  -6   56.41    1.78
  -9  -1   6   44.45    1.29
  -9  -1   6   47.81    1.47
   7   1  -6   72.51    2.17
  -7  -1   6   63.08    1.89
   5   1  -6    6.55    0.39
  -5  -1   6    5.99    0.34
   3   1  -6    4.60    0.26
   3   1  -6    4.83    0.32
  -3  -1   6    4.00    0.22
   1   1  -6    7.21    0.27
  -1  -1   6    7.72    0.28
  -1   1  -6    7.05    0.49
  -3   1  -6    4.43    0.53
  -5   1  -6    6.67    0.73
  -5   1  -6    6.23    0.32
  -7   1  -6   68.83    2.40
  -7   1  -6   66.04    1.99
  -9   1  -6   48.62    1.46
  -9   1  -6   44.28    1.91
   9  -1   6   56.55    1.76
 -11   1  -6   57.37    1.78
  11  -1   6   65.88    2.05
 -13   1  -6   39.43    1.10
  13  -1   6   44.55    1.51
 -15   1  -6   14.41    0.40
 -17   1  -6   10.06    0.28
 -19   1  -6    6.91    0.20
 -21   1  -6    5.22    0.15
  20   0  -6    8.15    0.89
 -20   0   6    7.79    0.22
  18   0  -6    4.26    0.54
 -18   0   6    4.47    0.13
  16   0  -6    9.91    0.81
 -16   0   6    9.29    0.26
  14   0  -6    3.88    0.52
 -14   0   6    3.15    0.09
  12   0  -6   13.76    0.73
 -12   0   6   12.29    0.34
 -12   0   6   11.49    0.62
  10   0  -6    8.59    0.58
 -10   0   6    8.27    0.23
 -10   0   6    8.39    0.51
   8   0  -6    3.82    0.39
  -8   0   6    4.30    0.52
  -8   0   6    4.03    0.42
  -8   0   6    3.35    0.10
   6   0  -6   42.40    1.32
  -6   0   6   38.94    1.22
  -6   0   6   39.91    1.27
   4   0  -6    9.91    0.41
  -4   0   6    8.80    0.36
   2   0  -6  167.47    4.70
   2   0  -6  166.29    4.77
  -2   0   6  147.89    4.24
  -2   0   6  149.88    4.27
   0   0  -6    0.02    0.06
  -2   0  -6  158.80    4.48
   2   0   6  142.95    4.25
  -4   0  -6    9.01    0.35
   4   0   6    9.59    0.34
  -6   0  -6   37.61    1.15
   6   0   6   43.85    1.34
  -8   0  -6    3.35    0.10
  -8   0  -6    4.15    0.21
  -8   0  -6    3.52    0.36
   8   0   6    4.07    0.43
 -10   0  -6    8.62    0.24
 -10   0  -6    8.00    0.51
  10   0   6    9.66    0.60
 -12   0  -6   12.75    0.36
  12   0   6   13.70    0.73
 -14   0  -6    3.13    0.09
  14   0   6    3.80    0.48
 -16   0  -6    9.10    0.26
  16   0   6    9.49    0.73
 -18   0  -6    3.98    0.12
  18   0   6    4.19    0.49
 -20   0  -6    6.43    0.18
  21  -1  -6    6.87    0.75
 -21   1   6    6.31    0.18
  19  -1  -6    8.39    0.89
 -19   1   6    8.12    0.23
  17  -1  -6   10.29    0.74
 -17   1   6   10.21    0.29
  15  -1  -6   17.25    0.92
 -15   1   6   15.02    0.42
  13  -1  -6   44.44    1.55
 -13   1   6   39.91    1.37
 -13   1   6   38.10    1.64
 -13   1   6   39.57    1.10
  11  -1  -6   68.37    2.15
 -11   1   6   57.70    2.11
 -11   1   6   61.56    1.89
 -11   1   6   60.37    1.67
   9  -1  -6   56.13    1.77
  -9   1   6   48.04    1.33
  -9   1   6   45.50    1.67
  -9   1   6   49.25    1.50
   7  -1  -6   73.25    2.18
  -7   1   6   65.76    1.96
   5  -1  -6    6.39    0.37
  -5   1   6    6.11    0.34
   3  -1  -6    4.48    0.29
   3  -1  -6    4.36    0.24
  -3   1   6    4.16    0.23
   1  -1  -6    7.22    0.24
  -1   1   6    7.13    0.23
  -1   1   6    6.26    0.32
  -3  -1  -6    4.32    0.20
   3   1   6    4.54    0.21
  -5  -1  -6    5.62    0.29
   5   1   6    6.74    0.33
  -7  -1  -6   60.33    1.77
  -7  -1  -6   67.81    1.85
  -7  -1  -6   61.70    1.86
   7   1   6   70.79    2.09
  -9  -1  -6   47.30    1.30
  -9  -1  -6   45.35    1.44
   9   1   6   52.09    1.62
 -11  -1  -6   55.99    1.78
 -11  -1  -6   59.48    1.62
  11   1   6   63.64    1.97
 -13  -1  -6   35.33    0.99
  13   1   6   42.05    1.43
 -15  -1  -6   14.51    0.41
  15   1   6   14.77    0.80
 -17  -1  -6    9.36    0.26
  17   1   6   11.09    0.78
 -19  -1  -6    6.82    0.19
  19   1   6    7.99    0.76
 -21  -1  -6    5.31    0.15
  21   1   6    5.96    0.65
  20  -2  -6    3.46    0.65
 -20   2   6    3.37    0.10
  18  -2  -6   10.34    0.89
 -18   2   6    8.80    0.25
  16  -2  -6    1.74    0.52
 -16   2   6    1.48    0.05
  14  -2  -6    4.47    0.53
 -14   2   6    3.55    0.10
 -14   2   6    3.52    0.69
  12  -2  -6    6.09    0.56
 -12   2   6    6.19    0.86
 -12   2   6    5.55    0.58
  10  -2  -6    5.95    0.51
 -10   2   6    6.39    0.57
   8  -2  -6   12.51    0.63
  -8   2   6   11.94    0.56
   6  -2  -6   11.31    0.51
  -6   2   6   11.11    0.50
   4  -2  -6    5.99    0.31
  -4   2   6    5.83    0.31
   2  -2  -6    0.63    0.17
  -2   2   6    0.74    0.14
  -2  -2  -6    0.63    0.07
   2   2   6    0.59    0.07
  -4  -2  -6    5.56    0.26
   4   2   6    5.52    0.26
  -6  -2  -6   10.47    0.43
  -6  -2  -6    8.47    0.41
   6   2   6   10.64    0.45
  -8  -2  -6   10.79    0.30
  -8  -2  -6   10.81    0.50
   8   2   6   12.23    0.56
 -10  -2  -6    6.55    0.46
 -10  -2  -6    6.32    0.18
  10   2   6    7.07    0.53
 -12  -2  -6    6.04    0.17
  12   2   6    6.04    0.57
 -14  -2  -6    3.59    0.10
  14   2   6    3.49    0.46
 -16  -2  -6    1.45    0.05
  16   2   6    1.57    0.45
 -18  -2  -6    7.22    0.20
  18   2   6    8.01    0.64
 -20  -2  -6    2.29    0.07
  20   2   6    3.12    0.57
 -21   3   6    1.94    0.07
 -19   3   6    1.53    0.06
  17  -3  -6    0.59    0.53
 -17   3   6    1.25    0.64
 -17   3   6    1.06    0.04
  15  -3  -6    4.49    0.56
 -15   3   6    4.58    0.73
 -15   3   6    4.02    0.12
  13  -3  -6   14.53    0.82
 -13   3   6   13.91    1.03
 -13   3   6   13.39    0.69
  11  -3  -6   22.88    0.97
 -11   3   6   21.49    0.92
   9  -3  -6   88.10    2.63
  -9   3   6   87.49    2.62
   7  -3  -6    6.05    0.47
  -7   3   6    6.60    0.48
  -5   3   6    4.88    0.37
   3  -3  -6    3.69    0.30
  -3   3   6    4.09    0.26
  -1   3   6    4.37    0.26
  -3  -3  -6    3.78    0.20
   3   3   6    3.44    0.29
   3   3   6    3.29    0.18
  -5  -3  -6    3.77    0.33
  -5  -3  -6    4.44    0.28
   5   3   6    4.15    0.29
  -7  -3  -6    5.57    0.39
  -7  -3  -6    4.98    0.14
   7   3   6    5.39    0.38
  -9  -3  -6   80.57    2.35
  -9  -3  -6   78.55    2.22
   9   3   6   80.28    2.38
 -11  -3  -6   20.87    0.81
 -11  -3  -6   21.74    0.60
  11   3   6   21.62    0.86
 -13  -3  -6   13.86    0.39
  13   3   6   13.35    0.72
 -15  -3  -6    3.97    0.11
  15   3   6    3.97    0.48
 -17  -3  -6    0.71    0.03
  17   3   6    0.62    0.45
 -19  -3  -6    1.14    0.04
  19   3   6    1.59    0.51
 -21  -3  -6    2.08    0.06
  21   3   6    2.45    0.56
 -20   4   6    0.96    0.04
 -18   4   6    3.46    0.80
 -18   4   6    2.95    0.09
 -16   4   6    1.43    0.75
 -14   4   6    1.97    0.61
 -12   4   6    2.86    0.43
 -10   4   6    9.77    0.65
  -8   4   6   10.27    0.60
  -6   4   6   18.94    0.73
  -4   4   6    0.15    0.20
   2  -4  -6    5.22    0.29
   2   4   6    5.72    0.25
  -4  -4  -6    0.08    0.24
  -4  -4  -6    0.02    0.14
   4   4   6   -0.02    0.13
  -6  -4  -6   17.44    0.72
  -6  -4  -6   16.36    0.60
   6   4   6   15.53    0.56
  -8  -4  -6    8.46    0.25
  -8  -4  -6    9.89    0.51
   8   4   6    8.14    0.46
 -10  -4  -6    8.88    0.25
 -10  -4  -6    8.97    0.55
  10   4   6    8.64    0.53
 -12  -4  -6    2.78    0.08
  12   4   6    2.88    0.40
 -14  -4  -6    2.24    0.07
  14   4   6    2.36    0.42
 -16  -4  -6    0.93    0.04
  16   4   6    1.35    0.44
 -18  -4  -6    2.22    0.07
  18   4   6    3.13    0.52
 -20  -4  -6    0.94    0.03
  20   4   6    1.26    0.51
 -21   5   6    1.63    0.06
 -19   5   6    3.48    0.10
 -19   5   6    3.69    0.89
 -17   5   6    6.97    1.21
 -13   5   6    2.72    0.38
 -11   5   6    9.36    0.67
  -9   5   6    6.08    0.57
  -7   5   6    7.28    0.53
  -5   5   6    5.97    0.48
  -3  -5  -6    4.55    0.48
   3   5   6    4.29    0.26
  -5  -5  -6    4.46    0.48
  -5  -5  -6    4.82    0.34
   5   5   6    4.53    0.32
  -7  -5  -6    6.78    0.41
  -7  -5  -6    6.06    0.18
   7   5   6    6.03    0.38
  -9  -5  -6    6.15    0.17
  -9  -5  -6    6.18    0.49
   9   5   6    5.91    0.45
 -11  -5  -6    8.19    0.23
 -11  -5  -6    8.23    0.51
  11   5   6    8.01    0.55
 -13  -5  -6    3.96    0.11
  13   5   6    3.40    0.41
 -15  -5  -6    1.98    0.06
  15   5   6    1.75    0.42
 -17  -5  -6    6.98    0.20
  17   5   6    6.27    0.66
 -19  -5  -6    3.70    0.11
  19   5   6    3.89    0.55
 -21  -5  -6    1.53    0.05
  21   5   6    0.92    0.51
 -20   6   6    0.57    0.82
 -20   6   6    0.45    0.03
 -18   6   6    6.77    1.17
 -12   6   6    9.00    0.68
 -10   6   6   12.40    0.73
  -8   6   6   23.66    0.92
  -6   6   6    0.69    0.30
   2  -6  -6    9.26    0.40
   0   6   6   40.20    1.18
  -2  -6  -6    9.58    0.58
  -4  -6  -6   18.07    0.82
   4   6   6   16.18    0.56
  -6  -6  -6    0.65    0.22
  -6  -6  -6    0.54    0.36
  -6  -6  -6    0.94    0.03
   6   6   6    0.83    0.21
  -8  -6  -6   21.77    0.61
  -8  -6  -6   22.01    0.82
   8   6   6   20.25    0.74
 -10  -6  -6   12.50    0.36
 -10  -6  -6   13.51    0.67
  10   6   6   11.04    0.57
 -12  -6  -6    8.77    0.25
  12   6   6    7.59    0.56
 -14  -6  -6    9.39    0.26
  14   6   6    9.04    0.63
 -16  -6  -6    4.64    0.13
  16   6   6    3.72    0.49
 -18  -6  -6    6.49    0.18
  18   6   6    5.48    0.57
 -20  -6  -6    0.60    0.03
  20   6   6    0.17    0.49
 -19   7   6   13.74    1.47
 -11   7   6   15.64    0.81
  -9   7   6    3.94    0.43
  -7   7   6    5.84    0.54
  -3  -7  -6    6.44    0.64
  -3  -7  -6    5.44    0.16
   3   7   6    5.87    0.39
  -5  -7  -6    6.32    0.65
  -5  -7  -6    6.32    0.18
   5   7   6    5.87    0.37
  -7  -7  -6    6.35    0.48
  -7  -7  -6    5.58    0.16
   7   7   6    5.38    0.44
  -9  -7  -6    4.47    0.50
  -9  -7  -6    4.22    0.12
   9   7   6    3.62    0.42
 -11  -7  -6   16.19    0.45
  11   7   6   13.41    0.64
 -13  -7  -6    9.49    0.27
  13   7   6    8.35    0.60
 -15  -7  -6    8.70    0.24
  15   7   6    7.97    0.64
 -17  -7  -6   24.25    0.68
  17   7   6   20.12    0.94
 -19  -7  -6   13.41    0.38
  19   7   6   11.51    0.80
 -20   8   6    9.28    1.48
 -12   8   6   11.92    0.75
 -10   8   6   12.77    0.67
  -8   8   6    6.64    0.60
   0  -8  -6    4.82    0.14
  -2  -8  -6   12.50    0.36
  -2  -8  -6   13.69    0.85
  -4  -8  -6    8.77    0.24
  -4  -8  -6    7.74    0.65
   4   8   6    8.97    0.46
  -6  -8  -6   23.51    0.66
  -6  -8  -6   23.75    1.02
   6   8   6   20.75    0.75
  -8  -8  -6    6.81    0.49
  -8  -8  -6    6.90    0.19
   8   8   6    6.37    0.46
 -10  -8  -6   13.24    0.37
  10   8   6   10.44    0.57
 -12  -8  -6   14.02    0.39
  12   8   6   11.72    0.63
 -14  -8  -6   12.87    0.36
  14   8   6   10.10    0.66
 -16  -8  -6   16.71    0.47
  16   8   6   13.99    0.78
 -18  -8  -6    3.44    0.10
  18   8   6    2.89    0.45
 -20  -8  -6    8.44    0.24
  20   8   6    6.40    0.74
 -19   9   6   17.97    1.73
 -11   9   6    7.01    0.65
  -9   9   6   10.64    0.69
   3  -9  -6   82.61    2.39
   1  -9  -6   52.33    1.46
  -1  -9  -6   52.58    1.46
  -1  -9  -6   52.07    1.87
  -3  -9  -6   87.68    2.83
  -3  -9  -6   89.51    2.48
   3   9   6   82.43    2.43
  -5  -9  -6    6.57    0.19
  -5  -9  -6    7.34    0.78
   5   9   6    6.11    0.50
  -7  -9  -6    4.46    0.13
  -7  -9  -6    4.76    0.61
   7   9   6    3.98    0.42
  -9  -9  -6   12.07    0.34
   9   9   6    9.46    0.55
 -11  -9  -6    7.99    0.22
  11   9   6    6.60    0.53
 -13  -9  -6   20.23    0.57
  13   9   6   16.95    0.78
 -15  -9  -6   19.41    0.54
  15   9   6   14.96    0.80
 -17  -9  -6   22.61    0.63
  17   9   6   19.93    0.95
 -19  -9  -6   13.74    0.39
  19   9   6   11.03    0.82
 -10  10   6    3.48    0.45
   2 -10  -6    7.66    0.22
   0 -10  -6   10.44    0.29
  -2 -10  -6    8.10    0.88
  -2 -10  -6    7.70    0.22
  -4 -10  -6    9.47    0.89
  -4 -10  -6   10.24    0.28
   4  10   6    9.30    0.52
  -6 -10  -6   14.39    0.41
  -6 -10  -6   15.34    0.90
   6  10   6   12.58    0.60
  -8 -10  -6   14.45    0.40
   8  10   6   11.79    0.61
 -10 -10  -6    4.77    0.14
  10  10   6    3.89    0.49
 -12 -10  -6   13.68    0.38
  12  10   6   10.30    0.64
 -14 -10  -6    9.70    0.27
  14  10   6    8.41    0.64
 -16 -10  -6   16.89    0.47
  16  10   6   12.90    0.79
 -18 -10  -6   13.13    0.37
  18  10   6    9.30    0.77
 -11  11   6   16.04    0.89
  -9  11   6    7.55    0.66
   1 -11  -6   64.72    1.81
  -1 -11  -6   66.68    1.82
  -1 -11  -6   63.55    2.24
  -3 -11  -6   22.40    1.12
  -3 -11  -6   22.79    0.63
  -5 -11  -6    8.81    0.25
  -5 -11  -6    9.41    0.95
   5  11   6    8.85    0.54
  -7 -11  -6   18.45    1.05
  -7 -11  -6   18.73    0.52
   7  11   6   14.56    0.66
  -9 -11  -6    8.36    0.24
   9  11   6    7.61    0.55
 -11 -11  -6   20.52    0.57
  11  11   6   16.01    0.75
 -13 -11  -6   12.23    0.34
  13  11   6    8.91    0.65
 -15 -11  -6   15.46    0.43
  15  11   6   11.20    0.74
 -17 -11  -6   12.41    0.35
  17  11   6    8.70    0.74
 -10  12   6   10.83    0.67
   4 -12  -6    2.68    0.27
   2 -12  -6    6.27    0.18
   0 -12  -6   13.48    0.38
  -2 -12  -6    7.23    0.80
  -2 -12  -6    6.14    0.18
  -4 -12  -6    3.97    0.63
  -4 -12  -6    3.29    0.10
   4  12   6    2.77    0.35
  -6 -12  -6   12.11    1.04
  -6 -12  -6   10.44    0.30
   6  12   6    8.02    0.55
  -8 -12  -6   15.96    0.45
  -8 -12  -6   17.16    1.15
   8  12   6   13.17    0.67
 -10 -12  -6   14.56    0.41
  10  12   6   11.75    0.67
 -12 -12  -6    0.08    0.02
  12  12   6    0.25    0.39
 -14 -12  -6   14.09    0.40
  14  12   6    9.95    0.72
 -16 -12  -6   11.37    0.32
  16  12   6    8.60    0.72
 -18 -12  -6    2.23    0.07
  18  12   6    1.47    0.53
   3 -13  -6   16.15    0.45
   1 -13  -6   47.03    1.32
  -1 -13  -6   46.29    1.81
  -1 -13  -6   46.61    1.30
  -3 -13  -6   15.96    0.45
  -3 -13  -6   15.80    1.16
  -5 -13  -6    3.22    0.64
  -5 -13  -6    4.33    0.12
   5  13   6    3.88    0.48
  -7 -13  -6   11.38    0.96
  -7 -13  -6   10.81    0.31
   7  13   6    9.39    0.60
  -9 -13  -6   23.82    0.69
  -9 -13  -6   26.22    1.39
   9  13   6   18.23    0.82
 -11 -13  -6   11.69    0.33
  11  13   6   10.21    0.69
 -13 -13  -6   12.56    0.35
  13  13   6    8.79    0.70
 -15 -13  -6    6.30    0.18
  15  13   6    4.77    0.55
 -17 -13  -6    8.73    0.25
  17  13   6    5.96    0.62
   2 -14  -6    3.80    0.11
   0 -14  -6    3.81    0.11
  -2 -14  -6    4.35    0.70
  -2 -14  -6    4.40    0.13
  -4 -14  -6    2.43    0.07
  -4 -14  -6    1.75    0.74
   4  14   6    2.19    0.36
  -6 -14  -6   11.16    0.31
  -6 -14  -6   10.40    1.12
   6  14   6    9.70    0.61
   6  14   6    9.65    0.39
  -8 -14  -6   15.88    1.23
  -8 -14  -6   14.84    0.42
   8  14   6   12.16    0.67
 -10 -14  -6   11.56    0.32
 -10 -14  -6    9.47    1.15
  10  14   6    8.72    0.66
 -12 -14  -6   14.47    0.41
 -12 -14  -6   15.90    1.26
  12  14   6   11.34    0.75
 -14 -14  -6    3.23    0.10
  14  14   6    2.24    0.50
 -16 -14  -6    2.52    0.08
  16  14   6    1.81    0.51
   3 -15  -6    5.00    0.14
   1 -15  -6   18.06    0.51
  -1 -15  -6   20.11    1.33
  -1 -15  -6   18.34    0.52
  -3 -15  -6    4.70    0.73
  -3 -15  -6    4.83    0.14
  -5 -15  -6    2.17    0.79
  -5 -15  -6    2.31    0.07
   5  15   6    1.68    0.37
  -7 -15  -6    9.11    1.01
  -7 -15  -6   10.70    0.29
   7  15   6    7.96    0.61
   7  15   6    8.53    0.40
  -9 -15  -6   21.90    0.61
  -9 -15  -6   20.93    1.44
   9  15   6   16.66    0.81
 -11 -15  -6   17.65    0.49
 -11 -15  -6   17.48    1.39
  11  15   6   13.05    0.79
 -13 -15  -6    6.84    0.96
 -13 -15  -6    6.66    0.19
  13  15   6    4.66    0.55
 -15 -15  -6    3.23    0.73
 -15 -15  -6    3.30    0.10
  15  15   6    2.79    0.53
   2 -16  -6    1.81    0.06
   0 -16  -6   10.98    0.31
  -2 -16  -6    1.14    0.80
  -2 -16  -6    1.88    0.06
  -4 -16  -6    0.74    0.64
  -4 -16  -6    1.36    0.05
   4  16   6    0.86    0.36
  -6 -16  -6    5.36    0.15
  -6 -16  -6    5.63    0.82
   6  16   6    4.55    0.55
  -8 -16  -6   20.57    0.57
  -8 -16  -6   19.17    1.31
   8  16   6   14.93    0.77
 -10 -16  -6   18.68    1.31
 -10 -16  -6   20.19    0.56
  10  16   6   14.77    0.82
 -12 -16  -6   12.83    1.15
 -12 -16  -6   12.45    0.35
  12  16   6    8.79    0.75
 -14 -16  -6    2.40    0.08
 -14 -16  -6    2.49    0.90
  14  16   6    1.56    0.52
   3 -17  -6    0.98    0.04
   1 -17  -6   11.94    0.34
  -1 -17  -6   12.44    0.35
  -3 -17  -6    0.84    0.03
  -3 -17  -6    0.51    0.84
   3  17   6    1.25    0.38
  -5 -17  -6    7.63    1.04
  -5 -17  -6    8.66    0.24
   5  17   6    5.95    0.58
  -7 -17  -6   28.43    1.56
  -7 -17  -6   29.43    0.81
   7  17   6   21.44    0.93
  -9 -17  -6   28.16    0.78
  -9 -17  -6   26.59    1.54
   9  17   6   19.70    0.91
 -11 -17  -6   15.58    1.44
 -11 -17  -6   14.75    0.42
  11  17   6    9.85    0.75
 -13 -17  -6    8.59    0.25
 -13 -17  -6    9.37    1.13
  13  17   6    7.27    0.76
   2 -18  -6   10.43    0.29
   0 -18  -6    5.03    0.14
  -2 -18  -6   11.22    1.33
  -2 -18  -6   10.32    0.29
  -4 -18  -6    4.18    1.00
  -4 -18  -6    3.59    0.11
   4  18   6    3.00    0.45
  -6 -18  -6    8.01    0.98
  -6 -18  -6    8.22    0.23
   6  18   6    5.90    0.61
  -8 -18  -6    4.89    0.90
  -8 -18  -6    3.97    0.12
   8  18   6    3.23    0.48
 -10 -18  -6   18.19    1.49
 -10 -18  -6   16.05    0.46
  10  18   6   11.30    0.78
 -12 -18  -6    2.51    0.08
 -12 -18  -6    3.06    1.01
  12  18   6    2.32    0.54
   3 -19  -6    2.13    0.07
   1 -19  -6   10.66    0.30
  -1 -19  -6   10.49    0.30
  -3 -19  -6    2.55    0.85
  -3 -19  -6    2.12    0.07
   3  19   6    1.24    0.44
  -5 -19  -6    5.76    1.09
  -5 -19  -6    4.53    0.13
   5  19   6    3.36    0.47
  -7 -19  -6   16.57    0.46
  -7 -19  -6   15.00    1.34
   7  19   6   12.01    0.75
  -9 -19  -6   17.54    0.49
  -9 -19  -6   16.93    1.57
   9  19   6   11.95    0.77
   2 -20  -6    3.91    0.11
   0 -20  -6   10.59    0.30
  -2 -20  -6    3.99    0.12
  -4 -20  -6    1.13    0.04
  -4 -20  -6    1.78    1.02
   4  20   6    0.90    0.43
  -6 -20  -6   -0.16    0.80
   6  20   6    0.50    0.42
  -8 -20  -6   11.21    0.31
  -8 -20  -6   10.51    1.29
   8  20   6    7.14    0.68
   1 -21  -6    7.65    0.22
  -1 -21  -6    8.80    0.25
  -3 -21  -6    3.04    0.09
   3  21   6    2.47    0.49
  -5 -21  -6    1.83    0.06
  -5 -21  -6    1.53    1.09
   5  21   6    1.28    0.45
   4  21  -7    1.24    0.53
  -4 -21   7    0.73    0.04
   2  21  -7    2.88    0.52
  -2 -21   7    3.96    0.12
   0 -21   7   16.56    0.46
   0 -21   7   15.14    1.33
   2 -21   7    4.81    0.87
   2 -21   7    3.93    0.12
   4 -21   7    0.63    0.04
   4 -21   7    0.92    0.83
   7  20  -7    4.17    0.57
  -7 -20   7    7.19    0.21
   5  20  -7    0.76    0.49
  -5 -20   7    0.88    0.04
   3  20  -7    0.46    0.43
  -3 -20   7    0.72    0.03
  -1 -20   7    2.06    0.07
   1 -20   7    1.74    0.92
   1 -20   7    1.75    0.06
   3 -20   7    0.61    0.83
   3 -20   7    0.54    0.03
   5 -20   7    1.21    0.79
   5 -20   7    0.84    0.04
   7 -20   7    6.78    0.19
  10  19  -7   15.16    0.82
 -10 -19   7   27.26    0.76
   8  19  -7   13.17    0.85
  -8 -19   7   20.56    0.58
   6  19  -7    9.01    0.75
  -6 -19   7   14.76    0.41
   4  19  -7    1.62    0.51
  -4 -19   7    2.48    0.08
   2  19  -7    4.24    0.60
  -2 -19   7    6.76    0.19
   0 -19   7    9.98    0.28
   2 -19   7    6.28    0.18
   2 -19   7    5.61    0.95
   4 -19   7    2.16    0.80
   4 -19   7    2.14    0.07
   6 -19   7   13.96    0.39
   6 -19   7   12.99    1.17
   8 -19   7   19.42    0.54
  11  18  -7    5.90    0.76
 -11 -18   7   10.92    0.31
   9  18  -7    8.54    0.75
  -9 -18   7   14.87    0.42
   7  18  -7    2.38    0.50
  -7 -18   7    3.45    0.11
   5  18  -7    3.10    0.44
  -5 -18   7    3.79    0.11
   3  18  -7    2.07    0.51
  -3 -18   7    2.14    0.07
  -1 -18   7    4.78    0.14
   1 -18   7    4.81    0.14
   3 -18   7    1.88    0.78
   3 -18   7    2.09    0.07
   5 -18   7    3.96    0.79
   5 -18   7    3.39    0.10
   7 -18   7    3.11    0.09
   7 -18   7    3.16    0.73
   9 -18   7   13.94    0.39
  12  17  -7    5.39    0.63
 -12 -17   7    7.85    0.22
  10  17  -7   17.76    0.94
 -10 -17   7   29.02    0.81
   8  17  -7   19.20    0.94
  -8 -17   7   28.77    0.81
   6  17  -7   16.38    0.79
  -6 -17   7   25.33    0.71
   4  17  -7    2.45    0.49
  -4 -17   7    3.63    0.11
  -2 -17   7    4.79    0.14
   0 -17   7   21.68    0.61
   2 -17   7    4.77    0.14
   4 -17   7    3.09    0.09
   4 -17   7    4.30    0.76
   6 -17   7   22.53    0.62
   6 -17   7   21.68    1.25
   8 -17   7   27.21    0.76
  13  16  -7    3.68    0.62
 -13 -16   7    5.92    0.17
  11  16  -7   11.11    0.83
 -11 -16   7   16.90    0.47
   9  16  -7    9.37    0.65
  -9 -16   7   15.98    0.45
   7  16  -7   10.20    0.74
  -7 -16   7   14.77    0.42
   5  16  -7    1.71    0.45
  -5 -16   7    2.19    0.07
   3  16  -7    1.21    0.45
  -3 -16   7    1.51    0.05
  -1 -16   7    3.29    0.10
   1 -16   7    3.38    0.10
   3 -16   7    1.51    0.05
   3 -16   7    0.99    0.64
   5 -16   7    2.10    0.63
   5 -16   7    1.80    0.06
   7 -16   7   12.16    0.98
   7 -16   7   12.46    0.35
   9 -16   7   15.10    0.42
  14  15  -7    3.19    0.54
  14  15  -7    4.10    0.54
 -14 -15   7    3.93    0.12
  12  15  -7   10.63    0.75
 -12 -15   7   14.35    0.40
  10  15  -7   18.38    0.87
 -10 -15   7   24.69    0.69
   8  15  -7   13.92    0.80
  -8 -15   7   20.36    0.57
   6  15  -7    3.80    0.47
  -6 -15   7    5.74    0.16
   4  15  -7    0.83    0.42
  -4 -15   7    1.30    0.05
  -2 -15   7   15.00    0.42
   0 -15   7   26.95    0.75
   2 -15   7   13.92    0.39
   4 -15   7    0.89    0.03
   4 -15   7    0.89    0.57
   6 -15   7    5.10    0.66
   6 -15   7    4.61    0.13
   8 -15   7   17.94    0.50
  15  14  -7    3.54    0.55
  15  14  -7    2.93    0.66
 -15 -14   7    3.78    0.11
  13  14  -7    2.94    0.50
  13  14  -7    2.63    0.52
 -13 -14   7    3.19    0.10
  11  14  -7    7.33    0.65
  11  14  -7    6.51    0.66
 -11 -14   7    8.80    0.25
   9  14  -7   10.54    0.75
  -9 -14   7   14.73    0.41
   7  14  -7    8.61    0.67
  -7 -14   7   12.04    0.34
   5  14  -7    2.67    0.38
  -5 -14   7    4.04    0.12
   3  14  -7    1.34    0.42
  -3 -14   7    2.21    0.07
  -1 -14   7    5.05    0.15
   1 -14   7    4.78    0.14
   3 -14   7    1.94    0.06
   5 -14   7    3.61    0.10
   5 -14   7    3.46    0.59
   7 -14   7   10.79    0.86
   7 -14   7   11.11    0.31
   9 -14   7   14.02    0.39
  16  13  -7    4.70    0.61
  16  13  -7    5.44    0.71
 -16 -13   7    5.44    0.16
  14  13  -7    2.90    0.58
  14  13  -7    3.31    0.55
 -14 -13   7    3.09    0.09
  12  13  -7    9.38    0.73
  12  13  -7   10.58    0.84
 -12 -13   7   11.67    0.33
  10  13  -7   13.39    0.82
  10  13  -7   12.99    0.77
 -10 -13   7   15.10    0.42
   8  13  -7   10.89    0.71
  -8 -13   7   13.70    0.38
   6  13  -7    3.47    0.45
  -6 -13   7    4.86    0.14
   4  13  -7    9.59    0.66
  -4 -13   7   12.11    0.34
  -2 -13   7   32.14    0.90
   0 -13   7   42.21    1.18
   2 -13   7   29.09    0.81
   4 -13   7   10.45    0.29
   6 -13   7    4.21    0.12
   6 -13   7    4.49    0.57
   8 -13   7   12.48    0.35
  17  12  -7    6.33    0.75
  17  12  -7    5.75    0.68
 -17 -12   7    7.35    0.21
  15  12  -7   11.48    0.94
  15  12  -7   11.66    0.84
 -15 -12   7   12.87    0.36
  13  12  -7   10.64    0.87
  13  12  -7    9.13    0.74
 -13 -12   7   11.16    0.31
  11  12  -7    7.34    0.66
  11  12  -7    7.12    0.73
 -11 -12   7    8.13    0.23
   9  12  -7    9.01    0.68
   9  12  -7    9.47    0.71
  -9 -12   7   10.99    0.31
   7  12  -7    8.95    0.59
  -7 -12   7   11.06    0.31
   5  12  -7    1.34    0.33
  -5 -12   7    2.16    0.07
   3  12  -7    5.98    0.59
  -3 -12   7    8.08    0.23
  -1 -12   7   10.40    0.29
   1 -12   7    9.95    0.28
   3 -12   7    6.91    0.20
   5 -12   7    2.36    0.50
   5 -12   7    2.15    0.07
   7 -12   7   10.66    0.30
   7 -12   7   11.29    0.77
  18  11  -7    6.80    0.78
 -18 -11   7    8.19    0.23
  16  11  -7   13.99    0.99
 -16 -11   7   13.85    0.39
  14  11  -7    7.08    0.75
  14  11  -7    8.26    0.73
 -14 -11   7    7.81    0.22
  12  11  -7    7.21    0.67
  12  11  -7    7.18    0.67
 -12 -11   7    7.56    0.21
  10  11  -7    8.29    0.72
  10  11  -7    7.67    0.66
 -10 -11   7    8.26    0.23
   8  11  -7   13.10    0.69
   8  11  -7   14.18    0.76
  -8 -11   7   15.67    0.44
   6  11  -7    8.04    0.56
  -6 -11   7   10.35    0.29
   4  11  -7   21.06    0.88
  -4 -11   7   27.70    0.78
  -2 -11   7   47.53    1.33
   0 -11   7   49.03    1.37
   2 -11   7   41.28    1.15
   4 -11   7   24.29    0.68
   6 -11   7   10.11    0.72
   6 -11   7   10.12    0.28
   8 -11   7   16.38    0.46
 -18  11  -7    9.80    1.62
  19  10  -7   18.75    1.18
 -19 -10   7   20.83    0.58
  17  10  -7   21.23    1.05
 -17 -10   7   22.53    0.63
  15  10  -7   21.10    1.10
 -15 -10   7   21.63    0.61
  13  10  -7   14.02    0.81
  13  10  -7   12.24    0.82
 -13 -10   7   13.86    0.39
  11  10  -7    7.13    0.68
  11  10  -7    8.65    0.75
 -11 -10   7    7.82    0.22
   9  10  -7    9.62    0.71
   9  10  -7    9.05    0.67
  -9 -10   7    9.39    0.26
   7  10  -7    7.84    0.63
   7  10  -7    8.49    0.70
  -7 -10   7    9.11    0.26
   5  10  -7   14.01    0.66
  -5 -10   7   15.62    0.44
   3  10  -7    5.53    0.55
  -3 -10   7    7.93    0.22
  -1 -10   7   11.00    0.31
   1 -10   7   10.15    0.29
   3 -10   7    7.29    0.21
   5 -10   7   14.65    0.41
   7 -10   7    9.44    0.27
   7 -10   7    9.49    0.72
 -17  10  -7   26.93    2.34
 -19  10  -7   24.86    2.18
  18   9  -7   10.74    0.84
 -18  -9   7   10.81    0.30
  16   9  -7   11.40    0.92
 -16  -9   7   12.41    0.35
  14   9  -7   12.95    0.90
 -14  -9   7   12.35    0.35
  12   9  -7   10.33    0.70
 -12  -9   7   10.24    0.29
  10   9  -7    8.67    0.69
  10   9  -7    8.62    0.72
 -10  -9   7    8.97    0.25
   8   9  -7    3.84    0.47
   8   9  -7    3.53    0.46
  -8  -9   7    3.55    0.10
   6   9  -7    7.85    0.53
  -6  -9   7    8.06    0.23
   4   9  -7   19.97    0.82
  -4  -9   7   24.46    0.68
  -2  -9   7   83.49    2.33
   0  -9   7   64.15    1.79
   2  -9   7   76.05    2.13
   4  -9   7   24.84    0.69
   6  -9   7    8.34    0.24
   6  -9   7    9.12    0.67
   8  -9   7    3.91    0.11
 -16   9  -7   13.81    1.88
 -18   9  -7   13.85    2.01
  19   8  -7   14.87    1.05
 -19  -8   7   15.69    0.44
  17   8  -7   21.43    1.15
 -17  -8   7   21.47    0.60
  15   8  -7   14.92    0.95
 -15  -8   7   15.23    0.43
  13   8  -7   11.47    0.82
 -13  -8   7   11.47    0.32
  11   8  -7   14.13    0.76
 -11  -8   7   14.01    0.39
   9   8  -7    3.19    0.48
   9   8  -7    3.21    0.41
  -9  -8   7    3.20    0.40
  -9  -8   7    3.37    0.10
   7   8  -7   14.20    0.73
   7   8  -7   13.86    0.76
  -7  -8   7   13.81    0.39
   5   8  -7    6.31    0.55
  -5  -8   7    6.59    0.19
   3   8  -7   77.55    2.32
  -3  -8   7   87.66    2.45
  -1  -8   7   36.09    1.01
   1  -8   7   33.99    0.95
   3  -8   7   82.33    2.30
   5  -8   7    6.56    0.19
   7  -8   7   16.21    0.75
   7  -8   7   15.48    0.44
 -15   8  -7   18.77    1.82
 -17   8  -7   24.05    2.08
 -19   8  -7   17.50    2.05
  20   7  -7    5.16    0.71
 -20  -7   7    5.38    0.15
  18   7  -7    2.94    0.54
 -18  -7   7    2.53    0.08
  16   7  -7   10.99    0.89
 -16  -7   7   11.24    0.32
  14   7  -7    8.96    0.78
 -14  -7   7    9.48    0.27
  12   7  -7   10.21    0.76
 -12  -7   7    9.33    0.26
  10   7  -7    8.46    0.69
 -10  -7   7    8.16    0.23
 -10  -7   7    7.74    0.59
   8   7  -7   15.58    0.81
   8   7  -7   13.83    0.76
  -8  -7   7   13.24    0.67
  -8  -7   7   13.06    0.37
   6   7  -7    9.79    0.60
   6   7  -7    9.71    0.65
  -6  -7   7    9.20    0.26
   4   7  -7    6.53    0.51
  -4  -7   7    6.16    0.17
  -2  -7   7   21.82    0.61
   4  -7   7    5.84    0.16
   6  -7   7   10.58    0.30
   6  -7   7   10.46    0.61
 -14   7  -7   10.68    1.31
 -16   7  -7   10.30    1.39
 -18   7  -7    3.28    1.09
 -20   7  -7    5.17    1.46
  19   6  -7   10.42    0.93
 -19  -6   7   10.85    0.31
  17   6  -7   18.99    1.04
 -17  -6   7   18.24    0.51
  15   6  -7    4.37    0.60
 -15  -6   7    4.33    0.12
  13   6  -7    3.51    0.53
 -13  -6   7    3.78    0.11
  11   6  -7    9.76    0.73
 -11  -6   7    8.49    0.24
 -11  -6   7    8.13    0.61
   9   6  -7    8.00    0.66
  -9  -6   7    7.06    0.20
  -9  -6   7    6.73    0.48
   7   6  -7   10.33    0.63
   7   6  -7   10.83    0.70
  -7  -6   7    8.77    0.49
  -7  -6   7    9.06    0.25
   5   6  -7   26.52    0.98
   5   6  -7   27.44    0.96
  -5  -6   7   24.58    0.69
   3   6  -7    6.75    0.45
  -9   6  -7    7.61    0.58
 -13   6  -7    4.32    1.01
 -15   6  -7    3.99    1.10
 -17   6  -7   19.97    1.83
 -19   6  -7   11.16    1.50
  20   5  -7    0.24    0.58
 -20  -5   7    0.56    0.03
  18   5  -7    3.04    0.62
 -18  -5   7    2.68    0.08
  16   5  -7    1.77    0.54
 -16  -5   7    1.48    0.05
  14   5  -7    3.32    0.46
 -14  -5   7    3.06    0.09
  12   5  -7    1.68    0.47
 -12  -5   7    1.72    0.05
 -12  -5   7    1.71    0.36
  10   5  -7   15.43    0.80
 -10  -5   7   13.88    0.38
 -10  -5   7   12.79    0.68
   8   5  -7    6.43    0.58
  -8  -5   7    5.96    0.50
  -8  -5   7    5.63    0.16
   6   5  -7   27.44    0.99
   6   5  -7   28.92    1.07
  -6  -5   7   25.01    0.87
  -6  -5   7   24.52    0.69
   4   5  -7    2.54    0.30
   4   5  -7    2.73    0.35
   2   5  -7    6.72    0.40
   6  -5   7   29.75    0.97
  -8   5  -7    6.31    0.52
 -10   5  -7   13.16    1.29
 -10   5  -7   13.53    0.62
 -12   5  -7    2.33    0.89
 -14   5  -7    3.05    0.99
 -16   5  -7    1.06    0.99
 -18   5  -7    1.61    1.14
 -20   5  -7    0.71    0.03
  21   4  -7    0.27    0.46
 -21  -4   7    0.62    0.03
  19   4  -7    1.97    0.58
 -19  -4   7    1.51    0.05
  17   4  -7    2.90    0.57
 -17  -4   7    2.63    0.08
  15   4  -7    0.71    0.49
 -15  -4   7    0.92    0.04
  13   4  -7   10.43    0.76
 -13  -4   7    9.34    0.26
  11   4  -7   23.98    1.01
 -11  -4   7   21.22    0.59
 -11  -4   7   20.56    0.85
   9   4  -7   23.14    0.93
   9   4  -7   22.70    0.99
  -9  -4   7   18.28    0.76
  -9  -4   7   19.25    0.53
   7   4  -7    6.17    0.46
  -7  -4   7    6.23    0.40
  -7  -4   7    5.40    0.16
   5   4  -7    2.79    0.31
   5   4  -7    2.43    0.36
  -5  -4   7    2.31    0.28
   3   4  -7    0.44    0.21
  -7   4  -7    6.39    0.47
  -9   4  -7   24.87    1.49
  -9   4  -7   21.61    0.86
 -11   4  -7   23.57    1.58
 -13   4  -7    8.76    1.12
 -15   4  -7    1.09    0.89
 -19   4  -7    1.55    0.05
 -21   4  -7    0.62    0.03
  20   3  -7    0.29    0.56
 -20  -3   7    0.28    0.03
  18   3  -7    1.84    0.48
 -18  -3   7    1.53    0.05
  16   3  -7    1.28    0.51
 -16  -3   7    1.19    0.04
  14   3  -7    2.14    0.50
 -14  -3   7    1.61    0.05
  12   3  -7    6.39    0.59
 -12  -3   7    5.79    0.17
 -12  -3   7    6.37    0.56
  10   3  -7    5.62    0.53
 -10  -3   7    5.74    0.16
 -10  -3   7    5.08    0.51
   8   3  -7   84.41    2.53
  -8  -3   7   72.89    2.17
  -8  -3   7   72.96    2.04
   6   3  -7    6.23    0.41
   6   3  -7    6.21    0.39
  -6  -3   7    6.09    0.40
   4   3  -7    0.27    0.28
   4   3  -7    0.60    0.22
  -4  -3   7    0.63    0.19
   2   3  -7    6.91    0.34
  -6   3  -7    6.96    0.76
  -6   3  -7    6.12    0.41
  -8   3  -7   79.35    2.37
  -8   3  -7   80.24    2.87
 -10   3  -7    7.28    1.16
 -10   3  -7    5.76    0.49
 -12   3  -7    6.58    1.04
 -14   3  -7    1.54    0.73
 -16   3  -7    1.06    0.04
 -18   3  -7    0.95    0.04
 -20   3  -7    0.32    0.03
  21   2  -7    3.83    0.65
 -21  -2   7    3.05    0.09
  19   2  -7    5.29    0.65
 -19  -2   7    5.06    0.15
  17   2  -7    4.09    0.60
 -17  -2   7    3.71    0.11
  15   2  -7   12.31    0.85
 -15  -2   7   10.84    0.30
  13   2  -7   28.60    1.10
 -13  -2   7   22.15    0.90
 -13  -2   7   25.18    0.67
  11   2  -7   43.12    1.48
 -11  -2   7   34.36    1.20
 -11  -2   7   36.96    1.00
   9   2  -7   73.05    2.22
  -9  -2   7   62.16    1.90
  -9  -2   7   62.28    1.74
   7   2  -7   20.58    0.76
  -7  -2   7   18.21    0.70
   5   2  -7    6.21    0.36
   5   2  -7    6.05    0.44
  -5  -2   7    6.23    0.35
   3   2  -7    6.81    0.34
   3   2  -7    7.30    0.45
  -3  -2   7    6.20    0.30
   1   2  -7   12.36    0.54
   1   2  -7   13.98    0.46
  -1   2  -7   12.91    0.66
  -3   2  -7    6.32    0.60
  -5   2  -7    6.73    0.34
  -5   2  -7    4.83    0.65
  -7   2  -7   19.96    0.74
  -7   2  -7   21.25    1.27
  -9   2  -7   72.92    2.61
  -9   2  -7   66.70    2.09
 -11   2  -7   37.86    1.89
 -11   2  -7   36.42    1.24
 -15   2  -7   11.30    0.32
 -17   2  -7    3.57    0.10
 -21   2  -7    2.20    0.07
  20   1  -7    1.71    0.59
 -20  -1   7    1.43    0.05
  18   1  -7    4.07    0.62
 -18  -1   7    3.75    0.11
  16   1  -7    2.56    0.54
 -16  -1   7    2.78    0.08
  14   1  -7    4.20    0.54
 -14  -1   7    3.77    0.11
  12   1  -7    9.95    0.75
 -12  -1   7    7.94    0.60
 -12  -1   7    8.04    0.23
  10   1  -7   10.73    0.72
 -10  -1   7    8.30    0.24
 -10  -1   7    8.89    0.57
   8   1  -7   32.19    1.12
  -8  -1   7   27.94    0.95
  -8  -1   7   26.35    0.76
   6   1  -7   49.49    1.52
  -6  -1   7   43.04    1.32
   4   1  -7    1.34    0.20
   4   1  -7    1.42    0.28
  -4  -1   7    1.17    0.17
   2   1  -7   13.88    0.46
  -2  -1   7   12.53    0.42
   0   1  -7    0.00    0.02
   0  -1   7    9.45    0.47
  -2   1  -7   12.45    0.69
   2  -1   7   11.56    0.61
  -4   1  -7    0.93    0.17
  -4   1  -7    1.28    0.45
  -6   1  -7   46.51    1.79
  -6   1  -7   45.74    1.39
  -8   1  -7   28.91    0.96
 -10   1  -7    8.32    0.50
 -12   1  -7    8.81    0.25
 -14   1  -7    3.73    0.11
 -16   1  -7    2.46    0.07
 -18   1  -7    2.63    0.08
 -20   1  -7    0.13    0.02
  21   0  -7   13.13    1.00
 -21   0   7   13.33    0.37
  19   0  -7    7.65    0.73
 -19   0   7    7.10    0.20
  17   0  -7   19.37    1.02
 -17   0   7   17.37    0.49
  15   0  -7   23.72    1.07
 -15   0   7   20.51    0.57
  13   0  -7   37.98    1.34
 -13   0   7   34.76    0.95
 -13   0   7   33.38    1.19
  11   0  -7   47.41    1.60
 -11   0   7   40.67    1.16
 -11   0   7   42.38    1.39
   9   0  -7   62.27    1.94
  -9   0   7   54.23    1.66
  -9   0   7   54.27    1.79
  -9   0   7   51.16    1.49
   7   0  -7   35.15    1.16
  -7   0   7   31.92    1.08
  -7   0   7   30.28    1.02
   5   0  -7   43.43    1.32
  -5   0   7   40.48    1.23
   3   0  -7    9.93    0.38
   3   0  -7    9.64    0.49
  -3   0   7    8.50    0.33
   1   0  -7    0.00    0.02
  -1   0   7    8.97    0.30
  -3   0  -7    9.38    0.33
  -5   0  -7   40.35    1.21
  -7   0  -7   30.52    0.95
  -7   0  -7   28.81    0.83
   7   0   7   36.35    1.17
  -9   0  -7   54.02    1.49
  -9   0  -7   52.36    1.63
   9   0   7   61.85    1.89
 -11   0  -7   40.44    1.07
 -11   0  -7   38.65    1.26
 -11   0  -7   35.84    1.13
  11   0   7   46.86    1.53
 -13   0  -7   35.10    0.98
  13   0   7   39.31    1.36
 -15   0  -7   19.76    0.55
  15   0   7   22.36    0.97
 -17   0  -7   16.22    0.45
  17   0   7   17.87    0.92
 -19   0  -7    6.53    0.19
 -21   0  -7   12.21    0.34
  20  -1  -7    1.50    0.51
 -20   1   7    1.30    0.05
  18  -1  -7    3.87    0.62
 -18   1   7    3.57    0.10
  16  -1  -7    2.83    0.54
 -16   1   7    2.66    0.08
  14  -1  -7    4.21    0.53
 -14   1   7    4.16    0.12
  12  -1  -7    9.35    0.73
 -12   1   7    8.14    0.55
 -12   1   7    8.66    0.24
 -12   1   7    8.63    0.83
  10  -1  -7    9.09    0.58
 -10   1   7    8.80    0.25
 -10   1   7    9.30    0.60
 -10   1   7    9.40    0.79
   8  -1  -7   31.77    1.10
  -8   1   7   29.02    0.97
   6  -1  -7   49.73    1.52
  -6   1   7   46.88    1.43
   4  -1  -7    1.28    0.22
   4  -1  -7    1.23    0.20
  -4   1   7    1.02    0.16
   2  -1  -7    0.04    0.04
  -2   1   7   13.36    0.43
   0   1   7    8.97    0.27
  -2  -1  -7   13.95    0.41
  -4  -1  -7    1.10    0.13
   4   1   7    1.20    0.17
   4   1   7    0.97    0.18
  -6  -1  -7   43.40    1.30
   6   1   7   50.01    1.50
  -8  -1  -7   27.97    0.78
  -8  -1  -7   27.82    0.92
   8   1   7   31.01    1.05
 -10  -1  -7    8.89    0.24
 -10  -1  -7    8.42    0.39
 -10  -1  -7    8.20    0.50
  10   1   7    9.43    0.58
 -12  -1  -7    8.28    0.23
  12   1   7    9.15    0.63
 -14  -1  -7    3.53    0.10
  14   1   7    3.68    0.46
 -16  -1  -7    2.63    0.08
  16   1   7    3.14    0.48
  18   1   7    3.58    0.54
 -20  -1  -7    1.23    0.04
  20   1   7    1.32    0.53
 -21   2   7    3.04    0.09
  19  -2  -7    4.68    0.58
 -19   2   7    4.86    0.14
  17  -2  -7    4.34    0.53
 -17   2   7    3.66    0.11
  15  -2  -7   12.61    0.83
 -15   2   7   11.45    0.32
 -15   2   7   10.86    1.00
  13  -2  -7   28.70    1.14
 -13   2   7   24.13    1.29
 -13   2   7   25.84    0.71
 -13   2   7   25.49    0.98
  11  -2  -7   43.70    1.49
 -11   2   7   39.54    1.35
   9  -2  -7   72.51    2.21
  -9   2   7   69.76    2.13
   7  -2  -7   20.63    0.78
  -7   2   7   20.66    0.78
   5  -2  -7    6.67    0.37
  -5   2   7    6.92    0.41
   3  -2  -7    7.28    0.30
   3  -2  -7    6.75    0.36
  -3   2   7    7.44    0.33
  -1   2   7   12.33    0.51
  -1   2   7   14.84    0.43
  -3  -2  -7    6.92    0.25
   3   2   7    6.85    0.26
   3   2   7    6.18    0.35
  -5  -2  -7    6.23    0.31
   5   2   7    6.25    0.33
  -7  -2  -7   21.06    0.70
  -7  -2  -7   18.06    0.53
  -7  -2  -7   18.15    0.66
   7   2   7   18.90    0.68
  -9  -2  -7   70.53    2.00
  -9  -2  -7   66.39    2.01
  -9  -2  -7   64.04    1.87
   9   2   7   72.99    2.19
 -11  -2  -7   36.25    1.23
 -11  -2  -7   38.66    1.05
  11   2   7   41.13    1.36
 -13  -2  -7   25.45    0.71
  13   2   7   27.27    1.04
 -15  -2  -7   10.94    0.31
  15   2   7   12.42    0.73
 -17  -2  -7    3.50    0.10
  17   2   7    4.04    0.52
 -19  -2  -7    4.88    0.14
  19   2   7    4.63    0.57
 -21  -2  -7    2.72    0.08
  21   2   7    2.89    0.49
 -20   3   7    0.34    0.03
 -18   3   7    1.64    0.06
  16  -3  -7    1.18    0.51
 -16   3   7    1.22    0.59
 -16   3   7    1.34    0.05
  14  -3  -7    2.14    0.49
 -14   3   7    1.82    0.63
  12  -3  -7    6.29    0.66
 -12   3   7    5.81    0.61
  10  -3  -7    6.29    0.52
 -10   3   7    5.97    0.58
   8  -3  -7   85.97    2.56
  -8   3   7   87.92    2.62
   6  -3  -7    6.77    0.43
  -6   3   7    7.32    0.45
  -4   3   7    0.66    0.22
  -2   3   7    8.13    0.33
   2   3   7    5.88    0.21
  -4  -3  -7    0.65    0.13
   4   3   7    0.63    0.15
  -6  -3  -7    6.91    0.45
  -6  -3  -7    6.88    0.37
   6   3   7    6.48    0.35
  -8  -3  -7   76.71    2.31
  -8  -3  -7   77.44    2.17
  -8  -3  -7   78.45    2.28
   8   3   7   77.35    2.28
 -10  -3  -7    5.38    0.44
 -10  -3  -7    5.90    0.16
  10   3   7    6.10    0.50
 -12  -3  -7    6.00    0.17
  12   3   7    6.36    0.56
 -14  -3  -7    1.60    0.05
  14   3   7    1.84    0.41
 -16  -3  -7    1.12    0.04
  16   3   7    1.20    0.43
 -18  -3  -7    1.72    0.05
  18   3   7    1.69    0.48
 -20  -3  -7    0.27    0.02
  20   3   7    0.65    0.41
 -21   4   7    0.27    0.03
 -19   4   7    1.50    0.05
 -19   4   7    1.80    0.74
 -17   4   7    3.34    0.84
 -17   4   7    2.79    0.09
 -15   4   7    0.68    0.58
 -13   4   7    9.67    0.70
 -11   4   7   23.57    0.98
  -9   4   7   23.10    0.88
  -7   4   7    7.89    0.53
  -5   4   7    2.90    0.28
   3  -4  -7    0.72    0.19
  -3   4   7    0.71    0.18
  -1   4   7    0.89    0.16
   3   4   7    0.79    0.12
  -5  -4  -7    2.66    0.35
  -5  -4  -7    2.72    0.27
   5   4   7    2.21    0.26
  -7  -4  -7    5.53    0.50
  -7  -4  -7    6.97    0.41
  -7  -4  -7    5.79    0.17
   7   4   7    5.85    0.37
  -9  -4  -7   20.52    0.76
  -9  -4  -7   21.29    0.59
   9   4   7   21.15    0.81
 -11  -4  -7   20.65    0.81
 -11  -4  -7   22.43    0.61
  11   4   7   22.17    0.86
 -13  -4  -7    9.06    0.25
  13   4   7    9.21    0.62
 -15  -4  -7    0.90    0.03
  15   4   7    0.67    0.40
 -17  -4  -7    2.61    0.08
  17   4   7    2.84    0.49
 -19  -4  -7    1.58    0.05
  19   4   7    1.73    0.42
 -21  -4  -7    0.49    0.03
  21   4   7    0.54    0.41
 -20   5   7    0.60    0.03
 -20   5   7    0.14    0.74
 -18   5   7    2.85    0.09
 -18   5   7    2.58    0.88
 -16   5   7    1.37    0.68
 -12   5   7    1.59    0.41
 -10   5   7   15.51    0.71
  -8   5   7    6.37    0.56
  -6   5   7   30.59    1.06
  -4   5   7    3.04    0.34
   2   5   7    6.76    0.30
  -4  -5  -7    2.54    0.37
   4   5   7    2.27    0.24
  -6  -5  -7   27.49    0.89
  -6  -5  -7   28.43    1.04
  -6  -5  -7   25.93    0.76
   6   5   7   24.35    0.80
  -8  -5  -7    6.14    0.52
  -8  -5  -7    6.42    0.46
  -8  -5  -7    5.97    0.17
   8   5   7    5.90    0.45
 -10  -5  -7   14.15    0.62
 -10  -5  -7   14.29    0.40
  10   5   7   12.87    0.61
 -12  -5  -7    2.06    0.06
  12   5   7    1.74    0.35
 -14  -5  -7    3.14    0.09
  14   5   7    2.85    0.42
 -16  -5  -7    1.49    0.05
  16   5   7    1.75    0.43
 -18  -5  -7    2.72    0.08
  18   5   7    2.64    0.50
 -20  -5  -7    0.57    0.03
  20   5   7    0.79    0.40
 -19   6   7   13.24    1.33
 -17   6   7   20.04    1.43
 -13   6   7    3.42    0.45
 -11   6   7    9.36    0.67
  -9   6   7    7.89    0.62
  -7   6   7   10.77    0.60
  -5   6   7   29.46    1.00
   3  -6  -7    6.95    0.39
   3   6   7    6.27    0.34
  -5  -6  -7   26.75    0.75
  -5  -6  -7   27.08    1.06
   5   6   7   23.66    0.76
  -7  -6  -7   10.62    0.52
  -7  -6  -7    9.65    0.28
  -7  -6  -7    9.42    0.65
   7   6   7    8.74    0.47
  -9  -6  -7    7.95    0.22
  -9  -6  -7    7.51    0.49
   9   6   7    6.99    0.46
 -11  -6  -7    9.25    0.26
  11   6   7    8.21    0.59
 -13  -6  -7    4.12    0.12
  13   6   7    4.09    0.51
 -15  -6  -7    4.34    0.12
  15   6   7    3.60    0.46
 -17  -6  -7   18.77    0.53
  17   6   7   17.70    0.88
 -19  -6  -7   11.29    0.32
  19   6   7   10.30    0.77
 -20   7   7    5.39    1.06
 -18   7   7    2.91    0.91
 -12   7   7    8.27    0.68
 -10   7   7    8.83    0.66
  -8   7   7   14.90    0.73
  -6   7   7   10.52    0.59
  -4  -7  -7    6.08    0.17
  -4  -7  -7    6.60    0.58
   4   7   7    6.09    0.36
  -6  -7  -7    9.84    0.71
  -6  -7  -7    9.88    0.28
   6   7   7    9.30    0.47
  -8  -7  -7   14.45    0.41
  -8  -7  -7   14.34    0.87
  -8  -7  -7   14.60    0.66
   8   7   7   12.81    0.56
 -10  -7  -7    8.60    0.24
 -10  -7  -7    7.74    0.60
  10   7   7    7.20    0.48
 -12  -7  -7    9.60    0.27
  12   7   7    8.70    0.57
 -14  -7  -7    9.41    0.26
  14   7   7    8.47    0.61
 -16  -7  -7   12.03    0.34
  16   7   7   10.60    0.71
 -18  -7  -7    2.77    0.08
  18   7   7    2.26    0.50
 -20  -7  -7    5.78    0.16
  20   7   7    5.01    0.58
 -19   8   7   18.88    1.64
 -11   8   7   14.30    0.78
  -9   8   7    2.82    0.41
  -7   8   7   15.34    0.73
   3  -8  -7   83.12    2.43
   1  -8  -7   35.85    1.00
  -1  -8  -7   36.42    1.02
   1   8   7   35.04    1.04
  -3  -8  -7   84.37    2.68
  -3  -8  -7   85.58    2.38
   3   8   7   82.01    2.39
  -5  -8  -7    7.90    0.72
  -5  -8  -7    6.26    0.18
   5   8   7    6.21    0.40
  -7  -8  -7   14.74    0.87
  -7  -8  -7   14.93    0.42
   7   8   7   12.91    0.56
  -9  -8  -7    2.85    0.51
  -9  -8  -7    3.42    0.44
  -9  -8  -7    3.77    0.10
   9   8   7    3.91    0.47
 -11  -8  -7   14.34    0.40
  11   8   7   12.05    0.61
 -13  -8  -7   11.72    0.33
  13   8   7    9.96    0.62
 -15  -8  -7   16.17    0.45
  15   8   7   13.53    0.74
 -17  -8  -7   21.97    0.61
  17   8   7   19.76    0.94
 -19  -8  -7   15.51    0.43
  19   8   7   11.93    0.82
 -12   9   7    9.23    0.70
 -10   9   7    9.22    0.66
  -8   9   7    3.77    0.43
   4  -9  -7   23.97    0.82
   0  -9  -7   65.57    1.83
  -2  -9  -7   81.34    2.27
  -4  -9  -7   25.17    1.10
  -4  -9  -7   25.12    0.70
   4   9   7   21.02    0.76
  -6  -9  -7    8.37    0.24
  -6  -9  -7    8.46    0.80
   6   9   7    7.57    0.45
  -8  -9  -7    3.69    0.10
  -8  -9  -7    3.18    0.56
   8   9   7    3.66    0.42
 -10  -9  -7   10.79    0.30
  10   9   7    8.44    0.53
 -12  -9  -7   10.83    0.30
  12   9   7    8.72    0.57
 -14  -9  -7   13.36    0.37
  14   9   7   10.37    0.67
 -16  -9  -7   12.81    0.36
  16   9   7   10.08    0.71
 -18  -9  -7   10.85    0.31
  18   9   7    9.48    0.76
 -11  10   7    7.10    0.65
  -9  10   7    9.24    0.67
   1 -10  -7    9.63    0.27
  -1 -10  -7   10.16    0.28
  -3 -10  -7    7.79    0.76
  -3 -10  -7    7.38    0.21
   3  10   7    5.87    0.44
  -5 -10  -7   14.76    0.99
  -5 -10  -7   14.64    0.41
   5  10   7   14.70    0.67
  -7 -10  -7    9.30    0.26
  -7 -10  -7    9.89    0.88
   7  10   7    7.71    0.49
  -9 -10  -7   10.24    0.29
  -9 -10  -7   10.10    0.88
   9  10   7    8.04    0.53
 -11 -10  -7    8.68    0.24
  11  10   7    7.67    0.55
 -13 -10  -7   15.37    0.43
  13  10   7   11.26    0.66
 -15 -10  -7   23.20    0.65
  15  10   7   16.98    0.84
 -17 -10  -7   23.41    0.66
  17  10   7   18.18    0.91
 -19 -10  -7   20.40    0.57
  19  10   7   17.43    0.95
 -10  11   7    7.36    0.66
   4 -11  -7   23.05    0.77
   2 -11  -7   42.24    1.18
   0 -11  -7   46.26    1.29
  -2 -11  -7   41.82    1.70
  -2 -11  -7   42.34    1.18
  -4 -11  -7   23.67    1.26
  -4 -11  -7   25.15    0.69
   4  11   7   21.71    0.81
  -6 -11  -7   10.12    0.84
  -6 -11  -7   10.24    0.29
   6  11   7    8.80    0.58
  -8 -11  -7   16.70    1.09
  -8 -11  -7   17.22    0.48
   8  11   7   13.91    0.70
 -10 -11  -7    9.08    0.26
 -10 -11  -7    9.25    0.92
  10  11   7    7.74    0.55
 -12 -11  -7    8.88    0.25
  12  11   7    6.07    0.56
 -14 -11  -7    8.71    0.25
  14  11   7    6.73    0.62
 -16 -11  -7   15.18    0.43
  16  11   7   11.00    0.75
 -18 -11  -7    9.47    0.27
  18  11   7    6.74    0.72
   1 -12  -7    8.93    0.25
  -1 -12  -7    9.52    0.27
  -3 -12  -7    7.18    0.83
  -3 -12  -7    6.78    0.19
  -5 -12  -7    2.50    0.58
  -5 -12  -7    2.01    0.06
   5  12   7    1.58    0.33
  -7 -12  -7   11.17    0.90
  -7 -12  -7   10.85    0.31
   7  12   7    9.37    0.56
  -9 -12  -7   10.99    1.03
  -9 -12  -7   12.38    0.34
   9  12   7    9.67    0.60
 -11 -12  -7    8.42    0.24
 -11 -12  -7   10.22    1.00
  11  12   7    6.70    0.58
 -13 -12  -7   12.24    1.06
 -13 -12  -7   12.84    0.36
  13  12   7   10.03    0.68
 -15 -12  -7   14.28    0.40
  15  12   7    9.31    0.71
 -17 -12  -7    6.27    0.80
 -17 -12  -7    7.14    0.20
  17  12   7    5.30    0.68
   2 -13  -7   28.44    0.79
   0 -13  -7   40.96    1.14
  -2 -13  -7   28.52    0.81
  -2 -13  -7   30.35    1.48
  -4 -13  -7   10.46    1.06
  -4 -13  -7   10.99    0.31
   4  13   7    9.62    0.62
  -6 -13  -7    4.48    0.67
  -6 -13  -7    4.27    0.12
   6  13   7    3.83    0.49
  -8 -13  -7   13.46    0.38
  -8 -13  -7   14.89    1.16
   8  13   7   11.77    0.64
 -10 -13  -7   16.91    0.47
 -10 -13  -7   15.50    1.20
  10  13   7   12.44    0.69
 -12 -13  -7   11.12    0.99
 -12 -13  -7   12.18    0.34
  12  13   7    9.63    0.75
 -14 -13  -7    3.90    0.78
 -14 -13  -7    3.68    0.11
  14  13   7    3.10    0.48
 -16 -13  -7    5.60    0.82
 -16 -13  -7    5.81    0.17
  16  13   7    3.43    0.51
   5 -14  -7    3.11    0.28
   1 -14  -7    4.22    0.12
  -1 -14  -7    4.69    0.13
  -3 -14  -7    1.66    0.74
  -3 -14  -7    2.00    0.06
  -5 -14  -7    3.55    0.77
  -5 -14  -7    3.72    0.11
   5  14   7    2.93    0.37
  -7 -14  -7   11.49    0.32
  -7 -14  -7   11.01    1.12
   7  14   7    9.02    0.65
  -9 -14  -7   14.87    0.42
  -9 -14  -7   14.60    1.23
   9  14   7   11.53    0.68
 -11 -14  -7    9.37    1.15
 -11 -14  -7    9.81    0.27
  11  14   7    7.99    0.66
 -13 -14  -7    3.62    0.11
 -13 -14  -7    3.56    0.83
  13  14   7    3.04    0.49
 -15 -14  -7    4.95    0.86
 -15 -14  -7    4.32    0.13
  15  14   7    2.99    0.51
   6 -15  -7    4.21    0.30
   2 -15  -7   13.66    0.38
   0 -15  -7   25.10    0.70
  -2 -15  -7   12.73    1.03
  -2 -15  -7   13.48    0.37
  -4 -15  -7    1.08    0.04
  -4 -15  -7    1.11    0.75
   4  15   7    0.88    0.34
  -6 -15  -7    5.70    0.88
  -6 -15  -7    4.70    0.14
   6  15   7    4.45    0.53
  -8 -15  -7   19.33    0.54
  -8 -15  -7   19.57    1.24
   8  15   7   14.35    0.73
 -10 -15  -7   26.40    0.71
 -10 -15  -7   23.01    1.53
  10  15   7   19.25    0.89
 -12 -15  -7   15.20    0.42
 -12 -15  -7   14.68    1.32
  12  15   7   10.62    0.74
 -14 -15  -7    4.33    0.13
 -14 -15  -7    4.85    0.90
  14  15   7    3.00    0.51
   1 -16  -7    3.40    0.10
  -1 -16  -7    3.00    0.09
  -3 -16  -7    0.63    0.81
  -3 -16  -7    1.39    0.05
   3  16   7    1.18    0.37
  -5 -16  -7    0.95    0.80
  -5 -16  -7    1.95    0.06
   5  16   7    1.28    0.37
  -7 -16  -7   13.74    0.39
  -7 -16  -7   15.42    1.16
   7  16   7   11.12    0.68
  -9 -16  -7   15.10    0.43
  -9 -16  -7   16.56    1.23
   9  16   7   11.94    0.72
 -11 -16  -7   16.80    1.42
 -11 -16  -7   17.54    0.49
  11  16   7   12.19    0.78
 -13 -16  -7    6.05    0.17
 -13 -16  -7    6.65    0.87
  13  16   7    4.40    0.56
   2 -17  -7    4.59    0.13
   0 -17  -7   19.78    0.55
  -2 -17  -7    4.90    0.14
  -4 -17  -7    3.44    0.80
  -4 -17  -7    3.27    0.10
   4  17   7    3.02    0.43
  -6 -17  -7   23.82    1.43
  -6 -17  -7   24.18    0.67
   6  17   7   18.39    0.84
  -8 -17  -7   25.24    1.52
  -8 -17  -7   28.65    0.77
   8  17   7   20.17    0.90
 -10 -17  -7   29.42    1.72
 -10 -17  -7   27.93    0.79
  10  17   7   20.49    0.95
 -12 -17  -7    7.61    1.08
 -12 -17  -7    7.78    0.22
  12  17   7    5.97    0.70
   1 -18  -7    4.44    0.13
  -1 -18  -7    4.62    0.13
  -3 -18  -7    1.85    0.06
  -3 -18  -7    1.76    0.77
   3  18   7    2.13    0.43
  -5 -18  -7    3.51    0.10
  -5 -18  -7    3.58    1.00
   5  18   7    2.22    0.43
  -7 -18  -7    3.67    0.87
  -7 -18  -7    3.30    0.10
   7  18   7    2.20    0.45
  -9 -18  -7   14.43    0.41
  -9 -18  -7   14.42    1.47
   9  18   7    9.44    0.72
 -11 -18  -7   10.17    0.29
 -11 -18  -7   10.38    1.20
  11  18   7    8.13    0.73
   2 -19  -7    6.13    0.17
   0 -19  -7    9.58    0.27
  -2 -19  -7    5.87    0.17
  -4 -19  -7    2.09    0.99
  -4 -19  -7    1.88    0.06
   4  19   7    1.52    0.43
  -6 -19  -7   14.20    0.40
  -6 -19  -7   15.20    1.32
   6  19   7   10.29    0.70
  -8 -19  -7   19.31    1.44
  -8 -19  -7   19.14    0.54
   8  19   7   14.01    0.79
 -10 -19  -7   27.01    1.80
 -10 -19  -7   26.36    0.74
  10  19   7   18.08    0.93
   1 -20  -7    1.95    0.06
  -1 -20  -7    1.96    0.06
  -3 -20  -7    0.61    0.03
   3  20   7    0.37    0.43
  -5 -20  -7    0.45    0.82
  -5 -20  -7    0.90    0.03
   5  20   7    0.63    0.42
  -7 -20  -7    7.61    1.08
  -7 -20  -7    7.21    0.21
   7  20   7    5.11    0.64
   2 -21  -7    4.10    0.12
   0 -21  -7   15.60    0.44
  -2 -21  -7    4.11    0.12
   2  21   7    2.76    0.50
  -4 -21  -7    0.66    0.03
   4  21   7    0.43    0.44
   3  21  -8    0.98    0.47
  -3 -21   8    2.63    0.09
  -1 -21   8    7.03    0.20
   1 -21   8    6.11    1.09
   1 -21   8    6.63    0.19
   3 -21   8    1.73    0.06
   3 -21   8    2.56    0.75
   6  20  -8    3.00    0.47
  -6 -20   8    5.57    0.16
   4  20  -8    0.48    0.50
  -4 -20   8    0.42    0.04
   2  20  -8    1.46    0.56
  -2 -20   8    2.38    0.08
   0 -20   8    0.27    0.03
   2 -20   8    2.00    0.76
   2 -20   8    2.05    0.07
   4 -20   8    0.09    0.61
   4 -20   8    0.30    0.03
   6 -20   8    5.01    0.87
   6 -20   8    5.70    0.16
   9  19  -8   20.27    1.01
  -9 -19   8   35.86    1.00
   7  19  -8    8.57    0.76
  -7 -19   8   13.37    0.38
   5  19  -8    4.14    0.56
  -5 -19   8    6.75    0.19
   3  19  -8    0.56    0.50
  -3 -19   8    0.21    0.03
  -1 -19   8    5.52    0.16
   1 -19   8    5.65    0.16
   3 -19   8    0.91    0.76
   5 -19   8    6.20    0.18
   5 -19   8    7.01    0.90
   7 -19   8   11.95    0.34
   7 -19   8   11.92    1.10
   9 -19   8   34.10    0.95
  10  18  -8    1.20    0.51
 -10 -18   8    2.40    0.08
   8  18  -8   11.52    0.80
  -8 -18   8   18.56    0.52
   6  18  -8    1.39    0.48
  -6 -18   8    2.08    0.07
   4  18  -8    3.21    0.53
  -4 -18   8    4.48    0.13
   2  18  -8    0.36    0.41
  -2 -18   8    0.80    0.04
   0 -18   8   12.20    0.34
   2 -18   8    0.76    0.03
   4 -18   8    4.21    0.80
   4 -18   8    3.69    0.11
   6 -18   8    2.20    0.07
   6 -18   8    2.14    0.71
   8 -18   8   16.99    0.48
  11  17  -8    9.67    0.71
 -11 -17   8   16.28    0.46
   9  17  -8   14.75    0.77
  -9 -17   8   24.70    0.69
   7  17  -8   18.72    0.93
  -7 -17   8   28.66    0.80
   5  17  -8   10.13    0.74
  -5 -17   8   13.66    0.38
   3  17  -8    0.66    0.47
  -3 -17   8    0.43    0.03
  -1 -17   8   16.50    0.46
   1 -17   8   15.99    0.45
   3 -17   8    0.72    0.67
   3 -17   8    0.42    0.02
   5 -17   8   11.99    0.33
   5 -17   8   11.26    1.03
   7 -17   8   22.61    1.28
   7 -17   8   25.51    0.69
   9 -17   8   23.68    0.66
  14  16  -8    2.76    0.54
 -14 -16   8    4.50    0.13
  12  16  -8    1.95    0.56
 -12 -16   8    3.52    0.11
  10  16  -8   18.52    0.95
 -10 -16   8   26.40    0.74
   8  16  -8    9.86    0.65
  -8 -16   8   17.19    0.48
   6  16  -8    5.08    0.63
  -6 -16   8    6.95    0.20
   4  16  -8    0.14    0.42
  -4 -16   8    0.39    0.03
  -2 -16   8    3.49    0.10
   0 -16   8    1.16    0.05
   2 -16   8    3.31    0.10
   4 -16   8    0.36    0.03
   4 -16   8    0.51    0.60
   6 -16   8    6.70    0.73
   6 -16   8    5.81    0.17
   8 -16   8   14.56    0.41
  15  15  -8   -0.44    0.60
  15  15  -8    0.25    0.55
  13  15  -8    6.30    0.69
 -13 -15   8    7.77    0.22
  11  15  -8   17.29    0.95
 -11 -15   8   25.07    0.70
   9  15  -8   14.01    0.74
  -9 -15   8   20.82    0.58
   7  15  -8    6.55    0.65
  -7 -15   8   10.31    0.29
   5  15  -8    2.05    0.43
  -5 -15   8    2.47    0.08
   3  15  -8    4.40    0.45
  -3 -15   8    6.83    0.19
  -1 -15   8   22.12    0.62
   1 -15   8   20.99    0.59
   3 -15   8    6.19    0.18
   5 -15   8    2.05    0.59
   5 -15   8    2.23    0.07
   7 -15   8    9.49    0.84
   7 -15   8    8.69    0.25
   9 -15   8   19.83    0.56
  16  14  -8    3.81    0.59
  16  14  -8    3.08    0.68
 -16 -14   8    4.31    0.13
  14  14  -8    5.29    0.59
  14  14  -8    4.97    0.59
 -14 -14   8    5.65    0.16
  12  14  -8    5.18    0.63
  12  14  -8    5.41    0.63
 -12 -14   8    6.82    0.19
  10  14  -8   10.68    0.69
 -10 -14   8   13.84    0.39
   8  14  -8    7.66    0.66
  -8 -14   8   10.13    0.29
   6  14  -8    2.70    0.44
  -6 -14   8    3.98    0.12
   4  14  -8    2.62    0.44
  -4 -14   8    3.81    0.11
  -2 -14   8    1.62    0.06
   0 -14   8    9.08    0.26
   2 -14   8    1.52    0.05
   4 -14   8    3.47    0.10
   6 -14   8    3.39    0.57
   6 -14   8    3.31    0.10
   8 -14   8    8.93    0.78
   8 -14   8    9.39    0.26
  15  13  -8    5.60    0.72
  15  13  -8    6.92    0.73
 -15 -13   8    7.12    0.20
  13  13  -8    1.91    0.59
  13  13  -8    2.70    0.51
 -13 -13   8    3.19    0.09
  11  13  -8    8.95    0.78
  11  13  -8    9.62    0.73
 -11 -13   8   10.67    0.30
   9  13  -8    8.75    0.70
  -9 -13   8   10.22    0.29
   7  13  -8    8.52    0.66
  -7 -13   8   11.31    0.32
   5  13  -8    5.58    0.51
  -5 -13   8    8.10    0.23
   3  13  -8   14.10    0.70
  -3 -13   8   18.55    0.52
  -1 -13   8   46.94    1.31
   1 -13   8   44.80    1.25
   3 -13   8   16.59    0.46
   5 -13   8    7.11    0.20
   5 -13   8    6.88    0.75
   7 -13   8   10.65    0.84
   7 -13   8   10.13    0.29
   9 -13   8    9.84    0.28
  16  12  -8    3.18    0.59
  16  12  -8    3.79    0.57
 -16 -12   8    3.60    0.11
  14  12  -8    5.76    0.70
  14  12  -8    6.95    0.73
 -14 -12   8    6.21    0.18
  12  12  -8    8.84    0.81
  12  12  -8    7.95    0.71
 -12 -12   8    9.41    0.27
  10  12  -8    3.24    0.51
  10  12  -8    2.50    0.47
 -10 -12   8    3.06    0.09
   8  12  -8    8.61    0.67
  -8 -12   8    9.70    0.27
   6  12  -8    3.17    0.44
  -6 -12   8    4.24    0.12
   4  12  -8    0.58    0.39
  -4 -12   8    0.56    0.03
  -2 -12   8    9.55    0.27
   0 -12   8    8.66    0.24
   2 -12   8    8.72    0.25
   4 -12   8    0.59    0.03
   6 -12   8    3.83    0.11
   6 -12   8    3.95    0.57
   8 -12   8   10.49    0.78
   8 -12   8    8.94    0.26
  17  11  -8   12.12    0.86
  17  11  -8   12.43    0.95
 -17 -11   8   13.93    0.39
  15  11  -8   18.98    0.99
  15  11  -8   20.48    1.05
 -15 -11   8   21.63    0.61
  13  11  -8    9.89    0.85
  13  11  -8    8.92    0.77
 -13 -11   8   10.20    0.29
  11  11  -8    4.38    0.52
  11  11  -8    5.01    0.60
 -11 -11   8    5.51    0.16
   9  11  -8   10.74    0.73
   9  11  -8   11.09    0.74
  -9 -11   8   12.59    0.35
   7  11  -8    6.57    0.62
  -7 -11   8    7.83    0.22
   5  11  -8    2.72    0.41
  -5 -11   8    3.49    0.10
   3  11  -8   68.43    2.12
  -3 -11   8   92.82    2.60
  -1 -11   8   87.49    2.45
   1 -11   8   80.60    2.25
   3 -11   8   80.69    2.26
   5 -11   8    3.32    0.10
   7 -11   8    8.43    0.64
   7 -11   8    8.07    0.23
 -17  11  -8   15.81    1.87
  18  10  -8    0.57    0.68
 -18 -10   8    1.65    0.06
  16  10  -8   21.79    1.15
 -16 -10   8   21.63    0.61
  14  10  -8   11.61    0.79
  14  10  -8   11.91    0.85
 -14 -10   8   12.14    0.34
  12  10  -8    1.86    0.49
  12  10  -8    3.82    0.49
 -12 -10   8    3.13    0.09
  10  10  -8    6.31    0.68
  10  10  -8    5.62    0.64
 -10 -10   8    6.20    0.18
   8  10  -8    6.36    0.63
   8  10  -8    5.88    0.54
  -8 -10   8    6.20    0.18
   6  10  -8   10.56    0.60
  -6 -10   8   12.88    0.36
   4  10  -8   19.38    0.78
  -4 -10   8   24.29    0.68
  -2 -10   8    5.93    0.17
   0 -10   8    7.35    0.21
   2 -10   8    5.39    0.15
   4 -10   8   21.42    0.60
   6 -10   8   12.63    0.35
   6 -10   8   12.69    0.78
   8 -10   8    6.92    0.20
 -16  10  -8   25.56    2.27
 -18  10  -8    1.38    1.46
  19   9  -8   24.49    1.29
 -19  -9   8   24.99    0.70
  17   9  -8   18.40    1.10
 -17  -9   8   18.39    0.52
  15   9  -8   16.42    0.99
 -15  -9   8   16.72    0.47
  13   9  -8    9.29    0.71
  13   9  -8    8.84    0.77
 -13  -9   8    8.98    0.25
  11   9  -8   12.08    0.80
  11   9  -8   11.16    0.78
 -11  -9   8   11.06    0.31
   9   9  -8    1.76    0.46
   9   9  -8    2.11    0.45
  -9  -9   8    2.41    0.07
   7   9  -8    8.38    0.55
   7   9  -8    7.44    0.66
  -7  -9   8    8.26    0.23
   5   9  -8   27.05    0.97
  -5  -9   8   31.56    0.88
   3   9  -8    6.03    0.46
  -3  -9   8    8.28    0.23
  -1  -9   8  104.41    2.92
   1  -9   8   96.86    2.71
   3  -9   8    7.54    0.21
   5  -9   8   31.83    0.89
   7  -9   8    8.70    0.25
   7  -9   8    9.82    0.64
 -15   9  -8   19.51    1.91
 -17   9  -8   22.13    2.14
 -19   9  -8   33.34    2.54
  18   8  -8   13.95    0.90
 -18  -8   8   13.77    0.39
  16   8  -8   12.30    0.94
 -16  -8   8   12.69    0.36
  14   8  -8    8.67    0.70
 -14  -8   8    8.53    0.24
  12   8  -8    9.36    0.77
 -12  -8   8    8.27    0.23
  10   8  -8    5.90    0.59
  10   8  -8    6.85    0.67
 -10  -8   8    5.33    0.56
 -10  -8   8    6.02    0.17
   8   8  -8   17.22    0.86
   8   8  -8   16.26    0.82
  -8  -8   8   15.20    0.42
  -8  -8   8   14.65    0.73
   6   8  -8    4.36    0.53
   6   8  -8    3.65    0.47
  -6  -8   8    3.93    0.11
   4   8  -8   16.17    0.72
  -4  -8   8   16.86    0.47
  -2  -8   8   53.43    1.49
   0  -8   8   27.34    0.76
   2  -8   8   50.00    1.40
   4  -8   8   16.46    0.46
   6  -8   8    3.98    0.11
 -14   8  -8   10.57    1.56
 -16   8  -8   12.71    1.78
 -18   8  -8   18.28    2.02
  19   7  -8    8.81    0.94
 -19  -7   8    8.85    0.25
  17   7  -8   21.71    1.15
 -17  -7   8   21.08    0.59
  15   7  -8    8.47    0.71
 -15  -7   8    7.95    0.22
  13   7  -8    9.53    0.78
 -13  -7   8    9.33    0.26
  11   7  -8    7.97    0.71
 -11  -7   8    7.15    0.20
   9   7  -8    8.30    0.72
   9   7  -8    8.51    0.68
  -9  -7   8    7.80    0.22
  -9  -7   8    7.26    0.50
   7   7  -8    8.36    0.68
   7   7  -8    8.25    0.63
  -7  -7   8    7.37    0.21
  -7  -7   8    7.82    0.55
   5   7  -8   21.56    0.85
  -5  -7   8   20.67    0.58
   3   7  -8   38.97    1.26
  -3  -7   8   40.24    1.12
  -1  -7   8    4.73    0.13
   3  -7   8   40.02    1.12
   5  -7   8   23.29    0.65
   7  -7   8    8.92    0.54
   7  -7   8    8.60    0.24
 -13   7  -8    9.44    1.24
 -15   7  -8    8.87    1.31
 -17   7  -8   22.06    1.77
 -19   7  -8   10.66    1.64
  20   6  -8    3.30    0.66
 -20  -6   8    4.36    0.13
  18   6  -8    1.75    0.61
 -18  -6   8    1.35    0.05
  16   6  -8    5.24    0.66
 -16  -6   8    5.34    0.15
  14   6  -8    3.05    0.48
 -14  -6   8    3.05    0.09
  12   6  -8    4.20    0.53
 -12  -6   8    3.60    0.10
  10   6  -8   12.41    0.76
 -10  -6   8   10.56    0.57
 -10  -6   8   11.19    0.31
   8   6  -8    3.62    0.45
   8   6  -8    3.61    0.50
  -8  -6   8    3.81    0.41
  -8  -6   8    3.68    0.11
   6   6  -8   22.35    0.95
   6   6  -8   21.47    0.86
  -6  -6   8   20.29    0.78
  -6  -6   8   19.17    0.55
   4   6  -8   11.69    0.59
  -4  -6   8   10.15    0.28
   2   6  -8    9.15    0.49
   6  -6   8   22.84    0.64
 -12   6  -8    3.16    0.82
 -14   6  -8    2.94    1.03
 -16   6  -8    5.31    1.19
 -18   6  -8    1.27    0.97
 -20   6  -8    4.38    0.13
  19   5  -8    5.08    0.68
 -19  -5   8    4.77    0.14
  17   5  -8   10.46    0.89
 -17  -5   8    9.57    0.27
  15   5  -8    2.13    0.54
 -15  -5   8    1.69    0.05
  13   5  -8    7.23    0.73
 -13  -5   8    5.92    0.17
  11   5  -8    3.08    0.42
 -11  -5   8    2.93    0.09
 -11  -5   8    2.99    0.38
   9   5  -8   30.49    1.10
   9   5  -8   27.90    1.14
  -9  -5   8   26.48    0.98
  -9  -5   8   26.92    0.75
   7   5  -8   22.89    0.93
   7   5  -8   22.42    0.89
  -7  -5   8   19.00    0.53
  -7  -5   8   19.01    0.75
   5   5  -8    1.00    0.25
   5   5  -8    0.72    0.37
  -5  -5   8    1.38    0.27
  -5  -5   8    1.40    0.04
   3   5  -8   18.55    0.69
  -9   5  -8   30.48    1.66
  -9   5  -8   28.34    1.05
 -11   5  -8    3.25    0.90
 -13   5  -8    6.45    1.10
 -15   5  -8    3.13    1.01
 -17   5  -8    9.92    1.36
 -19   5  -8    4.57    0.13
  20   4  -8   -0.49    0.45
 -20  -4   8   -0.01    0.03
  18   4  -8    3.63    0.63
 -18  -4   8    3.06    0.09
  16   4  -8    0.28    0.51
 -16  -4   8    0.40    0.02
  14   4  -8    3.38    0.46
 -14  -4   8    2.92    0.09
  12   4  -8    0.83    0.47
 -12  -4   8    0.46    0.33
 -12  -4   8    0.47    0.02
  10   4  -8   22.94    0.96
 -10  -4   8   19.29    0.80
 -10  -4   8   19.50    0.54
   8   4  -8   15.26    0.71
   8   4  -8   16.76    0.70
  -8  -4   8   14.50    0.65
  -8  -4   8   14.44    0.40
   6   4  -8   12.15    0.60
   6   4  -8   11.33    0.71
  -6  -4   8   10.10    0.29
  -6  -4   8   10.46    0.51
   4   4  -8    2.08    0.35
   4   4  -8    1.45    0.26
  -4  -4   8    1.47    0.23
   2   4  -8    4.17    0.33
  -8   4  -8   16.93    0.76
  -8   4  -8   17.78    1.32
 -10   4  -8   19.52    1.32
 -10   4  -8   20.34    0.81
 -12   4  -8    0.67    0.82
 -14   4  -8    3.23    0.97
 -16   4  -8   -0.03    0.76
 -18   4  -8    2.29    0.07
 -20   4  -8    0.24    0.03
  21   3  -8    1.50    0.51
 -21  -3   8    1.56    0.05
  19   3  -8    1.02    0.56
 -19  -3   8    0.23    0.03
  17   3  -8    0.44    0.43
 -17  -3   8    0.27    0.02
  15   3  -8    5.83    0.60
 -15  -3   8    4.98    0.14
  13   3  -8   16.63    0.88
 -13  -3   8   13.97    0.38
 -13  -3   8   13.16    0.73
  11   3  -8   76.01    2.37
 -11  -3   8   66.84    1.84
 -11  -3   8   64.97    2.04
   9   3  -8    6.39    0.52
  -9  -3   8    6.62    0.50
  -9  -3   8    6.03    0.17
   7   3  -8   44.07    1.42
  -7  -3   8   35.32    1.00
  -7  -3   8   36.11    1.15
   5   3  -8   20.86    0.81
   5   3  -8   19.43    0.74
  -5  -3   8   16.32    0.61
   3   3  -8   -0.05    0.18
  -3  -3   8   -0.06    0.17
   1   3  -8    1.67    0.20
  -5   3  -8   19.14    1.12
  -7   3  -8   36.49    1.67
  -7   3  -8   41.90    1.25
  -9   3  -8    7.00    0.55
  -9   3  -8    7.91    1.15
 -11   3  -8   77.64    2.95
 -11   3  -8   74.74    2.38
 -13   3  -8   14.05    1.41
 -17   3  -8    0.16    0.02
 -19   3  -8    0.16    0.02
 -21   3  -8    1.36    0.05
  20   2  -8    1.96    0.50
 -20  -2   8    2.02    0.07
  18   2  -8    0.77    0.55
 -18  -2   8    0.59    0.03
  16   2  -8    2.95    0.55
 -16  -2   8    2.60    0.08
  14   2  -8    0.90    0.48
 -14  -2   8    1.31    0.04
  12   2  -8    9.43    0.74
 -12  -2   8    6.96    0.19
 -12  -2   8    6.52    0.50
  10   2  -8    4.88    0.63
 -10  -2   8    4.01    0.12
 -10  -2   8    4.15    0.50
   8   2  -8   56.23    1.76
  -8  -2   8   43.55    1.28
  -8  -2   8   47.94    1.44
   6   2  -8   11.00    0.68
   6   2  -8    9.81    0.53
  -6  -2   8    8.14    0.43
   4   2  -8    4.35    0.47
   4   2  -8    4.89    0.39
  -4  -2   8    4.43    0.29
   2   2  -8    7.88    0.34
  -2  -2   8    7.91    0.33
   0   2  -8    8.25    0.52
  -2   2  -8    7.35    0.60
  -4   2  -8    3.84    0.68
  -6   2  -8    9.23    0.97
  -6   2  -8    8.82    0.42
  -8   2  -8   48.50    1.49
  -8   2  -8   47.30    2.06
 -10   2  -8    6.08    0.95
 -10   2  -8    4.61    0.45
 -14   2  -8    1.45    0.05
 -16   2  -8    2.71    0.08
 -18   2  -8    0.69    0.03
 -20   2  -8    1.60    0.05
  21   1  -8    4.85    0.59
 -21  -1   8    4.76    0.14
  19   1  -8    3.75    0.54
 -19  -1   8    4.06    0.12
  17   1  -8   12.66    0.79
 -17  -1   8   11.54    0.32
  15   1  -8   18.61    0.89
 -15  -1   8   17.01    0.48
  13   1  -8   42.50    1.51
 -13  -1   8   36.39    0.99
 -13  -1   8   34.22    1.22
  11   1  -8   77.02    2.39
 -11  -1   8   63.51    1.81
 -11  -1   8   65.95    2.01
   9   1  -8   94.13    2.82
  -9  -1   8   81.94    2.38
  -9  -1   8   77.08    2.22
   7   1  -8    4.21    0.48
  -7  -1   8    3.81    0.39
   5   1  -8   10.22    0.56
   5   1  -8   11.40    0.50
  -5  -1   8    9.64    0.42
   3   1  -8    1.95    0.25
  -3  -1   8    1.77    0.22
   1   1  -8    0.13    0.09
   1  -1   8    0.30    0.25
  -5   1  -8    9.99    0.42
  -7   1  -8    3.88    0.34
  -9   1  -8   81.21    2.40
 -11   1  -8   67.12    1.80
 -11   1  -8   61.26    1.96
 -13   1  -8   36.58    1.02
 -15   1  -8   16.80    0.47
 -17   1  -8   11.64    0.33
 -19   1  -8    3.81    0.11
 -21   1  -8    4.75    0.14
  20   0  -8    0.30    0.57
 -20   0   8    0.33    0.03
  18   0  -8   10.57    0.88
 -18   0   8    9.18    0.26
  16   0  -8    1.39    0.43
 -16   0   8    1.04    0.04
  14   0  -8    8.47    0.74
 -14   0   8    7.28    0.21
  12   0  -8    8.15    0.72
 -12   0   8    6.33    0.18
 -12   0   8    6.37    0.58
  10   0  -8    6.81    0.65
 -10   0   8    5.41    0.16
 -10   0   8    5.93    0.54
   8   0  -8   24.99    0.95
  -8   0   8   19.82    0.61
  -8   0   8   24.98    0.88
  -8   0   8   20.95    0.78
   6   0  -8   73.43    2.18
  -6   0   8   63.65    1.89
   4   0  -8    8.15    0.46
   4   0  -8    8.04    0.38
  -4   0   8    6.95    0.33
   2   0  -8    6.70    0.28
  -2   0   8    7.17    0.28
   0   0  -8   11.00    0.35
  -4   0  -8    7.26    0.32
  -6   0  -8   64.69    1.90
  -8   0  -8   20.70    0.58
  -8   0  -8   20.81    0.74
   8   0   8   24.64    0.88
 -10   0  -8    5.95    0.17
 -10   0  -8    5.58    0.45
  10   0   8    7.08    0.55
 -12   0  -8    6.17    0.17
  12   0   8    7.40    0.61
 -14   0  -8    6.93    0.20
  14   0   8    7.04    0.65
 -16   0  -8    0.90    0.04
  16   0   8    1.00    0.45
 -18   0  -8    8.57    0.24
 -20   0  -8    0.11    0.03
  21  -1  -8    4.89    0.70
 -21   1   8    4.88    0.14
  19  -1  -8    4.97    0.66
 -19   1   8    4.46    0.13
  17  -1  -8   13.57    0.90
 -17   1   8   12.45    0.35
  15  -1  -8   19.60    0.97
 -15   1   8   17.64    0.49
  13  -1  -8   40.65    1.41
 -13   1   8   36.82    1.33
 -13   1   8   38.48    1.06
  11  -1  -8   72.53    2.26
 -11   1   8   66.26    1.87
 -11   1   8   65.79    2.08
 -11   1   8   69.19    2.26
   9  -1  -8   92.13    2.76
  -9   1   8   86.25    2.50
  -9   1   8   81.21    2.34
   7  -1  -8    4.18    0.46
  -7   1   8    3.50    0.40
   5  -1  -8   10.63    0.46
   5  -1  -8    9.83    0.54
  -5   1   8   10.07    0.46
   3  -1  -8    1.76    0.18
   3  -1  -8    1.83    0.28
  -3   1   8    1.79    0.21
   1  -1  -8    0.20    0.09
  -1   1   8    0.24    0.08
  -3  -1  -8    1.82    0.16
  -5  -1  -8    9.17    0.37
   5   1   8    9.34    0.44
   5   1   8   11.47    0.44
  -7  -1  -8    3.48    0.10
  -7  -1  -8    3.32    0.34
   7   1   8    3.66    0.41
  -9  -1  -8   82.22    2.25
  -9  -1  -8   78.39    2.37
   9   1   8   91.93    2.71
 -11  -1  -8   62.29    1.91
 -11  -1  -8   63.14    1.75
  11   1   8   70.75    2.16
 -13  -1  -8   33.18    1.06
 -13  -1  -8   35.92    0.97
  13   1   8   40.19    1.37
 -15  -1  -8   16.19    0.44
 -15  -1  -8   15.24    0.55
  15   1   8   18.43    0.87
 -17  -1  -8   11.03    0.31
  17   1   8   12.66    0.79
 -19  -1  -8    3.92    0.11
  19   1   8    4.43    0.57
 -21  -1  -8    4.72    0.14
  20  -2  -8    1.56    0.61
 -20   2   8    1.94    0.06
  18  -2  -8    0.60    0.56
 -18   2   8    0.54    0.03
  16  -2  -8    2.92    0.54
 -16   2   8    2.66    0.08
  14  -2  -8    1.53    0.40
 -14   2   8    1.31    0.05
 -14   2   8    1.23    0.55
  12  -2  -8    8.12    0.69
 -12   2   8    7.56    0.63
 -12   2   8    7.47    0.21
 -12   2   8    8.04    0.81
  10  -2  -8    4.94    0.59
 -10   2   8    4.46    0.46
   8  -2  -8   53.56    1.67
  -8   2   8   50.78    1.59
   6  -2  -8    8.54    0.46
  -6   2   8    9.77    0.52
   4  -2  -8    4.64    0.32
   4  -2  -8    4.59    0.42
  -4   2   8    4.83    0.30
  -2   2   8    8.88    0.33
   2   2   8    9.22    0.29
  -4  -2  -8    4.52    0.23
   4   2   8    4.21    0.35
   4   2   8    4.91    0.26
  -6  -2  -8    8.61    0.39
   6   2   8    8.92    0.43
  -8  -2  -8   46.50    1.32
  -8  -2  -8   47.78    1.44
   8   2   8   52.58    1.60
 -10  -2  -8    4.05    0.41
 -10  -2  -8    5.10    0.38
 -10  -2  -8    4.39    0.13
  10   2   8    5.08    0.49
 -12  -2  -8    7.04    0.43
 -12  -2  -8    7.18    0.20
  12   2   8    7.73    0.59
 -14  -2  -8    1.10    0.22
 -14  -2  -8    1.21    0.04
  14   2   8    1.15    0.40
 -16  -2  -8    2.56    0.07
 -16  -2  -8    2.20    0.25
  16   2   8    2.87    0.46
 -18  -2  -8    0.53    0.03
  18   2   8    0.12    0.46
 -20  -2  -8    1.79    0.06
  20   2   8    1.75    0.52
 -21   3   8    1.28    0.05
 -19   3   8    0.14    0.03
  17  -3  -8    0.29    0.52
 -17   3   8    0.62    0.56
 -17   3   8    0.21    0.02
  15  -3  -8    5.88    0.60
 -15   3   8    5.06    0.79
 -15   3   8    5.37    0.15
  13  -3  -8   16.04    0.86
 -13   3   8   13.71    0.95
 -13   3   8   14.36    0.78
  11  -3  -8   76.02    2.35
 -11   3   8   72.50    2.25
   9  -3  -8    7.25    0.58
  -9   3   8    6.95    0.57
   7  -3  -8   42.98    1.38
  -7   3   8   44.69    1.41
  -5   3   8   20.22    0.71
   3  -3  -8   -0.28    0.21
  -3   3   8    0.11    0.17
  -1   3   8    2.12    0.19
  -1   3   8    1.86    0.21
   3   3   8   -0.07    0.10
  -5  -3  -8   18.05    0.60
   5   3   8   18.07    0.60
  -7  -3  -8   40.22    1.20
  -7  -3  -8   37.10    1.08
   7   3   8   41.69    1.29
  -9  -3  -8    6.50    0.18
  -9  -3  -8    6.57    0.44
  -9  -3  -8    6.01    0.42
   9   3   8    6.34    0.46
 -11  -3  -8   70.39    1.94
 -11  -3  -8   72.73    2.11
 -11  -3  -8   65.50    2.10
  11   3   8   72.41    2.19
 -13  -3  -8   13.99    0.37
 -13  -3  -8   12.24    0.59
  13   3   8   14.97    0.74
 -15  -3  -8    4.93    0.14
  15   3   8    5.66    0.59
 -17  -3  -8    0.21    0.02
  17   3   8    0.42    0.43
 -19  -3  -8    0.13    0.02
  19   3   8    0.42    0.47
 -21  -3  -8    1.20    0.05
  21   3   8    1.44    0.52
 -18   4   8    3.44    0.83
 -18   4   8    2.96    0.09
 -16   4   8    0.27    0.02
 -16   4   8    0.03    0.64
 -12   4   8    0.62    0.37
 -10   4   8   22.52    0.93
  -8   4   8   18.28    0.78
  -6   4   8   12.25    0.58
   4  -4  -8    1.86    0.27
  -4   4   8    2.22    0.26
  -2   4   8    5.19    0.29
   2   4   8    4.15    0.19
  -4  -4  -8    1.97    0.22
   4   4   8    1.61    0.16
  -6  -4  -8   11.45    0.48
   6   4   8   10.84    0.46
  -8  -4  -8   16.34    0.64
  -8  -4  -8   15.69    0.45
  -8  -4  -8   16.58    0.72
   8   4   8   15.96    0.62
 -10  -4  -8   19.42    0.80
 -10  -4  -8   20.77    0.56
 -10  -4  -8   19.67    0.75
  10   4   8   21.50    0.81
 -12  -4  -8    0.52    0.02
 -12  -4  -8    0.54    0.31
  12   4   8    0.46    0.34
 -14  -4  -8    2.89    0.08
  14   4   8    3.00    0.42
 -16  -4  -8    0.41    0.02
  16   4   8    0.44    0.41
 -18  -4  -8    3.03    0.09
  18   4   8    2.65    0.50
 -20  -4  -8    0.07    0.02
  20   4   8   -0.14    0.47
 -19   5   8    4.52    0.94
 -19   5   8    5.07    0.15
 -17   5   8    9.02    1.07
 -13   5   8    6.05    0.64
 -11   5   8    2.74    0.42
  -9   5   8   32.53    1.17
  -7   5   8   24.31    0.91
  -5   5   8    1.38    0.27
   3  -5  -8   19.46    0.73
  -1   5   8    8.71    0.40
   3   5   8   16.31    0.53
  -5  -5  -8    1.35    0.22
   5   5   8    1.07    0.18
  -7  -5  -8   21.47    0.91
  -7  -5  -8   20.61    0.60
  -7  -5  -8   22.36    0.74
   7   5   8   18.58    0.67
  -9  -5  -8   28.67    0.81
  -9  -5  -8   29.50    1.09
  -9  -5  -8   29.09    1.00
   9   5   8   27.10    0.92
 -11  -5  -8    3.08    0.09
 -11  -5  -8    2.76    0.39
  11   5   8    4.32    0.52
 -13  -5  -8    6.47    0.18
  13   5   8    6.29    0.55
 -15  -5  -8    1.96    0.06
  15   5   8    1.69    0.41
 -17  -5  -8    9.51    0.27
  17   5   8    8.79    0.69
 -19  -5  -8    4.93    0.14
  19   5   8    3.86    0.54
 -20   6   8    4.68    0.13
 -20   6   8    3.65    0.89
 -18   6   8    3.08    0.92
 -12   6   8    3.58    0.45
 -10   6   8   12.53    0.72
  -8   6   8    3.80    0.41
  -6   6   8   23.52    0.86
   4  -6  -8   11.31    0.55
   0   6   8   74.29    2.17
   4   6   8    9.65    0.40
  -6  -6  -8   21.70    0.61
  -6  -6  -8   22.08    0.94
   6   6   8   19.38    0.67
  -8  -6  -8    3.96    0.11
  -8  -6  -8    3.40    0.44
  -8  -6  -8    4.63    0.44
   8   6   8    3.44    0.36
 -10  -6  -8   11.79    0.32
 -10  -6  -8   11.00    0.57
 -10  -6  -8   11.15    0.67
  10   6   8   10.62    0.55
 -12  -6  -8    3.50    0.10
 -12  -6  -8    3.45    0.45
  12   6   8    2.95    0.37
 -14  -6  -8    3.48    0.10
  14   6   8    2.75    0.41
 -16  -6  -8    5.40    0.15
  16   6   8    4.85    0.50
 -18  -6  -8    1.69    0.05
  18   6   8    1.31    0.47
 -20  -6  -8    4.57    0.13
  20   6   8    3.76    0.55
 -19   7   8   11.10    1.46
 -13   7   8    9.15    0.70
 -11   7   8    6.97    0.63
  -9   7   8    8.77    0.63
  -7   7   8    7.59    0.55
   3  -7  -8   39.65    1.25
   3   7   8   41.63    1.26
  -5  -7  -8   23.29    1.02
  -5  -7  -8   22.59    0.64
   5   7   8   19.20    0.67
  -7  -7  -8    8.25    0.23
  -7  -7  -8    7.65    0.67
   7   7   8    6.66    0.43
  -9  -7  -8    8.04    0.67
  -9  -7  -8    8.07    0.50
  -9  -7  -8    8.65    0.24
   9   7   8    7.26    0.50
 -11  -7  -8    8.29    0.71
 -11  -7  -8    7.50    0.21
  11   7   8    6.64    0.49
 -13  -7  -8    9.59    0.27
  13   7   8    8.59    0.57
 -15  -7  -8    8.57    0.24
  15   7   8    7.32    0.62
 -17  -7  -8   22.61    0.63
  17   7   8   19.11    0.92
 -19  -7  -8    9.60    0.27
  19   7   8    8.68    0.74
 -12   8   8    7.28    0.66
 -10   8   8    5.62    0.51
  -8   8   8   16.73    0.77
   4  -8  -8   17.49    0.68
   0  -8  -8   27.57    0.77
  -2  -8  -8   51.03    1.43
  -4  -8  -8   18.63    0.96
  -4  -8  -8   17.03    0.49
   4   8   8   16.97    0.64
  -6  -8  -8    4.35    0.55
  -6  -8  -8    4.21    0.12
   6   8   8    3.87    0.35
  -8  -8  -8   17.38    0.49
  -8  -8  -8   17.56    0.92
   8   8   8   13.44    0.58
 -10  -8  -8    6.80    0.19
 -10  -8  -8    6.19    0.67
  10   8   8    5.24    0.44
 -12  -8  -8    8.63    0.71
 -12  -8  -8    8.99    0.25
  12   8   8    6.95    0.52
 -14  -8  -8    8.99    0.70
 -14  -8  -8    8.53    0.24
  14   8   8    8.18    0.67
 -16  -8  -8   12.73    0.36
  16   8   8   10.36    0.71
 -18  -8  -8   13.72    0.39
 -18  -8  -8   14.63    0.91
  18   8   8   12.62    0.80
 -11   9   8   11.12    0.71
  -9   9   8    2.50    0.39
  -7   9   8    9.17    0.61
  -1  -9  -8   99.17    2.77
  -3  -9  -8    7.57    0.21
   3   9   8    7.09    0.46
  -5  -9  -8   32.27    0.92
  -5  -9  -8   33.53    1.36
   5   9   8   27.78    0.92
  -7  -9  -8    9.01    0.26
  -7  -9  -8    9.90    0.81
   7   9   8    7.29    0.45
  -9  -9  -8    2.85    0.08
  -9  -9  -8    2.24    0.46
   9   9   8    2.31    0.31
 -11  -9  -8   13.54    0.86
 -11  -9  -8   12.84    0.36
  11   9   8    9.60    0.60
 -13  -9  -8    8.78    0.78
 -13  -9  -8    9.22    0.26
  13   9   8    7.36    0.57
 -15  -9  -8   17.72    0.50
 -15  -9  -8   18.56    1.05
  15   9   8   14.63    0.77
 -17  -9  -8   18.42    0.53
 -17  -9  -8   20.22    1.09
  17   9   8   16.34    0.87
 -19  -9  -8   27.09    0.73
 -19  -9  -8   23.86    1.41
  19   9   8   22.17    1.04
 -12  10   8    2.47    0.45
 -10  10   8    6.00    0.60
  -8  10   8    6.43    0.59
   4 -10  -8   20.76    0.75
   0 -10  -8    6.51    0.18
  -2 -10  -8    5.43    0.15
  -4 -10  -8   23.03    0.62
  -4 -10  -8   20.42    1.07
   4  10   8   22.35    0.80
  -6 -10  -8   13.65    0.85
  -6 -10  -8   13.32    0.38
   6  10   8   10.81    0.53
  -8 -10  -8    7.05    0.20
  -8 -10  -8    6.59    0.81
   8  10   8    5.86    0.46
 -10 -10  -8    7.20    0.21
 -10 -10  -8    7.88    0.84
  10  10   8    5.67    0.48
 -12 -10  -8    3.15    0.61
 -12 -10  -8    3.09    0.09
  12  10   8    2.47    0.37
 -14 -10  -8   13.46    0.38
 -14 -10  -8   13.38    0.95
  14  10   8   10.47    0.67
 -16 -10  -8   22.27    0.63
 -16 -10  -8   22.94    1.16
  16  10   8   18.14    0.88
 -18 -10  -8    2.15    0.65
 -18 -10  -8    1.92    0.06
  18  10   8    2.20    0.52
 -11  11   8    3.56    0.46
  -9  11   8   11.70    0.71
   5 -11  -8    2.48    0.28
   1 -11  -8   77.77    2.17
  -1 -11  -8   79.64    2.23
  -3 -11  -8   83.35    2.75
  -3 -11  -8   84.17    2.34
   3  11   8   71.81    2.16
  -5 -11  -8    3.03    0.57
  -5 -11  -8    3.23    0.09
   5  11   8    3.38    0.42
  -7 -11  -8    8.03    0.23
  -7 -11  -8    8.67    0.90
   7  11   8    6.36    0.47
  -9 -11  -8   13.69    0.38
  -9 -11  -8   13.02    1.00
   9  11   8   10.00    0.56
 -11 -11  -8    5.63    0.16
 -11 -11  -8    5.70    0.72
  11  11   8    4.41    0.50
 -13 -11  -8   10.91    0.96
 -13 -11  -8   10.95    0.31
  13  11   8    8.13    0.60
 -15 -11  -8   23.31    0.66
 -15 -11  -8   24.09    1.25
  15  11   8   17.29    0.85
 -17 -11  -8   14.09    1.03
 -17 -11  -8   14.65    0.41
  17  11   8   11.38    0.77
 -10  12   8    2.94    0.45
   0 -12  -8    7.33    0.21
  -2 -12  -8    8.26    0.23
  -4 -12  -8    0.70    0.53
  -4 -12  -8    0.56    0.02
   4  12   8    0.49    0.29
  -6 -12  -8    3.89    0.11
  -6 -12  -8    3.64    0.70
   6  12   8    3.28    0.35
  -8 -12  -8    9.55    0.27
  -8 -12  -8   10.24    0.99
   8  12   8    8.79    0.55
 -10 -12  -8    5.10    0.74
 -10 -12  -8    3.44    0.10
  10  12   8    2.65    0.38
 -12 -12  -8   10.40    0.29
 -12 -12  -8    8.95    0.88
  12  12   8    7.73    0.66
 -14 -12  -8    8.28    0.85
 -14 -12  -8    6.97    0.20
  14  12   8    5.05    0.60
 -16 -12  -8    4.48    0.73
 -16 -12  -8    3.46    0.10
  16  12   8    1.87    0.47
   5 -13  -8    6.41    0.37
   1 -13  -8   41.20    1.15
  -1 -13  -8   41.77    1.17
  -3 -13  -8   16.00    0.45
  -3 -13  -8   16.48    1.05
   3  13   8   13.73    0.64
  -5 -13  -8    7.83    0.86
  -5 -13  -8    7.61    0.21
   5  13   8    6.39    0.50
  -7 -13  -8   11.12    0.31
  -7 -13  -8   10.57    1.06
   7  13   8    9.24    0.61
  -9 -13  -8   10.41    0.29
  -9 -13  -8    9.73    0.92
   9  13   8    8.54    0.58
 -11 -13  -8   12.05    0.34
 -11 -13  -8   12.48    1.13
  11  13   8    8.92    0.63
 -13 -13  -8    3.61    0.11
 -13 -13  -8    3.82    0.77
  13  13   8    2.40    0.44
 -15 -13  -8    7.82    0.22
 -15 -13  -8    8.44    1.03
  15  13   8    5.11    0.63
   6 -14  -8    2.28    0.25
   2 -14  -8    1.59    0.05
   0 -14  -8    8.12    0.23
  -2 -14  -8    1.53    0.05
  -4 -14  -8    3.55    0.79
  -4 -14  -8    3.81    0.11
   4  14   8    3.01    0.37
  -6 -14  -8    3.19    0.09
  -6 -14  -8    3.94    0.79
   6  14   8    2.40    0.37
  -8 -14  -8   10.26    0.29
  -8 -14  -8    9.64    0.95
   8  14   8    8.73    0.59
 -10 -14  -8   15.55    1.09
 -10 -14  -8   14.11    0.40
  10  14   8   11.04    0.68
 -12 -14  -8    7.96    0.94
 -12 -14  -8    7.69    0.22
  12  14   8    4.82    0.61
 -14 -14  -8    6.15    0.78
 -14 -14  -8    6.24    0.18
  14  14   8    4.38    0.51
 -16 -14  -8    5.78    0.86
 -16 -14  -8    4.68    0.14
  16  14   8    2.99    0.51
   7 -15  -8    7.36    0.42
   1 -15  -8   20.35    0.57
  -1 -15  -8   20.67    0.58
  -3 -15  -8    5.86    0.17
   3  15   8    5.40    0.52
  -5 -15  -8    2.21    0.07
  -5 -15  -8    2.62    0.81
   5  15   8    1.71    0.36
  -7 -15  -8    9.21    0.26
  -7 -15  -8    9.80    1.14
   7  15   8    8.13    0.64
  -9 -15  -8   20.85    0.58
  -9 -15  -8   20.20    1.41
   9  15   8   15.54    0.77
 -11 -15  -8   25.17    1.53
 -11 -15  -8   25.39    0.71
  11  15   8   18.29    0.88
 -13 -15  -8    7.80    0.23
 -13 -15  -8    9.65    1.14
  13  15   8    5.19    0.66
 -15 -15  -8   -0.13    0.03
 -15 -15  -8   -0.04    0.75
  15  15   8   -0.75    0.44
   2 -16  -8    3.04    0.09
   0 -16  -8    1.23    0.04
  -2 -16  -8    3.19    0.09
  -4 -16  -8   -0.21    0.77
   4  16   8    0.05    0.34
  -6 -16  -8    6.24    0.18
  -6 -16  -8    6.40    0.98
   6  16   8    4.57    0.54
  -8 -16  -8   15.85    0.44
  -8 -16  -8   15.40    1.36
   8  16   8   12.38    0.70
 -10 -16  -8   27.08    1.62
 -10 -16  -8   27.26    0.76
  10  16   8   19.91    0.97
 -12 -16  -8    3.74    0.11
 -12 -16  -8    4.41    0.95
  12  16   8    2.69    0.56
 -14 -16  -8    4.90    0.81
 -14 -16  -8    4.47    0.13
  14  16   8    2.63    0.51
   1 -17  -8   14.24    0.40
  -1 -17  -8   14.47    0.41
  -3 -17  -8    0.24    0.02
   3  17   8   -0.14    0.36
  -5 -17  -8   11.13    1.31
  -5 -17  -8   12.38    0.34
   5  17   8    9.48    0.64
  -7 -17  -8   26.32    0.74
  -7 -17  -8   26.42    1.67
   7  17   8   19.60    0.88
  -9 -17  -8   25.27    1.62
  -9 -17  -8   23.42    0.67
   9  17   8   17.64    0.85
 -11 -17  -8   15.90    0.44
 -11 -17  -8   15.57    1.27
  11  17   8   12.15    0.79
   2 -18  -8    0.87    0.03
   0 -18  -8   11.06    0.31
  -2 -18  -8    0.83    0.03
  -4 -18  -8    3.99    0.12
   4  18   8    3.12    0.45
  -6 -18  -8    1.95    0.82
  -6 -18  -8    2.19    0.07
   6  18   8    1.80    0.42
  -8 -18  -8   18.31    1.39
  -8 -18  -8   18.95    0.53
   8  18   8   12.90    0.75
 -10 -18  -8    2.29    0.07
 -10 -18  -8    1.38    1.00
  10  18   8    1.60    0.48
   1 -19  -8    5.16    0.15
  -1 -19  -8    5.23    0.15
  -3 -19  -8    0.08    0.02
   3  19   8    0.14    0.40
  -5 -19  -8    6.31    0.18
   5  19   8    5.25    0.60
  -7 -19  -8   12.11    0.34
  -7 -19  -8   11.51    1.29
   7  19   8    8.19    0.67
  -9 -19  -8   35.46    1.99
  -9 -19  -8   34.07    0.96
   9  19   8   23.19    1.02
   0 -20  -8    0.40    0.02
  -2 -20  -8    2.17    0.07
   2  20   8    1.57    0.46
  -4 -20  -8    0.19    0.03
   4  20   8    0.26    0.41
  -6 -20  -8    5.01    0.99
  -6 -20  -8    6.12    0.17
   6  20   8    3.37    0.48
   1 -21  -8    6.30    0.18
  -1 -21  -8    6.00    0.17
  -3 -21  -8    1.78    0.06
   3  21   8    1.20    0.46
   2  21  -9    3.20    0.53
  -2 -21   9    5.69    0.17
   0 -21   9    5.49    0.16
   2 -21   9    5.42    1.01
   2 -21   9    5.55    0.16
   5  20  -9    1.80    0.52
  -5 -20   9    1.82    0.07
   3  20  -9    0.13    0.42
  -3 -20   9    0.35    0.04
  -1 -20   9    2.17    0.07
   1 -20   9    2.07    0.07
   3 -20   9   -0.17    0.03
   3 -20   9    0.17    0.66
   5 -20   9    1.80    0.06
   5 -20   9    2.61    0.82
   8  19  -9   16.57    0.85
  -8 -19   9   29.12    0.82
   6  19  -9    5.05    0.60
  -6 -19   9    7.91    0.23
   4  19  -9    1.05    0.50
  -4 -19   9    2.13    0.07
   2  19  -9    0.97    0.53
  -2 -19   9    1.05    0.04
   0 -19   9    6.29    0.18
   2 -19   9    0.99    0.04
   4 -19   9    1.60    0.06
   4 -19   9    1.97    0.66
   6 -19   9    7.91    0.22
   6 -19   9    6.95    0.87
   8 -19   9   24.16    0.68
  11  18  -9   15.58    0.95
 -11 -18   9   26.29    0.74
   9  18  -9    1.58    0.42
  -9 -18   9    3.35    0.10
   7  18  -9    8.51    0.66
  -7 -18   9   12.73    0.36
   5  18  -9    0.46    0.39
  -5 -18   9    1.26    0.05
   3  18  -9    1.55    0.52
  -3 -18   9    2.61    0.08
  -1 -18   9    4.23    0.13
   1 -18   9    4.20    0.12
   3 -18   9    2.32    0.07
   3 -18   9    2.48    0.77
   5 -18   9    1.13    0.04
   5 -18   9    1.65    0.69
   7 -18   9   11.83    0.33
   7 -18   9   11.54    1.04
   9 -18   9    3.12    0.09
  12  17  -9   10.20    0.75
 -12 -17   9   17.98    0.51
  10  17  -9   11.11    0.81
 -10 -17   9   14.38    0.40
   8  17  -9   20.71    0.98
  -8 -17   9   31.43    0.88
   6  17  -9   13.84    0.75
  -6 -17   9   23.43    0.66
   4  17  -9    3.58    0.52
  -4 -17   9    4.92    0.14
   2  17  -9    5.32    0.59
  -2 -17   9    6.59    0.19
   0 -17   9   19.76    0.55
   2 -17   9    6.32    0.18
   4 -17   9    4.26    0.12
   4 -17   9    3.69    0.75
   6 -17   9   20.48    1.20
   6 -17   9   20.34    0.57
   8 -17   9   27.83    0.78
  13  16  -9    3.23    0.62
 -13 -16   9    4.98    0.15
  11  16  -9    5.23    0.61
 -11 -16   9    8.00    0.23
   9  16  -9   17.64    0.92
  -9 -16   9   27.84    0.78
   7  16  -9    4.57    0.53
  -7 -16   9    6.89    0.20
   5  16  -9    1.53    0.45
  -5 -16   9    1.97    0.06
   3  16  -9    0.28    0.37
  -3 -16   9    0.51    0.03
  -1 -16   9    3.27    0.10
   1 -16   9    3.37    0.10
   3 -16   9    0.60    0.03
   5 -16   9    1.71    0.62
   5 -16   9    1.76    0.06
   7 -16   9    5.82    0.17
   7 -16   9    5.60    0.76
   9 -16   9   26.00    0.73
  14  15  -9    1.64    0.51
 -14 -15   9    1.82    0.06
  12  15  -9    7.26    0.78
 -12 -15   9    8.68    0.25
  10  15  -9   22.53    1.05
 -10 -15   9   31.70    0.89
   8  15  -9    9.00    0.62
  -8 -15   9   13.92    0.39
   6  15  -9    2.61    0.47
  -6 -15   9    3.64    0.11
   4  15  -9    2.24    0.46
  -4 -15   9    3.32    0.10
  -2 -15   9   14.31    0.40
   0 -15   9   20.50    0.57
   2 -15   9   13.47    0.38
   4 -15   9    2.66    0.08
   6 -15   9    3.51    0.60
   6 -15   9    3.15    0.09
   8 -15   9   12.41    0.35
   8 -15   9   12.52    0.89
  15  14  -9    1.57    0.53
  15  14  -9    2.47    0.61
 -15 -14   9    1.72    0.06
  13  14  -9    7.48    0.73
  13  14  -9    6.38    0.68
 -13 -14   9    7.92    0.22
  11  14  -9    9.78    0.80
 -11 -14   9   12.74    0.36
   9  14  -9    4.50    0.54
  -9 -14   9    6.94    0.20
   7  14  -9    3.60    0.47
  -7 -14   9    5.13    0.15
   5  14  -9    2.31    0.37
  -5 -14   9    3.38    0.10
   3  14  -9    4.18    0.48
  -3 -14   9    6.14    0.18
  -1 -14   9    3.41    0.10
   1 -14   9    3.45    0.10
   3 -14   9    5.54    0.16
   5 -14   9    3.33    0.57
   5 -14   9    2.96    0.09
   7 -14   9    5.02    0.65
   7 -14   9    4.54    0.13
   9 -14   9    6.86    0.19
  16  13  -9    4.27    0.62
  16  13  -9    3.48    0.69
 -16 -13   9    4.78    0.14
  14  13  -9    7.35    0.75
  14  13  -9    6.61    0.84
 -14 -13   9    7.72    0.22
  12  13  -9    2.45    0.58
  12  13  -9    2.82    0.59
 -12 -13   9    2.89    0.09
  10  13  -9    8.45    0.74
 -10 -13   9    9.89    0.28
   8  13  -9    6.54    0.63
  -8 -13   9    8.80    0.25
   6  13  -9    2.35    0.43
  -6 -13   9    3.71    0.11
   4  13  -9   12.68    0.73
  -4 -13   9   18.05    0.51
  -2 -13   9   36.66    1.03
   0 -13   9   52.77    1.48
   2 -13   9   34.25    0.96
   4 -13   9   15.57    0.44
   6 -13   9    3.61    0.58
   6 -13   9    3.38    0.10
   8 -13   9    8.15    0.23
   8 -13   9    8.46    0.76
  17  12  -9   14.47    0.98
  17  12  -9   13.38    1.04
 -17 -12   9   14.28    0.40
  15  12  -9    6.81    0.77
  15  12  -9    7.55    0.88
 -15 -12   9    8.44    0.24
  13  12  -9    3.63    0.55
  13  12  -9    2.92    0.61
 -13 -12   9    3.20    0.09
  11  12  -9    4.53    0.57
  11  12  -9    4.31    0.54
 -11 -12   9    4.12    0.12
   9  12  -9    4.29    0.53
  -9 -12   9    4.75    0.14
   7  12  -9    5.76    0.52
  -7 -12   9    8.00    0.23
   5  12  -9    9.06    0.57
  -5 -12   9   11.27    0.32
   3  12  -9    0.92    0.32
  -3 -12   9    1.05    0.04
  -1 -12   9   11.60    0.33
   1 -12   9   11.29    0.32
   3 -12   9    1.03    0.04
   5 -12   9   10.24    0.29
   7 -12   9    7.40    0.21
   7 -12   9    6.94    0.71
   9 -12   9    4.52    0.13
 -17  12  -9   16.10    2.26
  18  11  -9   18.11    1.16
  18  11  -9   18.29    1.14
 -18 -11   9   19.72    0.55
  16  11  -9    6.23    0.72
  16  11  -9    6.38    0.69
 -16 -11   9    7.17    0.20
  14  11  -9   11.35    0.91
  14  11  -9   11.92    0.85
 -14 -11   9   11.72    0.33
  12  11  -9    3.68    0.54
  12  11  -9    4.32    0.59
 -12 -11   9    3.94    0.11
  10  11  -9    4.53    0.54
  10  11  -9    4.17    0.46
 -10 -11   9    4.31    0.12
   8  11  -9    4.19    0.51
  -8 -11   9    5.46    0.16
   6  11  -9    4.88    0.50
  -6 -11   9    5.63    0.16
   4  11  -9    6.18    0.58
  -4 -11   9    7.07    0.20
  -2 -11   9   86.28    2.41
   0 -11   9   70.10    1.96
   2 -11   9   77.86    2.18
   4 -11   9    6.81    0.19
   6 -11   9    5.48    0.16
   8 -11   9    4.97    0.60
   8 -11   9    5.10    0.15
 -16  11  -9    9.81    1.66
 -18  11  -9   23.75    2.20
  17  10  -9   11.59    0.85
  17  10  -9   10.19    0.94
 -17 -10   9   11.60    0.33
  15  10  -9   26.17    1.21
  15  10  -9   25.02    1.22
 -15 -10   9   26.89    0.75
  13  10  -9    8.84    0.77
  13  10  -9    8.80    0.72
 -13 -10   9    9.08    0.26
  11  10  -9    4.08    0.53
  11  10  -9    4.43    0.49
 -11 -10   9    4.19    0.12
   9  10  -9    2.79    0.48
   9  10  -9    2.78    0.48
  -9 -10   9    2.95    0.09
   7  10  -9   10.66    0.68
  -7 -10   9   11.10    0.31
   5  10  -9    1.49    0.38
  -5 -10   9    1.53    0.05
   3  10  -9   36.74    1.23
  -3 -10   9   46.41    1.30
  -1 -10   9    8.91    0.25
   1 -10   9    8.53    0.24
   3 -10   9   41.22    1.15
   5 -10   9    1.67    0.05
   7 -10   9   11.49    0.66
   7 -10   9   11.80    0.33
 -17  10  -9   15.87    2.05
  18   9  -9    2.13    0.57
 -18  -9   9    2.16    0.07
  16   9  -9   20.98    1.13
 -16  -9   9   21.44    0.60
  14   9  -9    6.51    0.65
  14   9  -9    6.23    0.67
 -14  -9   9    5.81    0.17
  12   9  -9    4.03    0.48
  12   9  -9    4.06    0.49
 -12  -9   9    4.22    0.12
  10   9  -9    2.87    0.51
  10   9  -9    2.88    0.50
 -10  -9   9    2.87    0.08
   8   9  -9    7.28    0.65
   8   9  -9    8.03    0.68
  -8  -9   9    7.09    0.20
   6   9  -9    5.74    0.59
  -6  -9   9    5.96    0.17
   4   9  -9   21.48    0.82
  -4  -9   9   24.33    0.68
  -2  -9   9   10.70    0.30
   0  -9   9   27.80    0.78
   2  -9   9    9.77    0.27
   4  -9   9   22.85    0.64
   6  -9   9    6.10    0.17
   8  -9   9    8.08    0.57
   8  -9   9    8.20    0.23
 -14   9  -9    6.03    1.26
 -16   9  -9   24.58    2.17
 -18   9  -9    3.68    1.46
  19   8  -9   19.27    1.16
 -19  -8   9   22.09    0.62
  17   8  -9   24.76    1.23
 -17  -8   9   24.01    0.67
  15   8  -9   10.89    0.88
 -15  -8   9   11.46    0.32
  13   8  -9    7.78    0.75
  13   8  -9    7.52    0.75
 -13  -8   9    7.51    0.21
  11   8  -9    4.77    0.56
  11   8  -9    5.53    0.69
 -11  -8   9    4.82    0.14
   9   8  -9    8.41    0.72
   9   8  -9    8.18    0.68
  -9  -8   9    7.11    0.58
  -9  -8   9    7.05    0.20
   7   8  -9    6.43    0.56
   7   8  -9    5.61    0.59
  -7  -8   9    5.58    0.16
   5   8  -9   33.82    1.17
  -5  -8   9   35.07    0.98
   3   8  -9    9.70    0.58
  -3  -8   9   10.22    0.29
  -1  -8   9   68.09    1.90
   1  -8   9   63.03    1.76
   3  -8   9    9.39    0.26
   5  -8   9   37.45    1.05
   7  -8   9    6.50    0.55
   7  -8   9    6.48    0.18
 -13   8  -9    8.40    1.25
 -15   8  -9   11.92    1.45
 -17   8  -9   26.06    2.20
 -19   8  -9   26.36    2.29
  18   7  -9    9.52    0.80
 -18  -7   9    9.47    0.27
  16   7  -9    5.52    0.68
 -16  -7   9    5.02    0.14
  14   7  -9    4.32    0.59
 -14  -7   9    4.12    0.12
  12   7  -9    6.40    0.61
 -12  -7   9    6.75    0.19
  10   7  -9   11.66    0.81
  10   7  -9   12.02    0.76
 -10  -7   9   10.16    0.63
 -10  -7   9   10.30    0.29
   8   7  -9    5.99    0.68
   8   7  -9    6.04    0.61
  -8  -7   9    5.30    0.15
  -8  -7   9    5.63    0.52
   6   7  -9   17.80    0.86
   6   7  -9   16.53    0.77
  -6  -7   9   15.23    0.43
   4   7  -9   11.33    0.61
  -4  -7   9   11.23    0.31
   2   7  -9   28.62    0.99
  -2  -7   9   29.11    0.81
   4  -7   9   11.67    0.33
   6  -7   9   18.10    0.51
 -12   7  -9    7.42    1.33
 -14   7  -9    4.46    1.10
 -16   7  -9    5.78    1.12
 -18   7  -9   11.42    1.78
  19   6  -9    6.06    0.72
 -19  -6   9    5.97    0.17
  17   6  -9   15.97    0.90
 -17  -6   9   16.29    0.46
  15   6  -9    3.59    0.60
 -15  -6   9    2.75    0.08
  13   6  -9    3.15    0.53
 -13  -6   9    2.90    0.09
  11   6  -9    5.30    0.55
 -11  -6   9    4.75    0.53
 -11  -6   9    5.02    0.14
   9   6  -9    6.38    0.71
   9   6  -9    5.92    0.63
  -9  -6   9    5.37    0.16
  -9  -6   9    6.30    0.52
   7   6  -9   18.51    0.89
   7   6  -9   16.14    0.78
  -7  -6   9   14.48    0.42
  -7  -6   9   15.51    0.68
   5   6  -9    6.66    0.45
  -5  -6   9    6.43    0.18
   3   6  -9   61.06    1.85
   7  -6   9   18.83    0.52
   7  -6   9   18.09    0.70
  -9   6  -9    5.78    0.53
 -11   6  -9    5.33    1.01
 -13   6  -9    2.69    0.83
 -15   6  -9    2.27    1.05
 -17   6  -9   18.14    1.83
  20   5  -9    1.27    0.60
 -20  -5   9    1.11    0.04
  18   5  -9    0.78    0.58
 -18  -5   9    0.91    0.04
  16   5  -9    1.95    0.55
 -16  -5   9    1.46    0.05
  14   5  -9    3.09    0.47
 -14  -5   9    2.66    0.08
  12   5  -9   10.34    0.76
 -12  -5   9    8.67    0.60
 -12  -5   9    8.98    0.25
  10   5  -9    1.55    0.36
  10   5  -9    1.90    0.38
 -10  -5   9    1.31    0.34
 -10  -5   9    1.66    0.05
   8   5  -9   38.17    1.32
   8   5  -9   33.88    1.21
  -8  -5   9   31.50    1.07
  -8  -5   9   30.45    0.86
   6   5  -9    7.81    0.67
   6   5  -9    7.79    0.56
  -6  -5   9    6.33    0.18
  -6  -5   9    7.04    0.46
   4   5  -9    5.86    0.45
   2   5  -9    6.65    0.42
  -8   5  -9   35.31    1.20
  -8   5  -9   35.57    1.77
 -10   5  -9    1.61    0.72
 -12   5  -9    9.27    1.33
 -14   5  -9    1.83    0.80
 -16   5  -9    0.46    0.81
  19   4  -9    1.09    0.48
 -19  -4   9    1.25    0.05
  17   4  -9    3.36    0.60
 -17  -4   9    3.35    0.10
  15   4  -9    2.53    0.54
 -15  -4   9    2.19    0.07
  13   4  -9   15.01    0.86
 -13  -4   9   13.34    0.37
  11   4  -9    7.21    0.68
 -11  -4   9    5.49    0.15
 -11  -4   9    4.95    0.52
   9   4  -9   26.41    1.03
  -9  -4   9   21.02    0.59
  -9  -4   9   21.09    0.83
   7   4  -9   10.95    0.63
   7   4  -9   10.59    0.49
   7   4  -9   12.39    0.69
  -7  -4   9   10.61    0.53
  -7  -4   9    9.54    0.28
   5   4  -9    6.43    0.52
   5   4  -9    6.39    0.47
  -5  -4   9    5.48    0.39
   3   4  -9    2.68    0.27
   1   4  -9   18.25    0.64
  -7   4  -9   10.84    1.00
  -9   4  -9   23.37    0.87
  -9   4  -9   22.72    1.39
 -11   4  -9    6.30    1.01
 -13   4  -9   13.34    1.45
 -15   4  -9    2.61    0.98
  20   3  -9    0.73    0.57
 -20  -3   9    0.25    0.03
  18   3  -9    2.75    0.60
 -18  -3   9    1.69    0.06
  16   3  -9    0.98    0.52
 -16  -3   9    0.39    0.02
  14   3  -9    5.29    0.58
 -14  -3   9    4.39    0.13
  12   3  -9    0.55    0.46
 -12  -3   9    0.91    0.34
 -12  -3   9    0.75    0.03
  10   3  -9   43.07    1.47
 -10  -3   9   35.76    1.21
 -10  -3   9   35.76    1.00
   8   3  -9   10.82    0.58
  -8  -3   9    9.47    0.52
  -8  -3   9    8.65    0.25
   6   3  -9   67.50    2.04
   6   3  -9   67.62    2.15
  -6  -3   9   56.65    1.71
   4   3  -9    2.73    0.35
  -4  -3   9    2.24    0.23
   2   3  -9    0.79    0.22
  -2   3  -9    1.14    0.39
  -4   3  -9    2.54    0.56
  -6   3  -9   61.98    2.34
  -8   3  -9    8.41    0.99
  -8   3  -9    9.72    0.55
 -10   3  -9   38.12    1.92
 -10   3  -9   37.01    1.24
 -12   3  -9    1.38    0.86
 -16   3  -9    0.34    0.02
 -18   3  -9    2.03    0.06
 -20   3  -9    0.28    0.03
  21   2  -9    4.14    0.65
 -21  -2   9    4.52    0.13
  19   2  -9    0.16    0.55
 -19  -2   9    0.83    0.03
  17   2  -9    5.63    0.66
 -17  -2   9    4.80    0.14
  15   2  -9   12.71    0.85
 -15  -2   9   10.73    0.30
  13   2  -9   31.75    1.25
 -13  -2   9   23.55    0.94
 -13  -2   9   26.27    0.70
  11   2  -9   72.13    2.26
 -11  -2   9   59.15    1.87
 -11  -2   9   60.10    1.67
   9   2  -9    9.82    0.68
  -9  -2   9    7.90    0.23
  -9  -2   9    8.45    0.48
   7   2  -9   30.82    1.07
   7   2  -9   31.05    1.21
  -7  -2   9   26.40    0.90
   5   2  -9    7.79    0.61
   5   2  -9    7.06    0.45
  -5  -2   9    5.75    0.35
   3   2  -9    0.88    0.19
  -3  -2   9    1.08    0.19
   1   2  -9    2.58    0.25
  -1   2  -9    2.72    0.40
  -3   2  -9    1.09    0.45
  -5   2  -9    6.29    0.39
  -5   2  -9    7.48    0.89
  -7   2  -9   28.57    0.93
  -7   2  -9   25.78    1.38
  -9   2  -9    8.59    0.50
  -9   2  -9   10.02    1.05
 -11   2  -9   65.47    2.07
 -15   2  -9   10.93    0.31
 -17   2  -9    4.64    0.13
 -19   2  -9    0.75    0.03
 -21   2  -9    3.75    0.11
  20   1  -9    1.53    0.59
 -20  -1   9    1.78    0.06
  18   1  -9    3.94    0.62
 -18  -1   9    3.41    0.10
  16   1  -9    3.05    0.55
 -16  -1   9    2.66    0.08
  14   1  -9    2.96    0.52
 -14  -1   9    2.78    0.08
  12   1  -9   10.05    0.66
 -12  -1   9    8.84    0.25
 -12  -1   9    8.51    0.55
  10   1  -9    6.96    0.66
 -10  -1   9    6.83    0.54
 -10  -1   9    5.97    0.17
   8   1  -9   64.62    2.00
  -8  -1   9   52.24    1.58
  -8  -1   9   49.86    1.43
   6   1  -9   20.96    0.81
   6   1  -9   23.58    0.96
  -6  -1   9   17.75    0.65
   4   1  -9   16.80    0.74
   4   1  -9   19.76    0.65
  -4  -1   9   15.57    0.54
   2   1  -9    2.79    0.25
  -2  -1   9    2.27    0.21
   0   1  -9   -0.01    0.02
   0  -1   9    1.36    0.29
  -4   1  -9   17.43    0.58
  -6   1  -9   19.09    0.67
   6  -1   9   20.76    0.65
  -8   1  -9   54.48    1.66
 -10   1  -9    6.43    0.50
 -12   1  -9    9.29    0.26
 -14   1  -9    2.62    0.08
 -16   1  -9    2.76    0.08
 -18   1  -9    2.99    0.09
 -20   1  -9    1.53    0.05
  21   0  -9    4.58    0.68
 -21   0   9    4.15    0.12
  19   0  -9    5.23    0.66
 -19   0   9    5.21    0.15
  17   0  -9   15.66    0.95
 -17   0   9   14.69    0.41
  15   0  -9   19.39    0.99
 -15   0   9   16.48    0.46
  13   0  -9   47.60    1.64
 -13   0   9   41.51    1.15
 -13   0   9   40.31    1.40
  11   0  -9   62.40    2.00
 -11   0   9   52.01    1.45
 -11   0   9   51.90    1.67
   9   0  -9   26.10    1.02
  -9   0   9   21.98    0.62
  -9   0   9   22.71    0.86
   7   0  -9   31.69    1.08
  -7   0   9   29.03    1.02
  -7   0   9   33.36    1.03
   5   0  -9   10.23    0.62
   5   0  -9    9.05    0.46
  -5   0   9    7.87    0.39
   3   0  -9    0.23    0.17
  -3   0   9    0.27    0.12
   1   0  -9    1.01    0.11
  -1   0   9    1.54    0.16
  -1   0  -9    1.72    0.13
   1   0   9    1.47    0.30
  -3   0  -9    0.26    0.12
  -5   0  -9    8.05    0.35
  -7   0  -9   27.63    0.78
  -7   0  -9   28.32    0.90
  -9   0  -9   22.43    0.80
  -9   0  -9   22.78    0.63
 -11   0  -9   53.11    1.43
 -11   0  -9   49.15    1.61
  11   0   9   62.82    1.95
 -13   0  -9   42.18    1.18
 -15   0  -9   15.66    0.44
 -17   0  -9   14.25    0.40
 -19   0  -9    4.78    0.14
 -21   0  -9    3.97    0.12
  20  -1  -9    1.46    0.51
 -20   1   9    1.36    0.05
  18  -1  -9    3.46    0.61
 -18   1   9    3.04    0.09
  16  -1  -9    3.64    0.56
 -16   1   9    2.58    0.08
  14  -1  -9    2.92    0.43
 -14   1   9    2.67    0.08
  12  -1  -9   10.93    0.76
 -12   1   9    8.49    0.79
 -12   1   9   10.00    0.64
 -12   1   9    9.29    0.26
  10  -1  -9    5.76    0.62
 -10   1   9    6.34    0.19
 -10   1   9    6.20    0.55
 -10   1   9    8.19    0.64
   8  -1  -9   62.31    1.92
  -8   1   9   53.81    1.67
   6  -1  -9   20.63    0.78
   6  -1  -9   23.17    0.94
  -6   1   9   18.40    0.67
   4  -1  -9   19.48    0.66
   4  -1  -9   18.27    0.78
  -4   1   9   17.40    0.58
   2  -1  -9    0.01    0.02
  -2   1   9    2.17    0.17
  -4  -1  -9   17.96    0.57
  -6  -1  -9   18.09    0.62
   6   1   9   21.38    0.74
  -8  -1  -9   52.32    1.47
  -8  -1  -9   53.12    1.60
   8   1   9   63.34    1.90
 -10  -1  -9    5.90    0.44
 -10  -1  -9    6.40    0.18
  10   1   9    7.46    0.54
 -12  -1  -9    9.07    0.25
  12   1   9    9.81    0.64
 -14  -1  -9    2.61    0.08
  14   1   9    3.04    0.44
 -16  -1  -9    2.49    0.07
  16   1   9    2.77    0.47
 -18  -1  -9    3.21    0.09
  18   1   9    3.56    0.53
 -20  -1  -9    1.64    0.05
  21  -2  -9    4.75    0.71
 -21   2   9    4.10    0.12
  19  -2  -9    0.72    0.57
 -19   2   9    0.90    0.04
  17  -2  -9    5.81    0.64
 -17   2   9    4.62    0.13
  15  -2  -9   12.27    0.83
 -15   2   9   11.97    0.93
 -15   2   9   11.27    0.32
  13  -2  -9   30.98    1.20
 -13   2   9   26.78    1.27
 -13   2   9   27.82    1.09
 -13   2   9   28.56    0.78
  11  -2  -9   70.60    2.21
 -11   2   9   64.20    2.02
 -11   2   9   64.89    1.80
   9  -2  -9   10.24    0.63
  -9   2   9    9.21    0.59
   7  -2  -9   30.32    1.03
  -7   2   9   29.40    0.99
   5  -2  -9    6.80    0.42
   5  -2  -9    7.79    0.55
  -5   2   9    6.79    0.38
   3  -2  -9    1.09    0.15
  -3   2   9    1.15    0.18
  -1   2   9    2.38    0.16
  -3  -2  -9    1.16    0.14
   3   2   9    1.23    0.12
  -5  -2  -9    6.45    0.31
   5   2   9    7.43    0.37
   5   2   9    6.75    0.42
  -7  -2  -9   28.63    0.89
  -7  -2  -9   26.32    0.77
   7   2   9   30.89    1.01
  -9  -2  -9    8.96    0.47
  -9  -2  -9    8.86    0.25
   9   2   9   10.66    0.60
 -11  -2  -9   58.70    1.87
 -11  -2  -9   63.24    1.71
  11   2   9   66.96    2.04
 -13  -2  -9   28.08    0.79
  13   2   9   29.20    1.08
 -15  -2  -9   10.57    0.30
  15   2   9   10.97    0.70
 -17  -2  -9    4.58    0.13
  17   2   9    4.94    0.54
 -19  -2  -9    0.81    0.03
  19   2   9    0.51    0.48
 -21  -2  -9    3.64    0.11
 -20   3   9    0.16    0.03
  18  -3  -9    2.42    0.50
 -18   3   9    2.01    0.07
  16  -3  -9    0.81    0.50
 -16   3   9    0.52    0.58
 -16   3   9    0.37    0.03
  14  -3  -9    4.80    0.57
 -14   3   9    4.65    0.13
 -14   3   9    3.77    0.53
 -14   3   9    4.59    0.79
  12  -3  -9    0.46    0.35
 -12   3   9    0.85    0.37
  10  -3  -9   43.08    1.45
 -10   3   9   42.37    1.42
   8  -3  -9   11.60    0.66
  -8   3   9   10.21    0.59
   6  -3  -9   64.21    1.92
  -6   3   9   67.43    2.01
   4  -3  -9    2.67    0.33
  -4   3   9    2.73    0.32
  -2   3   9    1.16    0.18
   0   3   9    0.42    0.10
   2   3   9    0.94    0.08
  -4  -3  -9    2.60    0.21
   4   3   9    2.24    0.23
  -6  -3  -9   63.40    1.85
   6   3   9   63.52    1.86
  -8  -3  -9    9.82    0.48
  -8  -3  -9    8.92    0.26
   8   3   9   10.62    0.54
 -10  -3  -9   37.67    1.21
 -10  -3  -9   37.26    1.05
  10   3   9   40.01    1.30
 -12  -3  -9    0.71    0.03
 -12  -3  -9    1.40    0.26
  12   3   9    0.99    0.40
 -14  -3  -9    4.27    0.38
 -14  -3  -9    4.28    0.12
  14   3   9    4.31    0.55
 -16  -3  -9    0.36    0.02
 -16  -3  -9    0.50    0.23
  16   3   9    0.80    0.41
 -18  -3  -9    1.67    0.05
  18   3   9    2.09    0.49
 -20  -3  -9    0.14    0.02
  20   3   9   -0.30    0.47
 -19   4   9    1.47    0.05
 -17   4   9    3.48    0.11
 -17   4   9    4.50    0.80
 -15   4   9    3.28    0.70
 -13   4   9   14.09    0.78
 -11   4   9    6.26    0.61
  -9   4   9   24.67    0.96
  -7   4   9   11.62    0.60
   5  -4  -9    7.01    0.57
  -5   4   9    6.61    0.47
  -3   4   9    2.78    0.33
   3   4   9    2.30    0.18
  -5  -4  -9    6.13    0.32
   5   4   9    5.60    0.30
  -7  -4  -9   10.60    0.30
  -7  -4  -9   11.21    0.48
   7   4   9   11.36    0.50
  -9  -4  -9   21.42    0.87
  -9  -4  -9   22.50    0.62
  -9  -4  -9   22.07    0.78
   9   4   9   22.87    0.82
 -11  -4  -9    5.49    0.43
 -11  -4  -9    5.86    0.47
 -11  -4  -9    5.72    0.16
  11   4   9    6.49    0.51
 -13  -4  -9   13.01    0.63
 -13  -4  -9   13.85    0.38
  13   4   9   13.96    0.70
 -15  -4  -9    2.43    0.32
 -15  -4  -9    2.23    0.07
  15   4   9    2.63    0.43
 -17  -4  -9    3.35    0.10
  17   4   9    3.85    0.50
 -19  -4  -9    1.31    0.05
  19   4   9    1.39    0.48
 -20   5   9    0.43    0.77
 -18   5   9    0.87    0.75
 -18   5   9    0.90    0.03
 -16   5   9    1.57    0.72
 -12   5   9   10.31    0.69
 -10   5   9    1.47    0.38
  -8   5   9   37.05    1.26
  -6   5   9    7.63    0.50
   4  -5  -9    6.54    0.50
  -4   5   9    6.85    0.44
   2   5   9    6.22    0.28
   4   5   9    5.41    0.27
  -6  -5  -9    7.12    0.38
  -6  -5  -9    7.11    0.20
   6   5   9    6.33    0.36
  -8  -5  -9   33.69    0.97
  -8  -5  -9   36.17    1.26
  -8  -5  -9   34.99    1.13
   8   5   9   32.67    1.06
 -10  -5  -9    1.57    0.37
 -10  -5  -9    1.68    0.05
 -10  -5  -9    1.73    0.31
  10   5   9    1.56    0.30
 -12  -5  -9    9.56    0.58
 -12  -5  -9    9.31    0.26
  12   5   9    8.98    0.57
 -14  -5  -9    2.44    0.38
 -14  -5  -9    2.53    0.07
  14   5   9    2.70    0.41
 -16  -5  -9    1.11    0.34
 -16  -5  -9    1.56    0.05
  16   5   9    1.34    0.43
 -18  -5  -9    0.85    0.03
  18   5   9    0.47    0.45
 -20  -5  -9    1.16    0.04
  20   5   9    0.89    0.48
 -19   6   9    6.24    0.18
 -19   6   9    7.23    1.09
 -17   6   9   18.71    1.34
 -13   6   9    2.84    0.44
 -11   6   9    5.45    0.60
  -9   6   9    6.23    0.57
  -7   6   9   18.20    0.76
   5  -6  -9    7.35    0.55
  -5   6   9    8.46    0.54
  -1   6   9   21.07    0.73
   3   6   9   59.40    1.72
   5   6   9    6.38    0.34
  -7  -6  -9   16.98    0.83
  -7  -6  -9   17.02    0.48
  -7  -6  -9   17.49    0.66
   7   6   9   14.39    0.57
  -9  -6  -9    5.69    0.43
  -9  -6  -9    5.70    0.55
  -9  -6  -9    5.83    0.16
   9   6   9    5.34    0.41
 -11  -6  -9    6.02    0.58
 -11  -6  -9    5.29    0.15
  11   6   9    4.88    0.46
 -13  -6  -9    2.93    0.08
 -13  -6  -9    2.75    0.41
  13   6   9    2.74    0.38
 -15  -6  -9    2.74    0.42
 -15  -6  -9    2.84    0.08
  15   6   9    2.65    0.43
 -17  -6  -9   17.00    0.81
 -17  -6  -9   17.87    0.49
  17   6   9   15.96    0.84
 -19  -6  -9    6.16    0.17
  19   6   9    5.74    0.68
 -12   7   9    6.95    0.64
 -10   7   9   10.62    0.68
  -8   7   9    5.74    0.55
  -6   7   9   17.15    0.72
   4  -7  -9   12.04    0.59
   0   7   9   35.71    1.12
   4   7   9   10.60    0.46
  -6  -7  -9   18.13    0.90
  -6  -7  -9   17.62    0.50
   6   7   9   14.23    0.56
  -8  -7  -9    6.19    0.17
  -8  -7  -9    6.06    0.42
  -8  -7  -9    6.03    0.63
   8   7   9    5.16    0.42
 -10  -7  -9   10.91    0.76
 -10  -7  -9   11.30    0.31
  10   7   9    9.31    0.51
 -12  -7  -9    7.46    0.66
 -12  -7  -9    6.86    0.20
  12   7   9    5.94    0.50
 -14  -7  -9    4.31    0.55
 -14  -7  -9    4.41    0.13
  14   7   9    3.50    0.42
 -16  -7  -9    4.95    0.62
 -16  -7  -9    5.10    0.14
  16   7   9    4.79    0.50
 -18  -7  -9   10.09    0.91
 -18  -7  -9    9.12    0.26
  18   7   9    9.28    0.73
 -19   8   9   24.08    1.83
 -13   8   9    7.41    0.65
 -11   8   9    4.95    0.60
  -9   8   9    7.82    0.61
  -7   8   9    5.93    0.54
   5  -8  -9   35.18    1.17
  -1  -8  -9   65.58    1.83
  -3  -8  -9    9.40    0.26
   3   8   9    9.99    0.47
  -5  -8  -9   37.71    1.05
   5   8   9   30.15    0.96
  -7  -8  -9    6.24    0.70
  -7  -8  -9    6.34    0.18
   7   8   9    5.42    0.42
  -9  -8  -9    8.50    0.78
  -9  -8  -9    6.75    0.48
  -9  -8  -9    8.03    0.22
   9   8   9    5.89    0.43
 -11  -8  -9    5.34    0.15
 -11  -8  -9    4.96    0.62
  11   8   9    3.55    0.39
 -13  -8  -9    7.74    0.75
 -13  -8  -9    7.70    0.22
  13   8   9    7.17    0.54
 -15  -8  -9   11.22    0.75
 -15  -8  -9   11.42    0.32
  15   8   9   10.06    0.66
 -17  -8  -9   24.09    0.68
 -17  -8  -9   24.61    1.12
  17   8   9   20.99    0.96
 -19  -8  -9   21.44    0.60
  19   8   9   17.74    0.93
 -12   9   9    3.09    0.45
 -10   9   9    2.68    0.41
  -8   9   9    7.93    0.60
   4  -9  -9   22.02    0.82
  -2  -9  -9    9.56    0.27
  -4  -9  -9   23.95    0.67
   4   9   9   23.33    0.82
  -6  -9  -9    5.85    0.65
  -6  -9  -9    6.20    0.17
   6   9   9    5.57    0.42
  -8  -9  -9    7.35    0.76
  -8  -9  -9    8.17    0.23
   8   9   9    7.17    0.44
 -10  -9  -9    3.02    0.53
 -10  -9  -9    3.26    0.09
  10   9   9    2.91    0.37
 -12  -9  -9    4.34    0.58
 -12  -9  -9    4.80    0.14
  12   9   9    3.15    0.37
 -14  -9  -9    6.58    0.73
 -14  -9  -9    6.02    0.17
  14   9   9    4.88    0.54
 -16  -9  -9   21.94    0.63
 -16  -9  -9   23.19    1.09
  16   9   9   19.01    0.89
 -18  -9  -9    2.65    0.08
 -18  -9  -9    2.18    0.51
  18   9   9    2.01    0.50
 -11  10   9    4.73    0.59
  -9  10   9    2.80    0.40
  -7  10   9   10.61    0.64
   5 -10  -9    1.88    0.27
  -1 -10  -9    8.19    0.23
  -3 -10  -9   42.10    1.18
   3  10   9   41.31    1.31
  -5 -10  -9    1.48    0.04
  -5 -10  -9    0.94    0.57
   5  10   9    1.61    0.27
  -7 -10  -9   12.07    0.33
  -7 -10  -9   11.38    0.92
   7  10   9    9.83    0.50
  -9 -10  -9    3.27    0.09
  -9 -10  -9    2.55    0.58
   9  10   9    2.80    0.33
 -11 -10  -9    4.72    0.14
 -11 -10  -9    5.04    0.63
  11  10   9    3.97    0.45
 -13 -10  -9   10.81    0.87
 -13 -10  -9   10.00    0.29
  13  10   9    7.28    0.56
 -15 -10  -9   28.16    0.80
 -15 -10  -9   29.72    1.35
  15  10   9   21.27    0.92
 -17 -10  -9   11.31    0.88
 -17 -10  -9   11.85    0.33
  17  10   9    9.50    0.73
 -10  11   9    3.89    0.44
  -8  11   9    5.97    0.58
   6 -11  -9    4.48    0.43
   0 -11  -9   64.94    1.82
  -2 -11  -9   78.98    2.21
  -4 -11  -9    7.08    0.20
   4  11   9    6.11    0.44
  -6 -11  -9    5.63    0.16
  -6 -11  -9    5.75    0.74
   6  11   9    5.12    0.42
  -8 -11  -9    5.47    0.16
  -8 -11  -9    5.94    0.71
   8  11   9    4.28    0.43
 -10 -11  -9    4.78    0.61
 -10 -11  -9    5.09    0.14
  10  11   9    4.12    0.45
 -12 -11  -9    4.23    0.12
 -12 -11  -9    4.60    0.68
  12  11   9    3.79    0.40
 -14 -11  -9   12.84    0.36
 -14 -11  -9   13.54    0.99
  14  11   9    9.94    0.65
 -16 -11  -9    7.96    0.86
 -16 -11  -9    7.10    0.20
  16  11   9    4.84    0.62
 -18 -11  -9   20.64    1.25
 -18 -11  -9   21.19    0.59
  18  11   9   15.67    0.89
 -11  12   9    3.25    0.45
  -9  12   9    3.65    0.44
   5 -12  -9    9.34    0.48
  -1 -12  -9    9.43    0.26
  -3 -12  -9    0.94    0.03
   3  12   9    0.70    0.28
  -5 -12  -9   10.65    0.30
  -5 -12  -9   10.26    0.88
   5  12   9    9.57    0.58
  -7 -12  -9    6.56    0.80
  -7 -12  -9    7.97    0.22
   7  12   9    5.76    0.46
  -9 -12  -9    3.55    0.70
  -9 -12  -9    5.00    0.14
   9  12   9    4.67    0.53
 -11 -12  -9    4.73    0.14
 -11 -12  -9    5.42    0.76
  11  12   9    3.92    0.50
 -13 -12  -9    3.73    0.70
 -13 -12  -9    3.74    0.11
  13  12   9    2.70    0.42
 -15 -12  -9    8.77    0.25
 -15 -12  -9    8.37    0.94
  15  12   9    7.28    0.64
 -17 -12  -9   15.79    1.08
 -17 -12  -9   15.50    0.44
  17  12   9   11.02    0.77
 -10  13   9    9.42    0.71
   6 -13  -9    3.28    0.36
   0 -13  -9   46.50    1.30
  -2 -13  -9   31.75    0.89
  -4 -13  -9   16.33    0.46
   4  13   9   13.46    0.68
  -6 -13  -9    3.38    0.10
  -6 -13  -9    3.22    0.74
   6  13   9    2.50    0.34
  -8 -13  -9    8.72    0.24
  -8 -13  -9    8.13    0.86
   8  13   9    6.54    0.51
 -10 -13  -9   10.59    0.30
 -10 -13  -9   10.14    0.93
  10  13   9    8.91    0.65
 -12 -13  -9    3.62    0.77
 -12 -13  -9    3.55    0.10
  12  13   9    3.01    0.43
 -14 -13  -9    8.64    0.24
 -14 -13  -9    8.68    1.01
  14  13   9    5.87    0.61
 -16 -13  -9    4.54    0.78
 -16 -13  -9    5.08    0.15
  16  13   9    3.59    0.51
   7 -14  -9    4.21    0.38
   1 -14  -9    3.20    0.09
  -1 -14  -9    3.04    0.09
  -3 -14  -9    5.65    0.16
   3  14   9    4.69    0.47
  -5 -14  -9    3.14    0.09
  -5 -14  -9    2.82    0.77
   5  14   9    2.99    0.37
  -7 -14  -9    4.79    0.14
  -7 -14  -9    4.87    0.83
   7  14   9    4.15    0.54
  -9 -14  -9    6.86    0.89
  -9 -14  -9    7.06    0.20
   9  14   9    4.98    0.53
 -11 -14  -9   14.17    0.40
 -11 -14  -9   14.04    1.07
  11  14   9   10.33    0.66
 -13 -14  -9    9.65    1.10
 -13 -14  -9    8.69    0.25
  13  14   9    6.08    0.69
 -15 -14  -9    2.38    0.07
 -15 -14  -9    2.83    0.77
  15  14   9    1.30    0.45
   8 -15  -9    9.89    0.52
   0 -15  -9   18.12    0.51
  -2 -15  -9   13.07    0.37
  -4 -15  -9    3.02    0.09
   4  15   9    2.50    0.36
  -6 -15  -9    3.36    0.10
  -6 -15  -9    3.95    0.85
   6  15   9    3.09    0.40
  -8 -15  -9   13.37    0.38
  -8 -15  -9   14.09    1.12
   8  15   9   11.02    0.64
 -10 -15  -9   31.47    1.67
 -10 -15  -9   32.08    0.89
  10  15   9   23.44    0.96
 -12 -15  -9    9.40    0.26
 -12 -15  -9    9.13    1.15
  12  15   9    7.19    0.65
 -14 -15  -9    2.17    0.07
 -14 -15  -9    2.67    0.82
  14  15   9    1.30    0.45
   1 -16  -9    2.80    0.08
  -1 -16  -9    3.22    0.09
  -3 -16  -9    0.49    0.02
   3  16   9    0.61    0.39
  -5 -16  -9    1.87    0.06
   5  16   9    1.80    0.42
  -7 -16  -9    6.34    0.18
  -7 -16  -9    5.47    1.00
   7  16   9    5.25    0.55
  -9 -16  -9   26.55    1.46
  -9 -16  -9   26.21    0.74
   9  16   9   19.37    0.88
 -11 -16  -9    8.04    1.02
 -11 -16  -9    7.82    0.22
  11  16   9    5.20    0.62
 -13 -16  -9    5.14    0.15
 -13 -16  -9    5.81    0.97
  13  16   9    3.47    0.51
   0 -17  -9   18.08    0.51
  -2 -17  -9    5.64    0.16
  -4 -17  -9    4.29    0.12
   4  17   9    3.77    0.43
  -6 -17  -9   21.37    1.53
  -6 -17  -9   21.97    0.61
   6  17   9   15.60    0.83
  -8 -17  -9   29.64    0.83
  -8 -17  -9   29.44    1.75
   8  17   9   21.50    0.92
 -10 -17  -9   12.92    1.21
 -10 -17  -9   14.28    0.39
  10  17   9    9.68    0.70
 -12 -17  -9   16.22    0.46
 -12 -17  -9   16.42    1.44
  12  17   9   11.79    0.79
   1 -18  -9    3.88    0.11
  -1 -18  -9    3.45    0.10
  -3 -18  -9    2.37    0.07
   3  18   9    1.80    0.41
  -5 -18  -9    1.16    0.04
   5  18   9    1.29    0.45
  -7 -18  -9   12.86    0.35
  -7 -18  -9   11.21    1.23
   7  18   9    8.38    0.66
  -9 -18  -9    2.44    1.04
  -9 -18  -9    2.94    0.09
   9  18   9    2.18    0.46
 -11 -18  -9   25.88    0.72
 -11 -18  -9   25.02    1.57
  11  18   9   17.79    1.00
   0 -19  -9    5.72    0.16
  -2 -19  -9    1.19    0.04
  -4 -19  -9    1.71    0.06
   4  19   9    0.87    0.41
  -6 -19  -9    7.66    0.22
   6  19   9    6.06    0.69
  -8 -19  -9   25.88    1.63
  -8 -19  -9   27.63    0.76
   8  19   9   18.51    0.89
  -1 -20  -9    2.24    0.07
  -3 -20  -9    0.13    0.02
   3  20   9    0.18    0.41
  -5 -20  -9    2.14    0.07
   5  20   9    1.40    0.43
   0 -21  -9    5.08    0.15
  -2 -21  -9    4.98    0.14
   2  21   9    3.84    0.51
   6  20 -10    0.42    0.41
  -6 -20  10    0.17    0.04
   4  20 -10    0.32    0.51
  -4 -20  10    0.99    0.05
   2  20 -10    1.84    0.57
  -2 -20  10    2.54    0.08
   0 -20  10    1.02    0.04
   2 -20  10    2.25    0.08
   2 -20  10    2.20    0.89
   4 -20  10    0.72    0.03
   4 -20  10    0.97    0.77
   6 -20  10    0.60    0.04
   6 -20  10    0.47    0.71
   7  19 -10   14.01    0.89
  -7 -19  10   22.17    0.62
   5  19 -10    2.30    0.53
  -5 -19  10    2.96    0.09
   3  19 -10    0.72    0.43
  -3 -19  10    0.50    0.03
  -1 -19  10    2.39    0.08
   1 -19  10    2.74    0.09
   3 -19  10    0.45    0.03
   3 -19  10    0.37    0.63
   5 -19  10    2.85    0.09
   5 -19  10    3.76    0.78
   7 -19  10   20.86    1.27
   7 -19  10   21.02    0.59
  10  18 -10   20.51    1.03
 -10 -18  10   34.73    0.97
   8  18 -10    0.51    0.48
  -8 -18  10    0.64    0.04
   6  18 -10    7.37    0.73
  -6 -18  10   10.10    0.29
   4  18 -10    0.63    0.49
  -4 -18  10    1.18    0.05
   2  18 -10    3.33    0.57
  -2 -18  10    4.52    0.13
   0 -18  10    4.07    0.12
   2 -18  10    3.98    0.12
   4 -18  10    0.86    0.03
   4 -18  10    1.06    0.59
   6 -18  10    8.92    0.25
   6 -18  10    9.24    0.99
   8 -18  10    1.36    0.61
   8 -18  10    0.83    0.03
  11  17 -10   10.37    0.84
 -11 -17  10   16.63    0.47
   9  17 -10   11.18    0.80
  -9 -17  10   19.58    0.55
   7  17 -10   12.66    0.81
  -7 -17  10   20.48    0.57
   5  17 -10    8.05    0.72
  -5 -17  10   12.30    0.35
   3  17 -10    0.65    0.39
  -3 -17  10    0.46    0.03
  -1 -17  10   14.11    0.40
   1 -17  10   13.99    0.39
   3 -17  10    0.39    0.02
   5 -17  10   11.18    0.31
   5 -17  10   10.11    1.01
   7 -17  10   17.06    1.09
   7 -17  10   17.48    0.49
   9 -17  10   17.63    0.49
  12  16 -10    7.87    0.69
 -12 -16  10   11.32    0.32
  10  16 -10    2.99    0.46
 -10 -16  10    4.20    0.12
   8  16 -10   16.68    0.81
  -8 -16  10   27.91    0.78
   6  16 -10    3.19    0.49
  -6 -16  10    4.35    0.13
   4  16 -10    0.78    0.37
  -4 -16  10    1.21    0.05
   2  16 -10    2.26    0.50
  -2 -16  10    2.19    0.07
   0 -16  10    5.21    0.15
   2 -16  10    2.24    0.07
   4 -16  10    1.03    0.04
   6 -16  10    2.98    0.63
   6 -16  10    3.79    0.11
   8 -16  10   22.85    1.18
   8 -16  10   24.36    0.67
  13  15 -10    2.91    0.61
 -13 -15  10    2.90    0.09
  11  15 -10    7.56    0.77
 -11 -15  10   11.46    0.32
   9  15 -10   19.90    0.95
  -9 -15  10   28.58    0.80
   7  15 -10    4.60    0.53
  -7 -15  10    6.75    0.19
   5  15 -10    1.21    0.43
  -5 -15  10    1.47    0.05
   3  15 -10    5.62    0.66
  -3 -15  10    6.78    0.19
  -1 -15  10   19.49    0.55
   1 -15  10   18.15    0.51
   3 -15  10    5.88    0.17
   5 -15  10    1.54    0.05
   7 -15  10    5.67    0.16
   7 -15  10    6.00    0.73
   9 -15  10   26.30    0.74
  14  14 -10    1.00    0.53
  14  14 -10    1.10    0.59
 -14 -14  10    0.91    0.04
  12  14 -10    5.42    0.63
 -12 -14  10    7.06    0.20
  10  14 -10    9.99    0.78
 -10 -14  10   13.98    0.39
   8  14 -10    4.72    0.52
  -8 -14  10    5.72    0.16
   6  14 -10    1.55    0.42
  -6 -14  10    2.20    0.07
   4  14 -10    0.54    0.34
  -4 -14  10    1.05    0.04
  -2 -14  10    8.68    0.25
   0 -14  10    2.56    0.08
   2 -14  10    8.29    0.23
   4 -14  10    0.91    0.03
   6 -14  10    2.39    0.52
   6 -14  10    1.96    0.06
   8 -14  10    5.66    0.62
   8 -14  10    4.94    0.14
  15  13 -10    1.86    0.63
  15  13 -10    2.16    0.57
 -15 -13  10    2.94    0.09
  13  13 -10    9.89    0.87
  13  13 -10    9.50    0.81
 -13 -13  10   10.57    0.30
  11  13 -10    4.82    0.59
 -11 -13  10    5.86    0.17
   9  13 -10    5.25    0.64
  -9 -13  10    6.49    0.18
   7  13 -10    1.95    0.43
  -7 -13  10    2.21    0.07
   5  13 -10    2.59    0.37
  -5 -13  10    3.94    0.12
   3  13 -10   26.01    1.04
  -3 -13  10   35.51    0.99
  -1 -13  10   45.95    1.28
   1 -13  10   43.91    1.23
   3 -13  10   32.28    0.90
   5 -13  10    3.37    0.10
   7 -13  10    2.16    0.07
   7 -13  10    1.57    0.50
   9 -13  10    6.32    0.18
  16  12 -10   11.10    0.94
  16  12 -10    8.88    0.86
 -16 -12  10   10.27    0.29
  14  12 -10    6.24    0.65
  14  12 -10    5.85    0.61
 -14 -12  10    6.59    0.19
  12  12 -10    0.11    0.48
  12  12 -10    0.35    0.43
 -12 -12  10    0.05    0.03
  10  12 -10    2.93    0.51
 -10 -12  10    3.66    0.11
   8  12 -10    3.45    0.41
  -8 -12  10    3.79    0.11
   6  12 -10    1.96    0.41
  -6 -12  10    2.53    0.08
   4  12 -10   14.03    0.74
  -4 -12  10   17.69    0.50
  -2 -12  10    1.30    0.05
   0 -12  10   15.79    0.44
   2 -12  10    1.14    0.04
   4 -12  10   15.60    0.44
   6 -12  10    2.24    0.07
   8 -12  10    4.67    0.51
   8 -12  10    3.89    0.11
 -16  12 -10   12.50    2.04
  17  11 -10   12.81    1.01
  17  11 -10   13.75    0.88
 -17 -11  10   13.54    0.38
  15  11 -10    9.06    0.84
  15  11 -10    9.21    0.77
 -15 -11  10    9.75    0.27
  13  11 -10    5.68    0.66
  13  11 -10    6.19    0.63
 -13 -11  10    5.49    0.16
  11  11 -10    3.61    0.55
  11  11 -10    2.47    0.52
 -11 -11  10    3.03    0.09
   9  11 -10    1.06    0.38
  -9 -11  10    1.42    0.05
   7  11 -10    4.78    0.58
  -7 -11  10    5.08    0.15
   5  11 -10   12.49    0.70
  -5 -11  10   15.54    0.44
   3  11 -10    7.93    0.62
  -3 -11  10    9.56    0.27
  -1 -11  10   97.29    2.72
   1 -11  10   93.82    2.62
   3 -11  10    8.52    0.24
   5 -11  10   14.33    0.40
   7 -11  10    5.22    0.61
   7 -11  10    5.30    0.15
   9 -11  10    1.38    0.05
 -15  11 -10   11.57    1.87
 -17  11 -10   15.10    1.93
  18  10 -10   24.78    1.30
  18  10 -10   24.71    1.31
 -18 -10  10   25.03    0.70
  16  10 -10    3.29    0.64
  16  10 -10    3.21    0.66
 -16 -10  10    3.72    0.11
  14  10 -10   11.10    0.79
  14  10 -10   11.94    0.88
 -14 -10  10   11.75    0.33
  12  10 -10    3.71    0.57
  12  10 -10    2.78    0.54
 -12 -10  10    3.37    0.10
  10  10 -10    0.59    0.38
  10  10 -10    0.16    0.45
 -10 -10  10    0.41    0.02
   8  10 -10    3.68    0.41
  -8 -10  10    3.78    0.11
   6  10 -10    5.29    0.50
  -6 -10  10    6.17    0.17
   4  10 -10    5.46    0.56
  -4 -10  10    6.49    0.18
   2  10 -10   65.81    2.04
  -2 -10  10   85.73    2.40
   0 -10  10    5.79    0.16
   2 -10  10   77.05    2.15
   4 -10  10    5.88    0.17
   6 -10  10    6.08    0.17
   8 -10  10    4.17    0.12
   8 -10  10    4.46    0.52
 -14  10 -10   12.36    1.53
 -16  10 -10    4.14    1.23
 -18  10 -10   29.14    2.54
  17   9 -10   14.46    1.05
  17   9 -10   14.99    1.04
 -17  -9  10   15.18    0.43
  15   9 -10   24.51    1.17
  15   9 -10   23.49    1.18
 -15  -9  10   23.36    0.65
  13   9 -10    5.36    0.62
  13   9 -10    6.04    0.64
 -13  -9  10    5.52    0.16
  11   9 -10    1.98    0.51
  11   9 -10    1.81    0.42
 -11  -9  10    1.33    0.05
   9   9 -10    3.13    0.52
   9   9 -10    3.92    0.50
  -9  -9  10    3.31    0.10
   7   9 -10   10.26    0.60
  -7  -9  10   10.18    0.29
   5   9 -10    6.74    0.58
  -5  -9  10    7.06    0.20
   3   9 -10   56.01    1.74
  -3  -9  10   68.31    1.91
  -1  -9  10    7.13    0.20
   1  -9  10    6.30    0.18
   3  -9  10   60.63    1.69
   5  -9  10    7.24    0.20
   7  -9  10   10.75    0.67
   7  -9  10   10.91    0.30
 -13   9 -10    6.42    1.07
 -15   9 -10   24.31    1.85
 -17   9 -10   18.68    2.05
  18   8 -10    0.36    0.52
 -18  -8  10    0.59    0.03
  16   8 -10   20.73    1.12
 -16  -8  10   20.02    0.56
  14   8 -10    5.51    0.64
  14   8 -10    5.21    0.62
 -14  -8  10    4.65    0.13
  12   8 -10    3.93    0.56
  12   8 -10    3.60    0.56
 -12  -8  10    3.30    0.10
  10   8 -10    4.17    0.55
  10   8 -10    3.62    0.51
 -10  -8  10    3.58    0.10
   8   8 -10    2.02    0.37
   8   8 -10    2.07    0.42
  -8  -8  10    2.23    0.07
   6   8 -10    8.76    0.61
  -6  -8  10    8.85    0.25
   4   8 -10   36.90    1.24
  -4  -8  10   40.13    1.12
   2   8 -10    8.72    0.50
  -2  -8  10   10.36    0.29
   0  -8  10  102.97    2.88
   2  -8  10    9.22    0.26
   4  -8  10   39.69    1.11
   6  -8  10    9.29    0.26
   8  -8  10    2.45    0.33
   8  -8  10    2.51    0.07
 -12   8 -10    3.61    1.01
 -14   8 -10    4.95    1.18
 -16   8 -10   21.36    1.81
 -18   8 -10   -0.10    1.30
  19   7 -10   16.27    1.10
 -19  -7  10   17.43    0.49
  17   7 -10   14.81    0.90
 -17  -7  10   14.08    0.40
  15   7 -10    5.49    0.67
 -15  -7  10    5.13    0.15
  13   7 -10    2.21    0.44
  13   7 -10    1.19    0.51
 -13  -7  10    2.00    0.06
  11   7 -10    5.07    0.58
  11   7 -10    5.12    0.59
 -11  -7  10    4.78    0.14
   9   7 -10   10.62    0.70
   9   7 -10    9.83    0.71
  -9  -7  10    9.34    0.60
  -9  -7  10    9.42    0.26
   7   7 -10   22.15    0.93
   7   7 -10   23.70    0.98
  -7  -7  10   19.77    0.82
  -7  -7  10   20.25    0.56
   5   7 -10    9.99    0.60
  -5  -7  10    9.82    0.28
   3   7 -10   31.46    1.07
  -3  -7  10   35.14    0.98
  -1  -7  10   56.61    1.58
   3  -7  10   35.68    1.00
   5  -7  10   10.33    0.29
   7  -7  10   24.90    0.70
 -11   7 -10    5.36    0.91
 -13   7 -10    1.51    0.81
 -15   7 -10    5.19    1.24
 -17   7 -10   15.54    1.62
 -19   7 -10   18.87    2.04
  20   6 -10    0.22    0.61
 -20  -6  10    0.47    0.03
  18   6 -10    7.78    0.89
 -18  -6  10    7.56    0.21
  16   6 -10    3.63    0.53
 -16  -6  10    3.22    0.10
  14   6 -10    1.64    0.53
 -14  -6  10    1.59    0.05
  12   6 -10    2.20    0.50
  12   6 -10    2.16    0.52
 -12  -6  10    2.05    0.06
  10   6 -10    5.30    0.53
  10   6 -10    6.16    0.66
  10   6 -10    7.68    0.74
 -10  -6  10    5.39    0.53
 -10  -6  10    5.72    0.16
   8   6 -10    8.61    0.66
   8   6 -10    9.66    0.77
  -8  -6  10    8.13    0.48
  -8  -6  10    8.08    0.23
   6   6 -10    3.22    0.39
   6   6 -10    3.21    0.49
  -6  -6  10    2.70    0.08
  -6  -6  10    2.52    0.29
   4   6 -10    8.03    0.53
  -4  -6  10    6.65    0.19
   2   6 -10   39.38    1.25
   6  -6  10    3.22    0.09
 -10   6 -10    6.64    1.04
 -12   6 -10    1.78    0.77
 -14   6 -10    1.57    0.99
 -16   6 -10    2.96    1.15
 -18   6 -10    8.35    1.30
 -20   6 -10    0.39    0.03
  19   5 -10    1.54    0.61
 -19  -5  10    2.30    0.07
  17   5 -10    8.59    0.87
 -17  -5  10    8.76    0.25
  15   5 -10    1.54    0.54
 -15  -5  10    1.14    0.04
  13   5 -10    3.40    0.55
 -13  -5  10    3.06    0.09
  11   5 -10   15.44    0.82
  11   5 -10   13.86    0.81
 -11  -5  10   12.51    0.67
 -11  -5  10   13.02    0.36
   9   5 -10    7.21    0.56
   9   5 -10    7.04    0.65
  -9  -5  10    6.62    0.52
  -9  -5  10    6.36    0.18
   7   5 -10   11.92    0.80
   7   5 -10   11.57    0.67
  -7  -5  10    9.42    0.27
  -7  -5  10    9.94    0.54
   5   5 -10   18.76    0.75
  -5  -5  10   17.46    0.68
  -5  -5  10   17.21    0.48
   3   5 -10   12.05    0.60
   1   5 -10    5.41    0.39
  -7   5 -10   10.79    1.14
   7  -5  10   11.66    0.33
  -9   5 -10    6.90    0.53
  -9   5 -10    7.04    1.01
 -11   5 -10   13.47    1.41
 -13   5 -10    3.60    1.00
 -15   5 -10    1.52    1.00
 -19   5 -10    1.92    0.06
  20   4 -10    0.26    0.47
 -20  -4  10    0.48    0.03
  18   4 -10    0.94    0.57
 -18  -4  10    0.85    0.03
  16   4 -10    0.69    0.54
 -16  -4  10    0.80    0.03
  14   4 -10    1.03    0.42
 -14  -4  10    0.78    0.03
  12   4 -10   16.22    0.88
 -12  -4  10   13.37    0.37
 -12  -4  10   12.76    0.68
  10   4 -10    5.73    0.55
 -10  -4  10    5.42    0.51
 -10  -4  10    5.08    0.15
   8   4 -10   42.90    1.48
   8   4 -10   40.60    1.40
  -8  -4  10   34.27    0.95
  -8  -4  10   33.79    1.12
   6   4 -10    9.07    0.57
   6   4 -10    8.17    0.71
  -6  -4  10    6.91    0.44
  -6  -4  10    6.29    0.18
   4   4 -10    1.37    0.28
  -4  -4  10    1.26    0.24
   2   4 -10   16.89    0.62
  -4   4 -10    1.15    0.55
  -6   4 -10    7.74    1.03
  -8   4 -10   37.13    1.24
  -8   4 -10   38.71    1.85
 -10   4 -10    5.25    0.56
 -10   4 -10    5.84    0.99
 -12   4 -10   13.20    1.25
 -14   4 -10    0.72    0.72
 -18   4 -10    0.71    0.03
 -20   4 -10    0.65    0.03
  19   3 -10   -0.10    0.55
 -19  -3  10    0.21    0.03
  17   3 -10    0.50    0.44
 -17  -3  10    0.36    0.03
  15   3 -10    6.33    0.75
 -15  -3  10    4.71    0.13
  13   3 -10   29.28    1.18
 -13  -3  10   25.75    1.04
 -13  -3  10   25.79    0.72
  11   3 -10    9.32    0.72
 -11  -3  10    6.75    0.19
 -11  -3  10    6.48    0.54
   9   3 -10   66.54    2.07
  -9  -3  10   54.11    1.68
  -9  -3  10   54.22    1.51
   7   3 -10   34.55    1.24
   7   3 -10   40.32    1.40
  -7  -3  10   28.21    0.80
  -7  -3  10   29.46    0.97
   5   3 -10   10.88    0.65
   5   3 -10   12.04    0.56
  -5  -3  10   10.16    0.47
   3   3 -10    3.94    0.35
   3   3 -10    4.79    0.39
  -3  -3  10    4.55    0.33
   1   3 -10    5.38    0.35
   1   3 -10    5.54    0.47
  -1   3 -10    5.97    0.64
  -3   3 -10    4.12    0.70
  -5   3 -10   11.24    1.03
  -7   3 -10   36.25    1.71
  -7   3 -10   32.50    1.10
  -9   3 -10   54.80    2.28
  -9   3 -10   58.23    1.75
 -11   3 -10    7.71    1.27
 -15   3 -10    5.11    0.15
 -17   3 -10    0.38    0.02
 -19   3 -10    0.39    0.03
  20   2 -10    1.61    0.59
 -20  -2  10    1.88    0.06
  18   2 -10    3.91    0.61
 -18  -2  10    3.15    0.09
  16   2 -10    1.72    0.53
 -16  -2  10    1.57    0.05
  14   2 -10    7.74    0.75
 -14  -2  10    6.30    0.18
  12   2 -10    1.27    0.47
 -12  -2  10    0.98    0.04
 -12  -2  10    1.04    0.34
  10   2 -10   74.58    2.31
 -10  -2  10   62.55    1.74
 -10  -2  10   61.94    1.92
   8   2 -10   10.05    0.64
  -8  -2  10    7.69    0.22
  -8  -2  10    7.72    0.49
   6   2 -10   44.84    1.40
   6   2 -10   43.12    1.53
  -6  -2  10   36.13    1.14
   4   2 -10   18.43    0.70
  -4  -2  10   14.36    0.53
   2   2 -10    0.21    0.18
   0   2 -10    1.58    0.19
  -2   2 -10    0.02    0.46
  -4   2 -10   16.83    1.07
  -6   2 -10   40.79    1.22
  -6   2 -10   37.18    1.74
  -8   2 -10   10.24    1.19
  -8   2 -10    9.22    0.53
 -10   2 -10   63.04    1.92
 -14   2 -10    6.67    0.19
 -16   2 -10    1.50    0.05
 -18   2 -10    3.43    0.10
 -20   2 -10    1.89    0.06
  19   1 -10    2.55    0.51
 -19  -1  10    1.93    0.06
  17   1 -10   11.42    0.77
 -17  -1  10   10.22    0.29
  15   1 -10   16.71    0.85
 -15  -1  10   14.61    0.41
  13   1 -10   40.42    1.46
 -13  -1  10   32.55    0.92
 -13  -1  10   33.22    1.19
  11   1 -10   88.76    2.72
 -11  -1  10   69.66    1.97
 -11  -1  10   71.65    2.17
   9   1 -10    6.71    0.62
  -9  -1  10    5.53    0.49
  -9  -1  10    4.89    0.14
   7   1 -10   53.23    1.84
   7   1 -10   55.53    1.70
  -7  -1  10   45.07    1.40
   5   1 -10    5.95    0.52
   5   1 -10    6.04    0.42
  -5  -1  10    5.31    0.37
   3   1 -10    5.47    0.36
  -3  -1  10    4.54    0.28
   1   1 -10    0.10    0.06
  -1  -1  10    1.23    0.25
  -5   1 -10    5.59    0.33
  -7   1 -10   46.89    1.42
  -9   1 -10    5.78    0.42
 -11   1 -10   73.40    2.07
 -11   1 -10   74.95    2.29
 -13   1 -10   33.91    0.95
 -15   1 -10   14.46    0.41
 -17   1 -10    9.30    0.26
 -19   1 -10    1.87    0.06
  20   0 -10    1.28    0.50
 -20   0  10    1.04    0.04
  18   0 -10    2.98    0.59
 -18   0  10    3.24    0.10
  16   0 -10    4.24    0.58
 -16   0  10    3.66    0.11
  14   0 -10    2.85    0.44
 -14   0  10    1.92    0.06
  12   0 -10   16.80    0.88
 -12   0  10   13.23    0.37
 -12   0  10   13.12    0.71
  10   0 -10    5.07    0.63
 -10   0  10    3.86    0.43
 -10   0  10    3.71    0.11
   8   0 -10   99.89    2.96
  -8   0  10   79.70    2.27
  -8   0  10   81.78    2.42
  -8   0  10   82.54    2.42
   6   0 -10   14.12    0.77
   6   0 -10   12.51    0.59
  -6   0  10   10.28    0.48
   4   0 -10    4.77    0.37
   4   0 -10    5.12    0.45
  -4   0  10    4.13    0.30
   2   0 -10    0.03    0.05
  -2   0  10    1.49    0.14
   0   0 -10    0.25    0.11
  -4   0 -10    4.53    0.26
  -6   0 -10   10.45    0.44
   6   0  10   10.59    0.45
  -8   0 -10   83.14    2.29
  -8   0 -10   80.78    2.40
 -10   0 -10    4.16    0.12
 -10   0 -10    3.98    0.41
 -12   0 -10   14.03    0.39
 -14   0 -10    1.89    0.06
 -16   0 -10    3.58    0.10
 -18   0 -10    2.96    0.09
 -20   0 -10    0.89    0.04
  19  -1 -10    2.12    0.61
 -19   1  10    2.01    0.06
  17  -1 -10   11.48    0.86
 -17   1  10   10.67    0.30
  15  -1 -10   15.67    0.82
 -15   1  10   14.80    0.42
  13  -1 -10   39.39    1.42
 -13   1  10   33.29    0.93
 -13   1  10   33.31    1.22
  11  -1 -10   84.76    2.60
 -11   1  10   74.64    2.31
 -11   1  10   75.35    2.10
 -11   1  10   75.80    2.42
   9  -1 -10    6.53    0.59
  -9   1  10    5.46    0.50
  -9   1  10    5.28    0.15
   7  -1 -10   55.29    1.71
  -7   1  10   49.13    1.51
   5  -1 -10    5.52    0.50
   5  -1 -10    5.98    0.43
  -5   1  10    5.16    0.37
   3  -1 -10    5.53    0.29
  -3   1  10    4.76    0.26
   1  -1 -10    1.35    0.16
  -1   1  10    1.06    0.11
  -3  -1 -10    5.27    0.21
  -5  -1 -10    5.11    0.29
   5   1  10    5.28    0.40
  -7  -1 -10   45.99    1.32
  -7  -1 -10   48.46    1.42
   7   1  10   55.79    1.69
  -9  -1 -10    5.32    0.15
  -9  -1 -10    5.47    0.44
   9   1  10    6.69    0.55
 -11  -1 -10   73.53    1.99
 -11  -1 -10   68.48    2.14
  11   1  10   83.99    2.53
 -13  -1 -10   32.77    0.92
  13   1  10   37.30    1.29
 -15  -1 -10   14.12    0.40
  15   1  10   14.78    0.79
 -17  -1 -10    9.66    0.27
 -19  -1 -10    1.78    0.06
  20  -2 -10    2.02    0.63
 -20   2  10    1.78    0.06
  18  -2 -10    3.70    0.61
 -18   2  10    3.30    0.10
  16  -2 -10    1.93    0.54
 -16   2  10    1.74    0.06
  14  -2 -10    7.16    0.61
 -14   2  10    6.94    0.19
 -14   2  10    5.60    0.53
 -14   2  10    7.48    0.75
  12  -2 -10    1.00    0.43
 -12   2  10    1.22    0.43
 -12   2  10    1.03    0.04
 -12   2  10    0.94    0.36
  10  -2 -10   72.45    2.24
 -10   2  10   68.49    2.09
 -10   2  10   67.13    1.89
   8  -2 -10   10.15    0.59
  -8   2  10    9.01    0.54
   6  -2 -10   42.66    1.31
   6  -2 -10   41.07    1.45
  -6   2  10   40.71    1.27
   4  -2 -10   17.24    0.61
   4  -2 -10   17.74    0.77
  -4   2  10   16.99    0.59
  -2   2  10    0.19    0.12
  -4  -2 -10   17.19    0.54
   4   2  10   19.37    0.62
  -6  -2 -10   41.38    1.25
   6   2  10   45.98    1.39
  -8  -2 -10    8.11    0.23
  -8  -2 -10    8.74    0.45
   8   2  10    9.87    0.53
 -10  -2 -10   65.31    1.80
 -10  -2 -10   63.44    1.95
  10   2  10   72.84    2.19
 -12  -2 -10    1.20    0.04
  12   2  10    1.04    0.36
 -14  -2 -10    6.16    0.17
  14   2  10    7.10    0.60
 -16  -2 -10    1.55    0.05
  16   2  10    1.49    0.44
 -18  -2 -10    3.18    0.09
  18   2  10    3.09    0.51
 -20  -2 -10    1.57    0.05
 -19   3  10    0.29    0.03
  17  -3 -10    0.50    0.44
 -17   3  10    0.28    0.03
  15  -3 -10    5.42    0.59
 -15   3  10    4.99    0.14
 -15   3  10    4.87    0.79
  13  -3 -10   28.12    1.13
 -13   3  10   26.62    1.08
 -13   3  10   27.59    0.78
 -13   3  10   29.30    1.30
  11  -3 -10    8.30    0.66
 -11   3  10    7.64    0.61
   9  -3 -10   65.29    2.01
  -9   3  10   65.36    2.02
   7  -3 -10   34.27    1.13
  -7   3  10   35.01    1.15
   5  -3 -10   11.51    0.65
  -5   3  10   12.59    0.55
  -3   3  10    4.96    0.30
  -1   3  10    5.70    0.25
   3   3  10    4.76    0.22
  -5  -3 -10   11.21    0.42
   5   3  10   12.18    0.48
  -7  -3 -10   31.77    0.90
  -7  -3 -10   33.03    1.03
   7   3  10   36.08    1.13
  -9  -3 -10   58.09    1.64
  -9  -3 -10   59.64    1.78
   9   3  10   63.38    1.91
 -11  -3 -10    7.06    0.20
 -11  -3 -10    6.64    0.45
  11   3  10    7.81    0.59
 -13  -3 -10   25.96    0.73
  13   3  10   27.67    1.02
 -15  -3 -10    4.82    0.14
  15   3  10    4.82    0.57
 -17  -3 -10    0.27    0.02
  17   3  10    0.14    0.49
 -19  -3 -10    0.27    0.02
  19   3  10   -0.01    0.46
 -20   4  10    0.53    0.03
 -18   4  10    1.35    0.59
 -18   4  10    0.67    0.03
 -16   4  10    1.04    0.62
 -16   4  10    0.86    0.03
 -14   4  10    0.82    0.39
 -12   4  10   15.46    0.79
 -10   4  10    5.89    0.58
  -8   4  10   40.73    1.34
   6  -4 -10    8.26    0.61
  -6   4  10    8.38    0.49
   4  -4 -10    1.28    0.36
  -4   4  10    1.53    0.25
  -2   4  10   19.73    0.65
   2   4  10   14.21    0.43
   4   4  10    1.24    0.15
  -6  -4 -10    7.73    0.39
   6   4  10    7.25    0.37
  -8  -4 -10   37.62    1.05
  -8  -4 -10   37.64    1.18
   8   4  10   38.47    1.22
 -10  -4 -10    5.39    0.15
 -10  -4 -10    5.72    0.45
  10   4  10    5.65    0.46
 -12  -4 -10   14.11    0.39
  12   4  10   14.41    0.68
 -14  -4 -10    0.84    0.29
 -14  -4 -10    0.90    0.03
  14   4  10    0.71    0.37
 -16  -4 -10    1.26    0.28
 -16  -4 -10    0.93    0.03
  16   4  10    0.41    0.40
 -18  -4 -10    0.67    0.03
  18   4  10    0.33    0.44
 -20  -4 -10    0.52    0.03
  20   4  10    0.47    0.47
 -19   5  10    2.04    0.07
 -19   5  10    3.19    0.82
 -17   5  10    8.57    1.09
 -17   5  10    9.38    0.26
 -13   5  10    2.85    0.44
 -11   5  10   13.71    0.75
  -9   5  10    8.02    0.60
  -7   5  10   10.91    0.59
   5  -5 -10   21.87    0.86
  -5   5  10   21.76    0.81
  -3   5  10   13.38    0.53
   3   5  10    9.33    0.34
   5   5  10   17.38    0.59
  -7  -5 -10   10.96    0.50
  -7  -5 -10   10.18    0.29
   7   5  10    9.76    0.46
  -9  -5 -10    6.57    0.47
  -9  -5 -10    6.88    0.19
   9   5  10    6.84    0.44
 -11  -5 -10   13.67    0.38
 -11  -5 -10   12.83    0.68
  11   5  10   13.83    0.64
 -13  -5 -10    3.19    0.09
 -13  -5 -10    2.76    0.36
  13   5  10    3.49    0.40
 -15  -5 -10    1.16    0.04
 -15  -5 -10    1.51    0.34
  15   5  10    0.91    0.39
 -17  -5 -10    9.13    0.26
  17   5  10    8.23    0.75
 -19  -5 -10    2.27    0.07
  19   5  10    1.74    0.48
 -20   6  10   -0.07    0.68
 -18   6  10    9.09    1.20
 -18   6  10    8.77    0.25
 -12   6  10    1.82    0.41
 -10   6  10    6.81    0.60
  -8   6  10   10.21    0.62
   6  -6 -10    3.03    0.37
  -6   6  10    2.94    0.33
   4  -6 -10    8.24    0.57
  -4   6  10    9.01    0.50
   2   6  10   40.94    1.21
   4   6  10    6.38    0.31
  -6  -6 -10    2.99    0.08
   6   6  10    2.99    0.33
  -8  -6 -10    9.35    0.26
  -8  -6 -10    9.12    0.49
   8   6  10    7.62    0.41
 -10  -6 -10    5.80    0.49
 -10  -6 -10    6.73    0.61
 -10  -6 -10    5.92    0.17
  10   6  10    5.47    0.48
 -12  -6 -10    2.28    0.41
 -12  -6 -10    2.23    0.07
  12   6  10    1.92    0.39
 -14  -6 -10    1.85    0.06
 -14  -6 -10    2.11    0.38
  14   6  10    1.34    0.37
 -16  -6 -10    3.26    0.41
 -16  -6 -10    3.35    0.10
  16   6  10    3.30    0.46
 -18  -6 -10    8.08    0.23
  18   6  10    7.52    0.69
 -20  -6 -10    0.46    0.03
  20   6  10    0.82    0.48
 -19   7  10   18.38    1.54
 -13   7  10    1.52    0.41
 -11   7  10    4.86    0.58
  -9   7  10   10.69    0.66
  -7   7  10   24.01    0.91
   5  -7 -10   10.76    0.62
  -5   7  10   12.08    0.62
   3   7  10   32.00    0.99
  -5  -7 -10   10.96    0.31
   5   7  10    8.96    0.40
  -7  -7 -10   24.08    0.67
   7   7  10   18.80    0.66
  -9  -7 -10    9.97    0.55
  -9  -7 -10   10.57    0.77
  -9  -7 -10   10.79    0.30
   9   7  10    8.96    0.50
 -11  -7 -10    5.03    0.14
 -11  -7 -10    4.95    0.56
  11   7  10    4.31    0.43
 -13  -7 -10    2.10    0.44
 -13  -7 -10    1.98    0.06
  13   7  10    1.51    0.35
 -15  -7 -10    5.33    0.60
 -15  -7 -10    5.46    0.15
  15   7  10    4.70    0.56
 -17  -7 -10   15.94    0.84
 -17  -7 -10   14.20    0.41
  17   7  10   13.06    0.78
 -19  -7 -10   15.78    0.44
  19   7  10   15.43    0.87
 -12   8  10    3.10    0.44
 -10   8  10    3.44    0.43
  -8   8  10    2.16    0.37
   6  -8 -10    9.56    0.60
  -6   8  10   10.01    0.58
   0   8  10   94.61    2.75
  -4  -8 -10   40.68    1.14
   4   8  10   36.12    1.11
  -6  -8 -10    9.32    0.26
   6   8  10    7.76    0.42
  -8  -8 -10    2.56    0.50
  -8  -8 -10    2.71    0.08
   8   8  10    2.64    0.34
 -10  -8 -10    4.17    0.12
 -10  -8 -10    3.82    0.51
  10   8  10    3.59    0.40
 -12  -8 -10    3.82    0.56
 -12  -8 -10    3.77    0.11
  12   8  10    3.15    0.37
 -14  -8 -10    4.95    0.57
 -14  -8 -10    4.74    0.14
  14   8  10    4.18    0.48
 -16  -8 -10   21.07    0.58
 -16  -8 -10   20.33    1.01
  16   8  10   18.73    0.88
 -18  -8 -10    0.72    0.03
  18   8  10   -0.03    0.46
 -13   9  10    4.85    0.58
 -11   9  10    1.10    0.38
  -9   9  10    3.52    0.41
  -7   9  10   11.06    0.68
   5  -9 -10    7.33    0.50
   1   9  10    6.30    0.37
  -3  -9 -10   61.21    1.71
   3   9  10   62.76    1.86
  -5  -9 -10    6.91    0.19
   5   9  10    6.13    0.40
  -7  -9 -10   11.45    0.32
  -7  -9 -10   11.69    0.85
   7   9  10    8.92    0.45
  -9  -9 -10    3.88    0.11
  -9  -9 -10    3.88    0.57
   9   9  10    3.26    0.34
 -11  -9 -10    1.67    0.05
 -11  -9 -10    1.61    0.49
  11   9  10    1.13    0.30
 -13  -9 -10    5.95    0.17
 -13  -9 -10    6.35    0.66
  13   9  10    4.94    0.51
 -15  -9 -10   23.34    0.65
 -15  -9 -10   22.81    1.08
  15   9  10   20.05    0.88
 -17  -9 -10   15.04    0.42
 -17  -9 -10   14.81    0.94
  17   9  10   14.09    0.80
 -12  10  10    3.03    0.45
 -10  10  10    0.49    0.30
  -8  10  10    4.14    0.53
   6 -10 -10    5.88    0.50
  -2 -10 -10   76.01    2.12
  -4 -10 -10    5.90    0.17
   4  10  10    5.20    0.39
  -6 -10 -10    6.75    0.19
   6  10  10    5.61    0.39
  -8 -10 -10    3.91    0.62
  -8 -10 -10    4.34    0.12
   8  10  10    3.62    0.43
 -10 -10 -10    0.57    0.02
 -10 -10 -10    0.37    0.50
  10  10  10    0.14    0.27
 -12 -10 -10    3.87    0.61
 -12 -10 -10    3.85    0.11
  12  10  10    2.50    0.35
 -14 -10 -10   12.38    0.88
 -14 -10 -10   12.55    0.35
  14  10  10   10.25    0.65
 -16 -10 -10    3.21    0.58
 -16 -10 -10    3.63    0.10
  16  10  10    2.72    0.47
 -18 -10 -10   25.99    0.72
 -18 -10 -10   25.60    1.20
  18  10  10   22.24    1.02
 -11  11  10    2.45    0.42
  -9  11  10    1.07    0.36
   7 -11 -10    4.83    0.49
  -1 -11 -10   83.75    2.34
  -3 -11 -10    7.93    0.22
   3  11  10    8.29    0.51
  -5 -11 -10   15.50    0.43
   5  11  10   13.59    0.62
  -7 -11 -10    5.67    0.72
  -7 -11 -10    5.56    0.16
   7  11  10    4.29    0.40
  -9 -11 -10    1.70    0.59
  -9 -11 -10    1.54    0.05
   9  11  10    1.23    0.29
 -11 -11 -10    3.84    0.64
 -11 -11 -10    3.51    0.10
  11  11  10    2.91    0.36
 -13 -11 -10    5.99    0.71
 -13 -11 -10    6.12    0.17
  13  11  10    4.46    0.51
 -15 -11 -10   10.63    0.30
 -15 -11 -10   10.50    0.91
  15  11  10    8.88    0.72
 -17 -11 -10   14.21    0.41
 -17 -11 -10   15.65    1.08
  17  11  10    9.79    0.73
 -10  12  10    2.88    0.42
   8 -12 -10    3.45    0.37
  -8  12  10    3.81    0.43
   6 -12 -10    2.13    0.29
  -2 -12 -10    1.21    0.04
  -4 -12 -10   15.99    0.45
   4  12  10   14.90    0.64
  -6 -12 -10    2.21    0.06
   6  12  10    1.81    0.33
  -8 -12 -10    5.02    0.73
  -8 -12 -10    4.01    0.12
   8  12  10    3.15    0.38
 -10 -12 -10    4.00    0.70
 -10 -12 -10    4.06    0.12
  10  12  10    2.94    0.37
 -12 -12 -10    0.19    0.02
 -12 -12 -10   -0.68    0.58
  12  12  10    0.15    0.34
 -14 -12 -10    7.42    0.91
 -14 -12 -10    6.99    0.20
  14  12  10    5.00    0.64
 -16 -12 -10   10.74    0.31
 -16 -12 -10   11.68    0.96
  16  12  10    8.54    0.68
  -9  13  10    5.87    0.60
   7 -13 -10    1.53    0.28
  -1 -13 -10   40.32    1.13
  -3 -13 -10   31.45    0.88
   3  13  10   26.11    0.96
  -5 -13 -10    3.68    0.10
   5  13  10    2.98    0.34
  -7 -13 -10    1.81    0.58
  -7 -13 -10    2.18    0.07
   7  13  10    1.64    0.31
  -9 -13 -10    6.55    0.19
  -9 -13 -10    6.68    0.84
   9  13  10    5.83    0.49
 -11 -13 -10    7.28    0.85
 -11 -13 -10    6.35    0.18
  11  13  10    4.88    0.52
 -13 -13 -10   11.29    1.06
 -13 -13 -10   11.70    0.33
  13  13  10    8.84    0.69
 -15 -13 -10    3.74    0.72
 -15 -13 -10    3.82    0.11
  15  13  10    2.15    0.51
 -10  14  10   10.10    0.76
   8 -14 -10    4.38    0.42
   0 -14 -10    2.06    0.06
  -2 -14 -10    7.63    0.21
  -4 -14 -10    1.05    0.04
   4  14  10    0.88    0.31
  -6 -14 -10    1.92    0.06
   6  14  10    1.74    0.33
  -8 -14 -10    4.95    0.75
  -8 -14 -10    5.34    0.15
   8  14  10    4.21    0.48
 -10 -14 -10   14.52    0.40
 -10 -14 -10   13.90    1.22
  10  14  10   10.74    0.65
 -12 -14 -10    7.86    0.83
 -12 -14 -10    7.42    0.21
  12  14  10    5.08    0.53
 -14 -14 -10    1.11    0.72
 -14 -14 -10    1.49    0.05
  14  14  10    0.91    0.41
   9 -15 -10   20.76    0.81
  -1 -15 -10   16.74    0.47
  -3 -15 -10    5.94    0.17
   3  15  10    4.65    0.49
  -5 -15 -10    1.40    0.04
   5  15  10    1.46    0.38
  -7 -15 -10    6.20    0.94
  -7 -15 -10    6.31    0.18
   7  15  10    5.40    0.57
  -9 -15 -10   27.76    0.78
  -9 -15 -10   28.13    1.59
   9  15  10   20.66    0.87
 -11 -15 -10   12.21    1.22
 -11 -15 -10   10.98    0.31
  11  15  10    8.32    0.71
 -13 -15 -10    3.54    0.87
 -13 -15 -10    3.59    0.11
  13  15  10    2.60    0.46
   0 -16 -10    4.70    0.13
  -2 -16 -10    1.99    0.06
  -4 -16 -10    1.04    0.04
   4  16  10    0.95    0.35
  -6 -16 -10    3.98    0.11
   6  16  10    3.43    0.41
  -8 -16 -10   26.30    1.46
  -8 -16 -10   26.27    0.74
   8  16  10   19.23    0.84
 -10 -16 -10    3.82    0.94
 -10 -16 -10    3.92    0.11
  10  16  10    3.90    0.47
 -12 -16 -10   11.85    0.34
 -12 -16 -10   13.35    1.30
  12  16  10    8.46    0.69
  -1 -17 -10   12.17    0.34
  -3 -17 -10    0.42    0.02
   3  17  10    0.61    0.35
  -5 -17 -10   11.27    0.32
   5  17  10    8.91    0.62
  -7 -17 -10   18.29    0.51
   7  17  10   13.60    0.78
  -9 -17 -10   18.45    0.51
  -9 -17 -10   17.94    1.35
   9  17  10   14.29    0.77
 -11 -17 -10   16.53    1.49
 -11 -17 -10   16.40    0.46
  11  17  10   12.01    0.77
   0 -18 -10    3.75    0.11
  -2 -18 -10    3.78    0.11
  -4 -18 -10    0.93    0.04
   4  18  10    0.42    0.38
  -6 -18 -10   10.46    0.29
   6  18  10    7.46    0.62
  -8 -18 -10    0.78    0.03
   8  18  10    0.46    0.40
 -10 -18 -10   31.34    1.72
 -10 -18 -10   32.47    0.90
  10  18  10   22.13    1.00
  -1 -19 -10    2.40    0.07
  -3 -19 -10    0.34    0.02
   3  19  10    0.05    0.38
  -5 -19 -10    2.69    0.08
   5  19  10    2.45    0.43
  -7 -19 -10   20.91    0.59
   7  19  10   15.08    0.80
  -2 -20 -10    2.12    0.07
   2  20  10    1.84    0.44
  -4 -20 -10    0.68    0.03
   4  20  10   -0.04    0.40
  -6 -20 -10    0.70    0.03
   6  20  10    0.61    0.41
   5  20 -11    0.81    0.51
  -5 -20  11    0.84    0.04
   3  20 -11    0.92    0.46
  -3 -20  11    2.69    0.09
   1  20 -11    1.50    0.60
  -1 -20  11    2.84    0.09
   1 -20  11    2.60    0.08
   3 -20  11    2.24    0.85
   3 -20  11    1.11    0.05
   5 -20  11    0.92    0.04
   5 -20  11    0.42    0.61
   8  19 -11    8.04    0.77
  -8 -19  11   14.03    0.39
   6  19 -11    9.13    0.69
  -6 -19  11   13.15    0.37
   4  19 -11    0.77    0.50
  -4 -19  11    1.13    0.05
   2  19 -11    0.29    0.54
  -2 -19  11    0.32    0.03
   0 -19  11    5.33    0.16
   2 -19  11    0.28    0.03
   4 -19  11    1.03    0.04
   4 -19  11    1.23    0.75
   6 -19  11   11.88    1.10
   6 -19  11   12.74    0.35
   8 -19  11   12.63    0.35
   8 -19  11   12.65    1.04
   9  18 -11   16.20    0.93
  -9 -18  11   28.50    0.80
   7  18 -11    0.63    0.39
  -7 -18  11    0.27    0.04
   5  18 -11    1.72    0.43
  -5 -18  11    3.42    0.10
   3  18 -11    1.69    0.44
  -3 -18  11    2.50    0.08
  -1 -18  11    5.60    0.16
   1 -18  11    5.38    0.16
   3 -18  11    1.60    0.06
   5 -18  11    3.28    0.10
   5 -18  11    3.54    0.74
   7 -18  11    0.24    0.03
   7 -18  11    0.61    0.59
   9 -18  11   26.78    0.75
  10  17 -11   11.77    0.74
 -10 -17  11   19.39    0.54
   8  17 -11    7.41    0.63
  -8 -17  11   12.32    0.35
   6  17 -11   10.24    0.68
  -6 -17  11   17.20    0.48
   4  17 -11    1.91    0.50
  -4 -17  11    3.25    0.10
   2  17 -11    2.16    0.52
  -2 -17  11    3.36    0.10
   0 -17  11   10.15    0.29
   2 -17  11    3.45    0.10
   4 -17  11    2.78    0.09
   6 -17  11   14.30    1.05
   6 -17  11   15.62    0.43
   8 -17  11   11.86    0.33
   8 -17  11   11.25    0.92
  13  16 -11    2.49    0.51
 -13 -16  11    4.60    0.14
  11  16 -11    8.65    0.79
 -11 -16  11   13.07    0.37
   9  16 -11    1.72    0.49
  -9 -16  11    3.76    0.11
   7  16 -11   14.45    0.83
  -7 -16  11   22.86    0.64
   5  16 -11    2.63    0.42
  -5 -16  11    4.10    0.12
   3  16 -11    0.74    0.46
  -3 -16  11    1.48    0.06
  -1 -16  11    4.78    0.14
   1 -16  11    4.58    0.13
   3 -16  11    1.44    0.05
   5 -16  11    3.63    0.11
   5 -16  11    3.79    0.66
   7 -16  11   20.83    1.16
   7 -16  11   20.01    0.57
   9 -16  11    2.92    0.09
  14  15 -11    0.13    0.57
  12  15 -11    3.57    0.52
 -12 -15  11    5.27    0.15
  10  15 -11    6.14    0.62
 -10 -15  11    8.15    0.23
   8  15 -11   15.38    0.76
  -8 -15  11   23.33    0.65
   6  15 -11    1.49    0.44
  -6 -15  11    2.00    0.07
   4  15 -11    2.25    0.45
  -4 -15  11    2.91    0.09
   2  15 -11   10.50    0.76
  -2 -15  11   13.31    0.37
   0 -15  11   20.70    0.58
   2 -15  11   12.43    0.35
   4 -15  11    2.54    0.08
   6 -15  11    1.52    0.52
   6 -15  11    1.66    0.05
   8 -15  11   21.47    0.59
   8 -15  11   20.54    1.11
  15  14 -11    0.30    0.53
  15  14 -11   -0.10    0.60
 -15 -14  11    0.98    0.04
  13  14 -11    0.68    0.57
 -13 -14  11    0.98    0.04
  11  14 -11    6.21    0.64
 -11 -14  11    9.02    0.26
   9  14 -11   10.00    0.74
  -9 -14  11   14.59    0.41
   7  14 -11    1.52    0.44
  -7 -14  11    1.82    0.06
   5  14 -11    2.59    0.44
  -5 -14  11    2.83    0.09
   3  14 -11    0.61    0.41
  -3 -14  11    0.51    0.03
  -1 -14  11   10.81    0.30
   1 -14  11   10.22    0.29
   3 -14  11    0.53    0.03
   5 -14  11    2.87    0.09
   7 -14  11    2.03    0.48
   7 -14  11    1.75    0.06
   9 -14  11   13.27    0.37
  16  13 -11    3.67    0.58
  16  13 -11    3.51    0.64
 -16 -13  11    4.62    0.14
  14  13 -11    0.81    0.60
  14  13 -11    0.66    0.53
 -14 -13  11    1.05    0.04
  12  13 -11    5.85    0.66
 -12 -13  11    7.65    0.22
  10  13 -11    5.17    0.59
 -10 -13  11    6.36    0.18
   8  13 -11    1.88    0.44
  -8 -13  11    2.61    0.08
   6  13 -11    1.06    0.40
  -6 -13  11    1.20    0.05
   4  13 -11    4.50    0.58
  -4 -13  11    5.92    0.17
   2  13 -11   37.16    1.34
  -2 -13  11   50.82    1.42
   0 -13  11   38.75    1.08
   2 -13  11   48.08    1.34
   4 -13  11    5.41    0.15
   6 -13  11    1.08    0.04
   8 -13  11    2.51    0.08
   8 -13  11    2.67    0.49
 -16  13 -11    5.33    1.57
  15  12 -11    5.66    0.65
  15  12 -11    4.61    0.69
 -15 -12  11    5.05    0.15
  13  12 -11    6.64    0.83
  13  12 -11    6.92    0.68
 -13 -12  11    7.66    0.22
  11  12 -11    0.31    0.49
 -11 -12  11    0.76    0.03
   9  12 -11    2.36    0.40
  -9 -12  11    2.13    0.07
   7  12 -11    1.41    0.34
  -7 -12  11    1.48    0.05
   5  12 -11    1.41    0.40
  -5 -12  11    2.07    0.07
   3  12 -11   26.17    1.03
  -3 -12  11   35.85    1.00
  -1 -12  11    6.11    0.17
   1 -12  11    5.57    0.16
   3 -12  11   32.49    0.91
   5 -12  11    1.80    0.06
   7 -12  11    1.21    0.39
   7 -12  11    1.34    0.05
   9 -12  11    2.13    0.07
   9 -12  11    2.54    0.43
 -15  12 -11    5.61    1.29
  16  11 -11    9.96    0.90
  16  11 -11   10.76    0.83
 -16 -11  11   10.77    0.30
  14  11 -11    8.76    0.82
  14  11 -11    7.93    0.86
 -14 -11  11    7.82    0.22
  12  11 -11    0.96    0.44
  12  11 -11    1.16    0.52
 -12 -11  11    0.63    0.03
  10  11 -11    1.77    0.49
 -10 -11  11    1.62    0.05
   8  11 -11    0.73    0.42
  -8 -11  11    1.09    0.04
   6  11 -11    2.12    0.41
  -6 -11  11    3.05    0.09
   4  11 -11   25.18    0.99
  -4 -11  11   30.95    0.87
   2  11 -11    9.08    0.65
  -2 -11  11   11.68    0.33
   0 -11  11   47.16    1.32
   2 -11  11   10.72    0.30
   4 -11  11   27.49    0.77
   6 -11  11    3.00    0.09
   8 -11  11    1.14    0.37
   8 -11  11    1.28    0.04
 -16  11 -11   14.01    2.05
  17  10 -11   14.64    0.93
  17  10 -11   15.43    0.94
 -17 -10  11   15.44    0.43
  15  10 -11    5.98    0.69
  15  10 -11    6.01    0.71
 -15 -10  11    6.67    0.19
  13  10 -11    5.22    0.57
  13  10 -11    5.58    0.64
 -13 -10  11    5.61    0.16
  11  10 -11    1.96    0.51
  11  10 -11    1.31    0.51
 -11 -10  11    1.50    0.05
   9  10 -11    0.59    0.36
  -9 -10  11    0.30    0.02
   7  10 -11    2.64    0.43
  -7 -10  11    3.12    0.09
   5  10 -11   20.97    0.88
  -5 -10  11   25.34    0.71
   3  10 -11    8.26    0.53
  -3 -10  11    9.69    0.27
  -1 -10  11   72.14    2.02
   1 -10  11   68.64    1.92
   3 -10  11    9.33    0.26
   5 -10  11   24.52    0.69
   7 -10  11    3.07    0.09
   9 -10  11    0.49    0.02
 -15  10 -11    7.45    1.48
 -17  10 -11   16.07    1.84
  18   9 -11   20.31    1.20
  18   9 -11   20.39    1.21
 -18  -9  11   20.38    0.57
  16   9 -11    2.79    0.64
  16   9 -11    1.71    0.62
 -16  -9  11    2.94    0.09
  14   9 -11   11.63    0.89
  14   9 -11   11.71    0.89
 -14  -9  11   12.31    0.35
  12   9 -11    2.06    0.53
  12   9 -11    2.56    0.55
 -12  -9  11    1.91    0.06
  10   9 -11    0.60    0.47
  10   9 -11    0.37    0.47
 -10  -9  11    0.35    0.02
   8   9 -11    0.91    0.42
  -8  -9  11    1.13    0.04
   6   9 -11    8.27    0.61
  -6  -9  11    7.69    0.22
   4   9 -11   16.12    0.75
  -4  -9  11   18.56    0.52
   2   9 -11   41.13    1.37
  -2  -9  11   49.10    1.37
   0  -9  11    8.76    0.25
   2  -9  11   44.42    1.24
   4  -9  11   17.45    0.49
   6  -9  11    7.63    0.22
   8  -9  11    1.35    0.04
   8  -9  11    1.14    0.30
 -14   9 -11   12.96    1.72
 -16   9 -11    2.65    1.08
 -18   9 -11   23.29    2.24
  19   8 -11    9.89    1.01
  19   8 -11   12.68    1.07
 -19  -8  11   10.43    0.29
  17   8 -11    9.05    0.95
  17   8 -11    9.59    0.95
 -17  -8  11    9.53    0.27
  15   8 -11   20.19    1.10
  15   8 -11   18.88    0.96
 -15  -8  11   18.94    0.53
  13   8 -11    2.61    0.48
  13   8 -11    2.81    0.56
 -13  -8  11    2.25    0.07
  11   8 -11    1.65    0.43
  11   8 -11    0.85    0.49
 -11  -8  11    1.02    0.04
   9   8 -11    1.09    0.49
   9   8 -11    0.96    0.44
  -9  -8  11    1.02    0.04
  -9  -8  11    1.07    0.34
   7   8 -11    9.29    0.65
  -7  -8  11    9.48    0.27
   5   8 -11   11.97    0.66
  -5  -8  11   11.93    0.33
   3   8 -11   32.84    1.13
  -3  -8  11   36.62    1.02
  -1  -8  11   10.47    0.29
   1  -8  11    9.43    0.26
   3  -8  11   34.91    0.98
   5  -8  11   12.15    0.34
   7  -8  11   10.99    0.31
 -11   8 -11    1.07    0.74
 -13   8 -11    3.20    1.07
 -15   8 -11   20.71    1.89
 -17   8 -11   12.28    1.84
 -19   8 -11   10.60    1.68
  18   7 -11    0.24    0.60
 -18  -7  11    0.33    0.02
  16   7 -11   17.25    1.08
  16   7 -11   18.76    1.06
 -16  -7  11   16.98    0.48
  14   7 -11    1.76    0.54
  14   7 -11    2.01    0.47
 -14  -7  11    1.47    0.05
  12   7 -11    1.87    0.51
  12   7 -11    1.04    0.52
 -12  -7  11    1.33    0.05
  10   7 -11    3.20    0.55
  10   7 -11    2.93    0.50
 -10  -7  11    2.53    0.37
 -10  -7  11    2.83    0.08
   8   7 -11   10.44    0.80
   8   7 -11    9.66    0.68
  -8  -7  11    8.56    0.58
  -8  -7  11    8.84    0.25
   6   7 -11   11.41    0.66
  -6  -7  11   11.55    0.32
   4   7 -11    9.74    0.59
  -4  -7  11    9.68    0.27
   2   7 -11   10.03    0.56
  -2  -7  11   10.21    0.29
   0  -7  11   88.43    2.47
   2  -7  11   10.19    0.29
   4  -7  11    9.82    0.28
   6  -7  11   12.33    0.35
   8  -7  11   11.55    0.32
   8  -7  11   11.50    0.55
 -10   7 -11    3.12    0.78
 -12   7 -11    1.06    0.91
 -14   7 -11    2.04    0.88
 -16   7 -11   19.18    1.87
 -18   7 -11    0.04    1.19
  19   6 -11   10.78    0.97
 -19  -6  11    9.73    0.27
  17   6 -11   13.04    0.95
 -17  -6  11   12.64    0.35
  15   6 -11    1.99    0.57
 -15  -6  11    1.60    0.05
  13   6 -11    0.36    0.49
  13   6 -11    1.25    0.52
 -13  -6  11    0.88    0.04
  11   6 -11    4.11    0.58
  11   6 -11    2.69    0.49
 -11  -6  11    2.90    0.08
 -11  -6  11    2.06    0.36
   9   6 -11    7.22    0.49
   9   6 -11    9.19    0.78
   9   6 -11    7.87    0.67
  -9  -6  11    6.62    0.53
  -9  -6  11    6.92    0.19
   7   6 -11   12.09    0.69
   7   6 -11   12.24    0.83
  -7  -6  11   11.48    0.60
  -7  -6  11   10.66    0.31
   5   6 -11    6.41    0.52
  -5  -6  11    6.22    0.18
   3   6 -11   10.59    0.56
   1   6 -11   76.82    2.28
   7  -6  11   13.11    0.37
  -9   6 -11    7.66    1.23
 -11   6 -11    3.28    0.93
 -13   6 -11    0.53    0.76
 -15   6 -11    1.49    0.88
 -17   6 -11   11.25    1.49
  20   5 -11    0.57    0.60
 -20  -5  11    0.46    0.03
  18   5 -11    3.32    0.64
 -18  -5  11    2.62    0.08
  16   5 -11    3.20    0.60
 -16  -5  11    2.89    0.09
  14   5 -11    2.52    0.54
 -14  -5  11    2.28    0.07
  12   5 -11    2.20    0.50
  12   5 -11    1.88    0.45
 -12  -5  11    1.48    0.05
 -12  -5  11    1.60    0.36
  10   5 -11   24.21    1.03
  10   5 -11   26.15    1.16
 -10  -5  11   20.88    0.85
 -10  -5  11   21.06    0.59
   8   5 -11   12.44    0.71
   8   5 -11   12.30    0.86
  -8  -5  11   10.10    0.57
  -8  -5  11   10.54    0.29
   6   5 -11    7.14    0.55
   6   5 -11    6.03    0.60
  -6  -5  11    6.24    0.46
  -6  -5  11    5.86    0.17
   4   5 -11    7.68    0.54
   2   5 -11    6.00    0.42
  -6   5 -11    7.23    1.04
  -8   5 -11   11.91    1.26
  -8   5 -11   12.22    0.62
 -10   5 -11   22.92    1.59
 -12   5 -11    1.21    0.89
 -14   5 -11    2.34    0.85
 -20   5 -11    0.53    0.03
  19   4 -11    0.78    0.47
 -19  -4  11    0.74    0.03
  17   4 -11    2.93    0.61
 -17  -4  11    2.24    0.07
  15   4 -11    2.20    0.54
 -15  -4  11    2.05    0.06
  13   4 -11    4.93    0.57
 -13  -4  11    4.39    0.13
  11   4 -11   24.92    1.13
  11   4 -11   28.54    1.04
 -11  -4  11   23.89    0.93
 -11  -4  11   24.20    0.67
   9   4 -11   18.05    0.91
   9   4 -11   18.74    0.86
  -9  -4  11   16.41    0.70
  -9  -4  11   15.51    0.44
   7   4 -11   11.51    0.65
   7   4 -11    9.61    0.80
  -7  -4  11    8.62    0.24
  -7  -4  11    8.50    0.45
   5   4 -11    7.24    0.50
  -5  -4  11    6.37    0.42
   3   4 -11   26.52    0.89
   1   4 -11   13.36    0.53
  -1   4 -11   13.61    0.82
  -3   4 -11   25.24    1.25
  -5   4 -11    7.07    0.95
  -7   4 -11   10.03    1.02
  -9   4 -11   18.22    1.41
  -9   4 -11   16.18    0.75
 -11   4 -11   23.88    1.51
 -13   4 -11    6.07    1.06
 -17   4 -11    2.12    0.07
 -19   4 -11    0.70    0.03
  20   3 -11    1.17    0.59
 -20  -3  11    1.47    0.05
  18   3 -11    1.81    0.49
 -18  -3  11    1.84    0.06
  16   3 -11    1.41    0.54
 -16  -3  11    0.98    0.04
  14   3 -11    0.90    0.50
 -14  -3  11    0.34    0.02
  12   3 -11   30.34    1.14
 -12  -3  11   25.18    0.97
 -12  -3  11   25.98    0.72
  10   3 -11   10.06    0.72
  10   3 -11   10.55    0.85
 -10  -3  11    7.98    0.54
 -10  -3  11    7.60    0.22
   8   3 -11   35.71    1.35
   8   3 -11   37.17    1.26
  -8  -3  11   30.15    0.85
  -8  -3  11   30.97    1.04
   6   3 -11   12.90    0.81
   6   3 -11   12.35    0.63
  -6  -3  11   10.25    0.50
   4   3 -11   28.24    0.97
  -4  -3  11   24.53    0.81
   2   3 -11   23.57    0.92
   2   3 -11   23.31    0.79
   0   3 -11    6.79    0.63
   0   3 -11    6.50    0.36
  -2   3 -11   23.14    1.12
  -4   3 -11   26.72    1.35
  -6   3 -11   11.15    0.99
  -8   3 -11   32.04    1.74
  -8   3 -11   34.06    1.11
 -10   3 -11    8.01    1.26
 -10   3 -11    7.86    0.50
 -16   3 -11    0.95    0.04
 -18   3 -11    1.74    0.06
 -20   3 -11    1.70    0.05
  19   2 -11    0.53    0.56
 -19  -2  11    0.49    0.03
  17   2 -11    2.67    0.50
 -17  -2  11    2.37    0.07
  15   2 -11   10.43    0.82
 -15  -2  11    9.53    0.27
  13   2 -11   42.33    1.47
 -13  -2  11   34.22    1.23
 -13  -2  11   35.83    0.98
  11   2 -11   10.69    0.75
 -11  -2  11    8.71    0.58
 -11  -2  11    8.39    0.24
   9   2 -11   44.76    1.66
   9   2 -11   49.46    1.57
  -9  -2  11   37.41    1.05
  -9  -2  11   37.44    1.23
   7   2 -11   11.09    0.80
   7   2 -11   10.98    0.62
  -7  -2  11    8.50    0.47
   5   2 -11    6.96    0.47
   5   2 -11    6.50    0.66
  -5  -2  11    6.18    0.41
   3   2 -11   23.33    0.78
  -3  -2  11   21.32    0.71
   1   2 -11    2.83    0.28
  -5   2 -11    6.22    0.38
  -5   2 -11    6.01    0.81
  -7   2 -11   10.10    0.51
  -9   2 -11   39.56    1.27
 -13   2 -11   36.85    1.03
 -15   2 -11    9.64    0.27
 -17   2 -11    2.51    0.07
 -19   2 -11    0.41    0.03
  20   1 -11    2.11    0.61
 -20  -1  11    2.16    0.07
  18   1 -11    5.52    0.66
 -18  -1  11    4.20    0.12
  16   1 -11    3.77    0.58
 -16  -1  11    3.48    0.10
  14   1 -11   10.22    0.78
 -14  -1  11    7.65    0.22
  12   1 -11    5.31    0.57
 -12  -1  11    4.84    0.14
 -12  -1  11    4.81    0.53
  10   1 -11   62.30    1.99
 -10  -1  11   49.65    1.40
 -10  -1  11   50.67    1.60
   8   1 -11    9.98    0.65
   8   1 -11   12.03    0.85
  -8  -1  11    7.40    0.22
  -8  -1  11    8.46    0.49
   6   1 -11   89.25    2.57
   6   1 -11   84.90    2.68
  -6  -1  11   71.11    2.09
   4   1 -11   14.50    0.57
  -4  -1  11   11.93    0.47
   2   1 -11    3.03    0.27
  -2  -1  11    2.73    0.24
   0  -1  11    6.08    0.49
  -4   1 -11   13.55    0.48
  -6   1 -11   79.38    2.31
  -8   1 -11    9.35    0.50
 -10   1 -11   52.28    1.43
 -10   1 -11   49.75    1.58
 -12   1 -11    5.00    0.14
 -14   1 -11    8.23    0.23
 -16   1 -11    3.30    0.10
 -18   1 -11    3.84    0.11
 -20   1 -11    1.82    0.06
  19   0 -11    3.79    0.63
 -19   0  11    4.17    0.12
  17   0 -11    8.19    0.81
 -17   0  11    7.66    0.22
  15   0 -11   18.33    0.96
 -15   0  11   14.86    0.42
  13   0 -11   34.09    1.30
 -13   0  11   27.14    1.06
 -13   0  11   28.37    0.78
  11   0 -11   47.91    1.62
 -11   0  11   37.57    1.07
 -11   0  11   39.43    1.31
   9   0 -11    7.16    0.62
  -9   0  11    6.05    0.17
  -9   0  11    5.76    0.50
   7   0 -11   82.82    2.53
   7   0 -11   77.38    2.39
  -7   0  11   61.62    1.85
   5   0 -11   17.50    0.86
   5   0 -11   17.64    0.66
  -5   0  11   14.95    0.57
   3   0 -11    7.36    0.37
  -3   0  11    5.86    0.29
   1   0 -11    8.98    0.35
  -1   0 -11    8.61    0.30
  -3   0 -11    6.51    0.27
  -5   0 -11   14.19    0.50
  -7   0 -11   65.56    1.92
  -7   0 -11   65.19    1.83
  -9   0 -11    6.25    0.18
  -9   0 -11    6.53    0.45
 -11   0 -11   41.10    1.36
 -11   0 -11   39.67    1.13
 -13   0 -11   29.19    0.82
 -15   0 -11   15.16    0.42
 -17   0 -11    6.88    0.19
 -19   0 -11    3.45    0.10
  20  -1 -11    2.47    0.54
 -20   1  11    2.20    0.07
  18  -1 -11    4.80    0.63
 -18   1  11    4.29    0.12
  16  -1 -11    3.86    0.58
 -16   1  11    3.38    0.10
  14  -1 -11    8.74    0.64
 -14   1  11    8.23    0.23
 -14   1  11    7.56    0.62
  12  -1 -11    6.07    0.66
 -12   1  11    4.15    0.56
 -12   1  11    4.42    0.55
 -12   1  11    4.75    0.13
  10  -1 -11   62.29    1.97
 -10   1  11   53.31    1.53
 -10   1  11   51.72    1.70
 -10   1  11   59.35    1.82
   8  -1 -11   11.15    0.81
   8  -1 -11   10.21    0.62
  -8   1  11    9.20    0.53
   6  -1 -11   87.44    2.55
   6  -1 -11   85.49    2.65
  -6   1  11   77.37    2.27
   4  -1 -11   14.75    0.56
  -4   1  11   13.03    0.49
   2  -1 -11    2.79    0.21
  -2   1  11    2.41    0.19
  -4  -1 -11   13.62    0.45
  -6  -1 -11   77.84    2.25
   6   1  11   80.61    2.40
  -8  -1 -11    8.46    0.45
  -8  -1 -11    8.24    0.23
 -10  -1 -11   48.63    1.56
 -10  -1 -11   52.68    1.42
 -12  -1 -11    4.99    0.14
  12   1  11    5.06    0.54
 -14  -1 -11    7.76    0.22
 -16  -1 -11    3.00    0.09
 -18  -1 -11    3.79    0.11
 -20  -1 -11    1.66    0.05
  19  -2 -11    0.46    0.57
 -19   2  11    0.24    0.02
  17  -2 -11    2.75    0.58
 -17   2  11    2.56    0.08
  15  -2 -11   10.40    0.79
 -15   2  11   10.06    0.28
  13  -2 -11   40.20    1.43
 -13   2  11   38.26    1.07
 -13   2  11   39.49    1.52
 -13   2  11   37.24    1.35
  11  -2 -11   10.48    0.70
 -11   2  11    9.15    0.25
 -11   2  11    8.83    0.55
   9  -2 -11   46.74    1.52
  -9   2  11   42.68    1.20
  -9   2  11   43.34    1.40
   7  -2 -11    9.85    0.54
   7  -2 -11    9.85    0.74
  -7   2  11    9.78    0.51
   5  -2 -11    6.52    0.61
   5  -2 -11    6.29    0.42
  -5   2  11    6.69    0.40
   3  -2 -11   -0.04    0.03
  -3   2  11   22.76    0.72
  -1   2  11    2.59    0.16
  -5  -2 -11    6.30    0.30
  -7  -2 -11    9.75    0.43
  -7  -2 -11    9.11    0.26
   7   2  11   11.15    0.52
  -9  -2 -11   39.82    1.26
  -9  -2 -11   41.28    1.13
   9   2  11   48.72    1.53
 -11  -2 -11    8.78    0.24
 -11  -2 -11    8.23    0.51
  11   2  11   10.52    0.59
 -13  -2 -11   37.24    1.04
  13   2  11   39.74    1.34
 -15  -2 -11    9.44    0.27
  15   2  11    9.59    0.72
 -17  -2 -11    2.57    0.08
  17   2  11    3.05    0.48
 -19  -2 -11    0.25    0.02
 -20   3  11    1.64    0.06
  18  -3 -11    1.79    0.58
 -18   3  11    2.02    0.07
  16  -3 -11    1.75    0.52
 -16   3  11    1.50    0.54
 -16   3  11    1.20    0.05
  14  -3 -11    0.38    0.36
 -14   3  11    0.47    0.37
 -14   3  11    0.79    0.48
 -14   3  11    0.39    0.02
  12  -3 -11   29.43    1.13
 -12   3  11   28.40    1.09
 -12   3  11   28.89    0.80
  10  -3 -11    8.94    0.64
 -10   3  11    8.98    0.61
   8  -3 -11   37.32    1.26
  -8   3  11   36.62    1.24
   6  -3 -11   12.05    0.71
   6  -3 -11   11.56    0.56
  -6   3  11   11.50    0.53
  -4   3  11   28.30    0.90
  -2   3  11   24.22    0.75
   4   3  11   29.81    0.89
  -6  -3 -11   11.44    0.45
   6   3  11   11.93    0.48
  -8  -3 -11   32.72    1.03
  -8  -3 -11   32.09    0.90
   8   3  11   36.46    1.17
 -10  -3 -11    8.12    0.49
 -10  -3 -11    8.19    0.23
  10   3  11    8.95    0.52
 -12  -3 -11   26.45    0.74
  12   3  11   28.15    1.01
 -14  -3 -11    0.44    0.02
  14   3  11    0.26    0.35
 -16  -3 -11    1.01    0.04
  16   3  11    0.76    0.41
 -18  -3 -11    1.37    0.05
  18   3  11    1.70    0.47
 -20  -3 -11    1.92    0.06
  20   3  11    1.78    0.50
 -19   4  11    0.59    0.03
 -17   4  11    2.21    0.65
 -17   4  11    2.21    0.07
 -15   4  11    2.01    0.06
 -15   4  11    2.52    0.61
 -13   4  11    4.57    0.59
 -11   4  11   27.50    1.06
  -9   4  11   18.91    0.85
   7  -4 -11   11.14    0.72
  -7   4  11   11.32    0.63
   5  -4 -11    7.55    0.59
  -5   4  11    8.27    0.48
  -3   4  11   30.71    0.97
  -1   4  11   16.21    0.53
   3   4  11   24.58    0.73
  -5  -4 -11    7.20    0.32
   5   4  11    7.27    0.36
  -7  -4 -11    9.70    0.27
  -7  -4 -11    9.77    0.44
   7   4  11    9.71    0.46
  -9  -4 -11   16.99    0.66
  -9  -4 -11   16.95    0.47
   9   4  11   17.89    0.72
 -11  -4 -11   25.48    0.71
  11   4  11   27.19    0.97
 -13  -4 -11    4.16    0.12
  13   4  11    4.59    0.51
 -15  -4 -11    1.97    0.06
  15   4  11    2.31    0.41
 -17  -4 -11    2.12    0.06
  17   4  11    2.28    0.46
 -19  -4 -11    0.57    0.03
  19   4  11    0.90    0.47
 -20   5  11    0.48    0.03
 -18   5  11    2.85    0.09
 -18   5  11    2.23    0.73
 -16   5  11    3.02    0.09
 -16   5  11    3.58    0.73
 -14   5  11    2.17    0.43
 -12   5  11    1.41    0.39
 -10   5  11   24.66    0.98
  -8   5  11   13.17    0.67
   6  -5 -11    7.02    0.57
  -6   5  11    8.35    0.55
  -4   5  11    7.93    0.46
  -2   5  11    7.12    0.38
   2   5  11    5.00    0.22
   4   5  11    6.05    0.29
  -6  -5 -11    7.48    0.38
   6   5  11    6.90    0.38
  -8  -5 -11   11.51    0.33
  -8  -5 -11   12.48    0.56
   8   5  11   11.87    0.54
 -10  -5 -11   22.66    0.62
 -10  -5 -11   21.43    0.82
  10   5  11   23.16    0.83
 -12  -5 -11    1.72    0.05
  12   5  11    1.67    0.34
 -14  -5 -11    2.36    0.07
  14   5  11    2.46    0.44
 -16  -5 -11    3.00    0.09
  16   5  11    2.25    0.50
 -18  -5 -11    2.47    0.07
  18   5  11    2.84    0.48
 -20  -5 -11    0.60    0.03
  20   5  11   -0.21    0.46
 -19   6  11    9.82    1.20
 -19   6  11   10.79    0.30
 -17   6  11   14.94    1.26
 -13   6  11    0.67    0.38
 -11   6  11    2.91    0.41
  -9   6  11    7.67    0.59
   7  -6 -11   13.79    0.74
  -7   6  11   13.87    0.67
   5  -6 -11    7.27    0.54
  -5   6  11    8.31    0.53
  -3   6  11   13.60    0.58
   3   6  11    9.68    0.36
   5   6  11    6.26    0.33
  -7  -6 -11   12.88    0.36
   7   6  11   11.11    0.48
  -9  -6 -11    7.70    0.47
  -9  -6 -11    7.74    0.22
   9   6  11    7.24    0.47
 -11  -6 -11    2.79    0.08
  11   6  11    2.84    0.38
 -13  -6 -11    0.99    0.03
  13   6  11    0.76    0.34
 -15  -6 -11    1.64    0.05
  15   6  11    1.45    0.40
 -17  -6 -11   12.62    0.35
  17   6  11   11.91    0.74
 -19  -6 -11    9.95    0.28
  19   6  11    9.01    0.72
 -18   7  11    0.42    0.67
 -12   7  11    1.15    0.38
 -10   7  11    3.13    0.41
  -8   7  11   11.14    0.64
   6  -7 -11   13.24    0.71
  -6   7  11   13.42    0.63
  -4   7  11   10.98    0.52
   2   7  11   10.35    0.44
   4   7  11    8.98    0.38
  -6  -7 -11   13.05    0.36
   6   7  11   11.03    0.46
  -8  -7 -11   10.62    0.30
   8   7  11    8.85    0.46
 -10  -7 -11    3.13    0.09
  10   7  11    3.28    0.35
 -12  -7 -11    1.33    0.04
 -12  -7 -11    1.26    0.41
  12   7  11    1.11    0.32
 -14  -7 -11    1.76    0.42
 -14  -7 -11    1.61    0.05
  14   7  11    1.47    0.43
 -16  -7 -11   16.99    0.47
 -16  -7 -11   16.17    0.83
  16   7  11   16.23    0.87
 -18  -7 -11    0.37    0.02
  18   7  11    0.24    0.44
 -19   8  11   12.85    1.45
 -13   8  11    2.19    0.42
 -11   8  11    0.93    0.37
  -9   8  11    1.04    0.35
   7  -8 -11   10.18    0.61
  -7   8  11   10.56    0.60
   5  -8 -11   10.72    0.58
  -5   8  11   12.89    0.61
   3   8  11   34.39    1.07
  -5  -8 -11   12.57    0.35
   5   8  11   10.62    0.45
  -7  -8 -11   11.19    0.31
   7   8  11    8.97    0.45
  -9  -8 -11    1.40    0.04
   9   8  11    0.88    0.28
 -11  -8 -11    1.23    0.04
 -11  -8 -11    1.44    0.48
  11   8  11    0.70    0.33
 -13  -8 -11    2.59    0.08
 -13  -8 -11    2.38    0.45
  13   8  11    1.89    0.36
 -15  -8 -11   19.20    0.96
 -15  -8 -11   19.20    0.54
  15   8  11   17.61    0.87
 -17  -8 -11    9.46    0.79
 -17  -8 -11    9.46    0.27
  17   8  11    8.57    0.69
 -19  -8 -11    9.99    0.28
  19   8  11    8.87    0.74
 -12   9  11    2.57    0.42
 -10   9  11    0.34    0.35
   8  -9 -11    1.27    0.38
  -8   9  11    1.05    0.34
   6  -9 -11    7.85    0.55
  -6   9  11    7.96    0.54
  -4  -9 -11   18.25    0.51
   4   9  11   16.69    0.62
  -6  -9 -11    8.06    0.23
   6   9  11    6.56    0.41
  -8  -9 -11    1.36    0.04
   8   9  11    0.97    0.24
 -10  -9 -11    0.54    0.02
 -10  -9 -11    0.63    0.46
  10   9  11    0.28    0.29
 -12  -9 -11    1.95    0.50
 -12  -9 -11    2.03    0.06
  12   9  11    2.39    0.35
 -14  -9 -11   13.01    0.36
 -14  -9 -11   12.45    0.82
  14   9  11   10.01    0.68
 -16  -9 -11    2.88    0.08
 -16  -9 -11    2.60    0.51
  16   9  11    2.10    0.45
 -18  -9 -11   20.84    0.58
  18   9  11   19.21    1.00
 -11  10  11    1.13    0.38
  -9  10  11    0.33    0.33
   7 -10 -11    3.01    0.37
  -7  10  11    3.23    0.38
  -3 -10 -11    8.33    0.23
   3  10  11    8.61    0.47
  -5 -10 -11   25.40    0.71
   5  10  11   21.36    0.76
  -7 -10 -11    3.24    0.09
   7  10  11    2.80    0.31
  -9 -10 -11    0.20    0.50
  -9 -10 -11    0.44    0.02
   9  10  11    0.29    0.25
 -11 -10 -11    2.38    0.54
 -11 -10 -11    1.86    0.06
  11  10  11    1.26    0.34
 -13 -10 -11    6.37    0.18
 -13 -10 -11    6.16    0.66
  13  10  11    4.89    0.51
 -15 -10 -11    7.30    0.21
 -15 -10 -11    7.20    0.84
  15  10  11    5.16    0.57
 -17 -10 -11   15.58    0.44
 -17 -10 -11   15.39    0.93
  17  10  11   12.27    0.78
 -12  11  11    0.45    0.39
 -10  11  11    1.36    0.38
   8 -11 -11    1.22    0.34
  -8  11  11    0.96    0.35
   6 -11 -11    3.06    0.33
  -2 -11 -11    9.24    0.26
   2  11  11    7.30    0.34
  -4 -11 -11   27.78    0.78
   4  11  11   26.86    0.93
  -6 -11 -11    3.35    0.10
   6  11  11    2.76    0.31
  -8 -11 -11    1.21    0.04
   8  11  11    1.04    0.30
 -10 -11 -11    1.85    0.06
 -10 -11 -11    1.73    0.59
  10  11  11    1.58    0.30
 -12 -11 -11    0.78    0.56
 -12 -11 -11    0.87    0.03
  12  11  11    0.51    0.32
 -14 -11 -11    9.04    0.25
 -14 -11 -11    7.90    0.84
  14  11  11    5.99    0.57
 -16 -11 -11   11.06    0.90
 -16 -11 -11   11.27    0.32
  16  11  11    8.78    0.74
 -11  12  11    0.59    0.38
   9 -12 -11    2.17    0.38
  -9  12  11    2.08    0.39
   7 -12 -11    1.21    0.29
  -3 -12 -11   31.18    0.87
   3  12  11   28.98    0.97
   3  12  11   26.10    0.84
  -5 -12 -11    1.78    0.05
   5  12  11    2.09    0.32
  -7 -12 -11    1.61    0.05
   7  12  11    1.15    0.31
  -9 -12 -11    2.25    0.07
  -9 -12 -11    1.82    0.64
   9  12  11    1.77    0.36
 -11 -12 -11    0.31    0.61
  11  12  11    0.71    0.32
 -13 -12 -11    7.37    0.91
 -13 -12 -11    8.27    0.23
  13  12  11    6.25    0.55
 -15 -12 -11    5.74    0.16
 -15 -12 -11    5.00    0.71
  15  12  11    3.62    0.46
  10 -13 -11    4.80    0.54
 -10  13  11    5.48    0.60
   8 -13 -11    1.67    0.33
  -8  13  11    2.03    0.39
  -2 -13 -11   43.97    1.23
  -4 -13 -11    5.30    0.15
   4  13  11    4.77    0.48
  -6 -13 -11    1.05    0.04
   6  13  11    0.91    0.32
  -8 -13 -11    2.70    0.08
   8  13  11    1.96    0.32
 -10 -13 -11    6.58    0.19
 -10 -13 -11    7.36    0.85
  10  13  11    5.14    0.55
 -12 -13 -11    8.58    0.24
 -12 -13 -11    8.30    1.00
  12  13  11    5.43    0.60
 -14 -13 -11    1.46    0.05
 -14 -13 -11    0.66    0.65
  14  13  11    0.50    0.39
 -16 -13 -11    5.24    0.15
 -16 -13 -11    4.92    0.76
  16  13  11    3.25    0.48
   9 -14 -11   11.90    0.63
  -1 -14 -11    9.05    0.25
  -3 -14 -11    0.53    0.02
   3  14  11    0.52    0.34
  -5 -14 -11    2.93    0.08
   5  14  11    2.77    0.39
  -7 -14 -11    1.84    0.06
   7  14  11    1.58    0.32
  -9 -14 -11   14.79    0.41
  -9 -14 -11   14.11    1.18
   9  14  11   11.36    0.67
 -11 -14 -11    9.45    0.27
 -11 -14 -11    9.70    1.09
  11  14  11    7.65    0.64
 -13 -14 -11    1.47    0.72
 -13 -14 -11    1.33    0.05
  13  14  11    1.07    0.40
 -15 -14 -11    1.01    0.04
 -15 -14 -11    1.39    0.70
  15  14  11    0.41    0.41
  10 -15 -11    5.99    0.52
   8 -15 -11   18.57    0.77
  -2 -15 -11   11.31    0.32
  -4 -15 -11    2.63    0.08
   4  15  11    1.82    0.34
  -6 -15 -11    1.71    0.05
   6  15  11    2.10    0.39
  -8 -15 -11   22.59    0.63
   8  15  11   17.39    0.77
 -10 -15 -11    7.87    0.22
 -10 -15 -11    8.57    1.00
  10  15  11    6.10    0.57
 -12 -15 -11    5.49    0.16
 -12 -15 -11    5.92    0.93
  12  15  11    4.16    0.48
 -14 -15 -11    0.87    0.75
 -14 -15 -11    0.99    0.04
  14  15  11    0.54    0.41
  -1 -16 -11    4.22    0.12
  -3 -16 -11    1.30    0.04
   3  16  11    1.09    0.34
  -5 -16 -11    3.68    0.11
   5  16  11    3.04    0.43
  -7 -16 -11   21.71    0.61
   7  16  11   15.07    0.72
  -9 -16 -11    3.15    0.09
   9  16  11    2.60    0.42
 -11 -16 -11   15.46    1.32
 -11 -16 -11   13.33    0.38
  11  16  11    9.63    0.75
 -13 -16 -11    4.75    0.95
 -13 -16 -11    4.62    0.13
  13  16  11    3.57    0.48
  -2 -17 -11    3.12    0.09
  -4 -17 -11    2.63    0.08
   4  17  11    2.43    0.39
  -6 -17 -11   16.10    0.45
   6  17  11   12.73    0.74
  -8 -17 -11   12.85    0.36
   8  17  11   10.01    0.71
 -10 -17 -11   18.45    0.52
  10  17  11   13.50    0.76
  -1 -18 -11    4.59    0.13
  -3 -18 -11    1.98    0.06
   3  18  11    2.13    0.40
  -5 -18 -11    3.52    0.10
   5  18  11    2.87    0.46
  -7 -18 -11    0.45    0.03
   7  18  11    0.65    0.38
  -9 -18 -11   26.22    0.73
   9  18  11   18.24    0.88
  -2 -19 -11    0.45    0.02
   2  19  11    0.34    0.38
  -4 -19 -11    0.78    0.03
   4  19  11    0.44    0.38
  -6 -19 -11   12.56    0.35
   6  19  11    8.97    0.65
  -8 -19 -11   12.34    0.35
   8  19  11    9.41    0.69
  -3 -20 -11    1.84    0.06
   3  20  11    1.73    0.49
  -5 -20 -11    0.75    0.03
   5  20  11    1.01    0.40
   4  20 -12    2.21    0.56
  -4 -20  12    3.84    0.12
   2  20 -12    0.85    0.47
  -2 -20  12    0.46    0.04
   0 -20  12    7.54    0.22
   2 -20  12    1.24    0.05
   4 -20  12    3.51    0.11
   4 -20  12    3.58    0.86
   7  19 -12    6.25    0.75
  -7 -19  12    7.93    0.23
   5  19 -12    4.08    0.50
  -5 -19  12    6.14    0.18
   3  19 -12    1.96    0.55
  -3 -19  12    2.38    0.08
   1  19 -12    1.70    0.58
  -1 -19  12    2.82    0.09
   1 -19  12    2.93    0.09
   3 -19  12    1.81    0.06
   5 -19  12    6.16    0.18
   5 -19  12    6.01    0.86
   7 -19  12    7.68    0.96
   7 -19  12    7.10    0.20
   8  18 -12   13.46    0.86
  -8 -18  12   22.30    0.63
   6  18 -12    0.21    0.48
  -6 -18  12    1.59    0.06
   4  18 -12    2.16    0.52
  -4 -18  12    2.60    0.08
   2  18 -12    2.74    0.48
  -2 -18  12    3.96    0.12
   0 -18  12    4.28    0.13
   2 -18  12    4.07    0.12
   4 -18  12    2.20    0.07
   6 -18  12    1.55    0.06
   6 -18  12    1.36    0.65
   8 -18  12   19.53    0.54
   8 -18  12   18.95    1.13
  11  17 -12    7.33    0.78
 -11 -17  12   10.37    0.29
   9  17 -12    7.40    0.74
  -9 -17  12   12.47    0.35
   7  17 -12    6.98    0.71
  -7 -17  12   10.58    0.30
   5  17 -12    3.55    0.53
  -5 -17  12    4.00    0.12
   3  17 -12    1.10    0.49
  -3 -17  12    1.06    0.04
  -1 -17  12    5.48    0.16
   1 -17  12    5.29    0.15
   3 -17  12    0.83    0.04
   5 -17  12    3.94    0.12
   5 -17  12    3.81    0.70
   7 -17  12    9.84    0.28
   7 -17  12    9.52    0.99
   9 -17  12   11.19    0.32
  12  16 -12    0.32    0.53
 -12 -16  12    0.82    0.04
  10  16 -12    9.92    0.70
 -10 -16  12   15.04    0.42
   8  16 -12    1.70    0.40
  -8 -16  12    1.86    0.07
   6  16 -12    8.36    0.72
  -6 -16  12   12.14    0.34
   4  16 -12    0.68    0.45
  -4 -16  12    1.13    0.04
   2  16 -12    1.94    0.43
  -2 -16  12    2.21    0.07
   0 -16  12    9.11    0.26
   2 -16  12    1.93    0.06
   4 -16  12    0.85    0.04
   6 -16  12   10.89    0.90
   6 -16  12   10.48    0.30
   8 -16  12    1.80    0.59
   8 -16  12    1.97    0.06
  10 -16  12   14.62    0.41
  13  15 -12    2.04    0.50
 -13 -15  12    2.45    0.08
  11  15 -12    5.24    0.61
 -11 -15  12    6.65    0.19
   9  15 -12    6.06    0.68
  -9 -15  12    7.70    0.22
   7  15 -12    8.89    0.70
  -7 -15  12   12.36    0.35
   5  15 -12    0.97    0.44
  -5 -15  12    1.30    0.05
   3  15 -12    5.35    0.56
  -3 -15  12    7.81    0.22
  -1 -15  12   14.43    0.41
   1 -15  12   14.36    0.40
   3 -15  12    7.32    0.21
   5 -15  12    1.03    0.04
   7 -15  12   10.93    0.30
   7 -15  12    9.98    0.89
   9 -15  12    6.67    0.76
   9 -15  12    7.46    0.21
  14  14 -12    1.41    0.50
  12  14 -12    2.04    0.57
 -12 -14  12    3.09    0.09
  10  14 -12    4.54    0.58
 -10 -14  12    5.69    0.16
   8  14 -12    5.72    0.55
  -8 -14  12    8.23    0.23
   6  14 -12    0.41    0.41
  -6 -14  12    0.41    0.03
   4  14 -12    5.25    0.61
  -4 -14  12    6.73    0.19
   2  14 -12    3.29    0.49
  -2 -14  12    4.31    0.13
   0 -14  12   16.11    0.45
   2 -14  12    3.95    0.12
   4 -14  12    5.97    0.17
   6 -14  12    0.47    0.03
   8 -14  12    6.80    0.67
   8 -14  12    7.29    0.20
  15  13 -12    2.54    0.65
  15  13 -12    2.21    0.60
 -15 -13  12    2.11    0.07
  13  13 -12    0.48    0.56
 -13 -13  12   -0.31    0.03
  11  13 -12    7.19    0.76
 -11 -13  12    7.95    0.23
   9  13 -12    2.40    0.49
  -9 -13  12    3.17    0.09
   7  13 -12    1.53    0.42
  -7 -13  12    1.17    0.05
   5  13 -12    4.74    0.59
  -5 -13  12    6.40    0.18
   3  13 -12    6.61    0.63
  -3 -13  12    8.66    0.24
  -1 -13  12   45.22    1.26
   1 -13  12   45.03    1.26
   3 -13  12    7.95    0.22
   5 -13  12    5.95    0.17
   7 -13  12    1.39    0.47
   7 -13  12    1.26    0.04
   9 -13  12    2.95    0.47
   9 -13  12    3.21    0.09
  16  12 -12    1.18    0.63
  16  12 -12    1.11    0.60
 -16 -12  12    0.83    0.04
  14  12 -12    1.99    0.62
  14  12 -12    2.55    0.59
 -14 -12  12    2.84    0.09
  12  12 -12    6.08    0.77
 -12 -12  12    6.03    0.17
  10  12 -12    0.44    0.47
 -10 -12  12    0.72    0.03
   8  12 -12    2.23    0.38
  -8 -12  12    2.22    0.07
   6  12 -12    3.54    0.40
  -6 -12  12    4.65    0.13
   4  12 -12    1.02    0.38
  -4 -12  12    1.57    0.05
   2  12 -12   33.46    1.22
  -2 -12  12   44.96    1.26
   0 -12  12    6.10    0.17
   2 -12  12   43.46    1.22
   4 -12  12    1.56    0.05
   6 -12  12    4.50    0.13
   8 -12  12    2.18    0.07
   8 -12  12    2.20    0.43
 -16  12 -12    1.57    1.17
  17  11 -12    8.16    0.93
  17  11 -12    7.55    0.80
 -17 -11  12    9.48    0.27
  15  11 -12    6.67    0.70
  15  11 -12    5.41    0.69
 -15 -11  12    6.19    0.18
  13  11 -12    7.63    0.72
  13  11 -12    8.13    0.84
 -13 -11  12    7.33    0.21
  11  11 -12   -0.36    0.48
 -11 -11  12   -0.01    0.02
   9  11 -12    1.82    0.47
  -9 -11  12    1.83    0.06
   7  11 -12    2.71    0.43
  -7 -11  12    2.72    0.08
   5  11 -12    3.37    0.43
  -5 -11  12    4.11    0.12
   3  11 -12   35.44    1.25
  -3 -11  12   45.62    1.28
  -1 -11  12   15.54    0.44
   1 -11  12   14.50    0.41
   3 -11  12   42.83    1.20
   5 -11  12    3.91    0.11
   7 -11  12    2.85    0.08
   9 -11  12    1.88    0.36
   9 -11  12    1.91    0.06
 -15  11 -12    7.02    1.34
 -17  11 -12   10.09    1.76
  16  10 -12   12.64    0.98
  16  10 -12   12.37    0.98
 -16 -10  12   12.39    0.35
  14  10 -12    4.61    0.66
  14  10 -12    5.57    0.67
 -14 -10  12    4.85    0.14
  12  10 -12    1.19    0.44
  12  10 -12    0.53    0.53
 -12 -10  12    0.56    0.03
  10  10 -12    1.82    0.50
 -10 -10  12    2.03    0.06
   8  10 -12    0.52    0.34
  -8 -10  12    0.41    0.02
   6  10 -12    2.17    0.40
  -6 -10  12    2.37    0.07
   4  10 -12   37.17    1.28
  -4 -10  12   46.57    1.30
   2  10 -12    7.18    0.60
  -2 -10  12    7.99    0.23
   0 -10  12   97.89    2.74
   2 -10  12    7.33    0.21
   4 -10  12   43.46    1.21
   6 -10  12    2.48    0.07
   8 -10  12    0.19    0.33
   8 -10  12    0.53    0.02
 -14  10 -12    6.28    1.39
 -16  10 -12   14.74    1.97
  17   9 -12   11.26    0.86
  17   9 -12    9.21    0.82
 -17  -9  12    9.45    0.27
  15   9 -12    7.03    0.73
  15   9 -12    7.08    0.84
 -15  -9  12    6.49    0.18
  13   9 -12    2.85    0.58
  13   9 -12    2.83    0.51
 -13  -9  12    2.75    0.08
  11   9 -12    1.70    0.43
  11   9 -12    1.73    0.53
 -11  -9  12    1.70    0.06
   9   9 -12   -0.28    0.41
  -9  -9  12   -0.08    0.02
   7   9 -12    2.86    0.43
  -7  -9  12    3.12    0.09
   5   9 -12   24.39    0.91
  -5  -9  12   27.16    0.76
   3   9 -12   12.29    0.66
  -3  -9  12   13.51    0.38
  -1  -9  12   83.67    2.34
   1  -9  12   79.94    2.23
   3  -9  12   12.44    0.35
   5  -9  12   27.82    0.78
   7  -9  12    3.48    0.10
   9  -9  12    0.04    0.02
   9  -9  12    0.20    0.28
 -13   9 -12    2.66    0.97
 -15   9 -12    6.12    1.36
 -17   9 -12   10.56    1.60
  18   8 -12   16.06    1.04
  18   8 -12   17.28    1.11
 -18  -8  12   16.39    0.46
  16   8 -12    2.06    0.54
  16   8 -12    1.27    0.62
 -16  -8  12    1.65    0.06
  14   8 -12    7.30    0.82
  14   8 -12    7.25    0.81
 -14  -8  12    6.44    0.18
  12   8 -12    1.74    0.55
  12   8 -12    2.59    0.54
 -12  -8  12    2.06    0.06
  10   8 -12    0.59    0.50
  10   8 -12    0.63    0.37
 -10  -8  12    0.40    0.02
   8   8 -12    1.13    0.42
  -8  -8  12    1.58    0.05
   6   8 -12    6.03    0.57
  -6  -8  12    6.06    0.17
   4   8 -12   12.40    0.66
  -4  -8  12   13.06    0.37
   2   8 -12   58.80    1.82
  -2  -8  12   68.14    1.90
   0  -8  12    5.53    0.16
   2  -8  12   62.57    1.75
   4  -8  12   12.98    0.36
   6  -8  12    6.63    0.19
   8  -8  12    1.99    0.31
   8  -8  12    1.86    0.06
 -10   8 -12   -0.29    0.66
 -12   8 -12    2.96    1.03
 -14   8 -12    8.29    1.33
 -16   8 -12    2.46    1.05
 -18   8 -12   19.37    2.11
  19   7 -12    6.30    0.76
  19   7 -12    5.78    0.71
 -19  -7  12    5.74    0.16
  17   7 -12    7.76    0.77
  17   7 -12    7.03    0.78
 -17  -7  12    8.02    0.23
  15   7 -12   10.18    0.92
  15   7 -12   10.18    0.87
 -15  -7  12    9.33    0.26
  13   7 -12    1.32    0.52
  13   7 -12    0.38    0.53
 -13  -7  12    1.11    0.04
  11   7 -12    3.25    0.52
  11   7 -12    2.78    0.57
 -11  -7  12    2.61    0.08
   9   7 -12    3.43    0.57
   9   7 -12    3.34    0.49
  -9  -7  12    2.93    0.08
  -9  -7  12    2.58    0.36
   7   7 -12    0.77    0.33
  -7  -7  12    0.83    0.03
   5   7 -12   25.99    0.97
  -5  -7  12   26.35    0.74
   3   7 -12   36.00    1.20
  -3  -7  12   39.99    1.12
   1   7 -12    6.52    0.49
  -1  -7  12    7.83    0.22
   1  -7  12    7.90    0.22
   3  -7  12   39.34    1.10
   5  -7  12   29.14    0.81
   7  -7  12    0.94    0.03
  -9   7 -12    3.32    0.79
 -11   7 -12    2.71    0.97
 -13   7 -12    1.06    0.96
 -15   7 -12   11.57    1.62
 -17   7 -12    9.10    1.45
  18   6 -12    1.58    0.54
  18   6 -12    1.19    0.62
 -18  -6  12    1.16    0.05
  16   6 -12    9.76    0.88
 -16  -6  12    8.70    0.25
  14   6 -12    0.42    0.55
  14   6 -12    0.66    0.53
 -14  -6  12    0.25    0.02
  12   6 -12    4.27    0.55
  12   6 -12    4.42    0.54
 -12  -6  12    3.73    0.11
  10   6 -12    2.93    0.56
  10   6 -12    2.52    0.48
 -10  -6  12    1.73    0.34
 -10  -6  12    2.27    0.07
   8   6 -12    7.54    0.78
   8   6 -12    6.37    0.62
  -8  -6  12    5.26    0.50
  -8  -6  12    5.59    0.16
   6   6 -12   11.08    0.65
  -6  -6  12    9.43    0.26
   4   6 -12   10.10    0.57
  -4  -6  12    9.56    0.27
   2   6 -12   15.23    0.64
   6  -6  12   11.49    0.32
  -8   6 -12    6.07    0.98
   8  -6  12    6.62    0.38
 -10   6 -12    2.82    0.91
 -12   6 -12    4.21    1.03
 -14   6 -12   -0.64    0.94
 -16   6 -12    8.56    1.41
  19   5 -12    5.18    0.70
 -19  -5  12    4.18    0.12
  17   5 -12    3.49    0.55
 -17  -5  12    3.38    0.10
  15   5 -12    1.19    0.57
  15   5 -12    1.62    0.56
 -15  -5  12    0.87    0.03
  13   5 -12    6.11    0.60
  13   5 -12    5.09    0.62
 -13  -5  12    5.01    0.14
  11   5 -12    3.66    0.51
  11   5 -12    3.37    0.50
 -11  -5  12    3.01    0.38
 -11  -5  12    3.30    0.09
   9   5 -12   27.92    1.10
   9   5 -12   29.30    1.25
  -9  -5  12   24.48    0.90
  -9  -5  12   23.30    0.67
   7   5 -12   28.09    1.07
   7   5 -12   30.07    1.18
  -7  -5  12   24.06    0.67
  -7  -5  12   23.44    0.87
   5   5 -12    2.63    0.35
  -5  -5  12    2.54    0.07
   3   5 -12   20.31    0.76
   1   5 -12    8.66    0.46
  -5   5 -12    2.92    0.72
  -7   5 -12   28.17    1.49
  -9   5 -12   27.79    1.70
 -11   5 -12    3.51    0.95
 -13   5 -12    6.02    0.98
 -15   5 -12    0.90    0.98
 -19   5 -12    5.00    0.14
  20   4 -12    1.96    0.53
 -20  -4  12    2.84    0.09
  18   4 -12    1.77    0.60
 -18  -4  12    2.03    0.06
  16   4 -12    1.51    0.57
 -16  -4  12    0.78    0.03
  14   4 -12    6.31    0.76
 -14  -4  12    4.58    0.13
  12   4 -12    1.15    0.48
  12   4 -12    0.84    0.44
 -12  -4  12    1.05    0.33
 -12  -4  12    1.18    0.04
  10   4 -12   43.93    1.53
  10   4 -12   46.47    1.68
 -10  -4  12   35.18    1.18
 -10  -4  12   35.87    0.99
   8   4 -12   13.42    0.92
   8   4 -12   14.43    0.75
  -8  -4  12   10.95    0.31
  -8  -4  12   11.28    0.58
   6   4 -12   10.99    0.67
  -6  -4  12    9.34    0.49
  -6  -4  12    8.87    0.25
   4   4 -12   21.25    0.79
   2   4 -12    6.54    0.40
   2   4 -12    5.30    0.53
   0   4 -12   16.11    0.85
  -2   4 -12    6.08    0.83
  -4   4 -12   21.26    1.25
  -6   4 -12    8.55    0.95
  -8   4 -12   13.24    1.14
  -8   4 -12   12.39    0.64
 -10   4 -12   40.21    2.04
 -12   4 -12    1.20    0.87
 -18   4 -12    1.64    0.05
 -20   4 -12    2.29    0.07
  19   3 -12    1.44    0.60
 -19  -3  12    1.68    0.06
  17   3 -12    1.09    0.55
 -17  -3  12    0.85    0.03
  15   3 -12    6.70    0.76
 -15  -3  12    5.57    0.16
  13   3 -12    8.83    0.75
 -13  -3  12    6.46    0.18
 -13  -3  12    6.22    0.54
  11   3 -12   41.80    1.43
  11   3 -12   41.67    1.60
 -11  -3  12   33.35    1.17
 -11  -3  12   34.26    0.95
   9   3 -12   13.32    0.92
   9   3 -12   14.10    0.76
  -9  -3  12   11.38    0.58
  -9  -3  12   10.72    0.31
   7   3 -12   42.36    1.40
   7   3 -12   42.48    1.52
  -7  -3  12   33.73    1.09
  -7  -3  12   32.49    0.92
   5   3 -12   22.64    0.87
  -5  -3  12   17.70    0.65
   3   3 -12    1.30    0.24
   1   3 -12   12.80    0.52
  -1   3 -12   11.88    0.83
  -3   3 -12    0.97    0.55
  -5   3 -12   22.34    1.33
  -7   3 -12   39.31    1.84
  -7   3 -12   36.84    1.20
  -9   3 -12   12.62    0.61
  -9   3 -12   10.43    1.12
 -15   3 -12    5.74    0.16
 -17   3 -12    0.66    0.03
 -19   3 -12    1.59    0.05
  20   2 -12    1.05    0.49
 -20  -2  12    1.10    0.04
  18   2 -12    2.81    0.60
 -18  -2  12    3.35    0.10
  16   2 -12    2.43    0.55
 -16  -2  12    1.81    0.06
  14   2 -12    4.04    0.48
 -14  -2  12    2.92    0.09
  12   2 -12   39.23    1.42
 -12  -2  12   29.42    1.07
 -12  -2  12   32.03    0.86
  10   2 -12    9.13    0.84
  10   2 -12    8.17    0.68
 -10  -2  12    6.13    0.50
 -10  -2  12    5.64    0.16
   8   2 -12   68.61    2.07
   8   2 -12   63.08    2.19
  -8  -2  12   54.00    1.65
  -8  -2  12   53.75    1.51
   6   2 -12   17.89    0.77
   6   2 -12   17.69    0.86
  -6  -2  12   13.79    0.57
   4   2 -12    6.74    0.47
  -4  -2  12    5.51    0.37
   2   2 -12   49.03    1.47
   0   2 -12    3.73    0.26
  -6   2 -12   14.92    0.58
  -8   2 -12   58.45    1.77
 -10   2 -12    5.89    0.47
 -12   2 -12   34.58    0.97
 -14   2 -12    3.08    0.09
 -16   2 -12    1.64    0.05
 -18   2 -12    3.18    0.09
 -20   2 -12    1.25    0.04
  19   1 -12    2.78    0.52
 -19  -1  12    2.11    0.07
  17   1 -12    4.68    0.62
 -17  -1  12    3.91    0.11
  15   1 -12   11.48    0.74
 -15  -1  12    9.95    0.28
  13   1 -12   40.56    1.46
 -13  -1  12   33.91    0.91
 -13  -1  12   30.62    1.13
  11   1 -12   16.29    0.85
 -11  -1  12   12.70    0.65
 -11  -1  12   12.18    0.35
   9   1 -12   81.05    2.58
   9   1 -12   78.13    2.43
  -9  -1  12   60.28    1.69
  -9  -1  12   60.90    1.86
   7   1 -12    7.76    0.77
   7   1 -12    7.63    0.56
  -7  -1  12    5.33    0.45
   5   1 -12   10.01    0.51
  -5  -1  12    8.50    0.43
   3   1 -12   13.87    0.55
  -3  -1  12   11.63    0.45
   1   1 -12    0.02    0.03
  -1  -1  12    4.99    0.51
  -1   1 -12    6.00    0.29
  -5   1 -12    8.53    0.38
  -7   1 -12    6.41    0.40
   7  -1  12    6.75    0.36
  -9   1 -12   61.76    1.89
  -9   1 -12   63.75    1.75
 -11   1 -12   13.10    0.37
 -13   1 -12   34.13    0.95
 -15   1 -12    9.95    0.28
 -17   1 -12    3.63    0.10
 -19   1 -12    1.96    0.06
  20   0 -12    6.76    0.87
 -20   0  12    6.52    0.19
  18   0 -12    3.03    0.60
 -18   0  12    2.94    0.09
  16   0 -12    7.50    0.67
 -16   0  12    6.32    0.18
  14   0 -12   14.58    0.85
 -14   0  12   12.12    0.33
 -14   0  12   11.01    0.79
  12   0 -12    5.57    0.54
 -12   0  12    4.08    0.12
 -12   0  12    4.29    0.52
  10   0 -12   89.72    2.73
  10   0 -12   90.30    2.86
 -10   0  12   71.00    2.03
 -10   0  12   74.70    2.22
   8   0 -12    5.14    0.55
   8   0 -12    6.93    0.75
  -8   0  12    4.41    0.43
  -8   0  12    3.80    0.11
   6   0 -12   91.61    2.65
   6   0 -12   87.52    2.76
  -6   0  12   74.18    2.18
   4   0 -12   18.25    0.67
  -4   0  12   14.21    0.52
   2   0 -12   -0.03    0.03
  -2   0  12    3.52    0.24
   0   0 -12  120.39    3.40
  -4   0 -12   15.91    0.53
  -6   0 -12   77.89    2.26
  -8   0 -12    4.15    0.37
  -8   0 -12    4.06    0.12
 -10   0 -12   72.25    1.96
 -10   0 -12   68.14    2.10
 -12   0 -12    4.40    0.12
 -14   0 -12   11.89    0.33
 -16   0 -12    6.18    0.17
 -18   0 -12    2.72    0.08
 -20   0 -12    5.70    0.16
  19  -1 -12    3.24    0.63
 -19   1  12    1.93    0.06
  17  -1 -12    3.80    0.59
 -17   1  12    3.97    0.12
  15  -1 -12   11.08    0.80
 -15   1  12    9.94    0.28
  13  -1 -12   38.38    1.35
 -13   1  12   34.65    0.97
 -13   1  12   34.37    1.24
  11  -1 -12   15.41    0.81
 -11   1  12   11.40    0.69
 -11   1  12   13.19    0.68
 -11   1  12   13.35    0.36
   9  -1 -12   79.37    2.46
   9  -1 -12   74.34    2.34
  -9   1  12   63.70    1.93
  -9   1  12   62.28    1.76
   7  -1 -12    7.88    0.57
   7  -1 -12    8.57    0.75
  -7   1  12    6.54    0.48
   5  -1 -12    9.97    0.47
   5  -1 -12    9.62    0.71
  -5   1  12    8.67    0.43
   3  -1 -12    0.03    0.06
  -3   1  12   10.32    0.39
   1  -1 -12    5.56    0.24
  -1   1  12    5.55    0.25
  -5  -1 -12    8.55    0.36
  -7  -1 -12    6.17    0.38
  -7  -1 -12    6.11    0.17
  -9  -1 -12   62.20    1.87
  -9  -1 -12   62.95    1.75
 -11  -1 -12   12.96    0.36
 -13  -1 -12   33.10    0.93
 -15  -1 -12    9.87    0.28
 -17  -1 -12    3.51    0.10
 -19  -1 -12    1.92    0.06
  20  -2 -12    1.49    0.62
 -20   2  12    1.08    0.04
  18  -2 -12    3.17    0.61
 -18   2  12    3.08    0.09
  16  -2 -12    1.74    0.52
 -16   2  12    1.59    0.05
  14  -2 -12    3.97    0.52
 -14   2  12    3.25    0.10
 -14   2  12    3.41    0.53
 -14   2  12    3.34    0.43
  12  -2 -12   37.65    1.34
 -12   2  12   34.65    0.98
 -12   2  12   34.00    1.24
 -12   2  12   36.54    1.36
  10  -2 -12    6.65    0.60
 -10   2  12    5.95    0.17
 -10   2  12    6.48    0.54
   8  -2 -12   65.71    1.98
   8  -2 -12   63.30    2.13
  -8   2  12   61.87    1.89
   6  -2 -12   16.57    0.65
   6  -2 -12   17.11    0.87
  -6   2  12   15.00    0.59
   4  -2 -12    6.10    0.35
  -4   2  12    5.84    0.34
  -2   2  12   42.35    1.23
  -4  -2 -12    6.07    0.24
  -6  -2 -12   16.36    0.58
  -8  -2 -12   58.19    1.72
  -8  -2 -12   57.20    1.61
   8   2  12   70.99    2.11
 -10  -2 -12    5.99    0.44
 -10  -2 -12    6.04    0.17
  10   2  12    7.40    0.56
 -12  -2 -12   32.96    0.92
  12   2  12   36.86    1.25
 -14  -2 -12    3.12    0.09
  14   2  12    4.30    0.45
 -16  -2 -12    1.52    0.05
  16   2  12    2.31    0.45
 -18  -2 -12    3.03    0.09
 -20  -2 -12    1.05    0.04
 -19   3  12    1.53    0.05
  17  -3 -12    1.17    0.53
 -17   3  12    0.84    0.03
  15  -3 -12    5.51    0.69
 -15   3  12    6.00    0.17
 -15   3  12    6.79    0.81
  13  -3 -12    8.26    0.68
 -13   3  12    6.86    0.61
 -13   3  12    6.72    0.69
 -13   3  12    6.85    0.19
  11  -3 -12   40.70    1.40
 -11   3  12   39.28    1.34
   9  -3 -12   12.33    0.83
   9  -3 -12   12.66    0.67
  -9   3  12   13.36    0.71
   7  -3 -12   40.16    1.32
   7  -3 -12   42.12    1.47
  -7   3  12   38.64    1.26
   5  -3 -12   23.10    0.97
  -5   3  12   21.13    0.74
  -3   3  12    0.72    0.18
  -1   3  12   10.33    0.35
  -5  -3 -12   21.13    0.66
   5   3  12   23.27    0.74
  -7  -3 -12   38.39    1.17
   7   3  12   42.19    1.30
  -9  -3 -12   12.86    0.53
  -9  -3 -12   11.54    0.34
   9   3  12   13.97    0.63
 -11  -3 -12   36.13    1.01
  11   3  12   41.00    1.35
 -13  -3 -12    6.28    0.18
  13   3  12    7.01    0.54
 -15  -3 -12    5.47    0.15
  15   3  12    5.42    0.58
 -17  -3 -12    0.70    0.03
  17   3  12    0.73    0.43
 -19  -3 -12    1.57    0.05
  19   3  12    1.29    0.48
 -20   4  12    2.24    0.07
 -18   4  12    1.56    0.61
 -18   4  12    1.75    0.06
 -16   4  12    0.71    0.61
 -16   4  12    0.65    0.03
 -14   4  12    5.03    0.60
 -14   4  12    5.21    0.15
 -12   4  12    1.09    0.37
 -10   4  12   41.79    1.40
   8  -4 -12   15.43    0.85
  -8   4  12   13.97    0.71
   6  -4 -12   10.22    0.69
  -6   4  12   11.12    0.57
  -4   4  12   22.82    0.77
  -2   4  12    6.63    0.33
   0   4  12   18.39    0.56
   4   4  12   21.91    0.68
  -6  -4 -12   10.84    0.43
   6   4  12   11.07    0.46
  -8  -4 -12   12.18    0.35
  -8  -4 -12   13.24    0.54
   8   4  12   12.85    0.56
 -10  -4 -12   39.71    1.09
 -10  -4 -12   37.91    1.24
  10   4  12   41.76    1.34
 -12  -4 -12    1.37    0.04
  12   4  12    1.38    0.38
 -14  -4 -12    4.81    0.14
  14   4  12    5.04    0.52
 -16  -4 -12    0.81    0.03
  16   4  12    0.59    0.45
 -18  -4 -12    1.68    0.05
  18   4  12    2.06    0.47
 -20  -4 -12    2.23    0.07
  20   4  12    1.41    0.50
 -19   5  12    4.81    0.14
 -17   5  12    3.52    0.73
 -17   5  12    3.07    0.09
 -13   5  12    4.86    0.59
 -11   5  12    3.33    0.42
   9  -5 -12   28.74    1.16
  -9   5  12   27.83    1.03
   7  -5 -12   31.22    1.18
  -7   5  12   30.95    1.06
   5  -5 -12    3.35    0.42
  -5   5  12    3.51    0.43
  -3   5  12   24.71    0.83
  -1   5  12   10.20    0.41
   3   5  12   18.58    0.57
   5   5  12    3.24    0.28
  -7  -5 -12   27.49    0.89
   7   5  12   26.06    0.85
  -9  -5 -12   27.02    0.74
  -9  -5 -12   25.90    0.90
   9   5  12   26.58    0.92
 -11  -5 -12    3.36    0.10
  11   5  12    3.74    0.39
 -13  -5 -12    5.08    0.14
  13   5  12    4.76    0.50
 -15  -5 -12    0.91    0.03
  15   5  12    1.19    0.38
 -17  -5 -12    3.29    0.10
  17   5  12    3.23    0.48
 -19  -5 -12    4.11    0.12
  19   5  12    3.98    0.53
 -18   6  12    1.16    0.63
 -18   6  12    1.29    0.05
 -14   6  12    0.26    0.39
 -12   6  12    3.81    0.44
 -10   6  12    2.48    0.38
   8  -6 -12    6.21    0.70
  -8   6  12    7.07    0.54
   6  -6 -12   10.42    0.66
  -6   6  12   11.75    0.59
  -4   6  12   11.86    0.55
  -2   6  12   18.29    0.65
   2   6  12   13.91    0.46
   4   6  12    8.85    0.36
   6   6  12    9.44    0.41
  -8  -6 -12    6.63    0.18
  -8  -6 -12    6.11    0.43
   8   6  12    5.78    0.40
 -10  -6 -12    2.27    0.07
 -10  -6 -12    2.58    0.30
  10   6  12    1.90    0.32
 -12  -6 -12    3.94    0.11
  12   6  12    3.93    0.45
 -14  -6 -12    0.38    0.02
  14   6  12    0.35    0.35
 -16  -6 -12    8.62    0.24
  16   6  12    9.13    0.66
 -18  -6 -12    1.12    0.04
  18   6  12    0.84    0.51
 -19   7  12    7.44    1.05
 -19   7  12    5.75    0.17
 -13   7  12    1.28    0.40
 -11   7  12    2.88    0.41
   9  -7 -12    2.98    0.44
  -9   7  12    3.55    0.40
   7  -7 -12    0.91    0.35
  -7   7  12    0.85    0.32
  -5   7  12   30.49    1.04
  -3   7  12   43.19    1.34
   3   7  12   33.38    1.00
   5   7  12   23.84    0.76
  -7  -7 -12    0.97    0.03
   7   7  12    1.13    0.24
  -9  -7 -12    3.43    0.10
  -9  -7 -12    3.24    0.33
   9   7  12    3.20    0.32
 -11  -7 -12    2.84    0.08
  11   7  12    2.31    0.35
 -13  -7 -12    1.00    0.04
  13   7  12    1.30    0.39
 -15  -7 -12    9.76    0.27
  15   7  12    9.24    0.70
 -17  -7 -12    8.07    0.23
  17   7  12    7.41    0.65
 -19  -7 -12    5.62    0.16
  19   7  12    4.93    0.55
 -12   8  12    1.89    0.40
 -10   8  12    0.12    0.34
   8  -8 -12    1.17    0.41
  -8   8  12    1.69    0.34
   6  -8 -12    6.27    0.58
  -6   8  12    7.04    0.55
  -4   8  12   13.98    0.63
   2   8  12   63.70    1.86
   4   8  12   11.19    0.45
  -6  -8 -12    6.73    0.19
   6   8  12    6.15    0.38
  -8  -8 -12    1.86    0.05
   8   8  12    1.29    0.28
 -10  -8 -12    0.52    0.02
  10   8  12    0.24    0.29
 -12  -8 -12    2.20    0.07
  12   8  12    2.33    0.38
 -14  -8 -12    6.88    0.19
  14   8  12    6.28    0.56
 -16  -8 -12    1.85    0.06
  16   8  12    1.77    0.48
 -18  -8 -12   16.10    0.45
  18   8  12   15.37    0.84
 -13   9  12    2.54    0.44
 -11   9  12    1.43    0.39
   9  -9 -12   -0.11    0.34
  -9   9  12    0.02    0.32
   7  -9 -12    3.09    0.37
  -7   9  12    3.26    0.36
  -5   9  12   27.13    0.95
   3   9  12   12.17    0.49
  -5  -9 -12   27.99    0.78
   5   9  12   23.67    0.78
  -7  -9 -12    3.57    0.10
   7   9  12    2.69    0.34
  -9  -9 -12   -0.02    0.01
   9   9  12    0.31    0.27
 -11  -9 -12    1.99    0.06
  11   9  12    1.76    0.31
 -13  -9 -12    2.78    0.08
  13   9  12    3.33    0.44
 -15  -9 -12    7.08    0.20
  15   9  12    5.93    0.66
 -17  -9 -12    9.45    0.27
  17   9  12    8.50    0.68
 -12  10  12    0.55    0.38
 -10  10  12    1.84    0.38
   8 -10 -12    0.70    0.34
  -8  10  12    0.65    0.37
   6 -10 -12    3.17    0.38
  -6  10  12    2.45    0.37
  -4 -10 -12   42.13    1.18
   4  10  12   39.10    1.23
  -6 -10 -12    2.53    0.07
   6  10  12    1.87    0.26
  -8 -10 -12    0.58    0.02
   8  10  12    0.47    0.26
 -10 -10 -12    2.38    0.07
  10  10  12    1.60    0.29
 -12 -10 -12    0.80    0.03
  12  10  12    0.75    0.37
 -14 -10 -12    5.01    0.14
  14  10  12    4.07    0.49
 -16 -10 -12   12.90    0.36
  16  10  12   11.44    0.78
 -11  11  12    0.18    0.36
   9 -11 -12    1.85    0.39
  -9  11  12    1.67    0.36
   7 -11 -12    2.73    0.36
  -7  11  12    2.84    0.41
  -3 -11 -12   37.33    1.04
   3  11  12   37.69    1.20
  -5 -11 -12    3.80    0.11
   5  11  12    3.53    0.38
  -7 -11 -12    2.95    0.08
   7  11  12    2.58    0.31
  -9 -11 -12    2.07    0.06
   9  11  12    1.47    0.28
 -11 -11 -12    0.21    0.02
  11  11  12    0.26    0.34
 -13 -11 -12    8.65    0.24
  13  11  12    6.26    0.54
 -15 -11 -12    6.18    0.17
 -15 -11 -12    5.86    0.68
  15  11  12    4.92    0.53
 -17 -11 -12    8.99    0.25
  17  11  12    7.22    0.74
  10 -12 -12    0.31    0.38
 -10  12  12    0.55    0.36
   8 -12 -12    1.89    0.37
  -8  12  12    2.25    0.37
  -4 -12 -12    1.57    0.05
   4  12  12    1.29    0.29
  -6 -12 -12    4.56    0.13
   6  12  12    3.88    0.42
  -8 -12 -12    2.35    0.07
   8  12  12    2.13    0.30
 -10 -12 -12    0.96    0.04
  10  12  12    0.62    0.34
 -12 -12 -12    6.48    0.18
  12  12  12    5.03    0.56
 -14 -12 -12    3.55    0.10
 -14 -12 -12    2.79    0.63
  14  12  12    2.26    0.46
 -16 -12 -12    0.90    0.03
 -16 -12 -12    0.72    0.57
  16  12  12    0.93    0.42
  11 -13 -12    6.80    0.65
   9 -13 -12    3.22    0.38
  -9  13  12    2.74    0.41
  -3 -13 -12    7.33    0.21
   3  13  12    6.58    0.50
  -5 -13 -12    6.04    0.17
   5  13  12    4.97    0.47
  -7 -13 -12    1.37    0.04
   7  13  12    1.08    0.28
  -9 -13 -12    3.28    0.09
   9  13  12    2.21    0.34
 -11 -13 -12    8.56    0.24
  11  13  12    6.45    0.53
 -13 -13 -12   -0.13    0.02
  13  13  12   -0.28    0.40
 -15 -13 -12    2.87    0.67
 -15 -13 -12    3.03    0.09
  15  13  12    1.99    0.49
  12 -14 -12    2.59    0.46
  10 -14 -12    4.45    0.42
   8 -14 -12    6.32    0.50
  -2 -14 -12    3.54    0.10
  -4 -14 -12    5.84    0.16
   4  14  12    5.01    0.50
  -6 -14 -12    0.35    0.02
   6  14  12    0.64    0.33
  -8 -14 -12    7.89    0.22
   8  14  12    6.07    0.49
 -10 -14 -12    5.72    0.16
  10  14  12    4.00    0.49
 -12 -14 -12    3.10    0.09
  12  14  12    2.43    0.45
 -14 -14 -12    1.64    0.05
  14  14  12    0.71    0.39
  13 -15 -12    2.11    0.47
  11 -15 -12    5.65    0.52
   9 -15 -12    6.62    0.60
  -3 -15 -12    6.83    0.19
   3  15  12    5.80    0.48
  -5 -15 -12    1.13    0.04
   5  15  12    0.91    0.31
  -7 -15 -12   11.71    0.33
   7  15  12    8.91    0.60
  -9 -15 -12    7.96    0.22
   9  15  12    6.39    0.53
 -11 -15 -12    6.79    0.19
  11  15  12    5.32    0.62
 -13 -15 -12    2.56    0.08
  13  15  12    2.25    0.42
  -2 -16 -12    1.85    0.06
  -4 -16 -12    1.01    0.04
   4  16  12    0.66    0.32
  -6 -16 -12   11.12    0.31
   6  16  12    9.01    0.58
  -8 -16 -12    2.20    0.07
   8  16  12    2.22    0.43
 -10 -16 -12   15.31    0.43
  10  16  12   11.07    0.74
 -12 -16 -12    0.65    0.03
  12  16  12    0.22    0.46
  -3 -17 -12    0.85    0.03
   3  17  12    0.62    0.39
  -5 -17 -12    3.75    0.11
   5  17  12    3.74    0.46
  -7 -17 -12    9.48    0.27
   7  17  12    8.00    0.58
  -9 -17 -12   11.54    0.32
   9  17  12    8.23    0.69
 -11 -17 -12   10.47    0.29
  11  17  12    7.80    0.65
  -2 -18 -12    3.38    0.10
   2  18  12    3.00    0.42
  -4 -18 -12    1.94    0.06
   4  18  12    1.60    0.43
  -6 -18 -12    1.59    0.05
   6  18  12    0.88    0.43
  -8 -18 -12   20.86    0.58
   8  18  12   14.60    0.76
  -3 -19 -12    1.86    0.06
   3  19  12    1.43    0.40
  -5 -19 -12    5.90    0.17
   5  19  12    5.03    0.64
  -7 -19 -12    7.27    0.21
   7  19  12    5.47    0.58
   2  20  12    0.45    0.40
  -4 -20 -12    2.89    0.08
   4  20  12    2.62    0.44
   1  20 -13    4.10    0.58
  -1 -20  13    6.40    0.18
   1 -20  13    6.14    0.18
   6  19 -13    3.58    0.57
  -6 -19  13    5.98    0.17
   4  19 -13    3.53    0.58
  -4 -19  13    4.84    0.14
   2  19 -13    3.38    0.60
  -2 -19  13    4.05    0.12
   0 -19  13    1.02    0.04
   2 -19  13    3.83    0.11
   4 -19  13    4.60    0.13
   4 -19  13    3.83    0.81
   6 -19  13    5.18    0.15
   6 -19  13    5.00    0.79
   7  18 -13    8.67    0.67
  -7 -18  13   13.02    0.37
   5  18 -13    2.17    0.52
  -5 -18  13    2.43    0.08
   3  18 -13    2.26    0.55
  -3 -18  13    3.67    0.11
   1  18 -13    3.89    0.62
  -1 -18  13    5.48    0.16
   1 -18  13    5.45    0.16
   3 -18  13    3.20    0.10
   5 -18  13    2.27    0.69
   5 -18  13    2.03    0.07
   7 -18  13   12.01    0.98
   7 -18  13   11.63    0.33
  10  17 -13    4.88    0.60
 -10 -17  13    6.87    0.20
   8  17 -13    4.44    0.57
  -8 -17  13    8.11    0.23
   6  17 -13    2.54    0.51
  -6 -17  13    3.62    0.11
   4  17 -13    1.63    0.50
  -4 -17  13    2.21    0.07
   2  17 -13    1.41    0.52
  -2 -17  13    2.02    0.07
   0 -17  13    3.03    0.09
   2 -17  13    2.19    0.07
   4 -17  13    1.94    0.06
   6 -17  13    3.34    0.66
   6 -17  13    3.52    0.10
   8 -17  13    7.27    0.21
   8 -17  13    6.95    0.80
  10 -17  13    6.97    0.20
  11  16 -13    1.28    0.52
 -11 -16  13    1.65    0.06
   9  16 -13    9.01    0.75
  -9 -16  13   13.41    0.38
   7  16 -13    0.87    0.46
  -7 -16  13    1.19    0.05
   5  16 -13    2.02    0.48
  -5 -16  13    3.12    0.10
   3  16 -13    1.47    0.41
  -3 -16  13    1.70    0.06
  -1 -16  13    7.58    0.22
   1 -16  13    7.65    0.22
   3 -16  13    1.34    0.05
   5 -16  13    2.93    0.09
   7 -16  13    1.26    0.05
   7 -16  13    1.49    0.59
   9 -16  13   13.06    0.37
   9 -16  13   12.76    0.91
  12  15 -13    1.36    0.55
 -12 -15  13    1.64    0.06
  10  15 -13    5.49    0.61
 -10 -15  13    7.17    0.20
   8  15 -13    2.14    0.41
  -8 -15  13    3.23    0.10
   6  15 -13    3.64    0.51
  -6 -15  13    4.70    0.14
   4  15 -13    1.12    0.44
  -4 -15  13    1.37    0.05
   2  15 -13    6.46    0.68
  -2 -15  13    8.80    0.25
   0 -15  13   11.71    0.33
   2 -15  13    8.90    0.25
   4 -15  13    1.13    0.04
   6 -15  13    4.26    0.12
   8 -15  13    3.18    0.10
   8 -15  13    3.96    0.59
  10 -15  13    6.88    0.20
  13  14 -13    1.88    0.58
 -13 -14  13    2.02    0.07
  11  14 -13    3.03    0.48
 -11 -14  13    4.21    0.12
   9  14 -13    2.82    0.43
  -9 -14  13    3.74    0.11
   7  14 -13    2.19    0.45
  -7 -14  13    3.39    0.10
   5  14 -13    0.54    0.33
  -5 -14  13    0.56    0.03
   3  14 -13    9.05    0.61
  -3 -14  13   13.11    0.37
  -1 -14  13    7.04    0.20
   1 -14  13    6.87    0.20
   3 -14  13   12.09    0.34
   5 -14  13    0.59    0.03
   7 -14  13    3.08    0.09
   7 -14  13    3.13    0.56
   9 -14  13    3.43    0.10
   9 -14  13    3.28    0.51
  14  13 -13    1.55    0.60
 -14 -13  13    1.83    0.06
  12  13 -13    3.23    0.50
 -12 -13  13    4.06    0.12
  10  13 -13    2.14    0.43
 -10 -13  13    2.66    0.08
   8  13 -13    1.07    0.44
  -8 -13  13    2.16    0.07
   6  13 -13    1.10    0.34
  -6 -13  13    1.31    0.05
   4  13 -13   11.04    0.70
  -4 -13  13   14.55    0.41
   2  13 -13    7.97    0.67
  -2 -13  13   10.83    0.31
   0 -13  13   47.36    1.32
   2 -13  13    9.78    0.28
   4 -13  13   12.72    0.36
   6 -13  13    1.27    0.04
   8 -13  13    1.56    0.45
   8 -13  13    1.95    0.06
  15  12 -13    0.93    0.59
  15  12 -13    0.70    0.60
 -15 -12  13    1.56    0.06
  13  12 -13    3.40    0.53
 -13 -12  13    3.76    0.11
  11  12 -13    4.38    0.59
 -11 -12  13    4.44    0.13
   9  12 -13    1.41    0.39
  -9 -12  13    1.24    0.04
   7  12 -13    0.69    0.39
  -7 -12  13    1.24    0.05
   5  12 -13   10.06    0.67
  -5 -12  13   13.37    0.38
   3  12 -13    2.53    0.42
  -3 -12  13    3.24    0.10
  -1 -12  13   40.41    1.13
   1 -12  13   38.41    1.07
   3 -12  13    3.11    0.09
   5 -12  13   12.91    0.36
   7 -12  13    1.08    0.04
   9 -12  13    1.06    0.37
   9 -12  13    1.40    0.05
 -15  12 -13    3.10    1.42
  16  11 -13    1.65    0.62
  16  11 -13    2.86    0.64
 -16 -11  13    1.94    0.07
  14  11 -13    4.75    0.68
  14  11 -13    3.85    0.65
 -14 -11  13    4.04    0.12
  12  11 -13    4.21    0.61
 -12 -11  13    4.16    0.12
  10  11 -13    2.07    0.50
 -10 -11  13    2.62    0.08
   8  11 -13    1.89    0.37
  -8 -11  13    2.29    0.07
   6  11 -13    6.13    0.51
  -6 -11  13    7.72    0.22
   4  11 -13    3.64    0.42
  -4 -11  13    4.48    0.13
   2  11 -13   42.22    1.43
  -2 -11  13   53.79    1.50
   0 -11  13    5.83    0.17
   2 -11  13   50.21    1.40
   4 -11  13    4.30    0.12
   6 -11  13    7.65    0.22
   8 -11  13    2.28    0.39
   8 -11  13    2.34    0.07
 -14  11 -13    4.85    1.39
 -16  11 -13    1.28    1.12
  17  10 -13    5.70    0.73
  17  10 -13    4.07    0.73
 -17 -10  13    5.96    0.17
  15  10 -13    7.21    0.85
  15  10 -13    7.87    0.88
 -15 -10  13    5.91    0.17
  13  10 -13    1.75    0.59
  13  10 -13    2.50    0.59
 -13 -10  13    2.25    0.07
  11  10 -13    2.23    0.53
 -11 -10  13    2.56    0.08
   9  10 -13    1.97    0.39
  -9 -10  13    1.61    0.05
   7  10 -13    2.86    0.44
  -7 -10  13    3.49    0.10
   5  10 -13    3.77    0.42
  -5 -10  13    3.97    0.11
   3  10 -13   33.90    1.19
  -3 -10  13   41.80    1.17
  -1 -10  13   10.59    0.30
   1 -10  13   10.10    0.28
   3 -10  13   39.02    1.09
   5 -10  13    4.04    0.12
   7 -10  13    3.49    0.10
   9 -10  13    1.84    0.06
   9 -10  13    2.12    0.34
 -13  10 -13    3.34    1.20
 -15  10 -13    6.66    1.26
 -17  10 -13    7.31    1.59
  16   9 -13    9.82    0.80
  16   9 -13   10.93    0.98
 -16  -9  13   10.59    0.30
  14   9 -13    2.87    0.63
  14   9 -13    2.62    0.51
 -14  -9  13    3.11    0.09
  12   9 -13    0.58    0.52
  12   9 -13    1.23    0.56
 -12  -9  13    1.17    0.04
  10   9 -13    1.79    0.49
 -10  -9  13    1.57    0.05
   8   9 -13    1.78    0.43
  -8  -9  13    1.34    0.05
   6   9 -13    5.90    0.56
  -6  -9  13    5.90    0.17
   4   9 -13   30.54    1.10
  -4  -9  13   34.23    0.96
   2   9 -13    9.10    0.59
  -2  -9  13    9.62    0.27
   0  -9  13   81.22    2.27
   2  -9  13    8.84    0.25
   4  -9  13   34.42    0.96
   6  -9  13    5.98    0.17
   8  -9  13    1.53    0.05
 -12   9 -13    0.32    0.98
 -14   9 -13    2.77    1.01
 -16   9 -13   12.50    1.87
  17   8 -13    7.03    0.80
  17   8 -13    6.91    0.89
 -17  -8  13    6.04    0.17
  15   8 -13    2.08    0.64
  15   8 -13    2.35    0.61
 -15  -8  13    2.57    0.08
  13   8 -13    1.73    0.49
  13   8 -13    1.78    0.55
 -13  -8  13    1.91    0.06
  11   8 -13    1.72    0.51
  11   8 -13    1.81    0.56
 -11  -8  13    1.94    0.06
   9   8 -13    1.60    0.46
  -9  -8  13    1.18    0.04
   7   8 -13    7.66    0.62
  -7  -8  13    7.96    0.22
   5   8 -13    9.86    0.55
  -5  -8  13   10.20    0.29
   3   8 -13   15.82    0.71
  -3  -8  13   18.73    0.52
   1   8 -13   39.19    1.30
  -1  -8  13   44.66    1.25
   1  -8  13   42.51    1.19
   3  -8  13   18.17    0.51
   5  -8  13   10.59    0.30
   7  -8  13    9.25    0.26
  -9   8 -13    2.25    0.88
   9  -8  13    1.75    0.27
 -11   8 -13    2.70    1.00
 -13   8 -13    1.96    1.06
 -15   8 -13    3.77    1.23
 -17   8 -13    7.60    1.33
  18   7 -13   11.92    1.06
  18   7 -13   10.74    0.98
 -18  -7  13    9.88    0.28
  16   7 -13    0.94    0.49
  16   7 -13    1.95    0.63
 -16  -7  13    0.93    0.04
  14   7 -13    3.28    0.59
  14   7 -13    2.64    0.62
 -14  -7  13    2.65    0.08
  12   7 -13    0.65    0.46
  12   7 -13    1.31    0.42
 -12  -7  13    0.88    0.04
  10   7 -13    3.34    0.51
  10   7 -13    3.67    0.60
 -10  -7  13    2.58    0.37
 -10  -7  13    3.20    0.09
   8   7 -13    8.83    0.66
  -8  -7  13    7.43    0.54
  -8  -7  13    7.56    0.21
   6   7 -13    1.72    0.39
  -6  -7  13    1.44    0.05
   4   7 -13   11.20    0.62
  -4  -7  13   11.41    0.32
   2   7 -13   22.65    0.84
  -2  -7  13   24.07    0.67
   0  -7  13    7.78    0.22
   2  -7  13   23.72    0.66
   4  -7  13   11.57    0.32
   6  -7  13    1.30    0.04
  -8   7 -13    9.38    1.24
   8  -7  13    9.69    0.27
 -10   7 -13    3.30    0.95
 -12   7 -13    0.93    0.93
 -14   7 -13    2.60    1.09
 -16   7 -13    0.83    1.14
  19   6 -13    4.58    0.71
  19   6 -13    4.12    0.77
 -19  -6  13    4.04    0.12
  17   6 -13    3.11    0.64
  17   6 -13    3.33    0.70
 -17  -6  13    2.86    0.09
  15   6 -13    3.50    0.66
  15   6 -13    3.81    0.62
 -15  -6  13    3.29    0.10
  13   6 -13    1.38    0.47
  13   6 -13    1.46    0.52
 -13  -6  13    1.00    0.04
  11   6 -13    7.66    0.62
  11   6 -13    8.26    0.72
 -11  -6  13    6.57    0.54
 -11  -6  13    6.69    0.19
   9   6 -13    6.73    0.65
   9   6 -13    6.61    0.67
  -9  -6  13    4.98    0.49
  -9  -6  13    5.22    0.15
   7   6 -13    1.10    0.40
  -7  -6  13    1.27    0.04
  -7  -6  13    1.35    0.27
   5   6 -13   13.31    0.66
  -5  -6  13   11.04    0.31
   3   6 -13   32.94    1.11
  -3  -6  13   33.40    0.93
   1   6 -13   19.92    0.78
  -5   6 -13   12.09    1.14
  -7   6 -13    1.81    0.81
   7  -6  13    1.46    0.05
  -9   6 -13    5.81    1.00
 -11   6 -13    7.80    1.15
 -13   6 -13    0.71    0.98
 -15   6 -13    3.65    1.15
 -19   6 -13    4.01    0.12
  18   5 -13    1.90    0.51
  18   5 -13    2.23    0.66
 -18  -5  13    1.60    0.05
  16   5 -13    2.05    0.62
  16   5 -13    2.13    0.50
 -16  -5  13    2.05    0.06
  14   5 -13   -0.15    0.55
  14   5 -13    0.60    0.51
 -14  -5  13    0.41    0.02
  12   5 -13   13.54    0.95
  12   5 -13   12.47    0.82
 -12  -5  13    9.73    0.62
 -12  -5  13   10.43    0.29
  10   5 -13    4.81    0.64
  10   5 -13    4.52    0.51
 -10  -5  13    3.02    0.36
 -10  -5  13    3.45    0.10
   8   5 -13   11.56    0.87
   8   5 -13   10.72    0.62
  -8  -5  13   10.42    0.55
  -8  -5  13    9.13    0.27
   6   5 -13   12.42    0.66
  -6  -5  13   11.55    0.56
  -6  -5  13   10.42    0.30
   4   5 -13   15.94    0.70
   4   5 -13   16.08    0.68
   2   5 -13    6.30    0.48
   0   5 -13    5.62    0.70
  -2   5 -13    6.05    0.81
  -4   5 -13   17.39    1.19
  -6   5 -13   11.72    1.05
  -8   5 -13   10.60    1.26
  -8   5 -13   11.12    0.62
 -10   5 -13    4.51    0.95
 -12   5 -13   11.09    1.23
 -14   5 -13    0.08    0.94
 -18   5 -13    1.69    0.05
  19   4 -13    3.32    0.64
 -19  -4  13    3.93    0.12
  17   4 -13    2.49    0.59
 -17  -4  13    1.70    0.06
  15   4 -13    1.20    0.54
  15   4 -13    0.91    0.48
 -15  -4  13    1.07    0.04
  13   4 -13   12.66    0.83
  13   4 -13   11.48    0.83
 -13  -4  13   10.10    0.28
  11   4 -13    4.42    0.51
  11   4 -13    3.69    0.52
 -11  -4  13    3.86    0.41
 -11  -4  13    3.33    0.10
   9   4 -13   34.84    1.25
   9   4 -13   33.96    1.35
  -9  -4  13   27.89    0.78
  -9  -4  13   28.10    1.00
   7   4 -13   12.79    0.69
   7   4 -13   12.96    0.89
  -7  -4  13   10.19    0.53
  -7  -4  13   10.14    0.28
   5   4 -13   16.75    0.71
  -5  -4  13   14.83    0.61
   3   4 -13    9.48    0.49
   1   4 -13    6.62    0.64
   1   4 -13    6.82    0.43
  -1   4 -13    6.48    0.72
  -3   4 -13    9.79    0.95
  -5   4 -13   17.76    1.24
  -7   4 -13   11.25    1.08
  -7   4 -13   11.63    0.56
  -9   4 -13   33.38    1.73
 -11   4 -13    3.68    0.82
 -17   4 -13    1.63    0.05
 -19   4 -13    3.38    0.10
  18   3 -13    2.65    0.61
 -18  -3  13    2.59    0.08
  16   3 -13    1.60    0.56
 -16  -3  13    1.38    0.05
  14   3 -13   11.55    0.83
 -14  -3  13    9.14    0.26
  12   3 -13    3.60    0.52
  12   3 -13    2.66    0.52
 -12  -3  13    2.48    0.36
 -12  -3  13    2.35    0.07
  10   3 -13   36.90    1.52
  10   3 -13   40.15    1.38
 -10  -3  13   31.28    0.89
 -10  -3  13   32.33    1.10
   8   3 -13   20.16    1.06
   8   3 -13   19.03    0.84
  -8  -3  13   15.21    0.65
  -8  -3  13   14.81    0.42
   6   3 -13   37.06    1.24
  -6  -3  13   29.05    0.96
   4   3 -13    9.99    0.56
  -4  -3  13    8.66    0.43
   2   3 -13   11.89    0.49
   0   3 -13   23.39    0.77
  -2   3 -13   12.25    1.00
  -4   3 -13   10.03    1.01
  -6   3 -13   33.24    1.58
  -6   3 -13   32.70    1.07
  -8   3 -13   17.22    1.25
  -8   3 -13   15.84    0.65
 -14   3 -13    9.63    0.27
 -16   3 -13    1.13    0.04
 -18   3 -13    2.40    0.07
  19   2 -13    3.06    0.62
 -19  -2  13    3.53    0.10
  17   2 -13    1.90    0.57
 -17  -2  13    1.88    0.06
  15   2 -13    7.09    0.65
 -15  -2  13    6.20    0.18
  13   2 -13    9.69    0.76
 -13  -2  13    6.83    0.49
 -13  -2  13    7.65    0.21
  11   2 -13   50.46    1.67
  11   2 -13   48.31    1.81
 -11  -2  13   38.98    1.08
 -11  -2  13   38.23    1.29
   9   2 -13   10.53    0.88
   9   2 -13   10.44    0.76
  -9  -2  13    7.22    0.21
  -9  -2  13    8.75    0.50
   7   2 -13   25.59    0.94
   7   2 -13   23.25    1.14
  -7  -2  13   20.21    0.74
   5   2 -13    6.87    0.52
  -5  -2  13    5.39    0.39
   3   2 -13   13.71    0.58
  -3  -2  13   11.73    0.49
   1   2 -13   29.88    0.94
  -5   2 -13    5.77    0.36
  -7   2 -13   21.92    0.78
  -9   2 -13    7.56    0.49
 -13   2 -13    8.15    0.23
 -15   2 -13    6.11    0.17
 -17   2 -13    1.54    0.05
 -19   2 -13    3.00    0.09
  20   1 -13    4.40    0.67
 -20  -1  13    5.00    0.14
  18   1 -13    5.65    0.67
 -18  -1  13    3.95    0.11
  16   1 -13    6.74    0.77
 -16  -1  13    5.50    0.16
  14   1 -13    5.88    0.70
 -14  -1  13    5.16    0.15
  12   1 -13   35.77    1.31
  12   1 -13   34.33    1.37
 -12  -1  13   25.98    1.00
 -12  -1  13   27.52    0.75
  10   1 -13   10.12    0.89
  10   1 -13   10.87    0.78
 -10  -1  13    8.94    0.55
 -10  -1  13    7.91    0.23
   8   1 -13   40.38    1.56
   8   1 -13   46.36    1.48
  -8  -1  13   34.87    1.11
  -8  -1  13   32.95    0.95
   6   1 -13   24.96    1.09
   6   1 -13   23.05    0.87
  -6  -1  13   17.52    0.64
   4   1 -13    7.55    0.46
  -4  -1  13    5.99    0.35
   0   1 -13   70.68    2.03
  -4   1 -13    6.75    0.33
  -6   1 -13   20.63    0.71
  -8   1 -13   37.18    1.04
  -8   1 -13   37.05    1.18
 -10   1 -13    8.16    0.50
 -10   1 -13    8.45    0.23
 -12   1 -13   29.56    0.83
 -14   1 -13    5.16    0.15
 -16   1 -13    5.07    0.14
 -18   1 -13    4.12    0.12
 -20   1 -13    4.12    0.12
  19   0 -13    1.17    0.49
 -19   0  13    0.83    0.04
  17   0 -13    2.75    0.57
 -17   0  13    2.41    0.07
  15   0 -13   10.28    0.79
 -15   0  13    8.38    0.24
  13   0 -13   42.08    1.49
 -13   0  13   34.07    1.23
 -13   0  13   35.56    0.98
  11   0 -13    6.52    0.64
  11   0 -13    4.67    0.63
 -11   0  13    4.54    0.50
 -11   0  13    4.64    0.13
   9   0 -13   78.85    2.51
   9   0 -13   74.91    2.35
  -9   0  13   58.98    1.80
  -9   0  13   57.67    1.63
   7   0 -13    7.04    0.53
   7   0 -13    7.79    0.77
  -7   0  13    5.00    0.40
   5   0 -13    5.80    0.45
  -5   0  13    4.36    0.31
   3   0 -13   22.60    0.73
  -3   0  13   20.30    0.65
   1   0 -13   76.22    2.18
  -1   0 -13   73.07    2.07
  -3   0 -13   22.73    0.69
  -5   0 -13    4.65    0.28
  -7   0 -13    5.40    0.34
  -7   0 -13    5.61    0.16
   7   0  13    7.83    0.43
  -9   0 -13   61.51    1.70
  -9   0 -13   60.20    1.83
 -11   0 -13    4.78    0.14
 -13   0 -13   34.74    0.97
 -15   0 -13    7.86    0.22
 -17   0 -13    2.12    0.06
 -19   0 -13    0.87    0.04
  20  -1 -13    4.93    0.61
 -20   1  13    4.68    0.14
  18  -1 -13    4.88    0.64
 -18   1  13    4.34    0.13
  16  -1 -13    5.71    0.73
 -16   1  13    5.40    0.15
  14  -1 -13    5.92    0.68
 -14   1  13    4.95    0.58
 -14   1  13    5.35    0.15
  12  -1 -13   33.83    1.25
 -12   1  13   29.03    0.80
 -12   1  13   28.42    1.07
  10  -1 -13    9.98    0.85
  10  -1 -13   10.35    0.67
 -10   1  13    8.39    0.24
 -10   1  13    8.93    0.56
 -10   1  13    8.15    0.54
   8  -1 -13   43.29    1.38
   8  -1 -13   40.54    1.56
  -8   1  13   37.40    1.21
   6  -1 -13   23.69    0.88
   6  -1 -13   25.91    1.03
  -6   1  13   19.90    0.72
   4  -1 -13    7.75    0.43
  -4   1  13    6.28    0.33
   2  -1 -13   30.95    0.93
  -2   1  13   25.33    0.77
  -4  -1 -13    7.41    0.30
  -6  -1 -13   20.04    0.66
  -8  -1 -13   37.90    1.17
  -8  -1 -13   36.25    1.03
 -10  -1 -13    8.61    0.49
 -10  -1 -13    8.58    0.24
 -12  -1 -13   28.23    0.79
 -14  -1 -13    5.32    0.15
 -16  -1 -13    5.15    0.15
 -18  -1 -13    3.65    0.11
 -20  -1 -13    4.37    0.13
  19  -2 -13    2.91    0.53
 -19   2  13    3.21    0.10
  17  -2 -13    1.59    0.45
 -17   2  13    1.56    0.05
  15  -2 -13    7.32    0.72
 -15   2  13    6.61    0.19
  13  -2 -13    9.39    0.70
 -13   2  13    8.35    0.62
 -13   2  13    8.50    0.23
 -13   2  13    6.92    0.64
  11  -2 -13   46.79    1.56
 -11   2  13   42.72    1.44
 -11   2  13   44.03    1.21
   9  -2 -13   10.14    0.67
   9  -2 -13    9.18    0.81
  -9   2  13    7.93    0.23
  -9   2  13    8.66    0.54
   7  -2 -13   24.99    0.89
   7  -2 -13   22.34    1.00
  -7   2  13   22.76    0.81
   5  -2 -13    6.53    0.41
  -5   2  13    5.94    0.38
  -3   2  13   10.72    0.41
  -1   2  13   24.58    0.73
  -5  -2 -13    5.34    0.27
  -7  -2 -13   22.57    0.75
  -9  -2 -13    8.04    0.23
  -9  -2 -13    8.31    0.47
 -11  -2 -13   40.93    1.14
 -13  -2 -13    7.79    0.22
 -15  -2 -13    5.97    0.17
 -17  -2 -13    1.55    0.05
 -19  -2 -13    2.83    0.08
 -18   3  13    2.84    0.09
  16  -3 -13    1.45    0.51
 -16   3  13    0.66    0.51
 -16   3  13    1.24    0.05
  14  -3 -13   10.02    0.73
 -14   3  13   10.27    0.28
 -14   3  13    9.27    0.68
 -14   3  13    9.82    0.80
  12  -3 -13    2.93    0.44
 -12   3  13    2.16    0.38
 -12   3  13    2.50    0.07
  10  -3 -13   40.33    1.35
  10  -3 -13   36.98    1.47
 -10   3  13   36.70    1.25
   8  -3 -13   18.65    0.76
   8  -3 -13   19.09    0.95
  -8   3  13   17.65    0.75
   6  -3 -13   37.78    1.36
   6  -3 -13   35.85    1.17
  -6   3  13   33.92    1.08
  -4   3  13    9.51    0.42
  -2   3  13   11.38    0.41
  -6  -3 -13   33.79    1.02
   6   3  13   39.64    1.21
  -8  -3 -13   17.01    0.62
  -8  -3 -13   15.95    0.46
   8   3  13   18.85    0.73
 -10  -3 -13   33.42    1.09
 -10  -3 -13   34.21    0.95
  10   3  13   39.21    1.26
 -12  -3 -13    2.63    0.08
  12   3  13    2.63    0.40
 -14  -3 -13    9.14    0.26
  14   3  13   10.47    0.64
 -16  -3 -13    1.24    0.04
  16   3  13    1.26    0.41
 -18  -3 -13    2.67    0.08
 -19   4  13    3.67    0.11
 -17   4  13    1.41    0.56
 -17   4  13    1.42    0.05
 -15   4  13    1.10    0.04
 -15   4  13    1.10    0.51
 -13   4  13   11.34    0.32
 -13   4  13   11.13    0.69
 -11   4  13    3.37    0.40
   9  -4 -13   35.30    1.37
  -9   4  13   33.45    1.15
   7  -4 -13   12.24    0.77
  -7   4  13   12.43    0.58
  -5   4  13   16.55    0.64
  -3   4  13   10.25    0.43
  -1   4  13    7.43    0.30
   5   4  13   16.64    0.57
  -7  -4 -13   12.65    0.50
   7   4  13   12.84    0.54
  -9  -4 -13   30.85    1.01
  -9  -4 -13   30.87    0.86
   9   4  13   34.46    1.12
 -11  -4 -13    3.54    0.10
  11   4  13    3.97    0.48
 -13  -4 -13   10.96    0.31
  13   4  13   11.66    0.62
 -15  -4 -13    1.14    0.04
  15   4  13    0.81    0.38
 -17  -4 -13    1.64    0.05
  17   4  13    2.00    0.50
 -19  -4 -13    3.70    0.11
  19   4  13    3.86    0.52
 -18   5  13    1.40    0.81
 -18   5  13    1.49    0.05
 -16   5  13    2.18    0.68
 -16   5  13    2.30    0.07
 -14   5  13    0.46    0.37
 -12   5  13   11.87    0.75
  10  -5 -13    4.61    0.55
 -10   5  13    3.71    0.40
   8  -5 -13   10.83    0.73
  -8   5  13   11.43    0.61
   6  -5 -13   12.48    0.74
  -6   5  13   13.07    0.58
  -4   5  13   18.17    0.67
  -2   5  13    6.91    0.35
   0   5  13    6.33    0.29
   4   5  13   15.56    0.51
   6   5  13   12.47    0.50
  -8  -5 -13   10.82    0.48
  -8  -5 -13   10.45    0.30
   8   5  13   11.27    0.51
 -10  -5 -13    3.85    0.42
 -10  -5 -13    3.70    0.11
  10   5  13    4.18    0.45
 -12  -5 -13   10.87    0.30
  12   5  13   11.19    0.63
 -14  -5 -13    0.50    0.02
  14   5  13    0.16    0.39
 -16  -5 -13    2.35    0.07
  16   5  13    2.61    0.43
 -18  -5 -13    1.65    0.05
  18   5  13    1.66    0.45
 -19   6  13    4.06    0.12
 -17   6  13    2.83    0.72
 -17   6  13    3.10    0.09
 -13   6  13    1.08    0.39
 -11   6  13    7.47    0.60
   9  -6 -13    6.89    0.67
  -9   6  13    5.95    0.53
   7  -6 -13    1.59    0.41
  -7   6  13    1.65    0.36
  -5   6  13   14.76    0.65
  -3   6  13   39.83    1.24
  -1   6  13   24.58    0.78
   3   6  13   29.56    0.87
   5   6  13   11.09    0.43
   7   6  13    1.48    0.25
  -9  -6 -13    6.21    0.40
  -9  -6 -13    6.05    0.17
   9   6  13    5.37    0.42
 -11  -6 -13    7.46    0.21
  11   6  13    7.37    0.52
 -13  -6 -13    1.11    0.04
  13   6  13    1.03    0.39
 -15  -6 -13    3.41    0.10
  15   6  13    3.89    0.49
 -17  -6 -13    2.79    0.08
  17   6  13    2.91    0.45
 -19  -6 -13    3.79    0.11
  19   6  13    3.81    0.52
 -18   7  13   10.50    0.30
 -14   7  13    2.62    0.53
 -12   7  13    0.62    0.37
  10  -7 -13    3.38    0.48
 -10   7  13    3.34    0.40
   8  -7 -13    8.75    0.64
  -8   7  13    9.17    0.58
   6  -7 -13    1.73    0.39
  -6   7  13    1.51    0.30
  -4   7  13   13.09    0.59
  -2   7  13   26.22    0.86
   2   7  13   21.63    0.68
   4   7  13    9.87    0.39
   6   7  13    1.45    0.22
  -8  -7 -13    9.60    0.27
   8   7  13    7.58    0.42
 -10  -7 -13    3.74    0.11
  10   7  13    3.43    0.42
 -12  -7 -13    1.05    0.04
  12   7  13    0.85    0.35
 -14  -7 -13    2.74    0.08
  14   7  13    2.80    0.45
 -16  -7 -13    1.00    0.04
  16   7  13    0.69    0.40
 -18  -7 -13    9.14    0.26
  18   7  13   10.02    0.78
 -13   8  13    1.86    0.41
 -11   8  13    2.44    0.40
   9  -8 -13    1.55    0.39
  -9   8  13    1.71    0.36
   7  -8 -13    8.81    0.66
  -7   8  13    9.75    0.62
  -5   8  13   11.26    0.59
  -3   8  13   19.04    0.71
   3   8  13   16.23    0.57
   5   8  13    9.23    0.41
  -7  -8 -13    9.33    0.26
   7   8  13    7.57    0.40
  -9  -8 -13    1.71    0.05
   9   8  13    1.58    0.28
 -11  -8 -13    2.24    0.07
  11   8  13    1.65    0.30
 -13  -8 -13    2.14    0.06
  13   8  13    1.92    0.36
 -15  -8 -13    2.85    0.08
  15   8  13    2.77    0.48
 -17  -8 -13    6.04    0.17
  17   8  13    5.27    0.62
 -12   9  13    1.15    0.39
  10  -9 -13    1.93    0.42
 -10   9  13    1.82    0.38
   8  -9 -13    2.17    0.37
  -8   9  13    1.68    0.34
  -6   9  13    5.57    0.52
  -4   9  13   34.72    1.15
   2   9  13    9.38    0.45
   4   9  13   27.93    0.88
  -6  -9 -13    5.99    0.17
   6   9  13    5.44    0.38
  -8  -9 -13    1.66    0.05
   8   9  13    1.19    0.25
 -10  -9 -13    2.02    0.06
  10   9  13    1.69    0.28
 -12  -9 -13    1.32    0.04
  12   9  13    1.49    0.32
 -14  -9 -13    3.32    0.10
  14   9  13    2.68    0.41
 -16  -9 -13   11.24    0.32
  16   9  13   10.61    0.76
  11 -10 -13    2.13    0.45
 -11  10  13    2.33    0.45
   9 -10 -13    2.11    0.37
  -9  10  13    1.80    0.40
   7 -10 -13    3.71    0.42
  -7  10  13    3.20    0.39
  -5  10  13    4.03    0.48
   3  10  13   35.80    1.11
  -5 -10 -13    3.83    0.11
   5  10  13    3.13    0.32
  -7 -10 -13    3.73    0.11
   7  10  13    3.19    0.35
  -9 -10 -13    1.90    0.06
   9  10  13    1.80    0.30
 -11 -10 -13    2.97    0.09
  11  10  13    2.29    0.36
 -13 -10 -13    2.38    0.07
  13  10  13    2.24    0.42
 -15 -10 -13    6.46    0.18
  15  10  13    5.25    0.57
 -17 -10 -13    6.01    0.17
  17  10  13    5.39    0.62
  12 -11 -13    3.61    0.50
  10 -11 -13    2.58    0.44
 -10  11  13    2.24    0.39
   8 -11 -13    2.50    0.40
  -8  11  13    1.99    0.35
  -6  11  13    7.42    0.57
  -4 -11 -13    3.70    0.10
   4  11  13    3.65    0.41
  -6 -11 -13    7.76    0.22
   6  11  13    6.45    0.41
  -8 -11 -13    2.38    0.07
   8  11  13    1.90    0.30
 -10 -11 -13    3.12    0.09
  10  11  13    2.44    0.35
 -12 -11 -13    5.12    0.15
  12  11  13    3.61    0.46
 -14 -11 -13    4.38    0.13
  14  11  13    3.67    0.47
 -16 -11 -13    1.83    0.06
  16  11  13    0.94    0.42
  11 -12 -13    3.41    0.50
   9 -12 -13    1.28    0.37
  -9  12  13    1.21    0.34
  -7  12  13    0.92    0.37
   3  12  13    2.92    0.32
  -5 -12 -13   12.25    0.34
   5  12  13   11.05    0.53
  -7 -12 -13    1.11    0.04
   7  12  13    1.04    0.29
  -9 -12 -13    1.36    0.04
   9  12  13    1.44    0.32
 -11 -12 -13    4.74    0.13
  11  12  13    3.70    0.45
 -13 -12 -13    4.59    0.13
  13  12  13    3.07    0.44
 -15 -12 -13    1.92    0.06
  15  12  13    1.65    0.41
  12 -13 -13    3.67    0.47
  10 -13 -13    1.90    0.40
  -8  13  13    1.47    0.38
  -4 -13 -13   12.03    0.34
   4  13  13   11.68    0.58
  -6 -13 -13    1.39    0.04
   6  13  13    0.83    0.26
  -8 -13 -13    2.23    0.07
   8  13  13    2.21    0.34
 -10 -13 -13    2.78    0.08
  10  13  13    2.30    0.34
 -12 -13 -13    4.42    0.13
  12  13  13    3.27    0.39
 -14 -13 -13    2.45    0.07
  14  13  13    1.41    0.40
  13 -14 -13    1.71    0.49
  11 -14 -13    4.41    0.46
   9 -14 -13    2.78    0.37
   3  14  13   10.12    0.57
  -5 -14 -13    0.51    0.02
   5  14  13    0.25    0.31
  -7 -14 -13    3.06    0.09
   7  14  13    2.91    0.37
  -9 -14 -13    3.74    0.11
   9  14  13    3.28    0.37
 -11 -14 -13    4.83    0.14
  11  14  13    3.07    0.44
 -13 -14 -13    2.22    0.07
  13  14  13    1.99    0.44
  12 -15 -13    1.80    0.48
  -4 -15 -13    1.25    0.04
   4  15  13    1.09    0.35
  -6 -15 -13    4.20    0.12
   6  15  13    3.50    0.39
  -8 -15 -13    3.37    0.10
   8  15  13    2.88    0.40
 -10 -15 -13    7.36    0.21
  10  15  13    6.18    0.59
 -12 -15 -13    1.73    0.06
  12  15  13    1.20    0.43
  -3 -16 -13    1.32    0.04
   3  16  13    1.21    0.38
  -5 -16 -13    2.71    0.08
   5  16  13    2.58    0.37
  -7 -16 -13    1.21    0.04
   7  16  13    0.81    0.33
  -9 -16 -13   13.26    0.37
   9  16  13    9.35    0.61
 -11 -16 -13    1.70    0.05
  11  16  13    1.20    0.44
   2  17  13    1.65    0.36
  -4 -17 -13    1.73    0.05
   4  17  13    2.52    0.42
  -6 -17 -13    3.18    0.09
   6  17  13    2.48    0.38
  -8 -17 -13    7.56    0.21
   8  17  13    5.87    0.61
 -10 -17 -13    6.92    0.20
  10  17  13    5.56    0.57
   3  18  13    2.78    0.40
  -5 -18 -13    2.02    0.06
   5  18  13    1.90    0.43
  -7 -18 -13   12.13    0.34
   7  18  13    8.52    0.61
   2  19  13    3.02    0.44
  -4 -19 -13    4.03    0.12
   4  19  13    3.89    0.45
  -6 -19 -13    4.89    0.14
   6  19  13    3.93    0.50
   5  19 -14    5.35    0.62
  -5 -19  14    8.96    0.25
   3  19 -14    4.02    0.61
  -3 -19  14    5.53    0.16
   1  19 -14    6.17    0.70
  -1 -19  14    6.94    0.20
   1 -19  14    7.13    0.20
   3 -19  14    5.36    0.15
   5 -19  14    8.68    0.25
   5 -19  14    9.37    1.06
   8  18 -14    0.07    0.47
  -8 -18  14    0.64    0.04
   6  18 -14    3.89    0.49
  -6 -18  14    6.20    0.18
   4  18 -14    1.25    0.51
  -4 -18  14    2.00    0.07
   2  18 -14    3.69    0.59
  -2 -18  14    5.11    0.15
   0 -18  14    7.78    0.22
   2 -18  14    4.83    0.14
   4 -18  14    1.85    0.06
   6 -18  14    5.12    0.77
   6 -18  14    6.24    0.18
   8 -18  14    0.61    0.03
   8 -18  14    1.18    0.63
   9  17 -14    3.13    0.54
  -9 -17  14    5.47    0.16
   7  17 -14    1.84    0.42
  -7 -17  14    2.90    0.09
   5  17 -14    2.11    0.42
  -5 -17  14    2.47    0.08
   3  17 -14    2.76    0.46
  -3 -17  14    3.77    0.11
   1  17 -14    2.95    0.57
  -1 -17  14    3.95    0.12
   1 -17  14    3.80    0.11
   3 -17  14    3.72    0.11
   5 -17  14    1.97    0.07
   7 -17  14    2.42    0.08
   7 -17  14    3.09    0.61
   9 -17  14    5.15    0.15
   9 -17  14    5.93    0.69
  10  16 -14    0.83    0.41
 -10 -16  14    0.17    0.03
   8  16 -14    3.45    0.45
  -8 -16  14    5.98    0.17
   6  16 -14    0.81    0.46
  -6 -16  14    1.00    0.04
   4  16 -14    0.77    0.38
  -4 -16  14    1.24    0.05
   2  16 -14    5.45    0.59
  -2 -16  14    7.12    0.20
   0 -16  14    8.56    0.24
   2 -16  14    6.85    0.20
   4 -16  14    1.05    0.04
   6 -16  14    0.88    0.04
   8 -16  14    5.90    0.68
   8 -16  14    5.73    0.16
  10 -16  14    0.41    0.03
  11  15 -14    1.30    0.52
 -11 -15  14    1.42    0.06
   9  15 -14    3.45    0.53
  -9 -15  14    4.18    0.12
   7  15 -14    2.30    0.47
  -7 -15  14    3.93    0.12
   5  15 -14    0.85    0.43
  -5 -15  14    0.37    0.03
   3  15 -14    1.84    0.47
  -3 -15  14    2.25    0.07
   1  15 -14    7.20    0.73
  -1 -15  14    9.84    0.28
   1 -15  14    9.50    0.27
   3 -15  14    1.81    0.06
   5 -15  14    0.62    0.03
   7 -15  14    3.57    0.10
   7 -15  14    3.55    0.61
   9 -15  14    4.18    0.56
   9 -15  14    4.00    0.12
  12  14 -14    1.96    0.56
 -12 -14  14    2.18    0.07
  10  14 -14    3.20    0.54
 -10 -14  14    4.31    0.13
   8  14 -14    2.17    0.47
  -8 -14  14    3.52    0.10
   6  14 -14    0.50    0.34
  -6 -14  14    0.45    0.03
   4  14 -14    1.59    0.43
  -4 -14  14    2.06    0.07
   2  14 -14    9.48    0.72
  -2 -14  14   14.55    0.41
   0 -14  14    7.00    0.20
   2 -14  14   13.44    0.38
   4 -14  14    2.04    0.06
   6 -14  14    0.36    0.03
   8 -14  14    3.53    0.54
   8 -14  14    3.13    0.09
  10 -14  14    3.97    0.12
  13  13 -14    2.51    0.51
 -13 -13  14    2.61    0.08
  11  13 -14    1.81    0.53
 -11 -13  14    2.30    0.07
   9  13 -14    4.26    0.54
  -9 -13  14    5.10    0.15
   7  13 -14    0.64    0.34
  -7 -13  14    0.93    0.04
   5  13 -14    1.92    0.43
  -5 -13  14    3.16    0.09
   3  13 -14   14.19    0.77
  -3 -13  14   18.41    0.52
  -1 -13  14   15.47    0.43
   1 -13  14   15.06    0.42
   3 -13  14   17.50    0.49
   5 -13  14    3.05    0.09
   7 -13  14    0.99    0.04
   9 -13  14    3.93    0.49
   9 -13  14    4.90    0.14
  14  12 -14    1.99    0.61
 -14 -12  14    2.23    0.07
  12  12 -14    3.28    0.59
 -12 -12  14    3.92    0.12
  10  12 -14    8.00    0.75
 -10 -12  14    9.09    0.26
   8  12 -14    1.75    0.45
  -8 -12  14    1.69    0.06
   6  12 -14    1.23    0.40
  -6 -12  14    1.91    0.06
   4  12 -14   16.14    0.79
  -4 -12  14   21.42    0.60
   2  12 -14    2.13    0.43
  -2 -12  14    2.71    0.08
   0 -12  14   46.10    1.29
   2 -12  14    2.44    0.07
   4 -12  14   19.42    0.54
   6 -12  14    1.75    0.06
   8 -12  14    1.59    0.05
   8 -12  14    1.86    0.45
 -14  12 -14    0.78    1.28
  15  11 -14    1.06    0.60
  15  11 -14    0.35    0.49
 -15 -11  14    1.32    0.05
  13  11 -14    1.71    0.49
 -13 -11  14    2.04    0.07
  11  11 -14   11.77    0.85
 -11 -11  14   12.54    0.35
   9  11 -14    2.59    0.42
  -9 -11  14    3.46    0.10
   7  11 -14    4.56    0.58
   5  11 -14   13.89    0.73
  -5 -11  14   16.92    0.47
   3  11 -14    6.67    0.58
  -3 -11  14    8.26    0.23
   1  11 -14   33.58    1.21
  -1 -11  14   44.65    1.25
   1 -11  14   43.98    1.23
   3 -11  14    7.74    0.22
   5 -11  14   15.94    0.45
   7 -11  14    4.94    0.14
   9 -11  14    3.56    0.10
   9 -11  14    3.44    0.41
 -13  11 -14    2.04    1.03
 -15  11 -14    1.93    1.29
  16  10 -14   -0.49    0.59
  16  10 -14    1.02    0.52
 -16 -10  14    0.29    0.03
  14  10 -14    4.98    0.69
  14  10 -14    3.68    0.64
 -14 -10  14    3.72    0.11
  12  10 -14    7.78    0.70
 -12 -10  14    8.45    0.24
  10  10 -14    2.10    0.43
 -10 -10  14    2.38    0.07
   8  10 -14    4.52    0.50
  -8 -10  14    5.01    0.14
   6  10 -14    9.76    0.64
  -6 -10  14   11.86    0.33
   4  10 -14    2.67    0.40
  -4 -10  14    3.55    0.10
   2  10 -14   35.39    1.20
  -2 -10  14   45.74    1.28
   0 -10  14    1.41    0.05
   2 -10  14   42.88    1.20
   4 -10  14    3.73    0.11
   6 -10  14   11.57    0.32
   8 -10  14    5.44    0.15
 -12  10 -14    7.79    1.34
 -14  10 -14    4.33    1.29
 -16  10 -14    0.64    1.05
  17   9 -14    3.49    0.68
  17   9 -14    3.55    0.74
 -17  -9  14    4.32    0.13
  15   9 -14    4.30    0.69
  15   9 -14    4.59    0.66
 -15  -9  14    3.53    0.10
  13   9 -14    4.98    0.64
  13   9 -14    5.66    0.70
 -13  -9  14    4.20    0.12
  11   9 -14    3.47    0.48
 -11  -9  14    3.04    0.09
   9   9 -14    4.22    0.51
  -9  -9  14    4.78    0.14
   7   9 -14    6.10    0.59
  -7  -9  14    6.37    0.18
   5   9 -14    3.87    0.44
  -5  -9  14    4.19    0.12
   3   9 -14   37.69    1.27
  -3  -9  14   46.59    1.30
   1   9 -14    8.03    0.58
  -1  -9  14    8.33    0.23
   1  -9  14    8.12    0.23
   3  -9  14   44.48    1.24
   5  -9  14    4.12    0.12
   7  -9  14    6.87    0.19
   9  -9  14    5.41    0.15
   9  -9  14    4.86    0.44
 -11   9 -14    2.45    1.05
 -13   9 -14    4.93    1.08
 -15   9 -14    3.83    1.10
 -17   9 -14    5.18    1.25
  18   8 -14    0.62    0.66
  18   8 -14   -0.28    0.62
 -18  -8  14    0.39    0.03
  16   8 -14    5.05    0.73
  16   8 -14    5.19    0.69
 -16  -8  14    4.53    0.13
  14   8 -14    2.76    0.60
  14   8 -14    2.41    0.65
 -14  -8  14    2.62    0.08
  12   8 -14    1.79    0.59
  12   8 -14    1.79    0.45
 -12  -8  14    1.56    0.05
  10   8 -14    5.33    0.56
 -10  -8  14    4.65    0.13
   8   8 -14    1.16    0.42
  -8  -8  14    0.53    0.02
   6   8 -14    4.00    0.43
  -6  -8  14    3.60    0.10
   4   8 -14   24.82    0.95
  -4  -8  14   27.29    0.76
   2   8 -14    5.67    0.50
  -2  -8  14    5.99    0.17
   0  -8  14   86.87    2.43
   2  -8  14    5.65    0.16
   4  -8  14   27.00    0.76
   6  -8  14    4.09    0.12
  -8   8 -14    0.35    0.78
   8  -8  14    0.73    0.03
 -10   8 -14    5.67    1.08
 -12   8 -14    2.21    1.01
 -14   8 -14    3.48    1.18
 -16   8 -14    4.75    1.37
 -18   8 -14    0.00    1.28
  17   7 -14    2.30    0.64
  17   7 -14    1.73    0.66
 -17  -7  14    1.99    0.06
  15   7 -14    3.43    0.67
  15   7 -14    4.15    0.56
 -15  -7  14    3.08    0.09
  13   7 -14    0.93    0.58
  13   7 -14    0.77    0.52
 -13  -7  14    0.79    0.03
  11   7 -14    4.67    0.56
  11   7 -14    5.13    0.65
 -11  -7  14    4.22    0.12
   9   7 -14    6.26    0.64
  -9  -7  14    5.91    0.17
  -9  -7  14    6.28    0.52
   7   7 -14    5.55    0.58
  -7  -7  14    5.25    0.15
   5   7 -14    5.94    0.54
  -5  -7  14    6.02    0.17
   3   7 -14    6.08    0.50
  -3  -7  14    7.09    0.20
   1   7 -14   20.94    0.80
  -1  -7  14   23.32    0.65
   1  -7  14   23.51    0.66
   3  -7  14    7.04    0.20
   5  -7  14    6.27    0.18
  -7   7 -14    6.69    0.99
   7  -7  14    6.66    0.19
  -9   7 -14    6.73    1.05
   9  -7  14    7.03    0.38
 -11   7 -14    4.67    1.06
 -13   7 -14    1.77    1.02
 -15   7 -14    3.28    1.18
  18   6 -14    4.60    0.61
  18   6 -14    3.34    0.63
 -18  -6  14    4.95    0.14
  16   6 -14    0.97    0.51
  16   6 -14    1.21    0.59
 -16  -6  14    0.57    0.03
  14   6 -14    0.11    0.52
  14   6 -14    0.52    0.57
 -14  -6  14    0.25    0.02
  12   6 -14    1.78    0.51
  12   6 -14    1.88    0.59
 -12  -6  14    1.32    0.05
  10   6 -14   11.84    0.83
  10   6 -14   12.36    0.77
 -10  -6  14   10.15    0.28
 -10  -6  14    9.37    0.53
   8   6 -14    4.51    0.48
  -8  -6  14    3.50    0.10
  -8  -6  14    3.14    0.35
   6   6 -14    0.98    0.36
  -6  -6  14    0.77    0.03
   4   6 -14    9.09    0.55
  -4  -6  14    7.97    0.22
   2   6 -14   27.47    0.95
  -4   6 -14    9.18    1.04
  -6   6 -14    0.77    0.73
   6  -6  14    0.87    0.03
  -8   6 -14    3.99    0.91
   8  -6  14    4.33    0.12
 -10   6 -14   10.82    1.20
 -12   6 -14    1.82    0.96
 -14   6 -14   -0.05    1.00
  19   5 -14    7.07    0.85
  19   5 -14    5.90    0.73
 -19  -5  14    6.85    0.19
  17   5 -14    2.05    0.58
  17   5 -14    2.14    0.62
 -17  -5  14    1.70    0.06
  15   5 -14    0.03    0.55
  15   5 -14    0.78    0.60
 -15  -5  14    0.13    0.02
  13   5 -14    2.77    0.54
  13   5 -14    1.92    0.61
 -13  -5  14    2.34    0.07
  11   5 -14   15.47    0.86
  11   5 -14   18.19    1.05
 -11  -5  14   13.19    0.67
 -11  -5  14   13.45    0.37
   9   5 -14    4.19    0.49
   9   5 -14    4.82    0.57
  -9  -5  14    3.74    0.11
  -9  -5  14    3.51    0.45
   7   5 -14    7.13    0.59
  -7  -5  14    5.39    0.15
  -7  -5  14    5.13    0.45
   5   5 -14   22.37    0.86
  -5  -5  14   18.56    0.52
   3   5 -14    4.11    0.42
   3   5 -14    4.50    0.54
   1   5 -14    6.65    0.73
   1   5 -14    5.59    0.41
  -1   5 -14    6.51    0.84
  -3   5 -14    3.38    0.66
  -5   5 -14   22.42    1.38
  -7   5 -14    5.35    0.95
  -9   5 -14    3.51    0.79
 -11   5 -14   14.83    1.47
 -13   5 -14    3.94    1.06
 -17   5 -14    1.83    0.06
 -19   5 -14    6.16    0.17
  18   4 -14    1.16    0.67
  18   4 -14    1.25    0.60
 -18  -4  14    1.54    0.05
  16   4 -14    1.11    0.60
  16   4 -14    0.72    0.45
 -16  -4  14    0.83    0.03
  14   4 -14    1.30    0.44
  14   4 -14    1.42    0.60
 -14  -4  14    1.40    0.05
  12   4 -14   19.52    0.97
  12   4 -14   21.09    1.13
 -12  -4  14   14.84    0.72
 -12  -4  14   15.73    0.43
  10   4 -14    3.87    0.48
  10   4 -14    3.48    0.62
 -10  -4  14    2.78    0.35
 -10  -4  14    2.87    0.08
   8   4 -14   29.62    1.23
   8   4 -14   29.59    1.11
  -8  -4  14   22.37    0.64
  -8  -4  14   23.59    0.85
   6   4 -14    9.39    0.59
  -6  -4  14    7.17    0.21
  -6  -4  14    7.78    0.46
   4   4 -14    8.54    0.56
   2   4 -14   21.73    0.79
   0   4 -14    1.52    0.50
   0   4 -14    1.96    0.26
  -2   4 -14   20.60    1.15
  -4   4 -14    7.72    0.99
  -6   4 -14    9.01    1.13
  -8   4 -14   27.16    1.62
  -8   4 -14   24.16    0.89
 -10   4 -14    3.40    0.92
 -16   4 -14    0.77    0.03
 -18   4 -14    1.31    0.05
  19   3 -14    3.74    0.56
  19   3 -14    4.16    0.76
 -19  -3  14    4.38    0.13
  17   3 -14    3.11    0.61
  17   3 -14    3.36    0.57
 -17  -3  14    3.11    0.09
  15   3 -14    1.56    0.45
  15   3 -14    1.92    0.52
 -15  -3  14    1.68    0.05
  13   3 -14   16.91    0.90
  13   3 -14   15.37    0.92
 -13  -3  14   11.91    0.66
 -13  -3  14   13.68    0.37
  11   3 -14    8.66    0.69
  11   3 -14    7.85    0.74
 -11  -3  14    6.29    0.18
 -11  -3  14    6.25    0.51
   9   3 -14   45.38    1.53
   9   3 -14   45.89    1.72
  -9  -3  14   34.90    1.17
  -9  -3  14   35.05    0.98
   7   3 -14    8.52    0.65
  -7  -3  14    5.70    0.16
  -7  -3  14    6.17    0.47
   5   3 -14    4.46    0.52
  -5  -3  14    3.62    0.35
   3   3 -14    5.60    0.40
   1   3 -14    5.75    0.39
  -1   3 -14    5.98    0.36
  -7   3 -14    6.10    0.40
  -9   3 -14   37.46    1.23
 -15   3 -14    1.69    0.05
 -17   3 -14    2.46    0.07
 -19   3 -14    3.78    0.11
  18   2 -14    3.38    0.62
 -18  -2  14    3.83    0.11
  16   2 -14    5.25    0.62
  16   2 -14    5.57    0.72
 -16  -2  14    4.72    0.14
  14   2 -14   12.00    0.85
  14   2 -14   12.03    0.82
 -14  -2  14   10.12    0.28
  12   2 -14    2.70    0.49
  12   2 -14    2.73    0.60
 -12  -2  14    1.82    0.06
 -12  -2  14    2.41    0.35
  10   2 -14   43.12    1.46
  10   2 -14   41.68    1.57
 -10  -2  14   32.18    1.12
 -10  -2  14   33.69    0.92
   8   2 -14    6.02    0.57
   8   2 -14    6.30    0.67
  -8  -2  14    4.92    0.42
  -8  -2  14    4.54    0.13
   6   2 -14   31.94    1.09
  -6  -2  14   25.00    0.84
   4   2 -14   23.54    0.85
  -4  -2  14   18.87    0.67
   2   2 -14    1.70    0.24
  -6   2 -14   27.33    0.90
  -8   2 -14    4.77    0.41
   8  -2  14    5.06    0.28
 -12   2 -14    1.97    0.06
 -14   2 -14    9.90    0.28
 -16   2 -14    4.67    0.13
 -18   2 -14    3.57    0.10
  19   1 -14    7.35    0.87
 -19  -1  14    5.95    0.17
  17   1 -14    2.56    0.57
 -17  -1  14    2.91    0.09
  15   1 -14    7.87    0.88
  15   1 -14    7.64    0.76
 -15  -1  14    6.66    0.19
  13   1 -14   11.77    0.95
  13   1 -14   14.47    0.82
 -13  -1  14   11.41    0.32
 -13  -1  14   11.45    0.65
  11   1 -14   40.22    1.53
  11   1 -14   41.11    1.43
 -11  -1  14   31.10    0.86
 -11  -1  14   30.43    1.08
   9   1 -14    8.26    0.63
   9   1 -14    9.72    0.86
  -9  -1  14    6.51    0.47
  -9  -1  14    6.04    0.17
   7   1 -14   25.48    0.92
   7   1 -14   22.20    1.13
  -7  -1  14   18.52    0.69
   5   1 -14    6.59    0.49
  -5  -1  14    4.75    0.33
   3   1 -14    7.41    0.45
  -3  -1  14    6.00    0.34
  -1   1 -14   27.36    0.84
  -5   1 -14    5.46    0.33
  -7   1 -14   19.83    0.56
  -7   1 -14   20.50    0.72
  -9   1 -14    6.68    0.19
  -9   1 -14    6.57    0.43
 -11   1 -14   32.71    0.91
 -13   1 -14   11.36    0.32
 -15   1 -14    6.68    0.19
 -17   1 -14    2.93    0.09
 -19   1 -14    5.30    0.15
  18   0 -14    6.00    0.69
 -18   0  14    5.84    0.17
  16   0 -14    6.77    0.76
 -16   0  14    5.92    0.17
  14   0 -14    5.42    0.67
  14   0 -14    6.36    0.68
 -14   0  14    5.12    0.14
 -14   0  14    4.65    0.54
  12   0 -14   40.93    1.44
  12   0 -14   41.35    1.61
 -12   0  14   32.37    0.90
 -12   0  14   32.23    1.14
  10   0 -14    1.57    0.40
  10   0 -14    1.34    0.46
 -10   0  14    1.10    0.04
 -10   0  14    1.23    0.30
   8   0 -14   80.80    2.45
   8   0 -14   81.64    2.59
  -8   0  14   64.36    1.95
   6   0 -14    9.83    0.53
  -6   0  14    7.61    0.43
   4   0 -14    2.17    0.27
  -4   0  14    1.10    0.28
  -4   0  14    1.88    0.21
   2   0 -14   75.04    2.16
  -2   0  14   71.06    2.35
  -2   0  14   77.66    2.14
   0   0 -14   -0.01    0.14
  -2   0 -14   86.30    2.44
  -4   0 -14    1.81    0.22
  -6   0 -14    8.14    0.38
  -8   0 -14   66.79    1.86
  -8   0 -14   66.14    1.96
 -10   0 -14    0.93    0.22
 -10   0 -14    0.95    0.03
 -12   0 -14   33.06    0.92
 -14   0 -14    4.96    0.14
 -16   0 -14    5.48    0.16
 -18   0 -14    5.44    0.15
  19  -1 -14    6.96    0.85
 -19   1  14    5.70    0.16
  17  -1 -14    3.40    0.58
 -17   1  14    2.65    0.08
  15  -1 -14    8.04    0.74
 -15   1  14    7.03    0.20
  13  -1 -14   15.01    0.82
 -13   1  14   11.38    0.67
 -13   1  14   11.93    0.33
  11  -1 -14   39.73    1.54
  11  -1 -14   38.15    1.36
 -11   1  14   32.41    1.14
 -11   1  14   32.58    0.91
   9  -1 -14    8.14    0.58
   9  -1 -14    8.17    0.82
  -9   1  14    6.34    0.18
  -9   1  14    6.97    0.48
   7  -1 -14   24.51    0.90
   7  -1 -14   21.73    1.09
  -7   1  14   20.23    0.76
   5  -1 -14    6.48    0.43
  -5   1  14    5.44    0.35
  -3   1  14    5.42    0.29
   1  -1 -14   26.85    0.79
  -5  -1 -14    5.56    0.28
  -7  -1 -14   20.36    0.69
  -9  -1 -14    6.71    0.19
  -9  -1 -14    6.76    0.41
 -11  -1 -14   31.85    0.89
 -13  -1 -14   11.55    0.32
 -15  -1 -14    6.59    0.19
 -17  -1 -14    2.74    0.08
 -19  -1 -14    4.99    0.14
  18  -2 -14    3.90    0.62
 -18   2  14    3.76    0.11
  16  -2 -14    5.78    0.62
 -16   2  14    4.67    0.13
  14  -2 -14   11.05    0.75
 -14   2  14   10.44    0.68
 -14   2  14   10.24    0.29
  12  -2 -14    2.33    0.42
  12  -2 -14    1.67    0.55
 -12   2  14    2.00    0.36
 -12   2  14    2.02    0.06
 -12   2  14    2.54    0.41
  10  -2 -14   38.66    1.49
  10  -2 -14   42.44    1.41
 -10   2  14   36.26    1.03
 -10   2  14   37.29    1.24
   8  -2 -14    5.96    0.62
   8  -2 -14    6.16    0.49
  -8   2  14    5.10    0.44
   6  -2 -14   30.32    1.01
  -6   2  14   26.64    0.88
  -4   2  14   19.63    0.65
  -2   2  14    1.13    0.13
  -6  -2 -14   28.45    0.87
  -8  -2 -14    5.45    0.36
  -8  -2 -14    5.11    0.15
 -10  -2 -14   35.16    0.98
 -10  -2 -14   34.69    1.12
 -12  -2 -14    2.04    0.06
 -14  -2 -14    9.77    0.27
 -16  -2 -14    4.64    0.13
 -18  -2 -14    3.39    0.10
 -19   3  14    4.26    0.12
  17  -3 -14    3.05    0.57
 -17   3  14    2.74    0.08
  15  -3 -14    1.74    0.48
 -15   3  14    1.54    0.05
 -15   3  14    1.35    0.47
  13  -3 -14   16.02    0.82
 -13   3  14   14.78    0.42
 -13   3  14   14.26    0.76
 -13   3  14   16.05    0.91
  11  -3 -14    8.42    0.61
  11  -3 -14    8.78    0.81
 -11   3  14    7.03    0.20
 -11   3  14    6.56    0.55
   9  -3 -14   45.71    1.62
   9  -3 -14   43.42    1.44
  -9   3  14   38.87    1.11
  -9   3  14   40.95    1.31
   7  -3 -14    6.52    0.49
   7  -3 -14    7.12    0.71
  -7   3  14    6.63    0.44
  -5   3  14    4.07    0.35
  -3   3  14    5.02    0.29
  -1   3  14    5.15    0.21
  -7  -3 -14    6.91    0.35
  -9  -3 -14   38.47    1.20
  -9  -3 -14   38.28    1.07
   9   3  14   45.23    1.41
 -11  -3 -14    6.46    0.18
  11   3  14    8.26    0.56
 -13  -3 -14   14.12    0.40
  13   3  14   16.49    0.74
 -15  -3 -14    1.56    0.05
  15   3  14    1.71    0.40
 -17  -3 -14    2.79    0.08
 -19  -3 -14    3.98    0.11
 -18   4  14    1.18    0.05
 -16   4  14    0.73    0.03
 -16   4  14    0.66    0.53
 -14   4  14    1.65    0.05
 -14   4  14    1.49    0.39
 -12   4  14   18.19    0.82
 -12   4  14   17.70    0.50
  10  -4 -14    3.45    0.54
 -10   4  14    3.34    0.37
   8  -4 -14   28.48    1.18
  -8   4  14   27.38    0.96
  -6   4  14    9.17    0.50
  -4   4  14    7.76    0.41
  -2   4  14   21.12    0.67
   6   4  14    9.40    0.42
  -8  -4 -14   26.38    0.87
   8   4  14   28.91    0.96
 -10  -4 -14    2.76    0.34
 -10  -4 -14    2.99    0.08
  10   4  14    3.25    0.42
 -12  -4 -14   16.88    0.47
  12   4  14   18.34    0.75
 -14  -4 -14    1.62    0.05
  14   4  14    1.58    0.42
 -16  -4 -14    0.87    0.03
  16   4  14    0.71    0.45
 -18  -4 -14    1.43    0.05
  18   4  14    0.85    0.51
 -19   5  14    6.41    0.18
 -17   5  14    1.77    0.72
 -17   5  14    1.75    0.06
 -15   5  14    0.29    0.02
 -13   5  14    2.21    0.40
  11  -5 -14   17.00    0.95
 -11   5  14   15.88    0.76
   9  -5 -14    4.23    0.53
  -9   5  14    4.80    0.49
   7  -5 -14    6.23    0.65
  -7   5  14    7.37    0.52
  -5   5  14   23.31    0.82
  -3   5  14    4.16    0.34
  -1   5  14    6.58    0.31
   5   5  14   22.90    0.73
   7   5  14    6.37    0.39
  -9  -5 -14    4.11    0.12
  -9  -5 -14    4.60    0.37
   9   5  14    4.00    0.43
 -11  -5 -14   14.63    0.41
  11   5  14   15.96    0.70
 -13  -5 -14    2.43    0.07
  13   5  14    2.09    0.39
 -15  -5 -14    0.40    0.02
  15   5  14    0.68    0.36
 -17  -5 -14    1.71    0.05
  17   5  14    2.18    0.50
 -19  -5 -14    6.85    0.19
  19   5  14    5.79    0.66
 -16   6  14    0.58    0.03
 -14   6  14    0.31    0.37
  12  -6 -14    0.67    0.48
 -12   6  14    1.70    0.38
  10  -6 -14   11.72    0.78
 -10   6  14   11.81    0.66
   8  -6 -14    4.15    0.50
  -8   6  14    4.05    0.46
  -6   6  14    1.29    0.31
  -4   6  14    9.97    0.50
  -2   6  14   34.38    1.07
   0   6  14   10.46    0.40
   2   6  14   24.33    0.71
   4   6  14    7.98    0.32
   6   6  14    0.89    0.21
   8   6  14    3.82    0.38
 -10  -6 -14   11.36    0.31
 -10  -6 -14   10.93    0.54
  10   6  14   11.36    0.56
 -12  -6 -14    1.62    0.05
  12   6  14    1.93    0.36
 -14  -6 -14    0.20    0.02
  14   6  14    0.46    0.34
 -16  -6 -14    0.86    0.03
  16   6  14    0.68    0.39
 -18  -6 -14    4.38    0.12
  18   6  14    4.43    0.50
 -13   7  14    0.54    0.37
  11  -7 -14    4.70    0.56
 -11   7  14    5.47    0.57
   9  -7 -14    6.56    0.70
  -9   7  14    7.55    0.61
   7  -7 -14    6.22    0.61
  -7   7  14    6.85    0.55
  -5   7  14    6.88    0.50
  -3   7  14    8.13    0.46
   3   7  14    6.26    0.28
   5   7  14    5.26    0.31
   7   7  14    6.29    0.38
  -9  -7 -14    7.40    0.21
   9   7  14    6.63    0.46
 -11  -7 -14    5.15    0.15
  11   7  14    4.77    0.47
 -13  -7 -14    1.02    0.03
  13   7  14    0.87    0.34
 -15  -7 -14    3.27    0.09
  15   7  14    3.52    0.48
 -17  -7 -14    2.16    0.06
  17   7  14    2.24    0.44
  12  -8 -14    1.26    0.48
 -12   8  14    1.12    0.38
  10  -8 -14    5.91    0.62
 -10   8  14    5.53    0.55
   8  -8 -14    0.93    0.38
  -8   8  14    0.41    0.31
  -6   8  14    4.77    0.50
  -4   8  14   29.28    1.01
   2   8  14    5.72    0.32
   4   8  14   22.71    0.72
   6   8  14    3.13    0.30
  -8  -8 -14    0.64    0.02
   8   8  14    0.73    0.23
 -10  -8 -14    5.75    0.16
  10   8  14    4.76    0.43
 -12  -8 -14    1.76    0.05
  12   8  14    1.41    0.32
 -14  -8 -14    3.16    0.09
  14   8  14    3.02    0.45
 -16  -8 -14    4.76    0.13
  16   8  14    4.56    0.57
 -18  -8 -14    0.73    0.03
  18   8  14    0.37    0.42
  13  -9 -14    3.91    0.58
  11  -9 -14    3.44    0.50
 -11   9  14    2.86    0.41
   9  -9 -14    5.73    0.57
  -9   9  14    5.48    0.53
   7  -9 -14    7.01    0.57
  -7   9  14    7.12    0.56
  -5   9  14    4.41    0.46
   3   9  14   38.34    1.16
   5   9  14    3.92    0.31
   7   9  14    5.91    0.39
  -9  -9 -14    5.59    0.16
   9   9  14    4.58    0.40
 -11  -9 -14    3.68    0.10
  11   9  14    3.04    0.37
 -13  -9 -14    5.11    0.14
  13   9  14    4.49    0.50
 -15  -9 -14    3.64    0.10
  15   9  14    3.41    0.48
 -17  -9 -14    4.49    0.13
  17   9  14    4.40    0.55
  12 -10 -14    8.90    0.75
  10 -10 -14    1.81    0.45
 -10  10  14    1.70    0.38
   8 -10 -14    5.36    0.59
  -8  10  14    4.76    0.50
  -6  10  14   11.01    0.57
  -4  10  14    3.78    0.43
   2  10  14   39.47    1.22
   4  10  14    2.93    0.31
   6  10  14   10.01    0.47
  -8 -10 -14    5.59    0.16
   8  10  14    4.95    0.42
 -10 -10 -14    2.47    0.07
  10  10  14    1.82    0.32
 -12 -10 -14    9.81    0.28
  12  10  14    7.23    0.52
 -14 -10 -14    4.28    0.12
  14  10  14    4.04    0.48
 -16 -10 -14    0.44    0.02
  16  10  14    0.50    0.40
  13 -11 -14    2.06    0.56
  11 -11 -14   13.01    0.76
   9 -11 -14    3.26    0.45
  -9  11  14    2.61    0.38
  -7  11  14    4.65    0.54
  -5  11  14   14.99    0.69
   3  11  14    7.84    0.45
   5  11  14   14.22    0.58
  -7 -11 -14    5.08    0.14
   7  11  14    4.38    0.38
  -9 -11 -14    3.54    0.10
   9  11  14    3.10    0.34
 -11 -11 -14   14.64    0.41
  11  11  14   10.38    0.56
 -13 -11 -14    2.22    0.07
  13  11  14    1.87    0.37
 -15 -11 -14    1.41    0.05
  15  11  14    1.00    0.39
  14 -12 -14    2.71    0.59
  12 -12 -14    3.82    0.53
  10 -12 -14    9.11    0.62
  -8  12  14    1.01    0.33
  -6  12  14    1.67    0.36
   2  12  14    2.33    0.30
   4  12  14   17.51    0.70
  -6 -12 -14    1.71    0.05
   6  12  14    1.74    0.27
  -8 -12 -14    1.73    0.05
   8  12  14    1.62    0.30
 -10 -12 -14    9.82    0.28
  10  12  14    7.90    0.54
 -12 -12 -14    4.68    0.13
  12  12  14    4.33    0.53
 -14 -12 -14    2.48    0.07
  14  12  14    1.50    0.43
  13 -13 -14    2.29    0.45
  11 -13 -14    2.20    0.45
   9 -13 -14    4.58    0.45
   3  13  14   14.89    0.64
  -5 -13 -14    2.60    0.07
   5  13  14    2.24    0.31
  -7 -13 -14    1.02    0.03
   7  13  14    0.30    0.28
  -9 -13 -14    5.26    0.15
   9  13  14    3.79    0.47
 -11 -13 -14    2.64    0.08
  11  13  14    2.30    0.39
 -13 -13 -14    2.84    0.08
  13  13  14    1.61    0.37
  12 -14 -14    2.22    0.44
  10 -14 -14    3.87    0.43
   2  14  14   11.12    0.59
   4  14  14    1.89    0.33
  -6 -14 -14    0.32    0.01
   6  14  14    0.13    0.29
  -8 -14 -14    3.30    0.09
   8  14  14    3.08    0.38
 -10 -14 -14    4.36    0.12
  10  14  14    3.32    0.37
 -12 -14 -14    2.27    0.07
  12  14  14    2.01    0.36
   3  15  14    1.96    0.36
  -5 -15 -14    0.37    0.02
   5  15  14    0.30    0.32
  -7 -15 -14    3.51    0.10
   7  15  14    3.07    0.39
  -9 -15 -14    4.14    0.12
   9  15  14    3.31    0.42
 -11 -15 -14    1.45    0.05
  11  15  14    1.25    0.40
   2  16  14    5.41    0.55
   4  16  14    1.12    0.35
  -6 -16 -14    0.84    0.03
   6  16  14    0.51    0.34
  -8 -16 -14    5.63    0.16
   8  16  14    4.48    0.48
 -10 -16 -14    0.36    0.02
  10  16  14    0.74    0.41
   3  17  14    2.41    0.36
  -5 -17 -14    1.88    0.06
   5  17  14    1.86    0.40
  -7 -17 -14    2.59    0.08
   7  17  14    1.73    0.40
  -9 -17 -14    5.41    0.15
   9  17  14    4.36    0.49
   2  18  14    4.02    0.43
   4  18  14    1.63    0.41
  -6 -18 -14    5.61    0.16
   6  18  14    4.72    0.57
  -8 -18 -14    0.53    0.02
   8  18  14    0.56    0.36
   3  19  14    4.20    0.54
  -5 -19 -14    7.64    0.21
   5  19  14    6.20    0.57
   2  19 -15    5.13    0.66
  -2 -19  15    6.75    0.19
   0  19 -15    8.76    0.90
   0 -19  15   12.67    0.36
   2 -19  15    6.90    0.20
   7  18 -15    0.29    0.48
  -7 -18  15    0.75    0.04
   5  18 -15    2.82    0.54
  -5 -18  15    4.97    0.15
   3  18 -15    3.27    0.57
  -3 -18  15    4.58    0.14
   1  18 -15    9.30    0.88
  -1 -18  15   13.06    0.37
   1 -18  15   13.41    0.38
   3 -18  15    4.71    0.14
   5 -18  15    4.84    0.14
   7 -18  15    0.09    0.64
   8  17 -15    1.07    0.48
  -8 -17  15    1.62    0.06
   6  17 -15    0.64    0.47
  -6 -17  15    0.99    0.04
   4  17 -15    2.07    0.44
  -4 -17  15    3.64    0.11
   2  17 -15    3.27    0.48
  -2 -17  15    4.61    0.14
   0 -17  15    9.31    0.26
   2 -17  15    4.68    0.14
   4 -17  15    3.52    0.11
   6 -17  15    0.73    0.58
   6 -17  15    1.02    0.04
   8 -17  15    1.00    0.51
   8 -17  15    1.47    0.05
   9  16 -15    0.40    0.47
  -9 -16  15    0.69    0.04
   7  16 -15    0.60    0.38
  -7 -16  15    1.82    0.06
   5  16 -15    1.68    0.40
  -5 -16  15    2.32    0.08
   3  16 -15    2.16    0.51
  -3 -16  15    2.15    0.07
   1  16 -15    8.16    0.77
  -1 -16  15   10.86    0.31
   1 -16  15   10.74    0.30
   3 -16  15    2.34    0.07
   5 -16  15    2.14    0.07
   7 -16  15    1.63    0.06
   7 -16  15    2.09    0.54
   9 -16  15    0.95    0.49
   9 -16  15    0.85    0.04
  12  15 -15    1.90    0.56
 -12 -15  15    2.65    0.08
  10  15 -15    0.85    0.50
 -10 -15  15    1.12    0.04
   8  15 -15    1.89    0.48
  -8 -15  15    1.81    0.06
   6  15 -15    1.24    0.45
  -6 -15  15    2.38    0.07
   4  15 -15    1.60    0.39
  -4 -15  15    3.28    0.10
   2  15 -15    5.61    0.68
  -2 -15  15    7.49    0.21
   0 -15  15    5.49    0.16
   2 -15  15    7.44    0.21
   4 -15  15    2.93    0.09
   6 -15  15    2.28    0.07
   8 -15  15    1.51    0.46
   8 -15  15    1.88    0.06
  10 -15  15    0.90    0.04
  13  14 -15    0.69    0.56
 -13 -14  15    1.34    0.05
  11  14 -15    0.45    0.42
 -11 -14  15    1.57    0.06
   9  14 -15    3.46    0.53
  -9 -14  15    4.60    0.13
   7  14 -15    1.34    0.37
  -7 -14  15    1.95    0.07
   5  14 -15    4.01    0.49
  -5 -14  15    5.87    0.17
   3  14 -15    3.36    0.41
  -3 -14  15    4.70    0.14
   1  14 -15    9.14    0.72
  -1 -14  15   11.82    0.33
   1 -14  15   11.06    0.31
   3 -14  15    4.30    0.12
   5 -14  15    5.54    0.16
   7 -14  15    1.73    0.06
   9 -14  15    4.48    0.13
   9 -14  15    4.14    0.51
  14  13 -15    1.25    0.59
 -14 -13  15    1.30    0.05
  12  13 -15    1.38    0.46
 -12 -13  15    1.51    0.06
  10  13 -15    7.37    0.75
 -10 -13  15    8.61    0.24
   8  13 -15    2.71    0.41
  -8 -13  15    2.98    0.09
   6  13 -15    4.03    0.48
  -6 -13  15    4.30    0.12
   4  13 -15    2.04    0.42
  -4 -13  15    3.39    0.10
   2  13 -15   15.01    0.80
  -2 -13  15   20.64    0.58
   0 -13  15    6.74    0.19
   2 -13  15   19.90    0.56
   4 -13  15    3.17    0.09
   6 -13  15    4.16    0.12
   8 -13  15    3.01    0.48
   8 -13  15    2.83    0.08
  10 -13  15    8.73    0.25
 -14  13 -15    2.79    1.40
  15  12 -15    1.85    0.61
 -15 -12  15    2.23    0.07
  13  12 -15    1.57    0.49
 -13 -12  15    1.65    0.06
  11  12 -15   11.94    0.86
 -11 -12  15   12.05    0.34
   9  12 -15    3.62    0.53
  -9 -12  15    4.05    0.12
   7  12 -15    5.11    0.60
  -7 -12  15    7.11    0.20
   5  12 -15    1.89    0.35
  -5 -12  15    3.03    0.09
   3  12 -15   15.76    0.78
  -3 -12  15   20.38    0.57
   1  12 -15    8.30    0.65
  -1 -12  15   10.09    0.28
   1 -12  15    9.83    0.28
   3 -12  15   19.23    0.54
   5 -12  15    2.82    0.08
   7 -12  15    6.64    0.19
   9 -12  15    3.04    0.44
   9 -12  15    3.92    0.11
 -13  12 -15    1.94    1.08
 -15  12 -15    2.38    1.36
  14  11 -15    1.16    0.49
 -14 -11  15    1.32    0.05
  12  11 -15   11.96    0.89
 -12 -11  15   11.81    0.33
  10  11 -15    8.66    0.77
 -10 -11  15    7.87    0.22
   8  11 -15    9.34    0.70
  -8 -11  15   10.39    0.29
   6  11 -15    4.35    0.55
  -6 -11  15    4.70    0.13
   4  11 -15   18.98    0.84
  -4 -11  15   25.46    0.71
   2  11 -15    2.23    0.40
  -2 -11  15    3.36    0.10
   0 -11  15   48.23    1.35
   2 -11  15    2.93    0.09
   4 -11  15   23.80    0.67
   6 -11  15    4.66    0.13
   8 -11  15   10.43    0.29
 -12  11 -15   12.91    1.55
 -14  11 -15    1.64    1.26
  15  10 -15    1.01    0.59
  15  10 -15    0.86    0.52
 -15 -10  15    0.75    0.03
  13  10 -15    7.98    0.83
 -13 -10  15    7.46    0.21
  11  10 -15    8.40    0.79
 -11 -10  15    7.42    0.21
   9  10 -15   10.88    0.75
  -9 -10  15   11.31    0.32
   7  10 -15    3.71    0.45
  -7 -10  15    4.07    0.12
   5  10 -15   11.23    0.66
  -5 -10  15   12.58    0.35
   3  10 -15    3.26    0.40
  -3 -10  15    4.23    0.12
   1  10 -15   27.84    1.04
  -1 -10  15   34.30    0.96
   1 -10  15   33.20    0.93
   3 -10  15    4.09    0.12
   5 -10  15   11.77    0.33
   7 -10  15    4.26    0.12
   9 -10  15   11.76    0.61
   9 -10  15   12.11    0.34
 -11  10 -15    6.79    1.29
 -13  10 -15    8.84    1.45
 -15  10 -15    0.89    1.24
  16   9 -15    0.44    0.59
  16   9 -15    0.65    0.65
 -16  -9  15    0.61    0.03
  14   9 -15    5.01    0.72
  14   9 -15    4.19    0.64
 -14  -9  15    3.94    0.11
  12   9 -15    3.76    0.60
 -12  -9  15    3.39    0.10
  10   9 -15   11.94    0.81
 -10  -9  15   10.98    0.31
   8   9 -15    5.19    0.60
  -8  -9  15    4.88    0.14
   6   9 -15   13.99    0.72
  -6  -9  15   14.57    0.41
   4   9 -15    3.64    0.41
  -4  -9  15    4.19    0.12
   2   9 -15   25.31    0.95
  -2  -9  15   31.03    0.87
   0  -9  15    1.02    0.04
   2  -9  15   28.96    0.81
   4  -9  15    3.93    0.11
   6  -9  15   15.45    0.43
  -8   9 -15    4.81    0.88
   8  -9  15    5.23    0.15
 -10   9 -15   12.66    1.34
 -12   9 -15    3.27    0.99
 -14   9 -15    4.52    1.10
 -16   9 -15    0.51    1.02
  17   8 -15    0.98    0.56
  17   8 -15    1.18    0.52
 -17  -8  15    1.24    0.04
  15   8 -15    1.63    0.65
  15   8 -15    1.31    0.59
 -15  -8  15    1.47    0.05
  13   8 -15    2.06    0.57
  13   8 -15    2.85    0.57
 -13  -8  15    2.33    0.07
  11   8 -15   10.65    0.80
 -11  -8  15    9.24    0.26
   9   8 -15    5.30    0.63
  -9  -8  15    4.64    0.13
   7   8 -15    3.77    0.45
  -7  -8  15    3.13    0.09
   5   8 -15    4.98    0.51
  -5  -8  15    5.70    0.16
   3   8 -15   22.24    0.86
  -3  -8  15   25.14    0.70
   1   8 -15    5.52    0.49
  -1  -8  15    6.90    0.20
   1  -8  15    6.23    0.18
   3  -8  15   24.72    0.69
   5  -8  15    5.64    0.16
  -7   8 -15    3.40    0.88
   7  -8  15    3.27    0.09
  -9   8 -15    5.34    0.92
   9  -8  15    4.96    0.39
   9  -8  15    5.47    0.15
 -11   8 -15   11.05    1.47
 -13   8 -15    2.48    1.14
 -15   8 -15    1.56    1.18
 -17   8 -15    1.38    1.05
  18   7 -15    0.34    0.55
  18   7 -15    0.29    0.50
 -18  -7  15    0.59    0.03
  16   7 -15    1.84    0.67
  16   7 -15    1.07    0.60
 -16  -7  15    1.24    0.05
  14   7 -15    1.17    0.65
  14   7 -15    1.25    0.56
 -14  -7  15    1.25    0.05
  12   7 -15    6.96    0.63
  12   7 -15    5.81    0.64
 -12  -7  15    5.82    0.17
  10   7 -15    4.18    0.54
 -10  -7  15    3.75    0.11
 -10  -7  15    3.15    0.38
   8   7 -15    3.65    0.41
  -8  -7  15    2.95    0.09
   6   7 -15    8.82    0.60
  -6  -7  15    7.81    0.22
   4   7 -15    7.11    0.53
  -4  -7  15    7.22    0.20
   2   7 -15    1.57    0.31
  -2  -7  15    1.65    0.05
   0   7 -15   22.13    0.83
   0  -7  15   25.92    0.72
   2  -7  15    1.64    0.05
   4  -7  15    7.49    0.21
  -6   7 -15    9.07    1.01
   6  -7  15    8.94    0.25
  -8   7 -15    3.79    0.90
   8  -7  15    3.43    0.10
 -10   7 -15    4.61    0.90
 -12   7 -15    8.21    1.42
 -14   7 -15    1.67    0.93
 -16   7 -15    0.82    0.96
  17   6 -15    0.30    0.58
  17   6 -15    0.62    0.65
 -17  -6  15    0.75    0.03
  15   6 -15    1.92    0.65
  15   6 -15    2.37    0.50
 -15  -6  15    1.80    0.06
  13   6 -15    3.92    0.60
  13   6 -15    4.67    0.60
 -13  -6  15    3.36    0.10
  11   6 -15    4.75    0.55
  11   6 -15    3.82    0.66
 -11  -6  15    4.05    0.49
 -11  -6  15    3.94    0.11
   9   6 -15   15.61    0.81
  -9  -6  15   13.27    0.36
  -9  -6  15   12.23    0.63
   7   6 -15    8.16    0.61
  -7  -6  15    7.54    0.21
   5   6 -15    9.95    0.54
   5   6 -15   10.28    0.59
  -5  -6  15    8.53    0.24
   3   6 -15    5.18    0.47
   3   6 -15    5.86    0.59
  -3  -6  15    5.33    0.15
   1   6 -15   13.18    0.88
   1   6 -15   13.83    0.60
  -1   6 -15   14.15    1.04
  -3   6 -15    6.39    1.03
  -5   6 -15   10.31    1.11
  -7   6 -15    9.70    1.18
   7  -6  15    9.13    0.26
  -9   6 -15   15.01    1.42
   9  -6  15   15.50    0.53
 -11   6 -15    4.62    0.93
 -13   6 -15    4.20    1.10
  18   5 -15    3.63    0.65
  18   5 -15    3.87    0.75
 -18  -5  15    3.66    0.11
  16   5 -15    1.76    0.59
  16   5 -15    1.81    0.65
 -16  -5  15    1.49    0.05
  14   5 -15    6.05    0.73
  14   5 -15    6.02    0.63
 -14  -5  15    3.99    0.12
  12   5 -15    2.82    0.52
  12   5 -15    2.83    0.65
 -12  -5  15    2.04    0.37
 -12  -5  15    2.34    0.07
  10   5 -15   12.14    0.86
  10   5 -15   13.57    0.77
 -10  -5  15    9.59    0.57
 -10  -5  15   10.14    0.28
   8   5 -15    5.71    0.59
  -8  -5  15    5.06    0.14
  -8  -5  15    5.34    0.45
   6   5 -15   10.24    0.62
  -6  -5  15    8.12    0.23
   4   5 -15    6.07    0.54
   2   5 -15    7.99    0.71
   2   5 -15    7.32    0.46
   0   5 -15    5.62    0.78
   0   5 -15    5.15    0.39
  -2   5 -15    7.49    0.88
  -4   5 -15    5.50    0.95
  -6   5 -15    9.70    1.14
  -8   5 -15    5.84    0.99
 -10   5 -15   12.81    1.38
 -12   5 -15    2.53    0.83
 -18   5 -15    3.58    0.10
  17   4 -15    3.14    0.60
  17   4 -15    2.67    0.59
 -17  -4  15    2.64    0.08
  15   4 -15    2.95    0.66
  15   4 -15    2.53    0.57
 -15  -4  15    2.04    0.06
  13   4 -15    2.76    0.62
  13   4 -15    2.97    0.53
 -13  -4  15    2.43    0.07
  11   4 -15   23.96    1.04
  11   4 -15   24.92    1.25
 -11  -4  15   17.82    0.79
 -11  -4  15   19.42    0.53
   9   4 -15    4.35    0.48
   9   4 -15    3.97    0.64
  -9  -4  15    3.28    0.34
  -9  -4  15    3.24    0.09
   7   4 -15    7.80    0.59
  -7  -4  15    6.31    0.18
  -7  -4  15    7.07    0.50
   5   4 -15    6.22    0.51
   3   4 -15   14.38    0.61
   1   4 -15   12.99    0.54
  -1   4 -15   11.65    0.96
  -3   4 -15   13.03    1.14
  -5   4 -15    5.54    0.99
  -7   4 -15    7.03    0.46
  -7   4 -15    8.26    1.00
 -15   4 -15    2.44    0.07
 -17   4 -15    2.57    0.08
  18   3 -15    4.79    0.76
  18   3 -15    4.13    0.64
 -18  -3  15    3.73    0.11
  16   3 -15    2.01    0.64
  16   3 -15    1.56    0.55
 -16  -3  15    1.33    0.05
  14   3 -15    4.08    0.57
  14   3 -15    3.04    0.65
 -14  -3  15    3.03    0.09
  12   3 -15   19.07    0.92
  12   3 -15   18.63    1.01
 -12  -3  15   14.73    0.41
 -12  -3  15   14.11    0.65
  10   3 -15    3.82    0.64
  10   3 -15    4.12    0.54
 -10  -3  15    3.02    0.34
 -10  -3  15    3.30    0.09
   8   3 -15   24.70    0.97
  -8  -3  15   19.53    0.55
  -8  -3  15   19.49    0.75
   6   3 -15    5.77    0.52
  -6  -3  15    4.93    0.43
   4   3 -15   15.21    0.67
   2   3 -15    4.48    0.39
   0   3 -15   16.05    0.61
  -6   3 -15    5.85    0.41
  -8   3 -15   20.99    0.78
 -14   3 -15    3.20    0.09
 -16   3 -15    1.53    0.05
 -18   3 -15    3.02    0.09
  19   2 -15    4.62    0.78
  19   2 -15    5.78    0.72
 -19  -2  15    5.44    0.16
  17   2 -15    4.67    0.62
  17   2 -15    3.94    0.63
 -17  -2  15    3.62    0.11
  15   2 -15    6.32    0.75
  15   2 -15    6.25    0.74
 -15  -2  15    5.20    0.15
  13   2 -15   18.13    0.91
  13   2 -15   17.50    1.07
 -13  -2  15   14.62    0.40
 -13  -2  15   13.71    0.70
  11   2 -15    3.59    0.63
  11   2 -15    2.96    0.46
 -11  -2  15    2.25    0.07
 -11  -2  15    2.40    0.32
   9   2 -15   26.50    1.29
   9   2 -15   29.41    1.08
  -9  -2  15   22.60    0.84
  -9  -2  15   22.54    0.63
   7   2 -15    2.15    0.37
  -7  -2  15    1.21    0.25
   5   2 -15    9.51    0.57
  -5  -2  15    6.38    0.38
   3   2 -15    4.45    0.41
  -5   2 -15    7.78    0.41
  -7   2 -15    1.55    0.24
  -9   2 -15   23.20    0.83
 -11   2 -15    2.64    0.08
 -13   2 -15   15.04    0.42
 -15   2 -15    5.09    0.14
 -17   2 -15    3.03    0.09
 -19   2 -15    4.41    0.13
  18   1 -15   11.00    0.90
  18   1 -15   10.92    0.91
 -18  -1  15    9.65    0.27
  16   1 -15    7.98    0.82
  16   1 -15    8.93    0.80
 -16  -1  15    7.70    0.22
  14   1 -15   10.49    0.77
  14   1 -15    9.24    0.91
 -14  -1  15    7.97    0.22
  12   1 -15    9.52    0.71
  12   1 -15    9.54    0.78
 -12  -1  15    7.44    0.21
 -12  -1  15    7.62    0.54
  10   1 -15   32.78    1.25
  10   1 -15   34.56    1.42
 -10  -1  15   23.75    0.89
 -10  -1  15   24.68    0.68
   8   1 -15    7.18    0.56
   8   1 -15    6.89    0.70
  -8  -1  15    4.78    0.14
  -8  -1  15    5.25    0.40
   6   1 -15   16.43    0.73
  -6  -1  15   12.44    0.52
   4   1 -15   14.33    0.60
  -4  -1  15   11.18    0.46
   2   1 -15    0.08    0.05
   0   1 -15   39.73    1.18
  -2   1 -15   25.77    0.79
  -4   1 -15   12.18    0.45
  -6   1 -15   13.37    0.38
  -6   1 -15   13.57    0.52
  -8   1 -15    5.39    0.15
  -8   1 -15    5.56    0.40
   8  -1  15    5.78    0.36
 -10   1 -15   26.23    0.73
 -12   1 -15    7.11    0.20
 -14   1 -15    7.94    0.22
 -16   1 -15    6.77    0.19
 -18   1 -15    8.88    0.25
  19   0 -15    9.26    0.90
 -19   0  15    8.51    0.24
  17   0 -15    6.18    0.68
 -17   0  15    6.64    0.19
  15   0 -15    4.37    0.59
  15   0 -15    4.56    0.56
 -15   0  15    3.79    0.11
  13   0 -15    5.83    0.66
  13   0 -15    5.64    0.61
 -13   0  15    4.58    0.51
 -13   0  15    5.08    0.14
  11   0 -15   43.36    1.68
  11   0 -15   44.31    1.50
 -11   0  15   33.92    1.18
 -11   0  15   35.02    0.97
   9   0 -15    0.96    0.36
   9   0 -15    1.13    0.46
  -9   0  15    0.61    0.02
  -9   0  15    0.73    0.31
   7   0 -15   25.67    0.93
  -7   0  15   20.10    0.74
   5   0 -15    5.40    0.45
  -5   0  15    4.12    0.37
  -5   0  15    4.78    0.34
   3   0 -15   -0.03    0.05
  -3   0  15   14.21    0.51
  -3   0  15   13.59    0.68
   1   0 -15   41.02    1.21
  -1   0 -15   40.98    1.18
  -3   0 -15   15.15    0.48
  -5   0 -15    4.98    0.29
  -7   0 -15   20.90    0.71
  -9   0 -15    0.84    0.22
  -9   0 -15    0.56    0.02
 -11   0 -15   35.28    0.99
 -13   0 -15    5.10    0.14
 -15   0 -15    3.51    0.10
 -17   0 -15    6.02    0.17
 -19   0 -15    7.38    0.21
  18  -1 -15   10.15    0.89
 -18   1  15    8.97    0.25
  16  -1 -15    8.57    0.77
  16  -1 -15    9.39    0.94
 -16   1  15    7.38    0.21
  14  -1 -15    9.07    0.72
  14  -1 -15    9.09    0.79
 -14   1  15    8.17    0.23
 -14   1  15    7.94    0.61
  12  -1 -15    9.26    0.86
  12  -1 -15    9.59    0.68
 -12   1  15    7.27    0.55
 -12   1  15    7.24    0.20
  10  -1 -15   29.91    1.26
  10  -1 -15   31.27    1.16
 -10   1  15   25.06    0.71
 -10   1  15   25.90    0.93
   8  -1 -15    6.67    0.51
   8  -1 -15    6.60    0.68
  -8   1  15    6.05    0.43
   6  -1 -15   15.88    0.67
  -6   1  15   12.69    0.54
  -4   1  15   10.73    0.42
   2  -1 -15   27.30    0.84
  -2   1  15   23.81    0.74
  -6  -1 -15   14.88    0.53
  -8  -1 -15    5.29    0.15
  -8  -1 -15    5.37    0.37
 -10  -1 -15   24.68    0.87
 -10  -1 -15   25.86    0.71
 -12  -1 -15    7.66    0.21
 -14  -1 -15    8.04    0.23
 -16  -1 -15    7.12    0.20
 -18  -1 -15    8.78    0.25
  19  -2 -15    5.94    0.69
 -19   2  15    5.30    0.15
  17  -2 -15    3.28    0.58
 -17   2  15    3.25    0.10
  15  -2 -15    5.63    0.69
  15  -2 -15    5.36    0.67
 -15   2  15    5.53    0.16
  13  -2 -15   16.45    1.03
  13  -2 -15   16.37    0.83
 -13   2  15   15.61    0.43
 -13   2  15   14.41    0.75
  11  -2 -15    3.13    0.42
  11  -2 -15    3.51    0.58
 -11   2  15    2.44    0.07
 -11   2  15    2.52    0.35
   9  -2 -15   28.62    1.26
   9  -2 -15   29.08    1.07
  -9   2  15   25.74    0.90
  -9   2  15   24.16    0.69
   7  -2 -15    1.99    0.52
   7  -2 -15    1.90    0.32
  -7   2  15    1.52    0.28
   5  -2 -15    7.89    0.45
  -5   2  15    6.98    0.38
   3  -2 -15    3.80    0.28
  -3   2  15    3.41    0.25
  -7  -2 -15    1.50    0.19
  -9  -2 -15   25.73    0.84
  -9  -2 -15   24.33    0.70
 -11  -2 -15    2.46    0.07
 -13  -2 -15   14.87    0.42
 -15  -2 -15    5.05    0.14
 -17  -2 -15    3.07    0.09
 -19  -2 -15    5.11    0.14
 -18   3  15    3.32    0.10
  16  -3 -15    1.45    0.50
 -16   3  15    1.40    0.05
  14  -3 -15    3.95    0.50
  14  -3 -15    4.14    0.63
 -14   3  15    3.34    0.10
 -14   3  15    3.86    0.52
 -14   3  15    3.39    0.38
  12  -3 -15   18.59    0.84
  12  -3 -15   18.21    1.03
 -12   3  15   16.46    0.46
 -12   3  15   16.12    0.77
  10  -3 -15    3.90    0.58
  10  -3 -15    4.33    0.56
 -10   3  15    3.45    0.10
 -10   3  15    4.49    0.53
   8  -3 -15   24.45    0.88
   8  -3 -15   24.65    1.13
  -8   3  15   22.80    0.86
  -6   3  15    5.40    0.40
  -4   3  15   13.15    0.50
  -2   3  15    2.95    0.21
  -6  -3 -15    5.65    0.27
  -8  -3 -15   22.14    0.73
 -10  -3 -15    3.54    0.10
 -10  -3 -15    3.56    0.36
 -12  -3 -15   15.34    0.43
 -14  -3 -15    3.23    0.09
 -16  -3 -15    1.58    0.05
 -18  -3 -15    3.38    0.10
 -17   4  15    2.34    0.07
  15  -4 -15    2.03    0.60
 -15   4  15    2.56    0.08
 -15   4  15    2.71    0.53
  13  -4 -15    2.82    0.59
 -13   4  15    2.25    0.39
 -13   4  15    2.72    0.08
  11  -4 -15   23.60    1.12
 -11   4  15   21.32    0.60
 -11   4  15   21.43    0.87
   9  -4 -15    4.97    0.58
  -9   4  15    3.79    0.44
   7  -4 -15    7.64    0.73
  -7   4  15    7.92    0.50
  -5   4  15    5.37    0.37
  -3   4  15   13.27    0.49
  -1   4  15   11.01    0.36
  -7  -4 -15    7.80    0.35
   7   4  15    8.60    0.44
  -9  -4 -15    3.49    0.10
  -9  -4 -15    3.48    0.34
   9   4  15    3.99    0.39
 -11  -4 -15   20.22    0.57
  11   4  15   23.40    0.87
 -13  -4 -15    2.33    0.07
  13   4  15    2.49    0.40
 -15  -4 -15    2.33    0.07
  15   4  15    3.01    0.41
 -17  -4 -15    2.64    0.08
 -18   5  15    3.71    0.11
 -16   5  15    1.87    0.06
 -16   5  15    1.41    0.69
  14  -5 -15    5.00    0.58
 -14   5  15    4.56    0.48
 -14   5  15    4.84    0.14
  12  -5 -15    2.79    0.56
 -12   5  15    1.89    0.37
  10  -5 -15   12.54    0.83
 -10   5  15   11.77    0.64
   8  -5 -15    6.09    0.69
  -8   5  15    5.98    0.51
  -6   5  15   10.17    0.53
  -4   5  15    5.95    0.40
  -2   5  15    7.89    0.36
   6   5  15   10.35    0.42
  -8  -5 -15    6.11    0.35
   8   5  15    6.14    0.43
 -10  -5 -15   11.55    0.32
 -10  -5 -15   11.57    0.53
  10   5  15   12.20    0.57
 -12  -5 -15    2.54    0.07
  12   5  15    2.64    0.37
 -14  -5 -15    4.30    0.12
  14   5  15    5.03    0.57
 -16  -5 -15    1.72    0.05
  16   5  15    2.14    0.47
 -18  -5 -15    3.44    0.10
  18   5  15    3.49    0.54
 -17   6  15    0.63    0.03
  15  -6 -15    1.76    0.49
  13  -6 -15    3.82    0.61
 -13   6  15    4.85    0.58
  11  -6 -15    4.51    0.56
 -11   6  15    4.38    0.53
   9  -6 -15   14.69    0.84
  -9   6  15   14.89    0.69
  -7   6  15    9.50    0.58
  -5   6  15   10.72    0.53
  -3   6  15    6.61    0.42
  -1   6  15   17.43    0.59
   5   6  15    9.74    0.39
   7   6  15    8.86    0.43
   9   6  15   15.59    0.64
 -11  -6 -15    4.22    0.12
  11   6  15    4.59    0.46
 -13  -6 -15    3.61    0.10
  13   6  15    4.66    0.45
 -15  -6 -15    1.81    0.05
  15   6  15    2.19    0.39
 -17  -6 -15    0.72    0.03
  17   6  15    0.73    0.46
 -18   7  15    0.62    0.03
  14  -7 -15    1.40    0.57
  12  -7 -15    6.73    0.75
 -12   7  15    6.82    0.61
  10  -7 -15    5.00    0.54
 -10   7  15    4.61    0.52
   8  -7 -15    4.34    0.55
  -8   7  15    4.09    0.52
  -6   7  15   10.07    0.57
  -4   7  15    8.78    0.51
  -2   7  15    1.94    0.25
   2   7  15    1.46    0.16
   4   7  15    7.11    0.31
   6   7  15    7.95    0.39
   8   7  15    3.63    0.36
 -10  -7 -15    4.56    0.13
  10   7  15    4.18    0.46
 -12  -7 -15    7.04    0.20
  12   7  15    6.86    0.54
 -14  -7 -15    1.92    0.06
  14   7  15    1.75    0.37
 -16  -7 -15    1.39    0.04
  16   7  15    1.05    0.44
 -18  -7 -15    0.78    0.03
  18   7  15    0.49    0.41
  15  -8 -15    1.81    0.58
  13  -8 -15    2.01    0.55
  11  -8 -15   11.16    0.84
 -11   8  15   10.13    0.66
   9  -8 -15    5.55    0.63
  -9   8  15    5.90    0.58
  -7   8  15    3.47    0.39
  -5   8  15    6.47    0.48
  -3   8  15   24.95    0.84
   3   8  15   20.05    0.63
   5   8  15    5.24    0.31
   7   8  15    3.55    0.35
   9   8  15    4.95    0.39
 -11  -8 -15   11.17    0.31
  11   8  15    9.79    0.57
 -13  -8 -15    2.76    0.08
  13   8  15    2.59    0.41
 -15  -8 -15    1.79    0.05
  15   8  15    1.37    0.43
 -17  -8 -15    1.34    0.04
  17   8  15    1.24    0.42
  16  -9 -15    0.41    0.56
  14  -9 -15    4.79    0.63
  12  -9 -15    3.28    0.53
  10  -9 -15   12.93    0.83
 -10   9  15   11.95    0.68
   8  -9 -15    5.41    0.54
  -8   9  15    4.64    0.50
  -6   9  15   16.53    0.72
  -4   9  15    4.09    0.45
   2   9  15   25.91    0.82
   4   9  15    3.33    0.28
   6   9  15   13.66    0.53
   8   9  15    4.45    0.39
 -10  -9 -15   12.61    0.35
  10   9  15   10.72    0.55
 -12  -9 -15    4.16    0.12
  12   9  15    3.59    0.45
 -14  -9 -15    4.29    0.12
  14   9  15    4.35    0.48
 -16  -9 -15    0.78    0.03
  16   9  15    0.89    0.45
  15 -10 -15    0.44    0.54
  13 -10 -15    7.98    0.85
  11 -10 -15    7.58    0.69
   9 -10 -15   12.14    0.77
  -9  10  15   11.36    0.66
  -7  10  15    4.27    0.46
  -5  10  15   12.01    0.60
   3  10  15    3.83    0.33
   5  10  15   10.50    0.45
   7  10  15    3.46    0.33
  -9 -10 -15   12.03    0.34
   9  10  15   11.17    0.56
 -11 -10 -15    8.54    0.24
  11  10  15    6.80    0.53
 -13 -10 -15    8.79    0.25
  13  10  15    7.54    0.60
 -15 -10 -15    1.24    0.04
  15  10  15    0.79    0.37
  14 -11 -15    0.61    0.50
  12 -11 -15   11.87    0.78
  10 -11 -15    8.20    0.72
  -8  11  15    9.72    0.60
  -6  11  15    3.96    0.44
  -4  11  15   22.94    0.85
   2  11  15    2.26    0.27
   4  11  15   19.85    0.69
   6  11  15    4.10    0.37
   8  11  15    8.98    0.50
 -10 -11 -15    8.36    0.23
  10  11  15    6.30    0.48
 -12 -11 -15   13.40    0.38
  12  11  15   10.70    0.64
 -14 -11 -15    1.53    0.05
  14  11  15    1.58    0.38
  15 -12 -15    1.44    0.53
  13 -12 -15    1.02    0.51
  11 -12 -15   11.87    0.78
  -7  12  15    5.69    0.55
  -5  12  15    2.20    0.34
   3  12  15   17.24    0.67
   5  12  15    2.54    0.29
   7  12  15    6.20    0.46
  -9 -12 -15    3.82    0.11
   9  12  15    4.27    0.44
 -11 -12 -15   13.30    0.37
  11  12  15   10.75    0.61
 -13 -12 -15    1.91    0.06
  13  12  15    1.57    0.41
 -15 -12 -15    2.82    0.08
  15  12  15    1.82    0.41
  14 -13 -15    1.52    0.52
  12 -13 -15    1.40    0.41
  10 -13 -15    7.55    0.65
   2  13  15   16.88    0.70
   4  13  15    2.09    0.31
   6  13  15    3.21    0.39
  -8 -13 -15    2.57    0.07
   8  13  15    2.47    0.33
 -10 -13 -15    8.78    0.25
  10  13  15    7.47    0.54
 -12 -13 -15    1.75    0.05
  12  13  15    1.51    0.39
 -14 -13 -15    1.60    0.05
  14  13  15    0.77    0.37
  13 -14 -15    1.92    0.47
  11 -14 -15    1.19    0.41
   3  14  15    3.28    0.37
   5  14  15    4.61    0.43
  -7 -14 -15    1.56    0.05
   7  14  15    1.42    0.32
  -9 -14 -15    4.48    0.13
   9  14  15    3.69    0.47
 -11 -14 -15    1.65    0.05
  11  14  15    1.33    0.38
 -13 -14 -15    1.60    0.05
  13  14  15    1.37    0.37
   2  15  15    5.31    0.54
   4  15  15    2.84    0.36
   6  15  15    1.69    0.34
  -8 -15 -15    1.78    0.05
   8  15  15    1.84    0.36
 -10 -15 -15    1.25    0.04
  10  15  15    1.07    0.37
 -12 -15 -15    2.86    0.08
  12  15  15    1.77    0.37
   3  16  15    1.92    0.36
   5  16  15    1.78    0.35
  -7 -16 -15    1.54    0.05
   7  16  15    1.38    0.36
  -9 -16 -15    0.80    0.03
   9  16  15    0.61    0.38
   2  17  15    4.05    0.44
   4  17  15    2.86    0.40
   6  17  15    0.80    0.35
  -8 -17 -15    1.65    0.05
   8  17  15    1.42    0.40
   3  18  15    3.63    0.44
   5  18  15    3.21    0.43
  -7 -18 -15    0.74    0.03
   7  18  15    0.60    0.34
   2  19  15    5.88    0.56
   6  18 -16    1.82    0.52
  -6 -18  16    3.26    0.10
   4  18 -16    3.51    0.57
  -4 -18  16    5.60    0.16
   2  18 -16    3.95    0.61
  -2 -18  16    3.88    0.12
   0  18 -16   18.93    0.98
   0 -18  16   28.10    0.79
   2 -18  16    4.27    0.13
   4 -18  16    6.09    0.18
   6 -18  16    3.02    0.09
   6 -18  16    2.60    0.66
   7  17 -16    0.51    0.46
  -7 -17  16    0.78    0.04
   5  17 -16    0.86    0.48
  -5 -17  16    2.23    0.07
   3  17 -16    3.58    0.49
  -3 -17  16    4.77    0.14
   1  17 -16   15.05    0.95
  -1 -17  16   19.87    0.56
   1 -17  16   20.67    0.58
   3 -17  16    5.18    0.15
   5 -17  16    2.52    0.08
   7 -17  16    0.68    0.03
   7 -17  16    0.50    0.61
  10  16 -16    0.63    0.50
 -10 -16  16    1.63    0.06
   8  16 -16    0.09    0.45
  -8 -16  16    0.01    0.03
   6  16 -16    0.41    0.45
  -6 -16  16    0.37    0.03
   4  16 -16    2.79    0.51
  -4 -16  16    3.93    0.12
   2  16 -16    3.12    0.53
  -2 -16  16    4.30    0.13
   0 -16  16    8.14    0.23
   2 -16  16    4.41    0.13
   4 -16  16    3.60    0.11
   6 -16  16    0.60    0.03
   8 -16  16    0.15    0.03
   8 -16  16   -0.17    0.50
  10 -16  16    1.54    0.05
  11  15 -16    0.91    0.52
 -11 -15  16    1.04    0.04
   9  15 -16    0.52    0.39
  -9 -15  16    1.15    0.04
   7  15 -16   -0.06    0.42
  -7 -15  16    0.14    0.02
   5  15 -16    2.67    0.42
  -5 -15  16    4.14    0.12
   3  15 -16    3.79    0.51
  -3 -15  16    5.27    0.15
   1  15 -16    5.39    0.57
  -1 -15  16    8.26    0.23
   1 -15  16    8.02    0.23
   3 -15  16    5.17    0.15
   5 -15  16    3.83    0.11
   7 -15  16    0.19    0.03
   9 -15  16    1.04    0.04
   9 -15  16    1.29    0.48
  12  14 -16    0.09    0.53
 -12 -14  16    0.42    0.03
  10  14 -16    4.19    0.57
   8  14 -16    1.28    0.39
  -8 -14  16    2.29    0.07
   6  14 -16    0.80    0.43
  -6 -14  16    0.81    0.04
   4  14 -16    9.12    0.68
  -4 -14  16   13.31    0.37
   2  14 -16    6.20    0.64
  -2 -14  16    8.49    0.24
   0 -14  16    9.41    0.27
   2 -14  16    8.19    0.23
   4 -14  16   12.25    0.34
   6 -14  16    0.83    0.03
   8 -14  16    1.86    0.48
   8 -14  16    2.02    0.06
  10 -14  16    6.17    0.18
  13  13 -16    1.19    0.58
 -13 -13  16    1.83    0.06
  11  13 -16    4.05    0.59
 -11 -13  16    4.70    0.14
   9  13 -16    6.33    0.72
  -9 -13  16    6.83    0.19
   7  13 -16    7.57    0.66
  -7 -13  16    9.10    0.26
   5  13 -16   10.55    0.70
  -5 -13  16   14.21    0.40
   3  13 -16    3.98    0.46
  -3 -13  16    4.70    0.14
   1  13 -16    9.82    0.69
  -1 -13  16   13.83    0.39
   1 -13  16   13.67    0.38
   3 -13  16    4.62    0.13
   5 -13  16   13.52    0.38
   7 -13  16    8.89    0.25
   9 -13  16    6.69    0.19
   9 -13  16    7.09    0.61
 -13  13 -16    1.90    1.08
  14  12 -16    0.99    0.49
 -14 -12  16    0.40    0.03
  12  12 -16    8.30    0.82
 -12 -12  16    9.90    0.28
  10  12 -16    5.55    0.63
 -10 -12  16    6.84    0.19
   8  12 -16    9.87    0.64
  -8 -12  16   11.94    0.34
   6  12 -16    8.54    0.64
  -6 -12  16   10.82    0.30
   4  12 -16    1.23    0.39
  -4 -12  16    1.26    0.05
   2  12 -16   13.90    0.74
  -2 -12  16   19.09    0.53
   0 -12  16    3.91    0.11
   2 -12  16   17.94    0.50
   4 -12  16    1.25    0.04
   6 -12  16   10.99    0.31
   8 -12  16   10.89    0.31
  10 -12  16    6.84    0.19
 -12  12 -16   10.39    1.54
 -14  12 -16    1.03    1.07
  15  11 -16    0.93    0.59
 -15 -11  16    1.02    0.04
  13  11 -16    3.94    0.55
 -13 -11  16    4.52    0.13
  11  11 -16   10.09    0.84
 -11 -11  16   10.60    0.30
   9  11 -16   15.17    0.86
  -9 -11  16   16.65    0.47
   7  11 -16    8.45    0.65
  -7 -11  16    9.19    0.26
   5  11 -16    8.55    0.62
  -5 -11  16    9.77    0.27
   3  11 -16   16.74    0.78
  -3 -11  16   21.74    0.61
   1  11 -16    6.80    0.58
  -1 -11  16    7.93    0.22
   1 -11  16    8.12    0.23
   3 -11  16   20.35    0.57
   5 -11  16    9.52    0.27
   7 -11  16    9.21    0.26
   9 -11  16   16.37    0.77
   9 -11  16   17.32    0.48
 -11  11 -16    9.03    1.47
 -13  11 -16    3.84    1.14
 -15  11 -16    1.06    1.10
  16  10 -16    1.23    0.61
  16  10 -16    1.55    0.69
 -16 -10  16    1.45    0.05
  14  10 -16    5.62    0.67
 -14 -10  16    5.53    0.16
  12  10 -16    5.88    0.67
 -12 -10  16    6.31    0.18
  10  10 -16   26.00    1.13
 -10 -10  16   25.99    0.73
   8  10 -16    7.17    0.57
  -8 -10  16    8.14    0.23
   6  10 -16    5.93    0.57
  -6 -10  16    6.81    0.19
   4  10 -16   14.23    0.71
  -4 -10  16   16.52    0.46
   2  10 -16    1.10    0.35
  -2 -10  16    1.49    0.05
   0 -10  16   33.98    0.95
   2 -10  16    1.39    0.05
   4 -10  16   16.00    0.45
   6 -10  16    6.99    0.20
   8 -10  16    7.83    0.22
 -10  10 -16   28.42    2.03
 -12  10 -16    5.72    1.33
 -14  10 -16    8.02    1.47
 -16  10 -16    2.21    1.34
  15   9 -16    1.28    0.55
  15   9 -16    1.35    0.59
 -15  -9  16    0.81    0.04
  13   9 -16    7.53    0.81
 -13  -9  16    6.10    0.17
  11   9 -16   15.73    0.93
 -11  -9  16   15.24    0.43
   9   9 -16   10.63    0.76
  -9  -9  16    9.52    0.27
   7   9 -16   11.43    0.69
  -7  -9  16   10.95    0.31
   5   9 -16   10.21    0.61
  -5  -9  16   11.20    0.31
   3   9 -16    3.00    0.37
  -3  -9  16    3.75    0.11
   1   9 -16   14.15    0.68
  -1  -9  16   17.15    0.48
   1  -9  16   15.92    0.45
   3  -9  16    3.69    0.11
   5  -9  16   11.09    0.31
   7  -9  16   10.93    0.31
  -9   9 -16   10.37    1.45
   9  -9  16   10.48    0.29
   9  -9  16   10.22    0.54
 -11   9 -16   17.71    1.55
 -13   9 -16    6.48    1.18
 -15   9 -16    0.87    1.20
  16   8 -16   -0.51    0.64
  16   8 -16   -0.06    0.48
 -16  -8  16   -0.04    0.02
  14   8 -16    1.72    0.58
  14   8 -16    2.31    0.68
 -14  -8  16    1.34    0.05
  12   8 -16   11.78    0.85
 -12  -8  16   10.11    0.28
  10   8 -16    8.19    0.73
 -10  -8  16    7.44    0.21
   8   8 -16    9.47    0.67
  -8  -8  16    9.21    0.26
   6   8 -16    6.34    0.56
  -6  -8  16    6.41    0.18
   4   8 -16    1.95    0.35
  -4  -8  16    2.34    0.07
   2   8 -16   12.75    0.62
  -2  -8  16   15.38    0.43
   0   8 -16    0.31    0.35
   0  -8  16    0.65    0.03
   2  -8  16   14.55    0.41
   4  -8  16    2.27    0.07
  -6   8 -16    6.47    0.98
   6  -8  16    6.79    0.19
  -8   8 -16   10.44    1.31
   8  -8  16   10.62    0.30
 -10   8 -16    8.34    1.22
 -12   8 -16   11.42    1.60
 -14   8 -16    1.75    1.16
 -16   8 -16    0.54    0.97
  17   7 -16    1.15    0.69
  17   7 -16    1.03    0.61
 -17  -7  16    0.31    0.03
  15   7 -16   -0.26    0.45
  15   7 -16    0.26    0.52
 -15  -7  16   -0.15    0.02
  13   7 -16    7.56    0.80
  13   7 -16    9.71    0.97
 -13  -7  16    7.38    0.21
  11   7 -16    9.10    0.76
 -11  -7  16    7.75    0.22
   9   7 -16   11.55    0.74
  -9  -7  16    9.68    0.27
   7   7 -16    0.62    0.38
  -7  -7  16    0.70    0.03
   5   7 -16    3.17    0.46
   5   7 -16    3.32    0.38
  -5  -7  16    2.88    0.08
   3   7 -16    6.00    0.49
   3   7 -16    5.85    0.65
  -3  -7  16    5.91    0.17
   1   7 -16    2.21    0.53
   1   7 -16    2.68    0.33
  -1  -7  16    3.37    0.10
  -1   7 -16    2.37    0.58
   1  -7  16    3.10    0.09
  -3   7 -16    6.58    0.95
   3  -7  16    6.26    0.18
  -5   7 -16    2.72    0.77
   5  -7  16    3.24    0.09
  -7   7 -16    0.98    0.77
   7  -7  16    0.68    0.03
  -9   7 -16   12.24    1.40
 -11   7 -16    8.88    1.43
 -13   7 -16    8.70    1.53
 -15   7 -16   -1.02    1.05
  18   6 -16    3.17    0.75
  18   6 -16    1.73    0.63
 -18  -6  16    2.20    0.07
  16   6 -16   -0.22    0.55
  16   6 -16    0.46    0.54
 -16  -6  16    0.06    0.02
  14   6 -16    0.25    0.54
  14   6 -16    0.82    0.53
 -14  -6  16    0.66    0.03
  12   6 -16   10.95    0.80
  12   6 -16   11.24    0.98
 -12  -6  16    8.72    0.25
  10   6 -16    7.00    0.67
 -10  -6  16    5.74    0.16
 -10  -6  16    5.83    0.50
   8   6 -16    6.79    0.60
  -8  -6  16    5.71    0.16
   6   6 -16    1.60    0.36
  -6  -6  16    1.54    0.05
   4   6 -16    9.81    0.56
  -4  -6  16    9.35    0.26
   2   6 -16   10.81    0.81
   2   6 -16   11.21    0.60
   0   6 -16    8.41    0.52
   0   6 -16    6.99    0.76
  -2   6 -16   11.03    0.97
  -4   6 -16    9.76    1.06
  -6   6 -16    1.74    0.78
   6  -6  16    1.50    0.05
  -8   6 -16    7.53    1.20
   8  -6  16    6.99    0.20
 -10   6 -16    6.90    1.11
 -12   6 -16    9.72    1.44
 -18   6 -16    2.26    0.07
  17   5 -16    1.65    0.57
  17   5 -16    1.48    0.49
 -17  -5  16    1.61    0.05
  15   5 -16    2.74    0.49
  15   5 -16    4.04    0.72
 -15  -5  16    2.88    0.09
  13   5 -16   13.80    0.93
  13   5 -16   12.86    0.87
 -13  -5  16   10.52    0.30
  11   5 -16   10.24    0.74
  11   5 -16   10.39    0.84
 -11  -5  16    7.14    0.54
 -11  -5  16    7.52    0.21
   9   5 -16   12.38    0.72
  -9  -5  16    9.37    0.55
  -9  -5  16    9.83    0.27
   7   5 -16    3.27    0.47
  -7  -5  16    2.72    0.08
  -7  -5  16    2.46    0.31
   5   5 -16    2.52    0.36
  -5  -5  16    1.98    0.06
   3   5 -16    7.91    0.49
   1   5 -16   12.24    0.58
   1   5 -16   13.04    0.87
  -1   5 -16   12.49    1.02
  -3   5 -16    7.49    0.94
  -5   5 -16    2.03    0.63
  -7   5 -16    3.86    0.76
  -9   5 -16   10.41    1.29
 -17   5 -16    1.55    0.05
  18   4 -16    5.16    0.79
  18   4 -16    3.89    0.64
 -18  -4  16    4.52    0.13
  16   4 -16    3.46    0.70
  16   4 -16    3.29    0.60
 -16  -4  16    2.75    0.08
  14   4 -16   11.16    0.83
  14   4 -16   12.57    1.03
 -14  -4  16    9.27    0.26
  12   4 -16    0.90    0.51
  12   4 -16    1.43    0.48
 -12  -4  16    0.89    0.03
 -12  -4  16    0.97    0.33
  10   4 -16   17.65    1.09
  10   4 -16   17.34    0.85
 -10  -4  16   13.13    0.36
 -10  -4  16   12.56    0.63
   8   4 -16    2.53    0.41
  -8  -4  16    1.67    0.29
  -8  -4  16    1.87    0.05
   6   4 -16   10.83    0.61
  -6  -4  16    8.39    0.51
  -6  -4  16    8.00    0.23
   4   4 -16   15.76    0.70
   2   4 -16    4.31    0.42
   0   4 -16   21.41    0.75
 -16   4 -16    2.83    0.08
 -18   4 -16    3.54    0.10
  17   3 -16    3.79    0.63
  17   3 -16    3.33    0.60
 -17  -3  16    3.59    0.11
  15   3 -16    4.71    0.60
  15   3 -16    4.99    0.73
 -15  -3  16    3.68    0.11
  13   3 -16    4.84    0.56
  13   3 -16    4.46    0.70
 -13  -3  16    3.10    0.38
 -13  -3  16    3.20    0.09
  11   3 -16   20.03    0.93
  11   3 -16   20.94    1.18
 -11  -3  16   15.03    0.69
 -11  -3  16   14.92    0.42
   9   3 -16    4.01    0.57
   9   3 -16    3.73    0.45
  -9  -3  16    2.74    0.32
  -9  -3  16    3.01    0.09
   7   3 -16    6.86    0.55
  -7  -3  16    4.82    0.14
  -7  -3  16    5.18    0.40
   5   3 -16    9.15    0.59
  -5  -3  16    7.26    0.46
   3   3 -16    7.28    0.48
   1   3 -16    6.75    0.40
  -1   3 -16    7.03    0.39
  -7   3 -16    5.65    0.40
 -13   3 -16    3.48    0.10
 -15   3 -16    3.70    0.11
 -17   3 -16    3.50    0.10
  18   2 -16    3.21    0.75
  18   2 -16    3.16    0.61
 -18  -2  16    3.27    0.10
  16   2 -16    3.20    0.70
  16   2 -16    2.78    0.56
 -16  -2  16    3.32    0.10
  14   2 -16    7.44    0.76
  14   2 -16    7.27    0.72
 -14  -2  16    5.89    0.17
  12   2 -16   17.78    0.89
  12   2 -16   16.16    0.97
 -12  -2  16   13.15    0.37
 -12  -2  16   13.03    0.65
  10   2 -16    1.74    0.47
  10   2 -16    1.52    0.60
 -10  -2  16    1.07    0.04
 -10  -2  16    1.46    0.33
   8   2 -16   15.99    0.75
  -8  -2  16   11.83    0.55
  -8  -2  16   11.68    0.33
   6   2 -16   12.49    0.61
  -6  -2  16    9.33    0.45
   4   2 -16    4.72    0.45
   2   2 -16   36.49    1.14
   0   2 -16    0.06    0.05
  -2   2 -16   30.67    0.94
  -6   2 -16   10.39    0.47
  -8   2 -16   12.36    0.53
 -10   2 -16    1.16    0.04
 -12   2 -16   14.11    0.39
 -14   2 -16    6.06    0.17
 -16   2 -16    2.86    0.08
 -18   2 -16    2.61    0.08
  17   1 -16   16.13    1.00
  17   1 -16   17.15    1.16
 -17  -1  16   15.00    0.42
  15   1 -16    6.40    0.73
  15   1 -16    6.60    0.77
 -15  -1  16    5.49    0.16
  13   1 -16   11.76    0.86
  13   1 -16   11.81    0.77
 -13  -1  16    9.38    0.59
 -13  -1  16    9.51    0.27
  11   1 -16    6.91    0.66
  11   1 -16    7.41    0.64
 -11  -1  16    6.53    0.53
 -11  -1  16    6.05    0.17
   9   1 -16   17.52    0.78
   9   1 -16   14.79    0.92
  -9  -1  16   12.49    0.57
  -9  -1  16   12.27    0.35
   7   1 -16    3.50    0.41
  -7  -1  16    2.97    0.34
   5   1 -16   13.01    0.58
  -5  -1  16   10.52    0.47
   3   1 -16    7.43    0.42
   1   1 -16   18.52    0.63
  -1   1 -16   17.49    0.58
  -5   1 -16   11.21    0.44
  -7   1 -16    2.61    0.32
  -7   1 -16    2.47    0.07
  -9   1 -16   12.41    0.54
  -9   1 -16   13.13    0.36
 -11   1 -16    6.00    0.17
 -13   1 -16    9.54    0.27
 -15   1 -16    5.32    0.15
 -17   1 -16   13.25    0.37
  18   0 -16   21.36    1.12
  18   0 -16   21.27    1.28
 -18   0  16   19.16    0.54
  16   0 -16    5.95    0.77
  16   0 -16    5.46    0.61
 -16   0  16    5.22    0.15
  14   0 -16    8.16    0.72
  14   0 -16    8.49    0.78
 -14   0  16    6.03    0.55
 -14   0  16    6.43    0.18
  12   0 -16    3.70    0.52
  12   0 -16    4.32    0.65
 -12   0  16    2.93    0.36
 -12   0  16    2.91    0.08
  10   0 -16   30.99    1.12
  10   0 -16   29.79    1.29
 -10   0  16   24.33    0.69
 -10   0  16   25.01    0.92
   8   0 -16    0.53    0.36
   8   0 -16    0.00    0.44
  -8   0  16    0.44    0.02
  -8   0  16    0.64    0.24
   6   0 -16    9.83    0.56
  -6   0  16    7.32    0.39
   4   0 -16   25.53    0.85
  -4   0  16   19.38    0.66
  -4   0  16   19.79    0.82
   2   0 -16    0.95    0.21
   0   0 -16  143.51    4.05
  -4   0 -16   21.41    0.65
  -6   0 -16    8.05    0.36
  -8   0 -16    0.44    0.02
  -8   0 -16    0.35    0.21
   8   0  16    0.42    0.27
 -10   0 -16   24.44    0.68
 -12   0 -16    2.87    0.08
 -14   0 -16    6.42    0.18
 -16   0 -16    5.00    0.14
 -18   0 -16   16.60    0.46
  17  -1 -16   16.42    1.02
  17  -1 -16   16.20    0.98
 -17   1  16   14.45    0.41
  15  -1 -16    6.47    0.71
  15  -1 -16    6.92    0.77
 -15   1  16    5.60    0.16
  13  -1 -16   11.46    0.74
  13  -1 -16   12.39    0.94
 -13   1  16    8.74    0.61
 -13   1  16   10.09    0.27
  11  -1 -16    7.53    0.61
  11  -1 -16    7.85    0.73
 -11   1  16    5.75    0.16
 -11   1  16    5.84    0.49
   9  -1 -16   16.72    0.78
   9  -1 -16   15.54    1.01
  -9   1  16   12.26    0.36
  -9   1  16   13.48    0.59
   7  -1 -16    3.74    0.41
  -7   1  16    2.29    0.26
   5  -1 -16   12.49    0.54
  -5   1  16   10.13    0.44
   3  -1 -16    6.78    0.34
  -3   1  16    6.35    0.32
   1  -1 -16   16.36    0.51
  -5  -1 -16   12.25    0.41
  -7  -1 -16    2.94    0.28
  -9  -1 -16   13.56    0.54
  -9  -1 -16   12.70    0.36
 -11  -1 -16    6.10    0.17
 -13  -1 -16    9.60    0.27
 -15  -1 -16    5.33    0.15
 -17  -1 -16   13.11    0.37
  18  -2 -16    3.08    0.60
  18  -2 -16    3.80    0.75
 -18   2  16    2.72    0.08
  16  -2 -16    3.01    0.67
  16  -2 -16    3.21    0.55
 -16   2  16    2.88    0.09
  14  -2 -16    7.06    0.75
  14  -2 -16    7.34    0.68
 -14   2  16    6.42    0.18
 -14   2  16    6.47    0.59
  12  -2 -16   17.54    1.04
  12  -2 -16   17.56    0.88
 -12   2  16   14.34    0.70
 -12   2  16   14.64    0.40
 -12   2  16   13.73    0.67
  10  -2 -16    1.43    0.39
  10  -2 -16    1.34    0.55
 -10   2  16    1.02    0.29
 -10   2  16    1.23    0.04
   8  -2 -16   13.02    0.83
   8  -2 -16   14.17    0.62
  -8   2  16   12.73    0.56
   6  -2 -16   11.71    0.54
  -6   2  16   10.58    0.48
  -4   2  16    3.49    0.29
  -2   2  16   29.40    0.88
  -6  -2 -16   11.25    0.40
  -8  -2 -16   13.56    0.51
 -10  -2 -16    0.70    0.23
 -10  -2 -16    1.09    0.03
 -12  -2 -16   13.50    0.38
 -14  -2 -16    5.96    0.17
 -16  -2 -16    3.10    0.09
 -18  -2 -16    2.89    0.08
  17  -3 -16    3.05    0.70
 -17   3  16    3.49    0.10
  15  -3 -16    4.80    0.55
  15  -3 -16    4.63    0.69
 -15   3  16    4.06    0.12
  13  -3 -16    3.64    0.46
  13  -3 -16    4.84    0.65
 -13   3  16    3.46    0.10
 -13   3  16    3.04    0.41
 -13   3  16    4.02    0.57
  11  -3 -16   18.61    0.96
  11  -3 -16   18.80    0.82
 -11   3  16   17.46    0.75
 -11   3  16   16.84    0.48
   9  -3 -16    3.68    0.44
   9  -3 -16    4.32    0.59
  -9   3  16    3.32    0.41
  -9   3  16    3.03    0.09
   7  -3 -16    6.49    0.46
  -7   3  16    5.94    0.43
  -5   3  16    7.41    0.41
  -3   3  16    5.45    0.30
  -7  -3 -16    5.86    0.30
  -9  -3 -16    3.07    0.32
 -11  -3 -16   15.90    0.44
 -13  -3 -16    3.37    0.10
 -15  -3 -16    3.67    0.10
 -17  -3 -16    3.33    0.10
  18  -4 -16    4.66    0.74
 -18   4  16    3.84    0.11
  16  -4 -16    3.11    0.66
 -16   4  16    2.97    0.09
  14  -4 -16   12.52    0.96
 -14   4  16   10.10    0.76
 -14   4  16   10.29    0.29
  12  -4 -16    1.62    0.46
 -12   4  16    0.95    0.04
 -12   4  16    0.73    0.33
  10  -4 -16   15.77    0.95
 -10   4  16   14.78    0.42
 -10   4  16   15.51    0.69
   8  -4 -16    2.80    0.52
  -8   4  16    1.86    0.31
  -6   4  16    9.29    0.47
  -4   4  16   14.31    0.54
  -2   4  16    3.61    0.22
  -8  -4 -16    2.78    0.28
 -10  -4 -16   13.82    0.58
 -10  -4 -16   14.51    0.40
 -12  -4 -16    0.93    0.03
 -14  -4 -16    9.36    0.26
 -16  -4 -16    2.69    0.08
 -18  -4 -16    3.98    0.11
  17  -5 -16    1.18    0.53
 -17   5  16    1.47    0.05
  15  -5 -16    3.90    0.65
 -15   5  16    3.31    0.10
  13  -5 -16   12.18    0.91
 -13   5  16   12.13    0.72
 -13   5  16   12.51    0.35
  11  -5 -16   11.01    0.85
 -11   5  16    9.12    0.65
   9  -5 -16   11.43    0.81
  -9   5  16   10.51    0.57
  -7   5  16    3.41    0.33
  -5   5  16    2.20    0.25
  -3   5  16    8.33    0.38
  -1   5  16   11.17    0.37
   7   5  16    3.48    0.32
  -9  -5 -16   10.91    0.47
   9   5  16   12.10    0.55
 -11  -5 -16    8.88    0.25
  11   5  16    9.90    0.58
 -13  -5 -16   11.42    0.32
  13   5  16   12.88    0.68
 -15  -5 -16    2.82    0.08
  15   5  16    3.59    0.47
 -17  -5 -16    1.77    0.05
  17   5  16    1.88    0.48
  18  -6 -16    2.66    0.69
 -18   6  16    2.51    0.08
  16  -6 -16    0.74    0.60
 -16   6  16    0.11    0.02
  14  -6 -16    0.06    0.55
  12  -6 -16   10.88    0.85
 -12   6  16   10.08    0.66
  10  -6 -16    6.84    0.62
 -10   6  16    6.78    0.53
   8  -6 -16    6.59    0.69
  -8   6  16    6.50    0.52
  -6   6  16    1.45    0.29
  -4   6  16   10.95    0.50
  -2   6  16   12.60    0.48
   6   6  16    1.75    0.20
   8   6  16    6.97    0.40
 -10  -6 -16    6.46    0.46
  10   6  16    6.36    0.48
 -12  -6 -16    9.70    0.27
  12   6  16    9.70    0.57
 -14  -6 -16    0.67    0.02
  14   6  16    0.94    0.38
 -16  -6 -16    0.40    0.02
  16   6  16    0.02    0.42
 -18  -6 -16    2.51    0.07
  18   6  16    2.05    0.44
  17  -7 -16    0.21    0.62
 -17   7  16    0.28    0.03
  15  -7 -16    0.29    0.55
  13  -7 -16    8.76    0.73
  11  -7 -16    9.26    0.78
 -11   7  16    8.60    0.67
   9  -7 -16   12.40    0.80
  -9   7  16   11.63    0.67
  -7   7  16    0.62    0.31
  -5   7  16    3.77    0.40
  -3   7  16    7.01    0.43
  -1   7  16    3.44    0.29
   1   7  16    2.62    0.17
   3   7  16    5.61    0.24
   5   7  16    3.17    0.26
   7   7  16    0.56    0.22
   9   7  16   11.13    0.53
 -11  -7 -16    9.52    0.27
  11   7  16    9.15    0.54
 -13  -7 -16    8.83    0.25
  13   7  16    8.21    0.59
 -15  -7 -16    0.26    0.02
  15   7  16    0.38    0.35
 -17  -7 -16    0.59    0.02
  17   7  16    0.33    0.38
  16  -8 -16   -0.08    0.56
  14  -8 -16    2.40    0.56
  12  -8 -16   11.18    0.83
  10  -8 -16    9.57    0.83
 -10   8  16    9.05    0.67
  -8   8  16   10.60    0.64
  -6   8  16    7.22    0.51
  -4   8  16    2.45    0.28
  -2   8  16   15.72    0.60
   2   8  16   12.13    0.41
   4   8  16    1.93    0.22
   6   8  16    6.32    0.34
   8   8  16    9.51    0.48
  10   8  16    8.02    0.49
 -12  -8 -16   12.81    0.36
  12   8  16   11.31    0.63
 -14  -8 -16    1.88    0.06
  14   8  16    1.84    0.41
 -16  -8 -16    0.12    0.02
  16   8  16    0.24    0.42
  15  -9 -16    1.86    0.58
  13  -9 -16    6.46    0.71
  11  -9 -16   17.14    0.92
   9  -9 -16    9.68    0.72
  -9   9  16   11.30    0.70
  -7   9  16   12.58    0.67
  -5   9  16   12.68    0.60
  -3   9  16    4.02    0.39
   3   9  16    3.02    0.25
   5   9  16   10.68    0.44
   7   9  16   10.14    0.45
   9   9  16   10.10    0.53
  11   9  16   15.30    0.69
 -13  -9 -16    7.16    0.20
  13   9  16    6.66    0.58
 -15  -9 -16    1.16    0.04
  15   9  16    0.84    0.37
  16 -10 -16    1.69    0.60
  14 -10 -16    7.05    0.76
  12 -10 -16    6.40    0.72
  10 -10 -16   27.76    1.19
  -8  10  16    7.25    0.61
  -6  10  16    6.84    0.52
  -4  10  16   15.44    0.64
   2  10  16    1.25    0.20
   4  10  16   12.95    0.49
   6  10  16    6.33    0.36
   8  10  16    7.66    0.45
  10  10  16   23.97    0.87
 -12 -10 -16    6.49    0.18
  12  10  16    6.20    0.56
 -14 -10 -16    7.14    0.20
  14  10  16    6.31    0.54
 -16 -10 -16    1.58    0.05
  16  10  16    1.01    0.45
  15 -11 -16    1.15    0.53
  13 -11 -16    4.57    0.57
  11 -11 -16   10.30    0.74
  -7  11  16    8.55    0.59
  -5  11  16    8.82    0.54
   3  11  16   17.09    0.61
   5  11  16    8.29    0.43
   7  11  16    8.57    0.46
   9  11  16   14.90    0.63
  11  11  16    9.86    0.59
 -13 -11 -16    4.87    0.14
  13  11  16    4.16    0.46
 -15 -11 -16    1.24    0.04
  15  11  16    0.95    0.43
  14 -12 -16    0.52    0.46
  12 -12 -16   10.45    0.81
  -4  12  16    1.20    0.29
   2  12  16   15.35    0.61
   4  12  16    1.06    0.24
   6  12  16    9.37    0.48
   8  12  16   11.09    0.56
  10  12  16    5.79    0.49
  12  12  16    8.72    0.60
 -14 -12 -16    0.67    0.03
  14  12  16    0.45    0.41
  13 -13 -16    1.47    0.44
  11 -13 -16    5.32    0.55
   3  13  16    3.93    0.41
   5  13  16   10.73    0.50
   7  13  16    8.34    0.51
   9  13  16    7.12    0.54
  11  13  16    3.95    0.50
  13  13  16    1.38    0.41
  12 -14 -16    0.29    0.43
   2  14  16    6.30    0.50
   4  14  16   10.07    0.55
   6  14  16    0.73    0.31
   8  14  16    1.91    0.33
  10  14  16    5.96    0.52
  12  14  16    0.27    0.37
   3  15  16    4.67    0.46
   5  15  16    2.76    0.33
   7  15  16    0.32    0.34
   9  15  16    0.93    0.35
  11  15  16    0.82    0.33
   2  16  16    3.25    0.42
   4  16  16    2.38    0.36
   6  16  16    0.32    0.32
   8  16  16    0.21    0.34
  10  16  16    1.09    0.38
   1  17  16   16.56    0.77
   3  17  16    3.90    0.51
   5  17  16    1.27    0.35
   7  17  16    0.57    0.35
   2  18  16    3.92    0.45
   4  18  16    4.29    0.55
   6  18  16    2.03    0.40
   3  18 -17    5.04    0.64
  -3 -18  17    6.26    0.18
   1  18 -17   13.80    0.95
  -1 -18  17   18.20    0.51
   1 -18  17   18.10    0.51
   3 -18  17    6.96    0.20
   6  17 -17    1.38    0.49
  -6 -17  17    2.51    0.08
   4  17 -17    2.88    0.53
  -4 -17  17    3.88    0.12
   2  17 -17    9.84    0.72
  -2 -17  17   13.29    0.37
   0  17 -17   19.67    1.06
   0 -17  17   31.74    0.89
   2 -17  17   13.88    0.39
   4 -17  17    3.97    0.12
   6 -17  17    2.06    0.07
   9  16 -17   -0.21    0.39
  -9 -16  17    0.35    0.03
   7  16 -17    0.20    0.44
  -7 -16  17    0.22    0.03
   5  16 -17   -0.03    0.45
  -5 -16  17    0.55    0.03
   3  16 -17    4.19    0.54
  -3 -16  17    5.35    0.15
   1  16 -17    6.91    0.65
  -1 -16  17    8.68    0.25
   1 -16  17    8.51    0.24
   3 -16  17    5.68    0.16
   5 -16  17    0.32    0.03
   7 -16  17    0.16    0.03
   9 -16  17    0.66    0.03
  10  15 -17    1.97    0.53
 -10 -15  17    2.26    0.07
   8  15 -17    0.66    0.38
  -8 -15  17    0.39    0.03
   6  15 -17    0.76    0.36
  -6 -15  17    0.80    0.04
   4  15 -17    3.21    0.42
  -4 -15  17    5.28    0.15
   2  15 -17    2.06    0.48
  -2 -15  17    2.98    0.09
   0  15 -17    7.55    0.74
   0 -15  17   11.09    0.31
   2 -15  17    2.87    0.09
   4 -15  17    4.88    0.14
   6 -15  17    0.96    0.04
   8 -15  17    0.55    0.03
   8 -15  17    0.93    0.48
  10 -15  17    2.40    0.07
  11  14 -17    2.80    0.57
 -11 -14  17    3.21    0.10
   9  14 -17    3.72    0.55
  -9 -14  17    4.60    0.13
   7  14 -17    3.72    0.50
  -7 -14  17    5.34    0.15
   5  14 -17    2.36    0.45
  -5 -14  17    3.62    0.11
   3  14 -17    7.10    0.65
  -3 -14  17    9.79    0.28
   1  14 -17    5.09    0.63
  -1 -14  17    7.27    0.21
   1 -14  17    7.02    0.20
   3 -14  17    9.24    0.26
   5 -14  17    3.46    0.10
   7 -14  17    5.30    0.15
   9 -14  17    4.83    0.14
  12  13 -17    4.31    0.54
 -12 -13  17    5.98    0.17
  10  13 -17    5.32    0.61
 -10 -13  17    6.88    0.20
   8  13 -17   11.04    0.76
  -8 -13  17   13.01    0.37
   6  13 -17    3.10    0.46
  -6 -13  17    4.42    0.13
   4  13 -17   12.77    0.74
  -4 -13  17   18.24    0.51
   2  13 -17    3.13    0.45
  -2 -13  17    4.42    0.13
   0  13 -17    6.13    0.64
   0 -13  17    8.47    0.24
   2 -13  17    4.21    0.12
   4 -13  17   17.56    0.49
   6 -13  17    4.28    0.12
   8 -13  17   12.18    0.34
  10 -13  17    6.45    0.18
 -12  13 -17    5.85    1.23
  13  12 -17    5.91    0.69
 -13 -12  17    5.84    0.17
  11  12 -17    8.01    0.79
 -11 -12  17    8.40    0.24
   9  12 -17   15.46    0.87
  -9 -12  17   18.85    0.53
   7  12 -17    6.16    0.63
  -7 -12  17    6.25    0.18
   5  12 -17   14.79    0.77
  -5 -12  17   18.60    0.52
   3  12 -17    1.89    0.39
  -3 -12  17    3.02    0.09
   1  12 -17    9.21    0.58
  -1 -12  17   12.89    0.36
   1 -12  17   12.27    0.34
   3 -12  17    2.91    0.09
   5 -12  17   17.51    0.49
   7 -12  17    6.17    0.17
   9 -12  17   17.86    0.49
   9 -12  17   17.01    0.81
 -11  12 -17    7.06    1.27
 -13  12 -17    4.60    1.21
  14  11 -17    3.14    0.62
 -14 -11  17    2.88    0.09
  12  11 -17    7.39    0.69
 -12 -11  17    7.94    0.22
  10  11 -17   25.90    1.15
 -10 -11  17   28.93    0.81
   8  11 -17   10.81    0.74
  -8 -11  17   11.16    0.31
   6  11 -17   12.56    0.71
  -6 -11  17   15.26    0.43
   4  11 -17    2.08    0.39
  -4 -11  17    3.00    0.09
   2  11 -17    9.89    0.62
  -2 -11  17   13.57    0.38
   0  11 -17    0.11    0.35
   0 -11  17    0.50    0.03
   2 -11  17   12.98    0.36
   4 -11  17    2.73    0.08
   6 -11  17   15.64    0.44
   8 -11  17   10.69    0.30
 -10  11 -17   28.98    2.14
 -12  11 -17    7.99    1.46
 -14  11 -17    3.37    1.17
  15  10 -17    2.35    0.62
 -15 -10  17    2.15    0.07
  13  10 -17    5.79    0.67
 -13 -10  17    6.04    0.17
  11  10 -17   25.52    1.08
 -11 -10  17   28.09    0.79
   9  10 -17   10.98    0.70
  -9 -10  17   11.74    0.33
   7  10 -17   14.91    0.78
  -7 -10  17   15.99    0.45
   5  10 -17    4.02    0.51
  -5 -10  17    4.39    0.13
   3  10 -17   10.68    0.62
  -3 -10  17   13.02    0.37
   1  10 -17    4.40    0.50
  -1 -10  17    5.28    0.15
   1 -10  17    5.29    0.15
   3 -10  17   12.68    0.36
   5 -10  17    4.30    0.12
   7 -10  17   16.48    0.46
  -9  10 -17   11.08    1.39
   9 -10  17   12.88    0.36
 -11  10 -17   30.70    2.16
 -13  10 -17    6.18    1.40
 -15  10 -17    2.14    1.10
  16   9 -17    0.32    0.67
  16   9 -17    0.78    0.60
 -16  -9  17    0.30    0.03
  14   9 -17    4.18    0.64
 -14  -9  17    3.87    0.11
  12   9 -17   18.72    1.03
 -12  -9  17   16.24    0.45
  10   9 -17   11.63    0.74
 -10  -9  17   11.33    0.32
   8   9 -17   23.87    1.00
  -8  -9  17   23.83    0.67
   6   9 -17    3.72    0.42
  -6  -9  17    4.00    0.11
   4   9 -17    6.48    0.53
  -4  -9  17    7.71    0.22
   2   9 -17    1.33    0.33
  -2  -9  17    1.96    0.06
   0   9 -17   13.74    0.67
   0  -9  17   16.84    0.47
   2  -9  17    1.62    0.05
   4  -9  17    7.79    0.22
  -6   9 -17    4.37    0.90
   6  -9  17    4.46    0.13
  -8   9 -17   28.16    1.69
   8  -9  17   25.91    0.72
 -10   9 -17   11.12    1.59
 -12   9 -17   17.15    1.63
 -14   9 -17    5.22    1.35
 -16   9 -17   -0.10    1.21
  15   8 -17   -0.19    0.56
  15   8 -17    0.16    0.64
 -15  -8  17    0.21    0.03
  13   8 -17   11.92    0.88
 -13  -8  17   10.84    0.31
  11   8 -17   10.98    0.82
 -11  -8  17   10.12    0.28
   9   8 -17   26.20    1.08
  -9  -8  17   23.10    0.65
   7   8 -17    5.05    0.56
  -7  -8  17    4.71    0.13
   5   8 -17    3.03    0.50
   5   8 -17    3.39    0.39
  -5  -8  17    3.22    0.09
   3   8 -17    2.34    0.34
  -3  -8  17    3.06    0.09
   1   8 -17    8.43    0.52
  -1  -8  17   10.42    0.29
  -1   8 -17    9.36    0.92
   1  -8  17   10.23    0.29
  -3   8 -17    2.77    0.70
   3  -8  17    3.14    0.09
  -5   8 -17    3.81    0.83
   5  -8  17    3.44    0.10
  -7   8 -17    5.22    0.98
   7  -8  17    4.83    0.14
  -9   8 -17   28.04    1.83
   9  -8  17   27.09    0.76
 -11   8 -17   10.76    1.37
 -13   8 -17   11.87    1.69
 -15   8 -17    0.49    0.93
  16   7 -17    0.49    0.54
  16   7 -17    0.44    0.56
 -16  -7  17    0.08    0.03
  14   7 -17    5.29    0.66
  14   7 -17    4.53    0.64
 -14  -7  17    3.68    0.11
  12   7 -17    5.38    0.61
 -12  -7  17    6.05    0.17
  10   7 -17   16.21    0.88
 -10  -7  17   14.12    0.40
   8   7 -17    5.50    0.59
  -8  -7  17    4.43    0.13
   6   7 -17    1.08    0.36
  -6  -7  17    1.37    0.04
   4   7 -17    2.96    0.51
   4   7 -17    2.79    0.39
  -4  -7  17    2.69    0.08
   2   7 -17    4.45    0.65
   2   7 -17    6.02    0.51
  -2  -7  17    5.65    0.16
   0   7 -17    1.90    0.30
   0   7 -17    2.24    0.58
   0  -7  17    2.19    0.07
  -2   7 -17    5.04    0.80
   2  -7  17    5.30    0.15
  -4   7 -17    3.16    0.75
   4  -7  17    2.93    0.08
  -6   7 -17    1.47    0.77
   6  -7  17    1.50    0.05
  -8   7 -17    5.70    1.03
   8  -7  17    5.27    0.15
 -10   7 -17   17.02    1.60
 -12   7 -17    5.12    1.19
 -14   7 -17    4.45    1.06
  17   6 -17    0.86    0.57
  17   6 -17    1.17    0.58
 -17  -6  17    1.48    0.05
  15   6 -17    1.12    0.56
  15   6 -17    1.08    0.68
 -15  -6  17    0.81    0.03
  13   6 -17    3.62    0.59
  13   6 -17    4.21    0.62
 -13  -6  17    3.51    0.10
  11   6 -17   14.45    0.84
 -11  -6  17   12.91    0.35
 -11  -6  17   11.74    0.66
   9   6 -17    4.87    0.61
  -9  -6  17    3.76    0.46
  -9  -6  17    3.56    0.10
   7   6 -17    1.76    0.39
  -7  -6  17    1.23    0.04
   5   6 -17    1.48    0.34
  -5  -6  17    1.08    0.04
   3   6 -17   10.16    0.54
  -3  -6  17   10.08    0.28
   1   6 -17    8.23    0.48
   1   6 -17    8.62    0.80
  -1   6 -17    7.99    0.51
  -1   6 -17    9.25    0.96
  -3   6 -17   10.35    1.02
  -5   6 -17    1.71    0.73
  -7   6 -17    1.94    0.81
   7  -6  17    1.50    0.05
  -9   6 -17    3.72    0.97
 -11   6 -17   14.31    1.36
  16   5 -17    1.29    0.69
  16   5 -17   -0.05    0.55
 -16  -5  17    0.16    0.02
  14   5 -17    2.69    0.57
  14   5 -17    3.38    0.73
 -14  -5  17    2.70    0.08
  12   5 -17   18.87    1.17
  12   5 -17   18.42    0.96
 -12  -5  17   13.92    0.38
 -12  -5  17   12.50    0.69
  10   5 -17    3.88    0.49
 -10  -5  17    3.88    0.46
 -10  -5  17    3.72    0.11
   8   5 -17    4.21    0.46
  -8  -5  17    2.96    0.08
  -8  -5  17    2.63    0.35
   6   5 -17    1.47    0.35
  -6  -5  17    1.00    0.03
   4   5 -17    7.53    0.50
   2   5 -17    8.48    0.51
   0   5 -17   11.97    0.56
  -2   5 -17    7.99    0.90
  -4   5 -17    6.97    0.98
  -6   5 -17    1.54    0.75
  -8   5 -17    3.30    0.89
 -16   5 -17    0.41    0.02
  17   4 -17    2.87    0.63
  17   4 -17    2.96    0.52
 -17  -4  17    2.94    0.09
  15   4 -17    3.85    0.60
  15   4 -17    3.94    0.73
 -15  -4  17    3.66    0.11
  13   4 -17   16.07    0.91
  13   4 -17   16.54    1.13
 -13  -4  17   13.24    0.37
  11   4 -17    2.94    0.57
  11   4 -17    2.69    0.49
 -11  -4  17    2.05    0.06
 -11  -4  17    1.88    0.33
   9   4 -17    8.53    0.70
  -9  -4  17    6.20    0.18
  -9  -4  17    6.34    0.46
   7   4 -17    3.67    0.42
  -7  -4  17    2.76    0.30
  -7  -4  17    2.30    0.07
   5   4 -17    8.28    0.53
   3   4 -17    4.18    0.45
   1   4 -17   15.60    0.63
  -1   4 -17   15.04    0.59
  -7   4 -17    2.49    0.30
 -15   4 -17    3.66    0.11
 -17   4 -17    2.67    0.08
  18   3 -17    4.94    0.67
  18   3 -17    5.58    0.82
 -18  -3  17    5.06    0.15
  16   3 -17    5.10    0.62
  16   3 -17    5.17    0.77
 -16  -3  17    4.31    0.12
  14   3 -17    8.78    0.98
  14   3 -17    7.76    0.77
 -14  -3  17    6.85    0.19
  12   3 -17    3.16    0.50
  12   3 -17    2.57    0.66
 -12  -3  17    2.27    0.07
 -12  -3  17    2.09    0.35
  10   3 -17   12.41    0.91
  10   3 -17   13.65    0.75
 -10  -3  17    9.69    0.55
 -10  -3  17    9.70    0.27
   8   3 -17    3.18    0.41
  -8  -3  17    2.30    0.29
  -8  -3  17    2.22    0.07
   6   3 -17   12.30    0.67
  -6  -3  17    8.83    0.50
   4   3 -17    3.61    0.46
   2   3 -17   10.32    0.53
   0   3 -17   10.52    0.45
  -6   3 -17   10.10    0.47
  -8   3 -17    2.18    0.32
 -12   3 -17    2.31    0.07
 -14   3 -17    7.09    0.20
 -16   3 -17    4.04    0.12
 -18   3 -17    4.59    0.13
  17   2 -17   11.33    0.93
  17   2 -17   10.05    0.88
 -17  -2  17   10.12    0.29
  15   2 -17    2.34    0.69
  15   2 -17    2.00    0.53
 -15  -2  17    2.10    0.07
  13   2 -17    4.08    0.52
  13   2 -17    4.42    0.62
 -13  -2  17    2.93    0.09
 -13  -2  17    3.16    0.38
  11   2 -17   12.78    0.75
  11   2 -17   11.91    0.89
 -11  -2  17    9.83    0.56
 -11  -2  17    9.79    0.28
   9   2 -17    1.63    0.38
  -9  -2  17    1.72    0.29
  -9  -2  17    1.37    0.04
   7   2 -17    5.96    0.57
  -7  -2  17    4.46    0.13
  -7  -2  17    4.21    0.37
   5   2 -17    9.19    0.55
  -5  -2  17    7.06    0.42
   3   2 -17   10.79    0.55
   1   2 -17    0.03    0.04
  -1   2 -17   18.11    0.61
  -5   2 -17    7.38    0.37
  -7   2 -17    4.78    0.37
  -9   2 -17    1.47    0.04
 -11   2 -17   10.23    0.29
 -13   2 -17    3.10    0.09
 -15   2 -17    2.11    0.06
 -17   2 -17    8.69    0.24
  18   1 -17   15.02    1.02
  18   1 -17   14.09    0.88
 -18  -1  17   13.71    0.39
  16   1 -17    6.71    0.78
  16   1 -17    6.56    0.71
 -16  -1  17    6.15    0.18
  14   1 -17    6.91    0.78
  14   1 -17    6.62    0.70
 -14  -1  17    5.21    0.15
  12   1 -17   11.98    0.99
  12   1 -17   10.85    0.73
 -12  -1  17    8.58    0.60
 -12  -1  17    8.87    0.25
  10   1 -17    4.99    0.56
  10   1 -17    5.03    0.69
 -10  -1  17    4.15    0.46
 -10  -1  17    3.82    0.11
   8   1 -17   11.08    0.67
  -8  -1  17    7.61    0.22
  -8  -1  17    8.04    0.45
   6   1 -17   10.00    0.58
  -6  -1  17    7.35    0.43
   4   1 -17   16.82    0.66
  -4  -1  17   14.10    0.56
   0   1 -17   39.89    1.19
  -2   1 -17   18.44    0.60
  -4   1 -17   13.91    0.49
  -6   1 -17    7.76    0.37
  -8   1 -17    8.15    0.40
  -8   1 -17    8.11    0.23
   8  -1  17    9.00    0.55
 -10   1 -17    3.88    0.11
 -12   1 -17    8.73    0.24
 -14   1 -17    4.98    0.14
 -16   1 -17    5.58    0.16
 -18   1 -17   11.15    0.31
  17   0 -17   25.38    1.34
  17   0 -17   23.30    1.16
 -17   0  17   21.31    0.60
  15   0 -17    8.82    0.76
  15   0 -17    8.99    0.96
 -15   0  17    7.49    0.21
  13   0 -17    7.27    0.67
  13   0 -17    7.72    0.78
 -13   0  17    6.00    0.17
 -13   0  17    5.29    0.52
  11   0 -17    0.23    0.36
  11   0 -17    0.86    0.58
 -11   0  17    0.42    0.02
 -11   0  17    0.65    0.32
   9   0 -17   15.43    1.04
   9   0 -17   16.34    0.78
  -9   0  17   11.88    0.33
  -9   0  17   11.23    0.54
   7   0 -17    1.96    0.31
  -7   0  17    1.57    0.26
   5   0 -17   13.96    0.60
  -5   0  17   10.56    0.46
   1   0 -17   38.98    1.15
  -5   0 -17   11.85    0.42
  -7   0 -17    1.30    0.20
  -9   0 -17   12.29    0.35
  -9   0 -17   12.54    0.52
 -11   0 -17    0.39    0.02
 -13   0 -17    6.01    0.17
 -15   0 -17    7.19    0.20
 -17   0 -17   18.60    0.52
  18  -1 -17   12.96    0.86
  18  -1 -17   15.03    1.13
 -18   1  17   12.54    0.35
  16  -1 -17    6.64    0.70
  16  -1 -17    6.82    0.75
 -16   1  17    6.42    0.18
  14  -1 -17    5.65    0.65
  14  -1 -17    6.32    0.75
 -14   1  17    5.27    0.15
 -14   1  17    4.63    0.55
  12  -1 -17   11.14    0.95
  12  -1 -17   10.87    0.75
 -12   1  17    8.90    0.25
 -12   1  17    8.83    0.56
  10  -1 -17    5.42    0.52
  10  -1 -17    5.55    0.61
 -10   1  17    3.99    0.47
 -10   1  17    3.82    0.11
   8  -1 -17   10.35    0.60
  -8   1  17    8.68    0.49
   6  -1 -17    8.98    0.50
  -6   1  17    6.81    0.39
   4  -1 -17    0.01    0.05
  -4   1  17   13.59    0.51
   2  -1 -17   18.05    0.58
  -6  -1 -17    8.65    0.35
  -8  -1 -17    9.43    0.42
 -10  -1 -17    3.89    0.41
 -10  -1 -17    3.87    0.11
 -12  -1 -17    8.76    0.25
 -14  -1 -17    4.82    0.14
 -16  -1 -17    5.59    0.16
 -18  -1 -17   12.14    0.34
  17  -2 -17    9.72    0.88
  17  -2 -17   10.50    0.84
 -17   2  17    9.48    0.27
  15  -2 -17    3.13    0.66
  15  -2 -17    2.57    0.50
 -15   2  17    2.22    0.07
  13  -2 -17    3.19    0.46
  13  -2 -17    4.22    0.66
 -13   2  17    3.13    0.09
 -13   2  17    2.69    0.38
  11  -2 -17   13.38    0.97
  11  -2 -17   13.66    0.75
 -11   2  17   10.52    0.29
 -11   2  17   10.04    0.52
 -11   2  17   10.82    0.58
   9  -2 -17    1.25    0.30
   9  -2 -17    1.69    0.47
  -9   2  17    1.40    0.04
  -9   2  17    1.42    0.27
   7  -2 -17    5.51    0.44
  -7   2  17    4.84    0.40
  -5   2  17    6.90    0.36
  -3   2  17    8.44    0.36
  -7  -2 -17    5.01    0.28
  -9  -2 -17    1.37    0.20
 -11  -2 -17    9.94    0.28
 -13  -2 -17    3.07    0.09
 -15  -2 -17    2.04    0.06
 -17  -2 -17    9.19    0.26
  18  -3 -17    4.69    0.67
 -18   3  17    5.14    0.15
  16  -3 -17    4.31    0.71
 -16   3  17    4.40    0.13
  14  -3 -17    8.22    0.69
  14  -3 -17    9.10    0.79
 -14   3  17    7.68    0.22
  12  -3 -17    3.15    0.61
  12  -3 -17    2.53    0.41
 -12   3  17    2.38    0.07
 -12   3  17    2.28    0.36
  10  -3 -17   12.37    0.91
  10  -3 -17   12.26    0.68
 -10   3  17   10.62    0.57
 -10   3  17   10.79    0.30
   8  -3 -17    3.67    0.44
  -8   3  17    2.16    0.27
  -6   3  17    9.74    0.46
  -4   3  17    2.71    0.27
  -2   3  17    8.19    0.32
  -8  -3 -17    2.94    0.26
 -10  -3 -17   10.05    0.46
 -12  -3 -17    2.32    0.07
 -14  -3 -17    6.76    0.19
 -16  -3 -17    3.88    0.11
 -18  -3 -17    4.72    0.13
  17  -4 -17    3.10    0.69
 -17   4  17    3.05    0.09
  15  -4 -17    3.87    0.59
 -15   4  17    4.10    0.12
  13  -4 -17   16.11    0.93
 -13   4  17   15.41    0.44
 -13   4  17   16.95    1.12
  11  -4 -17    2.94    0.58
 -11   4  17    2.65    0.08
 -11   4  17    2.11    0.34
   9  -4 -17    8.43    0.80
  -9   4  17    7.16    0.47
  -9   4  17    6.79    0.19
  -7   4  17    2.89    0.30
  -5   4  17    6.73    0.39
  -3   4  17    2.90    0.24
  -9  -4 -17    7.10    0.36
 -11  -4 -17    2.18    0.06
 -13  -4 -17   13.63    0.38
 -15  -4 -17    3.55    0.10
 -17  -4 -17    2.79    0.08
  16  -5 -17    0.11    0.49
 -16   5  17    0.21    0.02
  14  -5 -17    3.64    0.65
 -14   5  17    3.23    0.10
  12  -5 -17   17.94    1.04
 -12   5  17   16.79    0.47
 -12   5  17   16.81    0.79
  10  -5 -17    4.32    0.61
 -10   5  17    4.57    0.47
  -8   5  17    4.18    0.44
  -6   5  17    1.15    0.24
  -4   5  17    7.46    0.38
  -2   5  17    7.24    0.30
 -10  -5 -17    4.49    0.35
  10   5  17    4.92    0.44
 -12  -5 -17   16.55    0.46
  12   5  17   16.80    0.72
 -14  -5 -17    2.82    0.08
  14   5  17    2.83    0.42
 -16  -5 -17    0.33    0.02
  17  -6 -17    1.76    0.66
 -17   6  17    1.48    0.05
  15  -6 -17    0.42    0.48
 -15   6  17    0.91    0.04
  13  -6 -17    4.77    0.65
  11  -6 -17   16.43    0.96
 -11   6  17   14.21    0.71
   9  -6 -17    4.31    0.56
  -9   6  17    4.02    0.50
  -7   6  17    1.34    0.29
  -5   6  17    1.14    0.25
  -3   6  17   10.40    0.43
  -1   6  17    7.97    0.30
   7   6  17    1.90    0.23
   9   6  17    4.53    0.38
  11   6  17   14.50    0.66
 -13  -6 -17    3.34    0.09
  13   6  17    3.62    0.41
 -15  -6 -17    0.74    0.03
  15   6  17    0.99    0.35
 -17  -6 -17    1.95    0.06
  17   6  17    1.38    0.40
  16  -7 -17   -0.39    0.57
 -16   7  17    0.08    0.03
  14  -7 -17    4.76    0.65
  12  -7 -17    6.61    0.67
  10  -7 -17   18.34    0.98
 -10   7  17   17.14    0.81
  -8   7  17    5.34    0.52
  -6   7  17    1.86    0.32
  -4   7  17    3.50    0.39
  -2   7  17    5.80    0.35
   0   7  17    2.10    0.21
   6   7  17    1.54    0.20
   8   7  17    5.13    0.38
  10   7  17   16.63    0.68
  12   7  17    5.48    0.54
 -14  -7 -17    4.90    0.14
  14   7  17    5.17    0.55
 -16  -7 -17    0.17    0.02
  16   7  17    0.01    0.35
  15  -8 -17    0.36    0.55
  13  -8 -17   12.03    0.89
  11  -8 -17   11.00    0.84
  -9   8  17   26.43    1.03
  -7   8  17    5.49    0.51
  -5   8  17    3.79    0.44
  -3   8  17    3.01    0.37
  -1   8  17   11.34    0.47
   1   8  17    9.11    0.33
   3   8  17    2.60    0.18
   5   8  17    3.62    0.25
   7   8  17    5.19    0.34
   9   8  17   25.05    0.88
  11   8  17   10.06    0.61
  13   8  17   11.42    0.65
 -15  -8 -17    0.55    0.02
  15   8  17    0.49    0.39
  16  -9 -17    0.99    0.58
  14  -9 -17    4.15    0.61
  12  -9 -17   18.34    1.00
  10  -9 -17   12.07    0.82
  -8   9  17   26.15    1.01
  -6   9  17    4.30    0.46
  -4   9  17    8.07    0.46
  -2   9  17    1.85    0.26
   2   9  17    1.54    0.16
   4   9  17    6.80    0.32
   6   9  17    3.74    0.30
   8   9  17   23.80    0.81
  10   9  17   10.84    0.56
  12   9  17   17.03    0.79
  14   9  17    4.41    0.55
 -16  -9 -17    0.56    0.02
  16   9  17    0.14    0.41
  15 -10 -17    2.24    0.58
  13 -10 -17    7.02    0.75
  11 -10 -17   28.09    1.19
  -7  10  17   16.69    0.76
  -5  10  17    4.50    0.44
  -3  10  17   12.04    0.55
   1  10  17    4.65    0.33
   3  10  17   10.27    0.41
   5  10  17    3.96    0.30
   7  10  17   15.20    0.59
   9  10  17   10.70    0.55
  11  10  17   26.84    1.00
  13  10  17    5.78    0.57
  15  10  17    2.06    0.44
  14 -11 -17    2.97    0.62
  12 -11 -17    7.67    0.73
  -6  11  17   15.76    0.77
  -4  11  17    2.50    0.33
   2  11  17   11.74    0.48
   4  11  17    1.99    0.23
   6  11  17   13.93    0.56
   8  11  17   10.80    0.53
  10  11  17   26.07    0.96
  12  11  17    8.39    0.64
  14  11  17    3.36    0.45
  13 -12 -17    5.11    0.57
  -3  12  17    2.25    0.32
   3  12  17    2.38    0.27
   5  12  17   15.48    0.61
   7  12  17    6.24    0.43
   9  12  17   16.88    0.71
  11  12  17    6.68    0.58
  13  12  17    6.06    0.58
  12 -13 -17    6.61    0.72
   2  13  17    3.40    0.39
   4  13  17   14.02    0.58
   6  13  17    3.54    0.40
   8  13  17   11.10    0.58
  10  13  17    5.91    0.49
  12  13  17    5.48    0.55
   3  14  17    7.42    0.45
   5  14  17    2.79    0.32
   7  14  17    4.24    0.42
   9  14  17    3.54    0.37
  11  14  17    2.76    0.39
   2  15  17    2.22    0.35
   4  15  17    4.12    0.42
   6  15  17    0.67    0.32
   8  15  17    0.24    0.35
  10  15  17    2.16    0.37
   1  16  17    6.26    0.52
   3  16  17    3.91    0.46
   5  16  17    0.29    0.30
   7  16  17    0.01    0.35
   9  16  17    0.30    0.34
   2  17  17    9.85    0.60
   4  17  17    2.62    0.40
   6  17  17    1.55    0.35
   1  18  17   13.92    0.73
   3  18  17    5.89    0.55
   0  18 -18    1.82    0.49
   0 -18  18    2.08    0.07
   5  17 -18    1.04    0.49
  -5 -17  18    1.69    0.06
   3  17 -18    5.81    0.73
  -3 -17  18    7.44    0.21
   1  17 -18   18.85    1.01
  -1 -17  18   26.17    0.73
   1 -17  18   27.08    0.76
   3 -17  18    8.50    0.24
   5 -17  18    1.46    0.06
   8  16 -18    0.95    0.47
  -8 -16  18    1.59    0.06
   6  16 -18    1.65    0.47
  -6 -16  18    2.02    0.06
   4  16 -18    1.24    0.48
  -4 -16  18    2.79    0.09
   2  16 -18    5.44    0.59
  -2 -16  18    7.34    0.21
   0  16 -18   16.42    0.93
   0 -16  18   20.84    0.58
   2 -16  18    7.55    0.21
   4 -16  18    2.57    0.08
   6 -16  18    2.20    0.07
   8 -16  18    1.61    0.06
   9  15 -18    2.55    0.53
  -9 -15  18    2.69    0.08
   7  15 -18    1.08    0.38
  -7 -15  18    2.00    0.07
   5  15 -18    1.83    0.39
  -5 -15  18    2.39    0.08
   3  15 -18    2.94    0.42
  -3 -15  18    3.98    0.12
   1  15 -18    2.53    0.42
  -1 -15  18    3.85    0.11
   1 -15  18    4.20    0.12
   3 -15  18    3.93    0.12
   5 -15  18    2.29    0.07
   7 -15  18    1.95    0.06
   9 -15  18    2.66    0.08
  10  14 -18    0.78    0.50
 -10 -14  18    1.41    0.05
   8  14 -18    2.27    0.49
  -8 -14  18    3.51    0.10
   6  14 -18    3.52    0.47
  -6 -14  18    4.83    0.14
   4  14 -18    2.51    0.45
  -4 -14  18    3.70    0.11
   2  14 -18    3.63    0.48
  -2 -14  18    5.17    0.15
   0  14 -18    5.02    0.54
   0 -14  18    6.72    0.19
   2 -14  18    5.08    0.15
   4 -14  18    3.56    0.10
   6 -14  18    4.78    0.14
   8 -14  18    3.26    0.10
  10 -14  18    1.30    0.05
  11  13 -18    3.66    0.51
 -11 -13  18    4.19    0.12
   9  13 -18    7.32    0.72
  -9 -13  18    9.31    0.26
   7  13 -18    7.62    0.67
  -7 -13  18    9.17    0.26
   5  13 -18    7.88    0.65
   3  13 -18    9.07    0.66
  -3 -13  18   13.25    0.37
   1  13 -18    1.81    0.42
  -1 -13  18    2.05    0.07
   1 -13  18    1.96    0.06
   3 -13  18   12.48    0.35
   5 -13  18    9.53    0.27
   7 -13  18    9.15    0.26
   9 -13  18    9.29    0.26
 -11  13 -18    4.15    1.36
  12  12 -18    1.26    0.56
 -12 -12  18    1.58    0.06
  10  12 -18   28.85    1.22
 -10 -12  18   32.54    0.91
   8  12 -18   10.23    0.76
  -8 -12  18   11.72    0.33
   6  12 -18    3.57    0.46
  -6 -12  18    4.77    0.14
   4  12 -18   10.49    0.67
  -4 -12  18   14.70    0.41
   2  12 -18    1.22    0.37
  -2 -12  18    2.05    0.07
   0  12 -18    5.65    0.58
   0 -12  18    7.48    0.21
   2 -12  18    1.73    0.06
   4 -12  18   13.47    0.38
   6 -12  18    4.55    0.13
   8 -12  18   11.24    0.32
 -10  12 -18   33.77    2.30
  10 -12  18   33.93    0.95
 -12  12 -18    1.66    1.27
  13  11 -18    2.86    0.60
 -13 -11  18    3.88    0.11
  11  11 -18    9.59    0.72
 -11 -11  18   11.90    0.33
   9  11 -18   16.65    0.92
  -9 -11  18   19.15    0.54
   7  11 -18   18.16    0.81
  -7 -11  18   23.02    0.64
   5  11 -18    9.11    0.62
  -5 -11  18   10.74    0.30
   3  11 -18    2.03    0.38
  -3 -11  18    2.87    0.09
   1  11 -18    5.23    0.54
  -1 -11  18    6.12    0.17
   1 -11  18    5.87    0.17
   3 -11  18    2.66    0.08
   5 -11  18   10.04    0.28
   7 -11  18   22.28    0.62
  -9  11 -18   16.48    1.61
   9 -11  18   18.96    0.53
 -11  11 -18   13.81    1.79
 -13  11 -18    3.51    1.16
  14  10 -18    1.15    0.57
 -14 -10  18    1.05    0.04
  12  10 -18   31.32    1.32
 -12 -10  18   31.47    0.88
  10  10 -18   15.16    0.93
 -10 -10  18   16.69    0.47
   6  10 -18    7.96    0.60
  -6 -10  18    8.75    0.25
   4  10 -18    1.25    0.35
  -4 -10  18    1.60    0.05
   2  10 -18    4.74    0.50
  -2 -10  18    6.44    0.18
   0  10 -18    0.77    0.33
   0 -10  18    1.03    0.04
   2 -10  18    5.94    0.17
   4 -10  18    1.74    0.06
  -6  10 -18    9.15    1.31
   6 -10  18    9.16    0.26
  -8  10 -18   35.61    2.10
   8 -10  18   33.79    0.94
 -10  10 -18   14.59    1.79
 -12  10 -18   36.85    2.36
 -14  10 -18    1.35    1.24
  15   9 -18    2.48    0.60
 -15  -9  18    2.09    0.07
  13   9 -18    7.81    0.70
 -13  -9  18    8.27    0.23
  11   9 -18   18.20    1.01
 -11  -9  18   17.00    0.48
   9   9 -18   21.41    1.00
  -9  -9  18   21.83    0.61
   7   9 -18    8.12    0.63
  -7  -9  18    7.68    0.22
   5   9 -18    4.64    0.51
  -5  -9  18    4.67    0.13
   3   9 -18    3.66    0.42
  -3  -9  18    4.32    0.12
   1   9 -18    2.46    0.34
  -1  -9  18    3.34    0.10
   1  -9  18    3.38    0.10
  -3   9 -18    3.84    0.77
   3  -9  18    4.29    0.12
  -5   9 -18    4.34    0.89
   5  -9  18    4.54    0.13
  -7   9 -18    8.78    1.13
   7  -9  18    7.87    0.22
  -9   9 -18   25.39    1.88
   9  -9  18   24.00    0.67
 -11   9 -18   17.86    1.87
 -13   9 -18    9.00    1.46
 -15   9 -18    3.44    1.29
  16   8 -18    0.85    0.48
  16   8 -18    2.00    0.61
 -16  -8  18    0.97    0.04
  14   8 -18    3.04    0.60
 -14  -8  18    2.67    0.08
  12   8 -18   11.20    0.86
 -12  -8  18   10.73    0.30
  10   8 -18   32.72    1.29
 -10  -8  18   30.31    0.85
   8   8 -18   10.93    0.71
  -8  -8  18    9.12    0.26
   6   8 -18    5.01    0.53
  -6  -8  18    4.52    0.13
   4   8 -18    2.17    0.39
   4   8 -18    2.67    0.46
  -4  -8  18    2.62    0.08
   2   8 -18    2.13    0.53
   2   8 -18    1.94    0.32
  -2  -8  18    2.46    0.07
   0   8 -18    6.04    0.47
   0   8 -18    5.27    0.84
   0  -8  18    7.31    0.21
  -2   8 -18    1.98    0.65
   2  -8  18    2.28    0.07
  -4   8 -18    3.08    0.77
   4  -8  18    2.66    0.08
  -6   8 -18    5.62    0.96
   6  -8  18    4.93    0.14
  -8   8 -18    9.94    1.37
   8  -8  18   10.03    0.28
 -10   8 -18   34.44    2.11
 -12   8 -18    9.14    1.43
 -14   8 -18    2.98    1.05
  15   7 -18    1.91    0.49
  15   7 -18    1.95    0.71
 -15  -7  18    1.38    0.05
  13   7 -18    8.21    0.81
 -13  -7  18    8.19    0.23
  11   7 -18   21.20    1.02
 -11  -7  18   19.73    0.55
   9   7 -18    7.88    0.69
  -9  -7  18    7.07    0.20
   7   7 -18    5.16    0.56
  -7  -7  18    4.38    0.12
   5   7 -18    0.29    0.31
  -5  -7  18    0.44    0.02
   3   7 -18    4.62    0.44
   3   7 -18    4.42    0.61
  -3  -7  18    5.01    0.14
   1   7 -18    3.30    0.59
   1   7 -18    3.82    0.46
  -1  -7  18    4.21    0.12
  -1   7 -18    3.55    0.69
  -1   7 -18    3.75    0.41
   1  -7  18    4.08    0.12
  -3   7 -18    5.30    0.92
   3  -7  18    4.98    0.14
  -5   7 -18    0.39    0.68
   5  -7  18    0.50    0.02
  -7   7 -18    5.55    0.96
   7  -7  18    4.71    0.13
  -9   7 -18    7.64    1.18
 -11   7 -18   20.74    1.62
  16   6 -18    2.19    0.58
  16   6 -18    1.60    0.72
 -16  -6  18    1.53    0.05
  14   6 -18    4.80    0.77
  14   6 -18    4.33    0.61
 -14  -6  18    3.58    0.10
  12   6 -18    3.87    0.57
 -12  -6  18    4.08    0.12
  10   6 -18    9.82    0.73
 -10  -6  18    7.83    0.22
 -10  -6  18    7.24    0.55
   8   6 -18    5.26    0.58
  -8  -6  18    4.34    0.12
   6   6 -18    0.03    0.33
   4   6 -18    3.58    0.44
  -4  -6  18    3.35    0.10
   2   6 -18    6.87    0.46
  -2  -6  18    7.52    0.21
   0   6 -18    9.06    0.88
   0   6 -18    8.28    0.47
  -2   6 -18    5.92    0.87
  -4   6 -18    3.13    0.75
  -6   6 -18    0.54    0.70
   6  -6  18    0.03    0.01
  -8   6 -18    5.51    1.00
   8  -6  18    5.14    0.15
 -10   6 -18    7.61    1.36
  17   5 -18    1.04    0.73
  17   5 -18    1.42    0.48
 -17  -5  18    1.00    0.04
  15   5 -18    1.82    0.54
  15   5 -18    2.39    0.72
 -15  -5  18    1.59    0.05
  13   5 -18   10.16    0.91
  13   5 -18    9.01    0.80
 -13  -5  18    7.58    0.21
  11   5 -18   10.31    0.74
 -11  -5  18    8.59    0.24
 -11  -5  18    7.73    0.56
   9   5 -18    5.41    0.59
  -9  -5  18    3.85    0.11
  -9  -5  18    4.45    0.45
   7   5 -18    0.40    0.35
  -7  -5  18    0.41    0.02
   5   5 -18    3.70    0.38
  -5  -5  18    2.72    0.08
   3   5 -18    5.60    0.49
   1   5 -18   14.87    0.63
  -1   5 -18   14.02    0.59
 -15   5 -18    1.73    0.05
 -17   5 -18    1.12    0.04
  16   4 -18    1.14    0.54
  16   4 -18    3.24    0.73
 -16  -4  18    1.91    0.06
  14   4 -18    3.53    0.74
  14   4 -18    3.42    0.56
 -14  -4  18    2.73    0.08
  12   4 -18   14.06    1.07
  12   4 -18   13.68    0.83
 -12  -4  18    9.44    0.61
 -12  -4  18   10.62    0.29
  10   4 -18    1.55    0.43
 -10  -4  18    1.30    0.04
 -10  -4  18    1.27    0.30
   8   4 -18    3.00    0.41
  -8  -4  18    2.28    0.33
  -8  -4  18    2.22    0.07
   6   4 -18    4.54    0.55
  -6  -4  18    2.86    0.08
   4   4 -18    2.44    0.35
   2   4 -18   12.37    0.57
   0   4 -18    4.50    0.41
  -2   4 -18   12.01    0.54
 -14   4 -18    2.84    0.08
 -16   4 -18    1.71    0.05
  17   3 -18    6.94    0.76
  17   3 -18    7.37    0.84
 -17  -3  18    5.90    0.17
  15   3 -18    3.76    0.74
  15   3 -18    3.81    0.57
 -15  -3  18    2.65    0.08
  13   3 -18   11.72    0.80
  13   3 -18   11.94    0.93
 -13  -3  18    9.09    0.25
 -13  -3  18    7.71    0.58
  11   3 -18    2.54    0.45
  11   3 -18    3.11    0.58
 -11  -3  18    1.93    0.33
 -11  -3  18    2.20    0.06
   9   3 -18    4.78    0.51
  -9  -3  18    3.67    0.40
  -9  -3  18    3.38    0.10
   7   3 -18    5.03    0.56
  -7  -3  18    3.76    0.11
  -7  -3  18    4.14    0.37
   5   3 -18    6.42    0.52
   3   3 -18   11.59    0.56
   1   3 -18   10.91    0.51
  -1   3 -18    0.08    0.06
  -7   3 -18    4.16    0.35
 -11   3 -18    2.46    0.07
 -13   3 -18    9.46    0.27
 -15   3 -18    2.75    0.08
 -17   3 -18    5.24    0.15
  16   2 -18    5.12    0.62
  16   2 -18    5.67    0.72
 -16  -2  18    4.94    0.14
  14   2 -18    4.26    0.74
  14   2 -18    4.56    0.56
 -14  -2  18    3.43    0.10
  12   2 -18    1.84    0.66
  12   2 -18    1.80    0.45
 -12  -2  18    1.51    0.32
 -12  -2  18    1.26    0.04
  10   2 -18    5.89    0.58
 -10  -2  18    4.75    0.44
 -10  -2  18    4.44    0.13
   8   2 -18    2.41    0.37
  -8  -2  18    1.83    0.27
  -8  -2  18    1.73    0.05
   6   2 -18    7.93    0.55
  -6  -2  18    6.15    0.42
   4   2 -18   13.77    0.61
   2   2 -18    0.19    0.13
   0   2 -18   67.68    1.98
  -2   2 -18    0.70    0.19
  -6   2 -18    6.08    0.17
  -6   2 -18    6.34    0.36
  -8   2 -18    1.47    0.25
  -8   2 -18    1.95    0.05
 -10   2 -18    4.73    0.13
 -12   2 -18    1.53    0.05
 -14   2 -18    3.46    0.10
 -16   2 -18    4.82    0.14
  17   1 -18   20.24    1.09
  17   1 -18   21.34    1.30
 -17  -1  18   18.37    0.51
  15   1 -18    3.00    0.53
  15   1 -18    3.15    0.61
 -15  -1  18    2.98    0.09
  13   1 -18    2.37    0.47
  13   1 -18    2.60    0.67
 -13  -1  18    1.82    0.33
 -13  -1  18    1.46    0.05
  11   1 -18    6.13    0.75
  11   1 -18    6.00    0.60
 -11  -1  18    4.26    0.44
 -11  -1  18    4.30    0.12
   9   1 -18    3.39    0.40
  -9  -1  18    2.45    0.07
  -9  -1  18    2.90    0.37
   7   1 -18    4.29    0.50
  -7  -1  18    3.94    0.39
   5   1 -18   16.82    0.69
  -5  -1  18   12.67    0.52
   3   1 -18    0.07    0.06
   1   1 -18   19.40    0.66
  -1   1 -18   18.94    0.62
  -3   1 -18    9.57    0.38
  -3   1 -18   10.34    0.38
  -5   1 -18   13.71    0.49
  -7   1 -18    3.65    0.31
  -9   1 -18    2.06    0.29
  -9   1 -18    2.40    0.07
 -11   1 -18    4.48    0.13
 -13   1 -18    1.49    0.05
 -15   1 -18    2.56    0.07
 -17   1 -18   16.34    0.46
  18   0 -18    0.77    0.73
 -18   0  18    1.79    0.06
  16   0 -18   16.03    0.96
  16   0 -18   18.50    1.19
 -16   0  18   14.69    0.41
  14   0 -18    5.22    0.67
  14   0 -18    6.64    0.77
 -14   0  18    4.53    0.13
  12   0 -18    7.24    0.70
  12   0 -18    6.86    0.62
 -12   0  18    4.42    0.47
 -12   0  18    5.30    0.15
  10   0 -18    1.57    0.59
  10   0 -18    0.57    0.39
 -10   0  18    0.80    0.03
 -10   0  18    0.30    0.29
   8   0 -18    7.62    0.56
  -8   0  18    4.92    0.14
  -8   0  18    5.61    0.42
   6   0 -18   10.44    0.58
  -6   0  18    7.37    0.42
  -4   0  18    3.91    0.33
  -4   0  18    3.37    0.48
   2   0 -18   68.73    1.99
   0   0 -18   -0.17    0.12
  -6   0 -18    7.71    0.34
  -8   0 -18    5.99    0.35
 -10   0 -18    0.70    0.02
 -12   0 -18    5.15    0.14
 -14   0 -18    4.36    0.12
 -16   0 -18   13.16    0.37
 -18   0 -18    1.59    0.05
  17  -1 -18   23.05    1.29
  17  -1 -18   20.13    1.14
 -17   1  18   17.92    0.50
  15  -1 -18    3.42    0.51
  15  -1 -18    2.49    0.59
 -15   1  18    2.58    0.08
  13  -1 -18    1.74    0.63
  13  -1 -18    1.73    0.42
 -13   1  18    1.65    0.05
 -13   1  18    2.07    0.44
  11  -1 -18    6.26    0.73
  11  -1 -18    5.38    0.61
 -11   1  18    4.36    0.44
 -11   1  18    4.46    0.13
   9  -1 -18    2.72    0.35
  -9   1  18    2.53    0.31
  -9   1  18    2.24    0.07
   7  -1 -18    3.93    0.48
  -7   1  18    3.33    0.36
   5  -1 -18   12.63    0.51
  -5   1  18   13.22    0.53
   3  -1 -18    9.99    0.42
  -3   1  18    9.38    0.39
  -7  -1 -18    3.98    0.28
  -9  -1 -18    2.80    0.30
 -11  -1 -18    4.24    0.12
 -13  -1 -18    1.53    0.05
 -15  -1 -18    2.88    0.08
 -17  -1 -18   16.15    0.45
  16  -2 -18    6.09    0.79
  16  -2 -18    6.31    0.74
 -16   2  18    5.46    0.16
  14  -2 -18    3.70    0.50
  14  -2 -18    3.35    0.69
 -14   2  18    3.74    0.11
  12  -2 -18    2.80    0.63
  12  -2 -18    1.29    0.38
 -12   2  18    1.46    0.05
 -12   2  18    1.67    0.32
  10  -2 -18    5.00    0.60
  10  -2 -18    5.31    0.49
 -10   2  18    4.78    0.47
 -10   2  18    4.50    0.13
   8  -2 -18    2.21    0.33
  -8   2  18    2.09    0.29
   6  -2 -18    7.29    0.45
  -6   2  18    5.91    0.37
  -4   2  18   10.53    0.43
  -8  -2 -18    1.88    0.23
 -10  -2 -18    4.62    0.32
 -12  -2 -18    1.38    0.04
 -14  -2 -18    3.44    0.10
 -16  -2 -18    4.75    0.13
  17  -3 -18    5.29    0.77
 -17   3  18    5.76    0.16
  15  -3 -18    3.84    0.69
 -15   3  18    3.07    0.09
  13  -3 -18   11.46    0.97
  13  -3 -18   11.16    0.76
 -13   3  18   10.30    0.29
  11  -3 -18    2.25    0.61
  11  -3 -18    2.45    0.41
 -11   3  18    2.29    0.07
 -11   3  18    2.05    0.32
   9  -3 -18    4.54    0.48
  -9   3  18    3.36    0.38
  -9   3  18    3.38    0.10
  -7   3  18    4.07    0.37
  -5   3  18    5.04    0.35
  -3   3  18    8.95    0.36
  -9  -3 -18    3.82    0.30
 -13  -3 -18    9.03    0.25
 -15  -3 -18    2.60    0.07
 -17  -3 -18    5.44    0.15
  16  -4 -18    2.82    0.68
 -16   4  18    1.95    0.06
  14  -4 -18    2.96    0.66
 -14   4  18    3.20    0.09
  12  -4 -18   12.06    0.84
 -12   4  18   12.11    0.34
  10  -4 -18    1.18    0.54
 -10   4  18    1.63    0.33
 -10   4  18    1.45    0.05
  -8   4  18    2.70    0.28
  -6   4  18    3.82    0.37
  -4   4  18    1.82    0.21
  -2   4  18   10.70    0.37
 -10  -4 -18    1.83    0.22
 -14  -4 -18    2.52    0.07
 -16  -4 -18    2.08    0.06
  17  -5 -18    1.92    0.67
 -17   5  18    1.25    0.05
  15  -5 -18    2.66    0.65
 -15   5  18    2.04    0.06
  13  -5 -18   11.16    0.93
 -13   5  18    8.88    0.25
  11  -5 -18    9.87    0.87
 -11   5  18    9.41    0.27
 -11   5  18   10.01    0.59
  -9   5  18    4.85    0.48
  -7   5  18    0.44    0.25
  -5   5  18    2.78    0.33
  -3   5  18    5.21    0.30
 -15  -5 -18    1.73    0.05
 -17  -5 -18    1.15    0.04
  16  -6 -18    2.53    0.66
 -16   6  18    1.84    0.06
  14  -6 -18    4.97    0.69
 -14   6  18    4.37    0.13
  12  -6 -18    4.88    0.66
  10  -6 -18    9.19    0.82
 -10   6  18    9.09    0.61
  -8   6  18    4.72    0.46
  -6   6  18   -0.13    0.22
  -4   6  18    3.89    0.31
  -2   6  18    6.55    0.30
  10   6  18    8.94    0.49
  12   6  18    4.46    0.51
  14   6  18    4.15    0.52
 -16  -6 -18    1.69    0.05
  15  -7 -18    1.41    0.61
 -15   7  18    1.69    0.06
  13  -7 -18    8.99    0.76
  11  -7 -18   23.67    1.14
  -9   7  18    7.44    0.52
  -7   7  18    5.60    0.46
  -5   7  18    0.32    0.24
  -3   7  18    4.96    0.33
  -1   7  18    3.73    0.24
   7   7  18    4.98    0.32
   9   7  18    8.56    0.47
  11   7  18   22.44    0.84
  13   7  18    8.39    0.57
  15   7  18    1.36    0.40
  16  -8 -18    2.23    0.53
 -16   8  18    1.49    0.05
  14  -8 -18    3.52    0.63
  12  -8 -18   12.66    0.91
  -8   8  18   10.49    0.63
  -6   8  18    5.54    0.45
  -4   8  18    3.32    0.36
  -2   8  18    2.24    0.24
   0   8  18    7.33    0.32
   6   8  18    4.52    0.28
   8   8  18   10.92    0.50
  12   8  18   11.10    0.60
  14   8  18    2.90    0.44
  16   8  18    1.09    0.41
  15  -9 -18    1.94    0.58
  13  -9 -18    9.59    0.84
  11  -9 -18   17.26    1.07
  -7   9  18    8.00    0.56
  -5   9  18    4.95    0.46
  -3   9  18    4.64    0.40
  -1   9  18    3.60    0.33
   1   9  18    2.84    0.22
   3   9  18    3.59    0.22
   5   9  18    4.51    0.27
   7   9  18    8.63    0.42
   9   9  18   22.47    0.82
  11   9  18   16.50    0.71
  13   9  18    8.43    0.63
  15   9  18    1.71    0.41
  14 -10 -18    1.46    0.56
  12 -10 -18   32.24    1.33
  -6  10  18    9.50    0.56
  -4  10  18    1.90    0.30
  -2  10  18    5.60    0.40
   2  10  18    4.95    0.28
   4  10  18    1.47    0.19
   6  10  18    8.54    0.41
  10  10  18   15.26    0.69
  12  10  18   31.47    1.11
  14  10  18    1.18    0.40
  13 -11 -18    3.96    0.63
  -3  11  18    2.81    0.35
   1  11  18    4.99    0.35
   3  11  18    2.46    0.27
   5  11  18    9.22    0.41
   7  11  18   19.91    0.70
   9  11  18   17.08    0.70
  11  11  18   11.47    0.62
  13  11  18    4.26    0.53
   2  12  18    1.78    0.24
   4  12  18   11.23    0.48
   6  12  18    4.54    0.39
   8  12  18   10.57    0.53
  10  12  18   30.98    1.08
  12  12  18    1.66    0.42
   1  13  18    1.94    0.28
   3  13  18    9.70    0.46
   5  13  18    8.06    0.44
   7  13  18    8.61    0.49
   9  13  18    8.20    0.53
  11  13  18    4.47    0.54
   2  14  18    4.18    0.41
   4  14  18    2.65    0.30
   6  14  18    4.12    0.41
   8  14  18    3.50    0.45
  10  14  18    1.32    0.36
   1  15  18    3.97    0.47
   3  15  18    3.02    0.34
   5  15  18    1.75    0.28
   7  15  18    1.86    0.31
   9  15  18    2.49    0.38
   2  16  18    5.56    0.51
   4  16  18    2.08    0.34
   6  16  18    1.64    0.34
   8  16  18    1.03    0.36
   1  17  18   18.77    0.83
   3  17  18    5.64    0.50
   5  17  18    1.32    0.36
   4  17 -19    3.93    0.55
  -4 -17  19    5.80    0.17
   2  17 -19    8.48    0.77
  -2 -17  19   10.99    0.31
   0  17 -19   13.93    0.92
   0 -17  19   19.31    0.54
   2 -17  19   12.12    0.34
   4 -17  19    5.98    0.17
   7  16 -19    2.99    0.50
  -7 -16  19    4.60    0.13
   5  16 -19    1.77    0.48
  -5 -16  19    2.70    0.08
   3  16 -19    0.51    0.37
  -3 -16  19    0.80    0.04
   1  16 -19    8.73    0.76
  -1 -16  19   13.21    0.37
  -1  16 -19    9.94    0.81
   1 -16  19   13.76    0.39
   3 -16  19    1.07    0.04
   5 -16  19    2.80    0.09
   7 -16  19    4.31    0.13
   8  15 -19    2.32    0.50
  -8 -15  19    3.52    0.10
   6  15 -19    1.11    0.36
  -6 -15  19    1.66    0.06
   4  15 -19    2.70    0.48
  -4 -15  19    4.58    0.13
   2  15 -19    3.59    0.50
  -2 -15  19    5.39    0.16
   0  15 -19    3.08    0.51
   0 -15  19    4.32    0.13
   2 -15  19    5.51    0.16
   4 -15  19    4.12    0.12
   6 -15  19    1.99    0.07
   8 -15  19    3.42    0.10
   9  14 -19    8.33    0.75
   7  14 -19    1.29    0.44
  -7 -14  19    1.51    0.05
   5  14 -19    4.81    0.61
  -5 -14  19    5.56    0.16
   3  14 -19    3.86    0.48
  -3 -14  19    5.20    0.15
   1  14 -19    1.40    0.43
  -1 -14  19    2.31    0.07
   1 -14  19    2.00    0.07
   3 -14  19    4.71    0.14
   5 -14  19    5.16    0.15
   7 -14  19    1.71    0.06
   9 -14  19   10.40    0.29
  10  13 -19    7.43    0.76
 -10 -13  19    9.19    0.26
   8  13 -19    3.47    0.51
  -8 -13  19    5.01    0.14
   6  13 -19    6.41    0.62
  -6 -13  19    8.47    0.24
   4  13 -19    2.48    0.43
  -4 -13  19    3.70    0.11
   2  13 -19    2.46    0.42
  -2 -13  19    3.25    0.10
   0  13 -19    1.19    0.40
   0 -13  19    1.41    0.05
   2 -13  19    2.79    0.08
   4 -13  19    3.48    0.10
   6 -13  19    8.18    0.23
  -8  13 -19    4.66    1.22
   8 -13  19    4.82    0.14
 -10  13 -19   10.21    1.72
  10 -13  19    9.46    0.27
  11  12 -19    8.71    0.81
 -11 -12  19    9.85    0.28
   9  12 -19   11.30    0.80
  -9 -12  19   14.23    0.40
   7  12 -19   16.03    0.85
  -7 -12  19   18.74    0.53
   5  12 -19    3.47    0.44
  -5 -12  19    3.89    0.11
   3  12 -19    4.33    0.45
  -3 -12  19    6.10    0.17
   1  12 -19    1.23    0.38
  -1 -12  19    1.22    0.05
   1 -12  19    1.14    0.04
   3 -12  19    5.54    0.16
   5 -12  19    3.14    0.09
   7 -12  19   18.12    0.51
  -9  12 -19   11.70    1.53
   9 -12  19   14.41    0.40
 -11  12 -19   10.75    1.76
  12  11 -19    8.32    0.82
 -12 -11  19    9.44    0.27
  10  11 -19   18.90    0.91
 -10 -11  19   21.67    0.61
   8  11 -19   34.69    1.31
  -8 -11  19   39.27    1.10
   6  11 -19    6.52    0.60
  -6 -11  19    6.10    0.17
   4  11 -19    3.50    0.42
  -4 -11  19    4.30    0.12
   2  11 -19    0.40    0.33
  -2 -11  19    0.58    0.03
   0  11 -19    1.48    0.37
   0 -11  19    2.76    0.08
   2 -11  19    0.30    0.02
   4 -11  19    4.20    0.12
  -6  11 -19    4.95    1.07
   6 -11  19    5.37    0.15
  -8  11 -19   40.27    2.32
   8 -11  19   39.08    1.09
 -10  11 -19   21.26    1.76
 -12  11 -19   12.05    1.82
  13  10 -19    8.77    0.83
 -13 -10  19    8.61    0.24
  11  10 -19   19.84    1.04
 -11 -10  19   21.51    0.60
   9  10 -19   33.61    1.32
  -9 -10  19   37.30    1.04
   7  10 -19   10.61    0.70
  -7 -10  19   11.35    0.32
   5  10 -19    5.98    0.54
  -5 -10  19    6.43    0.18
   3  10 -19    0.92    0.34
  -3 -10  19    1.20    0.04
   1  10 -19    2.11    0.35
  -1 -10  19    2.99    0.09
  -1  10 -19    2.52    0.37
   1 -10  19    2.69    0.08
  -3  10 -19    0.81    0.70
   3 -10  19    1.19    0.04
  -5  10 -19    7.14    1.19
   5 -10  19    6.31    0.18
  -7  10 -19   11.72    1.48
   7 -10  19   11.52    0.32
  -9  10 -19   40.45    2.34
   9 -10  19   38.33    1.07
 -11  10 -19   20.27    1.75
 -13  10 -19   10.34    1.76
  14   9 -19    9.65    0.86
 -14  -9  19    9.12    0.26
  12   9 -19   12.70    0.89
 -12  -9  19   12.86    0.36
  10   9 -19   35.35    1.39
 -10  -9  19   36.12    1.01
   8   9 -19   12.13    0.76
  -8  -9  19   11.28    0.32
   6   9 -19    8.61    0.61
  -6  -9  19    9.64    0.27
   4   9 -19    0.84    0.32
   4   9 -19    1.03    0.44
  -4  -9  19    0.97    0.04
   2   9 -19    1.19    0.54
   2   9 -19    0.77    0.31
  -2  -9  19    1.09    0.04
   0   9 -19    3.03    0.68
   0   9 -19    2.43    0.34
   0  -9  19    2.95    0.09
  -2   9 -19    1.04    0.61
   2  -9  19    1.03    0.04
  -4   9 -19    0.85    0.71
   4  -9  19    0.93    0.03
  -6   9 -19    9.86    1.28
   6  -9  19   10.09    0.28
  -8   9 -19   10.90    1.29
   8  -9  19   11.40    0.32
 -10   9 -19   39.33    2.17
 -12   9 -19   13.77    1.80
 -14   9 -19   10.47    1.75
  15   8 -19    2.54    0.60
 -15  -8  19    2.22    0.07
  13   8 -19    4.06    0.61
 -13  -8  19    4.15    0.12
  11   8 -19   37.17    1.43
 -11  -8  19   34.74    0.97
   9   8 -19   10.87    0.78
  -9  -8  19   10.58    0.30
   7   8 -19   11.35    0.74
  -7  -8  19   10.69    0.30
   5   8 -19    1.99    0.36
  -5  -8  19    1.91    0.06
   3   8 -19    1.21    0.44
   3   8 -19    0.99    0.30
  -3  -8  19    1.32    0.04
   1   8 -19    3.28    0.60
   1   8 -19    2.82    0.36
  -1  -8  19    3.48    0.10
  -1   8 -19    2.77    0.33
  -1   8 -19    3.18    0.71
   1  -8  19    3.39    0.10
  -3   8 -19    1.25    0.66
   3  -8  19    1.35    0.04
  -5   8 -19    2.09    0.79
   5  -8  19    1.90    0.06
  -7   8 -19   13.11    1.38
   7  -8  19   11.04    0.31
  -9   8 -19   10.97    1.52
   9  -8  19   12.69    0.36
 -11   8 -19   37.49    2.28
 -13   8 -19    4.34    1.28
  16   7 -19    3.24    0.63
  16   7 -19    3.92    0.79
 -16  -7  19    3.33    0.10
  14   7 -19    1.24    0.55
 -14  -7  19    1.02    0.04
  12   7 -19   17.70    0.98
 -12  -7  19   15.91    0.45
  10   7 -19   11.03    0.79
 -10  -7  19    9.32    0.26
   8   7 -19   11.02    0.71
  -8  -7  19    9.95    0.28
   6   7 -19    1.95    0.37
  -6  -7  19    1.48    0.05
   4   7 -19    1.41    0.35
  -4  -7  19    1.00    0.04
   2   7 -19    6.26    0.46
   2   7 -19    6.80    0.75
  -2  -7  19    6.87    0.19
   0   7 -19    3.50    0.39
   0   7 -19    3.90    0.66
   0  -7  19    4.41    0.13
  -2   7 -19    6.77    1.00
   2  -7  19    6.96    0.20
  -4   7 -19    1.03    0.68
   4  -7  19    1.12    0.04
  -6   7 -19    1.71    0.68
   6  -7  19    1.61    0.05
  -8   7 -19   10.44    1.35
   8  -7  19   11.40    0.32
 -10   7 -19    8.79    1.48
  15   6 -19    2.04    0.74
  15   6 -19    1.49    0.56
 -15  -6  19    1.34    0.05
  13   6 -19    6.91    0.78
 -13  -6  19    6.07    0.17
  11   6 -19    5.96    0.69
 -11  -6  19    5.24    0.15
 -11  -6  19    4.59    0.53
   9   6 -19   11.29    0.72
  -9  -6  19    8.60    0.24
   7   6 -19    2.11    0.39
  -7  -6  19    1.41    0.05
   5   6 -19    0.42    0.35
  -5  -6  19    0.43    0.02
   3   6 -19    4.88    0.48
  -3  -6  19    4.57    0.13
   1   6 -19    8.73    0.52
  -1   6 -19    8.60    0.50
  -3   6 -19    5.63    1.01
  -5   6 -19    0.42    0.68
  -7   6 -19    1.86    0.81
   7  -6  19    1.64    0.05
  16   5 -19    2.34    0.76
  16   5 -19    2.15    0.58
 -16  -5  19    1.67    0.06
  14   5 -19    5.31    0.81
  14   5 -19    5.48    0.62
 -14  -5  19    4.36    0.13
  12   5 -19    3.22    0.54
 -12  -5  19    3.19    0.09
  10   5 -19    7.27    0.65
 -10  -5  19    5.59    0.16
 -10  -5  19    5.93    0.49
   8   5 -19    2.45    0.41
  -8  -5  19    1.72    0.05
   6   5 -19    0.16    0.37
  -6  -5  19    0.31    0.02
   4   5 -19    3.07    0.37
  -4  -5  19    2.41    0.07
   2   5 -19   13.60    0.61
   0   5 -19   11.53    0.54
  -2   5 -19   13.42    0.60
 -16   5 -19    2.00    0.06
  17   4 -19    5.11    0.82
  17   4 -19    4.31    0.75
 -17  -4  19    4.48    0.13
  15   4 -19    4.22    0.78
  15   4 -19    3.40    0.58
 -15  -4  19    2.90    0.09
  13   4 -19    3.63    0.54
  13   4 -19    3.70    0.75
 -13  -4  19    2.71    0.08
  11   4 -19    4.62    0.52
 -11  -4  19    3.30    0.37
 -11  -4  19    3.28    0.09
   9   4 -19    1.27    0.39
  -9  -4  19    0.64    0.27
  -9  -4  19    0.78    0.03
   7   4 -19    1.08    0.35
  -7  -4  19    0.90    0.03
   5   4 -19    3.79    0.49
   3   4 -19    9.13    0.53
   1   4 -19    9.98    0.49
  -1   4 -19    9.45    0.45
 -13   4 -19    3.03    0.09
 -15   4 -19    3.18    0.09
 -17   4 -19    3.73    0.11
  16   3 -19    0.67    0.51
  16   3 -19   -0.14    0.70
 -16  -3  19    1.13    0.04
  14   3 -19    4.46    0.57
  14   3 -19    4.22    0.77
 -14  -3  19    3.39    0.10
  12   3 -19    5.60    0.65
 -12  -3  19    4.03    0.11
 -12  -3  19    3.45    0.40
  10   3 -19    0.91    0.40
 -10  -3  19    0.86    0.03
 -10  -3  19    0.71    0.32
   8   3 -19    1.47    0.36
  -8  -3  19    1.12    0.04
  -8  -3  19    1.10    0.26
   6   3 -19    5.74    0.47
   4   3 -19    9.75    0.54
   2   3 -19    4.53    0.39
   0   3 -19    0.03    0.06
  -6   3 -19    4.57    0.35
 -10   3 -19    0.94    0.03
 -12   3 -19    4.45    0.13
 -14   3 -19    3.62    0.10
 -16   3 -19    0.72    0.03
  17   2 -19    9.66    0.97
 -17  -2  19    8.29    0.23
  15   2 -19    4.43    0.56
  15   2 -19    5.00    0.80
 -15  -2  19    3.96    0.11
  13   2 -19    2.45    0.49
  13   2 -19    3.17    0.62
 -13  -2  19    2.05    0.06
  11   2 -19    0.43    0.39
 -11  -2  19    0.15    0.32
 -11  -2  19    0.45    0.02
   9   2 -19    1.36    0.36
  -9  -2  19    0.59    0.25
  -9  -2  19    0.73    0.03
   7   2 -19    7.23    0.51
  -7  -2  19    5.25    0.15
  -7  -2  19    5.65    0.39
   5   2 -19   14.61    0.65
   3   2 -19    4.98    0.41
   1   2 -19   16.82    0.60
  -1   2 -19   18.85    0.65
  -3   2 -19    4.42    0.29
  -5   2 -19   12.44    0.48
  -7   2 -19    5.66    0.35
  -7   2 -19    5.54    0.16
  -9   2 -19    0.82    0.03
 -11   2 -19    0.31    0.01
 -13   2 -19    2.42    0.07
 -15   2 -19    3.48    0.10
 -17   2 -19    7.39    0.21
  16   1 -19   11.10    0.95
  16   1 -19   10.16    0.84
 -16  -1  19    9.86    0.28
  14   1 -19    2.13    0.59
  14   1 -19    1.30    0.46
 -14  -1  19    1.39    0.05
  12   1 -19    1.50    0.42
  12   1 -19    0.99    0.54
 -12  -1  19    1.07    0.32
 -12  -1  19    0.99    0.04
  10   1 -19    3.31    0.46
 -10  -1  19    1.97    0.06
 -10  -1  19    1.94    0.30
   8   1 -19    3.17    0.40
  -8  -1  19    2.47    0.30
  -8  -1  19    2.48    0.07
   6   1 -19   10.38    0.56
  -6  -1  19    7.80    0.43
   4   1 -19   10.96    0.52
   2   1 -19   19.65    0.68
   0   1 -19   35.75    1.08
  -2   1 -19   19.34    0.61
  -4   1 -19    9.78    0.37
  -4   1 -19    9.20    0.36
  -6   1 -19    8.21    0.37
  -8   1 -19    2.50    0.29
 -10   1 -19    1.91    0.05
 -12   1 -19    0.96    0.03
 -14   1 -19    1.56    0.05
 -16   1 -19    8.37    0.23
  17   0 -19   15.31    1.06
 -17   0  19   13.65    0.38
  15   0 -19    3.09    0.74
  15   0 -19    4.12    0.54
 -15   0  19    3.26    0.10
  13   0 -19    1.41    0.55
  13   0 -19    1.08    0.42
 -13   0  19    1.26    0.05
  11   0 -19    2.18    0.55
  11   0 -19    2.88    0.45
 -11   0  19    1.88    0.06
 -11   0  19    1.90    0.34
   9   0 -19    3.16    0.41
  -9   0  19    2.46    0.28
  -9   0  19    2.06    0.06
   7   0 -19    4.21    0.45
  -7   0  19    3.20    0.36
   5   0 -19   12.35    0.54
  -5   0  19   10.13    0.45
   3   0 -19   19.03    0.66
   1   0 -19   34.09    1.01
  -5   0 -19   11.38    0.38
  -7   0 -19    3.96    0.29
  -9   0 -19    2.41    0.29
 -11   0 -19    1.86    0.05
 -13   0 -19    1.15    0.04
 -15   0 -19    2.89    0.08
 -17   0 -19   11.79    0.33
  16  -1 -19   10.32    0.92
 -16   1  19    9.37    0.26
  14  -1 -19    1.81    0.57
  14  -1 -19    2.11    0.45
 -14   1  19    1.49    0.05
  12  -1 -19    1.54    0.38
  12  -1 -19    1.02    0.52
 -12   1  19    0.99    0.04
  10  -1 -19    2.79    0.41
 -10   1  19    2.30    0.29
 -10   1  19    1.90    0.06
   8  -1 -19    3.04    0.35
  -8   1  19    3.01    0.37
   6  -1 -19   10.31    0.53
  -6   1  19    8.16    0.42
  -6   1  19    7.85    0.49
   4  -1 -19    9.94    0.44
  -4   1  19    8.23    0.39
  -8  -1 -19    2.98    0.27
 -12  -1 -19    0.92    0.03
 -14  -1 -19    1.43    0.04
 -16  -1 -19    8.95    0.25
  17  -2 -19   10.28    0.92
 -17   2  19    8.41    0.24
  15  -2 -19    5.32    0.75
 -15   2  19    3.90    0.11
  13  -2 -19    2.54    0.56
  13  -2 -19    2.68    0.44
 -13   2  19    2.59    0.08
  11  -2 -19    0.40    0.33
  11  -2 -19    0.35    0.59
 -11   2  19    0.38    0.02
 -11   2  19    0.38    0.27
   9  -2 -19    1.03    0.33
  -9   2  19    0.80    0.03
  -9   2  19    0.85    0.24
   7  -2 -19    6.87    0.44
  -7   2  19    5.50    0.39
  -5   2  19   12.25    0.49
  -3   2  19    4.28    0.29
  -9  -2 -19    0.73    0.18
 -13  -2 -19    1.95    0.06
 -15  -2 -19    3.82    0.11
 -17  -2 -19    7.29    0.20
  16  -3 -19    2.03    0.70
 -16   3  19    0.82    0.04
  14  -3 -19    4.49    0.70
 -14   3  19    4.23    0.12
  12  -3 -19    5.06    0.72
 -12   3  19    4.70    0.13
 -10   3  19    1.13    0.27
 -10   3  19    0.90    0.03
  -8   3  19    1.10    0.26
  -6   3  19    3.97    0.32
  -4   3  19    7.66    0.36
 -10  -3 -19    0.98    0.20
 -14  -3 -19    3.58    0.10
 -16  -3 -19    0.87    0.03
  17  -4 -19    5.08    0.78
 -17   4  19    4.38    0.13
  15  -4 -19    4.69    0.72
 -15   4  19    3.51    0.10
  13  -4 -19    4.26    0.69
 -13   4  19    3.15    0.09
  11  -4 -19    3.33    0.66
 -11   4  19    3.82    0.11
  -9   4  19    0.63    0.28
  -7   4  19    0.93    0.24
  -5   4  19    2.31    0.29
  -3   4  19    7.35    0.31
 -17  -4 -19    4.25    0.12
  16  -5 -19    2.67    0.69
 -16   5  19    2.18    0.07
  14  -5 -19    5.59    0.73
 -14   5  19    4.49    0.13
  12  -5 -19    4.92    0.68
 -12   5  19    2.95    0.09
 -10   5  19    5.71    0.51
  -8   5  19    1.61    0.28
  -6   5  19    0.24    0.23
  -4   5  19    2.39    0.27
  -2   5  19   11.94    0.39
  15  -6 -19    2.54    0.66
 -15   6  19    1.60    0.05
  13  -6 -19    7.92    0.88
 -13   6  19    7.22    0.20
  11  -6 -19    6.80    0.70
  -9   6  19    9.62    0.53
  -7   6  19    1.49    0.27
  -5   6  19    0.46    0.21
  -3   6  19    4.33    0.27
  16  -7 -19    3.74    0.70
 -16   7  19    3.78    0.11
  14  -7 -19    1.46    0.58
 -14   7  19    1.35    0.05
  12  -7 -19   20.59    1.11
  -8   7  19   11.30    0.59
  -6   7  19    2.12    0.27
  -4   7  19    1.04    0.20
  -2   7  19    6.23    0.30
  10   7  19   10.78    0.52
  12   7  19   17.17    0.71
  14   7  19    1.15    0.36
  15  -8 -19    3.79    0.68
  13  -8 -19    5.44    0.67
  -7   8  19   11.69    0.59
  -5   8  19    1.96    0.28
  -3   8  19    1.59    0.22
  -1   8  19    3.36    0.24
   7   8  19   11.15    0.43
   9   8  19   11.08    0.51
  11   8  19   37.57    1.22
  13   8  19    4.76    0.55
  15   8  19    3.52    0.43
  14  -9 -19   12.15    0.92
  12  -9 -19   13.72    0.93
  -6   9  19   10.37    0.54
  -4   9  19    1.05    0.25
  -2   9  19    0.84    0.21
   0   9  19    3.04    0.26
   6   9  19   10.08    0.40
   8   9  19   12.39    0.53
  10   9  19   34.44    1.13
  12   9  19   12.96    0.67
  14   9  19   10.36    0.66
  13 -10 -19    8.56    0.81
  -5  10  19    5.61    0.57
  -3  10  19    1.07    0.25
  -1  10  19    2.74    0.31
   1  10  19    2.13    0.22
   3  10  19    0.87    0.14
   5  10  19    6.41    0.32
   7  10  19   10.82    0.48
   9  10  19   35.03    1.13
  11  10  19   20.47    0.83
  13  10  19    9.12    0.63
  -2  11  19    0.68    0.22
   2  11  19    0.45    0.17
   4  11  19    3.75    0.29
   6  11  19    5.95    0.37
   8  11  19   36.97    1.17
  10  11  19   21.33    0.82
  12  11  19    9.32    0.58
   1  12  19    0.73    0.22
   3  12  19    4.34    0.32
   5  12  19    3.57    0.32
   7  12  19   16.92    0.65
   9  12  19   12.80    0.63
  11  12  19    9.80    0.61
   2  13  19    2.62    0.34
   4  13  19    2.75    0.33
   6  13  19    7.48    0.45
   8  13  19    4.93    0.42
  10  13  19    9.47    0.58
   1  14  19    1.92    0.29
   3  14  19    4.23    0.39
   5  14  19    4.74    0.38
   7  14  19    1.27    0.29
   9  14  19    9.42    0.56
   2  15  19    3.86    0.42
   4  15  19    3.45    0.39
   6  15  19    1.44    0.30
   8  15  19    3.06    0.36
   1  16  19   10.42    0.59
   3  16  19    0.65    0.31
   5  16  19    1.81    0.33
   7  16  19    3.23    0.35
   0  17  19   13.38    0.70
   2  17  19    7.78    0.53
   4  17  19    4.02    0.47
   4  16 -20    5.09    0.58
  -4 -16  20    7.57    0.22
   2  16 -20    6.59    0.70
  -2 -16  20    7.34    0.21
   0  16 -20    2.94    0.52
   0 -16  20    3.90    0.11
   2 -16  20    8.17    0.23
   4 -16  20    7.10    0.20
   7  15 -20    3.81    0.52
  -7 -15  20    5.83    0.17
   5  15 -20    0.73    0.42
  -5 -15  20    1.28    0.05
   3  15 -20    2.22    0.45
  -3 -15  20    2.77    0.09
   1  15 -20    3.78    0.50
  -1 -15  20    4.92    0.14
  -1  15 -20    3.61    0.52
   1 -15  20    5.04    0.15
   3 -15  20    2.79    0.09
   5 -15  20    1.46    0.05
   7 -15  20    5.40    0.15
   8  14 -20    5.94    0.68
  -8 -14  20    6.84    0.19
   6  14 -20    0.09    0.40
  -6 -14  20    0.37    0.03
   4  14 -20    1.74    0.42
  -4 -14  20    2.12    0.07
   2  14 -20    3.04    0.45
  -2 -14  20    3.91    0.12
   0  14 -20    2.73    0.46
   0 -14  20    3.44    0.10
   2 -14  20    3.53    0.10
   4 -14  20    2.24    0.07
   6 -14  20    0.45    0.03
   8 -14  20    7.01    0.20
   9  13 -20    6.58    0.71
  -9 -13  20    7.17    0.20
   7  13 -20    6.40    0.65
  -7 -13  20    8.66    0.24
   5  13 -20    3.17    0.44
  -5 -13  20    4.35    0.13
   3  13 -20    2.88    0.43
  -3 -13  20    3.86    0.11
   1  13 -20    0.81    0.39
  -1 -13  20    0.94    0.04
  -1  13 -20    0.60    0.39
   1 -13  20    0.81    0.03
   3 -13  20    3.37    0.10
   5 -13  20    4.51    0.13
  -7  13 -20    8.85    1.32
   7 -13  20    8.65    0.24
  -9  13 -20    9.91    1.70
   9 -13  20    7.24    0.20
  12  12 -20   36.98    1.47
 -12 -12  20   43.98    1.23
  10  12 -20    3.57    0.57
 -10 -12  20    4.38    0.13
   8  12 -20   17.39    0.90
  -8 -12  20   19.36    0.54
   6  12 -20    7.35    0.63
  -6 -12  20    9.34    0.26
   4  12 -20    0.51    0.37
  -4 -12  20    0.68    0.03
   2  12 -20    0.73    0.36
  -2 -12  20    0.60    0.03
   0  12 -20    0.58    0.42
   0 -12  20    0.63    0.03
   2 -12  20   -0.02    0.02
   4 -12  20    0.72    0.03
  -6  12 -20    9.32    1.44
   6 -12  20    9.03    0.25
  -8  12 -20   19.97    1.87
   8 -12  20   19.57    0.55
 -10  12 -20    4.13    1.12
  10 -12  20    4.66    0.13
 -12  12 -20   46.11    2.73
  11  11 -20    4.70    0.62
 -11 -11  20    5.14    0.15
   9  11 -20   14.76    0.88
  -9 -11  20   16.58    0.46
   7  11 -20   10.31    0.71
  -7 -11  20   11.30    0.32
   5  11 -20    7.40    0.59
  -5 -11  20    8.60    0.24
   3  11 -20    0.71    0.34
  -3 -11  20    0.32    0.02
   1  11 -20    1.33    0.34
  -1 -11  20    1.02    0.04
  -1  11 -20    0.53    0.39
   1 -11  20    1.26    0.05
  -3  11 -20    0.10    0.72
   3 -11  20    0.38    0.02
  -5  11 -20    8.70    1.31
   5 -11  20    7.85    0.22
  -7  11 -20   10.69    1.51
   7 -11  20   10.75    0.30
  -9  11 -20   18.10    1.83
   9 -11  20   18.18    0.51
 -11  11 -20    4.11    1.14
  12  10 -20    3.68    0.52
 -12 -10  20    3.89    0.11
 -10 -10  20   68.61    1.92
   8  10 -20   16.35    0.87
  -8 -10  20   18.77    0.53
   6  10 -20   10.56    0.67
  -6 -10  20   11.00    0.31
   4  10 -20    0.69    0.38
   4  10 -20    0.94    0.43
  -4 -10  20    1.03    0.04
   2  10 -20    0.55    0.31
   2  10 -20    0.42    0.55
  -2 -10  20    0.43    0.02
   0  10 -20    0.80    0.64
   0  10 -20    1.21    0.32
   0 -10  20    1.42    0.05
  -2  10 -20    0.64    0.65
   2 -10  20    0.33    0.02
  -4  10 -20    0.79    0.75
   4 -10  20    0.79    0.03
  -6  10 -20   10.91    1.37
   6 -10  20   10.88    0.31
  -8  10 -20   17.73    1.71
   8 -10  20   18.75    0.53
 -10  10 -20   74.38    3.30
 -12  10 -20    4.21    1.15
  13   9 -20    7.22    0.80
 -13  -9  20    6.13    0.17
  11   9 -20   15.13    0.92
 -11  -9  20   15.57    0.44
   9   9 -20   15.48    0.89
  -9  -9  20   15.52    0.44
   7   9 -20   15.74    0.80
  -7  -9  20   15.47    0.43
   5   9 -20    1.67    0.36
  -5  -9  20    1.51    0.05
   3   9 -20    1.51    0.36
   3   9 -20    1.13    0.48
  -3  -9  20    1.25    0.04
   1   9 -20    1.54    0.31
   1   9 -20    1.83    0.59
  -1  -9  20    1.85    0.06
  -1   9 -20    1.63    0.62
  -1   9 -20    1.41    0.31
   1  -9  20    1.91    0.06
  -3   9 -20    0.92    0.78
   3  -9  20    1.12    0.04
  -5   9 -20    1.68    0.81
   5  -9  20    1.37    0.04
  -7   9 -20   17.88    1.60
   7  -9  20   15.86    0.44
  -9   9 -20   12.95    1.46
   9  -9  20   17.11    0.48
 -11   9 -20   15.01    1.80
 -13   9 -20    6.80    1.24
  14   8 -20    5.31    0.65
 -14  -8  20    5.40    0.15
  12   8 -20   18.34    1.00
 -12  -8  20   18.10    0.51
  10   8 -20   18.44    0.97
 -10  -8  20   16.90    0.47
  -8  -8  20   23.08    0.65
   6   8 -20    3.39    0.46
  -6  -8  20    2.90    0.08
   4   8 -20    1.95    0.37
  -4  -8  20    1.93    0.06
   2   8 -20    1.59    0.49
   2   8 -20    1.66    0.35
  -2  -8  20    2.10    0.06
   0   8 -20    2.67    0.64
   0   8 -20    2.74    0.35
   0  -8  20    3.46    0.10
  -2   8 -20    2.26    0.73
   2  -8  20    2.06    0.06
  -4   8 -20    2.51    0.77
   4  -8  20    1.98    0.06
  -6   8 -20    2.68    0.88
   6  -8  20    3.02    0.09
  -8   8 -20   25.59    1.80
   8  -8  20   25.67    0.72
 -10   8 -20   15.21    1.52
 -12   8 -20   17.79    1.64
  15   7 -20    4.31    0.65
 -15  -7  20    4.03    0.12
  13   7 -20    6.71    0.79
 -13  -7  20    6.74    0.19
  11   7 -20   10.69    0.79
 -11  -7  20   10.09    0.28
   9   7 -20   16.40    0.86
  -9  -7  20   13.77    0.39
   7   7 -20    2.51    0.46
  -7  -7  20    2.01    0.06
   5   7 -20    1.57    0.34
  -5  -7  20    1.46    0.05
   3   7 -20    3.03    0.34
  -3  -7  20    3.35    0.10
   1   7 -20    8.88    0.54
  -1  -7  20   10.28    0.29
  -1   7 -20    8.96    0.89
  -1   7 -20    8.90    0.53
   1  -7  20   10.04    0.28
  -3   7 -20    3.98    0.74
   3  -7  20    3.45    0.10
  -5   7 -20    1.71    0.75
   5  -7  20    1.60    0.05
  -7   7 -20    1.67    0.85
   7  -7  20    2.13    0.06
  -9   7 -20   14.98    1.58
  14   6 -20   -0.43    0.51
 -14  -6  20   -0.10    0.02
  12   6 -20    8.16    0.76
 -12  -6  20    7.00    0.20
  10   6 -20   11.70    0.77
 -10  -6  20    9.03    0.25
   8   6 -20    3.66    0.50
  -8  -6  20    2.67    0.08
   6   6 -20    2.18    0.42
  -6  -6  20    1.57    0.05
   4   6 -20    1.44    0.35
  -4  -6  20    1.23    0.04
   2   6 -20    7.52    0.46
  -2  -6  20    7.83    0.22
   0   6 -20    8.90    0.51
  -2   6 -20    7.88    0.48
  15   5 -20    1.48    0.54
 -15  -5  20    1.02    0.04
  13   5 -20    4.08    0.57
 -13  -5  20    3.46    0.10
  11   5 -20    7.32    0.78
 -11  -5  20    6.58    0.19
   9   5 -20    1.99    0.42
  -9  -5  20    1.26    0.04
   7   5 -20    1.49    0.37
  -7  -5  20    1.28    0.04
   5   5 -20    0.60    0.35
  -5  -5  20    0.43    0.02
   3   5 -20   10.61    0.57
   1   5 -20   11.96    0.55
  -1   5 -20   11.46    0.52
 -15   5 -20    1.07    0.04
  16   4 -20    6.18    0.87
 -16  -4  20    5.21    0.15
  14   4 -20    2.38    0.52
 -14  -4  20    1.74    0.06
  12   4 -20    0.61    0.45
 -12  -4  20    0.57    0.02
  10   4 -20    0.63    0.41
 -10  -4  20    0.61    0.32
 -10  -4  20    0.81    0.03
   8   4 -20    2.14    0.39
  -8  -4  20    1.71    0.05
  -8  -4  20    1.61    0.28
   6   4 -20    1.18    0.37
  -6  -4  20    1.06    0.03
   4   4 -20    6.21    0.50
   2   4 -20    7.12    0.46
   0   4 -20   15.80    0.61
  -2   4 -20    6.00    0.34
 -12   4 -20    0.62    0.02
 -14   4 -20    1.55    0.05
 -16   4 -20    5.39    0.15
  15   3 -20    2.26    0.76
  15   3 -20    2.48    0.55
 -15  -3  20    1.85    0.06
  13   3 -20    3.85    0.53
 -13  -3  20    2.50    0.07
  11   3 -20    0.66    0.47
 -11  -3  20    0.19    0.02
   9   3 -20    1.51    0.42
  -9  -3  20    0.95    0.27
  -9  -3  20    0.92    0.03
   7   3 -20    3.76    0.46
  -7  -3  20    2.74    0.29
  -7  -3  20    2.60    0.08
   5   3 -20   11.64    0.60
   3   3 -20    4.95    0.45
  -1   3 -20    9.95    0.41
  -3   3 -20    3.41    0.28
  -5   3 -20   10.22    0.47
  -9   3 -20    0.87    0.03
 -11   3 -20    0.30    0.01
 -13   3 -20    2.80    0.08
 -15   3 -20    1.92    0.06
  16   2 -20    7.16    0.89
 -16  -2  20    6.04    0.17
  14   2 -20    2.69    0.65
  14   2 -20    3.83    0.53
 -14  -2  20    2.84    0.09
  12   2 -20    0.57    0.41
 -12  -2  20    0.21    0.02
  10   2 -20    0.45    0.36
 -10  -2  20    0.16    0.25
 -10  -2  20    0.33    0.02
   8   2 -20    2.34    0.40
  -8  -2  20    1.44    0.26
  -8  -2  20    1.43    0.04
   6   2 -20   10.17    0.58
  -6  -2  20    7.11    0.45
   4   2 -20    7.94    0.50
   0   2 -20    1.71    0.22
  -2   2 -20   21.45    0.70
  -4   2 -20    6.89    0.35
  -4   2 -20    6.64    0.34
  -6   2 -20    7.43    0.37
 -10   2 -20    0.29    0.01
 -12   2 -20    0.30    0.01
 -14   2 -20    2.65    0.08
 -16   2 -20    4.75    0.13
  15   1 -20    3.27    0.68
 -15  -1  20    3.55    0.10
  13   1 -20    0.87    0.47
  13   1 -20    0.97    0.68
 -13  -1  20    0.76    0.03
  11   1 -20    1.25    0.38
 -11  -1  20    0.71    0.03
   9   1 -20    1.56    0.34
  -9  -1  20    1.29    0.04
  -9  -1  20    1.03    0.26
   7   1 -20   10.06    0.59
  -7  -1  20    7.89    0.46
   5   1 -20   13.89    0.62
   3   1 -20   11.41    0.46
   1   1 -20   15.59    0.55
  -1   1 -20   15.46    0.51
  -3   1 -20   12.91    0.44
  -3   1 -20   14.22    0.45
  -5   1 -20   11.44    0.41
  -7   1 -20    7.86    0.37
 -11   1 -20    0.73    0.02
 -13   1 -20    0.80    0.03
 -15   1 -20    3.24    0.09
  16   0 -20    3.85    0.79
 -16   0  20    3.15    0.09
  14   0 -20    2.52    0.73
  14   0 -20    3.47    0.56
 -14   0  20    2.73    0.08
  12   0 -20    1.32    0.44
 -12   0  20    0.75    0.03
  10   0 -20    1.39    0.39
 -10   0  20    0.81    0.26
 -10   0  20    0.93    0.03
   8   0 -20    4.19    0.48
  -8   0  20    2.36    0.30
   6   0 -20   10.02    0.54
  -6   0  20    7.99    0.43
   4   0 -20   13.13    0.51
   2   0 -20    1.50    0.19
  -6   0 -20    8.58    0.33
  -8   0 -20    2.85    0.28
 -12   0 -20    0.67    0.02
 -14   0 -20    2.38    0.07
 -16   0 -20    2.70    0.08
  15  -1 -20    4.75    0.68
 -15   1  20    3.62    0.11
  13  -1 -20    1.25    0.45
  13  -1 -20    0.82    0.67
 -13   1  20    0.78    0.03
  11  -1 -20    0.58    0.33
 -11   1  20    0.75    0.03
   9  -1 -20    1.54    0.31
  -9   1  20    1.71    0.29
   7  -1 -20    8.99    0.50
  -7   1  20    7.36    0.43
  -5   1  20   11.62    0.49
   3  -1 -20   13.70    0.49
  -9  -1 -20    1.35    0.19
 -15  -1 -20    3.10    0.09
  16  -2 -20    5.49    0.71
 -16   2  20    5.49    0.16
  14  -2 -20    3.38    0.62
 -14   2  20    3.22    0.10
  12  -2 -20   -0.29    0.61
  12  -2 -20   -0.14    0.39
 -12   2  20    0.34    0.02
  10  -2 -20    0.49    0.29
 -10   2  20    0.29    0.28
   8  -2 -20    1.48    0.29
  -8   2  20    1.46    0.26
  -6   2  20    7.27    0.39
  -4   2  20    6.14    0.34
 -10  -2 -20    0.44    0.18
 -16  -2 -20    5.29    0.15
  15  -3 -20    2.59    0.70
 -15   3  20    2.22    0.07
  13  -3 -20    3.15    0.58
 -13   3  20    3.02    0.09
  -9   3  20    1.09    0.28
  -7   3  20    2.78    0.33
  -5   3  20    9.01    0.41
  -3   3  20    3.79    0.26
  -9  -3 -20    1.12    0.15
  16  -4 -20    6.70    0.82
 -16   4  20    6.16    0.18
  14  -4 -20    3.03    0.68
  12  -4 -20    0.17    0.60
  -8   4  20    1.75    0.27
  -6   4  20    1.16    0.23
  -4   4  20    4.98    0.29
  15  -5 -20    0.70    0.64
 -15   5  20    1.01    0.04
  13  -5 -20    4.47    0.72
  -7   5  20    1.14    0.24
  -5   5  20    0.41    0.20
  -3   5  20    9.41    0.36
  14  -6 -20    0.49    0.50
  -8   6  20    2.80    0.35
  -6   6  20    1.88    0.26
  -4   6  20    1.09    0.18
  -2   6  20    7.09    0.27
  15  -7 -20    5.90    0.75
  13  -7 -20    9.62    0.91
  -7   7  20    1.99    0.28
  -5   7  20    1.59    0.25
  -3   7  20    3.07    0.27
  14  -8 -20    6.98    0.75
  -6   8  20    3.23    0.35
  -4   8  20    2.07    0.24
  -2   8  20    1.80    0.23
  10   8  20   19.08    0.74
  12   8  20   19.95    0.81
  14   8  20    6.29    0.52
  -5   9  20    1.55    0.29
  -3   9  20    1.14    0.22
  -1   9  20    1.85    0.23
   7   9  20   16.67    0.56
   9   9  20   15.67    0.62
  11   9  20   15.55    0.69
  13   9  20    7.21    0.57
  -2  10  20    0.53    0.22
   0  10  20    1.21    0.15
   0  10  20    1.13    0.19
   6  10  20   11.13    0.42
   8  10  20   17.94    0.66
  12  10  20    3.78    0.48
  -1  11  20    1.09    0.26
   1  11  20    0.89    0.20
   1  11  20    0.75    0.17
   3  11  20    0.38    0.15
   5  11  20    8.19    0.36
   7  11  20   11.08    0.49
   9  11  20   16.64    0.69
  11  11  20    5.04    0.53
   0  12  20    0.61    0.22
   2  12  20    0.31    0.18
   4  12  20    0.83    0.20
   6  12  20    7.88    0.40
   8  12  20   20.34    0.76
  10  12  20    4.40    0.46
  12  12  20   41.52    1.38
   1  13  20    0.89    0.22
   3  13  20    2.89    0.29
   5  13  20    3.97    0.35
   7  13  20    8.20    0.45
   9  13  20    7.26    0.48
   0  14  20    3.25    0.41
   2  14  20    3.14    0.36
   4  14  20    1.59    0.25
   6  14  20    0.30    0.26
   8  14  20    5.72    0.44
   1  15  20    3.86    0.43
   3  15  20    1.95    0.28
   5  15  20    1.13    0.29
   7  15  20    4.78    0.45
   0  16  20    3.29    0.37
   2  16  20    6.60    0.50
   4  16  20    5.05    0.43
   3  16 -21    3.59    0.52
  -3 -16  21    5.69    0.16
   1  16 -21    4.68    0.55
  -1 -16  21    6.42    0.18
   1 -16  21    6.15    0.18
   3 -16  21    5.87    0.17
   6  15 -21    2.88    0.48
  -6 -15  21    4.52    0.13
   4  15 -21    1.50    0.44
  -4 -15  21    2.47    0.08
   2  15 -21    2.41    0.46
  -2 -15  21    3.89    0.11
   0  15 -21    3.15    0.42
   0 -15  21    4.53    0.13
  -2  15 -21    2.50    0.50
   2 -15  21    3.70    0.11
   4 -15  21    2.22    0.07
   6 -15  21    4.55    0.13
   7  14 -21   10.31    0.74
  -7 -14  21   14.09    0.40
   5  14 -21    1.23    0.41
  -5 -14  21    1.98    0.06
   3  14 -21    0.32    0.39
  -3 -14  21    0.39    0.03
   1  14 -21    2.53    0.43
  -1 -14  21    3.36    0.10
  -1  14 -21    2.42    0.45
   1 -14  21    3.76    0.11
   3 -14  21    0.16    0.03
   5 -14  21    1.95    0.06
   7 -14  21   13.49    0.38
   8  13 -21    7.45    0.70
  -8 -13  21    9.44    0.27
   6  13 -21    1.41    0.42
  -6 -13  21    1.70    0.06
   4  13 -21    0.81    0.39
  -4 -13  21    0.84    0.03
   2  13 -21    1.86    0.40
  -2 -13  21    2.15    0.07
   0  13 -21    2.00    0.41
   0 -13  21    1.75    0.06
   2 -13  21    1.75    0.06
  -4  13 -21    0.93    0.87
   4 -13  21    0.85    0.03
  -6  13 -21    1.74    1.04
   6 -13  21    1.73    0.06
  -8  13 -21    9.76    1.62
   8 -13  21    9.46    0.27
  11  12 -21   21.12    1.02
 -11 -12  21   26.94    0.75
   9  12 -21   14.20    0.87
  -9 -12  21   15.16    0.43
   7  12 -21    3.90    0.50
  -7 -12  21    4.73    0.14
   5  12 -21    4.30    0.55
  -5 -12  21    5.21    0.15
   3  12 -21    1.94    0.39
  -3 -12  21    2.30    0.07
   1  12 -21    1.88    0.43
  -1 -12  21    2.22    0.07
  -1  12 -21    2.06    0.39
  -1  12 -21    1.48    0.71
   1 -12  21    2.01    0.06
  -3  12 -21    2.10    0.85
   3 -12  21    1.35    0.05
  -5  12 -21    5.29    1.06
   5 -12  21    4.94    0.14
  -7  12 -21    4.44    1.17
   7 -12  21    4.95    0.14
  -9  12 -21   18.04    1.86
   9 -12  21   15.38    0.43
 -11  12 -21   25.26    1.96
  12  11 -21   24.97    1.37
 -12 -11  21   26.77    0.75
  10  11 -21   11.92    0.86
 -10 -11  21   14.05    0.39
   8  11 -21   11.14    0.76
  -8 -11  21   13.20    0.37
   6  11 -21   10.02    0.67
  -6 -11  21   11.83    0.33
   4  11 -21    1.48    0.50
   4  11 -21    1.45    0.36
  -4 -11  21    1.63    0.05
   2  11 -21    3.99    0.73
   2  11 -21    3.36    0.40
  -2 -11  21    3.47    0.10
   0  11 -21    2.98    0.39
   0  11 -21    3.46    0.80
   0 -11  21    3.06    0.09
  -2  11 -21    3.32    0.81
   2 -11  21    3.37    0.10
  -4  11 -21    2.32    0.86
   4 -11  21    1.40    0.05
  -6  11 -21   13.14    1.48
   6 -11  21   12.14    0.34
  -8  11 -21   14.58    1.68
   8 -11  21   13.54    0.38
 -10  11 -21   16.45    1.85
 -12  11 -21   27.42    2.24
  11  10 -21   12.58    0.88
 -11 -10  21   13.40    0.38
   9  10 -21   19.13    0.98
  -9 -10  21   21.85    0.61
   7  10 -21   16.03    0.82
  -7 -10  21   17.00    0.48
   5  10 -21    2.22    0.39
  -5 -10  21    2.31    0.07
   3  10 -21    2.43    0.56
   3  10 -21    2.25    0.40
  -3 -10  21    2.84    0.08
   1  10 -21    0.99    0.59
   1  10 -21    1.02    0.32
  -1 -10  21    1.82    0.06
  -1  10 -21    1.55    0.33
  -1  10 -21    1.63    0.64
   1 -10  21    1.80    0.06
  -3  10 -21    2.94    0.80
   3 -10  21    2.73    0.08
  -5  10 -21    2.59    0.90
   5 -10  21    2.00    0.06
  -7  10 -21   19.07    1.50
   7 -10  21   17.47    0.49
  -9  10 -21   21.02    1.90
   9 -10  21   22.39    0.63
 -11  10 -21   14.11    1.81
  12   9 -21   14.64    0.93
 -12  -9  21   14.11    0.40
  10   9 -21   20.36    1.02
 -10  -9  21   21.30    0.60
   8   9 -21   25.34    1.07
  -8  -9  21   26.44    0.74
   6   9 -21    3.53    0.48
  -6  -9  21    3.64    0.11
   4   9 -21    1.99    0.35
  -4  -9  21    1.82    0.06
   2   9 -21    1.52    0.51
   2   9 -21    1.47    0.36
  -2  -9  21    1.76    0.06
   0   9 -21    2.94    0.69
   0   9 -21    2.64    0.34
   0  -9  21    3.13    0.09
  -2   9 -21    2.13    0.69
  -2   9 -21    1.41    0.31
   2  -9  21    1.75    0.05
  -4   9 -21    2.05    0.78
   4  -9  21    1.88    0.06
  -6   9 -21    3.50    0.98
   6  -9  21    3.49    0.10
  -8   9 -21   24.94    1.70
   8  -9  21   27.46    0.77
 -10   9 -21   19.37    1.85
 -12   9 -21   17.34    1.85
  13   8 -21    8.97    0.84
 -13  -8  21    7.80    0.22
  11   8 -21   11.69    0.85
 -11  -8  21   12.59    0.35
   9   8 -21   26.83    1.13
  -9  -8  21   25.86    0.72
   7   8 -21    7.98    0.63
  -7  -8  21    7.08    0.20
   5   8 -21    0.72    0.38
  -5  -8  21    1.10    0.04
   3   8 -21    2.05    0.36
  -3  -8  21    2.37    0.07
   1   8 -21    3.95    0.48
  -1  -8  21    4.44    0.13
  -1   8 -21    3.43    0.41
  -1   8 -21    4.71    0.80
   1  -8  21    4.61    0.13
  -3   8 -21    2.40    0.81
   3  -8  21    2.27    0.07
  -5   8 -21    0.83    0.76
   5  -8  21    0.91    0.04
  -7   8 -21    6.72    1.11
  -9   8 -21   25.95    1.75
 -14  -7  21   10.58    0.30
  12   7 -21    4.24    0.58
 -12  -7  21    4.18    0.12
  10   7 -21   18.25    0.94
 -10  -7  21   14.70    0.41
   8   7 -21    8.97    0.67
  -8  -7  21    6.59    0.19
   6   7 -21    2.73    0.44
  -6  -7  21    2.15    0.06
   4   7 -21    1.92    0.37
  -4  -7  21    1.75    0.05
   2   7 -21    6.80    0.46
  -2  -7  21    7.69    0.22
   0   7 -21    8.90    0.52
   0  -7  21   10.26    0.29
  -2   7 -21    6.67    0.48
 -15  -6  21    3.45    0.10
  13   6 -21    0.73    0.51
 -13  -6  21    0.97    0.04
  11   6 -21   11.23    0.80
 -11  -6  21    9.59    0.27
   9   6 -21    4.09    0.55
  -9  -6  21    3.06    0.09
   7   6 -21    2.28    0.40
  -7  -6  21    2.10    0.06
   5   6 -21    1.58    0.38
  -5  -6  21    1.22    0.04
   3   6 -21    4.43    0.47
  -3  -6  21    3.94    0.11
   1   6 -21   10.87    0.55
  -1   6 -21   10.73    0.53
 -15   6 -21    3.46    0.10
 -14  -5  21    1.33    0.05
  12   5 -21    4.15    0.54
 -12  -5  21    3.84    0.11
  10   5 -21    2.70    0.47
 -10  -5  21    2.11    0.06
   8   5 -21    1.38    0.39
  -8  -5  21    0.92    0.03
   6   5 -21    1.46    0.39
  -6  -5  21    1.17    0.04
   4   5 -21    3.83    0.42
  -4  -5  21    3.44    0.10
   2   5 -21    9.94    0.56
   0   5 -21   21.18    0.77
  -2   5 -21    8.47    0.47
 -14   5 -21    1.41    0.04
 -15  -4  21    1.65    0.05
  13   4 -21    0.97    0.47
 -13  -4  21    0.81    0.03
  11   4 -21    1.70    0.45
 -11  -4  21    1.08    0.04
   9   4 -21    1.76    0.45
  -9  -4  21    1.10    0.37
  -9  -4  21    1.44    0.05
   7   4 -21    2.44    0.41
  -7  -4  21    1.39    0.04
   5   4 -21    4.49    0.50
   3   4 -21    7.66    0.53
   1   4 -21   14.03    0.58
 -11   4 -21    1.70    0.05
 -13   4 -21    0.77    0.03
 -15   4 -21    1.71    0.05
  16   3 -21    4.97    0.87
 -16  -3  21    4.70    0.14
 -14  -3  21    0.18    0.02
  12   3 -21    1.83    0.51
 -12  -3  21    1.63    0.05
  10   3 -21    2.94    0.43
 -10  -3  21    2.11    0.06
   8   3 -21    2.47    0.42
  -8  -3  21    1.74    0.27
  -8  -3  21    1.75    0.05
   6   3 -21    4.84    0.50
   4   3 -21    8.17    0.49
   0   3 -21    3.79    0.29
  -2   3 -21   17.58    0.62
  -4   3 -21    7.10    0.38
  -6   3 -21    3.48    0.30
  -8   3 -21    1.84    0.05
 -10   3 -21    2.21    0.06
 -12   3 -21    1.59    0.05
 -14   3 -21    0.26    0.01
 -16   3 -21    3.95    0.11
  15   2 -21    3.23    0.81
 -15  -2  21    2.94    0.09
  13   2 -21    2.11    0.56
 -13  -2  21    1.40    0.05
  11   2 -21    4.04    0.51
 -11  -2  21    2.72    0.08
   9   2 -21    1.63    0.40
  -9  -2  21    1.21    0.04
  -9  -2  21    1.12    0.26
   7   2 -21    7.95    0.56
  -7  -2  21    6.68    0.45
   5   2 -21    9.91    0.53
   1   2 -21   10.28    0.46
  -1   2 -21    9.40    0.40
  -3   2 -21   17.44    0.58
  -5   2 -21    8.14    0.36
  -7   2 -21    6.10    0.35
 -11   2 -21    2.65    0.07
 -13   2 -21    1.46    0.04
 -15   2 -21    2.62    0.08
  16   1 -21    4.83    0.74
 -16  -1  21    4.95    0.14
 -14  -1  21    2.65    0.08
  12   1 -21    2.60    0.44
 -12  -1  21    1.85    0.06
  10   1 -21    1.72    0.41
 -10  -1  21    1.25    0.04
   8   1 -21    4.55    0.45
  -8  -1  21    2.69    0.35
   6   1 -21   11.93    0.58
  -6  -1  21   10.23    0.50
   4   1 -21    0.08    0.05
   2   1 -21   10.23    0.45
   0   1 -21   18.35    0.59
  -4   1 -21   12.92    0.40
  -4   1 -21   11.22    0.39
  -6   1 -21    9.83    0.38
  -8   1 -21    3.71    0.28
 -14   1 -21    2.21    0.06
 -16   1 -21    4.29    0.12
  15   0 -21    4.06    0.81
 -15   0  21    3.73    0.11
 -13   0  21    1.33    0.05
  11   0 -21    3.25    0.45
 -11   0  21    2.17    0.06
   9   0 -21    2.71    0.38
  -9   0  21    2.74    0.32
   7   0 -21    9.47    0.56
  -7   0  21    7.44    0.40
   5   0 -21    0.07    0.06
  -5   0  21   20.20    0.71
   3   0 -21    5.34    0.33
  -7   0 -21    8.33    0.32
  -9   0 -21    2.36    0.25
  16  -1 -21    5.09    0.83
 -16   1  21    5.35    0.15
  14  -1 -21    2.60    0.74
 -14   1  21    2.51    0.07
 -12   1  21    1.87    0.06
  10  -1 -21    1.39    0.36
   8  -1 -21    4.72    0.48
  -8   1  21    3.78    0.39
  -6   1  21    9.13    0.44
   4  -1 -21   13.09    0.50
  -8  -1 -21    3.62    0.21
  15  -2 -21    2.38    0.63
 -15   2  21    3.02    0.09
 -13   2  21    1.51    0.06
  11  -2 -21    3.35    0.46
   9  -2 -21    1.46    0.31
  -9   2  21    0.96    0.39
   7  -2 -21    6.68    0.41
  -7   2  21    5.72    0.38
  -5   2  21    8.15    0.40
  -9  -2 -21    1.64    0.15
  16  -3 -21    4.80    0.80
 -16   3  21    4.69    0.13
  14  -3 -21    0.08    0.52
  -8   3  21    2.13    0.27
  -6   3  21    3.73    0.34
  -4   3  21    6.60    0.33
  15  -4 -21    2.48    0.71
  -7   4  21    1.88    0.27
  -5   4  21    3.50    0.30
  -3   4  21    6.93    0.31
  14  -5 -21    2.39    0.57
  -6   5  21    1.31    0.23
  -4   5  21    3.37    0.26
  15  -6 -21    4.64    0.64
  -7   6  21    2.00    0.35
  -5   6  21    1.33    0.22
  -3   6  21    3.78    0.23
  14  -7 -21   15.34    1.05
  -6   7  21    1.96    0.29
  -4   7  21    1.85    0.21
  -5   8  21    1.07    0.25
  -3   8  21    2.36    0.26
  -2   9  21    1.33    0.17
  10   9  21   21.75    0.78
  12   9  21   14.53    0.64
  -1  10  21    1.54    0.18
   7  10  21   17.56    0.58
   9  10  21   21.06    0.73
  11  10  21   13.97    0.62
   0  11  21    2.87    0.24
   6  11  21   11.34    0.42
   8  11  21   13.69    0.54
  10  11  21   14.18    0.60
  12  11  21   24.71    0.93
   1  12  21    2.29    0.25
   3  12  21    1.79    0.18
   5  12  21    4.70    0.29
   7  12  21    5.17    0.36
   9  12  21   15.01    0.61
  11  12  21   23.62    0.88
   0  13  21    1.83    0.25
   2  13  21    1.72    0.20
   4  13  21    0.96    0.20
   6  13  21    1.70    0.25
   8  13  21    8.71    0.48
   1  14  21    2.96    0.35
   3  14  21    0.36    0.22
   5  14  21    1.62    0.25
   7  14  21   11.51    0.52
   0  15  21    4.05    0.41
   2  15  21    2.85    0.35
   4  15  21    1.65    0.28
   6  15  21    4.04    0.39
   1  16  21    5.01    0.45
   3  16  21    4.30    0.38
  -3 -15  22    1.42    0.05
  -1 -15  22    5.17    0.15
   1 -15  22    5.07    0.15
   3 -15  22    1.23    0.04
  -6 -14  22    5.64    0.16
  -4 -14  22    2.17    0.07
   2  14 -22    1.39    0.53
  -2 -14  22    2.27    0.08
   0 -14  22    1.72    0.06
   2 -14  22    2.07    0.07
  -4  14 -22    1.64    0.95
   4 -14  22    1.87    0.06
  -6  14 -22    5.33    1.20
   6 -14  22    5.48    0.16
  -7 -13  22    6.72    0.19
   5  13 -22    1.07    0.40
  -5 -13  22    1.78    0.06
   3  13 -22    0.64    0.37
  -3 -13  22    0.54    0.03
   1  13 -22    1.44    0.39
   1  13 -22    1.35    0.73
  -1 -13  22    2.21    0.07
  -1  13 -22    1.28    0.47
  -1  13 -22    2.66    0.80
   1 -13  22    2.02    0.07
  -3  13 -22    0.51    0.82
   3 -13  22    0.24    0.02
  -5  13 -22    1.88    0.99
   5 -13  22    1.77    0.06
  -7  13 -22    8.42    1.35
   7 -13  22    6.58    0.19
 -10 -12  22   50.79    1.42
   8  12 -22    5.93    0.74
  -8 -12  22    6.85    0.19
   6  12 -22    2.29    0.44
  -6 -12  22    3.12    0.09
   4  12 -22    0.11    0.34
  -4 -12  22    0.23    0.02
   2  12 -22    0.85    0.59
   2  12 -22    0.95    0.36
  -2 -12  22    0.93    0.04
   0  12 -22    3.26    0.41
   0  12 -22    3.74    0.76
   0 -12  22    3.76    0.11
  -2  12 -22    0.67    0.85
  -2  12 -22    0.67    0.37
   2 -12  22    0.78    0.03
  -4  12 -22    0.20    0.93
   4 -12  22    0.17    0.03
  -6  12 -22    2.82    1.03
   6 -12  22    3.24    0.10
  -8  12 -22    6.57    1.29
   8 -12  22    7.61    0.22
 -10  12 -22   52.75    2.79
 -11 -11  22   16.20    0.45
   9  11 -22    4.00    0.65
  -9 -11  22    4.07    0.12
   7  11 -22    7.28    0.65
  -7 -11  22    8.79    0.25
   5  11 -22    1.75    0.39
  -5 -11  22    1.96    0.06
   3  11 -22    2.95    0.62
   3  11 -22    2.78    0.39
  -3 -11  22    2.70    0.08
   1  11 -22    9.29    1.00
   1  11 -22    8.28    0.58
  -1 -11  22    9.93    0.28
  -1  11 -22    8.49    0.59
  -1  11 -22    8.98    1.04
   1 -11  22   10.21    0.29
  -3  11 -22    3.85    0.88
   3 -11  22    3.29    0.10
  -5  11 -22    1.77    0.90
   5 -11  22    1.50    0.05
  -7  11 -22    9.39    1.29
   7 -11  22    8.13    0.23
  -9  11 -22    4.22    1.25
   9 -11  22    4.29    0.12
 -11  11 -22   15.05    1.90
 -12 -10  22   48.65    1.36
  10  10 -22    4.75    0.78
 -10 -10  22    4.98    0.14
   8  10 -22   28.86    1.17
   6  10 -22    5.96    0.58
  -6 -10  22    6.05    0.17
   4  10 -22    2.40    0.42
  -4 -10  22    2.81    0.08
   2  10 -22    8.39    0.62
   2  10 -22    8.79    0.92
  -2 -10  22   11.24    0.32
   0  10 -22    3.81    0.77
   0  10 -22    2.95    0.41
   0 -10  22    3.41    0.10
  -2  10 -22    9.68    1.08
  -2  10 -22    8.55    0.57
   2 -10  22   10.56    0.30
  -4  10 -22    3.53    0.89
   4 -10  22    2.82    0.08
  -6  10 -22    5.44    1.08
   6 -10  22    6.11    0.17
  -8  10 -22   34.51    2.12
 -10  10 -22    4.63    1.31
 -12  10 -22   46.07    2.48
 -11  -9  22    3.99    0.12
   9   9 -22   10.47    0.77
  -9  -9  22   10.96    0.31
   7   9 -22    5.85    0.62
  -7  -9  22    5.36    0.15
   5   9 -22    4.45    0.52
  -5  -9  22    4.47    0.13
   3   9 -22    5.34    0.48
  -3  -9  22    6.82    0.19
   1   9 -22    4.78    0.52
   1   9 -22    4.99    0.86
  -1  -9  22    5.53    0.16
  -1   9 -22    4.73    0.83
  -1   9 -22    4.56    0.44
   1  -9  22    5.47    0.16
  -3   9 -22    6.45    1.03
   3  -9  22    6.51    0.18
  -5   9 -22    4.93    0.97
  -7   9 -22    4.27    1.08
  -9   9 -22   10.47    1.57
 -12  -8  22    6.03    0.17
  10   8 -22   29.13    1.19
 -10  -8  22   29.16    0.82
   8   8 -22   10.38    0.73
  -8  -8  22    8.63    0.24
   6   8 -22    7.68    0.59
  -6  -8  22    7.35    0.21
   4   8 -22    2.71    0.40
  -4  -8  22    2.61    0.08
   2   8 -22    3.91    0.48
  -2  -8  22    4.95    0.14
   0   8 -22    6.58    0.51
   0  -8  22    8.74    0.25
  -2   8 -22    3.97    0.46
  -4   8 -22    3.14    0.81
  -6   8 -22    8.71    1.26
 -13  -7  22    5.21    0.15
  11   7 -22    8.86    0.97
 -11  -7  22    7.48    0.21
   9   7 -22    6.09    0.66
  -9  -7  22    5.34    0.15
   7   7 -22   12.63    0.71
  -7  -7  22   10.29    0.29
   5   7 -22    0.91    0.33
  -5  -7  22    0.70    0.03
   3   7 -22    4.84    0.45
  -3  -7  22    5.41    0.15
   1   7 -22    7.43    0.46
  -1   7 -22    7.60    0.49
  -3   7 -22    4.19    0.43
 -14  -6  22    3.99    0.12
 -12  -6  22    2.32    0.07
  10   6 -22    6.76    0.66
 -10  -6  22    5.23    0.15
   8   6 -22    8.07    0.63
  -8  -6  22    6.78    0.19
   6   6 -22    0.21    0.38
  -6  -6  22    0.20    0.02
   4   6 -22    3.28    0.39
   2   6 -22    8.67    0.52
   0   6 -22   11.55    0.56
  -2   6 -22    8.15    0.50
 -14   6 -22    4.26    0.12
 -13  -5  22    1.15    0.04
  11   5 -22    1.05    0.60
 -11  -5  22    1.54    0.05
   9   5 -22    5.05    0.58
  -9  -5  22    3.40    0.10
   7   5 -22    0.59    0.35
  -7  -5  22    0.57    0.02
   5   5 -22    3.27    0.36
   3   5 -22    2.84    0.35
   1   5 -22   17.52    0.71
  -1   5 -22   17.16    0.65
  -3   5 -22    2.22    0.26
 -13   5 -22    1.42    0.04
 -14  -4  22    1.58    0.05
 -12  -4  22    0.19    0.02
  10   4 -22    2.44    0.44
 -10  -4  22    2.30    0.07
   8   4 -22    3.03    0.45
  -8  -4  22    1.99    0.06
   6   4 -22    3.97    0.50
   4   4 -22    4.99    0.47
   2   4 -22   11.78    0.55
 -10   4 -22    2.43    0.07
 -12   4 -22    0.22    0.01
 -14   4 -22    1.52    0.05
 -15  -3  22    0.90    0.04
 -13  -3  22    0.20    0.02
  11   3 -22    3.76    0.57
 -11  -3  22    2.58    0.08
   9   3 -22    7.10    0.57
   7   3 -22    5.22    0.53
   5   3 -22    3.04    0.35
   3   3 -22   17.04    0.68
   1   3 -22    4.39    0.30
  -1   3 -22    7.36    0.39
  -3   3 -22   15.86    0.57
  -5   3 -22    2.56    0.29
 -11   3 -22    2.43    0.07
 -13   3 -22    0.26    0.01
 -15   3 -22    0.98    0.03
 -14  -2  22    1.64    0.05
 -12  -2  22    0.65    0.03
  10   2 -22   10.13    0.63
   8   2 -22    4.84    0.48
   6   2 -22    9.66    0.55
   4   2 -22    9.53    0.47
   2   2 -22    5.77    0.38
   0   2 -22   17.79    0.61
  -2   2 -22    5.36    0.29
  -4   2 -22   10.22    0.41
  -4   2 -22   11.78    0.43
  -6   2 -22    7.22    0.34
 -14   2 -22    1.33    0.04
 -15  -1  22    4.01    0.12
 -13  -1  22    1.30    0.04
   9   1 -22    5.44    0.54
   7   1 -22    9.01    0.54
  -7  -1  22    6.62    0.44
   5   1 -22   12.35    0.52
   3   1 -22    7.90    0.41
   1   1 -22   10.18    0.40
  -7   1 -22    7.02    0.33
 -14   0  22    1.37    0.05
   8   0 -22    8.05    0.52
   6   0 -22   11.28    0.52
  -6   0  22   10.32    0.49
   4   0 -22   12.88    0.51
   2   0 -22   16.54    0.54
  -8   0 -22    7.04    0.31
 -15   1  22    3.85    0.11
   9  -1 -22    5.12    0.48
   7  -1 -22    7.88    0.47
  -7   1  22    6.47    0.41
   5  -1 -22   17.57    0.63
  -5   1  22   16.80    0.62
  -9  -1 -22    4.43    0.31
   8  -2 -22    4.27    0.42
  -6   2  22    7.12    0.39
  15  -3 -22    1.36    0.73
  -7   3  22    4.54    0.35
  -5   3  22    2.57    0.24
  -6   4  22    2.83    0.31
  -4   4  22    4.12    0.28
  -5   5  22    2.89    0.28
  -3   5  22    2.47    0.21
  -4   6  22    3.01    0.25
  -5   7  22    0.59    0.24
  -3   7  22    4.57    0.24
  -4   8  22    2.33    0.25
  -3   9  22    5.82    0.41
   9  11  22    4.02    0.33
  11  11  22   14.44    0.63
   0  12  22    3.64    0.26
   1  13  22    1.75    0.19
   3  13  22    0.22    0.20
   0  14  22    1.12    0.23
   2  14  22    1.54    0.21
  -1  15  22    4.99    0.42
   1  15  22    4.38    0.35
  -5 -14  23    4.38    0.13
  -3 -14  23    2.28    0.07
   1  14 -23    3.98    0.88
  -1 -14  23    4.51    0.13
  -1  14 -23    3.71    0.88
   1 -14  23    4.32    0.13
  -3  14 -23    1.92    1.04
   3 -14  23    1.79    0.06
  -5  14 -23    5.13    1.13
   5 -14  23    4.38    0.13
  -6 -13  23    3.14    0.09
  -4 -13  23    0.06    0.02
  -2 -13  23    0.81    0.03
   0  13 -23    1.72    0.79
   0 -13  23    2.13    0.07
  -2  13 -23    0.73    0.77
   2 -13  23    0.84    0.03
  -4  13 -23    0.47    0.82
   4 -13  23    0.12    0.02
  -6  13 -23    3.56    1.10
   6 -13  23    3.53    0.10
  -5 -12  23    0.52    0.03
  -3 -12  23    1.62    0.05
   1  12 -23    2.90    0.73
  -1 -12  23    3.05    0.09
  -1  12 -23    2.60    0.86
   1 -12  23    3.23    0.10
  -3  12 -23    1.77    0.94
   3 -12  23    1.39    0.05
  -5  12 -23   -0.18    0.88
   5 -12  23    0.28    0.03
  -7  12 -23   11.16    1.55
   7 -12  23   10.21    0.29
 -10 -11  23   26.67    0.75
  -8 -11  23    8.97    0.25
  -6 -11  23    4.17    0.12
  -4 -11  23    1.74    0.06
   2  11 -23    1.29    0.63
  -2 -11  23    1.28    0.05
   0  11 -23   14.38    1.21
   0 -11  23   15.21    0.43
  -2  11 -23    1.42    0.75
   2 -11  23    1.05    0.04
  -4  11 -23    1.11    0.84
   4 -11  23    1.23    0.05
  -6  11 -23    4.73    1.08
  -8  11 -23   10.39    1.56
 -10  11 -23   26.69    2.10
 -11 -10  23   26.47    0.74
  -9 -10  23    9.09    0.26
  -7 -10  23    6.11    0.17
  -5 -10  23    4.05    0.12
   3  10 -23    2.51    0.37
  -3 -10  23    2.87    0.08
   1  10 -23   14.37    0.72
   1  10 -23   16.76    1.12
  -1 -10  23   19.66    0.55
  -1  10 -23   16.26    1.19
   1 -10  23   19.31    0.54
  -3  10 -23    2.98    0.91
  -5  10 -23    5.13    1.01
  -7  10 -23    6.85    1.17
  -9  10 -23   10.35    1.59
 -11  10 -23   23.81    1.86
 -10  -9  23    8.85    0.25
  -8  -9  23    6.98    0.20
   6   9 -23    6.40    0.70
  -6  -9  23    7.37    0.21
   4   9 -23    2.68    0.38
  -4  -9  23    3.22    0.09
   2   9 -23   15.62    0.70
  -2  -9  23   20.67    0.58
   0   9 -23    4.43    0.44
  -2   9 -23   17.18    1.24
  -4   9 -23    3.44    0.85
  -6   9 -23    9.27    1.29
 -11  -8  23    8.07    0.23
  -9  -8  23    6.83    0.19
   7   8 -23    9.92    0.79
  -7  -8  23   10.23    0.29
   5   8 -23    1.54    0.41
  -5  -8  23    1.78    0.05
   3   8 -23   10.38    0.58
   1   8 -23    9.98    0.58
  -1   8 -23   10.62    0.58
 -12  -7  23    8.76    0.25
 -10  -7  23    5.02    0.14
  -8  -7  23    9.51    0.27
   6   7 -23    3.63    0.47
  -6  -7  23    3.44    0.10
   4   7 -23    4.78    0.52
   2   7 -23    5.04    0.43
   0   7 -23   13.72    0.63
  -2   7 -23    5.12    0.43
 -13  -6  23    2.26    0.07
 -11  -6  23    3.41    0.10
  -9  -6  23    6.08    0.17
   7   6 -23    5.05    0.60
  -7  -6  23    3.07    0.09
   5   6 -23    0.32    0.31
   3   6 -23    8.17    0.54
   1   6 -23   11.48    0.57
  -1   6 -23   11.13    0.54
  -3   6 -23    8.08    0.49
 -13   6 -23    2.53    0.07
 -14  -5  23    2.99    0.09
 -12  -5  23    0.37    0.02
 -10  -5  23    3.01    0.09
   8   5 -23    2.13    0.48
   6   5 -23    0.86    0.37
   4   5 -23    4.22    0.48
   2   5 -23   12.31    0.58
   0   5 -23   10.19    0.52
  -2   5 -23   10.70    0.50
  -4   5 -23    2.86    0.31
 -12   5 -23    0.34    0.02
 -14   5 -23    3.17    0.09
 -13  -4  23    0.12    0.02
 -11  -4  23    0.95    0.03
   7   4 -23    5.27    0.55
   5   4 -23    3.92    0.47
   3   4 -23    7.00    0.47
  -3   4 -23    6.90    0.39
 -11   4 -23    1.18    0.04
 -13   4 -23    0.19    0.01
 -14  -3  23    1.61    0.05
 -12  -3  23    1.05    0.04
   8   3 -23   11.80    0.79
   6   3 -23    9.37    0.57
   4   3 -23    6.76    0.45
   0   3 -23   15.90    0.60
  -2   3 -23    6.10    0.35
  -4   3 -23    6.62    0.34
  -4   3 -23    6.10    0.33
 -13  -2  23    0.62    0.03
   7   2 -23    5.78    0.49
   5   2 -23   13.17    0.59
   3   2 -23    7.02    0.41
   1   2 -23    8.28    0.40
  -1   2 -23    8.05    0.35
  -3   2 -23    5.33    0.27
  -3   2 -23    6.33    0.28
  -5   2 -23   11.98    0.42
  -5   2 -23   10.61    0.41
  -7   2 -23    4.28    0.28
   6   1 -23   12.62    0.59
   4   1 -23   12.70    0.54
   2   1 -23    8.00    0.36
  -8   1 -23    9.26    0.38
   7   0 -23   14.85    0.71
   5   0 -23   10.20    0.47
   3   0 -23   14.99    0.52
   6  -1 -23    9.14    0.43
  -6   1  23   10.63    0.51
  -5   2  23   11.91    0.49
  -5   4  23    3.75    0.30
  -4   5  23    3.46    0.26
  -4   7  23    5.25    0.33
  -3   8  23   10.68    0.38
  -1  12  23    2.87    0.24
  -1  14  23    3.67    0.33
  -2 -14  24    3.14    0.09
   0  14 -24    7.61    1.20
   0 -14  24    8.75    0.25
  -2  14 -24    2.09    0.87
   2 -14  24    3.12    0.09
  -5 -13  24    1.54    0.05
  -3 -13  24    0.50    0.03
   1  13 -24    5.56    1.03
  -1 -13  24    5.14    0.15
  -1  13 -24    5.45    0.93
   1 -13  24    5.30    0.15
  -3  13 -24    0.40    0.81
   3 -13  24    0.41    0.03
  -5  13 -24    0.52    0.93
   5 -13  24    1.54    0.05
  -6 -12  24    2.57    0.08
  -4 -12  24    0.14    0.03
  -2 -12  24    3.06    0.09
   0  12 -24    1.40    0.76
   0 -12  24    1.44    0.05
  -2  12 -24    2.68    0.82
   2 -12  24    2.75    0.08
  -4  12 -24   -0.35    0.92
  -6  12 -24    3.47    1.06
  -7 -11  24    1.13    0.04
  -5 -11  24    1.27    0.04
  -3 -11  24    5.33    0.15
   1  11 -24    8.12    0.96
  -1 -11  24    7.22    0.20
  -1  11 -24    7.86    1.01
  -3  11 -24    5.48    1.04
  -5  11 -24    0.80    0.85
  -7  11 -24    2.00    1.02
 -10 -10  24   40.87    1.14
  -8 -10  24    3.85    0.11
  -6 -10  24    5.76    0.16
  -2  10 -24    1.81    0.80
  -4  10 -24    3.97    0.91
  -6  10 -24    6.68    1.11
  -8  10 -24    3.98    1.14
  -9  -9  24    1.77    0.06
  -7  -9  24    3.96    0.11
  -5  -9  24    3.55    0.10
 -10  -8  24    3.63    0.11
  -8  -8  24    8.13    0.23
 -11  -7  24    1.16    0.04
  -9  -7  24    3.74    0.11
 -12  -6  24    2.08    0.06
 -10  -6  24    4.62    0.13
 -12   6 -24    2.09    0.06
 -13  -5  24    1.14    0.04
   1   5 -24    9.15    0.74
 -13   5 -24    1.07    0.03
   0   4 -24    8.27    0.47
   3   3 -24    0.08    0.08
   1   3 -24   10.49    0.48
  -1   3 -24   10.67    0.50
   2   2 -24    7.51    0.39
   0   2 -24    4.41    0.28
  -2   2 -24    7.17    0.29
  -6   2 -24    9.09    0.38
   3   1 -24   10.96    0.49
   1   1 -24    1.00    0.13
  -2 -13  25    0.67    0.03
   0  13 -25    5.94    1.14
   0 -13  25    4.91    0.14
  -2  13 -25    0.66    0.77
  -5 -12  25    0.60    0.03
  -3 -12  25    1.24    0.05
  -1  12 -25   10.00    1.22
  -3  12 -25    1.68    0.82
  -5  12 -25    1.10    0.90
  -6 -11  25    2.08    0.06
  -4 -11  25    0.76    0.03
  -2  11 -25    6.24    1.02
  -4  11 -25    1.16    0.81
  -6  11 -25    2.95    1.11
  -7 -10  25    2.75    0.08
  -8  -9  25    4.95    0.14
  -4   3 -25    9.17    0.51
  -2  12 -26    1.31    0.74
   0   0   0    0.00    0.00
;
_shelx_hkl_checksum              6148
_shelx_fab_file
;
   -2   12   26    -20.94     51.96
    3    4   25    -35.90    -59.17
   -6   11   25     20.64    -90.67
   -4   11   25    -43.81     51.26
   -2   11   25     -3.37   -116.31
   -5   12   25    -26.19    -49.04
   -3   12   25    -24.03      8.98
   -1   12   25    -77.82    144.58
   -2   13   25     41.18     17.61
    0   13   25     65.83     91.14
    1    1   24    -23.69   -143.24
    0    2   24   -132.16     -2.86
    2    2   24   -111.11    192.64
   -1    3   24     78.81   -124.03
    1    3   24    131.96    -28.22
    3    3   24    -57.96    -16.68
    0    4   24     42.00    126.15
    1    5   24    -69.13    -27.73
    2    6   24    205.26    134.89
   -8   10   24     -0.76     42.75
   -6   10   24     98.43    -35.43
   -4   10   24    -23.37     17.92
   -2   10   24    -33.42   -117.15
   -7   11   24    -38.65    -78.16
   -5   11   24    -39.17     69.50
   -3   11   24     14.80     57.16
   -1   11   24    -87.92     87.18
    1   11   24    -73.69     15.17
   -6   12   24     12.54     50.94
   -4   12   24    -36.84     -4.10
   -2   12   24    -76.64    -11.05
    0   12   24    -49.65    -79.20
    6   12   24     22.10    108.64
   -5   13   24    -61.83    -25.96
   -3   13   24     -5.03     53.12
   -1   13   24     -4.35      4.29
    1   13   24     67.54      7.92
    5   13   24     16.21    -50.94
   -2   14   24     -4.41    -25.53
    0   14   24   -111.39     33.62
   -1    2   23      0.99     14.48
    1    2   23    -79.28    -82.11
   -2    3   23    -45.32    -26.93
    0    3   23     65.31     48.01
    2    3   23    -72.02     10.48
   -3    4   23     29.61     42.57
   -1    4   23    241.06    -92.70
    3    4   23     -6.22     27.36
   -4    5   23    -45.35    -46.01
   -2    5   23    -63.07    -10.90
    0    5   23    139.44     39.65
    2    5   23    -52.49     -3.26
    4    5   23    -37.24    -38.21
   -5    6   23    107.82     -1.56
   -3    6   23   -113.23    -13.46
   -1    6   23   -288.35     25.36
    1    6   23   -206.10     -6.97
    3    6   23   -112.30   -159.34
    5    6   23     26.80    -50.77
   -6    7   23     77.51     -7.50
   -4    7   23      8.24    -40.36
   -2    7   23    -10.75     27.50
    0    7   23     23.61    145.03
    2    7   23     69.12     15.72
    4    7   23     50.22     25.24
    6    7   23   -151.48     -0.40
   -5    8   23     32.77    -94.16
   -3    8   23     88.18   -109.85
   -1    8   23     83.92    -87.08
    1    8   23    157.23     62.01
    3    8   23    106.16     20.53
    5    8   23    -36.58     -0.54
    7    8   23    -18.78     -4.94
   -6    9   23     -0.56     45.38
   -4    9   23     77.23     78.62
   -2    9   23     64.32     -2.90
    0    9   23     54.47    -95.27
    2    9   23     61.65     25.05
    4    9   23     17.39     78.68
    6    9   23     -1.00     25.88
   -9   10   23    112.94    -57.94
   -7   10   23     14.65    -67.28
   -5   10   23    128.41    -56.45
   -3   10   23     27.58    117.63
   -1   10   23   -175.87     70.51
    1   10   23   -185.59    -88.27
    3   10   23     74.28     98.38
  -10   11   23    177.13     83.55
   -8   11   23      4.23    -23.24
   -6   11   23     89.37    -40.83
   -4   11   23    -97.89      0.64
   -2   11   23     42.55     81.99
    0   11   23     43.11     14.49
    2   11   23     58.85     21.05
    4   11   23     36.57     62.69
   10   11   23    -49.63     -2.41
   -7   12   23     65.33     -9.62
   -5   12   23     -1.22     12.58
   -3   12   23     15.11     32.36
   -1   12   23      9.93      2.22
    1   12   23    122.66      8.97
    5   12   23    -65.15     12.91
   -6   13   23    -17.53     43.60
   -4   13   23    -71.19    -25.09
   -2   13   23    -28.01    -35.54
    0   13   23    -61.11    -39.21
    4   13   23    -67.19     -4.72
    6   13   23     18.75     25.63
   -5   14   23    103.89   -105.15
   -3   14   23    102.44    -37.24
   -1   14   23    -73.95    -99.69
    1   14   23    -22.72     -6.99
    5   14   23     47.12    -99.34
    1    1   22    -27.35     21.13
    0    2   22    -25.56    -89.15
    2    2   22    -65.61    192.55
   -1    3   22     91.29     -2.73
    1    3   22     -6.53     10.52
    3    3   22   -122.67     11.50
   -2    4   22   -112.20     -9.51
    0    4   22   -146.42    231.34
    2    4   22    -79.18   -173.73
    4    4   22     45.56    -85.40
   -3    5   22    -40.22    -23.75
   -1    5   22     49.16    -34.49
    1    5   22    -56.15    -12.92
    3    5   22    -44.57     -1.98
    5    5   22    -27.09   -115.44
   -4    6   22     96.86    -62.79
   -2    6   22   -114.24   -189.50
    0    6   22     74.59     11.17
    2    6   22   -111.06   -134.33
    4    6   22   -106.62    -12.36
    6    6   22    -30.02      7.20
   -5    7   22     45.24     36.15
   -3    7   22    -59.56     87.17
   -1    7   22     42.11     91.37
    1    7   22    -55.18     36.09
    3    7   22   -112.66    -34.91
    5    7   22    -65.57    167.96
    7    7   22   -109.62     -4.13
   -6    8   22    -17.50     23.26
   -4    8   22    -32.28     43.13
   -2    8   22    -56.37    161.81
    0    8   22   -202.69    -60.84
    2    8   22    116.67    -24.66
    4    8   22    -19.68     51.06
    6    8   22    -39.31     37.93
    8    8   22    -34.87      2.05
   -7    9   22     37.73    200.49
   -5    9   22     -5.91   -137.33
   -3    9   22    -21.92     36.18
   -1    9   22      4.90    -48.15
    1    9   22      1.05    -15.95
    3    9   22     -9.51     19.92
    5    9   22    120.81    -90.52
    7    9   22     59.60    -50.30
    9    9   22   -103.30    103.39
   -8   10   22    -91.13   -140.58
   -6   10   22    -35.61     21.30
   -4   10   22    -73.92     53.06
   -2   10   22     61.17    -88.71
    0   10   22    113.61      6.03
    2   10   22   -134.51    -20.45
    4   10   22    -22.98     -3.22
    6   10   22    -25.46   -102.51
    8   10   22   -112.73    -76.47
   10   10   22    -47.82    -23.55
   -9   11   22     52.14    -81.52
   -7   11   22    146.59    -65.21
   -5   11   22     28.45     16.55
   -3   11   22     98.71    -36.56
   -1   11   22    -94.65    -62.53
    1   11   22    -15.28     -1.54
    3   11   22     22.65    -66.18
    5   11   22    -39.02    -27.43
    7   11   22     46.49    -55.27
    9   11   22     57.96    131.22
   11   11   22    173.17   -121.57
  -10   12   22    -22.67   -387.88
   -8   12   22     15.78    -52.36
   -6   12   22    -18.71    -44.22
   -4   12   22    -16.47     -9.66
   -2   12   22     -3.38    -55.70
    0   12   22   -123.12    -63.59
    2   12   22    -22.94    -93.20
    4   12   22    -10.22      6.96
    6   12   22    -26.07    -21.41
    8   12   22   -115.40     58.34
   10   12   22    159.84   -198.70
   -7   13   22     73.42    -76.33
   -5   13   22     30.88    -55.78
   -3   13   22     41.33   -117.47
   -1   13   22     33.12    -28.66
    1   13   22     -9.77    -28.23
    3   13   22     51.07    -53.84
    5   13   22     62.64    -34.17
   -6   14   22     28.37     15.83
   -4   14   22    -79.55    -21.68
    2   14   22    -20.86     44.81
    4   14   22   -133.08     29.58
    6   14   22     73.20      1.56
    3   15   22    -39.90     63.11
    0    1   21     43.67     46.66
   -1    2   21    -88.04    100.78
    1    2   21      5.40    125.97
   -2    3   21     -4.64     13.75
    0    3   21    136.11     32.59
    2    3   21     30.84     41.15
   -3    4   21    -27.33     57.95
   -1    4   21    -25.53    188.57
    1    4   21    194.73     48.09
    3    4   21   -122.25     97.98
   -4    5   21    -44.81     95.30
   -2    5   21    -19.14    -58.40
    0    5   21    -15.93     26.45
    2    5   21     23.74    -76.45
    4    5   21     25.32     80.97
   -5    6   21    -21.74     35.94
   -3    6   21     -4.75    113.70
   -1    6   21    -69.06    223.79
    1    6   21   -271.48    -61.68
    3    6   21    -78.02     -7.96
    5    6   21    -69.80    -20.66
   -6    7   21    -26.99    -34.01
   -4    7   21    -16.25    -82.30
   -2    7   21    -24.03    -64.49
    0    7   21     -7.63    -12.93
    2    7   21     12.95     14.20
    4    7   21     22.98     -8.83
    6    7   21    -38.88     35.23
   -7    8   21     78.17    -79.73
   -5    8   21     -4.96    -21.29
   -3    8   21    -41.76     68.69
   -1    8   21    176.97   -110.41
    1    8   21    122.20     83.10
    3    8   21      3.61    -24.95
    5    8   21     40.45     -1.85
    7    8   21   -135.04    127.61
   -8    9   21     37.76    -12.39
   -6    9   21    -59.51     -5.48
   -4    9   21      0.10     78.10
   -2    9   21     17.30    -54.91
    0    9   21    -26.47     32.50
    2    9   21     24.62     25.25
    4    9   21     89.86      5.21
    6    9   21    -18.97     63.03
    8    9   21      5.19     25.85
   -9   10   21   -104.46    129.39
   -7   10   21    -29.83     79.38
   -5   10   21    143.94    -31.71
   -3   10   21      3.57    187.29
   -1   10   21    -79.65     89.31
    1   10   21   -127.28     66.84
    3   10   21    -16.41    -58.00
    5   10   21    -29.84   -117.69
    7   10   21    -33.04     81.60
    9   10   21   -341.41     54.22
  -10   11   21     27.48    -60.20
   -8   11   21     55.67   -369.20
   -6   11   21    -33.35     32.70
   -4   11   21    -96.16    -37.84
   -2   11   21     13.63      0.50
    0   11   21     70.61     -6.14
    2   11   21    -12.85    -61.25
    4   11   21     23.08     46.58
    6   11   21     -6.08      8.51
    8   11   21    -18.16    -64.39
   10   11   21     29.81     -0.34
  -11   12   21     14.30    127.35
   -9   12   21    -63.94    -41.91
   -7   12   21    -30.18     10.95
   -5   12   21     43.26     71.29
   -3   12   21    -47.35     -7.36
   -1   12   21     85.66    -78.64
    1   12   21     50.98    -47.17
    3   12   21     12.86      1.35
    5   12   21    -88.39      3.03
    7   12   21    -46.53   -129.95
    9   12   21     -3.98     32.32
   11   12   21     50.09   -124.06
   -8   13   21    -46.74   -107.15
   -6   13   21    -14.16      9.32
   -4   13   21    -62.60      1.63
   -2   13   21     -9.16    -54.83
    0   13   21     78.61     11.67
    2   13   21    -20.68     42.58
    4   13   21    -43.75    -31.61
    6   13   21    105.82     43.93
    8   13   21    -35.54    -14.22
   -1   14   21    -49.35     24.62
    1   14   21   -145.07    -54.22
    3   14   21     22.88    -37.02
    5   14   21    -28.84    -32.91
    7   14   21    -32.99   -227.96
   -2   15   21     -4.69     52.88
    0   15   21     46.16     50.73
    2   15   21    -12.96     44.95
    4   15   21     -0.60     24.21
    6   15   21    -26.74      6.43
   -3   16   21    -40.80     36.15
   -1   16   21     28.58    -79.35
    1   16   21     97.45    -42.08
    3   16   21      6.59     12.86
    1    1   20    250.14    126.57
    0    2   20    -27.69     46.47
    2    2   20      1.44     62.65
   -1    3   20     30.77    124.84
    1    3   20     70.60     -4.44
    3    3   20    -56.04   -104.77
   -2    4   20    235.72    148.73
    0    4   20   -107.20      2.98
    2    4   20    260.80    -55.28
    4    4   20     60.21     45.48
   -3    5   20    -78.84     36.63
   -1    5   20     83.19    -55.22
    1    5   20     40.40     19.53
    3    5   20   -152.98     11.93
    5    5   20      4.89     54.05
   -4    6   20    -32.60    -63.55
   -2    6   20     62.21   -204.13
    0    6   20    -80.53    -89.03
    2    6   20   -161.71    -55.70
    4    6   20      1.85    -26.34
    6    6   20     22.03      7.85
   -5    7   20    -42.08     51.65
   -3    7   20    -13.17     28.73
   -1    7   20      6.57     42.15
    1    7   20    -19.13    -28.38
    3    7   20     38.84     43.73
    5    7   20     55.03     49.18
    7    7   20   -109.81    170.64
   -6    8   20     20.38    -12.11
   -4    8   20    -26.62    -35.88
   -2    8   20    -34.31     62.32
    0    8   20   -112.11    -24.31
    2    8   20     45.58      7.14
    4    8   20     37.24    -79.14
    6    8   20     20.66     95.54
    8    8   20    -14.69    138.29
   -7    9   20      9.32     72.16
   -5    9   20      9.11     17.01
   -3    9   20     69.88     29.41
   -1    9   20    -97.95    -11.27
    1    9   20      9.12    -25.87
    3    9   20    -61.80    -51.79
    5    9   20      1.59     37.01
    7    9   20    -80.74     85.33
    9    9   20   -141.51     -5.47
   -8   10   20    318.58     48.48
   -6   10   20      1.37     54.77
   -4   10   20     34.39    -28.06
   -2   10   20     45.94     45.54
    0   10   20     46.89    -68.70
    2   10   20     71.77    -15.19
    4   10   20     12.67    -17.52
    6   10   20     16.13    112.72
    8   10   20    340.01    141.37
   10   10   20    309.66    418.55
   -9   11   20    -29.18    132.15
   -7   11   20   -148.97    -12.09
   -5   11   20    155.69     71.74
   -3   11   20    -44.84     32.33
   -1   11   20    122.23   -159.11
    1   11   20    -10.09    -18.67
    3   11   20     -7.80     -6.02
    5   11   20   -102.93    -24.44
    7   11   20    -20.69     29.74
    9   11   20     -5.83     70.77
   11   11   20      0.60    -26.67
  -10   12   20     14.34    -71.10
   -8   12   20      9.29     29.00
   -6   12   20     -9.04     50.66
   -4   12   20     35.84     71.17
   -2   12   20    -15.23     25.58
    0   12   20      2.11      8.11
    2   12   20     -6.44   -100.91
    4   12   20      3.98     50.32
    6   12   20   -132.39    256.73
    8   12   20      1.37     23.01
   10   12   20    -60.45      6.08
   12   12   20    118.26    334.65
   -9   13   20    -32.26    210.76
   -7   13   20    -24.84    -42.16
   -5   13   20    106.85    -62.96
   -3   13   20    -83.78      2.47
   -1   13   20    121.28      6.77
    1   13   20    -44.62    -44.87
    3   13   20    -69.64    -14.08
    5   13   20     60.05     16.69
    7   13   20    -12.51    -13.82
    9   13   20     14.80     35.15
   -8   14   20    -44.51    -56.93
   -6   14   20   -100.96     19.23
   -4   14   20      3.65     -9.89
   -2   14   20    -90.43    -46.74
    0   14   20    -57.24    -50.08
    2   14   20    -62.92     26.81
    4   14   20    -44.67     51.16
    6   14   20    -72.36    -37.69
    8   14   20    -87.77     73.85
   -7   15   20     65.90    -14.32
   -5   15   20    -21.41    -41.28
   -3   15   20     89.70     74.63
   -1   15   20     33.71    -30.39
    1   15   20     54.90    -34.93
    3   15   20    -18.70      3.20
    5   15   20     29.52    -41.51
    7   15   20    -25.62    -13.12
   -4   16   20    155.36     27.81
   -2   16   20     41.09      7.05
    0   16   20     -0.35     78.81
    2   16   20    -58.56    156.06
    4   16   20    -10.70    -30.64
    0    1   19   -288.68     -7.99
   -1    2   19     29.02    -28.51
    1    2   19     98.44     99.15
   -2    3   19    196.07     18.82
    0    3   19    116.25     -6.31
    2    3   19    -85.35    103.57
   -3    4   19     -2.61     54.42
   -1    4   19     93.93     95.97
    1    4   19    -24.25     26.46
    3    4   19     42.30      0.73
   -4    5   19     -2.16     70.48
   -2    5   19     25.61     48.25
    0    5   19    153.34   -100.22
    2    5   19     75.59    -84.51
    4    5   19      0.69    -98.19
   -5    6   19     -4.75    -17.07
   -3    6   19     17.39    -99.58
   -1    6   19    -75.92    -77.22
    1    6   19    185.90    165.54
    3    6   19    -74.67   -147.54
    5    6   19    -70.97    -19.73
   -6    7   19     10.19    130.75
   -4    7   19    122.34    -98.10
   -2    7   19      2.56     36.56
    0    7   19    -22.97    -63.48
    2    7   19     37.16    -28.03
    4    7   19    -25.14     14.81
    6    7   19     23.36     86.61
   -7    8   19     32.47     -7.58
   -5    8   19    -33.08    -78.14
   -3    8   19    105.02    -12.59
   -1    8   19    -44.29    119.22
    1    8   19     46.91   -160.94
    3    8   19     33.73     26.76
    5    8   19      5.90     -6.70
    7    8   19     -4.82     15.84
   -8    9   19    185.94    137.51
   -6    9   19     -3.59      3.28
   -4    9   19    -14.34     38.75
   -2    9   19    -10.01      5.08
    0    9   19    -38.41     25.18
    2    9   19    -16.29      3.71
    4    9   19    -42.77     10.44
    6    9   19     49.00     32.33
    8    9   19    245.93    356.65
   -9   10   19      8.34    -60.20
   -7   10   19    -19.83   -229.09
   -5   10   19    132.95     94.02
   -3   10   19     38.90   -125.67
   -1   10   19     92.15    106.32
    1   10   19    -43.90     40.20
    3   10   19    -38.92    -51.67
    5   10   19     44.63    -91.04
    7   10   19   -109.35   -109.55
    9   10   19     21.22    -92.89
  -10   11   19    174.04      0.04
   -8   11   19    201.13     10.13
   -6   11   19   -151.55     88.34
   -4   11   19    -47.50     41.39
   -2   11   19    -32.45    -36.67
    0   11   19    -93.29     63.01
    2   11   19    -62.92     38.29
    4   11   19    -70.53     94.55
    6   11   19    -67.24    130.49
    8   11   19    117.97     72.73
   10   11   19    204.69    -63.77
  -11   12   19     54.09     69.41
   -9   12   19      1.55    129.89
   -7   12   19     28.29    -80.10
   -5   12   19     23.06    -22.63
   -3   12   19     28.25    -27.15
   -1   12   19    -25.13     -6.75
    1   12   19    -32.76     -0.95
    3   12   19     44.44    -47.92
    5   12   19     -1.55    -63.40
    7   12   19     56.29    -20.05
    9   12   19    207.00    -17.15
   11   12   19     45.46    -28.13
  -10   13   19     56.00     18.02
   -8   13   19    -86.36    150.38
   -6   13   19     97.58     51.60
   -4   13   19     41.88     17.82
   -2   13   19    -10.39     86.10
    0   13   19      9.98    -76.31
    2   13   19    -36.87    -35.27
    4   13   19    100.99    -62.53
    6   13   19     65.06     39.33
    8   13   19    -36.50    -31.42
   10   13   19     29.06    -36.29
   -9   14   19     -7.75     68.35
   -7   14   19     -3.29    -49.47
   -5   14   19    -44.92    -83.16
   -3   14   19    -48.79     37.75
   -1   14   19     -8.55     96.49
    1   14   19     40.77    126.47
    3   14   19     -5.88    -45.02
    5   14   19      8.29    -64.85
    7   14   19     53.01     44.03
    9   14   19     13.40     77.81
   -8   15   19    -24.87    -19.67
   -6   15   19      8.91    -52.50
   -4   15   19     79.43     60.10
   -2   15   19     45.98    133.35
    0   15   19     19.36      5.55
    2   15   19    -45.78     14.84
    4   15   19     58.79     19.89
    6   15   19     29.41    -39.16
    8   15   19    -46.64    -17.06
   -7   16   19     21.38     84.39
   -5   16   19    -82.01    -21.50
   -3   16   19    -12.23   -138.90
   -1   16   19    -16.92     64.23
    1   16   19    104.88    165.11
    3   16   19      2.12   -102.82
    5   16   19    -49.08    -39.31
    7   16   19     24.17    113.49
   -4   17   19     87.98    104.28
   -2   17   19     10.50    -23.04
    0   17   19    -22.62    273.83
    2   17   19    -34.30     82.90
    4   17   19    -62.68    -55.68
    1    1   18    151.75    263.99
    0    2   18     29.55     72.20
    2    2   18     62.24      6.20
   -1    3   18    117.80    134.49
    1    3   18     15.22    275.20
    3    3   18    -70.76     65.35
   -2    4   18     68.00    -91.75
    0    4   18     27.85   -179.56
    2    4   18     18.89     36.20
    4    4   18    -89.72     12.00
   -3    5   18    -25.42     54.75
   -1    5   18    -32.12     88.43
    1    5   18   -100.79     64.23
    3    5   18    -78.90    122.35
    5    5   18     91.66    -64.92
   -4    6   18    -89.60    -99.72
   -2    6   18     42.79    -86.97
    0    6   18   -129.31   -116.37
    2    6   18     31.07     -7.18
    4    6   18     -0.27     41.57
    6    6   18    -16.09     13.87
   -5    7   18      0.94     14.99
   -3    7   18      4.52     -8.20
   -1    7   18    188.71     34.08
    1    7   18    -22.86    -30.25
    3    7   18    -35.56     16.26
    5    7   18     -2.56      8.19
    7    7   18    117.23     73.17
   -6    8   18    -79.53     67.74
   -4    8   18     34.88    -51.61
   -2    8   18    -23.81    -92.09
    0    8   18    152.13    -58.87
    2    8   18    -86.84     28.73
    4    8   18     24.91     18.96
    6    8   18    -33.72     69.12
    8    8   18    -24.77    212.18
   -7    9   18     39.88   -185.32
   -5    9   18    200.07     34.70
   -3    9   18     65.56    -26.49
   -1    9   18      6.83     36.81
    1    9   18     28.15    -48.31
    3    9   18    -28.37     -6.56
    5    9   18    -43.74    116.49
    7    9   18     13.22     45.90
    9    9   18     51.47   -217.70
   -8   10   18     18.44    179.47
   -6   10   18     21.59     -0.60
   -4   10   18     65.88    -45.81
   -2   10   18     -8.56    -23.97
    0   10   18    116.24    -13.65
    2   10   18      4.57     -0.41
    4   10   18    -22.03    -33.40
    6   10   18     40.01     -4.77
    8   10   18     24.67    204.31
   10   10   18     26.44     -6.68
   -9   11   18   -119.03   -300.90
   -7   11   18     96.57    106.50
   -5   11   18    -80.33     64.57
   -3   11   18     81.29    -48.83
   -1   11   18    -56.54     12.13
    1   11   18     17.60     67.16
    3   11   18    -94.28   -105.64
    5   11   18     12.79    -25.89
    7   11   18     49.11     22.54
    9   11   18    -92.08   -296.69
   11   11   18     64.22   -128.10
  -10   12   18    279.30    249.28
   -8   12   18     69.19     -9.74
   -6   12   18    -26.63     -5.66
   -4   12   18     -7.73    160.26
   -2   12   18    136.47     37.87
    0   12   18     62.82     78.50
    2   12   18    119.72     -0.39
    4   12   18      3.99     12.71
    6   12   18    -55.49     42.38
    8   12   18   -240.25    -30.51
   10   12   18      8.03   -144.87
   12   12   18    -28.10    -74.28
  -11   13   18    -42.26    -16.11
   -9   13   18    -63.36     99.94
   -7   13   18    131.66   -123.54
   -5   13   18    162.94     44.77
   -3   13   18    -38.02    -20.11
   -1   13   18   -110.53     56.80
    1   13   18     -9.95     56.26
    3   13   18    -87.21    -38.24
    5   13   18    -82.72     87.89
    7   13   18    -33.19     13.38
    9   13   18     -8.48    115.73
   11   13   18    -12.28    -26.50
  -10   14   18     12.83    -58.01
   -8   14   18     44.96      5.01
   -6   14   18     17.05      7.12
   -4   14   18      1.75     79.43
   -2   14   18     -5.41     14.20
    0   14   18     13.95    -70.89
    2   14   18     34.56    -82.27
    4   14   18     90.59    -74.30
    6   14   18     27.49     52.16
    8   14   18     44.83     33.77
   10   14   18     -4.87     18.37
   -9   15   18     84.32     60.14
   -7   15   18    -46.18     21.18
   -5   15   18     71.82    -44.62
   -3   15   18     -0.23     15.76
   -1   15   18     39.19     68.38
    1   15   18    -85.21     75.26
    3   15   18    -33.65     21.84
    5   15   18     -2.98    -50.15
    7   15   18    -34.08     57.93
    9   15   18    -20.95     53.11
   -8   16   18    -89.24    -15.48
   -6   16   18     87.84     -4.38
   -4   16   18     97.66      5.91
   -2   16   18    -86.26     54.11
    0   16   18    116.06    228.91
    2   16   18    -96.00     32.07
    4   16   18     16.30      3.33
    6   16   18    130.74    -45.48
    8   16   18    -55.20     18.47
   -5   17   18     47.17    -86.21
   -3   17   18    -57.25   -177.00
   -1   17   18   -135.94     22.47
    1   17   18     44.68     92.67
    3   17   18   -106.81    -51.31
    5   17   18    -59.41    -37.16
    0   18   18     -5.64     90.83
    0    1   17    -35.06     50.13
   -1    2   17    125.13    102.09
    1    2   17    -12.32    -30.71
   -2    3   17    -40.73    -23.21
    0    3   17    166.11   -258.87
    2    3   17    -11.87     72.47
   -3    4   17   -106.73      5.77
   -1    4   17    -32.00     -2.38
    1    4   17    -15.03     63.89
    3    4   17    -64.64    -67.62
   -4    5   17    -74.15    -64.99
   -2    5   17    -83.02    135.03
    0    5   17    -94.89   -150.30
    2    5   17    -80.04    -19.80
    4    5   17    -82.16    -18.29
   -5    6   17     41.95     -1.25
   -3    6   17      1.53    -14.91
   -1    6   17    -77.62     -6.59
    1    6   17     -4.45     20.52
    3    6   17     95.42    -90.21
    5    6   17     23.05     -7.65
   -6    7   17     83.75      5.91
   -4    7   17      2.81    -27.92
   -2    7   17    -16.06   -106.29
    0    7   17   -146.32     34.15
    2    7   17   -135.33    -22.13
    4    7   17    -45.66     -6.54
    6    7   17     79.82    -13.15
   -7    8   17     56.67    -58.80
   -5    8   17     57.26    -90.29
   -3    8   17     77.36    -19.12
   -1    8   17    126.66    -25.64
    1    8   17    -35.02     18.12
    3    8   17    119.22     35.18
    5    8   17     21.14     38.79
    7    8   17      9.26      8.04
   -8    9   17     84.55    -26.56
   -6    9   17     53.17     40.27
   -4    9   17    -29.59    -66.98
   -2    9   17     26.51    -31.07
    0    9   17     -0.88    -44.41
    2    9   17     29.56    -32.38
    4    9   17    -51.88    -62.48
    6    9   17     44.50     36.28
    8    9   17     64.79      3.48
   -9   10   17   -114.60   -128.28
   -7   10   17     87.06   -155.31
   -5   10   17    112.28   -117.29
   -3   10   17     63.82      6.18
   -1   10   17    -90.25   -179.13
    1   10   17    174.96   -137.84
    3   10   17    -24.38     46.99
    5   10   17     61.14     12.16
    7   10   17     11.76     34.02
    9   10   17     36.45   -144.54
  -10   11   17    -58.71     10.17
   -8   11   17   -118.99    176.79
   -6   11   17    -29.01    -31.74
   -4   11   17     35.00     87.86
   -2   11   17    -38.83     45.45
    0   11   17     13.60     52.97
    2   11   17    -25.19     81.18
    4   11   17     57.01     -9.50
    6   11   17     48.52     16.97
    8   11   17   -187.26    -33.30
   10   11   17    -22.93    -27.94
  -11   12   17      7.37    -10.95
   -9   12   17      8.56    -89.40
   -7   12   17     11.98     46.46
   -5   12   17    -58.56   -137.78
   -3   12   17     31.05    -47.17
   -1   12   17   -180.51    121.13
    1   12   17   -108.26     45.08
    3   12   17    -53.67     12.34
    5   12   17     70.53    -38.50
    7   12   17     42.49    142.08
    9   12   17   -155.80     -3.57
   11   12   17   -119.63     16.53
  -12   13   17    -11.06    -70.85
  -10   13   17    137.65     14.44
   -8   13   17     -8.10     49.76
   -6   13   17     55.64     65.53
   -4   13   17     39.84     88.83
   -2   13   17   -159.84     11.95
    0   13   17     64.16    -30.61
    2   13   17   -120.98    -86.18
    4   13   17     28.34    -43.27
    6   13   17    -65.26   -101.78
    8   13   17    -26.16     35.86
   10   13   17     68.95   -111.29
   12   13   17    -15.27     23.05
  -11   14   17    -16.01     98.20
   -9   14   17    -23.43     -1.69
   -7   14   17    -84.05   -108.86
   -5   14   17     17.27    -40.86
   -3   14   17     44.88    -11.89
   -1   14   17     -4.62     95.54
    1   14   17   -118.40     48.26
    3   14   17     42.89    -10.60
    5   14   17     89.58     48.06
    7   14   17    -68.66      9.21
    9   14   17     87.09    127.24
   11   14   17     31.73    -24.33
  -10   15   17    -29.03     37.43
   -8   15   17     28.21     43.39
   -6   15   17     19.16    -75.58
   -4   15   17      0.58     -8.48
   -2   15   17    -49.17     63.89
    0   15   17    -37.43    -58.72
    2   15   17     58.78    -65.77
    4   15   17      0.98    -87.35
    6   15   17     23.81     32.60
    8   15   17    -19.41     37.14
   10   15   17    -20.53    -23.51
   -9   16   17     14.71     19.27
   -7   16   17    -91.35    -44.74
   -5   16   17     82.60     59.93
   -3   16   17     16.39    -12.27
   -1   16   17    -61.85     -6.90
    1   16   17    155.61    -95.35
    3   16   17     41.32    111.23
    5   16   17    -29.52     26.93
    7   16   17    -21.47    -73.75
    9   16   17     31.58     -3.85
   -6   17   17     33.21     36.63
   -4   17   17    -21.98      0.36
   -2   17   17     16.24    237.28
    0   17   17     17.17    183.97
    2   17   17    -42.17    -78.95
    4   17   17    -39.58      7.27
    6   17   17     49.52    -49.54
   -3   18   17     19.03     40.42
   -1   18   17     16.25      8.84
    1   18   17    175.36   -232.46
    3   18   17    -68.54     29.01
    0    0   16    -14.28     39.82
    1    1   16    -54.42   -414.09
    0    2   16     43.53    -68.77
    2    2   16     37.54    -20.36
   -1    3   16    -17.66    120.83
    1    3   16    -59.16    -19.80
    3    3   16    -59.03    -31.53
   -2    4   16     91.80     84.74
    0    4   16    -35.09     72.50
    2    4   16     56.14    -61.01
    4    4   16      1.34     38.42
   -3    5   16     44.48     49.02
   -1    5   16   -187.45    -84.92
    1    5   16    -34.11   -238.68
    3    5   16     68.90     -6.34
    5    5   16    -44.77   -105.27
   -4    6   16   -109.37     36.63
   -2    6   16    -86.39    -40.84
    0    6   16    156.88    -63.87
    2    6   16    -51.22      9.96
    4    6   16   -103.24     77.14
    6    6   16     34.89    -75.72
   -5    7   16     -8.10    -12.01
   -3    7   16     24.03    -45.43
   -1    7   16    -30.37    107.32
    1    7   16     -1.17     19.68
    3    7   16    -80.12    -51.64
    5    7   16      7.52     36.31
    7    7   16    -85.60     11.91
   -6    8   16   -183.42   -172.84
   -4    8   16     13.79     25.80
   -2    8   16    -57.42    -25.57
    0    8   16    -14.94     27.92
    2    8   16    -44.81     -7.77
    4    8   16     12.61    -16.05
    6    8   16    -27.70     59.45
    8    8   16    104.09    -59.02
   -7    9   16    189.99   -208.08
   -5    9   16     94.07   -171.87
   -3    9   16    -58.05     47.32
   -1    9   16     24.64     58.35
    1    9   16     16.39     32.23
    3    9   16     26.11    -57.76
    5    9   16    -18.28     29.59
    7    9   16    112.28    113.33
    9    9   16    -10.77    123.23
   -8   10   16    -54.18     54.28
   -6   10   16    -44.45     51.74
   -4   10   16     22.41    101.74
   -2   10   16     18.82     48.63
    0   10   16     34.22     37.44
    2   10   16     25.10    -70.31
    4   10   16    -31.45    -11.93
    6   10   16    -46.37      5.40
    8   10   16    281.52    -92.65
   10   10   16    -65.55    -77.94
   -9   11   16     81.06    -72.46
   -7   11   16   -108.39    177.50
   -5   11   16    -65.82    256.66
   -3   11   16    -21.66     11.45
   -1   11   16     -0.97    162.14
    1   11   16   -120.33    -16.98
    3   11   16     45.67      5.01
    5   11   16    -48.55      4.09
    7   11   16    -50.13     -1.87
    9   11   16     -0.23    -60.33
   11   11   16     32.95    -62.46
  -10   12   16     83.02    -99.52
   -8   12   16    -33.00    -31.72
   -6   12   16    -50.24     -2.26
   -4   12   16    -11.57   -113.14
   -2   12   16     24.78     63.99
    0   12   16    -77.62    126.60
    2   12   16    -76.35    110.81
    4   12   16     50.68    -88.06
    6   12   16    -26.00   -102.85
    8   12   16    -77.02   -125.18
   10   12   16     88.29    -52.50
   12   12   16     -2.48    -43.73
  -11   13   16    -51.65    -76.20
   -9   13   16    -96.75   -107.23
   -7   13   16   -206.48     10.02
   -5   13   16    126.92   -120.93
   -3   13   16    149.90    132.61
   -1   13   16   -211.59     30.03
    1   13   16   -223.36    -60.69
    3   13   16     54.47     36.60
    5   13   16     22.14    -18.33
    7   13   16    -98.96    171.26
    9   13   16    -91.86     68.58
   11   13   16    -85.27    -58.68
   13   13   16    115.47     43.71
  -12   14   16     19.35    -46.13
  -10   14   16     75.17    -82.84
   -8   14   16    -73.74     56.74
   -6   14   16     -0.08     18.95
   -4   14   16    -15.44     74.40
   -2   14   16     -1.80     -2.18
    0   14   16      8.17    -36.46
    2   14   16    116.50   -185.91
    4   14   16     15.66     13.07
    6   14   16     -5.66     56.17
    8   14   16     98.13     -9.04
   10   14   16     31.30     -2.19
   12   14   16     -5.88    -38.37
  -11   15   16     75.24    -49.78
   -9   15   16    -18.12     33.32
   -7   15   16     95.74      4.33
   -5   15   16     33.04    -17.16
   -3   15   16    127.39    123.11
   -1   15   16    112.80     54.58
    1   15   16   -155.80    -73.87
    3   15   16    -44.14      0.84
    5   15   16    115.54      7.62
    7   15   16    -52.13     42.52
    9   15   16    -18.42      1.01
   11   15   16    100.87    -54.37
  -10   16   16    123.58     86.38
   -8   16   16     36.06      4.60
   -6   16   16     -5.49     13.81
   -4   16   16      3.57    123.14
   -2   16   16     72.60    -43.46
    0   16   16    -65.83    -40.54
    2   16   16     90.98      4.69
    4   16   16     63.12     -9.99
    6   16   16     57.92    -79.66
    8   16   16     40.05    -25.68
   10   16   16     57.52    -30.42
   -7   17   16    146.36     25.21
   -5   17   16     40.06     21.82
   -3   17   16     65.58     14.99
   -1   17   16    -47.23    -97.43
    1   17   16    140.27   -192.40
    3   17   16      8.71     77.82
    5   17   16     14.26     91.27
    7   17   16     61.56     57.39
   -6   18   16    -26.22     39.10
   -4   18   16     -2.37      5.55
   -2   18   16     59.25     -1.35
    0   18   16     58.12     21.36
    2   18   16    -42.78   -126.40
    4   18   16     97.76    -74.28
    6   18   16     -1.16      0.54
    0    1   15   -111.49     74.08
   -1    2   15    268.68    373.30
    1    2   15    -80.37    106.34
   -2    3   15   -109.62   -167.52
    0    3   15     28.90   -107.74
    2    3   15    -62.58     92.73
   -3    4   15     -0.69    -70.85
   -1    4   15    -55.14     32.15
    1    4   15     50.96    -41.71
    3    4   15     57.36    -19.49
   -4    5   15   -106.44    -40.74
   -2    5   15    156.23     94.38
    0    5   15    140.32    -14.26
    2    5   15    101.73    -84.06
    4    5   15     64.90     28.72
   -5    6   15   -132.51    126.15
   -3    6   15   -154.07   -103.35
   -1    6   15    140.43     -1.65
    1    6   15    -20.86    100.83
    3    6   15    159.25     78.23
    5    6   15    -70.17    -67.06
   -6    7   15    -18.05    -35.10
   -4    7   15     23.33    186.67
   -2    7   15     68.93    -31.45
    0    7   15     22.39    -98.37
    2    7   15     22.74    -99.22
    4    7   15     60.13     28.83
    6    7   15      9.88   -117.45
   -7    8   15    -87.78   -161.16
   -5    8   15    119.25   -126.90
   -3    8   15      7.76     11.43
   -1    8   15     54.39     55.10
    1    8   15     20.04    112.09
    3    8   15     78.74      2.58
    5    8   15    115.82     29.46
    7    8   15      3.16   -118.87
   -8    9   15     -9.84   -119.06
   -6    9   15     35.44    -12.18
   -4    9   15    -63.77     12.59
   -2    9   15     29.02    157.05
    0    9   15    -73.89    167.64
    2    9   15     65.89     24.10
    4    9   15     -8.35     12.51
    6    9   15     50.49     64.48
    8    9   15    110.65    -92.97
   -9   10   15     57.17    -31.53
   -7   10   15      6.53     21.17
   -5   10   15     93.85   -117.60
   -3   10   15      0.97     59.25
   -1   10   15   -110.41     62.75
    1   10   15     45.09    -50.95
    3   10   15    -24.10     59.00
    5   10   15      2.81     48.84
    7   10   15      8.16    -53.36
    9   10   15     16.84    -61.78
  -10   11   15    124.23   -135.82
   -8   11   15    -26.92    -10.54
   -6   11   15    -16.94     67.70
   -4   11   15     52.13     26.66
   -2   11   15    114.23     18.46
    0   11   15      4.93     13.20
    2   11   15    -70.05     72.83
    4   11   15    -10.65    -66.06
    6   11   15     14.88   -111.34
    8   11   15    -11.92    -12.60
   10   11   15     36.56     77.22
  -11   12   15     26.12    -52.56
   -9   12   15    -54.19    -33.67
   -7   12   15   -145.11    -20.95
   -5   12   15     22.45      3.58
   -3   12   15     -3.83     22.44
   -1   12   15    -33.63      8.89
    1   12   15     72.27    150.61
    3   12   15     44.03     11.60
    5   12   15    -15.84      9.84
    7   12   15    -68.38     22.97
    9   12   15   -201.31     42.16
   11   12   15    -72.42    -59.68
  -12   13   15     -8.18     15.76
  -10   13   15    -25.59    -37.13
   -8   13   15     36.55    -88.13
   -6   13   15     68.35      0.70
   -4   13   15     27.60    -16.30
   -2   13   15     57.16     22.60
    0   13   15     39.65     85.95
    2   13   15     -5.58     41.59
    4   13   15    -82.64     52.55
    6   13   15     62.81    -26.79
    8   13   15     80.28   -102.96
   10   13   15    -55.62    -18.01
   12   13   15     33.85     21.62
  -13   14   15     -3.81    -36.11
  -11   14   15     20.50    -38.41
   -9   14   15    -43.49    -32.27
   -7   14   15     41.22    -57.77
   -5   14   15     82.67    -34.75
   -3   14   15     42.94     -5.07
   -1   14   15   -111.93     49.74
    1   14   15   -118.86    -27.71
    3   14   15      9.75    -80.45
    5   14   15      3.47     35.80
    7   14   15     93.80     50.73
    9   14   15    -45.92    -78.58
   11   14   15    -48.82     -3.45
   13   14   15     -1.31    -48.85
  -12   15   15     91.68    -71.28
  -10   15   15    -22.69     -2.65
   -8   15   15    139.07     95.75
   -6   15   15    -19.42     19.26
   -4   15   15   -152.44    -46.86
   -2   15   15     28.18   -119.79
    0   15   15     19.98    -78.01
    2   15   15    153.36     28.00
    4   15   15   -107.80     60.29
    6   15   15     16.28     14.09
    8   15   15     75.00    -17.10
   10   15   15    -36.65    -11.56
   12   15   15    -25.39    -76.99
   -9   16   15    -16.35    -48.30
   -7   16   15     39.43    162.03
   -5   16   15     25.85     13.89
   -3   16   15    -66.53    -70.99
   -1   16   15     81.06    -62.20
    1   16   15   -138.58     34.13
    3   16   15   -107.96    -36.19
    5   16   15   -104.71      7.96
    7   16   15   -112.75    -48.75
    9   16   15      4.97     44.29
   -8   17   15     41.16   -110.37
   -6   17   15    -33.64      7.56
   -4   17   15    -39.06     17.00
   -2   17   15     17.39     55.63
    0   17   15   -129.14    -18.56
    2   17   15    -69.80     32.95
    4   17   15    100.94    -33.18
    6   17   15      1.51     98.36
    8   17   15    -53.00      9.66
   -7   18   15     90.82     -9.53
   -5   18   15     40.01    -83.89
   -3   18   15    -11.23    -37.09
   -1   18   15    -40.94   -288.40
    1   18   15    -66.78    -24.58
    3   18   15      8.26   -108.36
    5   18   15     47.15    -82.07
    7   18   15    -71.44     31.94
   -2   19   15    -54.52   -126.14
    0   19   15     66.04    -15.10
    2   19   15     40.49    -36.05
    1    1   14    275.54    216.09
    0    2   14    -60.27    -82.28
    2    2   14    -58.70    212.70
   -1    3   14    -38.33    -56.34
    1    3   14   -161.13    243.43
    3    3   14     75.69    -76.54
   -2    4   14    -51.44    -21.97
    0    4   14     12.60   -215.98
    2    4   14     78.33     85.10
    4    4   14     33.05   -119.54
   -3    5   14    -73.08   -102.98
   -1    5   14   -144.81   -198.90
    1    5   14    -32.46    -84.73
    3    5   14   -100.32    -88.12
    5    5   14   -106.82     66.46
   -4    6   14     29.56    -17.83
   -2    6   14     68.44    -26.81
    0    6   14    -15.03     37.19
    2    6   14     94.84   -174.38
    4    6   14     95.17      2.14
    6    6   14   -137.43      8.02
   -5    7   14    -18.33    -49.38
   -3    7   14     81.25     65.25
   -1    7   14    136.48     25.92
    1    7   14     25.05    151.09
    3    7   14     45.45    -12.57
    5    7   14    -23.50     21.80
    7    7   14    108.62     43.00
   -6    8   14   -102.12     13.88
   -4    8   14    -24.65     19.78
   -2    8   14     33.83    -60.56
    0    8   14    -66.45    -82.65
    2    8   14      9.95     80.78
    4    8   14     -6.48     56.24
    6    8   14    -48.86    -88.78
    8    8   14   -116.16     89.50
   -7    9   14     14.69     83.76
   -5    9   14     38.78     -7.78
   -3    9   14     36.92    -60.16
   -1    9   14    -52.64     53.92
    1    9   14    -70.52    -64.27
    3    9   14     82.90   -132.25
    5    9   14    122.76    -31.47
    7    9   14     45.47     55.14
    9    9   14   -123.94    -49.84
   -8   10   14    -19.31    -96.77
   -6   10   14     29.75     12.53
   -4   10   14    -16.25     -5.84
   -2   10   14     85.40    112.36
    0   10   14     83.08   -102.46
    2   10   14     -3.52     27.97
    4   10   14    -25.72     -0.63
    6   10   14    -15.02   -101.46
    8   10   14     26.24     51.61
   10   10   14     11.12    -82.01
   -9   11   14      9.87     84.28
   -7   11   14    132.88     38.12
   -5   11   14     -4.22     42.38
   -3   11   14    -34.52     62.23
   -1   11   14     -8.52     -8.07
    1   11   14    210.98   -123.51
    3   11   14    -16.39   -179.23
    5   11   14    -85.15     53.92
    7   11   14     -2.53   -125.37
    9   11   14    122.04   -144.88
   11   11   14      7.93    123.52
  -10   12   14    -43.16    -34.52
   -8   12   14     41.46    156.57
   -6   12   14    -18.22     35.67
   -4   12   14    -38.49   -130.87
   -2   12   14     42.01     84.50
    0   12   14    -19.43     30.01
    2   12   14     30.43     44.38
    4   12   14    -16.89    -17.48
    6   12   14     54.05     22.31
    8   12   14     27.90     48.37
   10   12   14    -47.26    -10.28
   12   12   14    116.88     42.29
  -11   13   14     35.17    -51.40
   -9   13   14   -105.31     34.13
   -7   13   14    118.86    -73.06
   -5   13   14    -17.53     45.79
   -3   13   14    -32.81    103.72
   -1   13   14    -84.88    -75.62
    1   13   14     77.82   -147.11
    3   13   14     92.76     31.99
    5   13   14     24.45    100.06
    7   13   14    106.94     34.77
    9   13   14   -132.51     40.09
   11   13   14     67.72      5.91
   13   13   14     46.94     84.59
  -12   14   14     -0.07     17.78
  -10   14   14    -94.35    102.84
   -8   14   14      5.11    -12.26
   -6   14   14    -26.85    193.59
   -4   14   14    -54.77     90.25
   -2   14   14     41.91    112.12
    0   14   14    165.77   -110.44
    2   14   14     17.68    107.61
    4   14   14    -46.49    109.24
    6   14   14    -13.73     51.55
    8   14   14     81.07     51.76
   10   14   14      0.39    -16.68
   12   14   14     19.80      6.69
  -11   15   14    -35.42    -22.17
   -9   15   14     97.10     17.87
   -7   15   14   -117.50     18.19
   -5   15   14    -60.75    -10.53
   -3   15   14     20.97    -22.75
   -1   15   14    -25.54    -12.99
    1   15   14     -7.44     79.50
    3   15   14    -93.52    -74.51
    5   15   14    -51.51    -18.88
    7   15   14    -42.93     15.75
    9   15   14     -9.23     52.15
   11   15   14   -116.81     90.08
  -10   16   14    -56.90    -25.70
   -8   16   14     42.59      9.09
   -6   16   14     64.82    -18.41
   -4   16   14    -31.91    -44.99
   -2   16   14     -2.85    -49.40
    0   16   14   -134.16    -46.48
    2   16   14     66.75     83.03
    4   16   14    -82.94     80.60
    6   16   14   -112.56      0.67
    8   16   14    -39.97     97.81
   10   16   14     47.45     10.22
   -9   17   14   -142.26   -110.73
   -7   17   14     63.89     47.69
   -5   17   14    -70.01      3.60
   -3   17   14   -123.52    -38.32
   -1   17   14    -68.10    -69.16
    1   17   14   -106.06      9.28
    3   17   14    -53.39   -123.14
    5   17   14   -144.79     39.12
    7   17   14    112.01    -29.01
    9   17   14     31.23     30.13
   -8   18   14     49.51     86.20
   -6   18   14     37.51   -110.35
   -4   18   14    -87.42    -14.28
   -2   18   14      5.73     30.47
    0   18   14     28.61   -156.65
    2   18   14     46.94      9.01
    4   18   14    -53.44     55.79
    6   18   14    -77.39    118.40
    8   18   14    -46.51     30.84
   -5   19   14   -105.01     52.60
   -3   19   14    -99.57      8.00
   -1   19   14    -84.49     92.49
    1   19   14      3.17    -24.44
    3   19   14    -23.29     10.11
    5   19   14     -8.68    -74.24
    0    1   13    -96.98    143.76
    1    2   13    109.38     58.69
   -2    3   13     26.39    -71.12
    0    3   13   -196.97     13.21
    2    3   13    -11.18    -63.08
   -3    4   13   -146.15     30.81
   -1    4   13    -20.00    122.29
    1    4   13      8.44     91.01
    3    4   13    -93.75    -79.53
   -4    5   13    -68.46     68.40
   -2    5   13   -164.31    134.20
    0    5   13   -144.12    135.53
    2    5   13     30.39    100.53
    4    5   13     95.28     71.32
   -5    6   13     -2.14     37.38
   -3    6   13     42.21    -14.12
   -1    6   13   -121.58    111.36
    1    6   13     87.03    -15.80
    3    6   13    -53.84      6.85
    5    6   13    138.67    -85.42
   -6    7   13     59.67     82.66
   -4    7   13     91.31     28.39
   -2    7   13   -146.39     -7.71
    0    7   13     53.56    136.11
    2    7   13      9.24    -31.19
    4    7   13    -21.96    -69.14
    6    7   13    120.32    247.55
   -7    8   13     -2.73     18.28
   -5    8   13    -66.43     54.01
   -3    8   13    151.60     42.40
   -1    8   13    -32.95   -103.28
    1    8   13    -48.38    -78.02
    3    8   13    134.57      1.13
    5    8   13     38.92     60.73
    7    8   13      1.86    -16.08
   -8    9   13     11.42     56.99
   -6    9   13    -22.22    -26.57
   -4    9   13      7.98    -56.49
   -2    9   13     45.05     50.88
    0    9   13    123.43    192.54
    2    9   13    -66.29    -71.75
    4    9   13     61.80     -9.15
    6    9   13     19.36    118.98
    8    9   13    -42.41    -35.02
   -9   10   13     -0.11     76.81
   -7   10   13    151.45     68.77
   -5   10   13    -21.86      4.56
   -3   10   13    -46.64     32.91
   -1   10   13    -27.65    -98.25
    1   10   13   -189.48   -154.98
    3   10   13    127.98    -23.60
    5   10   13    -69.56     44.97
    7   10   13    115.24     64.60
    9   10   13     47.80     28.09
  -10   11   13    -43.54     -1.72
   -8   11   13     35.87   -100.69
   -6   11   13     65.72    -18.69
   -4   11   13   -127.19     19.76
   -2   11   13     93.90     12.03
    0   11   13   -194.66    -42.76
    2   11   13    -12.23    -36.91
    4   11   13      4.53    -42.41
    6   11   13     30.15    -51.25
    8   11   13    -85.20    136.76
   10   11   13    -25.50     61.66
  -11   12   13     13.72    147.12
   -9   12   13     14.94     18.28
   -7   12   13     -7.49     34.63
   -5   12   13    -70.03      2.26
   -3   12   13    -27.25     39.27
   -1   12   13    118.30   -122.77
    1   12   13    -77.80    -68.49
    3   12   13     34.77    -50.63
    5   12   13     30.10    -39.47
    7   12   13     24.80    -55.29
    9   12   13    -13.57     -4.18
   11   12   13    177.25     41.93
  -12   13   13      8.10    -30.47
  -10   13   13     -5.26     -2.85
   -8   13   13     18.14    -33.37
   -6   13   13    -67.53   -146.35
   -4   13   13      8.38    -36.21
   -2   13   13     50.56     65.84
    0   13   13     13.26    -36.00
    2   13   13     86.45   -179.83
    4   13   13    -11.94    -71.19
    6   13   13     41.97    104.61
    8   13   13     64.78    -93.22
   10   13   13      2.15     34.59
   12   13   13    -11.88    -77.07
  -13   14   13    -89.32     36.10
  -11   14   13    -51.86    101.49
   -9   14   13     74.97     19.63
   -7   14   13    144.45     57.91
   -5   14   13    -45.61    -32.04
   -3   14   13      2.96     -7.47
   -1   14   13    -99.06     16.70
    1   14   13     80.63   -173.48
    3   14   13      4.31    -54.18
    5   14   13   -103.56      4.93
    7   14   13    129.53     56.89
    9   14   13     22.78    -64.21
   11   14   13     26.00     15.15
   13   14   13    -30.53    -36.82
  -12   15   13    -11.03    -23.10
  -10   15   13     74.14    -95.84
   -8   15   13     40.20    -32.34
   -6   15   13    -23.68    -42.71
   -4   15   13     31.48    -33.66
   -2   15   13    -45.58    -33.12
    0   15   13     29.72     92.68
    2   15   13    -45.47    -37.51
    4   15   13     47.01     -1.11
    6   15   13    -27.68    -44.00
    8   15   13     46.23      9.38
   10   15   13     53.85    -79.06
   12   15   13     20.51     65.37
  -11   16   13     96.25     -7.59
   -9   16   13    129.19    -14.00
   -7   16   13    -49.96    -64.51
   -5   16   13    -41.61   -112.06
   -3   16   13     13.99     53.45
   -1   16   13   -107.37      0.17
    1   16   13     14.01   -125.03
    3   16   13     -2.07     -7.90
    5   16   13    -53.80      9.96
    7   16   13    -78.13     30.10
    9   16   13    234.44    -24.17
   11   16   13    -50.45    -29.16
  -10   17   13    -14.59    210.53
   -8   17   13     47.70    -17.81
   -6   17   13     38.22    -47.99
   -4   17   13     18.92     12.70
   -2   17   13     36.97    102.32
    0   17   13    -70.39    147.33
    2   17   13     -7.98     70.73
    4   17   13      0.59    -34.00
    6   17   13    -56.24     77.89
    8   17   13      5.22     43.91
   10   17   13    -43.43     14.87
   -7   18   13    111.77   -160.59
   -5   18   13    -37.26     26.94
   -3   18   13    -93.15     18.48
   -1   18   13      0.72    -92.79
    1   18   13      6.01    -38.62
    3   18   13      0.39    -31.61
    5   18   13    -63.36    -47.09
    7   18   13    151.96     67.89
   -6   19   13    -76.65     57.23
   -4   19   13    -63.32     50.33
   -2   19   13     32.03     13.87
    0   19   13     18.53    -64.20
    2   19   13     52.36     -0.12
    4   19   13    -23.07     87.20
    6   19   13    -50.96     48.26
   -1   20   13    -13.24     71.24
    1   20   13     28.55     10.06
    0    0   12   -145.01   -499.49
    1    1   12    168.07     31.82
    0    2   12     88.02     85.68
    2    2   12     50.76    120.27
   -1    3   12    -71.18    287.67
    1    3   12   -131.69     11.30
    3    3   12     67.82    -57.15
   -2    4   12    -64.71      6.03
    0    4   12     54.72    -53.61
    2    4   12     -2.74    -90.79
    4    4   12    139.46     80.37
   -3    5   12     17.68     16.16
   -1    5   12    -70.74     99.77
    1    5   12   -273.25     65.58
    3    5   12    -33.61     41.40
    5    5   12    -63.91     94.04
   -4    6   12     52.44     27.88
   -2    6   12    -32.90    130.20
    0    6   12    -72.17     26.34
    2    6   12    -63.61     15.88
    4    6   12    -50.62     24.68
    6    6   12    120.54     43.87
   -5    7   12    144.62    -41.61
   -3    7   12     48.91    -25.33
   -1    7   12   -112.00   -105.98
    1    7   12    -48.03    -30.81
    3    7   12    -73.20      2.04
    5    7   12    128.40     -0.79
    7    7   12    -47.57     69.92
   -6    8   12    -39.41    -16.02
   -4    8   12   -186.70    157.87
   -2    8   12    155.33     -9.72
    0    8   12      0.81    -70.28
    2    8   12     48.70   -116.60
    4    8   12   -204.36    120.34
    6    8   12    -77.66     65.18
    8    8   12    105.25    136.57
   -7    9   12    -42.92     23.16
   -5    9   12     96.54     51.78
   -3    9   12    -93.68    -47.63
   -1    9   12    120.28    -78.09
    1    9   12    204.95    -11.27
    3    9   12     -9.38    -87.41
    5    9   12     66.26    105.57
    7    9   12    -86.57     60.53
    9    9   12      3.62    -44.35
   -8   10   12      9.50    -21.57
   -6   10   12     77.28     -4.94
   -4   10   12    108.00    126.32
   -2   10   12    163.65     34.41
    0   10   12     19.69    160.43
    2   10   12     30.62     15.62
    4   10   12    -48.80     28.04
    6   10   12     29.90    -48.72
    8   10   12    -31.73      9.60
   10   10   12     13.91    -69.53
   -9   11   12    115.13    -32.95
   -7   11   12     39.42     61.61
   -5   11   12     66.42     51.20
   -3   11   12    -13.70      2.21
   -1   11   12     55.17    -32.60
    1   11   12     -0.78   -169.80
    3   11   12     75.47    -21.13
    5   11   12     92.50     12.46
    7   11   12     40.06     -9.54
    9   11   12     75.93     -5.13
   11   11   12      7.95     87.31
  -10   12   12     43.87     12.17
   -8   12   12     37.08     57.88
   -6   12   12     39.54     62.08
   -4   12   12     14.22     38.21
   -2   12   12     -0.05      1.67
    0   12   12    131.35    138.59
    2   12   12      0.19      9.22
    4   12   12    -14.11     82.06
    6   12   12     26.71    112.51
    8   12   12     29.07     35.20
   10   12   12     31.29     -4.78
   12   12   12    -91.41   -178.08
  -11   13   12     47.27   -110.64
   -9   13   12     79.14     99.47
   -7   13   12    -37.68     45.16
   -5   13   12    -23.05    -12.26
   -3   13   12    -46.09     48.01
   -1   13   12    -97.99    177.86
    1   13   12    -90.98     40.40
    3   13   12     76.51     61.31
    5   13   12     46.92    -31.19
    7   13   12      9.45     86.14
    9   13   12    -41.57     77.27
   11   13   12    109.28   -147.47
   13   13   12     56.98   -102.10
  -12   14   12    105.16     26.34
  -10   14   12     42.67    -71.26
   -8   14   12     61.47     48.59
   -6   14   12     -0.48    -60.47
   -4   14   12    -11.22     38.83
   -2   14   12     -3.98     -1.36
    0   14   12    -21.83    -14.44
    2   14   12    -73.23   -106.47
    4   14   12    -23.04      8.12
    6   14   12    -21.38    -66.99
    8   14   12    -28.75    -90.17
   10   14   12     -2.62     11.09
   12   14   12      5.35      8.14
   14   14   12    -98.14    -46.42
  -13   15   12    -68.56    -23.41
  -11   15   12    -74.23     57.47
   -9   15   12     -7.93    109.66
   -7   15   12   -237.92     44.20
   -5   15   12   -192.64    -69.23
   -3   15   12     14.73    -20.75
   -1   15   12    126.37    -73.26
    1   15   12     85.91    -84.72
    3   15   12     32.17     77.65
    5   15   12     11.12     16.39
    7   15   12     -1.97    100.71
    9   15   12     54.15    -77.79
   11   15   12   -151.00    164.09
   13   15   12    -54.92     83.62
  -12   16   12     64.64     47.84
  -10   16   12    -62.74     54.12
   -8   16   12     45.26    -24.70
   -6   16   12     66.56     38.32
   -4   16   12     70.66    -32.67
   -2   16   12    -56.29     50.61
    0   16   12     18.64     11.41
    2   16   12   -175.76     86.99
    4   16   12    -52.38      2.28
    6   16   12    106.20    117.32
    8   16   12    -50.86     71.90
   10   16   12    -72.72      9.47
   12   16   12    -26.01    -46.78
  -11   17   12    173.15     13.53
   -9   17   12    123.59   -129.84
   -7   17   12   -127.85     16.52
   -5   17   12    178.27     68.38
   -3   17   12    -98.47     45.85
   -1   17   12     25.85      2.27
    1   17   12    -30.14     40.67
    3   17   12    -19.36    -83.81
    5   17   12    158.98     97.99
    7   17   12     10.97    126.77
    9   17   12    139.08    -26.86
   11   17   12    -38.13   -169.27
   -8   18   12     58.10    -40.14
   -6   18   12     33.84    -34.70
   -4   18   12    -68.55    -53.85
   -2   18   12    -92.76    -25.66
    0   18   12    -62.80     69.13
    2   18   12   -106.70     98.90
    4   18   12    -64.86     13.55
    6   18   12     50.07    -64.50
    8   18   12     47.95     23.58
   -7   19   12    -81.94    100.08
   -5   19   12   -114.82     75.92
   -3   19   12    -97.01     53.09
   -1   19   12     22.81     45.79
    1   19   12     77.25    -40.39
    3   19   12    -36.05     19.12
    5   19   12    -56.69      9.21
    7   19   12     20.75    -31.59
   -4   20   12    -19.50    -56.64
   -2   20   12     49.11    -69.71
    0   20   12     67.21     84.25
    2   20   12     58.32    -90.30
    4   20   12     47.84    -39.50
    0    1   11     35.98   -217.20
   -1    2   11     21.75    -20.45
    1    2   11    -62.69     40.83
   -2    3   11    235.10   -131.91
    0    3   11      0.00    255.22
    2    3   11    193.84    -66.38
   -3    4   11    -63.72    102.05
   -1    4   11    -76.49     33.46
    1    4   11    -32.62    -99.42
    3    4   11   -119.83     62.58
   -4    5   11    132.46      7.62
   -2    5   11    -88.78    -23.18
    0    5   11    185.00   -122.43
    2    5   11    119.69     -2.26
    4    5   11    116.19    255.51
   -5    6   11    130.66      9.28
   -3    6   11     97.72      6.84
   -1    6   11   -205.01    -92.36
    1    6   11    -68.07   -155.62
    3    6   11     -2.96   -144.88
    5    6   11     61.58    150.83
   -6    7   11    -36.38    -35.60
   -4    7   11    -63.42    -60.95
   -2    7   11    143.57     20.30
    0    7   11    184.98   -207.14
    2    7   11    174.77    101.69
    4    7   11    110.04    118.05
    6    7   11    133.32     68.76
   -7    8   11    124.15    -69.72
   -5    8   11    -65.59     50.17
   -3    8   11   -109.31    -80.60
   -1    8   11   -123.97   -179.31
    1    8   11   -177.15      3.91
    3    8   11   -207.79     24.61
    5    8   11    -54.52    -89.51
    7    8   11   -120.84    125.44
   -8    9   11      4.55     -0.97
   -6    9   11      3.95     54.20
   -4    9   11     34.39    -63.18
   -2    9   11     91.93     23.66
    0    9   11     58.25    -69.89
    2    9   11    -83.69    -43.66
    4    9   11    145.22     15.63
    6    9   11    -15.30   -132.42
    8    9   11    -27.42     30.82
   -9   10   11    -49.66    -43.31
   -7   10   11    -13.79   -100.61
   -5   10   11    -68.73     28.15
   -3   10   11     75.80    -53.46
   -1   10   11    -73.68   -270.61
    1   10   11    182.14   -303.45
    3   10   11     94.75    -24.12
    5   10   11    -82.91      1.75
    7   10   11      2.63    -46.35
    9   10   11     29.57    -25.99
  -10   11   11    -14.28    -33.95
   -8   11   11    -14.09    -86.93
   -6   11   11     -7.94     60.85
   -4   11   11    -34.04    -41.44
   -2   11   11    -61.63    167.97
    0   11   11     54.55    193.22
    2   11   11   -176.38    188.01
    4   11   11     22.18     54.77
    6   11   11    -17.63     51.27
    8   11   11    -26.53   -150.40
   10   11   11    -25.59     25.56
  -11   12   11      0.40      5.06
   -9   12   11    -33.42     10.13
   -7   12   11    -28.28    -56.89
   -5   12   11      8.16     96.88
   -3   12   11     61.68    -38.10
   -1   12   11     19.50     51.91
    1   12   11    150.31    -83.71
    3   12   11    176.56   -130.89
    5   12   11    117.90    -83.00
    7   12   11      6.41    -67.01
    9   12   11    -17.44     19.97
   11   12   11    -86.75     -2.05
  -12   13   11     54.87    -17.97
  -10   13   11    -72.11    -81.90
   -8   13   11     36.77     56.38
   -6   13   11     37.99    -19.35
   -4   13   11     18.38   -114.02
   -2   13   11    -76.30     16.75
    0   13   11     99.32    124.86
    2   13   11   -106.38    -46.55
    4   13   11    -78.56     76.37
    6   13   11     27.58    -68.41
    8   13   11     49.59     64.02
   10   13   11    -49.37    -73.99
   12   13   11    -20.98    -45.02
  -13   14   11     -0.12    -35.47
  -11   14   11    -94.96     49.78
   -9   14   11    -98.08    107.22
   -7   14   11    -18.28    103.72
   -5   14   11    142.66     10.90
   -3   14   11   -149.16     57.15
   -1   14   11    125.15    -71.15
    1   14   11     13.68     16.47
    3   14   11    -67.27     -5.40
    5   14   11    187.40     39.49
    7   14   11    -11.81      2.29
    9   14   11    193.04    -22.08
   11   14   11    -33.35    126.35
   13   14   11    -60.06     -6.94
  -14   15   11     41.17     14.15
  -12   15   11    -70.09     65.14
  -10   15   11     79.32   -228.00
   -8   15   11     25.56     60.91
   -6   15   11    115.98    -34.55
   -4   15   11   -158.72     90.69
   -2   15   11   -126.10    -19.58
    0   15   11    -17.24    -19.60
    2   15   11   -275.49    124.72
    4   15   11      1.95     70.21
    6   15   11     39.14    -90.32
    8   15   11    -55.28     25.86
   10   15   11    -48.63     -8.13
   12   15   11    -12.82     44.64
   14   15   11     11.53    -61.41
  -13   16   11      1.40     21.51
  -11   16   11     23.53     22.90
   -9   16   11    -18.97     44.52
   -7   16   11    -45.00   -154.76
   -5   16   11     -7.73    -39.62
   -3   16   11    -65.15     31.11
   -1   16   11    -91.48    -72.22
    1   16   11    -25.74    -47.18
    3   16   11     65.86    -64.21
    5   16   11    -35.47     12.39
    7   16   11    172.99    -96.78
    9   16   11    -39.54     55.01
   11   16   11     20.13   -113.35
   13   16   11    106.33    -60.47
  -10   17   11     31.22    -29.07
   -8   17   11    210.75    114.11
   -6   17   11     49.43    103.14
   -4   17   11     99.60      4.65
   -2   17   11      4.39     59.42
    0   17   11     42.57    -40.82
    2   17   11    -43.14     25.61
    4   17   11   -133.73    128.62
    6   17   11     52.76     29.92
    8   17   11    -59.08    -25.17
   10   17   11   -109.24    -53.04
   -9   18   11    173.27    -94.59
   -7   18   11    176.03   -120.83
   -5   18   11    -24.27     68.84
   -3   18   11     42.74     31.19
   -1   18   11     16.48     43.59
    1   18   11     34.95    -26.20
    3   18   11     51.63      1.54
    5   18   11     46.26    -57.21
    7   18   11     58.96     34.91
    9   18   11   -135.13    137.60
   -8   19   11     19.82    -69.04
   -6   19   11    239.80   -133.18
   -4   19   11     20.14    -78.95
   -2   19   11     21.58     99.84
    0   19   11     86.33    -27.95
    2   19   11     10.28     45.02
    4   19   11    -31.89    -63.26
    6   19   11    104.42     89.65
    8   19   11     51.10    -30.62
   -5   20   11    -62.70     57.09
   -3   20   11     54.24     41.07
   -1   20   11      5.09     35.33
    1   20   11     49.70    -47.28
    3   20   11     73.13      1.93
    5   20   11    -33.61    -14.77
    1    1   10    281.97    181.04
    0    2   10     51.79    166.43
    2    2   10     75.36     42.18
   -1    3   10   -285.72     72.53
    1    3   10   -241.20    164.94
    3    3   10    102.20   -115.47
   -2    4   10      7.21    -93.25
    0    4   10    133.59   -701.83
    2    4   10     64.27   -163.94
    4    4   10    137.39    -74.10
   -3    5   10     44.78     41.25
   -1    5   10     75.20     44.09
    1    5   10    221.48    -29.65
    3    5   10     28.31    120.06
    5    5   10   -131.91    -58.46
   -4    6   10    147.74     10.36
   -2    6   10    -84.40    -54.20
    0    6   10    -91.30   -288.11
    2    6   10    -91.04    -75.72
    4    6   10   -126.35     40.43
    6    6   10   -128.89    -82.44
   -5    7   10     24.94    145.90
   -3    7   10   -194.00     33.92
   -1    7   10    -76.16    -56.20
    1    7   10     19.00   -102.14
    3    7   10   -142.03     98.95
    5    7   10    157.33    -19.14
    7    7   10    -60.57    123.38
   -6    8   10      6.77     45.69
   -4    8   10     -4.15     50.69
   -2    8   10   -199.49    190.66
    0    8   10    -35.45     16.67
    2    8   10     11.34    177.38
    4    8   10     93.33     64.08
    6    8   10    -41.86     83.18
    8    8   10    -95.30     17.79
   -7    9   10    -51.73    -15.70
   -5    9   10    -52.24     -3.33
   -3    9   10   -114.53   -127.67
   -1    9   10    237.77     25.62
    1    9   10    184.80    180.31
    3    9   10   -122.67    -23.59
    5    9   10    -26.30    -48.56
    7    9   10   -154.63      3.11
    9    9   10    -60.17    -60.89
   -8   10   10    -35.10    -38.05
   -6   10   10     86.16    -21.66
   -4   10   10     96.35    -80.53
   -2   10   10   -107.44   -169.49
    0   10   10     15.46    152.37
    2   10   10   -128.45   -186.05
    4   10   10    -58.72   -105.21
    6   10   10    -68.77     -4.71
    8   10   10    -30.43     48.14
   10   10   10     35.44     72.63
   -9   11   10     18.35    -91.16
   -7   11   10     19.75    -48.05
   -5   11   10    -62.92     37.74
   -3   11   10     14.60    128.61
   -1   11   10    156.99    180.98
    1   11   10    121.71     68.68
    3   11   10     61.62     -0.02
    5   11   10    -43.49    -53.02
    7   11   10     44.56     93.02
    9   11   10    -43.13     -3.14
   11   11   10      2.77   -113.56
  -10   12   10     -0.19     27.81
   -8   12   10     57.45     57.62
   -6   12   10    -55.99    -10.14
   -4   12   10     11.89     59.09
   -2   12   10    169.45     52.80
    0   12   10     42.37    -54.12
    2   12   10    -30.83     92.98
    4   12   10    -17.61     61.93
    6   12   10     39.24     36.33
    8   12   10     58.95    -41.29
   10   12   10     84.94    100.14
   12   12   10     28.88     57.38
  -11   13   10     77.16     84.19
   -9   13   10    -29.60    -72.54
   -7   13   10     98.85    -26.41
   -5   13   10     54.50     26.13
   -3   13   10     75.90    153.91
   -1   13   10    -56.90     66.52
    1   13   10     86.27    111.61
    3   13   10     55.28     86.75
    5   13   10     94.50     68.06
    7   13   10    -36.73   -103.48
    9   13   10     -1.04   -165.96
   11   13   10      8.72   -224.44
   13   13   10    137.32   -279.88
  -12   14   10    -23.43    -32.71
  -10   14   10      9.86     55.92
   -8   14   10    -81.51     13.54
   -6   14   10    -51.36    -86.39
   -4   14   10    -28.83    -55.22
   -2   14   10    -26.21     66.74
    0   14   10    -61.85    -37.30
    2   14   10    -53.85     30.17
    4   14   10     72.79      8.08
    6   14   10     -7.99    -28.26
    8   14   10    -44.52     38.35
   10   14   10     44.18     -8.06
   12   14   10    109.39     -5.17
   14   14   10      6.48     23.84
  -13   15   10    112.25    -46.96
  -11   15   10   -167.16     11.49
   -9   15   10   -312.65     68.70
   -7   15   10    108.80    -53.04
   -5   15   10    -37.43     -8.03
   -3   15   10    -88.78   -217.96
   -1   15   10     38.76   -113.10
    1   15   10     60.48    -40.23
    3   15   10     40.83    -38.49
    5   15   10    -42.37    -33.58
    7   15   10    154.89   -276.90
    9   15   10   -153.61     -1.74
   11   15   10    -41.63    -47.72
   13   15   10     58.17     85.54
  -12   16   10    132.32     81.43
  -10   16   10     -6.23    -52.33
   -8   16   10    -50.15    -53.78
   -6   16   10    -17.16    133.75
   -4   16   10     -1.64     63.98
   -2   16   10     -3.40    -89.04
    0   16   10     -1.44     73.78
    2   16   10     19.06    -97.47
    4   16   10    -32.90     99.06
    6   16   10    -54.01    215.51
    8   16   10   -120.97   -153.25
   10   16   10   -138.25     75.70
   12   16   10     91.99     80.36
  -11   17   10    -22.43     84.11
   -9   17   10    271.54   -242.62
   -7   17   10     39.06   -106.45
   -5   17   10    103.01   -209.40
   -3   17   10     34.93    -28.17
   -1   17   10    -54.96     46.42
    1   17   10      1.56    -59.88
    3   17   10     17.82     -4.08
    5   17   10    -40.88   -145.41
    7   17   10     23.26    -42.60
    9   17   10     -0.42    -46.68
   11   17   10    -14.84    -44.52
  -10   18   10   -126.12   -103.83
   -8   18   10    118.38     15.46
   -6   18   10    -45.82   -109.93
   -4   18   10    -40.70    -17.60
   -2   18   10      3.24     13.90
    0   18   10    -46.24     54.47
    2   18   10     -5.60     47.27
    4   18   10    -29.05     78.42
    6   18   10    -35.15    -69.12
    8   18   10      7.40     52.60
   10   18   10   -113.21    -95.76
   -7   19   10    -63.63   -243.85
   -5   19   10    -47.12   -102.30
   -3   19   10     16.97     59.91
   -1   19   10    -82.06     -5.05
    1   19   10    -21.02     -0.78
    3   19   10      8.96     46.91
    5   19   10     10.42    -22.78
    7   19   10    -95.76   -107.63
   -6   20   10   -102.03    -46.27
   -4   20   10     39.07    104.59
   -2   20   10     39.48    -70.19
    0   20   10    126.22      3.74
    2   20   10    -69.66    -50.20
    4   20   10     81.18     83.99
    6   20   10    -25.02    -26.87
    0    1    9     -6.62    -91.71
   -1    2    9   -314.71      1.37
    1    2    9   -310.06     46.83
   -2    3    9    -34.94    100.18
    0    3    9    159.65    -75.27
    2    3    9    -20.50    -29.05
   -3    4    9    -56.29     59.00
   -1    4    9    -75.64     60.91
    1    4    9   -164.19    110.67
    3    4    9   -234.45    -56.50
   -4    5    9    -80.03   -111.77
   -2    5    9     97.21    -96.51
    0    5    9   -159.35   -169.54
    2    5    9    107.49     98.12
    4    5    9    -12.16   -137.62
   -5    6    9    103.05   -130.61
   -3    6    9   -164.81    160.05
   -1    6    9     79.84    259.36
    1    6    9    214.02    318.44
    3    6    9    -75.63     50.03
    5    6    9    -61.37     88.91
   -6    7    9    -15.09   -141.35
   -4    7    9    -44.30     17.10
   -2    7    9   -243.33     50.11
    0    7    9   -108.87    -56.18
    2    7    9    -61.60   -252.43
    4    7    9   -234.71    -78.26
    6    7    9    -97.56    -32.73
   -7    8    9     93.35     74.14
   -5    8    9     -3.61    -19.19
   -3    8    9     51.02      5.15
   -1    8    9    -79.48    301.67
    1    8    9    -74.52    -95.35
    3    8    9    112.42    -69.10
    5    8    9    -36.97     84.85
    7    8    9     99.53    136.80
   -8    9    9    -19.01    107.66
   -6    9    9     75.14     80.15
   -4    9    9    109.76    -19.52
   -2    9    9    -44.58     71.42
    0    9    9    284.73    324.80
    2    9    9    185.58    242.28
    4    9    9    -11.34    -77.47
    6    9    9    -39.17    130.53
    8    9    9    -13.76     59.71
   -9   10    9     97.17   -123.06
   -7   10    9    -57.80   -137.68
   -5   10    9     69.91     28.57
   -3   10    9    -33.35    206.44
   -1   10    9     34.75     -2.42
    1   10    9     -3.35    132.75
    3   10    9      7.48     14.87
    5   10    9    134.14   -203.53
    7   10    9    -15.40   -126.24
    9   10    9    -77.03     69.34
  -10   11    9   -126.92     30.94
   -8   11    9     -9.02    160.81
   -6   11    9     75.17     59.10
   -4   11    9      7.43    -34.13
   -2   11    9     -7.36     35.79
    0   11    9    140.70    137.24
    2   11    9    114.32     81.73
    4   11    9      5.72     -3.74
    6   11    9     39.17     18.88
    8   11    9    -27.61    112.33
   10   11    9    -53.11     30.17
  -11   12    9     77.69    -76.85
   -9   12    9    100.24     71.55
   -7   12    9    -11.69   -111.68
   -5   12    9      1.00     53.28
   -3   12    9   -174.42     92.73
   -1   12    9    217.82     37.22
    1   12    9      0.98     73.99
    3   12    9   -209.75     22.29
    5   12    9    209.57   -127.66
    7   12    9      9.57    -72.43
    9   12    9    -60.68   -142.15
   11   12    9   -262.21   -198.75
  -12   13    9    -56.98    -86.40
  -10   13    9   -118.96     69.79
   -8   13    9     34.33      1.25
   -6   13    9   -124.73    -69.26
   -4   13    9     91.11    -26.29
   -2   13    9    248.93    -55.32
    0   13    9    -85.26     21.81
    2   13    9     68.52    -69.92
    4   13    9    -12.93     32.63
    6   13    9     63.38    179.75
    8   13    9    -11.09     53.00
   10   13    9   -184.60   -121.55
   12   13    9    -56.41    -16.96
  -13   14    9     94.93    -95.81
  -11   14    9     89.59    -42.62
   -9   14    9     37.86     17.18
   -7   14    9    139.52    155.20
   -5   14    9     81.00    125.06
   -3   14    9     43.22     -3.10
   -1   14    9     30.94    -38.08
    1   14    9    -11.36    -15.99
    3   14    9    -30.06     54.10
    5   14    9     71.48     39.19
    7   14    9    -57.00    -91.65
    9   14    9     39.14   -202.31
   11   14    9    -42.74   -227.72
   13   14    9    -60.94     64.02
  -14   15    9    -56.97     82.82
  -12   15    9     95.60    217.30
  -10   15    9    147.28    174.62
   -8   15    9    187.68     38.32
   -6   15    9     47.30     63.84
   -4   15    9   -156.16   -228.78
   -2   15    9     43.48    -30.38
    0   15    9    -97.34     62.53
    2   15    9    116.06     64.98
    4   15    9     60.22   -171.59
    6   15    9   -173.41    210.60
    8   15    9   -237.38   -129.80
   10   15    9     89.00     14.58
   12   15    9     78.98     21.36
   14   15    9    -59.51    -80.34
  -13   16    9      2.33    -98.01
  -11   16    9     45.91     18.07
   -9   16    9    -75.35    106.13
   -7   16    9    -29.83     30.47
   -5   16    9    -31.37     31.97
   -3   16    9     54.37     11.60
   -1   16    9    -53.33     -1.61
    1   16    9     14.19    -37.72
    3   16    9     45.11     43.80
    5   16    9   -123.12   -102.74
    7   16    9     50.92    -16.75
    9   16    9     62.95    103.63
   11   16    9      7.56   -252.68
   13   16    9    -44.84   -185.93
  -12   17    9    145.59    160.86
  -10   17    9    127.13    189.97
   -8   17    9    -56.87     -0.74
   -6   17    9   -171.81    158.56
   -4   17    9     -8.66      0.28
   -2   17    9     30.14     67.83
    0   17    9    -23.86     -7.71
    2   17    9    -13.00    -27.78
    4   17    9    -39.68     46.48
    6   17    9   -150.26     84.13
    8   17    9     -7.20     -6.69
   10   17    9   -165.80     12.92
   12   17    9     15.79     28.11
  -11   18    9    -30.69     96.84
   -9   18    9   -132.54     81.18
   -7   18    9   -102.05     11.28
   -5   18    9     47.28     52.06
   -3   18    9     21.21    -25.57
   -1   18    9    -19.95     27.28
    1   18    9     38.56     47.56
    3   18    9    -41.62    -45.82
    5   18    9    103.40    -29.59
    7   18    9   -153.79     63.57
    9   18    9     33.65    -39.33
   11   18    9   -176.27    268.22
   -8   19    9   -163.22   -282.29
   -6   19    9    -49.26      6.74
   -4   19    9     76.17     33.16
   -2   19    9    -40.17    -48.37
    0   19    9     18.83     80.95
    2   19    9    -27.15    -67.07
    4   19    9     92.04    116.96
    6   19    9     44.08     59.65
    8   19    9    -98.11     38.49
   -5   20    9    -10.08     40.75
   -3   20    9      4.01     10.88
   -1   20    9      1.06    -17.07
    1   20    9     14.81    -46.29
    3   20    9    -18.16     59.82
    5   20    9    -85.16    -33.50
   -2   21    9     37.46    -83.88
    0   21    9     46.99     -2.42
    2   21    9   -139.35    -61.04
    0    0    8   -130.05   -370.20
    1    1    8    140.60    -88.42
    0    2    8    164.58    371.28
    2    2    8    -97.32     89.43
   -1    3    8     96.04    -29.70
    1    3    8    132.49   -116.37
    3    3    8    -39.66    -38.44
   -2    4    8     38.01     99.06
    0    4    8    169.15    -65.64
    2    4    8    -12.69    168.68
    4    4    8     43.82    480.34
   -3    5    8    191.08   -135.72
   -1    5    8   -108.27    301.93
    1    5    8   -258.75    422.28
    3    5    8    280.71    -62.64
    5    5    8    -99.98     24.75
   -4    6    8    232.59   -180.88
   -2    6    8     56.50      7.19
    0    6    8   -113.16   -109.10
    2    6    8   -184.65   -122.52
    4    6    8   -182.18   -129.69
    6    6    8    -24.10    -29.35
   -5    7    8     59.77    -53.45
   -3    7    8    -52.79     95.16
   -1    7    8    217.41    108.72
    1    7    8    292.54   -116.46
    3    7    8      5.95    -55.27
    5    7    8      7.28    -59.68
    7    7    8    155.98     24.24
   -6    8    8    108.44    -43.33
   -4    8    8   -143.52     11.69
   -2    8    8    128.15     -0.61
    0    8    8    183.03    389.14
    2    8    8    -11.30    -15.48
    4    8    8    -29.70   -125.09
    6    8    8    -18.38    -42.68
    8    8    8    -72.74    -81.43
   -7    9    8     93.06    -63.70
   -5    9    8     92.09   -127.20
   -3    9    8     52.81    117.51
   -1    9    8    174.71   -106.98
    1    9    8    -23.15   -239.79
    3    9    8     70.96    -88.24
    5    9    8     33.49    -85.33
    7    9    8     55.71    -77.62
    9    9    8    -50.81     29.94
   -8   10    8    -36.33   -132.00
   -6   10    8     50.75     73.09
   -4   10    8    146.89     43.12
   -2   10    8    207.84    -44.63
    0   10    8    -26.00   -162.72
    2   10    8    141.86     62.35
    4   10    8   -174.54    -89.46
    6   10    8     37.08    148.76
    8   10    8    -26.96     -2.96
   10   10    8   -112.12    133.98
   -9   11    8     -5.99    -55.22
   -7   11    8     11.50     12.80
   -5   11    8     41.72     -7.49
   -3   11    8     32.18    169.33
   -1   11    8   -132.98    124.77
    1   11    8    -36.90    107.88
    3   11    8      0.88    -36.84
    5   11    8     71.54     91.72
    7   11    8    -66.17      1.92
    9   11    8     -6.90      5.09
   11   11    8    -24.41    147.45
  -10   12    8    -37.77    -27.11
   -8   12    8    178.38   -103.27
   -6   12    8     -3.97     70.34
   -4   12    8      5.32      6.74
   -2   12    8     29.28     43.85
    0   12    8    -33.73     33.78
    2   12    8    -50.02     74.56
    4   12    8     32.07    -78.84
    6   12    8    -95.97   -162.15
    8   12    8    -48.16    -15.76
   10   12    8    -79.31     -7.40
   12   12    8   -198.44     14.33
  -11   13    8     17.70     -9.54
   -9   13    8    213.35      8.47
   -7   13    8     58.38    -28.57
   -5   13    8   -161.64     42.32
   -3   13    8     14.72    -98.84
   -1   13    8    -30.84   -141.91
    1   13    8     -2.01    -33.27
    3   13    8     48.67     92.74
    5   13    8    -38.45    117.41
    7   13    8    -44.63    115.34
    9   13    8    156.05   -158.92
   11   13    8     17.26    -89.96
   13   13    8    -22.13     92.42
  -12   14    8    -16.19    -73.77
  -10   14    8     81.45     81.93
   -8   14    8   -154.38    -12.15
   -6   14    8    -23.01    -92.85
   -4   14    8     53.61    -79.47
   -2   14    8    -40.86    -25.32
    0   14    8    -62.31     45.73
    2   14    8    -34.63     23.77
    4   14    8     31.70     43.57
    6   14    8     17.93     70.30
    8   14    8      4.90     -3.15
   10   14    8   -134.17   -219.36
   12   14    8    -22.15     20.26
   14   14    8    -97.90     28.33
  -13   15    8     92.44   -100.98
  -11   15    8    162.66    -28.10
   -9   15    8    -14.73     66.19
   -7   15    8   -333.62      5.92
   -5   15    8    -23.42     45.04
   -3   15    8     50.57     39.35
   -1   15    8    -65.23    -66.76
    1   15    8    -28.32    166.48
    3   15    8     21.96     -2.38
    5   15    8    102.63     44.22
    7   15    8   -154.27    110.21
    9   15    8    -26.01     97.67
   11   15    8     23.32     21.63
   13   15    8    -97.57   -208.96
   15   15    8     -9.84    108.32
  -14   16    8    -91.41    -65.06
  -12   16    8     76.64     47.83
  -10   16    8    136.55    109.01
   -8   16    8    -46.96     24.31
   -6   16    8    -24.18    -57.86
   -4   16    8     27.60     22.56
   -2   16    8    -44.43    -14.64
    0   16    8    -66.04    -42.97
    2   16    8   -213.31    110.19
    4   16    8     49.26      6.03
    6   16    8   -132.02      6.44
    8   16    8   -243.73     32.66
   10   16    8     39.58     58.90
   12   16    8     84.05      5.45
   14   16    8    -14.98     72.85
  -11   17    8    128.26   -198.41
   -9   17    8    -57.76     24.76
   -7   17    8     67.80   -218.02
   -5   17    8    -81.17    164.50
   -3   17    8    -43.95    -37.76
   -1   17    8    -34.02    -40.80
    1   17    8     48.65    -32.96
    3   17    8    -88.97    -52.76
    5   17    8   -128.52     -6.72
    7   17    8    -28.85     17.30
    9   17    8     41.91     59.99
   11   17    8     46.45    187.45
  -10   18    8   -137.80     45.90
   -8   18    8     35.28     59.22
   -6   18    8     20.44     69.48
   -4   18    8    -74.64    -45.15
   -2   18    8     26.45      2.83
    0   18    8    -70.41     64.55
    2   18    8     30.86      1.79
    4   18    8   -124.51    -12.39
    6   18    8    115.11     15.01
    8   18    8     85.76     19.25
   10   18    8    -27.89     14.41
   -9   19    8   -425.36     52.42
   -7   19    8    -97.68    -39.90
   -5   19    8    -59.17   -177.21
   -3   19    8    -40.03    -61.33
   -1   19    8    -11.87    -64.85
    1   19    8      1.29    -54.04
    3   19    8      9.56     22.15
    5   19    8    -22.23     -8.68
    7   19    8    -14.58    -13.04
    9   19    8    143.14    -61.32
   -6   20    8      8.45     79.54
   -4   20    8     -4.19    -46.80
   -2   20    8     -6.44    -29.10
    0   20    8   -100.73    -68.41
    2   20    8     57.46    -16.50
    4   20    8     -4.30    -14.36
    6   20    8    -16.41      1.48
   -3   21    8    103.07      6.86
   -1   21    8    -38.78   -110.58
    1   21    8     11.77     40.85
    3   21    8     45.26    -69.68
    0    1    7     59.25   -132.44
   -1    2    7   -111.71     12.00
    1    2    7   -136.52    114.37
   -2    3    7    -19.97     87.45
    0    3    7     96.35     77.13
    2    3    7   -128.51     37.54
   -3    4    7   -300.57    312.34
   -1    4    7     -7.39   -149.72
    1    4    7    179.29   -124.07
    3    4    7   -158.41    131.17
   -4    5    7     31.04    160.47
   -2    5    7    116.83      8.99
    0    5    7    114.84    134.32
    2    5    7    313.11     19.82
    4    5    7   -107.80    399.62
   -5    6    7     27.01   -190.34
   -3    6    7     59.21     -6.28
   -1    6    7     22.23    492.08
    1    6    7   -104.39    426.21
    3    6    7     42.16    218.81
    5    6    7      4.33    -62.43
   -6    7    7    207.91    -48.22
   -4    7    7     32.92    -49.54
   -2    7    7     89.53    -36.54
    0    7    7   -367.35   -148.62
    2    7    7   -343.94   -158.17
    4    7    7     11.09    127.97
    6    7    7   -192.55     -9.82
   -7    8    7    -19.86      0.67
   -5    8    7   -130.30     42.26
   -3    8    7    176.63    102.76
   -1    8    7   -153.88   -151.29
    1    8    7   -220.16    -23.34
    3    8    7    156.16   -129.05
    5    8    7    -70.16      3.32
    7    8    7     -9.56     -6.00
   -8    9    7    -13.57    121.32
   -6    9    7     -2.78   -184.65
   -4    9    7     60.46     83.90
   -2    9    7    473.84   -160.55
    0    9    7    237.31   -195.95
    2    9    7    -20.08    317.52
    4    9    7     60.81     33.32
    6    9    7     54.51   -121.71
    8    9    7    -85.50    125.69
   -9   10    7    -59.09   -187.22
   -7   10    7     35.11   -161.23
   -5   10    7     79.20    203.41
   -3   10    7    -56.03    201.80
   -1   10    7    -26.23    -36.25
    1   10    7     99.72     32.12
    3   10    7    -33.75    -16.61
    5   10    7    -16.02     63.30
    7   10    7   -112.86    -78.18
    9   10    7    -26.95     40.40
  -10   11    7   -258.34     89.29
   -8   11    7    -51.34     58.61
   -6   11    7     21.97    -46.37
   -4   11    7    275.80    -79.18
   -2   11    7   -102.18    -38.78
    0   11    7   -126.79      5.02
    2   11    7    -68.56    -46.84
    4   11    7     65.75      1.55
    6   11    7    -33.08    -43.69
    8   11    7     45.35    -20.11
   10   11    7    -42.25    -87.10
  -11   12    7    -66.69    -86.42
   -9   12    7      9.74     15.94
   -7   12    7     32.82    110.34
   -5   12    7    157.16      0.45
   -3   12    7     45.86    -56.38
   -1   12    7      1.82    101.68
    1   12    7    -52.19      1.54
    3   12    7     14.83     57.69
    5   12    7    120.31    -25.01
    7   12    7     35.84    -32.00
    9   12    7    -84.53    -60.08
   11   12    7    119.28    199.67
  -12   13    7   -198.61    -99.10
  -10   13    7     51.15    -20.47
   -8   13    7   -377.78    -72.99
   -6   13    7   -127.14    -28.81
   -4   13    7    -94.03    -15.73
   -2   13    7     38.69    -79.21
    0   13    7   -239.79     91.76
    2   13    7    110.88     13.05
    4   13    7     33.98   -143.62
    6   13    7     73.33   -109.41
    8   13    7    141.61    -45.64
   10   13    7     -7.09     30.61
   12   13    7     -4.73    -66.79
  -13   14    7   -106.39    -66.84
  -11   14    7    -74.53      6.21
   -9   14    7     23.41    182.27
   -7   14    7    -10.94     52.64
   -5   14    7     94.48    170.43
   -3   14    7    -83.28      4.79
   -1   14    7     10.49      0.06
    1   14    7     62.67     56.09
    3   14    7     35.48     29.94
    5   14    7   -139.03     55.67
    7   14    7     77.36    -49.60
    9   14    7   -315.38      2.15
   11   14    7     87.68    213.05
   13   14    7   -223.26     29.77
  -14   15    7    -59.16    -63.91
  -12   15    7      8.86    -26.72
  -10   15    7     88.86    286.18
   -8   15    7     70.78    -80.12
   -6   15    7     58.87    -60.37
   -4   15    7    114.21   -103.09
   -2   15    7     54.44    -48.56
    0   15    7     30.47    -57.75
    2   15    7    167.74   -134.86
    4   15    7      3.42     30.82
    6   15    7     -3.97   -197.79
    8   15    7    -20.67    -40.51
   10   15    7    284.87     44.52
   12   15    7     29.17    -22.21
   14   15    7     46.01      1.11
  -13   16    7    -44.75    -16.68
  -11   16    7     32.97    -36.99
   -9   16    7     -5.50    -61.64
   -7   16    7   -118.87     -2.71
   -5   16    7    -40.73     77.46
   -3   16    7      2.56    -19.23
   -1   16    7   -101.46   -134.66
    1   16    7    -39.88    -36.08
    3   16    7     26.34      5.32
    5   16    7    -32.62    -83.29
    7   16    7     27.26    -24.45
    9   16    7    -90.44     21.91
   11   16    7    -86.97    -71.54
   13   16    7    -30.35   -168.50
  -12   17    7    -44.89    -38.91
  -10   17    7    140.25    -37.74
   -8   17    7    204.23    462.16
   -6   17    7    -26.81    -32.31
   -4   17    7     44.22    158.12
   -2   17    7     10.97    -20.60
    0   17    7     69.64    122.31
    2   17    7    -23.70    -71.02
    4   17    7    134.03     52.09
    6   17    7     48.61    -44.38
    8   17    7     73.91   -156.23
   10   17    7    129.15    -18.82
   12   17    7      1.01     97.85
  -11   18    7     42.94     36.30
   -9   18    7    -38.98     32.01
   -7   18    7    -26.52    -38.45
   -5   18    7      3.44     -3.13
   -3   18    7    -31.23    -50.24
   -1   18    7     27.41   -110.56
    1   18    7     -6.84    -38.28
    3   18    7     27.48   -113.03
    5   18    7     28.21   -107.17
    7   18    7   -223.77   -229.80
    9   18    7    -66.60    160.28
   11   18    7    -53.70    185.43
  -10   19    7     -8.10    168.61
   -8   19    7     16.56    100.05
   -6   19    7    147.37     -5.24
   -4   19    7    -30.84    -78.72
   -2   19    7    105.70    136.33
    0   19    7     23.22     87.88
    2   19    7    120.54     75.53
    4   19    7     46.71    -74.05
    6   19    7     14.81      9.46
    8   19    7     66.92     14.65
   10   19    7     48.90    -11.23
   -7   20    7    -28.82      7.55
   -5   20    7    -18.85     17.56
   -3   20    7      2.78     33.04
   -1   20    7     47.10   -110.69
    1   20    7     78.73    -62.88
    3   20    7    -28.68      2.00
    5   20    7     24.34     -6.13
    7   20    7    -97.16    -38.08
   -4   21    7      4.90    -20.78
   -2   21    7     36.99    -24.21
    0   21    7   -279.42     77.58
    2   21    7     29.86      0.09
    4   21    7     21.56      9.29
    1    1    6    369.39   -296.92
    0    2    6     83.92    100.87
    2    2    6     24.69    -33.32
   -1    3    6     87.22    214.04
    1    3    6    -29.46    -12.99
    3    3    6    490.35   -376.38
   -2    4    6   -109.57   -171.58
    0    4    6   -144.30   -463.62
    2    4    6   -325.21   -161.65
    4    4    6     21.77    -38.33
   -3    5    6    118.73   -136.55
   -1    5    6   -332.17    221.08
    1    5    6   -279.71    160.51
    3    5    6    196.28     16.48
    5    5    6     85.47    158.08
   -4    6    6      2.76    181.52
   -2    6    6    190.51    -20.16
    0    6    6     42.96   -273.76
    2    6    6     36.09    137.65
    4    6    6     -5.26    272.60
    6    6    6    -12.72   -101.28
   -5    7    6    -55.97     15.64
   -3    7    6   -137.89    238.77
   -1    7    6      6.54   -127.12
    1    7    6    -25.82     67.16
    3    7    6    144.76     30.94
    5    7    6      3.34     76.14
    7    7    6   -108.96   -191.78
   -6    8    6    115.86    106.25
   -4    8    6   -135.70    106.68
   -2    8    6    230.82     32.60
    0    8    6     62.86   -171.42
    2    8    6   -200.44    253.27
    4    8    6    -88.48     31.79
    6    8    6     39.68     -3.46
    8    8    6    -33.74   -245.29
   -7    9    6    104.94    -52.47
   -5    9    6    169.30     -5.65
   -3    9    6   -175.33    -46.13
   -1    9    6    -71.31    -12.94
    1    9    6    109.42     91.62
    3    9    6   -190.82    -87.66
    5    9    6    -90.76   -100.39
    7    9    6    -12.88     26.03
    9    9    6     37.81     56.60
   -8   10    6    -24.54    102.26
   -6   10    6    -91.23    181.26
   -4   10    6    358.75    151.96
   -2   10    6     94.00    -76.71
    0   10    6    -50.14   -162.72
    2   10    6     25.36     -6.61
    4   10    6    -69.84    299.61
    6   10    6     34.82   -125.33
    8   10    6    129.10     19.01
   10   10    6     26.03    241.46
   -9   11    6    105.13   -167.47
   -7   11    6    -33.15     91.35
   -5   11    6    -25.63    194.24
   -3   11    6    209.95    320.14
   -1   11    6    165.68     27.21
    1   11    6    106.34     -8.89
    3   11    6     80.76    -94.10
    5   11    6   -160.55     -8.74
    7   11    6   -150.29     -6.35
    9   11    6    152.62   -138.20
   11   11    6     76.09     68.50
  -10   12    6    -74.82    298.85
   -8   12    6     19.39    -46.68
   -6   12    6     85.02   -149.45
   -4   12    6   -102.37    146.93
   -2   12    6    -52.62     61.85
    0   12    6    -36.79    -62.35
    2   12    6   -168.99    121.13
    4   12    6     52.35     14.86
    6   12    6    -45.13   -278.97
    8   12    6    -89.55     18.57
   10   12    6     85.17     23.66
   12   12    6    178.08   -109.19
  -11   13    6   -224.75    -45.76
   -9   13    6    -56.50    127.68
   -7   13    6     60.37    233.54
   -5   13    6   -108.39    168.71
   -3   13    6     64.64    -71.52
   -1   13    6    -37.85    131.52
    1   13    6    -54.87     29.33
    3   13    6     39.89    -45.79
    5   13    6   -193.74    162.46
    7   13    6    159.76    -27.11
    9   13    6    -38.04     49.29
   11   13    6     21.10    126.82
   13   13    6    -48.82     72.39
  -12   14    6     52.29    163.56
  -10   14    6     -5.65    -57.68
   -8   14    6     -6.35    334.38
   -6   14    6    -73.68     34.05
   -4   14    6     61.45    -26.63
   -2   14    6    -34.27     19.64
    0   14    6     -7.92    -41.97
    2   14    6    -15.12     65.75
    4   14    6     -3.12     34.22
    6   14    6     79.62   -101.35
    8   14    6    -96.55   -236.89
   10   14    6     42.70    -26.35
   12   14    6    -24.34     74.72
   14   14    6    -49.04   -169.50
  -13   15    6   -106.21     66.69
  -11   15    6     29.45    -45.53
   -9   15    6   -252.95     23.96
   -7   15    6    -26.03    123.80
   -5   15    6     19.32     24.20
   -3   15    6   -271.64    -47.43
   -1   15    6      0.78     -2.15
    1   15    6     -9.07   -102.22
    3   15    6     -7.87     68.77
    5   15    6     61.48     68.72
    7   15    6     74.31     37.59
    9   15    6    -85.45     78.40
   11   15    6     24.00    -56.47
   13   15    6    -34.99    -88.07
   15   15    6   -104.00    -32.04
  -14   16    6     26.86     57.82
  -12   16    6   -124.54   -132.73
  -10   16    6     30.60    -52.09
   -8   16    6     43.11     62.05
   -6   16    6     22.63   -107.69
   -4   16    6     25.28    -17.12
   -2   16    6    -27.49      9.34
    0   16    6   -130.31    -95.20
    2   16    6     30.45    -16.95
    4   16    6     12.58     23.36
    6   16    6   -218.78    -65.15
    8   16    6     30.40     18.04
   10   16    6    313.66    -58.43
   12   16    6    -23.85    -91.37
   14   16    6    -28.90      8.46
  -13   17    6    -18.07     62.28
  -11   17    6     15.84    -30.77
   -9   17    6    197.29   -227.61
   -7   17    6     73.97   -146.12
   -5   17    6      2.11    142.82
   -3   17    6     -0.96    -42.09
   -1   17    6    101.07   -296.33
    1   17    6    -80.50    -50.97
    3   17    6     22.13     19.97
    5   17    6    -57.00   -118.76
    7   17    6     21.56   -152.88
    9   17    6      5.62     35.37
   11   17    6      7.76     -3.14
   13   17    6     44.39    216.08
  -12   18    6     98.18    -37.74
  -10   18    6     29.75     55.66
   -8   18    6     81.73     33.81
   -6   18    6     74.18     10.96
   -4   18    6    -87.31     -3.22
   -2   18    6    129.33    -19.12
    0   18    6    -85.94     76.29
    2   18    6    -13.42    -77.55
    4   18    6    -25.76    -12.47
    6   18    6    118.29     10.52
    8   18    6    110.03   -178.44
   10   18    6    110.31     71.14
   12   18    6    -40.42     66.04
   -9   19    6     28.02    -83.66
   -7   19    6   -188.67    131.39
   -5   19    6    109.39   -247.31
   -3   19    6     41.53    -42.02
   -1   19    6     14.76     16.70
    1   19    6     40.91     -4.74
    3   19    6    119.31    -11.39
    5   19    6     71.22     32.43
    7   19    6   -122.20    -76.09
    9   19    6    -17.22     43.43
   -8   20    6     77.47    -15.71
   -6   20    6    -85.16     13.00
   -4   20    6     32.61    -70.16
   -2   20    6    -26.25     53.90
    0   20    6     53.45     -4.80
    2   20    6    -72.65     84.05
    4   20    6      2.41     -6.80
    6   20    6    -84.37     29.74
    8   20    6     45.90     -9.80
   -5   21    6    -19.10     17.39
   -3   21    6   -154.52     57.51
   -1   21    6    -38.75    -27.17
    1   21    6     79.18     26.48
    3   21    6    -55.17     44.66
    5   21    6      9.57     -4.39
    0    1    5    126.89    128.31
   -1    2    5   -275.26    379.21
    1    2    5   -515.97    145.73
   -2    3    5    192.85   -413.84
    0    3    5   -114.35     78.73
    2    3    5   -411.20   -227.25
   -3    4    5      1.74     59.96
   -1    4    5    -78.81    -64.34
    1    4    5    -85.62     57.91
    3    4    5     19.19      0.79
   -4    5    5    -52.96    -47.58
   -2    5    5   -276.72    -73.56
    0    5    5   -157.42   -264.83
    2    5    5   -201.22   -201.34
    4    5    5    -74.14     -3.26
   -5    6    5    283.06    -11.31
   -3    6    5   -130.95   -197.51
   -1    6    5     68.08   -291.62
    1    6    5    106.98   -275.61
    3    6    5    125.82     26.40
    5    6    5    106.61    129.50
   -6    7    5     -8.22     -8.15
   -4    7    5    193.71   -146.29
   -2    7    5    194.67    -73.31
    0    7    5    171.09    -38.61
    2    7    5     38.78     74.31
    4    7    5    -49.26   -156.31
    6    7    5    -70.15    108.49
   -7    8    5    188.79     19.74
   -5    8    5    190.65     29.84
   -3    8    5    109.13    -41.26
   -1    8    5   -192.51   -156.65
    1    8    5   -239.22    -21.59
    3    8    5    430.21      6.69
    5    8    5     23.93     81.39
    7    8    5    -42.64    105.36
   -8    9    5    -82.54     -3.85
   -6    9    5   -264.39     72.61
   -4    9    5     95.74     98.63
   -2    9    5    220.15   -302.98
    0    9    5    211.00   -279.74
    2    9    5    125.18   -369.16
    4    9    5    -95.77    270.10
    6    9    5    -16.75    -28.76
    8    9    5     24.58   -130.12
   -9   10    5   -100.81    -35.84
   -7   10    5     21.70     -7.88
   -5   10    5    -22.48    134.76
   -3   10    5     64.60    -67.00
   -1   10    5     43.71     -2.13
    1   10    5    118.01     46.57
    3   10    5    102.33    174.79
    5   10    5   -173.26     50.60
    7   10    5    -70.61    -27.01
    9   10    5     59.57    -30.12
  -10   11    5      1.91    -41.12
   -8   11    5   -140.80     64.52
   -6   11    5   -137.61     41.81
   -4   11    5     35.60    -86.31
   -2   11    5     82.94    -62.20
    0   11    5    -13.34   -138.49
    2   11    5    -29.70    116.19
    4   11    5   -298.66    163.40
    6   11    5    -48.91      5.60
    8   11    5     83.96      1.61
   10   11    5    -36.96    103.35
  -11   12    5    -16.31    -21.35
   -9   12    5   -184.66   -172.45
   -7   12    5    156.04    -79.34
   -5   12    5    -49.55     -4.00
   -3   12    5     52.83    133.36
   -1   12    5    -17.24    -93.99
    1   12    5     21.58    -74.37
    3   12    5    -49.26     31.20
    5   12    5   -159.12    -98.85
    7   12    5    -63.93   -155.69
    9   12    5     59.39     76.41
   11   12    5   -129.83   -146.81
  -12   13    5      7.23     24.67
  -10   13    5   -247.04    104.16
   -8   13    5     27.94     37.87
   -6   13    5    -19.95     99.59
   -4   13    5   -109.04     10.74
   -2   13    5   -116.73     31.86
    0   13    5    -36.58    -65.12
    2   13    5   -177.10     74.34
    4   13    5     80.41    -36.13
    6   13    5     54.35   -172.68
    8   13    5    -38.25     17.16
   10   13    5    203.70    100.35
   12   13    5    -94.17    -27.17
  -13   14    5      0.58    -80.44
  -11   14    5    -66.16    -91.09
   -9   14    5     28.45    -27.43
   -7   14    5    215.87    239.61
   -5   14    5    -71.30     -6.45
   -3   14    5     35.05    -42.04
   -1   14    5    -59.20    -48.37
    1   14    5      1.61     -8.66
    3   14    5      2.87     45.61
    5   14    5    -15.06     27.72
    7   14    5   -173.05    184.49
    9   14    5    -65.37    104.03
   11   14    5   -188.55     33.15
   13   14    5     20.58     96.06
  -14   15    5     70.46    121.20
  -12   15    5   -197.61    -20.79
  -10   15    5   -119.93     90.51
   -8   15    5   -100.92    238.15
   -6   15    5     53.89     60.02
   -4   15    5     -9.85      1.57
   -2   15    5    -13.86     30.95
    0   15    5    185.81   -107.77
    2   15    5   -120.29    -12.14
    4   15    5    -50.70     53.98
    6   15    5    -13.66     52.26
    8   15    5    147.41   -160.04
   10   15    5     64.06     21.33
   12   15    5    -89.29      4.89
   14   15    5    -61.28     26.41
  -13   16    5    -10.26      2.34
  -11   16    5    -57.19     45.61
   -9   16    5    160.51    -34.33
   -7   16    5     65.23     23.79
   -5   16    5   -122.80     74.49
   -3   16    5      5.91     42.44
   -1   16    5    -96.76   -146.98
    1   16    5     36.77      1.14
    3   16    5     69.26    167.74
    5   16    5     59.00    -16.41
    7   16    5     98.61    216.27
    9   16    5    104.76     58.13
   11   16    5     39.40    -31.20
   13   16    5    -52.95     87.66
  -12   17    5   -166.20     68.73
  -10   17    5   -235.38   -114.70
   -8   17    5   -100.16     83.37
   -6   17    5     -6.56    169.14
   -4   17    5    -40.01    -88.57
   -2   17    5   -243.19     22.68
    0   17    5    -29.31     73.50
    2   17    5    219.03    -66.54
    4   17    5     72.22    -72.99
    6   17    5    -28.84     88.19
    8   17    5    -47.73     44.82
   10   17    5    221.49   -136.78
   12   17    5     87.17     55.60
  -11   18    5      6.58     91.53
   -9   18    5     -5.74     -4.57
   -7   18    5     89.56   -110.09
   -5   18    5    -47.82    -25.87
   -3   18    5    -41.88    117.10
   -1   18    5    -40.64     10.19
    1   18    5   -133.25     74.65
    3   18    5     79.68     19.23
    5   18    5    -24.89    -13.32
    7   18    5     29.28   -144.28
    9   18    5   -110.50     98.17
   11   18    5     58.70    118.72
  -10   19    5   -160.31     -9.13
   -8   19    5   -193.52     25.72
   -6   19    5   -157.87   -106.68
   -4   19    5    126.31     -9.03
   -2   19    5    -41.38      6.31
    0   19    5    205.75   -186.67
    2   19    5     35.65      5.26
    4   19    5     82.85      2.20
    6   19    5    -14.39    -98.77
    8   19    5    -34.42     40.31
   10   19    5    -93.51    -11.87
   -7   20    5     63.16     -7.94
   -5   20    5      9.93    -46.47
   -3   20    5    -37.40    -45.29
   -1   20    5    -25.28      5.13
    1   20    5    -35.11    106.81
    3   20    5     23.48     50.62
    5   20    5      7.58    -65.64
    7   20    5     48.85      8.65
   -4   21    5     38.97     22.21
   -2   21    5     98.46     95.55
    0   21    5     92.09     -7.49
    2   21    5     94.61    116.35
    4   21    5    -11.95    -44.33
    1    1    4     70.89      4.58
    0    2    4    573.12    628.80
    2    2    4   -403.16   -421.40
   -1    3    4   -267.79    551.40
    1    3    4   -318.85    757.82
    3    3    4    -20.74    -17.86
   -2    4    4    -44.63     75.47
    0    4    4   -933.47   -756.75
    2    4    4    -85.02    115.45
    4    4    4    -86.34     60.99
   -3    5    4    -62.63    119.69
   -1    5    4   -271.90    239.69
    1    5    4    190.54    492.11
    3    5    4   -204.49    158.07
    5    5    4     66.35     43.69
   -4    6    4     47.06   -260.36
   -2    6    4     -6.51    -44.30
    0    6    4    325.24    355.45
    2    6    4     59.66    -53.41
    4    6    4     -3.29     47.61
    6    6    4     44.23     86.06
   -5    7    4   -263.09    -20.22
   -3    7    4    457.73   -466.50
   -1    7    4   -114.56   -186.33
    1    7    4    -32.74   -193.67
    3    7    4    336.55   -501.51
    5    7    4     12.68    249.90
    7    7    4    -10.61    -12.97
   -6    8    4     91.91     88.14
   -4    8    4     29.64   -148.77
   -2    8    4     40.09   -148.40
    0    8    4    -13.44     50.92
    2    8    4    156.18   -170.25
    4    8    4   -105.97     27.97
    6    8    4     75.03    235.63
    8    8    4    125.10     45.51
   -7    9    4    197.84     16.69
   -5    9    4    -25.49    228.82
   -3    9    4    -80.41   -148.35
   -1    9    4     43.21    -33.60
    1    9    4   -179.57   -136.92
    3    9    4    -41.19    196.95
    5    9    4   -106.14     72.19
    7    9    4    -13.48     21.34
    9    9    4     81.07     78.07
   -8   10    4    -95.13    -70.08
   -6   10    4   -223.67    190.97
   -4   10    4    224.15      3.06
   -2   10    4    148.57      4.20
    0   10    4    -78.55   -187.67
    2   10    4    166.25     84.99
    4   10    4    143.14    122.45
    6   10    4   -147.34     15.94
    8   10    4    146.27    223.97
   10   10    4     -9.71     -9.24
   -9   11    4     15.27     87.11
   -7   11    4    -28.57    -43.53
   -5   11    4     96.88    252.88
   -3   11    4    -75.29     88.30
   -1   11    4     51.96    137.74
    1   11    4    -31.35      5.51
    3   11    4     13.47     33.14
    5   11    4   -130.85    -94.26
    7   11    4    -72.42      6.72
    9   11    4    174.01     82.43
   11   11    4      7.65     60.79
  -10   12    4   -125.27    -47.75
   -8   12    4      0.16     69.32
   -6   12    4     86.07    -46.24
   -4   12    4    -56.48    -90.88
   -2   12    4    -41.61   -108.04
    0   12    4    211.76    131.07
    2   12    4    -90.48    -67.89
    4   12    4    -69.26   -209.24
    6   12    4     88.97    153.63
    8   12    4    111.15      7.90
   10   12    4     28.87     77.65
   12   12    4    -43.32    -78.54
  -11   13    4     73.26    -46.06
   -9   13    4    170.27   -249.88
   -7   13    4    -40.53    118.85
   -5   13    4     28.80      4.06
   -3   13    4     95.45     11.64
   -1   13    4    -20.18    -69.57
    1   13    4     16.50    -40.02
    3   13    4    -11.92     42.78
    5   13    4     62.36     39.49
    7   13    4    -43.15     -7.38
    9   13    4    -42.29    -77.06
   11   13    4     -0.97    -42.31
   13   13    4    133.74    144.05
  -12   14    4    -45.52     46.05
  -10   14    4     19.87   -116.02
   -8   14    4    -15.90     26.55
   -6   14    4     82.69    111.73
   -4   14    4    -40.26    -15.00
   -2   14    4      8.33    -92.42
    0   14    4     -2.83   -132.82
    2   14    4    -62.79      5.79
    4   14    4     17.89     13.17
    6   14    4    151.55    -20.92
    8   14    4     35.31    -16.92
   10   14    4    -74.67   -196.20
   12   14    4     68.54    -13.44
   14   14    4     63.37    -16.66
  -13   15    4      3.01    -49.74
  -11   15    4    -54.53    300.83
   -9   15    4     37.82     46.91
   -7   15    4    117.43   -137.98
   -5   15    4     -2.03    -13.00
   -3   15    4    -40.42    -65.09
   -1   15    4    -87.71    -26.64
    1   15    4     -5.35     -2.94
    3   15    4     -0.06    -46.68
    5   15    4    119.85     21.19
    7   15    4     49.75     68.32
    9   15    4      6.51     21.87
   11   15    4    -81.59   -157.30
   13   15    4    -54.96   -116.01
   15   15    4     47.38    145.40
  -14   16    4    -38.63     83.82
  -12   16    4   -152.03    -80.24
  -10   16    4    -59.40    -55.30
   -8   16    4   -122.45   -108.05
   -6   16    4     -1.35      2.73
   -4   16    4     49.59    -91.87
   -2   16    4   -149.25   -122.73
    0   16    4    -79.01    -55.96
    2   16    4     42.50   -129.57
    4   16    4     60.76    -13.08
    6   16    4     26.53   -134.71
    8   16    4    304.35   -106.19
   10   16    4     73.42    -66.75
   12   16    4    138.19   -224.56
   14   16    4     -2.93     68.01
  -13   17    4     27.53     50.05
  -11   17    4    -79.61      0.05
   -9   17    4     17.04    182.97
   -7   17    4     32.42     97.65
   -5   17    4    -80.66     49.93
   -3   17    4     19.57     44.62
   -1   17    4    -92.87     14.33
    1   17    4     -6.01    -64.26
    3   17    4    -10.11    -13.45
    5   17    4    -33.76    -40.63
    7   17    4     63.88     68.65
    9   17    4    -84.16    -67.86
   11   17    4    -10.32    150.48
   13   17    4     -9.93    -20.05
  -12   18    4    118.81     25.00
  -10   18    4    -53.46     -9.54
   -8   18    4     25.87    -19.98
   -6   18    4    115.40     48.99
   -4   18    4   -128.40   -162.78
   -2   18    4    -69.53     62.90
    0   18    4    165.40    -54.70
    2   18    4    -36.21     65.25
    4   18    4    -19.54   -171.21
    6   18    4     50.70    -54.45
    8   18    4    -14.28    -15.56
   10   18    4     42.80     -3.83
   12   18    4     98.10    -75.86
   -9   19    4     13.03    272.47
   -7   19    4    -26.10    -41.45
   -5   19    4    -43.22    -55.32
   -3   19    4     92.99     -1.58
   -1   19    4      0.08    -21.80
    1   19    4    -24.80    -68.30
    3   19    4     55.84    -57.56
    5   19    4      5.57    -90.19
    7   19    4     82.97     -4.06
    9   19    4     45.66    -55.95
   -8   20    4     85.46    -93.66
   -6   20    4    -50.78    -38.07
   -4   20    4     99.37     21.93
   -2   20    4     -6.15     39.26
    0   20    4    128.08     13.46
    2   20    4     92.68     16.04
    4   20    4    103.61     19.80
    6   20    4     17.66    -45.99
    8   20    4    -46.83     64.86
   -5   21    4    -38.80     -4.47
   -3   21    4    -86.39    -97.66
   -1   21    4     78.06    -92.62
    1   21    4     11.26     33.17
    3   21    4     -9.77    -31.34
    5   21    4     10.63    -88.41
   -1    2    3   -145.88   -341.78
    1    2    3     -0.19   -226.79
   -2    3    3    141.94    365.48
    0    3    3    612.35   -436.66
    2    3    3    268.34    289.62
   -3    4    3    246.15    -89.15
   -1    4    3    216.55    -36.07
    1    4    3    269.60    104.90
    3    4    3    111.42   -113.83
   -4    5    3   -107.98   -283.34
   -2    5    3    -66.44     83.07
    0    5    3     31.27    244.47
    2    5    3   -160.59     19.42
    4    5    3   -162.89   -288.93
   -5    6    3    -11.55    -35.81
   -3    6    3     28.91    -59.59
   -1    6    3   -213.86    108.20
    1    6    3    144.74    189.04
    3    6    3     69.43    -25.61
    5    6    3    207.53    -62.93
   -6    7    3   -197.47    -56.49
   -4    7    3    202.81      1.38
   -2    7    3    -18.05   -135.18
    0    7    3    -31.71     28.10
    2    7    3    104.36    -81.37
    4    7    3     36.59    158.74
    6    7    3   -120.94     16.80
   -7    8    3     34.22     67.25
   -5    8    3   -431.90    -63.60
   -3    8    3    -88.02     14.27
   -1    8    3     42.56     91.46
    1    8    3    135.88    -34.69
    3    8    3   -136.19    126.57
    5    8    3    243.05    -78.51
    7    8    3    -70.97     21.02
   -8    9    3     -3.08    -22.76
   -6    9    3     87.91     93.31
   -4    9    3    -42.87   -209.76
   -2    9    3   -164.35   -189.33
    0    9    3     32.11   -317.52
    2    9    3     -6.39     45.18
    4    9    3    -87.97    -77.42
    6    9    3     31.86    107.30
    8    9    3   -161.92    195.13
   -9   10    3   -157.44    -67.51
   -7   10    3   -150.37     31.86
   -5   10    3     86.92     86.09
   -3   10    3    -35.60   -199.68
   -1   10    3   -146.26     51.32
    1   10    3     62.88    -20.24
    3   10    3     88.83   -187.16
    5   10    3     -3.72    -15.15
    7   10    3     48.78   -199.25
    9   10    3     17.42     -6.31
  -10   11    3     22.58    -90.15
   -8   11    3   -122.81     73.22
   -6   11    3     59.11    -24.95
   -4   11    3    157.96     23.13
   -2   11    3     52.89    -54.16
    0   11    3    -24.08    171.76
    2   11    3    -86.36     48.86
    4   11    3    115.57    -10.45
    6   11    3     40.03     46.09
    8   11    3   -113.60     77.61
   10   11    3   -181.97   -113.44
  -11   12    3     -0.25      7.50
   -9   12    3   -128.92     32.59
   -7   12    3     51.55     66.71
   -5   12    3   -110.32    125.94
   -3   12    3    -85.65     98.85
   -1   12    3     90.29      9.52
    1   12    3     -7.90      6.16
    3   12    3   -158.96   -117.31
    5   12    3     39.47     41.72
    7   12    3     20.04     34.36
    9   12    3    -56.80     78.98
   11   12    3     74.01   -109.86
  -12   13    3     36.72   -141.98
  -10   13    3     40.25    -51.55
   -8   13    3     44.04   -278.98
   -6   13    3    -62.41      3.02
   -4   13    3     46.96    -15.50
   -2   13    3     39.15    146.53
    0   13    3    -51.19    126.25
    2   13    3    114.01     66.13
    4   13    3    -15.02      5.56
    6   13    3    -52.05    109.97
    8   13    3    120.37     43.96
   10   13    3    -21.17     68.08
   12   13    3    -88.31    -13.62
  -13   14    3    -10.15     95.74
  -11   14    3   -126.77   -230.86
   -9   14    3    112.05    190.23
   -7   14    3    100.42     13.81
   -5   14    3    -30.96   -102.43
   -3   14    3   -166.52     98.27
   -1   14    3    140.85    -60.12
    1   14    3    113.06    -82.15
    3   14    3   -117.45     86.42
    5   14    3    133.27    -68.61
    7   14    3    -22.90    -23.76
    9   14    3     14.35   -101.40
   11   14    3    -58.44    -44.75
   13   14    3     36.17    -55.70
  -14   15    3    -94.16    -54.09
  -12   15    3     65.87    -48.93
  -10   15    3   -153.84   -262.81
   -8   15    3    -78.86    -16.76
   -6   15    3     -9.99     78.72
   -4   15    3    -47.64   -114.68
   -2   15    3   -109.91   -169.85
    0   15    3     24.17     -2.64
    2   15    3    -65.78   -113.51
    4   15    3     -8.96     39.84
    6   15    3     39.50     62.40
    8   15    3    -18.22     32.71
   10   15    3   -190.22     84.42
   12   15    3    -71.67     34.66
   14   15    3   -162.19    100.05
  -15   16    3    135.30     28.98
  -13   16    3    -75.03     34.62
  -11   16    3     27.20    240.68
   -9   16    3     82.96    135.06
   -7   16    3   -180.15   -111.53
   -5   16    3     11.45     36.31
   -3   16    3    -63.32     90.17
   -1   16    3    -51.48     -8.42
    1   16    3     27.30     42.19
    3   16    3     95.50    -13.39
    5   16    3     50.68    -23.66
    7   16    3     11.84    164.72
    9   16    3    -72.29      9.29
   11   16    3    -28.77   -131.37
   13   16    3     42.09     27.62
   15   16    3    -25.13    -68.18
  -12   17    3   -107.25     59.86
  -10   17    3    101.06    -43.34
   -8   17    3     16.93   -104.38
   -6   17    3    -32.35      4.95
   -4   17    3     24.85    -49.20
   -2   17    3     21.88    -91.03
    0   17    3   -107.51    -32.45
    2   17    3     19.40    -11.85
    4   17    3     99.71     -8.31
    6   17    3    -33.06    -47.54
    8   17    3   -131.14    -16.75
   10   17    3      4.00    -16.30
   12   17    3     38.56    -81.91
  -11   18    3    -24.55     82.42
   -9   18    3   -136.64   -115.27
   -7   18    3     69.41    -19.74
   -5   18    3   -103.02     45.90
   -3   18    3   -101.15     35.42
   -1   18    3     16.61     97.36
    1   18    3     15.54    -35.57
    3   18    3   -136.26   -206.09
    5   18    3     30.93    -41.16
    7   18    3     12.30    -51.81
    9   18    3    -37.32   -118.33
   11   18    3     66.04    -86.71
  -10   19    3     -9.44      4.21
   -8   19    3     40.73    110.23
   -6   19    3    -77.79     15.93
   -4   19    3     -1.06     -9.88
   -2   19    3     35.22   -172.38
    0   19    3    -88.81    -61.54
    2   19    3     54.33    -69.30
    4   19    3     21.71    -73.74
    6   19    3    -81.80     31.18
    8   19    3     65.95     -9.30
   10   19    3    -78.33     18.51
   -9   20    3     36.20    -69.08
   -7   20    3     31.72    -44.79
   -5   20    3     17.01     46.42
   -3   20    3     48.36    -22.68
   -1   20    3     75.71     30.77
    1   20    3    113.67    -84.39
    3   20    3      6.23     17.97
    5   20    3     25.85      7.58
    7   20    3     -9.24     31.39
    9   20    3    -82.08    -10.71
   -6   21    3     89.52     49.56
   -4   21    3     35.62    -68.22
   -2   21    3    -58.57     24.84
    0   21    3   -112.14    -45.78
    2   21    3      4.20    -81.16
    4   21    3     71.56    -62.72
    6   21    3     29.76   -112.93
    1    1    2   -139.76    538.80
    0    2    2  -2455.54   -554.59
    2    2    2    139.92    -84.95
   -1    3    2    341.93   -729.72
    1    3    2    168.18   -674.99
    3    3    2    -62.45    426.42
   -2    4    2    -99.62   -124.14
    0    4    2    522.62    136.22
    2    4    2    -72.90    -67.98
    4    4    2      3.29    -71.52
   -3    5    2    -90.44    408.66
   -1    5    2    -40.39     11.52
    1    5    2    -54.47    -69.57
    3    5    2    -72.54    440.87
    5    5    2    161.56    -69.53
   -4    6    2    167.02    138.50
   -2    6    2    245.75    -23.12
    0    6    2    242.48   -114.72
    2    6    2     96.46    -35.06
    4    6    2    223.02     80.14
    6    6    2    212.27     39.73
   -5    7    2     32.75    -51.25
   -3    7    2   -269.51    -38.86
   -1    7    2   -169.63     -1.33
    1    7    2   -158.23     -6.32
    3    7    2     18.42    350.43
    5    7    2    -17.88   -115.87
    7    7    2   -327.18    293.74
   -6    8    2     94.62    102.59
   -4    8    2   -148.95   -263.53
   -2    8    2   -162.30   -122.17
    0    8    2    322.35     35.54
    2    8    2   -160.29   -117.21
    4    8    2     11.33   -342.80
    6    8    2    -14.00     37.56
    8    8    2   -437.92    -19.79
   -7    9    2     45.82    -76.11
   -5    9    2   -121.17    -79.64
   -3    9    2     27.36     30.36
   -1    9    2    -90.95    -19.30
    1    9    2      2.84    -88.46
    3    9    2     66.44     76.44
    5    9    2     44.74   -109.10
    7    9    2    -44.47   -109.20
    9    9    2     57.36   -174.81
   -8   10    2    -57.01     22.56
   -6   10    2     73.16   -137.95
   -4   10    2    -59.70     89.62
   -2   10    2     59.63   -202.13
    0   10    2    180.39   -225.73
    2   10    2     84.74   -145.69
    4   10    2    -52.84    -22.09
    6   10    2    187.90    107.98
    8   10    2     -4.33    -12.86
   10   10    2     -1.24   -170.82
   -9   11    2     32.19     51.90
   -7   11    2      9.34    140.58
   -5   11    2     21.06    -47.53
   -3   11    2    196.03    -34.36
   -1   11    2   -112.06      8.78
    1   11    2    103.59     59.49
    3   11    2     51.69    -30.47
    5   11    2    -42.18      6.10
    7   11    2     15.94     11.75
    9   11    2     74.19     44.39
   11   11    2   -164.96    -25.95
  -10   12    2    -41.77     13.03
   -8   12    2    -25.30     -6.70
   -6   12    2    -59.60     31.89
   -4   12    2     55.77     -3.59
   -2   12    2     12.27     19.22
    0   12    2    -87.16    109.10
    2   12    2     68.53    -88.94
    4   12    2     31.13     65.68
    6   12    2    -82.05      2.76
    8   12    2    -35.00     34.86
   10   12    2     13.34    -36.01
   12   12    2    -23.89     -1.31
  -11   13    2   -167.53      5.73
   -9   13    2     17.57    -23.90
   -7   13    2   -123.03    221.31
   -5   13    2      7.32    -70.51
   -3   13    2    -18.74     78.20
   -1   13    2    198.46   -142.39
    1   13    2    152.80     27.55
    3   13    2    -82.22     16.53
    5   13    2    -77.83    -91.25
    7   13    2    -26.83     91.45
    9   13    2    130.36    -29.66
   11   13    2     64.58    -68.79
   13   13    2    -25.59    -11.08
  -12   14    2     33.65    -24.00
  -10   14    2   -158.10     84.18
   -8   14    2      8.23   -119.20
   -6   14    2    -38.20    -38.94
   -4   14    2   -101.68    -43.38
   -2   14    2     -6.24    -29.18
    0   14    2    -28.58    176.77
    2   14    2     30.46     75.65
    4   14    2     37.77    114.22
    6   14    2    -45.58     95.92
    8   14    2   -136.10    264.29
   10   14    2    -78.25     44.36
   12   14    2    135.48    -88.55
   14   14    2     20.65    -49.37
  -13   15    2     30.53     54.34
  -11   15    2     38.63     83.56
   -9   15    2    -90.17    179.43
   -7   15    2     46.52    -94.53
   -5   15    2     51.62    -65.18
   -3   15    2    -58.10     -2.19
   -1   15    2    -92.65    158.10
    1   15    2    -70.77    -13.35
    3   15    2     -7.22    -22.36
    5   15    2     42.32    -23.25
    7   15    2    -41.35     16.42
    9   15    2    -24.94    -34.01
   11   15    2    121.63    -27.31
   13   15    2    177.55    -48.42
   15   15    2    -25.19    -27.79
  -14   16    2     23.83     69.22
  -12   16    2    -95.81    -28.11
  -10   16    2   -130.57   -131.87
   -8   16    2    -16.87     19.21
   -6   16    2   -196.26    -39.86
   -4   16    2    151.47    -18.12
   -2   16    2     55.10    -12.65
    0   16    2   -227.79     31.01
    2   16    2     83.69   -120.67
    4   16    2    -37.26     60.34
    6   16    2     75.62    -89.76
    8   16    2     -3.62     23.61
   10   16    2   -122.68     19.34
   12   16    2    -32.16    106.40
   14   16    2     41.06     63.19
  -13   17    2     80.54      3.74
  -11   17    2    -10.61     52.39
   -9   17    2     -6.81   -153.46
   -7   17    2     63.86    130.86
   -5   17    2    -32.35     33.03
   -3   17    2   -160.31     45.89
   -1   17    2    -48.43   -111.24
    1   17    2    -35.36    -58.88
    3   17    2    -87.87    -60.01
    5   17    2     26.63     24.80
    7   17    2   -107.70    323.16
    9   17    2   -103.61    -35.66
   11   17    2    -32.81    -72.47
   13   17    2    -29.93    199.41
  -12   18    2    -60.30     24.93
  -10   18    2     73.73     -5.92
   -8   18    2    -76.84     24.95
   -6   18    2     20.12    113.36
   -4   18    2     54.42    -68.35
   -2   18    2   -118.82     94.43
    0   18    2     67.92     29.87
    2   18    2   -117.60    115.71
    4   18    2      6.01   -210.60
    6   18    2   -158.35    214.63
    8   18    2    -75.47     92.90
   10   18    2      0.78    -47.99
   12   18    2    -40.94     21.99
  -11   19    2    -69.31    -62.13
   -9   19    2    -68.73    -60.64
   -7   19    2    -53.74    -71.16
   -5   19    2      7.57     33.54
   -3   19    2     14.92    -91.35
   -1   19    2    -94.65    121.20
    1   19    2    -14.57     28.12
    3   19    2    -12.64    -40.76
    5   19    2    -86.90    -14.45
    7   19    2     42.28    -29.67
    9   19    2     23.76     63.11
   11   19    2    -68.43     -9.39
   -8   20    2    -74.64    -53.15
   -6   20    2     36.55     11.49
   -4   20    2    -57.95     24.96
   -2   20    2    179.04   -444.71
    0   20    2   -111.49     -4.63
    2   20    2    244.08   -472.08
    4   20    2    -89.11     44.87
    6   20    2     24.80    -83.71
    8   20    2     14.88    -60.52
   -5   21    2     64.76     25.29
   -3   21    2     45.36     12.41
   -1   21    2     71.31     91.18
    1   21    2     25.16     67.95
    3   21    2     62.82     -3.14
    5   21    2     -4.73      2.08
    0   22    2   -513.48   -474.16
    0    1    1   2292.36    187.08
   -1    2    1    -30.43    665.55
    1    2    1    208.02    759.39
   -2    3    1   -242.03     -6.26
    0    3    1   -149.17    129.57
    2    3    1   -191.62     -1.51
   -3    4    1   -199.08    -47.61
   -1    4    1    132.95   -280.93
    1    4    1    -14.59   -447.16
    3    4    1      4.20     61.65
   -4    5    1    -76.12    -14.31
   -2    5    1   -134.38    -40.56
    0    5    1    234.24    334.90
    2    5    1   -150.06    171.77
    4    5    1    -87.37    -51.30
   -5    6    1    113.58    165.24
   -3    6    1     27.00    309.70
   -1    6    1    -76.41    -53.95
    1    6    1   -178.40    -96.17
    3    6    1    -35.23    386.44
    5    6    1   -152.10     67.22
   -6    7    1   -154.83    -99.66
   -4    7    1   -170.04     84.30
   -2    7    1     25.13     87.86
    0    7    1   -266.55    155.11
    2    7    1     94.15     31.11
    4    7    1    -45.90    -52.81
    6    7    1   -154.57   -230.91
   -7    8    1     65.63     73.95
   -5    8    1    199.61    113.24
   -3    8    1   -249.30     97.48
   -1    8    1    138.78    239.87
    1    8    1     89.35    142.73
    3    8    1    -45.15    118.64
    5    8    1    164.36    -77.56
    7    8    1    -29.66    140.77
   -8    9    1     66.72     45.20
   -6    9    1    151.97      9.10
   -4    9    1    -50.80   -117.84
   -2    9    1     71.18    -98.31
    0    9    1   -105.51    -11.38
    2    9    1     25.92    -21.73
    4    9    1     89.90   -124.08
    6    9    1    -20.06    156.95
    8    9    1     91.09    -96.11
   -9   10    1    -10.40   -234.08
   -7   10    1   -134.08      5.43
   -5   10    1     80.10     39.96
   -3   10    1    152.20     22.90
   -1   10    1     29.84    -60.98
    1   10    1     -3.87    -58.80
    3   10    1     10.47   -112.49
    5   10    1   -125.76    -69.20
    7   10    1     -0.83     20.25
    9   10    1    122.44    -95.20
  -10   11    1      1.23     18.65
   -8   11    1    -54.87     33.95
   -6   11    1    137.16      6.78
   -4   11    1    -37.03    -42.68
   -2   11    1   -180.83    -10.01
    0   11    1   -176.69   -100.97
    2   11    1    -61.70    -75.06
    4   11    1     23.63      1.81
    6   11    1     65.13    167.05
    8   11    1     12.52    -28.34
   10   11    1    131.09   -210.81
  -11   12    1   -138.06     48.04
   -9   12    1    -79.32     21.64
   -7   12    1     16.40    151.47
   -5   12    1    110.79    126.45
   -3   12    1     27.92    -88.70
   -1   12    1     61.22    -77.56
    1   12    1      6.07    -39.10
    3   12    1    -21.83    -35.88
    5   12    1    -32.31    -14.74
    7   12    1     43.73     52.05
    9   12    1    -97.93     80.69
   11   12    1    -11.63    -41.90
  -12   13    1    -91.19    112.59
  -10   13    1    -23.21    -14.10
   -8   13    1    -11.77      5.62
   -6   13    1    -43.01    -56.37
   -4   13    1     67.41    106.24
   -2   13    1    -92.21      6.62
    0   13    1     49.61     -3.71
    2   13    1     17.95    195.67
    4   13    1     36.21     49.45
    6   13    1    -12.06    136.31
    8   13    1     43.94    -23.92
   10   13    1     -5.94     64.96
   12   13    1    -27.18   -168.37
  -13   14    1     19.02     42.84
  -11   14    1    -44.08    190.25
   -9   14    1    -67.29     71.23
   -7   14    1    134.44     54.97
   -5   14    1    -28.32      0.91
   -3   14    1    -76.17     56.44
   -1   14    1     17.78     38.43
    1   14    1    -27.10     16.07
    3   14    1     31.36   -202.09
    5   14    1    -72.60    -14.51
    7   14    1     84.28     29.88
    9   14    1    -26.46    -49.00
   11   14    1    -84.69    -56.93
   13   14    1     17.39    -31.64
  -14   15    1    -82.27     18.72
  -12   15    1    -10.77     -2.95
  -10   15    1     71.96    -11.63
   -8   15    1    -56.01     -7.90
   -6   15    1    -50.08    109.28
   -4   15    1      5.57    -61.30
   -2   15    1    -41.89     15.40
    0   15    1   -222.50    133.20
    2   15    1   -140.62   -185.53
    4   15    1    -32.08     -6.79
    6   15    1     -3.58    190.03
    8   15    1     55.65     50.14
   10   15    1    -27.01     39.35
   12   15    1   -157.74     84.85
   14   15    1   -108.76    -10.79
  -15   16    1    108.26    -39.96
  -13   16    1    133.11     81.00
  -11   16    1    129.43    252.91
   -9   16    1    170.96    -68.72
   -7   16    1     25.88     58.45
   -5   16    1    -82.70     69.68
   -3   16    1     -5.77     51.27
   -1   16    1     23.81     13.87
    1   16    1     71.23    -31.21
    3   16    1      8.48     -9.35
    5   16    1    -43.51    222.89
    7   16    1   -144.11    168.26
    9   16    1    -19.10     32.32
   11   16    1    -29.15     74.22
   13   16    1    -69.92     55.94
   15   16    1     83.95    101.39
  -14   17    1    -65.27      1.92
  -12   17    1     66.23    -54.87
  -10   17    1     50.42   -146.36
   -8   17    1    -58.59      4.67
   -6   17    1     70.22     -7.44
   -4   17    1     44.77    -76.72
   -2   17    1     27.59    121.17
    0   17    1   -103.17    109.46
    2   17    1     66.04    -62.47
    4   17    1    -48.86    -11.91
    6   17    1    -24.47     21.63
    8   17    1    -85.81     33.99
   10   17    1   -161.41    -46.10
   12   17    1     78.59     22.75
   14   17    1     92.27     59.08
  -11   18    1    -93.43   -133.60
   -9   18    1   -123.33    -30.59
   -7   18    1     34.59     20.03
   -5   18    1    129.68    -79.95
   -3   18    1    -68.28   -119.99
   -1   18    1     88.51    102.61
    1   18    1     25.98    -81.18
    3   18    1     65.39     46.68
    5   18    1     -7.30     21.39
    7   18    1      0.93     12.90
    9   18    1     11.63     44.27
   11   18    1    -79.24    -71.36
  -10   19    1     55.97    -33.50
   -8   19    1     27.05     43.42
   -6   19    1      6.56    -63.93
   -4   19    1      0.90     57.97
   -2   19    1     55.82    -98.99
    0   19    1      8.52     47.64
    2   19    1     73.94    -88.91
    4   19    1    -42.52     29.32
    6   19    1     90.15    -83.06
    8   19    1     38.91     65.74
   10   19    1     41.78    -16.39
   -9   20    1    -52.29     15.00
   -7   20    1    -64.53    -57.21
   -5   20    1    -62.31    -57.40
   -3   20    1    -53.63      4.37
   -1   20    1    -77.42    145.20
    1   20    1    -51.65     63.71
    3   20    1    -25.92     -0.01
    5   20    1    104.15     13.64
    7   20    1    -38.18    126.84
    9   20    1     -8.55     -0.12
   -6   21    1    -21.33     33.32
   -4   21    1     70.40    -48.11
   -2   21    1    -92.36    -69.40
    0   21    1     35.85    -97.35
    2   21    1    -77.47   -134.69
    4   21    1     13.90    -10.49
    6   21    1    -62.82    -44.12
   -1   22    1     24.83    -64.31
    1   22    1   -134.54    -53.64
    1    1    0   -124.17      1.01
    0    2    0    509.85     -0.23
    2    2    0   1219.53    -11.56
   -1    3    0    -44.38      4.26
    1    3    0    182.45      0.34
    3    3    0    132.18     -4.38
   -2    4    0    566.81      3.58
    0    4    0    448.93      0.95
    2    4    0    502.33     -0.09
    4    4    0   -534.15      0.11
   -3    5    0   -179.74      2.08
   -1    5    0     74.66    -21.31
    1    5    0    -11.88     -4.46
    3    5    0     88.98      1.06
    5    5    0   -102.54     -0.48
   -4    6    0   -410.24      3.25
   -2    6    0     37.41     10.03
    0    6    0    643.74      2.23
    2    6    0     27.99      7.22
    4    6    0   -548.79      7.10
    6    6    0    453.82     -0.71
   -5    7    0      8.32    -14.38
   -3    7    0     68.07    -11.08
   -1    7    0   -155.18     -1.74
    1    7    0    -54.79    -10.49
    3    7    0    111.36     -1.32
    5    7    0   -147.92      0.24
    7    7    0    -37.57      0.94
   -6    8    0    340.65     -0.06
   -4    8    0    -58.88      0.62
   -2    8    0     51.99     -0.76
    0    8    0    290.50     15.11
    2    8    0    -48.85      7.66
    4    8    0    -21.08     -0.46
    6    8    0   -420.55     -1.87
    8    8    0   -125.07      1.23
   -7    9    0    147.26     -3.95
   -5    9    0    -54.44      0.64
   -3    9    0   -183.56    -14.89
   -1    9    0    -85.60     -3.95
    1    9    0    140.55      0.50
    3    9    0   -158.74      2.98
    5    9    0     33.11      0.26
    7    9    0    171.00      0.42
    9    9    0    -72.62      0.50
   -8   10    0   -361.46      2.25
   -6   10    0    -48.44      0.22
   -4   10    0    -60.11     -2.19
   -2   10    0    -93.88     -5.07
    0   10    0    170.38      1.81
    2   10    0    -13.73     -5.10
    4   10    0    -93.69     -2.19
    6   10    0    -80.07      2.38
    8   10    0    321.97      1.03
   10   10    0     91.05     -4.51
   -9   11    0   -222.82     -0.98
   -7   11    0    168.19      0.69
   -5   11    0    215.25     -2.55
   -3   11    0   -196.38     -1.17
   -1   11    0    -96.70     -6.65
    1   11    0    -42.00     -0.98
    3   11    0    179.69      0.16
    5   11    0     -0.09      2.95
    7   11    0    -38.92     -0.71
    9   11    0   -252.33     -1.29
   11   11    0   -100.30      1.25
  -10   12    0     43.70    -32.66
   -8   12    0     79.53      0.35
   -6   12    0    -60.80      0.39
   -4   12    0    -38.23     -2.98
   -2   12    0     52.21     -1.77
    0   12    0   -265.55     -5.58
    2   12    0     79.79      1.62
    4   12    0    -89.29      0.29
    6   12    0    -53.00     -5.23
    8   12    0     65.85      1.02
   10   12    0    185.29     13.00
   12   12    0     79.97     -2.11
  -11   13    0    -26.86      7.06
   -9   13    0     36.50      3.46
   -7   13    0    -67.19     -2.62
   -5   13    0    133.51     -2.62
   -3   13    0     47.33     -1.57
   -1   13    0     69.47     -2.35
    1   13    0     88.39     -0.67
    3   13    0    102.71     -2.62
    5   13    0     37.41     -1.12
    7   13    0    -10.48     -0.27
    9   13    0      7.02      0.18
   11   13    0     33.16     -0.68
   13   13    0    -12.23     -0.86
  -12   14    0    -72.21     -9.27
  -10   14    0    162.09     -2.04
   -8   14    0     52.14     -5.22
   -6   14    0    102.37      0.17
   -4   14    0     67.66     -2.48
   -2   14    0    -53.73      7.16
    0   14    0     54.98      2.96
    2   14    0    -23.51      3.50
    4   14    0      8.53     -2.66
    6   14    0    169.40     -1.55
    8   14    0     64.11      2.24
   10   14    0    232.28      5.06
   12   14    0    -33.86      2.09
   14   14    0    109.20      1.75
  -13   15    0    -24.95      1.06
  -11   15    0    147.57     -0.57
   -9   15    0    -75.00     -1.09
   -7   15    0    157.61      1.36
   -5   15    0     24.61     -0.94
   -3   15    0   -132.82     -2.14
   -1   15    0    -43.99     -3.94
    1   15    0   -129.48     -0.81
    3   15    0     32.21      1.07
    5   15    0    -55.60     -3.91
    7   15    0    -46.09     -2.22
    9   15    0    161.04      0.32
   11   15    0    108.78     -2.14
   13   15    0     58.66     -1.78
   15   15    0    193.21      0.35
  -14   16    0   -218.66      2.99
  -12   16    0    123.42     -1.73
  -10   16    0     -1.79     -4.47
   -8   16    0   -189.97      3.54
   -6   16    0    -10.96      0.86
   -4   16    0    -57.19      2.92
   -2   16    0    194.79     -7.64
    0   16    0    -95.47     -2.81
    2   16    0   -163.50      3.95
    4   16    0    -70.31     -4.31
    6   16    0    122.83     -2.16
    8   16    0    218.26     -0.10
   10   16    0    -87.04     -2.33
   12   16    0    -20.84      4.40
   14   16    0     64.11     -1.34
  -13   17    0     81.45      0.50
  -11   17    0    101.81     -0.14
   -9   17    0     -9.16     -1.84
   -7   17    0    142.67     -1.18
   -5   17    0    -21.12      2.01
   -3   17    0    -48.52     -2.95
   -1   17    0    -22.36      1.03
    1   17    0     42.71      0.08
    3   17    0    -68.20      1.41
    5   17    0    -57.76     -1.00
    7   17    0    -87.77     -5.47
    9   17    0     91.57     -1.90
   11   17    0    -87.63      0.45
   13   17    0    -46.79      1.20
  -12   18    0    106.00      3.35
  -10   18    0    -36.85     -2.36
   -8   18    0   -114.21      4.57
   -6   18    0     12.64     -0.38
   -4   18    0     80.52     -3.22
   -2   18    0    -93.08    -15.66
    0   18    0    162.24      5.19
    2   18    0    -60.88    -32.38
    4   18    0    134.89     -2.57
    6   18    0     13.73     -3.38
    8   18    0    -81.79     -4.34
   10   18    0     75.43     -2.60
   12   18    0     16.47      2.91
  -11   19    0   -146.80     -1.46
   -9   19    0     14.23      0.25
   -7   19    0   -139.56      1.44
   -5   19    0    -72.79     -2.09
   -3   19    0     74.54     -1.78
   -1   19    0      3.87      0.35
    1   19    0     26.11      2.55
    3   19    0     10.83     -1.11
    5   19    0      0.26     -1.27
    7   19    0     75.23     -2.58
    9   19    0    -28.53    -14.01
   11   19    0    -16.71     -1.51
   -8   20    0    -43.70      0.26
   -6   20    0     -6.49      3.28
   -4   20    0     43.18      0.06
   -2   20    0    131.09     -0.01
    0   20    0    489.00    -16.37
    2   20    0    140.25      0.96
    4   20    0     49.65     -2.87
    6   20    0     -0.61     -1.53
    8   20    0    -85.94     -0.78
   -5   21    0     -8.21     -0.04
   -3   21    0   -141.18     -0.03
   -1   21    0    -38.02     -9.26
    1   21    0   -114.43      0.04
    3   21    0     -4.96     -0.82
    5   21    0    -69.43     -1.79
   -2   22    0   -485.82     16.42
    0   22    0   -187.73     -0.80
    2   22    0   -576.63     13.27
    0    1    3   -864.44    130.65
   -1    2   13    167.11    -34.92
   -7   14   21     63.06   -219.65
   -5   14   21     -7.65    -33.37
   -3   14   21    -49.33   -100.51
   -6   15   21    -16.66     -3.87
   -4   15   21    -54.07     70.82
    7   13   22    -23.70    -50.59
   -2   14   22     21.01     42.56
    0   14   22   -128.57    -51.17
   -3   15   22    -67.92     55.59
   -1   15   22    -50.41    -48.65
    1   15   22    -21.52    -78.24
   -7    8   23    -53.46     25.98
   -8    9   23   -115.22    136.57
    8    9   23     32.96    -17.30
    5   10   23    150.89    -94.92
    7   10   23     80.84   -120.42
    9   10   23      1.42    -38.18
    6   11   23    -55.85    -13.57
    8   11   23    -69.26     10.23
    3   12   23     41.84    -17.05
    2   13   23    -29.41    -62.07
    3   14   23     36.41    -80.60
    8    8   24     80.26      5.98
   -7    9   24    144.69    -75.01
    5    9   24     13.39    -83.96
    7    9   24    119.95    -83.32
    9    9   24     20.15    -81.65
    6   10   24     32.79     -9.15
    8   10   24     20.60   -116.25
   10   10   24    242.26     31.17
    3   11   24    -30.98    -86.52
    5   11   24    -28.23     14.23
    7   11   24    -10.92    -16.17
    2   12   24      5.32    -14.49
    4   12   24    -21.47     11.37
    3   13   24     -0.79     50.12
    2   14   24      4.16      4.77
    8    9   25    -22.51    -83.87
    7   10   25    -44.86    -24.92
    4   11   25    -10.91    -22.27
    6   11   25      3.19    -28.90
    3   12   25    -32.23     58.96
    5   12   25     10.46     20.93
    2   13   25     18.50    -22.90
  -10   20    0      6.49     -0.78
   10   20    0     -3.43      3.07
   -7   21    0     71.25      1.39
    7   21    0   -156.91     -5.09
   -4   22    0     42.78      0.85
    4   22    0     88.24     -0.26
  -13   18    1     62.28     11.80
   13   18    1    -48.69     63.56
  -12   19    1     22.20   -128.29
   12   19    1    -71.15     -4.75
   -8   21    1   -110.88    -17.54
    8   21    1     -3.93   -102.21
   -3   22    1     67.19     22.92
    3   22    1     29.72    -46.29
  -10   20    2    -64.89    -52.56
   10   20    2    -65.45     97.93
   -7   21    2     73.77     15.92
    7   21    2   -151.36     68.13
   -4   22    2    -21.34   -159.72
   -2   22    2   -154.30    -18.21
    2   22    2    -86.59    -85.67
    4   22    2    -95.23    -78.49
  -14   17    3     14.07    -23.09
   14   17    3    -14.37     36.63
  -13   18    3     16.99     37.07
   13   18    3     -6.42    -92.19
   -3   22    3     95.27   -131.44
   -1   22    3    139.30   -174.18
    1   22    3    185.02   -115.63
    3   22    3     19.97   -180.37
    0    0    4  -1091.94   -426.51
  -11   19    4    -56.36    103.14
   11   19    4      4.74    -13.13
   -7   21    4     72.63      6.13
    7   21    4     78.17    -63.06
   -2   22    4     63.89    118.34
    0   22    4     10.50     52.44
    2   22    4     -4.34    113.98
  -15   16    5    -23.08     11.51
   15   16    5     14.28    -14.78
  -14   17    5    -39.04     47.55
   14   17    5      5.86    -57.49
  -13   18    5     85.98    -23.29
   13   18    5    111.06    100.14
   -9   20    5     28.41     55.64
    9   20    5   -124.85     18.28
   -6   21    5     18.17     33.59
    6   21    5    127.49     33.94
   -3   22    5    -29.23    -20.77
   -1   22    5     -6.33    -55.65
    1   22    5     -6.68     -2.87
    3   22    5     -8.89     14.16
  -11   19    6    -41.86    184.66
   11   19    6    110.52    -66.34
    0   22    6     -9.88    116.61
  -15   16    7    -45.49     14.37
   15   16    7    -77.60     -4.33
   -9   20    7     11.17    -34.68
    9   20    7     12.50    -13.21
   -6   21    7    -15.13     78.12
    6   21    7    -70.97      7.09
  -13   17    8     -7.01     37.36
   13   17    8    -33.38    -12.19
  -12   18    8    -96.35     59.99
   12   18    8   -123.67     66.12
   -8   20    8   -183.85     82.53
    8   20    8   -128.46    -32.50
   -5   21    8    -60.08     55.89
    5   21    8     69.60     17.01
  -10   19    9    -93.50    -82.01
   10   19    9    -29.20     11.96
   -7   20    9   -212.22      5.24
    7   20    9     10.96    -48.58
   -4   21    9    -29.01     85.42
    4   21    9     -8.83     25.75
   15   15   10    -50.48    -76.16
  -14   16   10     83.48    -56.41
   14   16   10     39.77    -11.92
   -9   19   10      3.86      6.71
    9   19   10    -31.10    -19.73
   -3   21   10     -8.57    -15.50
   -1   21   10     29.81    112.74
    1   21   10     80.10    -63.36
    3   21   10     30.82    -47.46
  -12   17   11      4.72     21.45
   12   17   11    -74.56     76.59
  -11   18   11     38.16     72.85
   11   18   11     69.25    -21.74
   -2   21   11     38.23     29.08
    0   21   11    114.94    -15.40
    2   21   11    -22.06     57.26
  -10   18   12    102.39    198.45
   10   18   12      1.96    -50.49
  -14   15   13    -28.66     16.58
   14   15   13    -84.89    -16.80
   -9   18   13    146.24    -16.10
    9   18   13     18.06     69.71
   -3   20   13    -32.62     33.86
    3   20   13     56.15    -13.06
   14   14   14     -3.66     55.24
  -13   15   14    104.44    -16.74
   13   15   14    -49.62     70.50
  -12   16   14    -13.90    -28.25
   12   16   14     13.23    -87.91
   -2   20   14      9.84     37.87
    0   20   14     92.24   -131.28
    2   20   14     96.79     93.37
  -11   16   15     -1.10    -67.36
   11   16   15     10.32     19.56
  -10   17   15     42.62    -50.48
   10   17   15     86.86    -45.40
   -4   19   15    -94.30     33.87
    4   19   15     43.55     70.59
   -9   17   16    -49.33     -9.23
    9   17   16     39.23    -15.54
   -3   19   16    -44.92    -55.11
   -1   19   16     40.62    -56.40
    1   19   16    -36.51    -33.41
    3   19   16    100.75    -79.74
   -8   17   17    -49.37     29.84
    8   17   17     22.01     27.20
   -5   18   17     73.28    -75.23
    5   18   17     91.16     21.11
    0   19   17     40.74    -22.34
   13   13   18     70.95     43.02
  -12   14   18     51.66    -81.05
   12   14   18    -65.74   -106.72
   -7   17   18     40.15     23.75
    7   17   18     48.95     57.70
   -4   18   18    -44.97     22.62
   -2   18   18    -14.33     17.95
    2   18   18     18.29    -75.77
    4   18   18     -7.09    -51.84
  -12   13   19    135.28     35.83
   12   13   19     -9.42     65.95
  -11   14   19     12.92    135.17
   11   14   19    123.42    191.42
  -10   15   19     16.07    -11.81
   10   15   19     24.66     33.18
   -6   17   19    -54.72    140.37
    6   17   19    -68.54    -11.57
   -1   18   19     19.08     60.25
    1   18   19   -114.84     17.24
    0    0   20     70.86      3.20
  -11   13   20    -50.74    218.63
   11   13   20    -11.92    137.82
  -10   14   20   -149.94    127.32
   10   14   20   -245.53    224.10
   -9   15   20    -18.80    -46.07
    9   15   20    -18.81     60.53
   -6   16   20    -82.85     10.59
    6   16   20   -142.20    -14.40
   -3   17   20     16.73   -182.21
   -1   17   20     58.17    -15.28
    1   17   20    -52.72    -47.25
    3   17   20     22.34   -105.06
  -10   13   21   -179.95    -85.70
   10   13   21    -88.46    -10.61
   -9   14   21    -89.21    -96.48
    9   14   21   -103.71    -18.52
   -5   16   21    -62.06    -53.47
    5   16   21   -123.68      4.41
   -9   13   22    135.59    -90.32
    9   13   22     68.59   -103.38
   -8   14   22     42.82     12.67
    8   14   22     -5.22    -57.28
   -5   15   22     21.56    -21.45
    5   15   22    -40.50     -8.10
   -2   16   22     25.59     59.38
    0   16   22    -97.06     12.02
    2   16   22    -66.50     74.30
    0    1   23   -102.25    -12.49
    1    4   23    -15.87      5.17
   -9   12   23    151.78    -29.32
    7   12   23     48.97    -72.15
    9   12   23    167.62   -102.30
   -8   13   23    101.59     13.12
    8   13   23     40.61     -6.78
   -4   15   23     25.27     29.04
   -2   15   23    -67.51    -18.96
    0   15   23   -127.24    -33.96
    2   15   23     28.03      4.63
    4   15   23     52.24     -1.50
    0    0   24    -76.48    -77.36
   -2    4   24   -131.17    123.89
    2    4   24    -38.32     96.25
    4    4   24     -1.76     -9.04
   -3    5   24     97.19    -93.91
   -1    5   24    -11.88     -2.60
    3    5   24     57.75    -52.57
    5    5   24    -47.50    -10.41
   -4    6   24     50.05    -59.00
   -2    6   24     62.80    127.92
    0    6   24     26.28   -102.95
    4    6   24    -48.49     38.60
    6    6   24   -134.34    -43.34
   -5    7   24    -23.03     65.22
   -3    7   24    -42.41     -1.46
   -1    7   24   -112.91    -32.20
    1    7   24    -41.21    -77.08
    3    7   24    -83.67     91.69
    5    7   24   -151.08     64.25
    7    7   24    -32.63    -17.31
   -6    8   24    102.53     13.84
   -4    8   24     26.10    158.21
   -2    8   24     18.08    -36.13
    0    8   24     12.04     15.18
    2    8   24    -39.72     49.81
    4    8   24    151.65    132.41
    6    8   24     30.50     43.13
   -5    9   24    -37.87     66.65
   -3    9   24     35.72     15.87
   -1    9   24     -6.32     -3.35
    1    9   24     56.26    -22.64
    3    9   24    155.21    -22.99
    0   10   24     62.62    -59.07
    2   10   24     16.66      3.82
    4   10   24    -25.03    -87.67
   -9   11   24    152.74    -21.99
    9   11   24    230.60    -93.22
   -8   12   24    168.69    -59.13
    8   12   24    139.18     44.64
   -7   13   24     46.04     86.33
    7   13   24    -20.95    -95.10
   -4   14   24      7.96     41.20
    4   14   24     65.84     47.39
    0    1   25    -61.68      1.05
   -1    2   25    -39.38   -157.83
    1    2   25      0.16     18.07
   -2    3   25     56.61    147.36
    0    3   25    -19.25    165.81
    2    3   25     26.27     17.62
   -3    4   25     49.34    -39.81
   -1    4   25    100.44     33.01
    1    4   25     11.53    -43.99
   -4    5   25    -21.72    110.06
   -2    5   25     28.75    -10.65
    0    5   25     -6.62    -52.06
    2    5   25    160.94     73.57
    4    5   25    -20.97    -32.37
   -5    6   25    -47.07     -8.56
   -3    6   25    -29.87      8.56
   -1    6   25    -46.65     29.58
    1    6   25    -15.34   -121.57
    3    6   25    -17.73     98.18
    5    6   25   -142.98     17.27
   -6    7   25    -39.95      7.42
   -4    7   25    145.56     -4.01
   -2    7   25    -53.57     65.02
    0    7   25    -24.80     33.46
    2    7   25     42.83    109.37
    4    7   25    -43.07    110.33
    6    7   25    -78.64   -118.41
   -7    8   25     95.04   -128.58
   -5    8   25    -61.73     83.19
   -3    8   25    125.91     34.55
   -1    8   25    104.34     35.41
    1    8   25     75.93    -27.54
    3    8   25     56.62     50.39
    5    8   25   -117.91     84.75
    7    8   25      4.95     53.60
   -8    9   25    114.44     85.90
   -6    9   25    -15.38     -6.92
   -4    9   25    -93.19     -9.31
   -2    9   25    -40.00    -67.61
    0    9   25     19.68   -198.09
    2    9   25     11.36    -11.06
    4    9   25     13.84     19.23
    6    9   25     47.21    -42.33
   -9   10   25      6.79    -37.81
   -7   10   25    194.97   -114.05
   -5   10   25     43.92     53.70
   -3   10   25    -73.63     31.19
   -1   10   25     20.79    -34.11
    1   10   25      0.33    102.75
    3   10   25    -53.37    -75.48
    5   10   25     17.74     49.54
    9   10   25     84.65    -21.88
   -8   11   25    211.23    164.27
    0   11   25    -31.24     33.81
    2   11   25     88.75     79.76
    8   11   25     17.60     13.56
   -7   12   25     39.66    107.78
    1   12   25     -0.03    -16.95
    7   12   25    -35.91    -28.87
   -4   13   25    -57.37    -76.26
    4   13   25     68.35    -24.17
    1    1   26    -28.17     -5.81
    0    2   26    -95.90    119.06
    2    2   26    -18.18    -30.10
   -1    3   26      6.20     14.21
    1    3   26    -64.71     79.73
    3    3   26     70.77     23.52
   -2    4   26    100.60     -0.63
    0    4   26    -18.38    -36.60
    2    4   26    -10.55    -31.46
    4    4   26     56.09     -7.74
   -3    5   26     28.53      3.81
   -1    5   26    -57.47     53.85
    1    5   26      2.21     24.70
    3    5   26    -33.41     34.83
    5    5   26     -6.34    -82.61
   -4    6   26     24.83     43.98
   -2    6   26    -15.44    -48.84
    0    6   26      0.57    -20.19
    2    6   26     13.94    -83.57
    4    6   26     22.35    -17.33
    6    6   26    -76.54     14.93
   -5    7   26     17.02    -80.44
   -3    7   26    -67.58     87.74
   -1    7   26     36.48   -103.24
    1    7   26     91.06      0.52
    3    7   26    -95.09      4.57
    5    7   26     48.03    -65.50
    7    7   26    -12.74    -34.15
   -6    8   26     66.53    146.39
   -4    8   26    -16.30     63.44
   -2    8   26   -110.72     49.32
    0    8   26     48.25    128.67
    2    8   26    -22.84     33.06
    4    8   26    -35.79     83.42
    6    8   26     44.86     44.60
    8    8   26    -42.54    -18.81
   -7    9   26    107.81    -22.40
   -5    9   26     26.15     20.43
   -3    9   26    -74.69     36.93
   -1    9   26    126.13     22.14
    1    9   26     71.43    -22.57
    3    9   26    -25.46     -8.35
    5    9   26     12.37    -88.97
    7    9   26     90.86    -15.51
    9    9   26     80.05     26.78
   -8   10   26    209.96    110.02
   -6   10   26    -48.52    119.32
   -4   10   26    -58.34     37.23
   -2   10   26    -56.33     30.08
    0   10   26    -74.77    -38.18
    2   10   26     61.09     29.65
    4   10   26     17.96     69.08
    6   10   26      2.14    -24.41
    8   10   26     27.85    -15.28
   -5   11   26    -19.76      1.52
   -3   11   26    -40.23    -35.42
   -1   11   26    -43.79     34.55
    1   11   26    -70.64    -63.26
    3   11   26    -60.37     54.51
    5   11   26    -64.15    -10.06
   -4   12   26     17.29    -64.42
    0   12   26     31.17     14.10
    2   12   26    -16.12    -24.50
    4   12   26     -5.62     79.40
    0    1   27    -15.98    -37.12
   -1    2   27      1.77     81.80
    1    2   27    -51.60      0.31
   -2    3   27     -0.43    104.44
    0    3   27     38.59     11.75
    2    3   27    -49.03     -8.35
   -3    4   27     38.86     26.09
   -1    4   27    -20.74    -45.88
    1    4   27      3.26    -32.33
    3    4   27    -36.98    -15.33
   -4    5   27    -18.16     21.14
   -2    5   27    -69.09    -49.42
    0    5   27    -23.95    -32.73
    2    5   27    -40.68    -65.32
    4    5   27     43.51    -29.59
   -5    6   27    -21.65    -33.65
   -3    6   27    -12.65      4.49
   -1    6   27    -26.13    -19.42
    1    6   27     42.10     25.96
    3    6   27     -2.97     25.48
    5    6   27     11.62    -47.47
   -6    7   27     86.44    -40.78
   -4    7   27    -33.53     10.55
   -2    7   27     26.24    -34.63
    0    7   27      6.77     78.39
    2    7   27     -0.42     32.05
    4    7   27    -32.42    -64.13
    6    7   27     -0.08     10.66
   -7    8   27    -25.82      2.79
   -5    8   27    -55.91     32.36
   -3    8   27    -27.22    -35.89
   -1    8   27    -25.30     19.79
    1    8   27    -17.45     52.54
    3    8   27    -14.00    -68.90
    5    8   27     13.63    -11.05
    7    8   27    -25.55     27.81
   -6    9   27    -30.75     54.74
   -4    9   27   -105.08    -49.61
   -2    9   27     -2.09     41.96
    0    9   27     38.81    -36.14
    2    9   27    -13.47    -19.69
    4    9   27     54.75     31.48
    6    9   27     39.88    -16.52
   -5   10   27     11.07    -50.19
   -3   10   27    -37.94     -1.62
   -1   10   27     15.08     10.65
    1   10   27      3.64      4.09
    3   10   27    -11.20      7.46
    5   10   27     -9.02      2.41
   -4   11   27     82.41      0.26
   -2   11   27     -2.67     39.37
    0   11   27     29.37     -3.52
    2   11   27    -34.74     11.34
    4   11   27      7.47    -25.68
    0    0    0      0.00      0.00
# SQUEEZE RESULTS (Version = 230318)
# Note: Data are Listed for all Voids in the P1 Unit Cell
# i.e. Centre of Gravity, Solvent Accessible Volume,
# Recovered number of Electrons in the Void and
# Details about the Squeezed Material
loop_
  _platon_squeeze_void_nr
  _platon_squeeze_void_average_x
  _platon_squeeze_void_average_y
  _platon_squeeze_void_average_z
  _platon_squeeze_void_volume
  _platon_squeeze_void_count_electrons
  _platon_squeeze_void_content
   1 -0.002 -0.011  0.002     60686     18512 ' '
# Missing Reflections Below sin(th)/lambda = 0.25
loop_
  _platon_missing_refln_index_h
  _platon_missing_refln_index_k
  _platon_missing_refln_index_l
  _platon_missing_refln_theta
    0    0    4     3.142
    0    0   20    15.905
    0    1   23    18.406
    1    4   23    18.974
    0    0   24    19.199
   -2    4   24    19.883
    2    4   24    19.883
    4    4   24    20.284
   -3    5   24    20.350
   -1    5   24    20.084
    3    5   24    20.350
    5    5   24    20.874
   -4    6   24    20.938
   -2    6   24    20.548
    0    6   24    20.416
    4    6   24    20.938
    6    6   24    21.577
   -5    7   24    21.639
   -3    7   24    21.131
   -1    7   24    20.874
    1    7   24    20.874
    3    7   24    21.131
    5    7   24    21.639
    7    7   24    22.384
   -6    8   24    22.445
   -4    8   24    21.828
   -2    8   24    21.450
    0    8   24    21.323
    2    8   24    21.450
    4    8   24    21.828
    6    8   24    22.445
   -5    9   24    22.628
   -3    9   24    22.138
   -1    9   24    21.890
    1    9   24    21.890
    3    9   24    22.138
    0   10   24    22.445
    2   10   24    22.567
    0    1   25    20.066
   -1    2   25    20.199
    1    2   25    20.199
   -2    3   25    20.464
    0    3   25    20.332
    2    3   25    20.464
   -3    4   25    20.856
   -1    4   25    20.595
    1    4   25    20.595
   -4    5   25    21.369
   -2    5   25    20.985
    0    5   25    20.856
    2    5   25    20.985
    4    5   25    21.369
   -5    6   25    21.997
   -3    6   25    21.496
   -1    6   25    21.242
    1    6   25    21.242
    3    6   25    21.496
    5    6   25    21.997
   -4    7   25    22.121
   -2    7   25    21.748
    0    7   25    21.622
    2    7   25    21.748
    4    7   25    22.121
   -3    8   25    22.367
   -1    8   25    22.121
    1    8   25    22.121
    3    8   25    22.367
    0    9   25    22.611
    1    1   26    20.935
    0    2   26    20.999
    2    2   26    21.128
   -1    3   26    21.192
    1    3   26    21.192
    3    3   26    21.447
   -2    4   26    21.510
    0    4   26    21.383
    2    4   26    21.510
    4    4   26    21.887
   -3    5   26    21.949
   -1    5   26    21.699
    1    5   26    21.699
    3    5   26    21.949
    5    5   26    22.442
   -4    6   26    22.503
   -2    6   26    22.135
    0    6   26    22.011
    2    6   26    22.135
    4    6   26    22.503
   -1    7   26    22.442
    1    7   26    22.442
    0    1   27    21.744
   -1    2   27    21.869
    1    2   27    21.869
   -2    3   27    22.118
    0    3   27    21.994
    2    3   27    22.118
   -3    4   27    22.486
   -1    4   27    22.241
    1    4   27    22.241
    3    4   27    22.486
   -2    5   27    22.608
    0    5   27    22.486
    2    5   27    22.608
_platon_squeeze_void_probe_radius                  1.20
_platon_squeeze_details
)
TITL shelx     I 41         R = 0.31
CELL   39.7396   39.7396   56.2610     90.00     90.00     90.00
SPGR I41
# Solvent Accessible Volume =     60716
# Electrons Found in S.A.V. =     18338
# Note: Atoms in Void are Labelled as Cxxx and Qxxx for all Others
Q101 0.186 0.391 0.048 !       2.62 eA-3
Q102 0.813 0.392 0.045 !       2.56 eA-3
C103 0.142 1.001 0.073 !       2.50 eA-3
Q104 0.655 0.007 0.476 !       2.28 eA-3
C105 0.024 0.875 0.234 !       2.28 eA-3
C106 0.177 0.083 0.209 !       2.15 eA-3
C107 0.491 0.030 0.093 !       2.13 eA-3
C108 1.000 0.998 0.172 !       2.11 eA-3
C109 0.050 0.032 0.155 !       2.11 eA-3
Q110 0.555 0.763 0.154 !       2.10 eA-3
C111 0.019 0.929 0.231 !       2.08 eA-3
C112 0.485 0.022 0.099 !       2.05 eA-3
Q113 0.500 0.288 0.377 !       2.05 eA-3
C114 0.045 0.960 0.063 !       2.01 eA-3
C115 0.887 0.985 0.264 !       2.00 eA-3
C116 0.984 0.851 0.222 !       1.97 eA-3
Q117 0.844 0.187 0.424 !       1.95 eA-3
Q118 0.153 0.803 0.419 !       1.95 eA-3
C119 0.665 0.289 0.486 !       1.89 eA-3
C120 0.897 0.547 0.471 !       1.88 eA-3
C121 0.095 0.392 0.455 !       1.88 eA-3
C122 0.301 0.631 0.113 !       1.82 eA-3
C123 0.414 0.842 0.042 !       1.81 eA-3
C124 0.620 0.281 0.195 !       1.80 eA-3
C125 0.119 0.585 0.399 !       1.79 eA-3
C126 0.155 0.655 0.029 !       1.79 eA-3
C127 0.500 0.999 0.012 !       1.78 eA-3
C128 0.761 0.273 0.422 !       1.78 eA-3
C129 0.548 0.060 0.057 !       1.77 eA-3
C130 0.066 0.646 0.342 !       1.77 eA-3
C131 0.841 0.406 0.296 !       1.77 eA-3
C132 0.019 0.978 0.143 !       1.76 eA-3
C133 0.947 0.296 0.491 !       1.75 eA-3
C134 0.585 0.194 0.474 !       1.75 eA-3
C135 0.894 0.313 0.381 !       1.74 eA-3
C136 0.538 0.290 0.489 !       1.73 eA-3
C137 0.150 0.648 0.038 !       1.73 eA-3
C138 0.883 0.983 0.111 !       1.73 eA-3
C139 0.892 0.866 0.149 !       1.73 eA-3
Q140 0.374 0.532 0.374 !       1.72 eA-3
C141 0.620 0.498 0.298 !       1.71 eA-3
C142 0.402 0.260 0.448 !       1.70 eA-3
Q143 0.112 0.648 0.320 !       1.70 eA-3
C144 0.989 0.946 0.183 !       1.69 eA-3
C145 0.921 0.939 0.117 !       1.68 eA-3
Q146 0.840 0.830 0.058 !       1.68 eA-3
C147 0.045 0.993 0.020 !       1.68 eA-3
C148 0.349 0.337 0.264 !       1.68 eA-3
C149 0.901 0.664 0.021 !       1.67 eA-3
C150 0.894 0.054 0.069 !       1.67 eA-3
C151 0.863 0.945 0.055 !       1.66 eA-3
C152 0.726 0.709 0.132 !       1.66 eA-3
C153 0.858 0.547 0.401 !       1.65 eA-3
Q154 0.370 0.211 0.130 !       1.65 eA-3
C155 0.201 0.039 0.199 !       1.64 eA-3
C156 0.229 0.743 0.151 !       1.63 eA-3
C157 0.106 0.006 0.155 !       1.63 eA-3
C158 0.999 0.319 0.354 !       1.62 eA-3
C159 0.167 0.631 0.347 !       1.62 eA-3
C160 0.977 0.398 0.296 !       1.62 eA-3
C161 0.607 0.127 0.252 !       1.61 eA-3
Q162 0.112 0.154 0.276 !       1.60 eA-3
C163 0.073 0.741 0.000 !       1.60 eA-3
C164 0.506 0.212 0.151 !       1.59 eA-3
C165 0.249 0.048 0.223 !       1.59 eA-3
C166 0.841 1.001 0.332 !       1.58 eA-3
C167 0.747 0.397 0.303 !       1.58 eA-3
Q168 0.327 0.673 0.246 !       1.58 eA-3
C169 0.987 0.540 0.143 !       1.58 eA-3
Q170 0.096 0.938 0.018 !       1.57 eA-3
C171 0.243 0.422 0.335 !       1.57 eA-3
C172 0.476 0.702 0.052 !       1.57 eA-3
C173 0.814 0.119 0.337 !       1.57 eA-3
C174 0.978 0.944 0.295 !       1.56 eA-3
C175 0.046 0.836 0.141 !       1.56 eA-3
C176 0.491 0.600 0.322 !       1.55 eA-3
C177 0.043 0.687 0.452 !       1.54 eA-3
C178 0.745 0.531 0.364 !       1.54 eA-3
Q179 0.199 0.064 0.120 !       1.53 eA-3
C180 0.005 0.553 0.227 !       1.53 eA-3
C181 0.778 0.469 0.368 !       1.51 eA-3
C182 0.766 0.733 0.134 !       1.51 eA-3
C183 0.581 0.790 0.468 !       1.51 eA-3
C184 0.888 0.658 0.370 !       1.51 eA-3
C185 0.614 0.765 0.065 !       1.49 eA-3
C186 0.012 0.649 0.369 !       1.49 eA-3
C187 0.651 0.135 0.404 !       1.49 eA-3
C188 0.590 0.713 0.090 !       1.49 eA-3
C189 0.790 0.203 0.164 !       1.49 eA-3
Q190 0.033 0.343 0.122 !       1.49 eA-3
Q191 0.386 0.437 0.351 !       1.49 eA-3
Q192 0.748 0.890 0.441 !       1.49 eA-3
C193 0.098 0.531 0.248 !       1.49 eA-3
C194 0.057 0.289 0.432 !       1.48 eA-3
C195 0.081 0.999 0.489 !       1.48 eA-3
C196 0.210 0.906 0.118 !       1.48 eA-3
C197 0.042 0.263 0.391 !       1.48 eA-3
Q198 0.660 0.953 0.194 !       1.48 eA-3
C199 0.840 0.437 0.265 !       1.47 eA-3
)
;
_shelx_fab_checksum              18041
loop_
_space_group_symop_operation_xyz
'x, y, z'
'-y, x+1/2, z+1/4'
'-x, -y, z'
'y, -x+1/2, z+1/4'
'x+1/2, y+1/2, z+1/2'
'-y+1/2, x+1, z+3/4'
'-x+1/2, -y+1/2, z+1/2'
'y+1/2, -x+1, z+3/4'
loop_
_atom_site_label
_atom_site_type_symbol
_atom_site_fract_x
_atom_site_fract_y
_atom_site_fract_z
_atom_site_U_iso_or_equiv
_atom_site_adp_type
_atom_site_occupancy
_atom_site_site_symmetry_order
_atom_site_calc_flag
_atom_site_refinement_flags_posn
_atom_site_refinement_flags_adp
_atom_site_refinement_flags_occupancy
_atom_site_disorder_assembly
_atom_site_disorder_group
Tb1 Tb 0.4575(4) 0.2610(4) 0.2458(3) 0.127(9) Uani 1 1 d D U . . .
Tb2 Tb 0.5541(4) 0.2612(4) 0.2463(3) 0.129(9) Uani 1 1 d D U . . .
Tb3 Tb 0.5055(3) 0.3099(4) 0.2948(2) 0.109(8) Uani 1 1 d D U . . .
Tb4 Tb 0.5058(4) 0.1807(5) 0.2617(3) 0.170(10) Uani 1 1 d D U . . .
Tb5 Tb 0.4564(4) 0.2288(4) 0.3107(3) 0.153(10) Uani 1 1 d D U . . .
Tb6 Tb 0.5541(4) 0.2292(4) 0.3109(3) 0.158(10) Uani 1 1 d D U . . .
O1H O 0.5061(7) 0.2320(18) 0.2368(14) 0.167(10) Uiso 1 1 d D . . . .
O2H O 0.5056(7) 0.290(2) 0.2563(11) 0.167(10) Uiso 1 1 d D . . . .
O3H O 0.4584(15) 0.2792(19) 0.2846(9) 0.167(10) Uiso 1 1 d D . . . .
O4H O 0.4586(15) 0.2107(19) 0.2718(10) 0.167(10) Uiso 1 1 d D . . . .
O5H O 0.5529(15) 0.2111(19) 0.2721(10) 0.167(10) Uiso 1 1 d D . . . .
O6H O 0.5529(15) 0.2796(19) 0.2851(10) 0.167(10) Uiso 1 1 d D . . . .
O7H O 0.5051(7) 0.2579(18) 0.3190(15) 0.167(10) Uiso 1 1 d D . . . .
O8H O 0.5054(7) 0.201(2) 0.3002(11) 0.167(10) Uiso 1 1 d D . . . .
O101 O 0.4777(19) 0.2786(7) 0.2103(10) 0.167(10) Uiso 1 1 d D U . . .
O102 O 0.5347(19) 0.2787(7) 0.2106(10) 0.167(10) Uiso 1 1 d D U . . .
O103 O 0.6749(10) 0.4289(15) 0.0597(11) 0.167(10) Uiso 1 1 d D U . . .
O104 O 0.6466(19) 0.4574(9) 0.0308(9) 0.167(10) Uiso 1 1 d D U . . .
O105 O 0.3547(18) 0.4693(9) 0.0299(9) 0.167(10) Uiso 1 1 d D U . . .
O106 O 0.3257(10) 0.4406(16) 0.0586(11) 0.167(10) Uiso 1 1 d D U . . .
C101 C 0.5061(14) 0.2844(9) 0.2035(7) 0.17(3) Uiso 1 1 d D U . . .
C102 C 0.5033(18) 0.3035(19) 0.1806(10) 0.18(4) Uiso 1 1 d DG U . . .
C103 C 0.5323(16) 0.311(3) 0.1680(14) 0.19(4) Uiso 1 1 d DG U . . .
H103 H 0.5537 0.3050 0.1740 0.226 Uiso 1 1 calc R U . . .
C104 C 0.5300(17) 0.329(3) 0.1466(15) 0.19(5) Uiso 1 1 d DG U . . .
H104 H 0.5498 0.3343 0.1380 0.226 Uiso 1 1 calc R U . . .
C105 C 0.4987(19) 0.338(2) 0.1378(11) 0.19(4) Uiso 1 1 d DG U . . .
C106 C 0.4697(17) 0.330(3) 0.1504(15) 0.18(5) Uiso 1 1 d DG U . . .
H106 H 0.4483 0.3367 0.1444 0.221 Uiso 1 1 calc R U . . .
C107 C 0.4720(16) 0.313(3) 0.1718(14) 0.18(4) Uiso 1 1 d DG U . . .
H107 H 0.4521 0.3074 0.1804 0.218 Uiso 1 1 calc R U . . .
C108 C 0.6514(12) 0.4386(11) 0.0476(8) 0.17(3) Uiso 1 1 d D U . . .
C109 C 0.6194(13) 0.4229(18) 0.0561(13) 0.17(4) Uiso 1 1 d DG U . . .
C110 C 0.5891(16) 0.440(2) 0.052(2) 0.17(4) Uiso 1 1 d DG U . . .
H110 H 0.5889 0.4603 0.0438 0.206 Uiso 1 1 calc R U . . .
C111 C 0.5592(14) 0.426(3) 0.060(2) 0.18(4) Uiso 1 1 d DG U . . .
H111 H 0.5385 0.4373 0.0578 0.210 Uiso 1 1 calc R U . . .
C112 C 0.5595(14) 0.396(2) 0.0728(15) 0.18(4) Uiso 1 1 d DG U . . .
C113 C 0.5898(16) 0.379(2) 0.077(2) 0.17(4) Uiso 1 1 d DG U . . .
H113 H 0.5900 0.3581 0.0851 0.210 Uiso 1 1 calc R U . . .
C114 C 0.6197(14) 0.393(2) 0.068(2) 0.17(4) Uiso 1 1 d DG U . . .
H114 H 0.6404 0.3812 0.0710 0.210 Uiso 1 1 calc R U . . .
C115 C 0.3493(12) 0.4509(11) 0.0470(8) 0.17(3) Uiso 1 1 d D U . . .
C116 C 0.3794(14) 0.4349(19) 0.0582(16) 0.18(4) Uiso 1 1 d DG U . . .
C117 C 0.3769(15) 0.403(2) 0.068(2) 0.19(4) Uiso 1 1 d DG U . . .
H117 H 0.3556 0.3922 0.0692 0.224 Uiso 1 1 calc R U . . .
C118 C 0.4055(17) 0.387(2) 0.077(2) 0.19(5) Uiso 1 1 d DG U . . .
H118 H 0.4038 0.3654 0.0838 0.229 Uiso 1 1 calc R U . . .
C119 C 0.4366(14) 0.403(2) 0.0755(15) 0.19(4) Uiso 1 1 d DG U . . .
C120 C 0.4391(14) 0.435(2) 0.065(2) 0.18(5) Uiso 1 1 d DG U . . .
H120 H 0.4603 0.4457 0.0645 0.216 Uiso 1 1 calc R U . . .
C121 C 0.4105(16) 0.451(2) 0.057(2) 0.18(4) Uiso 1 1 d DG U . . .
H121 H 0.4122 0.4726 0.0499 0.214 Uiso 1 1 calc R U . . .
C122 C 0.4975(15) 0.357(2) 0.1152(12) 0.19(4) Uiso 1 1 d DG U . . .
N101 N 0.5277(13) 0.365(2) 0.1040(13) 0.19(4) Uiso 1 1 d DG U . . .
C123 C 0.5277(13) 0.383(2) 0.0831(13) 0.18(4) Uiso 1 1 d DG U . . .
N102 N 0.4975(16) 0.395(2) 0.0735(12) 0.18(4) Uiso 1 1 d DG U . . .
C124 C 0.4673(13) 0.387(2) 0.0847(13) 0.18(4) Uiso 1 1 d DG U . . .
N103 N 0.4673(13) 0.368(2) 0.1056(13) 0.18(4) Uiso 1 1 d DG U . . .
O201 O 0.4402(15) 0.3153(10) 0.2466(11) 0.167(10) Uiso 1 1 d D U . . .
O202 O 0.4683(9) 0.343(2) 0.2750(9) 0.167(10) Uiso 1 1 d D U . . .
O203 O 0.4576(9) 0.6562(19) 0.2760(9) 0.167(10) Uiso 1 1 d D U . . .
O204 O 0.4290(15) 0.6842(10) 0.2476(11) 0.167(10) Uiso 1 1 d D U . . .
O205 O 0.2885(8) 0.5335(19) 0.0964(10) 0.167(10) Uiso 1 1 d D U . . .
O206 O 0.2888(8) 0.4765(19) 0.0963(10) 0.167(10) Uiso 1 1 d D U . . .
C201 C 0.4508(10) 0.3404(11) 0.2572(8) 0.16(3) Uiso 1 1 d D U . . .
C202 C 0.4404(18) 0.3736(11) 0.2466(11) 0.15(4) Uiso 1 1 d DG U . . .
C203 C 0.454(2) 0.4033(13) 0.2555(16) 0.15(4) Uiso 1 1 d DG U . . .
H203 H 0.4698 0.4026 0.2681 0.182 Uiso 1 1 calc R U . . .
C204 C 0.444(3) 0.4341(11) 0.2460(17) 0.15(4) Uiso 1 1 d DG U . . .
H204 H 0.4533 0.4544 0.2521 0.183 Uiso 1 1 calc R U . . .
C205 C 0.421(2) 0.4352(11) 0.2276(13) 0.15(4) Uiso 1 1 d DG U . . .
C206 C 0.407(3) 0.4054(14) 0.2187(16) 0.15(4) Uiso 1 1 d DG U . . .
H206 H 0.3913 0.4062 0.2061 0.179 Uiso 1 1 calc R U . . .
C207 C 0.417(2) 0.3747(12) 0.2282(16) 0.15(4) Uiso 1 1 d DG U . . .
H207 H 0.4078 0.3544 0.2221 0.179 Uiso 1 1 calc R U . . .
C208 C 0.4403(10) 0.6594(11) 0.2578(9) 0.16(3) Uiso 1 1 d D U . . .
C209 C 0.4324(18) 0.6257(11) 0.2470(12) 0.16(4) Uiso 1 1 d DG U . . .
C210 C 0.422(3) 0.6228(12) 0.2235(12) 0.15(4) Uiso 1 1 d DG U . . .
H210 H 0.4193 0.6424 0.2140 0.183 Uiso 1 1 calc R U . . .
C211 C 0.415(3) 0.5913(14) 0.2141(12) 0.15(4) Uiso 1 1 d DG U . . .
H211 H 0.4073 0.5893 0.1981 0.186 Uiso 1 1 calc R U . . .
C212 C 0.418(2) 0.5627(11) 0.2281(13) 0.16(4) Uiso 1 1 d DG U . . .
C213 C 0.429(3) 0.5655(12) 0.2515(14) 0.15(4) Uiso 1 1 d DG U . . .
H213 H 0.4313 0.5460 0.2610 0.184 Uiso 1 1 calc R U . . .
C214 C 0.436(3) 0.5971(13) 0.2610(12) 0.15(4) Uiso 1 1 d DG U . . .
H214 H 0.4433 0.5990 0.2770 0.181 Uiso 1 1 calc R U . . .
C215 C 0.2957(10) 0.5051(14) 0.1032(6) 0.17(3) Uiso 1 1 d D U . . .
C216 C 0.3177(18) 0.5039(15) 0.1248(10) 0.17(4) Uiso 1 1 d DG U . . .
C217 C 0.318(3) 0.4746(17) 0.1383(14) 0.17(4) Uiso 1 1 d DG U . . .
H217 H 0.3050 0.4558 0.1338 0.201 Uiso 1 1 calc R U . . .
C218 C 0.339(3) 0.4727(17) 0.1585(15) 0.16(4) Uiso 1 1 d DG U . . .
H218 H 0.3389 0.4527 0.1677 0.194 Uiso 1 1 calc R U . . .
C219 C 0.358(2) 0.5002(18) 0.1651(11) 0.16(4) Uiso 1 1 d DG U . . .
C220 C 0.357(3) 0.5295(18) 0.1516(15) 0.16(4) Uiso 1 1 d DG U . . .
H220 H 0.3708 0.5482 0.1561 0.191 Uiso 1 1 calc R U . . .
C221 C 0.337(3) 0.5313(16) 0.1315(14) 0.17(4) Uiso 1 1 d DG U . . .
H221 H 0.3369 0.5513 0.1222 0.198 Uiso 1 1 calc R U . . .
C222 C 0.410(2) 0.4684(10) 0.2173(12) 0.15(4) Uiso 1 1 d DG U . . .
N201 N 0.419(2) 0.4986(13) 0.2276(11) 0.15(4) Uiso 1 1 d DG U . . .
C223 C 0.409(2) 0.5289(10) 0.2177(12) 0.16(4) Uiso 1 1 d DG U . . .
N202 N 0.389(2) 0.5290(11) 0.1975(12) 0.15(4) Uiso 1 1 d DG U . . .
C224 C 0.379(2) 0.4987(13) 0.1872(11) 0.15(4) Uiso 1 1 d DG U . . .
N203 N 0.390(2) 0.4684(11) 0.1971(12) 0.15(4) Uiso 1 1 d DG U . . .
O1AG O 0.4708(9) 0.316(2) 0.3222(7) 0.167(10) Uiso 1 1 d D U . . .
O2AG O 0.4413(15) 0.2689(13) 0.3321(9) 0.167(10) Uiso 1 1 d D U . . .
O1BH O 0.0567(15) 0.2794(13) 0.7246(10) 0.167(10) Uiso 1 1 d D U . . .
O2BH O 0.0282(9) 0.327(2) 0.7340(7) 0.167(10) Uiso 1 1 d D U . . .
O1CI O 0.2359(8) 0.8975(15) 0.5476(12) 0.167(10) Uiso 1 1 d D U . . .
O2CI O 0.2547(8) 0.8975(15) 0.5097(12) 0.167(10) Uiso 1 1 d D U . . .
O1DJ O 0.2544(8) 0.0912(15) 0.5087(12) 0.167(10) Uiso 1 1 d D U . . .
O2DJ O 0.2354(8) 0.0917(15) 0.5468(12) 0.167(10) Uiso 1 1 d D U . . .
O1EK O 0.0401(9) 0.673(2) 0.7342(7) 0.167(10) Uiso 1 1 d D U . . .
O2EK O 0.0686(15) 0.7205(13) 0.7251(10) 0.167(10) Uiso 1 1 d D U . . .
O1FL O 0.4321(15) 0.7299(13) 0.3319(10) 0.167(10) Uiso 1 1 d D U . . .
O2FL O 0.4607(9) 0.682(2) 0.3225(7) 0.167(10) Uiso 1 1 d D U . . .
C1A C 0.4490(13) 0.2995(13) 0.3313(7) 0.17(2) Uiso 0.5 1 d D U P A 1
C2A C 0.423(2) 0.3193(17) 0.3454(17) 0.18(3) Uiso 0.5 1 d DG U P A 1
C3A C 0.391(3) 0.307(4) 0.348(4) 0.18(3) Uiso 0.5 1 d DG U P A 1
H3A H 0.3852 0.2858 0.3408 0.213 Uiso 0.5 1 calc R U P A 1
C4A C 0.367(3) 0.325(5) 0.361(4) 0.18(4) Uiso 0.5 1 d DG U P A 1
H4A H 0.3450 0.3159 0.3625 0.219 Uiso 0.5 1 calc R U P A 1
C5A C 0.376(3) 0.355(4) 0.371(3) 0.19(4) Uiso 0.5 1 d DG U P A 1
C6A C 0.408(4) 0.368(4) 0.369(4) 0.19(4) Uiso 0.5 1 d DG U P A 1
H6A H 0.4139 0.3887 0.3758 0.222 Uiso 0.5 1 calc R U P A 1
C7A C 0.432(3) 0.350(3) 0.356(4) 0.18(3) Uiso 0.5 1 d DG U P A 1
H7A H 0.4541 0.3585 0.3541 0.216 Uiso 0.5 1 calc R U P A 1
C8A C 0.350(3) 0.373(3) 0.387(2) 0.20(4) Uiso 0.5 1 d DG U P A 1
C9A C 0.332(5) 0.354(3) 0.404(3) 0.20(5) Uiso 0.5 1 d DG U P A 1
H9A H 0.3356 0.3305 0.4047 0.242 Uiso 0.5 1 calc R U P A 1
C10A C 0.310(5) 0.370(3) 0.419(3) 0.20(5) Uiso 0.5 1 d DG U P A 1
H10A H 0.2972 0.3574 0.4299 0.245 Uiso 0.5 1 calc R U P A 1
C11A C 0.305(3) 0.405(3) 0.417(2) 0.21(5) Uiso 0.5 1 d DG U P A 1
C12A C 0.323(4) 0.423(3) 0.400(3) 0.20(5) Uiso 0.5 1 d DG U P A 1
H12A H 0.3195 0.4469 0.3991 0.246 Uiso 0.5 1 calc R U P A 1
C13A C 0.346(4) 0.407(4) 0.385(3) 0.20(4) Uiso 0.5 1 d DG U P A 1
H13A H 0.3579 0.4200 0.3740 0.240 Uiso 0.5 1 calc R U P A 1
C14A C 0.281(3) 0.422(3) 0.4341(19) 0.21(5) Uiso 0.5 1 d DG U P A 1
C15A C 0.257(4) 0.445(4) 0.4257(16) 0.21(5) Uiso 0.5 1 d DG U P A 1
H15A H 0.2553 0.4493 0.4091 0.251 Uiso 0.5 1 calc R U P A 1
C16A C 0.237(4) 0.462(4) 0.4416(15) 0.21(5) Uiso 0.5 1 d DG U P A 1
H16A H 0.2205 0.4779 0.4359 0.256 Uiso 0.5 1 calc R U P A 1
C17A C 0.240(3) 0.456(2) 0.4659(15) 0.21(4) Uiso 0.5 1 d DG U P A 1
C18A C 0.263(3) 0.434(4) 0.4743(16) 0.21(4) Uiso 0.5 1 d DG U P A 1
H18A H 0.2655 0.4297 0.4908 0.249 Uiso 0.5 1 calc R U P A 1
C19A C 0.284(4) 0.417(4) 0.458(2) 0.21(4) Uiso 0.5 1 d DG U P A 1
H19A H 0.3003 0.4010 0.4641 0.248 Uiso 0.5 1 calc R U P A 1
C1B C 0.0466(11) 0.3082(13) 0.7229(8) 0.17(2) Uiso 0.5 1 d D U P A 1
C2B C 0.061(2) 0.3257(18) 0.7015(13) 0.18(3) Uiso 0.5 1 d DG U P A 1
C3B C 0.088(4) 0.347(5) 0.7039(19) 0.18(3) Uiso 0.5 1 d DG U P A 1
H3B H 0.0987 0.3493 0.7190 0.218 Uiso 0.5 1 calc R U P A 1
C4B C 0.101(5) 0.363(5) 0.684(2) 0.19(3) Uiso 0.5 1 d DG U P A 1
H4B H 0.1202 0.3776 0.6858 0.222 Uiso 0.5 1 calc R U P A 1
C5B C 0.086(4) 0.359(3) 0.6621(19) 0.19(3) Uiso 0.5 1 d DG U P A 1
C6B C 0.058(5) 0.339(5) 0.6597(16) 0.19(4) Uiso 0.5 1 d DG U P A 1
H6B H 0.0478 0.3358 0.6446 0.224 Uiso 0.5 1 calc R U P A 1
C7B C 0.045(4) 0.322(5) 0.6794(15) 0.18(3) Uiso 0.5 1 d DG U P A 1
H7B H 0.0263 0.3074 0.6777 0.218 Uiso 0.5 1 calc R U P A 1
C8B C 0.100(4) 0.377(3) 0.641(2) 0.19(4) Uiso 0.5 1 d DG U P A 1
C9B C 0.079(4) 0.385(6) 0.622(3) 0.19(5) Uiso 0.5 1 d DG U P A 1
H9B H 0.0563 0.3798 0.6222 0.230 Uiso 0.5 1 calc R U P A 1
C10B C 0.093(4) 0.402(6) 0.602(3) 0.19(5) Uiso 0.5 1 d DG U P A 1
H10B H 0.0786 0.4073 0.5890 0.234 Uiso 0.5 1 calc R U P A 1
C11B C 0.127(4) 0.410(3) 0.601(2) 0.20(4) Uiso 0.5 1 d DG U P A 1
C12B C 0.147(4) 0.402(6) 0.620(3) 0.20(4) Uiso 0.5 1 d DG U P A 1
H12B H 0.1707 0.4076 0.6200 0.235 Uiso 0.5 1 calc R U P A 1
C13B C 0.134(4) 0.386(6) 0.640(3) 0.19(4) Uiso 0.5 1 d DG U P A 1
H13B H 0.1483 0.3801 0.6532 0.232 Uiso 0.5 1 calc R U P A 1
C14B C 0.141(4) 0.428(3) 0.5801(19) 0.21(4) Uiso 0.5 1 d DG U P A 1
C15B C 0.135(5) 0.416(3) 0.557(2) 0.21(5) Uiso 0.5 1 d DG U P A 1
H15B H 0.1206 0.3969 0.5550 0.254 Uiso 0.5 1 calc R U P A 1
C16B C 0.149(4) 0.432(3) 0.5378(17) 0.21(5) Uiso 0.5 1 d DG U P A 1
H16B H 0.1445 0.4240 0.5222 0.257 Uiso 0.5 1 calc R U P A 1
C17B C 0.170(3) 0.4597(19) 0.5411(14) 0.21(4) Uiso 0.5 1 d DG U P A 1
C18B C 0.176(4) 0.471(3) 0.5639(14) 0.21(4) Uiso 0.5 1 d DG U P A 1
H18B H 0.1905 0.4903 0.5662 0.253 Uiso 0.5 1 calc R U P A 1
C19B C 0.162(4) 0.455(4) 0.5834(14) 0.21(4) Uiso 0.5 1 d DG U P A 1
H19B H 0.1666 0.4632 0.5990 0.252 Uiso 0.5 1 calc R U P A 1
C1C C 0.2431(10) 0.8863(12) 0.5282(9) 0.17(2) Uiso 0.5 1 d D U P A 1
C2C C 0.237(3) 0.8492(14) 0.5255(13) 0.17(3) Uiso 0.5 1 d DG U P A 1
C3C C 0.240(6) 0.835(2) 0.5032(15) 0.17(3) Uiso 0.5 1 d DG U P A 1
H3C H 0.2464 0.8483 0.4900 0.209 Uiso 0.5 1 calc R U P A 1
C4C C 0.235(6) 0.800(2) 0.5002(19) 0.18(4) Uiso 0.5 1 d DG U P A 1
H4C H 0.2379 0.7904 0.4850 0.211 Uiso 0.5 1 calc R U P A 1
C5C C 0.227(4) 0.7805(15) 0.520(2) 0.18(3) Uiso 0.5 1 d DG U P A 1
C6C C 0.223(6) 0.7950(19) 0.542(2) 0.17(3) Uiso 0.5 1 d DG U P A 1
H6C H 0.2167 0.7814 0.5551 0.210 Uiso 0.5 1 calc R U P A 1
C7C C 0.228(6) 0.829(2) 0.5449(16) 0.17(3) Uiso 0.5 1 d DG U P A 1
H7C H 0.2252 0.8392 0.5601 0.207 Uiso 0.5 1 calc R U P A 1
C8C C 0.222(4) 0.7432(15) 0.516(2) 0.18(4) Uiso 0.5 1 d DG U P A 1
C9C C 0.247(5) 0.725(2) 0.505(4) 0.18(5) Uiso 0.5 1 d DG U P A 1
H9C H 0.2662 0.7360 0.4986 0.221 Uiso 0.5 1 calc R U P A 1
C10C C 0.243(5) 0.690(2) 0.501(4) 0.19(5) Uiso 0.5 1 d DG U P A 1
H10C H 0.2599 0.6779 0.4934 0.225 Uiso 0.5 1 calc R U P A 1
C11C C 0.214(4) 0.6742(15) 0.510(2) 0.19(5) Uiso 0.5 1 d DG U P A 1
C12C C 0.190(5) 0.693(2) 0.522(4) 0.19(5) Uiso 0.5 1 d DG U P A 1
H12C H 0.1702 0.6815 0.5277 0.224 Uiso 0.5 1 calc R U P A 1
C13C C 0.193(5) 0.727(2) 0.525(4) 0.18(5) Uiso 0.5 1 d DG U P A 1
H13C H 0.1765 0.7395 0.5328 0.220 Uiso 0.5 1 calc R U P A 1
C14C C 0.211(4) 0.6369(14) 0.507(2) 0.20(5) Uiso 0.5 1 d DG U P A 1
C15C C 0.240(3) 0.618(2) 0.504(4) 0.20(4) Uiso 0.5 1 d DG U P A 1
H15C H 0.2614 0.6281 0.5027 0.246 Uiso 0.5 1 calc R U P A 1
C16C C 0.237(3) 0.5828(19) 0.501(3) 0.21(4) Uiso 0.5 1 d DG U P A 1
H16C H 0.2570 0.5696 0.4990 0.250 Uiso 0.5 1 calc R U P A 1
C17C C 0.206(3) 0.5674(13) 0.5027(18) 0.21(4) Uiso 0.5 1 d DG U P A 1
C18C C 0.177(3) 0.5867(16) 0.506(3) 0.20(5) Uiso 0.5 1 d DG U P A 1
H18C H 0.1559 0.5761 0.5071 0.245 Uiso 0.5 1 calc R U P A 1
C19C C 0.180(3) 0.6214(16) 0.508(3) 0.20(5) Uiso 0.5 1 d DG U P A 1
H19C H 0.1603 0.6346 0.5108 0.244 Uiso 0.5 1 calc R U P A 1
C1D C 0.2459(10) 0.1018(12) 0.5279(9) 0.17(2) Uiso 0.5 1 d D U P B 1
C2D C 0.250(3) 0.1391(14) 0.5284(13) 0.18(3) Uiso 0.5 1 d DG U P B 1
C3D C 0.259(6) 0.1552(19) 0.5494(17) 0.19(3) Uiso 0.5 1 d DG U P B 1
H3D H 0.2626 0.1424 0.5634 0.222 Uiso 0.5 1 calc R U P B 1
C4D C 0.262(6) 0.1900(19) 0.550(2) 0.19(4) Uiso 0.5 1 d DG U P B 1
H4D H 0.2686 0.2010 0.5642 0.225 Uiso 0.5 1 calc R U P B 1
C5D C 0.257(4) 0.2087(14) 0.529(2) 0.19(3) Uiso 0.5 1 d DG U P B 1
C6D C 0.247(6) 0.1926(18) 0.508(2) 0.19(3) Uiso 0.5 1 d DG U P B 1
H6D H 0.2435 0.2053 0.4944 0.226 Uiso 0.5 1 calc R U P B 1
C7D C 0.244(6) 0.1578(18) 0.5079(17) 0.18(3) Uiso 0.5 1 d DG U P B 1
H7D H 0.2376 0.1468 0.4936 0.221 Uiso 0.5 1 calc R U P B 1
C8D C 0.260(4) 0.2458(14) 0.530(3) 0.20(4) Uiso 0.5 1 d DG U P B 1
C9D C 0.244(5) 0.2640(19) 0.548(3) 0.20(4) Uiso 0.5 1 d DG U P B 1
H9D H 0.2298 0.2526 0.5589 0.244 Uiso 0.5 1 calc R U P B 1
C10D C 0.247(5) 0.2988(19) 0.549(3) 0.21(4) Uiso 0.5 1 d DG U P B 1
H10D H 0.2358 0.3112 0.5608 0.247 Uiso 0.5 1 calc R U P B 1
C11D C 0.267(4) 0.3154(14) 0.532(3) 0.21(4) Uiso 0.5 1 d DG U P B 1
C12D C 0.284(5) 0.2972(18) 0.515(3) 0.21(4) Uiso 0.5 1 d DG U P B 1
H12D H 0.2976 0.3086 0.5035 0.248 Uiso 0.5 1 calc R U P B 1
C13D C 0.280(5) 0.2625(18) 0.514(3) 0.20(4) Uiso 0.5 1 d DG U P B 1
H13D H 0.2916 0.2500 0.5016 0.246 Uiso 0.5 1 calc R U P B 1
C14D C 0.271(3) 0.3528(14) 0.534(3) 0.21(4) Uiso 0.5 1 d DG U P B 1
C15D C 0.243(3) 0.3733(19) 0.535(4) 0.21(4) Uiso 0.5 1 d DG U P B 1
H15D H 0.2211 0.3636 0.5348 0.258 Uiso 0.5 1 calc R U P B 1
C16D C 0.247(3) 0.4080(17) 0.537(4) 0.21(4) Uiso 0.5 1 d DG U P B 1
H16D H 0.2273 0.4220 0.5382 0.258 Uiso 0.5 1 calc R U P B 1
C17D C 0.279(3) 0.4221(14) 0.5378(18) 0.21(4) Uiso 0.5 1 d DG U P B 1
C18D C 0.307(3) 0.4016(17) 0.536(4) 0.22(5) Uiso 0.5 1 d DG U P B 1
H18D H 0.3287 0.4113 0.5368 0.258 Uiso 0.5 1 calc R U P B 1
C19D C 0.303(3) 0.3670(17) 0.534(4) 0.22(5) Uiso 0.5 1 d DG U P B 1
H19D H 0.3225 0.3530 0.5334 0.259 Uiso 0.5 1 calc R U P B 1
C1E C 0.0601(12) 0.6914(13) 0.7246(8) 0.17(2) Uiso 0.5 1 d D U P A 1
C2E C 0.080(2) 0.6723(17) 0.7069(16) 0.18(3) Uiso 0.5 1 d DG U P A 1
C3E C 0.106(4) 0.688(3) 0.694(3) 0.18(3) Uiso 0.5 1 d DG U P A 1
H3E H 0.1104 0.7114 0.6970 0.214 Uiso 0.5 1 calc R U P A 1
C4E C 0.125(5) 0.670(3) 0.678(3) 0.18(4) Uiso 0.5 1 d DG U P A 1
H4E H 0.1423 0.6812 0.6693 0.218 Uiso 0.5 1 calc R U P A 1
C5E C 0.118(3) 0.636(3) 0.674(2) 0.19(3) Uiso 0.5 1 d DG U P A 1
C6E C 0.093(5) 0.620(3) 0.687(4) 0.19(3) Uiso 0.5 1 d DG U P A 1
H6E H 0.0881 0.5973 0.6839 0.222 Uiso 0.5 1 calc R U P A 1
C7E C 0.074(5) 0.638(2) 0.703(4) 0.18(3) Uiso 0.5 1 d DG U P A 1
H7E H 0.0562 0.6275 0.7116 0.218 Uiso 0.5 1 calc R U P A 1
C8E C 0.139(3) 0.617(3) 0.657(2) 0.20(4) Uiso 0.5 1 d DG U P A 1
C9E C 0.138(5) 0.626(5) 0.633(2) 0.20(4) Uiso 0.5 1 d DG U P A 1
H9E H 0.1239 0.6439 0.6274 0.241 Uiso 0.5 1 calc R U P A 1
C10E C 0.157(5) 0.608(5) 0.616(2) 0.20(4) Uiso 0.5 1 d DG U P A 1
H10E H 0.1561 0.6136 0.5999 0.244 Uiso 0.5 1 calc R U P A 1
C11E C 0.177(3) 0.581(3) 0.624(2) 0.21(4) Uiso 0.5 1 d DG U P A 1
C12E C 0.178(6) 0.573(5) 0.648(3) 0.20(5) Uiso 0.5 1 d DG U P A 1
H12E H 0.1914 0.5544 0.6530 0.245 Uiso 0.5 1 calc R U P A 1
C13E C 0.159(6) 0.590(5) 0.664(2) 0.20(4) Uiso 0.5 1 d DG U P A 1
H13E H 0.1593 0.5846 0.6805 0.241 Uiso 0.5 1 calc R U P A 1
C14E C 0.198(3) 0.563(3) 0.606(2) 0.21(4) Uiso 0.5 1 d DG U P A 1
C15E C 0.199(5) 0.573(4) 0.583(2) 0.22(4) Uiso 0.5 1 d DG U P A 1
H15E H 0.1859 0.5918 0.5778 0.259 Uiso 0.5 1 calc R U P A 1
C16E C 0.219(5) 0.556(4) 0.567(2) 0.22(4) Uiso 0.5 1 d DG U P A 1
H16E H 0.2203 0.5635 0.5506 0.259 Uiso 0.5 1 calc R U P A 1
C17E C 0.239(3) 0.529(2) 0.5741(16) 0.21(4) Uiso 0.5 1 d DG U P A 1
C18E C 0.237(5) 0.519(4) 0.5977(19) 0.21(5) Uiso 0.5 1 d DG U P A 1
H18E H 0.2506 0.4999 0.6027 0.257 Uiso 0.5 1 calc R U P A 1
C19E C 0.217(5) 0.535(4) 0.614(2) 0.21(5) Uiso 0.5 1 d DG U P A 1
H19E H 0.2162 0.5282 0.6299 0.253 Uiso 0.5 1 calc R U P A 1
C1F C 0.4415(11) 0.7014(13) 0.3329(8) 0.18(2) Uiso 0.5 1 d D U P A 1
C2F C 0.425(2) 0.6828(17) 0.3527(13) 0.18(3) Uiso 0.5 1 d DG U P A 1
C3F C 0.404(4) 0.656(3) 0.3481(16) 0.19(3) Uiso 0.5 1 d DG U P A 1
H3F H 0.3989 0.6499 0.3321 0.227 Uiso 0.5 1 calc R U P A 1
C4F C 0.390(4) 0.638(4) 0.3667(19) 0.19(3) Uiso 0.5 1 d DG U P A 1
H4F H 0.3753 0.6194 0.3635 0.233 Uiso 0.5 1 calc R U P A 1
C5F C 0.397(3) 0.646(3) 0.3901(17) 0.20(3) Uiso 0.5 1 d DG U P A 1
C6F C 0.419(5) 0.673(4) 0.3948(13) 0.19(4) Uiso 0.5 1 d DG U P A 1
H6F H 0.4237 0.6794 0.4107 0.234 Uiso 0.5 1 calc R U P A 1
C7F C 0.433(4) 0.692(3) 0.3761(13) 0.19(3) Uiso 0.5 1 d DG U P A 1
H7F H 0.4472 0.7100 0.3793 0.227 Uiso 0.5 1 calc R U P A 1
C8F C 0.383(4) 0.627(3) 0.4103(19) 0.20(4) Uiso 0.5 1 d DG U P A 1
C9F C 0.388(5) 0.592(3) 0.411(2) 0.21(5) Uiso 0.5 1 d DG U P A 1
H9F H 0.4003 0.5811 0.3988 0.246 Uiso 0.5 1 calc R U P A 1
C10F C 0.376(5) 0.573(3) 0.430(3) 0.21(5) Uiso 0.5 1 d DG U P A 1
H10F H 0.3792 0.5498 0.4307 0.249 Uiso 0.5 1 calc R U P A 1
C11F C 0.358(4) 0.590(3) 0.448(2) 0.21(4) Uiso 0.5 1 d DG U P A 1
C12F C 0.353(5) 0.624(3) 0.447(3) 0.21(4) Uiso 0.5 1 d DG U P A 1
H12F H 0.3410 0.6350 0.4597 0.248 Uiso 0.5 1 calc R U P A 1
C13F C 0.366(5) 0.643(3) 0.428(3) 0.20(4) Uiso 0.5 1 d DG U P A 1
H13F H 0.3620 0.6663 0.4278 0.245 Uiso 0.5 1 calc R U P A 1
C14F C 0.344(3) 0.570(3) 0.4684(19) 0.21(4) Uiso 0.5 1 d DG U P A 1
C15F C 0.320(5) 0.545(4) 0.4641(16) 0.22(4) Uiso 0.5 1 d DG U P A 1
H15F H 0.3122 0.5415 0.4483 0.262 Uiso 0.5 1 calc R U P A 1
C16F C 0.307(4) 0.527(4) 0.4828(17) 0.22(4) Uiso 0.5 1 d DG U P A 1
H16F H 0.2902 0.5100 0.4798 0.266 Uiso 0.5 1 calc R U P A 1
C17F C 0.318(3) 0.532(2) 0.5058(15) 0.22(4) Uiso 0.5 1 d DG U P A 1
C18F C 0.343(4) 0.556(4) 0.5102(18) 0.22(5) Uiso 0.5 1 d DG U P A 1
H18F H 0.3505 0.5601 0.5259 0.264 Uiso 0.5 1 calc R U P A 1
C19F C 0.356(4) 0.575(4) 0.491(2) 0.22(5) Uiso 0.5 1 d DG U P A 1
H19F H 0.3725 0.5917 0.4944 0.263 Uiso 0.5 1 calc R U P A 1
C1G C 0.4523(11) 0.2976(13) 0.3328(8) 0.17(2) Uiso 0.5 1 d D U P A 2
C2G C 0.438(2) 0.3159(18) 0.3537(14) 0.18(3) Uiso 0.5 1 d DG U P A 2
C3G C 0.409(4) 0.305(4) 0.365(3) 0.18(3) Uiso 0.5 1 d DG U P A 2
H3G H 0.3985 0.2847 0.3598 0.215 Uiso 0.5 1 calc R U P A 2
C4G C 0.396(4) 0.323(4) 0.384(3) 0.18(4) Uiso 0.5 1 d DG U P A 2
H4G H 0.3765 0.3148 0.3920 0.222 Uiso 0.5 1 calc R U P A 2
C5G C 0.412(3) 0.352(3) 0.3919(19) 0.19(4) Uiso 0.5 1 d DG U P A 2
C6G C 0.441(4) 0.363(4) 0.381(3) 0.18(4) Uiso 0.5 1 d DG U P A 2
H6G H 0.4519 0.3830 0.3858 0.219 Uiso 0.5 1 calc R U P A 2
C7G C 0.454(4) 0.345(3) 0.361(3) 0.18(3) Uiso 0.5 1 d DG U P A 2
H7G H 0.4738 0.3528 0.3536 0.214 Uiso 0.5 1 calc R U P A 2
C8G C 0.398(4) 0.371(3) 0.4119(19) 0.20(4) Uiso 0.5 1 d DG U P A 2
C9G C 0.378(6) 0.399(5) 0.4072(19) 0.20(4) Uiso 0.5 1 d DG U P A 2
H9G H 0.3741 0.4061 0.3913 0.238 Uiso 0.5 1 calc R U P A 2
C10G C 0.364(6) 0.418(4) 0.426(2) 0.20(5) Uiso 0.5 1 d DG U P A 2
H10G H 0.3508 0.4369 0.4227 0.241 Uiso 0.5 1 calc R U P A 2
C11G C 0.370(4) 0.408(3) 0.449(2) 0.20(5) Uiso 0.5 1 d DG U P A 2
C12G C 0.390(6) 0.380(5) 0.4539(18) 0.20(5) Uiso 0.5 1 d DG U P A 2
H12G H 0.3940 0.3731 0.4699 0.240 Uiso 0.5 1 calc R U P A 2
C13G C 0.404(6) 0.362(5) 0.435(2) 0.20(5) Uiso 0.5 1 d DG U P A 2
H13G H 0.4174 0.3423 0.4385 0.239 Uiso 0.5 1 calc R U P A 2
C14G C 0.353(3) 0.426(3) 0.4688(19) 0.20(5) Uiso 0.5 1 d DG U P A 2
C15G C 0.371(3) 0.448(5) 0.484(3) 0.21(5) Uiso 0.5 1 d DG U P A 2
H15G H 0.3945 0.4514 0.4812 0.251 Uiso 0.5 1 calc R U P A 2
C16G C 0.355(3) 0.464(4) 0.502(2) 0.21(5) Uiso 0.5 1 d DG U P A 2
H16G H 0.3666 0.4793 0.5120 0.249 Uiso 0.5 1 calc R U P A 2
C17G C 0.320(2) 0.459(2) 0.5055(14) 0.21(4) Uiso 0.5 1 d DG U P A 2
C18G C 0.303(3) 0.437(4) 0.491(2) 0.21(4) Uiso 0.5 1 d DG U P A 2
H18G H 0.2793 0.4339 0.4931 0.248 Uiso 0.5 1 calc R U P A 2
C19G C 0.319(3) 0.421(4) 0.472(2) 0.21(4) Uiso 0.5 1 d DG U P A 2
H19G H 0.3072 0.4059 0.4623 0.247 Uiso 0.5 1 calc R U P A 2
C1H C 0.0479(11) 0.3089(13) 0.7243(7) 0.17(2) Uiso 0.5 1 d D U P A 2
C2H C 0.069(2) 0.3265(17) 0.7063(15) 0.18(3) Uiso 0.5 1 d DG U P A 2
C3H C 0.058(3) 0.355(3) 0.694(3) 0.18(3) Uiso 0.5 1 d DG U P A 2
H3H H 0.0360 0.3641 0.6981 0.218 Uiso 0.5 1 calc R U P A 2
C4H C 0.078(3) 0.370(3) 0.677(3) 0.18(3) Uiso 0.5 1 d DG U P A 2
H4H H 0.0699 0.3899 0.6694 0.221 Uiso 0.5 1 calc R U P A 2
C5H C 0.109(3) 0.357(3) 0.672(2) 0.19(3) Uiso 0.5 1 d DG U P A 2
C6H C 0.121(3) 0.328(4) 0.684(3) 0.18(3) Uiso 0.5 1 d DG U P A 2
H6H H 0.1420 0.3194 0.6803 0.219 Uiso 0.5 1 calc R U P A 2
C7H C 0.100(3) 0.313(3) 0.701(3) 0.18(3) Uiso 0.5 1 d DG U P A 2
H7H H 0.1081 0.2937 0.7091 0.216 Uiso 0.5 1 calc R U P A 2
C8H C 0.131(3) 0.373(3) 0.654(2) 0.19(4) Uiso 0.5 1 d DG U P A 2
C9H C 0.140(4) 0.407(3) 0.657(2) 0.19(4) Uiso 0.5 1 d DG U P A 2
H9H H 0.1320 0.4194 0.6703 0.232 Uiso 0.5 1 calc R U P A 2
C10H C 0.161(5) 0.422(3) 0.641(2) 0.20(4) Uiso 0.5 1 d DG U P A 2
H10H H 0.1673 0.4454 0.6426 0.235 Uiso 0.5 1 calc R U P A 2
C11H C 0.173(3) 0.404(3) 0.621(2) 0.20(4) Uiso 0.5 1 d DG U P A 2
C12H C 0.164(4) 0.371(3) 0.618(2) 0.19(4) Uiso 0.5 1 d DG U P A 2
H12H H 0.1724 0.3585 0.6051 0.234 Uiso 0.5 1 calc R U P A 2
C13H C 0.143(4) 0.355(3) 0.635(3) 0.19(4) Uiso 0.5 1 d DG U P A 2
H13H H 0.1371 0.3325 0.6328 0.232 Uiso 0.5 1 calc R U P A 2
C14H C 0.196(3) 0.422(3) 0.604(2) 0.20(4) Uiso 0.5 1 d DG U P A 2
C15H C 0.183(2) 0.449(3) 0.591(2) 0.21(4) Uiso 0.5 1 d DG U P A 2
H15H H 0.1605 0.4559 0.5931 0.251 Uiso 0.5 1 calc R U P A 2
C16H C 0.204(2) 0.466(3) 0.576(2) 0.21(4) Uiso 0.5 1 d DG U P A 2
H16H H 0.1958 0.4852 0.5671 0.253 Uiso 0.5 1 calc R U P A 2
C17H C 0.238(2) 0.457(2) 0.5730(16) 0.21(4) Uiso 0.5 1 d DG U P A 2
C18H C 0.250(3) 0.429(2) 0.586(2) 0.21(5) Uiso 0.5 1 d DG U P A 2
H18H H 0.2726 0.4224 0.5838 0.250 Uiso 0.5 1 calc R U P A 2
C19H C 0.229(3) 0.412(3) 0.601(2) 0.21(5) Uiso 0.5 1 d DG U P A 2
H19H H 0.2373 0.3931 0.6098 0.248 Uiso 0.5 1 calc R U P A 2
C1I C 0.2467(10) 0.8868(12) 0.5288(9) 0.17(2) Uiso 0.5 1 d D U P A 2
C2I C 0.251(3) 0.8496(14) 0.5306(13) 0.17(3) Uiso 0.5 1 d DG U P A 2
C3I C 0.259(6) 0.8305(19) 0.5106(16) 0.17(3) Uiso 0.5 1 d DG U P A 2
H3I H 0.2617 0.8411 0.4956 0.209 Uiso 0.5 1 calc R U P A 2
C4I C 0.263(6) 0.7959(19) 0.513(2) 0.18(3) Uiso 0.5 1 d DG U P A 2
H4I H 0.2685 0.7828 0.4991 0.211 Uiso 0.5 1 calc R U P A 2
C5I C 0.259(4) 0.7803(14) 0.535(2) 0.18(3) Uiso 0.5 1 d DG U P A 2
C6I C 0.251(6) 0.799(2) 0.555(2) 0.17(4) Uiso 0.5 1 d DG U P A 2
H6I H 0.2485 0.7888 0.5696 0.208 Uiso 0.5 1 calc R U P A 2
C7I C 0.247(6) 0.8340(19) 0.5525(15) 0.17(3) Uiso 0.5 1 d DG U P A 2
H7I H 0.2417 0.8471 0.5661 0.207 Uiso 0.5 1 calc R U P A 2
C8I C 0.263(4) 0.7432(15) 0.537(3) 0.19(4) Uiso 0.5 1 d DG U P A 2
C9I C 0.294(4) 0.7283(19) 0.530(5) 0.19(5) Uiso 0.5 1 d DG U P A 2
H9I H 0.3115 0.7417 0.5242 0.229 Uiso 0.5 1 calc R U P A 2
C10I C 0.297(4) 0.694(2) 0.532(5) 0.19(5) Uiso 0.5 1 d DG U P A 2
H10I H 0.3179 0.6833 0.5269 0.234 Uiso 0.5 1 calc R U P A 2
C11I C 0.271(4) 0.6738(14) 0.540(3) 0.20(5) Uiso 0.5 1 d DG U P A 2
C12I C 0.241(5) 0.6888(19) 0.547(5) 0.19(5) Uiso 0.5 1 d DG U P A 2
H12I H 0.2230 0.6754 0.5527 0.226 Uiso 0.5 1 calc R U P A 2
C13I C 0.237(4) 0.724(2) 0.545(5) 0.18(4) Uiso 0.5 1 d DG U P A 2
H13I H 0.2166 0.7338 0.5500 0.222 Uiso 0.5 1 calc R U P A 2
C14I C 0.275(4) 0.6366(14) 0.541(3) 0.20(5) Uiso 0.5 1 d DG U P A 2
C15I C 0.271(5) 0.6185(19) 0.520(2) 0.20(4) Uiso 0.5 1 d DG U P A 2
H15I H 0.2662 0.6299 0.5052 0.246 Uiso 0.5 1 calc R U P A 2
C16I C 0.274(5) 0.5837(19) 0.5199(18) 0.21(4) Uiso 0.5 1 d DG U P A 2
H16I H 0.2713 0.5713 0.5055 0.250 Uiso 0.5 1 calc R U P A 2
C17I C 0.281(3) 0.5669(13) 0.5410(17) 0.21(4) Uiso 0.5 1 d DG U P A 2
C18I C 0.284(5) 0.5850(16) 0.5620(19) 0.21(5) Uiso 0.5 1 d DG U P A 2
H18I H 0.2889 0.5735 0.5765 0.247 Uiso 0.5 1 calc R U P A 2
C19I C 0.281(5) 0.6198(16) 0.562(2) 0.21(5) Uiso 0.5 1 d DG U P A 2
H19I H 0.2838 0.6322 0.5762 0.248 Uiso 0.5 1 calc R U P A 2
C1J C 0.2430(10) 0.1024(12) 0.5273(9) 0.17(2) Uiso 0.5 1 d D U P A 2
C2J C 0.237(3) 0.1397(14) 0.5251(13) 0.18(3) Uiso 0.5 1 d DG U P A 2
C3J C 0.235(6) 0.1597(19) 0.5453(14) 0.19(3) Uiso 0.5 1 d DG U P A 2
H3J H 0.2359 0.1498 0.5607 0.222 Uiso 0.5 1 calc R U P A 2
C4J C 0.230(7) 0.1943(18) 0.543(2) 0.19(3) Uiso 0.5 1 d DG U P A 2
H4J H 0.2281 0.2079 0.5569 0.227 Uiso 0.5 1 calc R U P A 2
C5J C 0.228(4) 0.2088(15) 0.521(2) 0.19(3) Uiso 0.5 1 d DG U P A 2
C6J C 0.230(6) 0.189(2) 0.5005(19) 0.19(4) Uiso 0.5 1 d DG U P A 2
H6J H 0.2291 0.1987 0.4851 0.225 Uiso 0.5 1 calc R U P A 2
C7J C 0.235(6) 0.154(2) 0.5027(13) 0.18(3) Uiso 0.5 1 d DG U P A 2
H7J H 0.2369 0.1406 0.4889 0.221 Uiso 0.5 1 calc R U P A 2
C8J C 0.223(4) 0.2461(15) 0.518(3) 0.20(4) Uiso 0.5 1 d DG U P A 2
C9J C 0.251(4) 0.267(2) 0.522(5) 0.20(4) Uiso 0.5 1 d DG U P A 2
H9J H 0.2718 0.2584 0.5263 0.246 Uiso 0.5 1 calc R U P A 2
C10J C 0.247(4) 0.302(2) 0.519(4) 0.21(4) Uiso 0.5 1 d DG U P A 2
H10J H 0.2655 0.3165 0.5212 0.249 Uiso 0.5 1 calc R U P A 2
C11J C 0.216(4) 0.3151(15) 0.512(3) 0.21(4) Uiso 0.5 1 d DG U P A 2
C12J C 0.189(4) 0.294(2) 0.508(5) 0.21(5) Uiso 0.5 1 d DG U P A 2
H12J H 0.1676 0.3028 0.5035 0.250 Uiso 0.5 1 calc R U P A 2
C13J C 0.192(4) 0.2593(19) 0.511(5) 0.21(5) Uiso 0.5 1 d DG U P A 2
H13J H 0.1739 0.2447 0.5086 0.246 Uiso 0.5 1 calc R U P A 2
C14J C 0.212(4) 0.3525(14) 0.509(2) 0.21(4) Uiso 0.5 1 d DG U P A 2
C15J C 0.223(5) 0.374(2) 0.527(3) 0.22(4) Uiso 0.5 1 d DG U P A 2
H15J H 0.2328 0.3646 0.5410 0.258 Uiso 0.5 1 calc R U P A 2
C16J C 0.220(4) 0.4084(18) 0.525(2) 0.22(4) Uiso 0.5 1 d DG U P A 2
H16J H 0.2271 0.4229 0.5369 0.259 Uiso 0.5 1 calc R U P A 2
C17J C 0.205(3) 0.4218(14) 0.5041(17) 0.22(4) Uiso 0.5 1 d DG U P A 2
C18J C 0.194(5) 0.4006(17) 0.486(2) 0.22(5) Uiso 0.5 1 d DG U P A 2
H18J H 0.1847 0.4098 0.4721 0.260 Uiso 0.5 1 calc R U P A 2
C19J C 0.198(6) 0.3660(16) 0.488(2) 0.22(5) Uiso 0.5 1 d DG U P A 2
H19J H 0.1903 0.3515 0.4761 0.261 Uiso 0.5 1 calc R U P A 2
C1K C 0.0586(11) 0.6918(13) 0.7226(9) 0.17(2) Uiso 0.5 1 d D U P A 2
C2K C 0.071(2) 0.6740(17) 0.7004(14) 0.18(3) Uiso 0.5 1 d DG U P A 2
C3K C 0.072(6) 0.690(3) 0.6785(15) 0.18(3) Uiso 0.5 1 d DG U P A 2
H3K H 0.0642 0.7128 0.6772 0.217 Uiso 0.5 1 calc R U P A 2
C4K C 0.083(6) 0.673(4) 0.6584(16) 0.19(4) Uiso 0.5 1 d DG U P A 2
H4K H 0.0827 0.6841 0.6434 0.224 Uiso 0.5 1 calc R U P A 2
C5K C 0.093(4) 0.640(3) 0.6602(19) 0.19(3) Uiso 0.5 1 d DG U P A 2
C6K C 0.093(6) 0.624(3) 0.682(2) 0.19(3) Uiso 0.5 1 d DG U P A 2
H6K H 0.1002 0.6011 0.6833 0.222 Uiso 0.5 1 calc R U P A 2
C7K C 0.082(6) 0.641(3) 0.7022(19) 0.18(3) Uiso 0.5 1 d DG U P A 2
H7K H 0.0817 0.6298 0.7172 0.218 Uiso 0.5 1 calc R U P A 2
C8K C 0.106(4) 0.621(3) 0.639(2) 0.20(4) Uiso 0.5 1 d DG U P A 2
C9K C 0.139(4) 0.610(6) 0.638(3) 0.20(4) Uiso 0.5 1 d DG U P A 2
H9K H 0.1536 0.6143 0.6513 0.242 Uiso 0.5 1 calc R U P A 2
C10K C 0.151(4) 0.593(6) 0.618(3) 0.20(4) Uiso 0.5 1 d DG U P A 2
H10K H 0.1741 0.5853 0.6181 0.244 Uiso 0.5 1 calc R U P A 2
C11K C 0.130(4) 0.587(3) 0.5991(19) 0.21(4) Uiso 0.5 1 d DG U P A 2
C12K C 0.097(4) 0.598(6) 0.600(3) 0.20(5) Uiso 0.5 1 d DG U P A 2
H12K H 0.0830 0.5936 0.5863 0.240 Uiso 0.5 1 calc R U P A 2
C13K C 0.085(4) 0.615(6) 0.619(3) 0.20(5) Uiso 0.5 1 d DG U P A 2
H13K H 0.0624 0.6225 0.6195 0.240 Uiso 0.5 1 calc R U P A 2
C14K C 0.144(4) 0.568(3) 0.5779(19) 0.21(4) Uiso 0.5 1 d DG U P A 2
C15K C 0.178(4) 0.572(4) 0.572(2) 0.22(4) Uiso 0.5 1 d DG U P A 2
H15K H 0.1918 0.5873 0.5806 0.259 Uiso 0.5 1 calc R U P A 2
C16K C 0.192(3) 0.554(4) 0.553(2) 0.22(4) Uiso 0.5 1 d DG U P A 2
H16K H 0.2146 0.5573 0.5487 0.260 Uiso 0.5 1 calc R U P A 2
C17K C 0.172(3) 0.532(2) 0.5399(14) 0.22(4) Uiso 0.5 1 d DG U P A 2
C18K C 0.138(3) 0.528(4) 0.546(3) 0.22(5) Uiso 0.5 1 d DG U P A 2
H18K H 0.1242 0.5129 0.5372 0.264 Uiso 0.5 1 calc R U P A 2
C19K C 0.124(3) 0.546(5) 0.565(3) 0.22(5) Uiso 0.5 1 d DG U P A 2
H19K H 0.1014 0.5429 0.5692 0.263 Uiso 0.5 1 calc R U P A 2
C1L C 0.4399(12) 0.7005(13) 0.3322(8) 0.18(2) Uiso 0.5 1 d D U P A 2
C2L C 0.418(2) 0.6806(17) 0.3488(16) 0.18(3) Uiso 0.5 1 d DG U P A 2
C3L C 0.426(4) 0.647(2) 0.354(4) 0.19(3) Uiso 0.5 1 d DG U P A 2
H3L H 0.4455 0.6372 0.3471 0.228 Uiso 0.5 1 calc R U P A 2
C4L C 0.405(4) 0.628(3) 0.369(4) 0.19(3) Uiso 0.5 1 d DG U P A 2
H4L H 0.4105 0.6056 0.3720 0.233 Uiso 0.5 1 calc R U P A 2
C5L C 0.377(3) 0.643(3) 0.378(2) 0.20(3) Uiso 0.5 1 d DG U P A 2
C6L C 0.369(4) 0.676(3) 0.373(4) 0.20(4) Uiso 0.5 1 d DG U P A 2
H6L H 0.3492 0.6863 0.3801 0.234 Uiso 0.5 1 calc R U P A 2
C7L C 0.389(4) 0.695(3) 0.359(4) 0.19(3) Uiso 0.5 1 d DG U P A 2
H7L H 0.3841 0.7179 0.3552 0.226 Uiso 0.5 1 calc R U P A 2
C8L C 0.354(3) 0.623(3) 0.394(2) 0.20(4) Uiso 0.5 1 d DG U P A 2
C9L C 0.342(6) 0.591(4) 0.386(3) 0.20(5) Uiso 0.5 1 d DG U P A 2
H9L H 0.3489 0.5829 0.3712 0.245 Uiso 0.5 1 calc R U P A 2
C10L C 0.320(6) 0.573(4) 0.400(3) 0.21(5) Uiso 0.5 1 d DG U P A 2
H10L H 0.3125 0.5514 0.3952 0.248 Uiso 0.5 1 calc R U P A 2
C11L C 0.310(3) 0.585(3) 0.422(2) 0.21(4) Uiso 0.5 1 d DG U P A 2
C12L C 0.322(6) 0.616(4) 0.430(3) 0.21(4) Uiso 0.5 1 d DG U P A 2
H12L H 0.3151 0.6247 0.4452 0.247 Uiso 0.5 1 calc R U P A 2
C13L C 0.344(6) 0.635(4) 0.416(3) 0.20(4) Uiso 0.5 1 d DG U P A 2
H13L H 0.3514 0.6562 0.4212 0.244 Uiso 0.5 1 calc R U P A 2
C14L C 0.287(3) 0.565(3) 0.438(2) 0.21(4) Uiso 0.5 1 d DG U P A 2
C15L C 0.254(4) 0.577(4) 0.442(4) 0.22(5) Uiso 0.5 1 d DG U P A 2
H15L H 0.2472 0.5978 0.4348 0.261 Uiso 0.5 1 calc R U P A 2
C16L C 0.233(3) 0.560(3) 0.457(4) 0.22(5) Uiso 0.5 1 d DG U P A 2
H16L H 0.2105 0.5678 0.4595 0.259 Uiso 0.5 1 calc R U P A 2
C17L C 0.243(2) 0.5297(19) 0.4671(16) 0.22(4) Uiso 0.5 1 d DG U P A 2
C18L C 0.275(3) 0.518(4) 0.463(3) 0.22(4) Uiso 0.5 1 d DG U P A 2
H18L H 0.2826 0.4973 0.4702 0.264 Uiso 0.5 1 calc R U P A 2
C19L C 0.297(3) 0.536(4) 0.448(4) 0.22(4) Uiso 0.5 1 d DG U P A 2
H19L H 0.3193 0.5273 0.4455 0.262 Uiso 0.5 1 calc R U P A 2
C20A C 0.219(2) 0.4762(14) 0.4838(13) 0.22(4) Uiso 1 1 d DG U . . .
H20A H 0.2295 0.4639 0.4715 0.258 Uiso 0.5 1 calc R U P A 2
C20J C 0.201(2) 0.4594(12) 0.5017(14) 0.22(4) Uiso 1 1 d DG U . A .
H20J H 0.2006 0.4355 0.5017 0.258 Uiso 0.5 1 calc R U P C 1
C20B C 0.186(2) 0.4775(14) 0.5196(13) 0.22(4) Uiso 1 1 d DG U . A .
H20B H 0.1738 0.4660 0.5319 0.258 Uiso 0.5 1 calc R U P D 2
C20K C 0.187(3) 0.5125(14) 0.5195(13) 0.22(4) Uiso 1 1 d DG U . A .
H20K H 0.1759 0.5249 0.5318 0.259 Uiso 0.5 1 calc R U P E 1
C20C C 0.204(3) 0.5293(12) 0.5016(14) 0.21(4) Uiso 1 1 d DG U . A .
H20C H 0.2048 0.5532 0.5016 0.253 Uiso 0.5 1 calc R U P F 2
C20L C 0.220(2) 0.5112(14) 0.4837(13) 0.21(4) Uiso 1 1 d DG U . A .
H20L H 0.2316 0.5227 0.4714 0.255 Uiso 0.5 1 calc R U P G 1
C20D C 0.282(2) 0.4593(12) 0.5406(14) 0.21(4) Uiso 1 1 d DG U . . .
H20D H 0.2820 0.4354 0.5403 0.254 Uiso 0.5 1 calc R U P B 2
C20H C 0.261(2) 0.4764(14) 0.5562(15) 0.21(4) Uiso 1 1 d DG U . A .
H20H H 0.2466 0.4641 0.5667 0.253 Uiso 0.5 1 calc R U P H 1
C20E C 0.261(2) 0.5114(14) 0.5566(15) 0.21(4) Uiso 1 1 d DG U . A .
H20E H 0.2464 0.5230 0.5673 0.252 Uiso 0.5 1 calc R U P I 2
C20I C 0.282(2) 0.5293(12) 0.5413(15) 0.21(4) Uiso 1 1 d DG U . A .
H20I H 0.2815 0.5532 0.5416 0.254 Uiso 0.5 1 calc R U P J 1
C20F C 0.303(2) 0.5122(13) 0.5257(14) 0.22(4) Uiso 1 1 d DG U . A .
H20F H 0.3169 0.5244 0.5153 0.261 Uiso 0.5 1 calc R U P K 2
C20G C 0.303(2) 0.4772(14) 0.5253(14) 0.21(4) Uiso 1 1 d DG U . A .
H20G H 0.3171 0.4655 0.5146 0.252 Uiso 0.5 1 calc R U P L 1
loop_
_atom_site_aniso_label
_atom_site_aniso_U_11
_atom_site_aniso_U_22
_atom_site_aniso_U_33
_atom_site_aniso_U_23
_atom_site_aniso_U_13
_atom_site_aniso_U_12
Tb1 0.128(17) 0.115(16) 0.14(2) 0.034(14) -0.006(14) -0.003(13)
Tb2 0.128(17) 0.109(16) 0.15(2) 0.029(14) 0.000(14) -0.003(13)
Tb3 0.113(16) 0.101(15) 0.11(2) 0.027(13) 0.003(12) -0.006(13)
Tb4 0.169(19) 0.155(19) 0.19(3) 0.016(16) -0.019(15) -0.024(16)
Tb5 0.175(19) 0.134(17) 0.15(2) 0.028(15) -0.002(15) 0.009(15)
Tb6 0.149(18) 0.140(18) 0.18(2) 0.014(16) 0.000(15) 0.000(15)
loop_
_atom_type_symbol
_atom_type_description
_atom_type_scat_dispersion_real
_atom_type_scat_dispersion_imag
_atom_type_scat_source
C C 0.0181 0.0091 'International Tables Vol C Tables 4.2.6.8 and 6.1.1.4'
H H 0.0000 0.0000 'International Tables Vol C Tables 4.2.6.8 and 6.1.1.4'
N N 0.0311 0.0180 'International Tables Vol C Tables 4.2.6.8 and 6.1.1.4'
O O 0.0492 0.0322 'International Tables Vol C Tables 4.2.6.8 and 6.1.1.4'
Tb Tb -9.1472 9.1891 'International Tables Vol C Tables 4.2.6.8 and 6.1.1.4'
loop_
_geom_angle_atom_site_label_1
_geom_angle_atom_site_label_2
_geom_angle_atom_site_label_3
_geom_angle
_geom_angle_site_symmetry_1
_geom_angle_site_symmetry_3
O1BH Tb1 O1DJ 81.4(13) 7_554 6_544
O1BH Tb1 O101 80.2(13) 7_554 .
O1DJ Tb1 O101 132(3) 6_544 .
O1BH Tb1 O201 132(3) 7_554 .
O1DJ Tb1 O201 80.2(13) 6_544 .
O101 Tb1 O201 80.3(14) . .
O1BH Tb1 O3H 142(2) 7_554 .
O1DJ Tb1 O3H 74(2) 6_544 .
O101 Tb1 O3H 137(2) . .
O201 Tb1 O3H 72(3) . .
O1BH Tb1 O1H 73(2) 7_554 .
O1DJ Tb1 O1H 142(2) 6_544 .
O101 Tb1 O1H 70(3) . .
O201 Tb1 O1H 137(2) . .
O3H Tb1 O1H 111(3) . .
O1BH Tb1 O2H 139.2(15) 7_554 .
O1DJ Tb1 O2H 138.0(16) 6_544 .
O101 Tb1 O2H 77(3) . .
O201 Tb1 O2H 77(3) . .
O3H Tb1 O2H 66(2) . .
O1H Tb1 O2H 67(2) . .
O1BH Tb1 O4H 74(2) 7_554 .
O1DJ Tb1 O4H 73(2) 6_544 .
O101 Tb1 O4H 140.0(13) . .
O201 Tb1 O4H 139.5(13) . .
O3H Tb1 O4H 72(3) . .
O1H Tb1 O4H 73(3) . .
O2H Tb1 O4H 104(3) . .
O1BH Tb1 Tb4 68(2) 7_554 .
O1DJ Tb1 Tb4 106.3(16) 6_544 .
O101 Tb1 Tb4 106.6(15) . .
O201 Tb1 Tb4 160(2) . .
O3H Tb1 Tb4 92(2) . .
O1H Tb1 Tb4 38(2) . .
O2H Tb1 Tb4 87(2) . .
O4H Tb1 Tb4 35.1(9) . .
O1BH Tb1 Tb2 106.1(16) 7_554 .
O1DJ Tb1 Tb2 158(2) 6_544 .
O101 Tb1 Tb2 70(2) . .
O201 Tb1 Tb2 107.6(15) . .
O3H Tb1 Tb2 88.7(16) . .
O1H Tb1 Tb2 33.4(14) . .
O2H Tb1 Tb2 33.8(12) . .
O4H Tb1 Tb2 88.9(15) . .
Tb4 Tb1 Tb2 59.9(4) . .
O1BH Tb1 Tb5 106.5(16) 7_554 .
O1DJ Tb1 Tb5 68(2) 6_544 .
O101 Tb1 Tb5 160(2) . .
O201 Tb1 Tb5 106.9(15) . .
O3H Tb1 Tb5 38(2) . .
O1H Tb1 Tb5 93(2) . .
O2H Tb1 Tb5 86(2) . .
O4H Tb1 Tb5 34.5(9) . .
Tb4 Tb1 Tb5 60.7(4) . .
Tb2 Tb1 Tb5 90.3(5) . .
O1BH Tb1 Tb3 158(2) 7_554 .
O1DJ Tb1 Tb3 105.8(16) 6_544 .
O101 Tb1 Tb3 107.3(15) . .
O201 Tb1 Tb3 70(2) . .
O3H Tb1 Tb3 32.8(13) . .
O1H Tb1 Tb3 89.7(16) . .
O2H Tb1 Tb3 32.9(12) . .
O4H Tb1 Tb3 88.6(15) . .
Tb4 Tb1 Tb3 90.3(5) . .
Tb2 Tb1 Tb3 60.2(3) . .
Tb5 Tb1 Tb3 60.0(4) . .
O2CI Tb2 O2EK 81.8(13) 6_644 5_544
O2CI Tb2 O102 133(3) 6_644 .
O2EK Tb2 O102 80.0(13) 5_544 .
O2CI Tb2 O204 80.4(13) 6_644 3_665
O2EK Tb2 O204 133(3) 5_544 3_665
O102 Tb2 O204 80.5(14) . 3_665
O2CI Tb2 O1H 142(2) 6_644 .
O2EK Tb2 O1H 73(2) 5_544 .
O102 Tb2 O1H 71(3) . .
O204 Tb2 O1H 137(2) 3_665 .
O2CI Tb2 O6H 73(2) 6_644 .
O2EK Tb2 O6H 142(2) 5_544 .
O102 Tb2 O6H 137(2) . .
O204 Tb2 O6H 71(3) 3_665 .
O1H Tb2 O6H 111(3) . .
O2CI Tb2 O2H 137.9(16) 6_644 .
O2EK Tb2 O2H 138.8(15) 5_544 .
O102 Tb2 O2H 77(3) . .
O204 Tb2 O2H 76(3) 3_665 .
O1H Tb2 O2H 67(2) . .
O6H Tb2 O2H 66(2) . .
O2CI Tb2 O5H 73(2) 6_644 .
O2EK Tb2 O5H 74(2) 5_544 .
O102 Tb2 O5H 140.0(13) . .
O204 Tb2 O5H 139.2(13) 3_665 .
O1H Tb2 O5H 73(2) . .
O6H Tb2 O5H 72(3) . .
O2H Tb2 O5H 104(3) . .
O2CI Tb2 Tb4 106.1(16) 6_644 .
O2EK Tb2 Tb4 68(2) 5_544 .
O102 Tb2 Tb4 106.7(15) . .
O204 Tb2 Tb4 160(2) 3_665 .
O1H Tb2 Tb4 38(2) . .
O6H Tb2 Tb4 92(2) . .
O2H Tb2 Tb4 87(2) . .
O5H Tb2 Tb4 35.1(9) . .
O2CI Tb2 Tb1 158(2) 6_644 .
O2EK Tb2 Tb1 105.7(16) 5_544 .
O102 Tb2 Tb1 70(2) . .
O204 Tb2 Tb1 107.3(15) 3_665 .
O1H Tb2 Tb1 33.5(14) . .
O6H Tb2 Tb1 89.3(15) . .
O2H Tb2 Tb1 33.8(11) . .
O5H Tb2 Tb1 89.0(14) . .
Tb4 Tb2 Tb1 59.9(4) . .
O2CI Tb2 Tb6 67(2) 6_644 .
O2EK Tb2 Tb6 106.4(16) 5_544 .
O102 Tb2 Tb6 160(2) . .
O204 Tb2 Tb6 106.5(15) 3_665 .
O1H Tb2 Tb6 93(2) . .
O6H Tb2 Tb6 38(2) . .
O2H Tb2 Tb6 86(2) . .
O5H Tb2 Tb6 34.6(9) . .
Tb4 Tb2 Tb6 60.7(4) . .
Tb1 Tb2 Tb6 90.4(5) . .
O2CI Tb2 Tb3 105.4(16) 6_644 .
O2EK Tb2 Tb3 158(2) 5_544 .
O102 Tb2 Tb3 107.6(15) . .
O204 Tb2 Tb3 69(2) 3_665 .
O1H Tb2 Tb3 90.1(16) . .
O6H Tb2 Tb3 33.0(14) . .
O2H Tb2 Tb3 33.2(12) . .
O5H Tb2 Tb3 88.7(15) . .
Tb4 Tb2 Tb3 90.4(5) . .
Tb1 Tb2 Tb3 60.4(3) . .
Tb6 Tb2 Tb3 59.9(4) . .
O1AG Tb3 O2FL 81.8(13) . 3_665
O1AG Tb3 O203 135(3) . 3_665
O2FL Tb3 O203 80.9(13) 3_665 3_665
O1AG Tb3 O202 82.1(13) . .
O2FL Tb3 O202 135(3) 3_665 .
O203 Tb3 O202 81.5(13) 3_665 .
O1AG Tb3 O6H 141(2) . .
O2FL Tb3 O6H 74(2) 3_665 .
O203 Tb3 O6H 71(3) 3_665 .
O202 Tb3 O6H 136(2) . .
O1AG Tb3 O3H 73(2) . .
O2FL Tb3 O3H 142(2) 3_665 .
O203 Tb3 O3H 137(2) 3_665 .
O202 Tb3 O3H 70(3) . .
O6H Tb3 O3H 109(3) . .
O1AG Tb3 O2H 137.4(17) . .
O2FL Tb3 O2H 138.9(16) 3_665 .
O203 Tb3 O2H 76(3) 3_665 .
O202 Tb3 O2H 75(3) . .
O6H Tb3 O2H 66(2) . .
O3H Tb3 O2H 66(2) . .
O1AG Tb3 O7H 72(2) . .
O2FL Tb3 O7H 74(2) 3_665 .
O203 Tb3 O7H 139.5(13) 3_665 .
O202 Tb3 O7H 138.3(14) . .
O6H Tb3 O7H 72(3) . .
O3H Tb3 O7H 72(3) . .
O2H Tb3 O7H 103(3) . .
O1AG Tb3 Tb6 104.9(16) . .
O2FL Tb3 Tb6 68(2) 3_665 .
O203 Tb3 Tb6 106.3(15) 3_665 .
O202 Tb3 Tb6 157(2) . .
O6H Tb3 Tb6 38(2) . .
O3H Tb3 Tb6 91(2) . .
O2H Tb3 Tb6 86(2) . .
O7H Tb3 Tb6 34.7(9) . .
O1AG Tb3 Tb2 156(2) . .
O2FL Tb3 Tb2 106.3(16) 3_665 .
O203 Tb3 Tb2 69(2) 3_665 .
O202 Tb3 Tb2 105.5(16) . .
O6H Tb3 Tb2 33.0(14) . .
O3H Tb3 Tb2 88.0(16) . .
O2H Tb3 Tb2 33.2(12) . .
O7H Tb3 Tb2 88.4(16) . .
Tb6 Tb3 Tb2 59.9(4) . .
O1AG Tb3 Tb5 66(2) . .
O2FL Tb3 Tb5 106.1(15) 3_665 .
O203 Tb3 Tb5 159(2) 3_665 .
O202 Tb3 Tb5 105.2(16) . .
O6H Tb3 Tb5 92(2) . .
O3H Tb3 Tb5 38(2) . .
O2H Tb3 Tb5 86(2) . .
O7H Tb3 Tb5 34.4(10) . .
Tb6 Tb3 Tb5 60.4(4) . .
Tb2 Tb3 Tb5 89.9(4) . .
O1AG Tb3 Tb1 105.1(16) . .
O2FL Tb3 Tb1 158(2) 3_665 .
O203 Tb3 Tb1 106.6(15) 3_665 .
O202 Tb3 Tb1 67(2) . .
O6H Tb3 Tb1 88.3(16) . .
O3H Tb3 Tb1 32.8(14) . .
O2H Tb3 Tb1 32.9(12) . .
O7H Tb3 Tb1 88.2(16) . .
Tb6 Tb3 Tb1 89.8(4) . .
Tb2 Tb3 Tb1 59.4(3) . .
Tb5 Tb3 Tb1 59.9(4) . .
O1EK Tb4 O2BH 81.3(14) 5_544 7_554
O1EK Tb4 O104 80.9(13) 5_544 2_645
O2BH Tb4 O104 134(3) 7_554 2_645
O1EK Tb4 O105 132(3) 5_544 4
O2BH Tb4 O105 80.5(13) 7_554 4
O104 Tb4 O105 80.1(13) 2_645 4
O1EK Tb4 O4H 143(2) 5_544 .
O2BH Tb4 O4H 74(2) 7_554 .
O104 Tb4 O4H 136(2) 2_645 .
O105 Tb4 O4H 72(3) 4 .
O1EK Tb4 O5H 75(2) 5_544 .
O2BH Tb4 O5H 142(2) 7_554 .
O104 Tb4 O5H 71(3) 2_645 .
O105 Tb4 O5H 137(2) 4 .
O4H Tb4 O5H 109(3) . .
O1EK Tb4 O8H 138.7(16) 5_544 .
O2BH Tb4 O8H 138.2(16) 7_554 .
O104 Tb4 O8H 77(3) 2_645 .
O105 Tb4 O8H 78(3) 4 .
O4H Tb4 O8H 65(2) . .
O5H Tb4 O8H 65(2) . .
O1EK Tb4 O1H 72(2) 5_544 .
O2BH Tb4 O1H 72(2) 7_554 .
O104 Tb4 O1H 139.4(13) 2_645 .
O105 Tb4 O1H 140.4(12) 4 .
O4H Tb4 O1H 74(3) . .
O5H Tb4 O1H 73(2) . .
O8H Tb4 O1H 104(3) . .
O1EK Tb4 C1H 88.0(9) 5_544 7_554
O2BH Tb4 C1H 16(2) 7_554 7_554
O104 Tb4 C1H 150(2) 2_645 7_554
O105 Tb4 C1H 86.9(9) 4 7_554
O4H Tb4 C1H 61.6(16) . 7_554
O5H Tb4 C1H 133(2) . 7_554
O8H Tb4 C1H 126.8(16) . 7_554
O1H Tb4 C1H 59.8(14) . 7_554
O1EK Tb4 Tb2 68(2) 5_544 .
O2BH Tb4 Tb2 105.8(16) 7_554 .
O104 Tb4 Tb2 106.5(15) 2_645 .
O105 Tb4 Tb2 160(2) 4 .
O4H Tb4 Tb2 92(2) . .
O5H Tb4 Tb2 38(2) . .
O8H Tb4 Tb2 86(2) . .
O1H Tb4 Tb2 35.0(9) . .
C1H Tb4 Tb2 94.7(9) 7_554 .
O1EK Tb4 Tb1 106.0(16) 5_544 .
O2BH Tb4 Tb1 67(2) 7_554 .
O104 Tb4 Tb1 159(2) 2_645 .
O105 Tb4 Tb1 107.6(14) 4 .
O4H Tb4 Tb1 38(2) . .
O5H Tb4 Tb1 92(2) . .
O8H Tb4 Tb1 86(2) . .
O1H Tb4 Tb1 35.3(10) . .
C1H Tb4 Tb1 51.0(10) 7_554 .
Tb2 Tb4 Tb1 60.2(4) . .
O1EK Tb4 Tb6 106.1(16) 5_544 .
O2BH Tb4 Tb6 158(2) 7_554 .
O104 Tb4 Tb6 69(2) 2_645 .
O105 Tb4 Tb6 107.6(14) 4 .
O4H Tb4 Tb6 88.3(16) . .
O5H Tb4 Tb6 32.4(14) . .
O8H Tb4 Tb6 33.1(12) . .
O1H Tb4 Tb6 89.6(15) . .
C1H Tb4 Tb6 141.1(12) 7_554 .
Tb2 Tb4 Tb6 60.0(4) . .
Tb1 Tb4 Tb6 90.1(5) . .
O2DJ Tb5 O2AG 81.8(14) 6_544 .
O2DJ Tb5 O106 81.2(13) 6_544 4
O2AG Tb5 O106 133(3) . 4
O2DJ Tb5 O206 134(3) 6_544 4
O2AG Tb5 O206 80.0(13) . 4
O106 Tb5 O206 81.3(13) 4 4
O2DJ Tb5 O7H 142(2) 6_544 .
O2AG Tb5 O7H 75(2) . .
O106 Tb5 O7H 137(2) 4 .
O206 Tb5 O7H 71(3) 4 .
O2DJ Tb5 O4H 74(2) 6_544 .
O2AG Tb5 O4H 143(2) . .
O106 Tb5 O4H 70(3) 4 .
O206 Tb5 O4H 137(2) 4 .
O7H Tb5 O4H 108(4) . .
O2DJ Tb5 O8H 137.4(17) 6_544 .
O2AG Tb5 O8H 138.9(16) . .
O106 Tb5 O8H 76(3) 4 .
O206 Tb5 O8H 77(3) 4 .
O7H Tb5 O8H 65(2) . .
O4H Tb5 O8H 65(2) . .
O2DJ Tb5 O3H 73(2) 6_544 .
O2AG Tb5 O3H 75(2) . .
O106 Tb5 O3H 138.7(14) 4 .
O206 Tb5 O3H 139.4(13) 4 .
O7H Tb5 O3H 72(3) . .
O4H Tb5 O3H 72(3) . .
O8H Tb5 O3H 102(3) . .
O2DJ Tb5 C1G 89.5(9) 6_544 .
O2AG Tb5 C1G 18(2) . .
O106 Tb5 C1G 151(2) 4 .
O206 Tb5 C1G 86.2(9) 4 .
O7H Tb5 C1G 60.4(17) . .
O4H Tb5 C1G 133(2) . .
O8H Tb5 C1G 125.8(16) . .
O3H Tb5 C1G 60.8(14) . .
O2DJ Tb5 Tb1 67(2) 6_544 .
O2AG Tb5 Tb1 107.2(15) . .
O106 Tb5 Tb1 105.7(15) 4 .
O206 Tb5 Tb1 159(2) 4 .
O7H Tb5 Tb1 91(2) . .
O4H Tb5 Tb1 37(2) . .
O8H Tb5 Tb1 85(2) . .
O3H Tb5 Tb1 34.5(9) . .
C1G Tb5 Tb1 95.2(9) . .
O2DJ Tb5 Tb3 105.7(16) 6_544 .
O2AG Tb5 Tb3 69(2) . .
O106 Tb5 Tb3 158(2) 4 .
O206 Tb5 Tb3 106.5(15) 4 .
O7H Tb5 Tb3 37(2) . .
O4H Tb5 Tb3 91(2) . .
O8H Tb5 Tb3 85(2) . .
O3H Tb5 Tb3 34.6(9) . .
C1G Tb5 Tb3 50.7(10) . .
Tb1 Tb5 Tb3 60.1(4) . .
O2DJ Tb5 Tb6 157(2) 6_544 .
O2AG Tb5 Tb6 106.4(15) . .
O106 Tb5 Tb6 106.4(15) 4 .
O206 Tb5 Tb6 69(2) 4 .
O7H Tb5 Tb6 32.5(15) . .
O4H Tb5 Tb6 88.1(16) . .
O8H Tb5 Tb6 33.1(11) . .
O3H Tb5 Tb6 88.1(15) . .
C1G Tb5 Tb6 92.8(9) . .
Tb1 Tb5 Tb6 89.4(5) . .
Tb3 Tb5 Tb6 59.6(4) . .
O1CI Tb6 O1FL 82.0(14) 6_644 3_665
O1CI Tb6 O103 80.5(13) 6_644 2_645
O1FL Tb6 O103 133(3) 3_665 2_645
O1CI Tb6 O205 134(3) 6_644 4
O1FL Tb6 O205 80.7(13) 3_665 4
O103 Tb6 O205 80.6(14) 2_645 4
O1CI Tb6 O5H 74(2) 6_644 .
O1FL Tb6 O5H 142(2) 3_665 .
O103 Tb6 O5H 71(3) 2_645 .
O205 Tb6 O5H 137(2) 4 .
O1CI Tb6 O7H 142(2) 6_644 .
O1FL Tb6 O7H 74(2) 3_665 .
O103 Tb6 O7H 137(2) 2_645 .
O205 Tb6 O7H 71(3) 4 .
O5H Tb6 O7H 109(3) . .
O1CI Tb6 O8H 137.8(17) 6_644 .
O1FL Tb6 O8H 138.2(16) 3_665 .
O103 Tb6 O8H 77(3) 2_645 .
O205 Tb6 O8H 77(3) 4 .
O5H Tb6 O8H 65(2) . .
O7H Tb6 O8H 65(2) . .
O1CI Tb6 O6H 73(2) 6_644 .
O1FL Tb6 O6H 73(2) 3_665 .
O103 Tb6 O6H 139.5(13) 2_645 .
O205 Tb6 O6H 139.5(13) 4 .
O5H Tb6 O6H 72(2) . .
O7H Tb6 O6H 72(3) . .
O8H Tb6 O6H 103(3) . .
O1CI Tb6 C1F 88.7(9) 6_644 3_665
O1FL Tb6 C1F 17(2) 3_665 3_665
O103 Tb6 C1F 150(2) 2_645 3_665
O205 Tb6 C1F 86.8(9) 4 3_665
O5H Tb6 C1F 132(2) . 3_665
O7H Tb6 C1F 61.1(17) . 3_665
O8H Tb6 C1F 126.5(16) . 3_665
O6H Tb6 C1F 60.2(14) . 3_665
O1CI Tb6 Tb3 105.8(16) 6_644 .
O1FL Tb6 Tb3 67(2) 3_665 .
O103 Tb6 Tb3 160(2) 2_645 .
O205 Tb6 Tb3 106.5(15) 4 .
O5H Tb6 Tb3 92(2) . .
O7H Tb6 Tb3 38(2) . .
O8H Tb6 Tb3 86(2) . .
O6H Tb6 Tb3 34.8(9) . .
C1F Tb6 Tb3 50.7(10) 3_665 .
O1CI Tb6 Tb2 68(2) 6_644 .
O1FL Tb6 Tb2 106.2(16) 3_665 .
O103 Tb6 Tb2 106.7(15) 2_645 .
O205 Tb6 Tb2 159(2) 4 .
O5H Tb6 Tb2 38(2) . .
O7H Tb6 Tb2 91(2) . .
O8H Tb6 Tb2 85(2) . .
O6H Tb6 Tb2 34.8(9) . .
C1F Tb6 Tb2 94.9(9) 3_665 .
Tb3 Tb6 Tb2 60.2(4) . .
O1CI Tb6 Tb4 105.4(16) 6_644 .
O1FL Tb6 Tb4 157(2) 3_665 .
O103 Tb6 Tb4 70(2) 2_645 .
O205 Tb6 Tb4 107.1(15) 4 .
O5H Tb6 Tb4 32.5(14) . .
O7H Tb6 Tb4 88.2(17) . .
O8H Tb6 Tb4 32.9(12) . .
O6H Tb6 Tb4 88.5(15) . .
C1F Tb6 Tb4 140.5(11) 3_665 .
Tb3 Tb6 Tb4 89.8(5) . .
Tb2 Tb6 Tb4 59.3(4) . .
Tb2 O1H Tb1 113(3) . .
Tb2 O1H Tb4 107(3) . .
Tb1 O1H Tb4 106(3) . .
Tb1 O2H Tb3 114(2) . .
Tb1 O2H Tb2 112(2) . .
Tb3 O2H Tb2 114(2) . .
Tb1 O3H Tb3 114(3) . .
Tb1 O3H Tb5 108(3) . .
Tb3 O3H Tb5 108(3) . .
Tb4 O4H Tb5 115(3) . .
Tb4 O4H Tb1 107(3) . .
Tb5 O4H Tb1 108(3) . .
Tb6 O5H Tb4 115(3) . .
Tb6 O5H Tb2 108(3) . .
Tb4 O5H Tb2 107(3) . .
Tb3 O6H Tb2 114(3) . .
Tb3 O6H Tb6 107(3) . .
Tb2 O6H Tb6 107(3) . .
Tb6 O7H Tb5 115(3) . .
Tb6 O7H Tb3 107(3) . .
Tb5 O7H Tb3 108(3) . .
Tb4 O8H Tb5 114(2) . .
Tb4 O8H Tb6 114(2) . .
Tb5 O8H Tb6 114(2) . .
C101 O101 Tb1 132(5) . .
C101 O102 Tb2 132(5) . .
C108 O103 Tb6 131(5) . 8_554
C108 O104 Tb4 132(5) . 8_554
C115 O105 Tb4 129(5) . 6_544
C115 O106 Tb5 132(5) . 6_544
O101 C101 O102 136(6) . .
O101 C101 C102 107(4) . .
O102 C101 C102 116(4) . .
C103 C102 C107 120.0 . .
C103 C102 C101 119(3) . .
C107 C102 C101 121(3) . .
C104 C103 C102 120.0 . .
C104 C103 H103 120.0 . .
C102 C103 H103 120.0 . .
C103 C104 C105 120.0 . .
C103 C104 H104 120.0 . .
C105 C104 H104 120.0 . .
C104 C105 C106 120.0 . .
C104 C105 C122 118(3) . .
C106 C105 C122 122(3) . .
C107 C106 C105 120.0 . .
C107 C106 H106 120.0 . .
C105 C106 H106 120.0 . .
C106 C107 C102 120.0 . .
C106 C107 H107 120.0 . .
C102 C107 H107 120.0 . .
O104 C108 O103 138(6) . .
O104 C108 C109 112(4) . .
O103 C108 C109 110(4) . .
C110 C109 C114 120.0 . .
C110 C109 C108 119(3) . .
C114 C109 C108 121(3) . .
C109 C110 C111 120.00(5) . .
C109 C110 H110 120.0 . .
C111 C110 H110 120.0 . .
C112 C111 C110 120.00(6) . .
C112 C111 H111 120.0 . .
C110 C111 H111 120.0 . .
C111 C112 C113 120.0 . .
C111 C112 C123 118(3) . .
C113 C112 C123 122(3) . .
C112 C113 C114 120.0 . .
C112 C113 H113 120.0 . .
C114 C113 H113 120.0 . .
C113 C114 C109 120.00(5) . .
C113 C114 H114 120.0 . .
C109 C114 H114 120.0 . .
O106 C115 O105 139(6) . .
O106 C115 C116 104(4) . .
O105 C115 C116 117(4) . .
C117 C116 C121 120.0 . .
C117 C116 C115 120(3) . .
C121 C116 C115 120(3) . .
C116 C117 C118 120.00(7) . .
C116 C117 H117 120.0 . .
C118 C117 H117 120.0 . .
C117 C118 C119 120.00(5) . .
C117 C118 H118 120.0 . .
C119 C118 H118 120.0 . .
C120 C119 C118 120.0 . .
C120 C119 C124 118(3) . .
C118 C119 C124 122(3) . .
C119 C120 C121 120.00(7) . .
C119 C120 H120 120.0 . .
C121 C120 H120 120.0 . .
C120 C121 C116 120.00(7) . .
C120 C121 H121 120.0 . .
C116 C121 H121 120.0 . .
N101 C122 N103 120.0 . .
N101 C122 C105 118(2) . .
N103 C122 C105 122(2) . .
C123 N101 C122 120.0 . .
N101 C123 N102 120.0 . .
N101 C123 C112 121(3) . .
N102 C123 C112 119(3) . .
C123 N102 C124 120.0 . .
N102 C124 N103 120.0 . .
N102 C124 C119 118(3) . .
N103 C124 C119 122(3) . .
C124 N103 C122 120.0 . .
C201 O201 Tb1 133(5) . .
C201 O202 Tb3 137(5) . .
C208 O203 Tb3 133(5) . 3_665
C208 O204 Tb2 132(5) . 3_665
C215 O205 Tb6 133(5) . 6_544
C215 O206 Tb5 132(5) . 6_544
O202 C201 O201 130(6) . .
O202 C201 C202 115(4) . .
O201 C201 C202 115(4) . .
C203 C202 C207 120.0 . .
C203 C202 C201 120(3) . .
C207 C202 C201 120(3) . .
C204 C203 C202 120.0 . .
C204 C203 H203 120.0 . .
C202 C203 H203 120.0 . .
C205 C204 C203 120.0 . .
C205 C204 H204 120.0 . .
C203 C204 H204 120.0 . .
C206 C205 C204 120.0 . .
C206 C205 C222 120(3) . .
C204 C205 C222 120(3) . .
C205 C206 C207 120.0 . .
C205 C206 H206 120.0 . .
C207 C206 H206 120.0 . .
C206 C207 C202 120.0 . .
C206 C207 H207 120.0 . .
C202 C207 H207 120.0 . .
O204 C208 O203 132(6) . .
O204 C208 C209 117(4) . .
O203 C208 C209 111(4) . .
C210 C209 C214 120.0 . .
C210 C209 C208 121(3) . .
C214 C209 C208 119(3) . .
C209 C210 C211 120.0 . .
C209 C210 H210 120.0 . .
C211 C210 H210 120.0 . .
C212 C211 C210 120.0 . .
C212 C211 H211 120.0 . .
C210 C211 H211 120.0 . .
C213 C212 C211 120.0 . .
C213 C212 C223 121(3) . .
C211 C212 C223 119(3) . .
C212 C213 C214 120.00(5) . .
C212 C213 H213 120.0 . .
C214 C213 H213 120.0 . .
C213 C214 C209 120.0 . .
C213 C214 H214 120.0 . .
C209 C214 H214 120.0 . .
O205 C215 O206 134(6) . .
O205 C215 C216 115(4) . .
O206 C215 C216 111(4) . .
C217 C216 C221 120.0 . .
C217 C216 C215 119(3) . .
C221 C216 C215 121(3) . .
C218 C217 C216 120.0 . .
C218 C217 H217 120.0 . .
C216 C217 H217 120.0 . .
C219 C218 C217 120.0 . .
C219 C218 H218 120.0 . .
C217 C218 H218 120.0 . .
C218 C219 C220 120.0 . .
C218 C219 C224 120(3) . .
C220 C219 C224 120(3) . .
C221 C220 C219 120.0 . .
C221 C220 H220 120.0 . .
C219 C220 H220 120.0 . .
C220 C221 C216 120.0 . .
C220 C221 H221 120.0 . .
C216 C221 H221 120.0 . .
N201 C222 N203 120.0 . .
N201 C222 C205 121(2) . .
N203 C222 C205 119(2) . .
C222 N201 C223 120.0 . .
N202 C223 N201 120.0 . .
N202 C223 C212 117(2) . .
N201 C223 C212 123(2) . .
C224 N202 C223 120.0 . .
N202 C224 N203 120.0 . .
N202 C224 C219 118(2) . .
N203 C224 C219 122(2) . .
C224 N203 C222 120.0 . .
C1G O1AG Tb3 135(6) . .
C1A O1AG Tb3 137(6) . .
C1G O2AG Tb5 129(5) . .
C1A O2AG Tb5 130(5) . .
C1B O1BH Tb1 133(6) . 7
C1H O1BH Tb1 132(6) . 7
C1H O2BH Tb4 134(6) . 7
C1B O2BH Tb4 134(6) . 7
C1C O1CI Tb6 134(6) . 4_565
C1I O1CI Tb6 133(6) . 4_565
C1I O2CI Tb2 133(6) . 4_565
C1C O2CI Tb2 134(6) . 4_565
C1D O1DJ Tb1 132(6) . 4
C1J O1DJ Tb1 133(6) . 4
C1D O2DJ Tb5 133(6) . 4
C1J O2DJ Tb5 134(6) . 4
C1E O1EK Tb4 133(6) . 5_455
C1K O1EK Tb4 134(6) . 5_455
C1E O2EK Tb2 133(6) . 5_455
C1K O2EK Tb2 135(6) . 5_455
C1F O1FL Tb6 133(6) . 3_665
C1L O1FL Tb6 134(6) . 3_665
C1F O2FL Tb3 132(6) . 3_665
C1L O2FL Tb3 133(6) . 3_665
O1AG C1A O2AG 136(6) . .
O1AG C1A C2A 115(5) . .
O2AG C1A C2A 109(4) . .
C3A C2A C7A 120.0 . .
C3A C2A C1A 119(3) . .
C7A C2A C1A 121(3) . .
C4A C3A C2A 120.00(6) . .
C4A C3A H3A 120.0 . .
C2A C3A H3A 120.0 . .
C3A C4A C5A 120.00(16) . .
C3A C4A H4A 120.0 . .
C5A C4A H4A 120.0 . .
C6A C5A C4A 120.00(6) . .
C6A C5A C8A 120(3) . .
C4A C5A C8A 119(3) . .
C5A C6A C7A 120.00(13) . .
C5A C6A H6A 120.0 . .
C7A C6A H6A 120.0 . .
C6A C7A C2A 120.00(18) . .
C6A C7A H7A 120.0 . .
C2A C7A H7A 120.0 . .
C9A C8A C13A 120.0 . .
C9A C8A C5A 119(3) . .
C13A C8A C5A 121(3) . .
C10A C9A C8A 120.00(14) . .
C10A C9A H9A 120.0 . .
C8A C9A H9A 120.0 . .
C9A C10A C11A 120.0 . .
C9A C10A H10A 120.0 . .
C11A C10A H10A 120.0 . .
C12A C11A C10A 120.0 . .
C12A C11A C14A 120(3) . .
C10A C11A C14A 120(3) . .
C11A C12A C13A 120.00(13) . .
C11A C12A H12A 120.0 . .
C13A C12A H12A 120.0 . .
C12A C13A C8A 120.0 . .
C12A C13A H13A 120.0 . .
C8A C13A H13A 120.0 . .
C15A C14A C19A 120.0 . .
C15A C14A C11A 120(3) . .
C19A C14A C11A 120(3) . .
C16A C15A C14A 120.0 . .
C16A C15A H15A 120.0 . .
C14A C15A H15A 120.0 . .
C17A C16A C15A 120.0 . .
C17A C16A H16A 120.0 . .
C15A C16A H16A 120.0 . .
C16A C17A C18A 120.0 . .
C16A C17A C20A 121(3) . .
C18A C17A C20A 119(3) . .
C19A C18A C17A 120.0 . .
C19A C18A H18A 120.0 . .
C17A C18A H18A 120.0 . .
C18A C19A C14A 120.0 . .
C18A C19A H19A 120.0 . .
C14A C19A H19A 120.0 . .
O2BH C1B O1BH 137(6) . .
O2BH C1B C2B 111(5) . .
O1BH C1B C2B 112(5) . .
C3B C2B C7B 120.0 . .
C3B C2B C1B 120(3) . .
C7B C2B C1B 120(3) . .
C2B C3B C4B 120.0 . .
C2B C3B H3B 120.0 . .
C4B C3B H3B 120.0 . .
C3B C4B C5B 120.00(8) . .
C3B C4B H4B 120.0 . .
C5B C4B H4B 120.0 . .
C6B C5B C4B 120.00(7) . .
C6B C5B C8B 120(3) . .
C4B C5B C8B 120(3) . .
C7B C6B C5B 120.00(7) . .
C7B C6B H6B 120.0 . .
C5B C6B H6B 120.0 . .
C6B C7B C2B 120.00(6) . .
C6B C7B H7B 120.0 . .
C2B C7B H7B 120.0 . .
C9B C8B C13B 120.0 . .
C9B C8B C5B 120(3) . .
C13B C8B C5B 120(3) . .
C10B C9B C8B 120.00(7) . .
C10B C9B H9B 120.0 . .
C8B C9B H9B 120.0 . .
C9B C10B C11B 120.00(14) . .
C9B C10B H10B 120.0 . .
C11B C10B H10B 120.0 . .
C12B C11B C10B 120.00(8) . .
C12B C11B C14B 120(3) . .
C10B C11B C14B 120(3) . .
C13B C12B C11B 120.00(11) . .
C13B C12B H12B 120.0 . .
C11B C12B H12B 120.0 . .
C12B C13B C8B 120.00(15) . .
C12B C13B H13B 120.0 . .
C8B C13B H13B 120.0 . .
C15B C14B C19B 120.0 . .
C15B C14B C11B 121(3) . .
C19B C14B C11B 119(3) . .
C14B C15B C16B 120.0 . .
C14B C15B H15B 120.0 . .
C16B C15B H15B 120.0 . .
C15B C16B C17B 120.0 . .
C15B C16B H16B 120.0 . .
C17B C16B H16B 120.0 . .
C16B C17B C18B 120.0 . .
C16B C17B C20B 120(2) . .
C18B C17B C20B 120(2) . .
C19B C18B C17B 120.00(6) . .
C19B C18B H18B 120.0 . .
C17B C18B H18B 120.0 . .
C18B C19B C14B 120.00(7) . .
C18B C19B H19B 120.0 . .
C14B C19B H19B 120.0 . .
O1CI C1C O2CI 136(6) . .
O1CI C1C C2C 114(5) . .
O2CI C1C C2C 110(5) . .
C3C C2C C7C 120.00(5) . .
C3C C2C C1C 119(3) . .
C7C C2C C1C 121(3) . .
C2C C3C C4C 120.00(8) . .
C2C C3C H3C 120.0 . .
C4C C3C H3C 120.0 . .
C5C C4C C3C 120.00(11) . .
C5C C4C H4C 120.0 . .
C3C C4C H4C 120.0 . .
C4C C5C C6C 120.0 . .
C4C C5C C8C 119(3) . .
C6C C5C C8C 121(3) . .
C7C C6C C5C 120.00(7) . .
C7C C6C H6C 120.0 . .
C5C C6C H6C 120.0 . .
C6C C7C C2C 120.00(9) . .
C6C C7C H7C 120.0 . .
C2C C7C H7C 120.0 . .
C9C C8C C13C 120.00(11) . .
C9C C8C C5C 119(3) . .
C13C C8C C5C 121(3) . .
C10C C9C C8C 120.00(18) . .
C10C C9C H9C 120.0 . .
C8C C9C H9C 120.0 . .
C9C C10C C11C 120.00(12) . .
C9C C10C H10C 120.0 . .
C11C C10C H10C 120.0 . .
C10C C11C C12C 120.00(11) . .
C10C C11C C14C 119(3) . .
C12C C11C C14C 121(3) . .
C13C C12C C11C 120.00(11) . .
C13C C12C H12C 120.0 . .
C11C C12C H12C 120.0 . .
C12C C13C C8C 120.00(9) . .
C12C C13C H13C 120.0 . .
C8C C13C H13C 120.0 . .
C15C C14C C19C 120.00(11) . .
C15C C14C C11C 119(3) . .
C19C C14C C11C 121(3) . .
C16C C15C C14C 120.00(18) . .
C16C C15C H15C 120.0 . .
C14C C15C H15C 120.0 . .
C15C C16C C17C 120.00(14) . .
C15C C16C H16C 120.0 . .
C17C C16C H16C 120.0 . .
C16C C17C C18C 120.0 . .
C16C C17C C20C 119(3) . .
C18C C17C C20C 121(3) . .
C17C C18C C19C 120.00(9) . .
C17C C18C H18C 120.0 . .
C19C C18C H18C 120.0 . .
C18C C19C C14C 120.00(8) . .
C18C C19C H19C 120.0 . .
C14C C19C H19C 120.0 . .
O2DJ C1D O1DJ 140(6) . .
O2DJ C1D C2D 110(5) . .
O1DJ C1D C2D 110(5) . .
C3D C2D C7D 120.00(8) . .
C3D C2D C1D 120(3) . .
C7D C2D C1D 120(3) . .
C2D C3D C4D 120.00(7) . .
C2D C3D H3D 120.0 . .
C4D C3D H3D 120.0 . .
C3D C4D C5D 120.00(10) . .
C3D C4D H4D 120.0 . .
C5D C4D H4D 120.0 . .
C4D C5D C6D 120.00(10) . .
C4D C5D C8D 120(3) . .
C6D C5D C8D 120(3) . .
C7D C6D C5D 120.00(9) . .
C7D C6D H6D 120.0 . .
C5D C6D H6D 120.0 . .
C6D C7D C2D 120.00(7) . .
C6D C7D H7D 120.0 . .
C2D C7D H7D 120.0 . .
C9D C8D C13D 120.00(10) . .
C9D C8D C5D 119(3) . .
C13D C8D C5D 121(3) . .
C8D C9D C10D 120.0 . .
C8D C9D H9D 120.0 . .
C10D C9D H9D 120.0 . .
C11D C10D C9D 120.0 . .
C11D C10D H10D 120.0 . .
C9D C10D H10D 120.0 . .
C10D C11D C12D 120.00(8) . .
C10D C11D C14D 120(3) . .
C12D C11D C14D 120(3) . .
C13D C12D C11D 120.0 . .
C13D C12D H12D 120.0 . .
C11D C12D H12D 120.0 . .
C12D C13D C8D 120.00(5) . .
C12D C13D H13D 120.0 . .
C8D C13D H13D 120.0 . .
C15D C14D C19D 120.00(5) . .
C15D C14D C11D 120(3) . .
C19D C14D C11D 120(3) . .
C14D C15D C16D 120.0(2) . .
C14D C15D H15D 120.0 . .
C16D C15D H15D 120.0 . .
C17D C16D C15D 120.00(10) . .
C17D C16D H16D 120.0 . .
C15D C16D H16D 120.0 . .
C18D C17D C16D 120.00(9) . .
C18D C17D C20D 121(3) . .
C16D C17D C20D 119(3) . .
C17D C18D C19D 120.00(16) . .
C17D C18D H18D 120.0 . .
C19D C18D H18D 120.0 . .
C18D C19D C14D 120.00(16) . .
C18D C19D H19D 120.0 . .
C14D C19D H19D 120.0 . .
O2EK C1E O1EK 139(6) . .
O2EK C1E C2E 111(5) . .
O1EK C1E C2E 110(5) . .
C3E C2E C7E 120.0 . .
C3E C2E C1E 120(3) . .
C7E C2E C1E 120(3) . .
C4E C3E C2E 120.00(16) . .
C4E C3E H3E 120.0 . .
C2E C3E H3E 120.0 . .
C3E C4E C5E 120.00(10) . .
C3E C4E H4E 120.0 . .
C5E C4E H4E 120.0 . .
C6E C5E C4E 120.0 . .
C6E C5E C8E 120(3) . .
C4E C5E C8E 120(3) . .
C5E C6E C7E 120.00(15) . .
C5E C6E H6E 120.0 . .
C7E C6E H6E 120.0 . .
C6E C7E C2E 120.00(6) . .
C6E C7E H7E 120.0 . .
C2E C7E H7E 120.0 . .
C9E C8E C13E 120.0 . .
C9E C8E C5E 120(3) . .
C13E C8E C5E 120(3) . .
C8E C9E C10E 120.0 . .
C8E C9E H9E 120.0 . .
C10E C9E H9E 120.0 . .
C11E C10E C9E 120.00(6) . .
C11E C10E H10E 120.0 . .
C9E C10E H10E 120.0 . .
C12E C11E C10E 120.0 . .
C12E C11E C14E 120(3) . .
C10E C11E C14E 120(3) . .
C11E C12E C13E 120.00(6) . .
C11E C12E H12E 120.0 . .
C13E C12E H12E 120.0 . .
C12E C13E C8E 120.00(8) . .
C12E C13E H13E 120.0 . .
C8E C13E H13E 120.0 . .
C15E C14E C19E 120.0 . .
C15E C14E C11E 120(3) . .
C19E C14E C11E 120(3) . .
C14E C15E C16E 120.0 . .
C14E C15E H15E 120.0 . .
C16E C15E H15E 120.0 . .
C15E C16E C17E 120.00(11) . .
C15E C16E H16E 120.0 . .
C17E C16E H16E 120.0 . .
C18E C17E C16E 120.0 . .
C18E C17E C20E 120(3) . .
C16E C17E C20E 120(3) . .
C19E C18E C17E 120.00(5) . .
C19E C18E H18E 120.0 . .
C17E C18E H18E 120.0 . .
C18E C19E C14E 120.00(11) . .
C18E C19E H19E 120.0 . .
C14E C19E H19E 120.0 . .
O1FL C1F O2FL 140(6) . .
O1FL C1F C2F 112(5) . .
O2FL C1F C2F 109(5) . .
O1FL C1F Tb6 30(4) . 3_665
O2FL C1F Tb6 110(4) . 3_665
C2F C1F Tb6 142(3) . 3_665
C3F C2F C7F 120.0 . .
C3F C2F C1F 120(3) . .
C7F C2F C1F 120(3) . .
C2F C3F C4F 120.0 . .
C2F C3F H3F 120.0 . .
C4F C3F H3F 120.0 . .
C5F C4F C3F 120.0 . .
C5F C4F H4F 120.0 . .
C3F C4F H4F 120.0 . .
C4F C5F C6F 120.0 . .
C4F C5F C8F 120(3) . .
C6F C5F C8F 120(3) . .
C5F C6F C7F 120.00(8) . .
C5F C6F H6F 120.0 . .
C7F C6F H6F 120.0 . .
C2F C7F C6F 120.00(5) . .
C2F C7F H7F 120.0 . .
C6F C7F H7F 120.0 . .
C9F C8F C13F 120.00(5) . .
C9F C8F C5F 120(3) . .
C13F C8F C5F 120(3) . .
C8F C9F C10F 120.00(6) . .
C8F C9F H9F 120.0 . .
C10F C9F H9F 120.0 . .
C9F C10F C11F 120.00(13) . .
C9F C10F H10F 120.0 . .
C11F C10F H10F 120.0 . .
C12F C11F C10F 120.0 . .
C12F C11F C14F 120(3) . .
C10F C11F C14F 120(3) . .
C11F C12F C13F 120.0 . .
C11F C12F H12F 120.0 . .
C13F C12F H12F 120.0 . .
C12F C13F C8F 120.00(14) . .
C12F C13F H13F 120.0 . .
C8F C13F H13F 120.0 . .
C15F C14F C19F 120.00(6) . .
C15F C14F C11F 119(3) . .
C19F C14F C11F 121(3) . .
C16F C15F C14F 120.00(7) . .
C16F C15F H15F 120.0 . .
C14F C15F H15F 120.0 . .
C17F C16F C15F 120.00(5) . .
C17F C16F H16F 120.0 . .
C15F C16F H16F 120.0 . .
C16F C17F C18F 120.0 . .
C16F C17F C20F 118(3) . .
C18F C17F C20F 122(3) . .
C19F C18F C17F 120.0 . .
C19F C18F H18F 120.0 . .
C17F C18F H18F 120.0 . .
C18F C19F C14F 120.0 . .
C18F C19F H19F 120.0 . .
C14F C19F H19F 120.0 . .
O1AG C1G O2AG 141(6) . .
O1AG C1G C2G 109(5) . .
O2AG C1G C2G 110(4) . .
O1AG C1G Tb5 108(4) . .
O2AG C1G Tb5 33(3) . .
C2G C1G Tb5 142(3) . .
C3G C2G C7G 120.0 . .
C3G C2G C1G 121(3) . .
C7G C2G C1G 119(3) . .
C4G C3G C2G 120.00(9) . .
C4G C3G H3G 120.0 . .
C2G C3G H3G 120.0 . .
C3G C4G C5G 120.00(6) . .
C3G C4G H4G 120.0 . .
C5G C4G H4G 120.0 . .
C6G C5G C4G 120.0 . .
C6G C5G C8G 120(3) . .
C4G C5G C8G 120(3) . .
C7G C6G C5G 120.00(13) . .
C7G C6G H6G 120.0 . .
C5G C6G H6G 120.0 . .
C6G C7G C2G 120.00(11) . .
C6G C7G H7G 120.0 . .
C2G C7G H7G 120.0 . .
C9G C8G C13G 120.0 . .
C9G C8G C5G 120(3) . .
C13G C8G C5G 120(3) . .
C10G C9G C8G 120.00(7) . .
C10G C9G H9G 120.0 . .
C8G C9G H9G 120.0 . .
C9G C10G C11G 120.00(7) . .
C9G C10G H10G 120.0 . .
C11G C10G H10G 120.0 . .
C12G C11G C10G 120.0 . .
C12G C11G C14G 120(3) . .
C10G C11G C14G 120(3) . .
C13G C12G C11G 120.00(7) . .
C13G C12G H12G 120.0 . .
C11G C12G H12G 120.0 . .
C12G C13G C8G 120.00(8) . .
C12G C13G H13G 120.0 . .
C8G C13G H13G 120.0 . .
C15G C14G C19G 120.0 . .
C15G C14G C11G 122(3) . .
C19G C14G C11G 118(3) . .
C16G C15G C14G 120.00(16) . .
C16G C15G H15G 120.0 . .
C14G C15G H15G 120.0 . .
C15G C16G C17G 120.0 . .
C15G C16G H16G 120.0 . .
C17G C16G H16G 120.0 . .
C18G C17G C16G 120.0 . .
C18G C17G C20G 121(3) . .
C16G C17G C20G 119(3) . .
C17G C18G C19G 120.00(9) . .
C17G C18G H18G 120.0 . .
C19G C18G H18G 120.0 . .
C18G C19G C14G 120.00(6) . .
C18G C19G H19G 120.0 . .
C14G C19G H19G 120.0 . .
O2BH C1H O1BH 139(6) . .
O2BH C1H C2H 114(5) . .
O1BH C1H C2H 107(4) . .
O2BH C1H Tb4 30(4) . 7
O1BH C1H Tb4 109(4) . 7
C2H C1H Tb4 144(3) . 7
C3H C2H C7H 120.0 . .
C3H C2H C1H 122(3) . .
C7H C2H C1H 118(3) . .
C4H C3H C2H 120.00(10) . .
C4H C3H H3H 120.0 . .
C2H C3H H3H 120.0 . .
C3H C4H C5H 120.00(7) . .
C3H C4H H4H 120.0 . .
C5H C4H H4H 120.0 . .
C6H C5H C4H 120.0 . .
C6H C5H C8H 119(3) . .
C4H C5H C8H 121(3) . .
C7H C6H C5H 120.00(13) . .
C7H C6H H6H 120.0 . .
C5H C6H H6H 120.0 . .
C6H C7H C2H 120.00(7) . .
C6H C7H H7H 120.0 . .
C2H C7H H7H 120.0 . .
C9H C8H C13H 120.0 . .
C9H C8H C5H 119(3) . .
C13H C8H C5H 121(3) . .
C8H C9H C10H 120.00(5) . .
C8H C9H H9H 120.0 . .
C10H C9H H9H 120.0 . .
C9H C10H C11H 120.00(11) . .
C9H C10H H10H 120.0 . .
C11H C10H H10H 120.0 . .
C12H C11H C10H 120.0 . .
C12H C11H C14H 121(3) . .
C10H C11H C14H 119(3) . .
C11H C12H C13H 120.00(7) . .
C11H C12H H12H 120.0 . .
C13H C12H H12H 120.0 . .
C12H C13H C8H 120.00(10) . .
C12H C13H H13H 120.0 . .
C8H C13H H13H 120.0 . .
C15H C14H C19H 120.0 . .
C15H C14H C11H 119(3) . .
C19H C14H C11H 121(3) . .
C16H C15H C14H 120.00(9) . .
C16H C15H H15H 120.0 . .
C14H C15H H15H 120.0 . .
C15H C16H C17H 120.0 . .
C15H C16H H16H 120.0 . .
C17H C16H H16H 120.0 . .
C16H C17H C18H 120.0 . .
C16H C17H C20H 120(2) . .
C18H C17H C20H 120(2) . .
C17H C18H C19H 120.00(10) . .
C17H C18H H18H 120.0 . .
C19H C18H H18H 120.0 . .
C18H C19H C14H 120.00(5) . .
C18H C19H H19H 120.0 . .
C14H C19H H19H 120.0 . .
O2CI C1I O1CI 138(6) . .
O2CI C1I C2I 112(5) . .
O1CI C1I C2I 109(5) . .
C3I C2I C7I 120.00(6) . .
C3I C2I C1I 121(3) . .
C7I C2I C1I 119(3) . .
C4I C3I C2I 120.00(10) . .
C4I C3I H3I 120.0 . .
C2I C3I H3I 120.0 . .
C5I C4I C3I 120.00(8) . .
C5I C4I H4I 120.0 . .
C3I C4I H4I 120.0 . .
C4I C5I C6I 120.00(6) . .
C4I C5I C8I 120(3) . .
C6I C5I C8I 120(3) . .
C7I C6I C5I 120.00(11) . .
C7I C6I H6I 120.0 . .
C5I C6I H6I 120.0 . .
C6I C7I C2I 120.00(8) . .
C6I C7I H7I 120.0 . .
C2I C7I H7I 120.0 . .
C9I C8I C13I 120.00(12) . .
C9I C8I C5I 120(3) . .
C13I C8I C5I 120(3) . .
C10I C9I C8I 120.00(17) . .
C10I C9I H9I 120.0 . .
C8I C9I H9I 120.0 . .
C9I C10I C11I 120.00(18) . .
C9I C10I H10I 120.0 . .
C11I C10I H10I 120.0 . .
C10I C11I C12I 120.00(12) . .
C10I C11I C14I 120(3) . .
C12I C11I C14I 120(3) . .
C11I C12I C13I 120.00(13) . .
C11I C12I H12I 120.0 . .
C13I C12I H12I 120.0 . .
C12I C13I C8I 120.00(11) . .
C12I C13I H13I 120.0 . .
C8I C13I H13I 120.0 . .
C15I C14I C19I 120.00(9) . .
C15I C14I C11I 119(3) . .
C19I C14I C11I 121(3) . .
C16I C15I C14I 120.00(7) . .
C16I C15I H15I 120.0 . .
C14I C15I H15I 120.0 . .
C15I C16I C17I 120.00(6) . .
C15I C16I H16I 120.0 . .
C17I C16I H16I 120.0 . .
C18I C17I C16I 120.00(10) . .
C18I C17I C20I 120(3) . .
C16I C17I C20I 120(3) . .
C17I C18I C19I 120.00(6) . .
C17I C18I H18I 120.0 . .
C19I C18I H18I 120.0 . .
C18I C19I C14I 120.00(8) . .
C18I C19I H19I 120.0 . .
C14I C19I H19I 120.0 . .
O2DJ C1J O1DJ 137(6) . .
O2DJ C1J C2J 112(5) . .
O1DJ C1J C2J 110(5) . .
C3J C2J C7J 120.0 . .
C3J C2J C1J 121(3) . .
C7J C2J C1J 119(3) . .
C2J C3J C4J 120.00(15) . .
C2J C3J H3J 120.0 . .
C4J C3J H3J 120.0 . .
C3J C4J C5J 120.00(12) . .
C3J C4J H4J 120.0 . .
C5J C4J H4J 120.0 . .
C6J C5J C4J 120.00(8) . .
C6J C5J C8J 119(3) . .
C4J C5J C8J 121(3) . .
C5J C6J C7J 120.00(13) . .
C5J C6J H6J 120.0 . .
C7J C6J H6J 120.0 . .
C6J C7J C2J 120.00(9) . .
C6J C7J H7J 120.0 . .
C2J C7J H7J 120.0 . .
C9J C8J C13J 120.00(14) . .
C9J C8J C5J 120(3) . .
C13J C8J C5J 120(3) . .
C10J C9J C8J 120.00(16) . .
C10J C9J H9J 120.0 . .
C8J C9J H9J 120.0 . .
C11J C10J C9J 120.00(17) . .
C11J C10J H10J 120.0 . .
C9J C10J H10J 120.0 . .
C10J C11J C12J 120.00(12) . .
C10J C11J C14J 120(3) . .
C12J C11J C14J 120(3) . .
C13J C12J C11J 120.00(9) . .
C13J C12J H12J 120.0 . .
C11J C12J H12J 120.0 . .
C12J C13J C8J 120.00(11) . .
C12J C13J H13J 120.0 . .
C8J C13J H13J 120.0 . .
C15J C14J C19J 120.00(11) . .
C15J C14J C11J 119(3) . .
C19J C14J C11J 121(3) . .
C14J C15J C16J 120.00(6) . .
C14J C15J H15J 120.0 . .
C16J C15J H15J 120.0 . .
C15J C16J C17J 120.00(7) . .
C15J C16J H16J 120.0 . .
C17J C16J H16J 120.0 . .
C18J C17J C16J 120.00(6) . .
C18J C17J C20J 120(3) . .
C16J C17J C20J 120(3) . .
C17J C18J C19J 120.0 . .
C17J C18J H18J 120.0 . .
C19J C18J H18J 120.0 . .
C18J C19J C14J 120.0 . .
C18J C19J H19J 120.0 . .
C14J C19J H19J 120.0 . .
O2EK C1K O1EK 134(6) . .
O2EK C1K C2K 115(5) . .
O1EK C1K C2K 111(5) . .
C3K C2K C7K 120.0 . .
C3K C2K C1K 121(3) . .
C7K C2K C1K 119(3) . .
C4K C3K C2K 120.00(11) . .
C4K C3K H3K 120.0 . .
C2K C3K H3K 120.0 . .
C3K C4K C5K 120.00(13) . .
C3K C4K H4K 120.0 . .
C5K C4K H4K 120.0 . .
C4K C5K C6K 120.00(6) . .
C4K C5K C8K 121(3) . .
C6K C5K C8K 119(3) . .
C7K C6K C5K 120.00(8) . .
C7K C6K H6K 120.0 . .
C5K C6K H6K 120.0 . .
C6K C7K C2K 120.00(14) . .
C6K C7K H7K 120.0 . .
C2K C7K H7K 120.0 . .
C9K C8K C13K 120.0 . .
C9K C8K C5K 119(3) . .
C13K C8K C5K 121(3) . .
C8K C9K C10K 120.00(18) . .
C8K C9K H9K 120.0 . .
C10K C9K H9K 120.0 . .
C11K C10K C9K 120.00(8) . .
C11K C10K H10K 120.0 . .
C9K C10K H10K 120.0 . .
C12K C11K C10K 120.00(7) . .
C12K C11K C14K 121(3) . .
C10K C11K C14K 119(3) . .
C11K C12K C13K 120.00(17) . .
C11K C12K H12K 120.0 . .
C13K C12K H12K 120.0 . .
C12K C13K C8K 120.00(8) . .
C12K C13K H13K 120.0 . .
C8K C13K H13K 120.0 . .
C15K C14K C19K 120.0 . .
C15K C14K C11K 119(3) . .
C19K C14K C11K 121(3) . .
C16K C15K C14K 120.00(7) . .
C16K C15K H15K 120.0 . .
C14K C15K H15K 120.0 . .
C15K C16K C17K 120.00(14) . .
C15K C16K H16K 120.0 . .
C17K C16K H16K 120.0 . .
C18K C17K C16K 120.0 . .
C18K C17K C20K 120(3) . .
C16K C17K C20K 120(3) . .
C19K C18K C17K 120.00(7) . .
C19K C18K H18K 120.0 . .
C17K C18K H18K 120.0 . .
C18K C19K C14K 120.00(12) . .
C18K C19K H19K 120.0 . .
C14K C19K H19K 120.0 . .
O1FL C1L O2FL 138(6) . .
O1FL C1L C2L 112(5) . .
O2FL C1L C2L 111(5) . .
C3L C2L C7L 120.0 . .
C3L C2L C1L 120(3) . .
C7L C2L C1L 120(3) . .
C4L C3L C2L 120.00(12) . .
C4L C3L H3L 120.0 . .
C2L C3L H3L 120.0 . .
C3L C4L C5L 120.00(15) . .
C3L C4L H4L 120.0 . .
C5L C4L H4L 120.0 . .
C4L C5L C6L 120.0 . .
C4L C5L C8L 120(3) . .
C6L C5L C8L 120(3) . .
C5L C6L C7L 120.00(7) . .
C5L C6L H6L 120.0 . .
C7L C6L H6L 120.0 . .
C6L C7L C2L 120.00(15) . .
C6L C7L H7L 120.0 . .
C2L C7L H7L 120.0 . .
C9L C8L C13L 120.0 . .
C9L C8L C5L 120(3) . .
C13L C8L C5L 120(3) . .
C8L C9L C10L 120.00(11) . .
C8L C9L H9L 120.0 . .
C10L C9L H9L 120.0 . .
C11L C10L C9L 120.0 . .
C11L C10L H10L 120.0 . .
C9L C10L H10L 120.0 . .
C10L C11L C12L 120.0 . .
C10L C11L C14L 121(3) . .
C12L C11L C14L 119(3) . .
C13L C12L C11L 120.00(11) . .
C13L C12L H12L 120.0 . .
C11L C12L H12L 120.0 . .
C12L C13L C8L 120.00(11) . .
C12L C13L H13L 120.0 . .
C8L C13L H13L 120.0 . .
C15L C14L C19L 120.0 . .
C15L C14L C11L 120(3) . .
C19L C14L C11L 120(3) . .
C16L C15L C14L 120.00(7) . .
C16L C15L H15L 120.0 . .
C14L C15L H15L 120.0 . .
C17L C16L C15L 120.00(14) . .
C17L C16L H16L 120.0 . .
C15L C16L H16L 120.0 . .
C16L C17L C18L 120.0 . .
C16L C17L C20L 120(3) . .
C18L C17L C20L 120(3) . .
C19L C18L C17L 120.00(10) . .
C19L C18L H18L 120.0 . .
C17L C18L H18L 120.0 . .
C18L C19L C14L 120.00(17) . .
C18L C19L H19L 120.0 . .
C14L C19L H19L 120.0 . .
C20J C20A C20L 120.0 . .
C20J C20A C17A 120(2) . .
C20L C20A C17A 120(3) . .
C20J C20A H20A 120.0 . .
C20L C20A H20A 120.0 . .
C20A C20J C20B 120.0 . .
C20A C20J C17J 119(3) . .
C20B C20J C17J 120(2) . .
C20A C20J H20J 120.0 . .
C20B C20J H20J 120.0 . .
C20J C20B C20K 120.0 . .
C20J C20B C17B 121(2) . .
C20K C20B C17B 119(2) . .
C20J C20B H20B 120.0 . .
C20K C20B H20B 120.0 . .
C20C C20K C20B 120.0 . .
C20C C20K C17K 120(3) . .
C20B C20K C17K 120(3) . .
C20C C20K H20K 120.0 . .
C20B C20K H20K 120.0 . .
C20K C20C C20L 120.0 . .
C20K C20C C17C 118(2) . .
C20L C20C C17C 121(2) . .
C20K C20C H20C 120.0 . .
C20L C20C H20C 120.0 . .
C20C C20L C20A 120.0 . .
C20C C20L C17L 118(3) . .
C20A C20L C17L 121(2) . .
C20C C20L H20L 120.0 . .
C20A C20L H20L 120.0 . .
C20H C20D C20G 120.0 . .
C20H C20D C17D 120(2) . .
C20G C20D C17D 120(3) . .
C20H C20D H20D 120.0 . .
C20G C20D H20D 120.0 . .
C20E C20H C20D 120.0 . .
C20E C20H C17H 120.1(18) . .
C20D C20H C17H 119.9(18) . .
C20E C20H H20H 120.0 . .
C20D C20H H20H 120.0 . .
C20I C20E C20H 120.0 . .
C20I C20E C17E 121(2) . .
C20H C20E C17E 119(2) . .
C20I C20E H20E 120.0 . .
C20H C20E H20E 120.0 . .
C20E C20I C20F 120.0 . .
C20E C20I C17I 120(3) . .
C20F C20I C17I 120(3) . .
C20E C20I H20I 120.0 . .
C20F C20I H20I 120.0 . .
C20G C20F C20I 120.0 . .
C20G C20F C17F 121(2) . .
C20I C20F C17F 118(3) . .
C20G C20F H20F 120.0 . .
C20I C20F H20F 120.0 . .
C20F C20G C20D 120.0 . .
C20F C20G C17G 119(3) . .
C20D C20G C17G 120(2) . .
C20F C20G H20G 120.0 . .
C20D C20G H20G 120.0 . .
loop_
_geom_bond_atom_site_label_1
_geom_bond_atom_site_label_2
_geom_bond_distance
_geom_bond_site_symmetry_2
Tb1 O1BH 2.08(4) 7_554
Tb1 O1DJ 2.08(4) 6_544
Tb1 O101 2.26(4) .
Tb1 O201 2.27(4) .
Tb1 O3H 2.30(4) .
Tb1 O1H 2.30(4) .
Tb1 O2H 2.31(4) .
Tb1 O4H 2.47(9) .
Tb1 Tb4 3.83(2) .
Tb1 Tb2 3.84(2) .
Tb1 Tb5 3.87(2) .
Tb1 Tb3 3.88(2) .
Tb2 O2CI 2.08(4) 6_644
Tb2 O2EK 2.09(4) 5_544
Tb2 O102 2.26(4) .
Tb2 O204 2.27(4) 3_665
Tb2 O1H 2.29(4) .
Tb2 O6H 2.30(4) .
Tb2 O2H 2.31(4) .
Tb2 O5H 2.46(9) .
Tb2 Tb4 3.83(2) .
Tb2 Tb6 3.85(2) .
Tb2 Tb3 3.87(2) .
Tb3 O1AG 2.08(4) .
Tb3 O2FL 2.08(4) 3_665
Tb3 O203 2.26(4) 3_665
Tb3 O202 2.26(4) .
Tb3 O6H 2.30(4) .
Tb3 O3H 2.31(4) .
Tb3 O2H 2.31(4) .
Tb3 O7H 2.47(8) .
Tb3 Tb6 3.85(2) .
Tb3 Tb5 3.87(2) .
Tb4 O1EK 2.08(4) 5_544
Tb4 O2BH 2.08(4) 7_554
Tb4 O104 2.26(4) 2_645
Tb4 O105 2.27(4) 4
Tb4 O4H 2.30(4) .
Tb4 O5H 2.30(4) .
Tb4 O8H 2.31(4) .
Tb4 O1H 2.47(9) .
Tb4 C1H 3.03(5) 7_554
Tb4 Tb6 3.88(2) .
Tb5 O2DJ 2.08(4) 6_544
Tb5 O2AG 2.09(4) .
Tb5 O106 2.26(4) 4
Tb5 O206 2.27(4) 4
Tb5 O7H 2.30(4) .
Tb5 O4H 2.31(4) .
Tb5 O8H 2.32(4) .
Tb5 O3H 2.48(9) .
Tb5 C1G 3.01(5) .
Tb5 Tb6 3.88(2) .
Tb6 O1CI 2.08(4) 6_644
Tb6 O1FL 2.08(4) 3_665
Tb6 O103 2.26(4) 2_645
Tb6 O205 2.27(4) 4
Tb6 O5H 2.30(4) .
Tb6 O7H 2.30(4) .
Tb6 O8H 2.32(4) .
Tb6 O6H 2.48(9) .
Tb6 C1F 3.03(5) 3_665
O101 C101 1.22(4) .
O102 C101 1.22(4) .
O103 C108 1.22(4) .
O103 Tb6 2.26(4) 8_554
O104 C108 1.22(4) .
O104 Tb4 2.26(4) 8_554
O105 C115 1.23(4) .
O105 Tb4 2.27(4) 6_544
O106 C115 1.21(4) .
O106 Tb5 2.26(4) 6_544
C101 C102 1.50(2) .
C102 C103 1.3900 .
C102 C107 1.3900 .
C103 C104 1.3900 .
C103 H103 0.9500 .
C104 C105 1.3900 .
C104 H104 0.9500 .
C105 C106 1.3900 .
C105 C122 1.48(4) .
C106 C107 1.3900 .
C106 H106 0.9500 .
C107 H107 0.9500 .
C108 C109 1.50(2) .
C109 C110 1.3900 .
C109 C114 1.3900 .
C110 C111 1.3900 .
C110 H110 0.9500 .
C111 C112 1.3900 .
C111 H111 0.9500 .
C112 C113 1.3900 .
C112 C123 1.47(4) .
C113 C114 1.3900 .
C113 H113 0.9500 .
C114 H114 0.9500 .
C115 C116 1.49(2) .
C116 C117 1.3900 .
C116 C121 1.3900 .
C117 C118 1.3900 .
C117 H117 0.9500 .
C118 C119 1.3900 .
C118 H118 0.9500 .
C119 C120 1.3900 .
C119 C124 1.47(4) .
C120 C121 1.3900 .
C120 H120 0.9500 .
C121 H121 0.9500 .
C122 N101 1.3900 .
C122 N103 1.3900 .
N101 C123 1.3900 .
C123 N102 1.3900 .
N102 C124 1.3900 .
C124 N103 1.3900 .
O201 C201 1.24(4) .
O202 C201 1.22(4) .
O203 C208 1.24(4) .
O203 Tb3 2.26(4) 3_665
O204 C208 1.23(4) .
O204 Tb2 2.27(4) 3_665
O205 C215 1.22(4) .
O205 Tb6 2.27(4) 6_544
O206 C215 1.23(4) .
O206 Tb5 2.27(4) 6_544
C201 C202 1.51(2) .
C202 C203 1.3900 .
C202 C207 1.3900 .
C203 C204 1.3900 .
C203 H203 0.9500 .
C204 C205 1.3900 .
C204 H204 0.9500 .
C205 C206 1.3900 .
C205 C222 1.51(2) .
C206 C207 1.3900 .
C206 H206 0.9500 .
C207 H207 0.9500 .
C208 C209 1.50(2) .
C209 C210 1.3900 .
C209 C214 1.3900 .
C210 C211 1.3900 .
C210 H210 0.9500 .
C211 C212 1.3900 .
C211 H211 0.9500 .
C212 C213 1.3900 .
C212 C223 1.50(2) .
C213 C214 1.3900 .
C213 H213 0.9500 .
C214 H214 0.9500 .
C215 C216 1.50(2) .
C216 C217 1.3900 .
C216 C221 1.3900 .
C217 C218 1.3900 .
C217 H217 0.9500 .
C218 C219 1.3900 .
C218 H218 0.9500 .
C219 C220 1.3900 .
C219 C224 1.50(2) .
C220 C221 1.3900 .
C220 H220 0.9500 .
C221 H221 0.9500 .
C222 N201 1.3900 .
C222 N203 1.3900 .
N201 C223 1.3900 .
C223 N202 1.3900 .
N202 C224 1.3900 .
C224 N203 1.3900 .
O1AG C1G 1.20(6) .
O1AG C1A 1.20(6) .
O2AG C1G 1.22(6) .
O2AG C1A 1.25(6) .
O1BH C1B 1.21(6) .
O1BH C1H 1.22(6) .
O1BH Tb1 2.08(4) 7
O2BH C1H 1.19(6) .
O2BH C1B 1.21(6) .
O2BH Tb4 2.08(4) 7
O1CI C1C 1.21(6) .
O1CI C1I 1.22(6) .
O1CI Tb6 2.08(4) 4_565
O2CI C1I 1.20(6) .
O2CI C1C 1.22(6) .
O2CI Tb2 2.08(4) 4_565
O1DJ C1D 1.21(6) .
O1DJ C1J 1.23(6) .
O1DJ Tb1 2.08(4) 4
O2DJ C1D 1.21(6) .
O2DJ C1J 1.21(6) .
O2DJ Tb5 2.08(4) 4
O1EK C1E 1.21(6) .
O1EK C1K 1.23(6) .
O1EK Tb4 2.08(4) 5_455
O2EK C1E 1.20(6) .
O2EK C1K 1.22(6) .
O2EK Tb2 2.09(4) 5_455
O1FL C1F 1.20(6) .
O1FL C1L 1.21(6) .
O1FL Tb6 2.08(4) 3_665
O2FL C1F 1.22(6) .
O2FL C1L 1.22(6) .
O2FL Tb3 2.08(4) 3_665
C1A C2A 1.51(4) .
C2A C3A 1.3900 .
C2A C7A 1.3900(12) .
C3A C4A 1.3900 .
C3A H3A 0.9500 .
C4A C5A 1.3900(11) .
C4A H4A 0.9500 .
C5A C6A 1.3900(18) .
C5A C8A 1.51(4) .
C6A C7A 1.3900 .
C6A H6A 0.9500 .
C7A H7A 0.9500 .
C8A C9A 1.3900 .
C8A C13A 1.3900(13) .
C9A C10A 1.3900 .
C9A H9A 0.9500 .
C10A C11A 1.3900(11) .
C10A H10A 0.9500 .
C11A C12A 1.3900 .
C11A C14A 1.52(4) .
C12A C13A 1.3900 .
C12A H12A 0.9500 .
C13A H13A 0.9500 .
C14A C15A 1.3900 .
C14A C19A 1.3900 .
C15A C16A 1.3900 .
C15A H15A 0.9500 .
C16A C17A 1.3900 .
C16A H16A 0.9500 .
C17A C18A 1.3900 .
C17A C20A 1.53(3) .
C18A C19A 1.3900 .
C18A H18A 0.9500 .
C19A H19A 0.9500 .
C1B C2B 1.50(4) .
C2B C3B 1.3900(13) .
C2B C7B 1.3900 .
C3B C4B 1.3900 .
C3B H3B 0.9500 .
C4B C5B 1.3900 .
C4B H4B 0.9500 .
C5B C6B 1.3900 .
C5B C8B 1.50(4) .
C6B C7B 1.3900 .
C6B H6B 0.9500 .
C7B H7B 0.9500 .
C8B C9B 1.3900 .
C8B C13B 1.3900(12) .
C9B C10B 1.3900 .
C9B H9B 0.9500 .
C10B C11B 1.3900 .
C10B H10B 0.9500 .
C11B C12B 1.3900(10) .
C11B C14B 1.50(4) .
C12B C13B 1.3900 .
C12B H12B 0.9500 .
C13B H13B 0.9500 .
C14B C15B 1.3900 .
C14B C19B 1.3900 .
C15B C16B 1.3900 .
C15B H15B 0.9500 .
C16B C17B 1.3900 .
C16B H16B 0.9500 .
C17B C18B 1.3900 .
C17B C20B 1.53(3) .
C18B C19B 1.3900 .
C18B H18B 0.9500 .
C19B H19B 0.9500 .
C1C C2C 1.51(4) .
C2C C3C 1.3900 .
C2C C7C 1.3900 .
C3C C4C 1.3900 .
C3C H3C 0.9500 .
C4C C5C 1.3900 .
C4C H4C 0.9500 .
C5C C6C 1.3900 .
C5C C8C 1.50(4) .
C6C C7C 1.3900 .
C6C H6C 0.9500 .
C7C H7C 0.9500 .
C8C C9C 1.3900 .
C8C C13C 1.3900 .
C9C C10C 1.3900(11) .
C9C H9C 0.9500 .
C10C C11C 1.3900(11) .
C10C H10C 0.9500 .
C11C C12C 1.3900 .
C11C C14C 1.50(4) .
C12C C13C 1.3900 .
C12C H12C 0.9500 .
C13C H13C 0.9500 .
C14C C15C 1.3900(10) .
C14C C19C 1.3900 .
C15C C16C 1.3900 .
C15C H15C 0.9500 .
C16C C17C 1.3900(10) .
C16C H16C 0.9500 .
C17C C18C 1.3900 .
C17C C20C 1.52(3) .
C18C C19C 1.3900 .
C18C H18C 0.9500 .
C19C H19C 0.9500 .
C1D C2D 1.49(4) .
C2D C3D 1.3900 .
C2D C7D 1.3900 .
C3D C4D 1.3900 .
C3D H3D 0.9500 .
C4D C5D 1.3900 .
C4D H4D 0.9500 .
C5D C6D 1.3900 .
C5D C8D 1.48(4) .
C6D C7D 1.3900 .
C6D H6D 0.9500 .
C7D H7D 0.9500 .
C8D C9D 1.3900 .
C8D C13D 1.3900 .
C9D C10D 1.3900 .
C9D H9D 0.9500 .
C10D C11D 1.3900 .
C10D H10D 0.9500 .
C11D C12D 1.3900 .
C11D C14D 1.50(4) .
C12D C13D 1.3900 .
C12D H12D 0.9500 .
C13D H13D 0.9500 .
C14D C15D 1.3900 .
C14D C19D 1.3900(16) .
C15D C16D 1.3900 .
C15D H15D 0.9500 .
C16D C17D 1.3900(11) .
C16D H16D 0.9500 .
C17D C18D 1.3900(11) .
C17D C20D 1.49(4) .
C18D C19D 1.3900 .
C18D H18D 0.9500 .
C19D H19D 0.9500 .
C1E C2E 1.49(4) .
C2E C3E 1.3900 .
C2E C7E 1.3900 .
C3E C4E 1.3900 .
C3E H3E 0.9500 .
C4E C5E 1.3900(15) .
C4E H4E 0.9500 .
C5E C6E 1.3900 .
C5E C8E 1.49(4) .
C6E C7E 1.3900 .
C6E H6E 0.9500 .
C7E H7E 0.9500 .
C8E C9E 1.3900 .
C8E C13E 1.3900 .
C9E C10E 1.3900 .
C9E H9E 0.9500 .
C10E C11E 1.3900 .
C10E H10E 0.9500 .
C11E C12E 1.3900 .
C11E C14E 1.48(4) .
C12E C13E 1.3900 .
C12E H12E 0.9500 .
C13E H13E 0.9500 .
C14E C15E 1.3900(12) .
C14E C19E 1.3900 .
C15E C16E 1.3900 .
C15E H15E 0.9500 .
C16E C17E 1.3900 .
C16E H16E 0.9500 .
C17E C18E 1.3900 .
C17E C20E 1.49(4) .
C18E C19E 1.3900 .
C18E H18E 0.9500 .
C19E H19E 0.9500 .
C1F C2F 1.49(4) .
C1F Tb6 3.03(5) 3_665
C2F C3F 1.3900 .
C2F C7F 1.3900 .
C3F C4F 1.3900 .
C3F H3F 0.9500 .
C4F C5F 1.3900 .
C4F H4F 0.9500 .
C5F C6F 1.3900 .
C5F C8F 1.49(4) .
C6F C7F 1.3900 .
C6F H6F 0.9500 .
C7F H7F 0.9500 .
C8F C9F 1.3900 .
C8F C13F 1.3900 .
C9F C10F 1.3900 .
C9F H9F 0.9500 .
C10F C11F 1.3900 .
C10F H10F 0.9500 .
C11F C12F 1.3900(14) .
C11F C14F 1.49(4) .
C12F C13F 1.3900 .
C12F H12F 0.9500 .
C13F H13F 0.9500 .
C14F C15F 1.3900 .
C14F C19F 1.3900 .
C15F C16F 1.3900 .
C15F H15F 0.9500 .
C16F C17F 1.3900 .
C16F H16F 0.9500 .
C17F C18F 1.3900 .
C17F C20F 1.50(3) .
C18F C19F 1.3900 .
C18F H18F 0.9500 .
C19F H19F 0.9500 .
C1G C2G 1.49(3) .
C2G C3G 1.3900 .
C2G C7G 1.3900(11) .
C3G C4G 1.3900 .
C3G H3G 0.9500 .
C4G C5G 1.3900 .
C4G H4G 0.9500 .
C5G C6G 1.3900(12) .
C5G C8G 1.48(4) .
C6G C7G 1.3900 .
C6G H6G 0.9500 .
C7G H7G 0.9500 .
C8G C9G 1.3900 .
C8G C13G 1.3900 .
C9G C10G 1.3900 .
C9G H9G 0.9500 .
C10G C11G 1.3900 .
C10G H10G 0.9500 .
C11G C12G 1.3900 .
C11G C14G 1.48(4) .
C12G C13G 1.3900 .
C12G H12G 0.9500 .
C13G H13G 0.9500 .
C14G C15G 1.3900 .
C14G C19G 1.3900 .
C15G C16G 1.3900 .
C15G H15G 0.9500 .
C16G C17G 1.3900(11) .
C16G H16G 0.9500 .
C17G C18G 1.3900 .
C17G C20G 1.50(3) .
C18G C19G 1.3900 .
C18G H18G 0.9500 .
C19G H19G 0.9500 .
C1H C2H 1.49(4) .
C1H Tb4 3.03(5) 7
C2H C3H 1.3900 .
C2H C7H 1.3900(12) .
C3H C4H 1.3900 .
C3H H3H 0.9500 .
C4H C5H 1.3900 .
C4H H4H 0.9500 .
C5H C6H 1.3900 .
C5H C8H 1.49(4) .
C6H C7H 1.3900 .
C6H H6H 0.9500 .
C7H H7H 0.9500 .
C8H C9H 1.3900(16) .
C8H C13H 1.3900 .
C9H C10H 1.3900 .
C9H H9H 0.9500 .
C10H C11H 1.3900 .
C10H H10H 0.9500 .
C11H C12H 1.3900 .
C11H C14H 1.49(4) .
C12H C13H 1.3900 .
C12H H12H 0.9500 .
C13H H13H 0.9500 .
C14H C15H 1.3900 .
C14H C19H 1.3900(10) .
C15H C16H 1.3900 .
C15H H15H 0.9500 .
C16H C17H 1.3900 .
C16H H16H 0.9500 .
C17H C18H 1.3900 .
C17H C20H 1.54(3) .
C18H C19H 1.3900 .
C18H H18H 0.9500 .
C19H H19H 0.9500 .
C1I C2I 1.49(4) .
C2I C3I 1.3900 .
C2I C7I 1.3900 .
C3I C4I 1.3900 .
C3I H3I 0.9500 .
C4I C5I 1.3900 .
C4I H4I 0.9500 .
C5I C6I 1.3900 .
C5I C8I 1.49(4) .
C6I C7I 1.3900 .
C6I H6I 0.9500 .
C7I H7I 0.9500 .
C8I C9I 1.3900(16) .
C8I C13I 1.3900 .
C9I C10I 1.3900 .
C9I H9I 0.9500 .
C10I C11I 1.3900(10) .
C10I H10I 0.9500 .
C11I C12I 1.3900 .
C11I C14I 1.49(4) .
C12I C13I 1.3900 .
C12I H12I 0.9500 .
C13I H13I 0.9500 .
C14I C15I 1.3900 .
C14I C19I 1.3900 .
C15I C16I 1.3900 .
C15I H15I 0.9500 .
C16I C17I 1.3900 .
C16I H16I 0.9500 .
C17I C18I 1.3900 .
C17I C20I 1.50(4) .
C18I C19I 1.3900 .
C18I H18I 0.9500 .
C19I H19I 0.9500 .
C1J C2J 1.51(4) .
C2J C3J 1.3900 .
C2J C7J 1.3900 .
C3J C4J 1.3900 .
C3J H3J 0.9500 .
C4J C5J 1.3900 .
C4J H4J 0.9500 .
C5J C6J 1.3900 .
C5J C8J 1.50(4) .
C6J C7J 1.3900 .
C6J H6J 0.9500 .
C7J H7J 0.9500 .
C8J C9J 1.3900(17) .
C8J C13J 1.3900 .
C9J C10J 1.3900 .
C9J H9J 0.9500 .
C10J C11J 1.3900 .
C10J H10J 0.9500 .
C11J C12J 1.3900 .
C11J C14J 1.50(4) .
C12J C13J 1.3900 .
C12J H12J 0.9500 .
C13J H13J 0.9500 .
C14J C15J 1.3900 .
C14J C19J 1.3900 .
C15J C16J 1.3900 .
C15J H15J 0.9500 .
C16J C17J 1.3900 .
C16J H16J 0.9500 .
C17J C18J 1.3900 .
C17J C20J 1.51(4) .
C18J C19J 1.3900 .
C18J H18J 0.9500 .
C19J H19J 0.9500 .
C1K C2K 1.52(4) .
C2K C3K 1.3900(14) .
C2K C7K 1.3900 .
C3K C4K 1.3900 .
C3K H3K 0.9500 .
C4K C5K 1.3900 .
C4K H4K 0.9500 .
C5K C6K 1.3900 .
C5K C8K 1.52(4) .
C6K C7K 1.3900 .
C6K H6K 0.9500 .
C7K H7K 0.9500 .
C8K C9K 1.3900 .
C8K C13K 1.3900 .
C9K C10K 1.3900 .
C9K H9K 0.9500 .
C10K C11K 1.3900 .
C10K H10K 0.9500 .
C11K C12K 1.3900 .
C11K C14K 1.51(4) .
C12K C13K 1.3900 .
C12K H12K 0.9500 .
C13K H13K 0.9500 .
C14K C15K 1.390(2) .
C14K C19K 1.3900 .
C15K C16K 1.3900 .
C15K H15K 0.9500 .
C16K C17K 1.3900 .
C16K H16K 0.9500 .
C17K C18K 1.3900 .
C17K C20K 1.52(4) .
C18K C19K 1.3900 .
C18K H18K 0.9500 .
C19K H19K 0.9500 .
C1L C2L 1.50(4) .
C2L C3L 1.3900(11) .
C2L C7L 1.3900 .
C3L C4L 1.3900 .
C3L H3L 0.9500 .
C4L C5L 1.3900 .
C4L H4L 0.9500 .
C5L C6L 1.3900(14) .
C5L C8L 1.50(4) .
C6L C7L 1.3900 .
C6L H6L 0.9500 .
C7L H7L 0.9500 .
C8L C9L 1.3900 .
C8L C13L 1.3900 .
C9L C10L 1.3900 .
C9L H9L 0.9500 .
C10L C11L 1.3900 .
C10L H10L 0.9500 .
C11L C12L 1.3900(17) .
C11L C14L 1.50(4) .
C12L C13L 1.3900 .
C12L H12L 0.9500 .
C13L H13L 0.9500 .
C14L C15L 1.3900 .
C14L C19L 1.3900 .
C15L C16L 1.3900 .
C15L H15L 0.9500 .
C16L C17L 1.3900 .
C16L H16L 0.9500 .
C17L C18L 1.3900(17) .
C17L C20L 1.50(4) .
C18L C19L 1.3900 .
C18L H18L 0.9500 .
C19L H19L 0.9500 .
C20A C20J 1.3900 .
C20A C20L 1.3900 .
C20A H20A 0.9500 .
C20J C20B 1.3900 .
C20J H20J 0.9500 .
C20B C20K 1.3900 .
C20B H20B 0.9500 .
C20K C20C 1.3900 .
C20K H20K 0.9500 .
C20C C20L 1.3900 .
C20C H20C 0.9500 .
C20L H20L 0.9500 .
C20D C20H 1.3900 .
C20D C20G 1.3900 .
C20D H20D 0.9500 .
C20H C20E 1.3900 .
C20H H20H 0.9500 .
C20E C20I 1.3900 .
C20E H20E 0.9500 .
C20I C20F 1.3900 .
C20I H20I 0.9500 .
C20F C20G 1.3900 .
C20F H20F 0.9500 .
C20G H20G 0.9500 .
loop_
_geom_torsion_atom_site_label_1
_geom_torsion_atom_site_label_2
_geom_torsion_atom_site_label_3
_geom_torsion_atom_site_label_4
_geom_torsion
_geom_torsion_site_symmetry_1
_geom_torsion_site_symmetry_4
Tb1 O101 C101 O102 14(5) . .
Tb1 O101 C101 C102 -166(3) . .
Tb2 O102 C101 O101 -14(5) . .
Tb2 O102 C101 C102 166(3) . .
O101 C101 C102 C103 -176(6) . .
O102 C101 C102 C103 4(6) . .
O101 C101 C102 C107 4(6) . .
O102 C101 C102 C107 -176(6) . .
C107 C102 C103 C104 0.0 . .
C101 C102 C103 C104 179(4) . .
C102 C103 C104 C105 0.0 . .
C103 C104 C105 C106 0.0 . .
C103 C104 C105 C122 179(4) . .
C104 C105 C106 C107 0.00(5) . .
C122 C105 C106 C107 -179(4) . .
C105 C106 C107 C102 0.0 . .
C103 C102 C107 C106 0.0 . .
C101 C102 C107 C106 -179(4) . .
Tb4 O104 C108 O103 -8(5) 8_554 .
Tb4 O104 C108 C109 171(3) 8_554 .
Tb6 O103 C108 O104 8(5) 8_554 .
Tb6 O103 C108 C109 -171(3) 8_554 .
O104 C108 C109 C110 -26(6) . .
O103 C108 C109 C110 154(6) . .
O104 C108 C109 C114 156(6) . .
O103 C108 C109 C114 -24(6) . .
C114 C109 C110 C111 0.0 . .
C108 C109 C110 C111 -178(5) . .
C109 C110 C111 C112 0.00(8) . .
C110 C111 C112 C113 0.0 . .
C110 C111 C112 C123 175(5) . .
C111 C112 C113 C114 0.0 . .
C123 C112 C113 C114 -174(5) . .
C112 C113 C114 C109 0.00(8) . .
C110 C109 C114 C113 0.0 . .
C108 C109 C114 C113 178(5) . .
Tb5 O106 C115 O105 -13(5) 6_544 .
Tb5 O106 C115 C116 167(4) 6_544 .
Tb4 O105 C115 O106 13(5) 6_544 .
Tb4 O105 C115 C116 -168(4) 6_544 .
O106 C115 C116 C117 33(6) . .
O105 C115 C116 C117 -147(6) . .
O106 C115 C116 C121 -153(6) . .
O105 C115 C116 C121 28(6) . .
C121 C116 C117 C118 0.0 . .
C115 C116 C117 C118 175(6) . .
C116 C117 C118 C119 0.00(8) . .
C117 C118 C119 C120 0.0 . .
C117 C118 C119 C124 180(5) . .
C118 C119 C120 C121 0.0 . .
C124 C119 C120 C121 -180(5) . .
C119 C120 C121 C116 0.00(7) . .
C117 C116 C121 C120 0.0 . .
C115 C116 C121 C120 -175(6) . .
C104 C105 C122 N101 0(7) . .
C106 C105 C122 N101 179(7) . .
C104 C105 C122 N103 -178(6) . .
C106 C105 C122 N103 1(8) . .
N103 C122 N101 C123 0.0 . .
C105 C122 N101 C123 -178(5) . .
C122 N101 C123 N102 0.0 . .
C122 N101 C123 C112 172(6) . .
C111 C112 C123 N101 -148(7) . .
C113 C112 C123 N101 27(8) . .
C111 C112 C123 N102 24(8) . .
C113 C112 C123 N102 -162(7) . .
N101 C123 N102 C124 0.0 . .
C112 C123 N102 C124 -172(6) . .
C123 N102 C124 N103 0.0 . .
C123 N102 C124 C119 172(5) . .
C120 C119 C124 N102 -31(8) . .
C118 C119 C124 N102 149(7) . .
C120 C119 C124 N103 141(7) . .
C118 C119 C124 N103 -38(8) . .
N102 C124 N103 C122 0.0 . .
C119 C124 N103 C122 -172(6) . .
N101 C122 N103 C124 0.0 . .
C105 C122 N103 C124 178(5) . .
Tb3 O202 C201 O201 23(5) . .
Tb3 O202 C201 C202 -158(4) . .
Tb1 O201 C201 O202 -21(4) . .
Tb1 O201 C201 C202 159(3) . .
O202 C201 C202 C203 7(5) . .
O201 C201 C202 C203 -173(5) . .
O202 C201 C202 C207 -172(6) . .
O201 C201 C202 C207 8(6) . .
C207 C202 C203 C204 0.00(5) . .
C201 C202 C203 C204 -179(4) . .
C202 C203 C204 C205 0.00(7) . .
C203 C204 C205 C206 0.0 . .
C203 C204 C205 C222 180(5) . .
C204 C205 C206 C207 0.00(6) . .
C222 C205 C206 C207 -180(5) . .
C205 C206 C207 C202 0.00(7) . .
C203 C202 C207 C206 0.00(5) . .
C201 C202 C207 C206 179(4) . .
Tb2 O204 C208 O203 26(5) 3_665 .
Tb2 O204 C208 C209 -155(3) 3_665 .
Tb3 O203 C208 O204 -26(5) 3_665 .
Tb3 O203 C208 C209 154(4) 3_665 .
O204 C208 C209 C210 18(6) . .
O203 C208 C209 C210 -162(6) . .
O204 C208 C209 C214 -162(5) . .
O203 C208 C209 C214 18(5) . .
C214 C209 C210 C211 0.0 . .
C208 C209 C210 C211 180(4) . .
C209 C210 C211 C212 0.0 . .
C210 C211 C212 C213 0.0 . .
C210 C211 C212 C223 178(5) . .
C211 C212 C213 C214 0.0 . .
C223 C212 C213 C214 -178(5) . .
C212 C213 C214 C209 0.0 . .
C210 C209 C214 C213 0.0 . .
C208 C209 C214 C213 -180(4) . .
Tb6 O205 C215 O206 -21(5) 6_544 .
Tb6 O205 C215 C216 159(3) 6_544 .
Tb5 O206 C215 O205 21(5) 6_544 .
Tb5 O206 C215 C216 -159(3) 6_544 .
O205 C215 C216 C217 159(6) . .
O206 C215 C216 C217 -21(6) . .
O205 C215 C216 C221 -21(6) . .
O206 C215 C216 C221 160(6) . .
C221 C216 C217 C218 0.0 . .
C215 C216 C217 C218 -180(4) . .
C216 C217 C218 C219 0.0 . .
C217 C218 C219 C220 0.0 . .
C217 C218 C219 C224 178(5) . .
C218 C219 C220 C221 0.0 . .
C224 C219 C220 C221 -178(5) . .
C219 C220 C221 C216 0.0 . .
C217 C216 C221 C220 0.00(5) . .
C215 C216 C221 C220 180(5) . .
C206 C205 C222 N201 172(6) . .
C204 C205 C222 N201 -8(7) . .
C206 C205 C222 N203 -8(7) . .
C204 C205 C222 N203 172(6) . .
N203 C222 N201 C223 0.0 . .
C205 C222 N201 C223 180(6) . .
C222 N201 C223 N202 0.0 . .
C222 N201 C223 C212 179(6) . .
C213 C212 C223 N202 160(6) . .
C211 C212 C223 N202 -17(7) . .
C213 C212 C223 N201 -19(8) . .
C211 C212 C223 N201 163(6) . .
N201 C223 N202 C224 0.0 . .
C212 C223 N202 C224 -179(5) . .
C223 N202 C224 N203 0.0 . .
C223 N202 C224 C219 -179(5) . .
C218 C219 C224 N202 -158(6) . .
C220 C219 C224 N202 20(7) . .
C218 C219 C224 N203 23(7) . .
C220 C219 C224 N203 -159(6) . .
N202 C224 N203 C222 0.0 . .
C219 C224 N203 C222 179(6) . .
N201 C222 N203 C224 0.0 . .
C205 C222 N203 C224 -180(5) . .
Tb3 O1AG C1A O2AG 19(6) . .
Tb3 O1AG C1A C2A -161(5) . .
Tb5 O2AG C1A O1AG -18(5) . .
Tb5 O2AG C1A C2A 162(4) . .
O1AG C1A C2A C3A 153(11) . .
O2AG C1A C2A C3A -27(11) . .
O1AG C1A C2A C7A -27(11) . .
O2AG C1A C2A C7A 153(11) . .
C7A C2A C3A C4A 0.0 . .
C1A C2A C3A C4A -180(5) . .
C2A C3A C4A C5A 0.00(10) . .
C3A C4A C5A C6A 0.00(11) . .
C3A C4A C5A C8A -175(8) . .
C4A C5A C6A C7A 0.0 . .
C8A C5A C6A C7A 175(8) . .
C5A C6A C7A C2A 0.00(10) . .
C3A C2A C7A C6A 0.00(7) . .
C1A C2A C7A C6A 180(5) . .
C6A C5A C8A C9A -131(14) . .
C4A C5A C8A C9A 44(15) . .
C6A C5A C8A C13A 48(15) . .
C4A C5A C8A C13A -137(14) . .
C13A C8A C9A C10A 0.00(12) . .
C5A C8A C9A C10A 179(6) . .
C8A C9A C10A C11A 0.00(15) . .
C9A C10A C11A C12A 0.0 . .
C9A C10A C11A C14A -177(6) . .
C10A C11A C12A C13A 0.00(9) . .
C14A C11A C12A C13A 177(6) . .
C11A C12A C13A C8A 0.00(13) . .
C9A C8A C13A C12A 0.00(6) . .
C5A C8A C13A C12A -179(6) . .
C12A C11A C14A C15A 50(10) . .
C10A C11A C14A C15A -133(9) . .
C12A C11A C14A C19A -127(9) . .
C10A C11A C14A C19A 50(10) . .
C19A C14A C15A C16A 0.00(9) . .
C11A C14A C15A C16A -178(6) . .
C14A C15A C16A C17A 0.00(9) . .
C15A C16A C17A C18A 0.0 . .
C15A C16A C17A C20A 177(6) . .
C16A C17A C18A C19A 0.00(7) . .
C20A C17A C18A C19A -177(5) . .
C17A C18A C19A C14A 0.00(8) . .
C15A C14A C19A C18A 0.0 . .
C11A C14A C19A C18A 178(6) . .
Tb4 O2BH C1B O1BH -12(6) 7 .
Tb4 O2BH C1B C2B 168(4) 7 .
Tb1 O1BH C1B O2BH 12(5) 7 .
Tb1 O1BH C1B C2B -169(4) 7 .
O2BH C1B C2B C3B 83(11) . .
O1BH C1B C2B C3B -97(11) . .
O2BH C1B C2B C7B -96(11) . .
O1BH C1B C2B C7B 84(11) . .
C7B C2B C3B C4B 0.00(6) . .
C1B C2B C3B C4B -179(4) . .
C2B C3B C4B C5B 0.00(13) . .
C3B C4B C5B C6B 0.00(7) . .
C3B C4B C5B C8B -179(5) . .
C4B C5B C6B C7B 0.00(7) . .
C8B C5B C6B C7B 179(5) . .
C5B C6B C7B C2B 0.00(13) . .
C3B C2B C7B C6B 0.00(5) . .
C1B C2B C7B C6B 179(4) . .
C6B C5B C8B C9B 27(17) . .
C4B C5B C8B C9B -153(16) . .
C6B C5B C8B C13B -152(16) . .
C4B C5B C8B C13B 27(16) . .
C13B C8B C9B C10B 0.00(6) . .
C5B C8B C9B C10B -179(4) . .
C8B C9B C10B C11B 0.00(7) . .
C9B C10B C11B C12B 0.00(6) . .
C9B C10B C11B C14B 180(4) . .
C10B C11B C12B C13B 0.00(12) . .
C14B C11B C12B C13B -180(4) . .
C11B C12B C13B C8B 0.00(7) . .
C9B C8B C13B C12B 0.0 . .
C5B C8B C13B C12B 179(4) . .
C12B C11B C14B C15B 131(13) . .
C10B C11B C14B C15B -48(14) . .
C12B C11B C14B C19B -47(14) . .
C10B C11B C14B C19B 133(14) . .
C19B C14B C15B C16B 0.00(6) . .
C11B C14B C15B C16B -179(5) . .
C14B C15B C16B C17B 0.00(11) . .
C15B C16B C17B C18B 0.0 . .
C15B C16B C17B C20B 180(5) . .
C16B C17B C18B C19B 0.0 . .
C20B C17B C18B C19B -180(5) . .
C17B C18B C19B C14B 0.00(10) . .
C15B C14B C19B C18B 0.00(6) . .
C11B C14B C19B C18B 179(4) . .
Tb6 O1CI C1C O2CI 15(6) 4_565 .
Tb6 O1CI C1C C2C -165(4) 4_565 .
Tb2 O2CI C1C O1CI -15(6) 4_565 .
Tb2 O2CI C1C C2C 165(4) 4_565 .
O1CI C1C C2C C3C 173(11) . .
O2CI C1C C2C C3C -7(11) . .
O1CI C1C C2C C7C -9(11) . .
O2CI C1C C2C C7C 171(11) . .
C7C C2C C3C C4C 0.00(8) . .
C1C C2C C3C C4C 178(5) . .
C2C C3C C4C C5C 0.0 . .
C3C C4C C5C C6C 0.00(5) . .
C3C C4C C5C C8C -179(4) . .
C4C C5C C6C C7C 0.0 . .
C8C C5C C6C C7C 179(4) . .
C5C C6C C7C C2C 0.0 . .
C3C C2C C7C C6C 0.0 . .
C1C C2C C7C C6C -178(5) . .
C4C C5C C8C C9C 50(16) . .
C6C C5C C8C C9C -129(16) . .
C4C C5C C8C C13C -131(16) . .
C6C C5C C8C C13C 50(16) . .
C13C C8C C9C C10C 0.00(13) . .
C5C C8C C9C C10C 179(4) . .
C8C C9C C10C C11C 0.0 . .
C9C C10C C11C C12C 0.00(12) . .
C9C C10C C11C C14C -179(5) . .
C10C C11C C12C C13C 0.00(12) . .
C14C C11C C12C C13C 179(5) . .
C11C C12C C13C C8C 0.0 . .
C9C C8C C13C C12C 0.00(12) . .
C5C C8C C13C C12C -179(5) . .
C10C C11C C14C C15C 22(14) . .
C12C C11C C14C C15C -157(14) . .
C10C C11C C14C C19C -160(14) . .
C12C C11C C14C C19C 22(15) . .
C19C C14C C15C C16C 0.0 . .
C11C C14C C15C C16C 178(4) . .
C14C C15C C16C C17C 0.0 . .
C15C C16C C17C C18C 0.0 . .
C15C C16C C17C C20C -177(4) . .
C16C C17C C18C C19C 0.0 . .
C20C C17C C18C C19C 177(5) . .
C17C C18C C19C C14C 0.0 . .
C15C C14C C19C C18C 0.0 . .
C11C C14C C19C C18C -178(5) . .
Tb5 O2DJ C1D O1DJ 8(6) 4 .
Tb5 O2DJ C1D C2D -172(4) 4 .
Tb1 O1DJ C1D O2DJ -7(6) 4 .
Tb1 O1DJ C1D C2D 173(4) 4 .
O2DJ C1D C2D C3D 34(11) . .
O1DJ C1D C2D C3D -146(11) . .
O2DJ C1D C2D C7D -146(11) . .
O1DJ C1D C2D C7D 34(11) . .
C7D C2D C3D C4D 0.00(6) . .
C1D C2D C3D C4D 180(5) . .
C2D C3D C4D C5D 0.0 . .
C3D C4D C5D C6D 0.0 . .
C3D C4D C5D C8D 180(4) . .
C4D C5D C6D C7D 0.00(6) . .
C8D C5D C6D C7D -180(4) . .
C5D C6D C7D C2D 0.0 . .
C3D C2D C7D C6D 0.00(6) . .
C1D C2D C7D C6D -180(5) . .
C4D C5D C8D C9D -51(15) . .
C6D C5D C8D C9D 129(14) . .
C4D C5D C8D C13D 128(15) . .
C6D C5D C8D C13D -52(15) . .
C13D C8D C9D C10D 0.00(14) . .
C5D C8D C9D C10D 179(4) . .
C8D C9D C10D C11D 0.0 . .
C9D C10D C11D C12D 0.00(14) . .
C9D C10D C11D C14D -179(5) . .
C10D C11D C12D C13D 0.00(12) . .
C14D C11D C12D C13D 179(5) . .
C11D C12D C13D C8D 0.0 . .
C9D C8D C13D C12D 0.00(13) . .
C5D C8D C13D C12D -179(5) . .
C10D C11D C14D C15D -51(10) . .
C12D C11D C14D C15D 130(9) . .
C10D C11D C14D C19D 127(9) . .
C12D C11D C14D C19D -52(10) . .
C19D C14D C15D C16D 0.0 . .
C11D C14D C15D C16D 178(5) . .
C14D C15D C16D C17D 0.0 . .
C15D C16D C17D C18D 0.0 . .
C15D C16D C17D C20D -178(4) . .
C16D C17D C18D C19D 0.0 . .
C20D C17D C18D C19D 178(5) . .
C17D C18D C19D C14D 0.0 . .
C15D C14D C19D C18D 0.0 . .
C11D C14D C19D C18D -178(5) . .
Tb2 O2EK C1E O1EK 4(6) 5_455 .
Tb2 O2EK C1E C2E -176(4) 5_455 .
Tb4 O1EK C1E O2EK -4(6) 5_455 .
Tb4 O1EK C1E C2E 176(4) 5_455 .
O2EK C1E C2E C3E 2(12) . .
O1EK C1E C2E C3E -177(12) . .
O2EK C1E C2E C7E -178(11) . .
O1EK C1E C2E C7E 2(11) . .
C7E C2E C3E C4E 0.00(11) . .
C1E C2E C3E C4E 180(5) . .
C2E C3E C4E C5E 0.00(14) . .
C3E C4E C5E C6E 0.0 . .
C3E C4E C5E C8E -180(5) . .
C4E C5E C6E C7E 0.00(9) . .
C8E C5E C6E C7E 180(4) . .
C5E C6E C7E C2E 0.00(11) . .
C3E C2E C7E C6E 0.00(5) . .
C1E C2E C7E C6E -180(5) . .
C6E C5E C8E C9E 117(17) . .
C4E C5E C8E C9E -64(17) . .
C6E C5E C8E C13E -64(17) . .
C4E C5E C8E C13E 116(17) . .
C13E C8E C9E C10E 0.0 . .
C5E C8E C9E C10E 180(5) . .
C8E C9E C10E C11E 0.00(13) . .
C9E C10E C11E C12E 0.00(10) . .
C9E C10E C11E C14E -178(5) . .
C10E C11E C12E C13E 0.00(10) . .
C14E C11E C12E C13E 178(5) . .
C11E C12E C13E C8E 0.00(8) . .
C9E C8E C13E C12E 0.00(11) . .
C5E C8E C13E C12E -180(4) . .
C12E C11E C14E C15E -175(15) . .
C10E C11E C14E C15E 4(15) . .
C12E C11E C14E C19E 4(15) . .
C10E C11E C14E C19E -178(15) . .
C19E C14E C15E C16E 0.0 . .
C11E C14E C15E C16E 178(5) . .
C14E C15E C16E C17E 0.00(12) . .
C15E C16E C17E C18E 0.00(7) . .
C15E C16E C17E C20E -180(5) . .
C16E C17E C18E C19E 0.00(10) . .
C20E C17E C18E C19E 180(5) . .
C17E C18E C19E C14E 0.0 . .
C15E C14E C19E C18E 0.00(8) . .
C11E C14E C19E C18E -178(5) . .
Tb6 O1FL C1F O2FL -5(6) 3_665 .
Tb6 O1FL C1F C2F 175(4) 3_665 .
Tb3 O2FL C1F O1FL 5(5) 3_665 .
Tb3 O2FL C1F C2F -175(4) 3_665 .
Tb3 O2FL C1F Tb6 2(3) 3_665 3_665
O1FL C1F C2F C3F 115(9) . .
O2FL C1F C2F C3F -65(9) . .
Tb6 C1F C2F C3F 119(9) 3_665 .
O1FL C1F C2F C7F -67(9) . .
O2FL C1F C2F C7F 112(9) . .
Tb6 C1F C2F C7F -63(9) 3_665 .
C7F C2F C3F C4F 0.0 . .
C1F C2F C3F C4F 177(4) . .
C2F C3F C4F C5F 0.00(11) . .
C3F C4F C5F C6F 0.00(5) . .
C3F C4F C5F C8F -178(5) . .
C4F C5F C6F C7F 0.00(6) . .
C8F C5F C6F C7F 178(4) . .
C3F C2F C7F C6F 0.0 . .
C1F C2F C7F C6F -177(4) . .
C5F C6F C7F C2F 0.00(12) . .
C4F C5F C8F C9F 55(9) . .
C6F C5F C8F C9F -124(9) . .
C4F C5F C8F C13F -127(9) . .
C6F C5F C8F C13F 55(9) . .
C13F C8F C9F C10F 0.0 . .
C5F C8F C9F C10F 179(4) . .
C8F C9F C10F C11F 0.00(12) . .
C9F C10F C11F C12F 0.00(8) . .
C9F C10F C11F C14F 179(4) . .
C10F C11F C12F C13F 0.00(7) . .
C14F C11F C12F C13F -179(4) . .
C11F C12F C13F C8F 0.00(11) . .
C9F C8F C13F C12F 0.00(8) . .
C5F C8F C13F C12F -179(4) . .
C12F C11F C14F C15F 116(13) . .
C10F C11F C14F C15F -63(13) . .
C12F C11F C14F C19F -64(13) . .
C10F C11F C14F C19F 117(13) . .
C19F C14F C15F C16F 0.00(6) . .
C11F C14F C15F C16F -180(4) . .
C14F C15F C16F C17F 0.00(10) . .
C15F C16F C17F C18F 0.0 . .
C15F C16F C17F C20F 178(4) . .
C16F C17F C18F C19F 0.0 . .
C20F C17F C18F C19F -178(4) . .
C17F C18F C19F C14F 0.00(12) . .
C15F C14F C19F C18F 0.00(5) . .
C11F C14F C19F C18F 180(4) . .
Tb3 O1AG C1G O2AG -11(6) . .
Tb3 O1AG C1G C2G 169(4) . .
Tb3 O1AG C1G Tb5 -5(3) . .
Tb5 O2AG C1G O1AG 10(6) . .
Tb5 O2AG C1G C2G -170(4) . .
O1AG C1G C2G C3G 161(11) . .
O2AG C1G C2G C3G -19(11) . .
Tb5 C1G C2G C3G -28(12) . .
O1AG C1G C2G C7G -17(11) . .
O2AG C1G C2G C7G 163(11) . .
Tb5 C1G C2G C7G 154(11) . .
C7G C2G C3G C4G 0.0 . .
C1G C2G C3G C4G -179(5) . .
C2G C3G C4G C5G 0.00(5) . .
C3G C4G C5G C6G 0.0 . .
C3G C4G C5G C8G 179(5) . .
C4G C5G C6G C7G 0.00(5) . .
C8G C5G C6G C7G -179(4) . .
C5G C6G C7G C2G 0.0 . .
C3G C2G C7G C6G 0.0 . .
C1G C2G C7G C6G 179(5) . .
C6G C5G C8G C9G 81(15) . .
C4G C5G C8G C9G -98(16) . .
C6G C5G C8G C13G -100(15) . .
C4G C5G C8G C13G 81(16) . .
C13G C8G C9G C10G 0.00(7) . .
C5G C8G C9G C10G 179(4) . .
C8G C9G C10G C11G 0.00(12) . .
C9G C10G C11G C12G 0.00(7) . .
C9G C10G C11G C14G -176(4) . .
C10G C11G C12G C13G 0.00(10) . .
C14G C11G C12G C13G 176(4) . .
C11G C12G C13G C8G 0.00(10) . .
C9G C8G C13G C12G 0.00(6) . .
C5G C8G C13G C12G -179(4) . .
C12G C11G C14G C15G 77(14) . .
C10G C11G C14G C15G -107(13) . .
C12G C11G C14G C19G -103(14) . .
C10G C11G C14G C19G 73(14) . .
C19G C14G C15G C16G 0.00(9) . .
C11G C14G C15G C16G -180(5) . .
C14G C15G C16G C17G 0.00(12) . .
C15G C16G C17G C18G 0.0 . .
C15G C16G C17G C20G 180(4) . .
C16G C17G C18G C19G 0.00(6) . .
C20G C17G C18G C19G -180(4) . .
C17G C18G C19G C14G 0.00(10) . .
C15G C14G C19G C18G 0.0 . .
C11G C14G C19G C18G 180(4) . .
Tb4 O2BH C1H O1BH 4(6) 7 .
Tb4 O2BH C1H C2H -176(4) 7 .
Tb1 O1BH C1H O2BH -4(6) 7 .
Tb1 O1BH C1H C2H 176(4) 7 .
Tb1 O1BH C1H Tb4 -2(3) 7 7
O2BH C1H C2H C3H -27(9) . .
O1BH C1H C2H C3H 153(9) . .
Tb4 C1H C2H C3H -31(10) 7 .
O2BH C1H C2H C7H 154(9) . .
O1BH C1H C2H C7H -26(9) . .
Tb4 C1H C2H C7H 151(9) 7 .
C7H C2H C3H C4H 0.00(9) . .
C1H C2H C3H C4H -179(5) . .
C2H C3H C4H C5H 0.00(8) . .
C3H C4H C5H C6H 0.0 . .
C3H C4H C5H C8H -179(5) . .
C4H C5H C6H C7H 0.0 . .
C8H C5H C6H C7H 179(4) . .
C5H C6H C7H C2H 0.00(5) . .
C3H C2H C7H C6H 0.00(8) . .
C1H C2H C7H C6H 179(5) . .
C6H C5H C8H C9H -122(9) . .
C4H C5H C8H C9H 57(9) . .
C6H C5H C8H C13H 57(9) . .
C4H C5H C8H C13H -124(9) . .
C13H C8H C9H C10H 0.0 . .
C5H C8H C9H C10H 179(4) . .
C8H C9H C10H C11H 0.00(11) . .
C9H C10H C11H C12H 0.00(10) . .
C9H C10H C11H C14H 180(4) . .
C10H C11H C12H C13H 0.00(7) . .
C14H C11H C12H C13H -180(4) . .
C11H C12H C13H C8H 0.00(7) . .
C9H C8H C13H C12H 0.00(6) . .
C5H C8H C13H C12H -179(4) . .
C12H C11H C14H C15H 118(9) . .
C10H C11H C14H C15H -62(9) . .
C12H C11H C14H C19H -65(9) . .
C10H C11H C14H C19H 115(9) . .
C19H C14H C15H C16H 0.00(9) . .
C11H C14H C15H C16H 177(4) . .
C14H C15H C16H C17H 0.00(9) . .
C15H C16H C17H C18H 0.0 . .
C15H C16H C17H C20H -179(4) . .
C16H C17H C18H C19H 0.00(6) . .
C20H C17H C18H C19H 179(4) . .
C17H C18H C19H C14H 0.00(7) . .
C15H C14H C19H C18H 0.00(7) . .
C11H C14H C19H C18H -177(4) . .
Tb2 O2CI C1I O1CI 9(6) 4_565 .
Tb2 O2CI C1I C2I -171(4) 4_565 .
Tb6 O1CI C1I O2CI -9(6) 4_565 .
Tb6 O1CI C1I C2I 171(4) 4_565 .
O2CI C1I C2I C3I -8(11) . .
O1CI C1I C2I C3I 172(11) . .
O2CI C1I C2I C7I 172(11) . .
O1CI C1I C2I C7I -8(11) . .
C7I C2I C3I C4I 0.00(7) . .
C1I C2I C3I C4I 180(5) . .
C2I C3I C4I C5I 0.00(7) . .
C3I C4I C5I C6I 0.00(8) . .
C3I C4I C5I C8I 180(4) . .
C4I C5I C6I C7I 0.0 . .
C8I C5I C6I C7I -180(4) . .
C5I C6I C7I C2I 0.0 . .
C3I C2I C7I C6I 0.00(6) . .
C1I C2I C7I C6I -180(5) . .
C4I C5I C8I C9I 57(16) . .
C6I C5I C8I C9I -123(16) . .
C4I C5I C8I C13I -121(16) . .
C6I C5I C8I C13I 59(16) . .
C13I C8I C9I C10I 0.00(12) . .
C5I C8I C9I C10I -179(5) . .
C8I C9I C10I C11I 0.0 . .
C9I C10I C11I C12I 0.00(11) . .
C9I C10I C11I C14I 177(4) . .
C10I C11I C12I C13I 0.00(9) . .
C14I C11I C12I C13I -177(4) . .
C11I C12I C13I C8I 0.0 . .
C9I C8I C13I C12I 0.00(9) . .
C5I C8I C13I C12I 179(5) . .
C10I C11I C14I C15I -78(15) . .
C12I C11I C14I C15I 99(15) . .
C10I C11I C14I C19I 102(15) . .
C12I C11I C14I C19I -80(15) . .
C19I C14I C15I C16I 0.0 . .
C11I C14I C15I C16I -180(5) . .
C14I C15I C16I C17I 0.0 . .
C15I C16I C17I C18I 0.00(6) . .
C15I C16I C17I C20I 176(8) . .
C16I C17I C18I C19I 0.00(7) . .
C20I C17I C18I C19I -176(8) . .
C17I C18I C19I C14I 0.0 . .
C15I C14I C19I C18I 0.00(7) . .
C11I C14I C19I C18I 180(5) . .
Tb5 O2DJ C1J O1DJ -12(6) 4 .
Tb5 O2DJ C1J C2J 168(4) 4 .
Tb1 O1DJ C1J O2DJ 13(6) 4 .
Tb1 O1DJ C1J C2J -168(4) 4 .
O2DJ C1J C2J C3J 20(11) . .
O1DJ C1J C2J C3J -160(11) . .
O2DJ C1J C2J C7J -161(11) . .
O1DJ C1J C2J C7J 19(11) . .
C7J C2J C3J C4J 0.0 . .
C1J C2J C3J C4J 179(5) . .
C2J C3J C4J C5J 0.0 . .
C3J C4J C5J C6J 0.0 . .
C3J C4J C5J C8J -179(4) . .
C4J C5J C6J C7J 0.0 . .
C8J C5J C6J C7J 179(4) . .
C5J C6J C7J C2J 0.00(6) . .
C3J C2J C7J C6J 0.0 . .
C1J C2J C7J C6J -179(5) . .
C6J C5J C8J C9J -103(16) . .
C4J C5J C8J C9J 76(15) . .
C6J C5J C8J C13J 76(16) . .
C4J C5J C8J C13J -106(16) . .
C13J C8J C9J C10J 0.00(6) . .
C5J C8J C9J C10J 179(4) . .
C8J C9J C10J C11J 0.00(6) . .
C9J C10J C11J C12J 0.00(7) . .
C9J C10J C11J C14J 179(4) . .
C10J C11J C12J C13J 0.00(6) . .
C14J C11J C12J C13J -179(4) . .
C11J C12J C13J C8J 0.00(6) . .
C9J C8J C13J C12J 0.00(6) . .
C5J C8J C13J C12J -179(4) . .
C10J C11J C14J C15J -50(12) . .
C12J C11J C14J C15J 129(12) . .
C10J C11J C14J C19J 130(12) . .
C12J C11J C14J C19J -51(12) . .
C19J C14J C15J C16J 0.00(9) . .
C11J C14J C15J C16J 180(4) . .
C14J C15J C16J C17J 0.0 . .
C15J C16J C17J C18J 0.00(6) . .
C15J C16J C17J C20J 179(4) . .
C16J C17J C18J C19J 0.00(9) . .
C20J C17J C18J C19J -179(4) . .
C17J C18J C19J C14J 0.0 . .
C15J C14J C19J C18J 0.00(9) . .
C11J C14J C19J C18J -180(5) . .
Tb2 O2EK C1K O1EK -16(6) 5_455 .
Tb2 O2EK C1K C2K 165(4) 5_455 .
Tb4 O1EK C1K O2EK 16(6) 5_455 .
Tb4 O1EK C1K C2K -165(4) 5_455 .
O2EK C1K C2K C3K -45(12) . .
O1EK C1K C2K C3K 136(12) . .
O2EK C1K C2K C7K 137(11) . .
O1EK C1K C2K C7K -43(11) . .
C7K C2K C3K C4K 0.00(5) . .
C1K C2K C3K C4K -179(5) . .
C2K C3K C4K C5K 0.00(8) . .
C3K C4K C5K C6K 0.00(9) . .
C3K C4K C5K C8K -179(4) . .
C4K C5K C6K C7K 0.00(12) . .
C8K C5K C6K C7K 179(4) . .
C5K C6K C7K C2K 0.00(6) . .
C3K C2K C7K C6K 0.00(7) . .
C1K C2K C7K C6K 179(5) . .
C4K C5K C8K C9K 117(16) . .
C6K C5K C8K C9K -62(16) . .
C4K C5K C8K C13K -63(16) . .
C6K C5K C8K C13K 118(16) . .
C13K C8K C9K C10K 0.00(11) . .
C5K C8K C9K C10K -180(4) . .
C8K C9K C10K C11K 0.00(6) . .
C9K C10K C11K C12K 0.00(6) . .
C9K C10K C11K C14K -180(4) . .
C10K C11K C12K C13K 0.00(6) . .
C14K C11K C12K C13K 180(4) . .
C11K C12K C13K C8K 0.00(10) . .
C9K C8K C13K C12K 0.00(14) . .
C5K C8K C13K C12K 180(4) . .
C12K C11K C14K C15K 147(15) . .
C10K C11K C14K C15K -33(15) . .
C12K C11K C14K C19K -35(15) . .
C10K C11K C14K C19K 145(15) . .
C19K C14K C15K C16K 0.0 . .
C11K C14K C15K C16K 178(4) . .
C14K C15K C16K C17K 0.00(10) . .
C15K C16K C17K C18K 0.00(7) . .
C15K C16K C17K C20K -179(4) . .
C16K C17K C18K C19K 0.0 . .
C20K C17K C18K C19K 179(4) . .
C17K C18K C19K C14K 0.00(11) . .
C15K C14K C19K C18K 0.00(8) . .
C11K C14K C19K C18K -178(5) . .
Tb6 O1FL C1L O2FL 9(6) 3_665 .
Tb6 O1FL C1L C2L -171(4) 3_665 .
Tb3 O2FL C1L O1FL -9(6) 3_665 .
Tb3 O2FL C1L C2L 171(4) 3_665 .
O1FL C1L C2L C3L -172(12) . .
O2FL C1L C2L C3L 8(12) . .
O1FL C1L C2L C7L 10(12) . .
O2FL C1L C2L C7L -170(12) . .
C7L C2L C3L C4L 0.0 . .
C1L C2L C3L C4L -178(5) . .
C2L C3L C4L C5L 0.00(10) . .
C3L C4L C5L C6L 0.00(12) . .
C3L C4L C5L C8L 179(5) . .
C4L C5L C6L C7L 0.00(6) . .
C8L C5L C6L C7L -179(5) . .
C5L C6L C7L C2L 0.00(7) . .
C3L C2L C7L C6L 0.00(5) . .
C1L C2L C7L C6L 178(5) . .
C4L C5L C8L C9L -50(16) . .
C6L C5L C8L C9L 128(16) . .
C4L C5L C8L C13L 130(16) . .
C6L C5L C8L C13L -51(16) . .
C13L C8L C9L C10L 0.00(10) . .
C5L C8L C9L C10L -179(4) . .
C8L C9L C10L C11L 0.00(7) . .
C9L C10L C11L C12L 0.00(6) . .
C9L C10L C11L C14L 179(4) . .
C10L C11L C12L C13L 0.0 . .
C14L C11L C12L C13L -179(4) . .
C11L C12L C13L C8L 0.00(13) . .
C9L C8L C13L C12L 0.00(9) . .
C5L C8L C13L C12L 179(4) . .
C10L C11L C14L C15L -112(16) . .
C12L C11L C14L C15L 67(16) . .
C10L C11L C14L C19L 69(16) . .
C12L C11L C14L C19L -112(16) . .
C19L C14L C15L C16L 0.0 . .
C11L C14L C15L C16L -179(5) . .
C14L C15L C16L C17L 0.00(11) . .
C15L C16L C17L C18L 0.00(8) . .
C15L C16L C17L C20L 178(5) . .
C16L C17L C18L C19L 0.00(7) . .
C20L C17L C18L C19L -178(5) . .
C17L C18L C19L C14L 0.00(5) . .
C15L C14L C19L C18L 0.00(7) . .
C11L C14L C19L C18L 179(4) . .
C16A C17A C20A C20J 132(8) . .
C18A C17A C20A C20J -52(9) . .
C16A C17A C20A C20L -56(9) . .
C18A C17A C20A C20L 121(9) . .
C20L C20A C20J C20B 0.00(5) . .
C17A C20A C20J C20B 172(6) . .
C20L C20A C20J C17J -169(6) . .
C18J C17J C20J C20A -64(10) . .
C16J C17J C20J C20A 117(9) . .
C18J C17J C20J C20B 127(9) . .
C16J C17J C20J C20B -52(10) . .
C20A C20J C20B C20K 0.00(6) . .
C17J C20J C20B C20K 169(6) . .
C20A C20J C20B C17B -173(6) . .
C16B C17B C20B C20J -48(8) . .
C18B C17B C20B C20J 132(8) . .
C16B C17B C20B C20K 139(8) . .
C18B C17B C20B C20K -41(8) . .
C20J C20B C20K C20C 0.0 . .
C17B C20B C20K C20C 173(6) . .
C20J C20B C20K C17K -176(6) . .
C18K C17K C20K C20C 128(10) . .
C16K C17K C20K C20C -53(10) . .
C18K C17K C20K C20B -56(11) . .
C16K C17K C20K C20B 122(10) . .
C20B C20K C20C C20L 0.00(7) . .
C17K C20K C20C C20L 176(6) . .
C20B C20K C20C C17C -177(6) . .
C16C C17C C20C C20K 127(8) . .
C18C C17C C20C C20K -50(9) . .
C16C C17C C20C C20L -51(8) . .
C18C C17C C20C C20L 132(8) . .
C20K C20C C20L C20A 0.00(6) . .
C17C C20C C20L C20A 177(6) . .
C20K C20C C20L C17L -169(6) . .
C20J C20A C20L C20C 0.0 . .
C17A C20A C20L C20C -172(6) . .
C20J C20A C20L C17L 169(6) . .
C16L C17L C20L C20C -48(12) . .
C18L C17L C20L C20C 129(11) . .
C16L C17L C20L C20A 142(11) . .
C18L C17L C20L C20A -40(11) . .
C18D C17D C20D C20H -138(10) . .
C16D C17D C20D C20H 41(10) . .
C18D C17D C20D C20G 51(10) . .
C16D C17D C20D C20G -131(10) . .
C20G C20D C20H C20E 0.00(7) . .
C17D C20D C20H C20E -172(6) . .
C20G C20D C20H C17H 179(6) . .
C16H C17H C20H C20E 44(7) . .
C18H C17H C20H C20E -134(6) . .
C16H C17H C20H C20D -135(6) . .
C18H C17H C20H C20D 46(6) . .
C20D C20H C20E C20I 0.0 . .
C17H C20H C20E C20I -179(6) . .
C20D C20H C20E C17E -178(6) . .
C18E C17E C20E C20I -133(11) . .
C16E C17E C20E C20I 47(11) . .
C18E C17E C20E C20H 45(11) . .
C16E C17E C20E C20H -135(11) . .
C20H C20E C20I C20F 0.00(7) . .
C17E C20E C20I C20F 178(6) . .
C20H C20E C20I C17I 178(7) . .
C18I C17I C20I C20E 53(10) . .
C16I C17I C20I C20E -123(9) . .
C18I C17I C20I C20F -129(9) . .
C16I C17I C20I C20F 55(10) . .
C20E C20I C20F C20G 0.00(6) . .
C17I C20I C20F C20G -178(7) . .
C20E C20I C20F C17F 166(6) . .
C16F C17F C20F C20G 57(9) . .
C18F C17F C20F C20G -126(9) . .
C16F C17F C20F C20I -109(9) . .
C18F C17F C20F C20I 69(9) . .
C20I C20F C20G C20D 0.0 . .
C17F C20F C20G C20D -165(6) . .
C20I C20F C20G C17G 168(6) . .
C20H C20D C20G C20F 0.00(7) . .
C17D C20D C20G C20F 172(6) . .
C20H C20D C20G C17G -168(6) . .
C18G C17G C20G C20F -121(9) . .
C16G C17G C20G C20F 60(9) . .
C18G C17G C20G C20D 48(9) . .
C16G C17G C20G C20D -132(8) . .
loop_
_platon_squeeze_void_nr
_platon_squeeze_void_average_x
_platon_squeeze_void_average_y
_platon_squeeze_void_average_z
_platon_squeeze_void_volume
_platon_squeeze_void_count_electrons
_platon_squeeze_void_content
1 -0.002 -0.011 0.002 60686 18512 ' '
