#------------------------------------------------------------------------------
#$Date: 2019-11-26 05:26:10 +0200 (Tue, 26 Nov 2019) $
#$Revision: 242708 $
#$URL: file:///home/coder/svn-repositories/cod/cif/4/13/28/4132807.cif $
#------------------------------------------------------------------------------
#
# This file is available in the Crystallography Open Database (COD),
# http://www.crystallography.net/
#
# All data on this site have been placed in the public domain by the
# contributors.
#
data_4132807
loop_
_publ_author_name
'Xu, Li-Li'
'Zhang, Hai-Feng'
'Li, Mian'
'Ng, Seik Weng'
'Feng, Jiang-He'
'Mao, Jiang-Gao'
'Li, Dan'
_publ_section_title
;
 Chiroptical Activity from an Achiral Biological Metal-Organic Framework.
;
_journal_issue                   37
_journal_name_full               'Journal of the American Chemical Society'
_journal_page_first              11569
_journal_page_last               11572
_journal_paper_doi               10.1021/jacs.8b06725
_journal_volume                  140
_journal_year                    2018
_chemical_formula_moiety         'Zn (C5 H5 N5) (C6 H2 O5), 0.5(C3 H7 N O)'
_chemical_formula_sum            'C12.5 H10.5 N5.5 O5.5 Zn'
_chemical_formula_weight         391.13
_space_group_crystal_system      tetragonal
_space_group_IT_number           119
_space_group_name_Hall           'I -4 -2'
_space_group_name_H-M_alt        'I -4 m 2'
_atom_sites_solution_hydrogens   geom
_audit_creation_method           SHELXL-2014/6
_cell_angle_alpha                90
_cell_angle_beta                 90
_cell_angle_gamma                90
_cell_formula_units_Z            8
_cell_length_a                   15.6362(1)
_cell_length_b                   15.6362
_cell_length_c                   13.9515(1)
_cell_measurement_reflns_used    7549
_cell_measurement_temperature    100(2)
_cell_measurement_theta_max      74.3340
_cell_measurement_theta_min      3.9790
_cell_volume                     3411.01(3)
_computing_structure_refinement  'SHELXL-2014/6 (Sheldrick, 2014)'
_diffrn_ambient_temperature      100(2)
_diffrn_measured_fraction_theta_full 0.986
_diffrn_measured_fraction_theta_max 0.980
_diffrn_measurement_device_type  'Enhance (Cu) X-ray Source'
_diffrn_radiation_type           CuK\a
_diffrn_radiation_wavelength     1.54184
_diffrn_reflns_av_R_equivalents  0.0163
_diffrn_reflns_av_unetI/netI     0.0084
_diffrn_reflns_Laue_measured_fraction_full 0.986
_diffrn_reflns_Laue_measured_fraction_max 0.980
_diffrn_reflns_limit_h_max       19
_diffrn_reflns_limit_h_min       -15
_diffrn_reflns_limit_k_max       19
_diffrn_reflns_limit_k_min       -13
_diffrn_reflns_limit_l_max       16
_diffrn_reflns_limit_l_min       -17
_diffrn_reflns_number            8004
_diffrn_reflns_point_group_measured_fraction_full 0.990
_diffrn_reflns_point_group_measured_fraction_max 0.984
_diffrn_reflns_theta_full        67.684
_diffrn_reflns_theta_max         74.738
_diffrn_reflns_theta_min         4.247
_exptl_absorpt_coefficient_mu    2.356
_exptl_absorpt_correction_T_max  1.000
_exptl_absorpt_correction_T_min  0.239
_exptl_absorpt_correction_type   gaussian
_exptl_crystal_colour            colorless
_exptl_crystal_density_diffrn    1.523
_exptl_crystal_description       prism
_exptl_crystal_F_000             1584
_exptl_crystal_size_max          0.500
_exptl_crystal_size_mid          0.400
_exptl_crystal_size_min          0.300
_refine_diff_density_max         0.430
_refine_diff_density_min         -0.510
_refine_diff_density_rms         0.089
_refine_ls_abs_structure_details
;
 Refined as an inversion twin.
;
_refine_ls_abs_structure_Flack   0.03(5)
_refine_ls_extinction_coef       0.0044(2)
_refine_ls_extinction_expression Fc^*^=kFc[1+0.001xFc^2^\l^3^/sin(2\q)]^-1/4^
_refine_ls_extinction_method     SHELXL
_refine_ls_goodness_of_fit_ref   1.026
_refine_ls_hydrogen_treatment    constr
_refine_ls_matrix_type           full
_refine_ls_number_parameters     110
_refine_ls_number_reflns         1826
_refine_ls_number_restraints     0
_refine_ls_restrained_S_all      1.026
_refine_ls_R_factor_all          0.0279
_refine_ls_R_factor_gt           0.0279
_refine_ls_shift/su_max          0.001
_refine_ls_shift/su_mean         0.001
_refine_ls_structure_factor_coef Fsqd
_refine_ls_weighting_details
'w=1/[\s^2^(Fo^2^)+(0.0558P)^2^+4.1685P] where P=(Fo^2^+2Fc^2^)/3'
_refine_ls_weighting_scheme      calc
_refine_ls_wR_factor_gt          0.0792
_refine_ls_wR_factor_ref         0.0792
_reflns_Friedel_coverage         0.837
_reflns_Friedel_fraction_full    0.996
_reflns_Friedel_fraction_max     0.988
_reflns_number_gt                1826
_reflns_number_total             1826
_reflns_threshold_expression     'I > 2\s(I)'
_cod_data_source_file            ZnFDCA_negative.cif
_cod_data_source_block           zn
_cod_original_cell_volume        3411.01(5)
_cod_database_code               4132807
_shelx_estimated_absorpt_t_min   0.385
_shelx_estimated_absorpt_t_max   0.538
_shelxl_version_number           2014/6
_shelx_res_file
;
TITL  I-4m2
rem   Zn (C5 H5 N5) (C6 H2 O5), 0.5(C3 H7 N O)
rem   0.5DMF assumed
CELL  1.54184 15.6362 15.6362 13.9515 90.0000 90.0000 90.0000
ZERR  8        0.0001  0.0000  0.0001  0.0000  0.0000  0.0000
LATT -2
SYMM -X,-Y,Z
SYMM -Y,-X,-Z
SYMM  Y,X,-Z
SYMM -X,Y,Z
SYMM  X,-Y,Z
SYMM -Y,X,-Z
SYMM  Y,-X,-Z
SFAC  C H N O Zn
UNIT  100 84 44 44 8
ACTA
OMIT   1   1   0
OMIT   2   2   0
OMIT   2   4   0
OMIT   1   7   0
OMIT   1   9   0
OMIT   3   9   0
OMIT   2  10   0
OMIT   1   1   2
OMIT   3   1   2
OMIT   1   3   2
OMIT   3   3   2
OMIT   4   7   5
OMIT   7  12   9
OMIT   1   1  10
OMIT  10   4  10
OMIT  12   4  10
OMIT   4  10  10
OMIT   4  12  10
SIZE  0.5 0.4 0.3
L.S.  10 0 13
FMAP  2
PLAN -1
EXYZ  N2 C2'
EXYZ  C6 N6'
EADP  N2 C2'
EADP  C6 N6'
TWIN
EQIV  $1 1/2-Y,1/2-X,1/2-Z
FREE  Zn1 C1 Zn1 C1_$1
ABIN
WGHT    0.055800    4.168500
EXTI    0.004446
BASF   0.02562
FVAR       3.46771
ZN1   5    0.187784    0.312216    0.250000    10.50000    0.01163    0.01163 =
         0.02411   -0.00189   -0.00189   -0.00007
O1    4    0.178069    0.219361    0.147307    11.00000    0.02506    0.01173 =
         0.04122   -0.00820    0.00119   -0.00170
O2    4    0.199632    0.156904    0.287911    11.00000    0.04420    0.03322 =
         0.02988   -0.02115   -0.00072   -0.00226
O3    4    0.192631    0.000000    0.208555    10.50000    0.03471    0.01762 =
         0.01378    0.00000   -0.00207    0.00000
N1    3    0.184076    0.427483    0.184864    11.00000    0.01604    0.01766 =
         0.01495    0.00217    0.00457    0.00128
PART  1
N2    3    0.261571    0.457530   -0.055359    10.50000    0.05216    0.03476 =
         0.01614   -0.00600    0.01414    0.00437
AFIX  43  0.8800
H2    2    0.278450    0.431359   -0.107899    10.50000   -1.20000
AFIX   0
N3    3    0.236683    0.325756   -0.000119    10.50000    0.02826    0.01436 =
         0.01198   -0.00356    0.00674   -0.00225
AFIX  93  0.8800
H32   2    0.250999    0.307631   -0.057636    10.50000   -1.20000
H31   2    0.221788    0.288809    0.044432    10.50000   -1.20000
AFIX   0
PART  2
C2'   1    0.261571    0.457530   -0.055359    10.50000    0.05216    0.03476 =
         0.01614   -0.00600    0.01414    0.00437
AFIX  43
H2'   2    0.279408    0.429872   -0.110883    10.50000   -1.20000
AFIX   0
PART  0
C1    1    0.189261    0.153457    0.198549    11.00000    0.02067    0.02462 =
         0.02943   -0.01144    0.00052    0.00051
C2    1    0.193201    0.070036    0.150565    11.00000    0.03155    0.01482 =
         0.01495    0.00279   -0.00237    0.00032
C3    1    0.196179    0.045595    0.056396    11.00000    0.04157    0.01605 =
         0.02010    0.00309    0.00009    0.00108
AFIX  43
H3    2    0.197866    0.081301    0.003119    11.00000   -1.20000
AFIX   0
C4    1    0.167804    0.500000    0.232823    10.50000    0.02039    0.01578 =
         0.01748    0.00000    0.01014    0.00000
AFIX  43
H4    2    0.146664    0.500000    0.295130    10.50000   -1.20000
AFIX   0
C5    1    0.212749    0.455586    0.097755    11.00000    0.01950    0.02232 =
         0.01625    0.00287    0.00800    0.00212
PART  1
C6    1    0.237557    0.408663    0.019398    10.50000    0.03577    0.01968 =
         0.02648    0.00038    0.01077   -0.00009
PART  2
N6'   3    0.237557    0.408663    0.019398    10.50000    0.03577    0.01968 =
         0.02648    0.00038    0.01077   -0.00009
PART  0
eqiv  $2 1/2-x,1/2-y,-1/2+z
htab  n2 o2_$2
htab  n3 o1
HKLF      4

REM   I-4m2
REM R1 =  0.0279 for    1826 Fo > 4sig(Fo)  and  0.0279 for all    1826 data
REM    110 parameters refined using      0 restraints

END

WGHT      0.0441      3.3007

REM Highest difference peak  0.430,  deepest hole -0.510,  1-sigma level  0.089
Q1    1   0.0000  0.5000  0.1017  10.25000  0.05    0.43
;
_shelx_res_checksum              96372
_shelx_hkl_file
;
   0   0   2 236047. 355.625   2
   0   0   4 323939. 625.227   2
   0   0   6 32246.7 250.608   2
   0   0   6 31533.7 254.607   1
   0   0   8 18641.9 238.424   1
   0   0  -8 18014.9 263.139   3
   0   0 -10 68108.5 568.611   8
   0   0 -10 70184.1 591.417   3
   0   0 -12 31282.2 429.992   3
   0   0 -12 30095.1 402.395   8
   0   0 -14 3005.38 128.989   8
   0   0 -16 22913.6 280.832   8
  -1   0 -17 9549.15 136.701   8
   1   0 -17 9855.26 148.522   8
   1   0 -15 9783.78 209.219   8
  -1   0 -15 9900.85 204.581   8
   1   0 -13 88909.8 691.720   8
  -1   0 -13 88954.3 680.314   8
  -1   0 -11 9160.44 218.338   8
   1   0 -11 7226.26 194.822   8
   1   0 -11 8442.57 226.364   3
  -1   0 -11 7490.65 200.706   3
  -1   0  -9 33087.8 369.242   3
  -1   0  -9 32206.5 370.149   8
   1   0  -9 32694.3 374.277   8
   0   1   7 63475.7 406.557   1
   0   1   7 66979.0 369.522   2
   1   0  -7 67484.2 473.051   3
  -1   0  -7 64114.1 428.080   5
  -1   0  -7 65486.6 446.611   8
  -1   0  -7 64540.5 439.251   3
   0  -1   7 65905.3 422.128   2
   0  -1   5 14482.7 160.440   2
   0   1   5 14898.2 163.914   1
   0  -1   3 149975. 389.312   2
   0   1   3 150066. 402.732   1
  -1   0  -1 111280. 142.631   1
   0   1   1 111298. 150.077   2
   1   0   1 95960.8 168.465   2
   1   0   3 136812. 312.170   2
   1   0   3 141164. 318.731   1
   1   0   5 14885.9 143.298   1
  -1   0   5 14399.0 161.658   2
   1   0   7 68423.7 386.290   1
  -1   0   7 67108.8 436.107   1
   0   1  -7 69010.4 457.651   5
  -1   0   7 66270.2 425.442   2
   0  -1  -7 67951.7 457.003   3
   0  -1  -7 69585.4 452.302   8
   0   1  -7 68679.0 473.500   3
   0  -1  -9 34552.6 377.649   8
  -1   0   9 35608.0 381.084   1
   0   1  -9 35713.5 398.551   8
   0   1  -9 36849.2 406.063   3
   0  -1  -9 34402.6 383.553   3
   0   1 -11 5876.16 179.043   8
   0  -1 -11 6054.22 176.218   8
   0   1 -11 5947.85 184.181   3
   0  -1 -11 6012.04 186.776   3
   0   1 -13 85907.1 678.970   8
   0  -1 -13 88240.4 675.455   8
   0   1 -13 87457.4 714.243   3
   0   1 -15 10911.3 222.163   8
   0  -1 -15 11421.5 222.759   8
   0   1 -17 10232.2 150.728   8
   0  -1 -17 10397.9 145.023   8
  -1   1   0 870.443 16.9879   1
   1   1   2 3087.71 27.5707   2
   1   1   2 3165.25 45.5956   1
  -1   1  -2 3160.03 49.5904   2
   1   1   4 25818.4 142.847   2
   1  -1   4 25995.5 183.945   2
  -1  -1   4 26009.3 196.345   2
   1   1   4 25737.0 176.330   1
  -1   1  -4 26283.8 188.602   2
  -1   1   6 23029.5 238.269   1
   1  -1   6 22233.8 205.401   2
   1   1   6 22679.0 206.967   1
  -1  -1   6 21920.3 228.633   2
   1  -1   6 22466.1 193.622   1
  -1   1   6 23082.8 215.963   2
   1   1   6 21720.0 176.930   2
  -1   1  -8 11381.8 202.753   5
   1  -1  -8 12918.4 227.565   3
  -1   1   8 12299.2 186.563   2
  -1   1  -8 12068.2 215.293   8
  -1  -1   8 11979.4 201.332   2
   1   1  -8 11792.8 222.910   3
  -1   1   8 12371.1 210.782   1
   1   1   8 11591.1 178.178   1
  -1  -1  -8 12292.7 206.106   8
   1  -1   8 13897.2 216.280   2
  -1  -1  -8 11533.0 201.727   3
   1  -1   8 12488.3 175.431   1
   1  -1  -8 11660.8 207.254   8
   1   1   8 12097.6 165.186   2
  -1   1  -8 11965.6 209.471   3
   1  -1 -10 2326.30 110.208   8
  -1  -1 -10 2085.19 103.846   8
  -1   1 -10 2201.55 111.225   8
  -1  -1 -10 2460.57 114.839   3
  -1   1 -10 2223.06 107.538   3
   1  -1 -10 2144.38 113.824   3
   1   1 -10 2392.79 122.076   3
  -1   1 -12 14126.6 279.638   8
  -1   1 -12 14490.0 285.360   3
   1  -1 -12 14426.9 303.619   3
   1   1 -12 14575.1 302.201   3
   1   1 -12 14281.9 281.779   8
   1  -1 -12 14080.8 277.971   8
  -1  -1 -12 13462.6 278.633   3
  -1  -1 -12 14188.8 275.949   8
  -1  -1 -14 12473.9 245.598   8
   1   1 -14 12317.5 251.857   8
  -1   1 -14 12670.4 254.003   8
   1   1 -14 12536.3 268.698   3
   1  -1 -14 12160.4 247.992   8
  -1   1 -16 2358.20 93.1896   8
   1  -1 -16 2453.90 96.3395   8
   1   1 -16 2532.15 100.288   8
  -1  -1 -16 2282.10 87.9415   8
  -2   0 -16 12737.6 193.420   8
   2   0 -16 12434.9 206.115   8
  -2   0 -14 11454.8 231.693   8
   2   0 -14 12593.5 272.692   3
  -2   0 -12 36030.4 429.120   8
   2   0 -12 37174.4 489.375   3
  -2   0 -10 40374.1 425.906   8
   2   0 -10 39699.5 479.660   3
  -2   0 -10 39030.4 414.971   3
   0   2   8 139364. 661.999   1
   0   2   8 129734. 505.252   2
   0  -2   8 133576. 647.106   2
  -2   0  -8 147415. 715.919   8
   2   0  -8 147926. 793.424   3
  -2   0  -8 140297. 675.521   3
   0  -2   8 141296. 643.610   1
   0   2   6 35560.8 283.783   1
   0   2   6 36006.4 229.161   2
   0  -2   4 308540. 701.303   2
  -2   0  -4 303752. 572.094   2
  -2   0  -2 335643. 522.130   2
   0   2   2 359721. 356.112   2
   2   0   0 252165. 374.500   2
  -2   0   0 249459. 399.868   2
   2   0   2 318499. 450.896   2
   0  -2  -2 319026. 586.135   1
   2   0   4 280329. 478.070   1
   2   0   4 284171. 538.511   2
  -2   0   6 30600.7 285.037   2
   2   0   6 30171.6 218.639   2
   0  -2  -8 142099. 637.704   4
   0  -2  -8 141514. 700.541   8
   0   2  -8 140111. 750.863   3
   0   2  -8 142631. 741.296   5
  -2   0   8 136545. 723.108   1
   0  -2  -8 139026. 727.906   3
   2   0   8 138381. 561.925   2
  -2   0   8 140398. 692.455   2
   0  -2 -10 39264.8 450.072   3
   0   2 -10 38312.2 452.741   3
   0   2 -10 38068.2 441.085   8
   0  -2 -12 39590.3 451.107   8
   0   2 -12 39040.3 475.330   3
   0   2 -12 38146.0 459.862   8
   0  -2 -14 9426.76 215.193   8
   0   2 -14 9612.06 225.435   3
   0   2 -14 9442.45 224.782   8
   0  -2 -14 10133.4 195.887   7
   0  -2 -16 13995.7 208.918   8
   0   2 -16 13308.8 214.252   8
   2  -1 -17 9176.07 141.760   8
  -2   1 -17 8667.95 120.859   8
   2   1 -17 8977.83 142.362   8
   2  -1 -15 4769.87 149.020   8
  -2   1 -15 4671.80 141.604   8
  -2  -1 -15 4805.78 137.573   8
  -2  -1 -13 50952.4 498.174   8
   2  -1 -13 52975.0 580.896   3
   2  -1 -13 50113.2 520.342   8
  -2   1 -13 51137.7 510.968   8
   2   1 -13 52990.3 587.318   3
  -2   1 -11 9255.42 220.954   8
  -2   1 -11 8681.93 207.913   3
  -2  -1 -11 8887.46 213.085   3
   2   1 -11 10343.6 261.675   3
  -2  -1 -11 9411.34 214.555   8
   2  -1 -11 9715.72 251.083   3
   2   1  -9 32854.6 409.185   3
  -2   1  -9 32853.9 378.102   8
   2  -1  -9 33020.7 407.493   3
  -2  -1  -9 32182.1 357.332   8
  -2   1  -9 31882.9 359.144   5
   2  -1  -9 31416.5 333.921   4
   2   1  -9 31019.0 374.222   8
  -2  -1  -9 31609.0 352.540   3
  -2   1  -9 32239.5 355.856   3
  -1   2   7 69886.6 398.688   2
  -2   1  -7 71368.7 468.923   5
   1   2   7 73259.8 429.886   1
  -1   2   7 68175.3 456.529   1
   1   2   7 71161.9 312.336   2
   1  -2   7 66644.7 431.525   2
   2   1  -7 71550.7 515.744   3
   2   1  -7 70738.8 475.933   8
  -2  -1  -7 70810.6 453.450   8
  -2  -1  -7 68722.7 434.545   3
   1  -2   7 67993.5 370.486   1
  -1  -2   7 75666.0 483.208   2
  -2   1  -5 11700.1 141.137   2
  -1   2   5 11606.5 158.624   1
   1   2   5 11717.9 100.225   2
   1   2   5 12393.3 146.121   1
  -1  -2   5 12293.4 163.423   2
   1   2   3 65400.2 139.700   2
   1   2   3 61604.2 267.494   1
   1  -2   3 70757.4 297.162   2
  -2  -1  -3 67116.9 248.483   1
  -2  -1  -3 68054.3 185.911   2
  -2   1  -3 65446.9 271.573   2
  -1   2   3 68751.9 242.127   2
  -2   1  -1 24221.2 138.166   2
  -1   2   1 24758.0 138.134   1
  -1   2   1 24920.7 126.354   2
  -1  -2   1 24350.0 131.590   2
  -1  -2  -1 22208.8 64.4203   2
   2  -1   1 21086.9 126.742   2
   2  -1   3 66039.5 269.557   2
  -1   2  -3 66939.8 296.690   2
  -1  -2  -3 66364.9 297.888   1
   2   1   5 9928.20 116.207   1
  -2  -1   5 9936.83 149.364   2
   2  -1   5 10221.3 98.3286   1
   2  -1   5 10092.0 127.487   2
  -1  -2  -7 72527.2 455.715   8
   1   2  -7 70887.6 487.479   5
  -2   1   7 71252.4 485.275   1
  -1  -2  -7 67339.2 452.222   3
  -2  -1   7 69436.5 475.081   2
  -1   2  -7 67825.0 470.701   5
  -1   2  -7 65735.3 456.561   3
   1  -2  -7 67665.1 476.095   3
   2   1   7 65727.9 361.995   1
   1  -2  -7 70267.6 464.543   8
  -2   1   7 72341.0 460.037   2
   2  -1   7 71333.3 335.942   1
   2   1   7 64088.0 319.033   2
   1   2  -7 72373.1 511.175   3
   2  -1   7 71950.3 408.561   2
   1  -2  -9 30175.4 379.617   3
  -1   2  -9 30437.4 376.212   8
   1  -2  -9 31267.5 362.744   8
   1   2  -9 31649.1 401.967   3
  -1  -2  -9 31372.3 364.340   3
   1  -2  -9 31737.8 334.865   4
  -1   2  -9 30389.3 363.207   5
  -1   2  -9 29024.4 358.240   3
  -1  -2  -9 32534.7 355.378   8
  -1  -2 -11 9605.77 220.452   8
  -1   2 -11 10443.4 240.654   3
   1   2 -11 10236.4 252.342   3
   1  -2 -11 10963.1 241.263   8
   1  -2 -11 10963.3 257.506   3
  -1   2 -11 11495.0 252.991   8
  -1  -2 -13 51735.3 506.947   8
  -1  -2 -13 50090.0 450.380   7
   1  -2 -13 51833.5 521.135   8
  -1   2 -13 50466.4 521.263   8
   1   2 -13 51639.0 558.880   3
   1  -2 -15 4050.22 135.125   8
   1   2 -15 3707.22 133.172   8
   1  -2 -15 4566.06 121.921   7
  -1   2 -15 4829.52 148.705   8
  -1   2 -17 8553.80 131.612   8
   1   2 -17 8672.43 137.432   8
   1  -2 -17 8453.61 131.030   8
  -2   2   0 3143.27 44.6981   1
   2  -2   2 229251. 217.209   1
  -2  -2  -2 222286. 493.382   1
  -2   2   2 232144. 488.129   2
  -2   2  -2 201947. 497.025   2
  -2   2   4 34936.2 259.244   1
   2   2   4 37291.2 120.161   2
  -2  -2   4 35457.1 260.535   2
   2  -2   4 38988.7 251.115   2
  -2   2   4 38013.4 225.438   2
  -2   2  -4 39070.1 257.602   2
   2  -2   6 1490.68 43.5230   1
  -2   2   6 1921.55 76.4669   1
   2  -2   6 2631.95 78.2476   2
  -2   2   6 1615.05 59.4140   2
  -2  -2   6 2910.00 92.8015   2
   2   2   6 1606.01 38.1601   2
  -2   2   8 174578. 817.508   1
  -2   2   8 173747. 741.670   2
   2   2  -8 181418. 914.063   3
  -2  -2   8 176533. 835.168   2
   2  -2  -8 183153. 795.614   4
  -2  -2  -8 175897. 783.699   3
  -2   2   8 179236. 698.146   2
   2   2  -8 182424. 838.784   8
   2  -2   8 179091. 745.808   2
  -2   2  -8 176597. 816.431   5
   2  -2  -8 168087. 810.908   8
  -2   2  -8 181179. 780.996   3
  -2  -2  -8 176658. 767.772   8
  -2   2 -10 28582.6 377.652   8
  -2   2 -10 28492.6 357.349   3
   2  -2 -10 28077.8 342.089   4
  -2  -2 -10 28514.6 347.231   8
   2   2 -10 27963.1 378.360   8
   2  -2 -10 29351.2 404.575   3
   2   2 -10 28166.2 412.574   3
   2  -2 -10 28372.0 373.688   8
   2   2 -12 35186.9 488.150   3
  -2  -2 -12 33122.4 366.700   7
  -2   2 -12 35227.6 440.098   8
   2  -2 -12 36222.0 485.173   3
   2  -2 -12 35070.6 437.691   8
  -2  -2 -12 33847.2 406.816   8
  -2   2 -12 33247.7 410.018   3
   2  -2 -14 3608.63 141.603   8
   2   2 -14 3757.62 154.152   3
  -2  -2 -14 3453.91 127.461   8
  -2   2 -14 3600.21 137.401   8
   2  -2 -16 4648.41 126.285   8
  -2   2 -16 4719.77 124.203   8
  -2  -2 -16 4505.38 108.064   8
  -3   0 -15 34204.8 348.230   8
   3   0 -13 10370.3 265.427   3
  -3   0 -13 10312.2 225.671   8
  -3   0 -11 112259. 729.766   8
   3   0 -11 114784. 864.816   3
   3   0 -11 113718. 779.961   8
   3   0  -9 152709. 768.983   4
  -3   0  -9 158166. 800.729   8
  -3   0  -9 154836. 741.203   3
   3   0  -9 160586. 830.897   8
   0  -3   7 46600.7 380.929   2
   0   3   7 45230.1 254.828   2
   3   0  -7 48578.6 393.864   8
   0   3   7 46642.4 263.275   2
   0   3   7 46971.4 373.163   1
   3   0  -7 44225.2 417.162   3
   0   3   5 310613. 814.426   1
   0   3   5 307427. 526.841   2
   0   3   3 319607. 686.108   1
   0   3   3 331410. 422.164   2
   0   3   1 589844. 574.527   2
   0  -3   1 588699. 781.316   2
   0   3  -1 605388. 755.372   2
   0  -3  -1 592287. 630.345   2
   3   0   3 286915. 523.279   2
   0  -3  -3 294560. 689.956   1
   3   0   5 278309. 604.424   2
   3   0   7 52038.6 311.891   2
   0   3  -7 53201.2 436.660   5
   0  -3  -7 53142.2 391.853   4
   0  -3  -7 52884.4 417.217   3
   0   3  -7 52400.4 435.720   3
   0  -3  -9 159489. 861.257   3
   0  -3  -9 159282. 746.956   4
   0   3  -9 156102. 852.116   5
   0  -3  -9 156552. 806.590   8
   0  -3 -11 116115. 761.155   8
   0   3 -11 117785. 817.800   3
   0   3 -13 9708.45 237.009   8
   0   3 -13 9931.00 239.126   3
   0   3 -15 34005.9 382.434   8
   0  -3 -15 33113.2 310.133   7
   0  -3 -15 33709.2 362.215   8
   0   3 -17 14902.5 174.890   8
  -3   1 -16 11183.5 173.133   8
  -3  -1 -16 10885.3 156.845   8
   3   1 -14 32578.0 442.288   3
  -3  -1 -14 32452.9 366.142   8
  -3   1 -14 32938.9 385.815   8
   3   1 -12 46165.9 562.772   3
  -3   1 -12 45887.3 481.931   8
   3  -1 -12 46088.1 554.340   3
   3   1 -12 44824.9 502.561   8
  -3  -1 -12 45776.5 468.099   8
   3  -1 -10 8166.22 185.950   4
   3   1 -10 8465.57 233.518   3
  -3   1 -10 8144.75 182.772   3
  -3  -1 -10 8329.94 191.537   8
   3   1 -10 8231.09 205.994   8
  -3   1  -8 51980.3 426.815   5
  -3  -1  -8 53055.6 415.987   8
   3   1  -8 53784.1 453.561   8
  -3  -1  -8 50109.8 399.662   3
  -1   3   8 50296.4 427.596   1
  -1  -3   8 49475.7 433.455   2
   1  -3   8 50369.7 412.452   2
  -3   1  -8 49399.6 384.836   3
   3  -1  -8 51714.2 447.697   8
   3  -1  -8 51539.6 439.882   4
   1  -3   6 26033.2 272.783   2
   1   3   6 24120.3 238.725   1
   3  -1  -6 24071.0 256.266   8
   3   1  -6 22781.4 280.316   3
  -1  -3   6 24920.7 266.787   2
   1   3   6 23504.0 133.110   2
  -1   3   6 24868.4 195.871   2
  -3   1  -6 25154.6 227.031   2
   3  -1  -6 23443.3 273.516   3
  -1   3   6 24895.3 259.482   1
   1   3   6 23349.6 133.580   2
  -3  -1  -4 32364.0 162.374   2
   1   3   4 30185.5 98.5673   2
  -1   3   4 32827.9 247.778   1
  -3   1  -4 33933.2 227.805   2
  -1   3   4 31713.3 181.332   2
   1   3   4 30478.6 99.3116   2
  -3  -1  -2 43506.6 167.479   2
  -3   1  -2 44989.9 229.229   2
   1   3   0 10831.2 82.2474   2
  -3  -1   0 12962.4 104.356   2
  -3   1   0 11330.9 110.834   2
   1  -3   0 11915.9 103.654   1
  -1  -3   0 11158.3 86.0837   2
  -1   3   0 12466.6 105.104   2
   1  -3   0 14015.9 116.609   2
   3   1   2 41150.3 150.142   2
  -1  -3  -2 41428.8 238.129   1
   3  -1   4 32374.9 211.995   2
   3   1   4 32848.8 161.217   2
   3  -1   6 25182.8 224.873   2
  -3  -1   6 25559.2 276.222   2
   1  -3  -8 53119.8 443.422   8
   1  -3  -8 48689.5 451.322   3
  -1   3  -8 49421.7 440.421   3
  -1  -3  -8 50672.8 420.941   8
  -3   1   8 49426.7 468.181   1
  -3   1   8 47356.8 421.529   2
  -3  -1   8 50260.6 455.083   2
  -1  -3  -8 49743.8 430.891   3
   1   3  -8 47310.6 450.772   5
  -1   3  -8 49833.5 452.354   5
   1   3  -8 48227.0 469.125   3
   3  -1   8 46223.0 345.514   2
  -1  -3  -8 49886.3 390.785   4
   1  -3  -8 48333.7 409.727   4
  -1   3 -10 8538.80 209.191   3
   1  -3 -10 7648.28 177.566   4
   1  -3 -10 8260.92 216.648   3
  -1  -3 -10 8260.86 194.471   8
   1  -3 -10 8316.80 201.438   8
  -1   3 -10 8292.41 206.398   5
  -1   3 -10 8532.75 214.178   8
   1   3 -10 7963.25 218.275   3
   1  -3 -12 48370.8 505.521   8
  -1  -3 -12 47939.7 488.350   8
  -1   3 -12 49170.1 527.989   8
   1   3 -12 47078.9 553.893   3
   1   3 -14 31296.5 413.594   3
   1  -3 -14 31332.9 368.739   7
   1  -3 -14 32012.7 389.483   8
  -1   3 -14 30769.2 373.859   3
  -1  -3 -14 32017.1 377.020   8
  -1  -3 -14 31657.5 338.861   7
  -1   3 -14 30486.4 389.745   8
   1  -3 -16 10750.5 183.688   8
  -1   3 -16 10521.1 186.417   8
  -1  -3 -16 10625.2 167.103   8
   3   2 -17 11732.1 150.805   8
   3  -2 -17 12149.5 154.266   8
   3  -2 -15 14546.4 247.574   8
  -3   2 -15 15184.6 240.608   8
   3   2 -15 14411.8 246.998   8
  -3  -2 -15 15044.3 214.569   8
   3   2 -15 15661.3 280.553   3
  -3   2 -13 15595.9 283.967   8
  -3  -2 -13 15039.7 257.785   8
   3   2 -13 15416.3 291.751   8
  -3   2 -11 64467.6 531.793   3
   3  -2 -11 67921.4 551.656   4
  -3  -2 -11 65880.9 543.133   8
   3   2 -11 66917.5 602.282   8
  -3   2 -11 65417.2 595.444   8
   3   2 -11 67733.7 677.900   3
  -3  -2 -11 66563.5 505.309   7
  -3   2  -9 147795. 803.555   5
   3   2  -9 156214. 843.719   8
   3   2  -9 155688. 949.364   3
  -3  -2  -9 155262. 742.559   8
  -3   2  -9 148738. 731.561   3
  -3  -2  -9 150959. 721.101   7
   3  -2  -9 150917. 799.822   4
  -2  -3   7 111177. 633.229   2
  -2   3   7 113239. 550.860   2
   2  -3   7 112795. 392.490   1
  -2   3   7 111802. 628.638   1
   3   2  -7 116157. 624.110   8
   3  -2  -7 109446. 656.273   3
   3  -2  -7 109658. 608.048   8
  -3   2  -7 108324. 605.073   5
  -3  -2  -7 115947. 550.015   8
   2  -3   7 116835. 598.410   2
   3  -2  -7 111420. 627.983   4
  -2   3   7 117514. 509.441   2
  -2   3   5 155775. 622.051   1
  -2  -3   5 147755. 606.592   2
   2  -3   5 150134. 584.994   2
  -2   3   5 151097. 498.670   2
  -3   2  -5 158489. 584.642   2
  -3  -2  -3 60540.1 129.710   2
  -2   3   3 62836.0 277.842   2
  -3  -2  -3 65372.7 293.257   1
   2  -3   3 62849.3 321.248   2
  -3   2  -3 64907.8 321.486   2
  -2  -3   3 61167.0 320.286   2
  -2  -3   1 36522.5 191.529   2
  -2   3   1 30801.9 186.146   1
  -3   2  -1 36077.6 123.217   1
  -2   3   1 29171.2 184.444   2
  -3  -2  -1 32310.6 141.498   2
  -3   2  -1 35473.7 215.438   2
   2  -3   1 31632.4 148.633   1
   3  -2  -1 35699.1 211.927   2
   2  -3  -1 39048.1 214.723   2
   3  -2   1 38812.3 221.872   2
  -3   2   3 64557.3 310.716   2
  -2   3  -3 64693.3 337.727   2
  -3  -2   5 166509. 659.862   2
  -3   2   5 167275. 584.588   2
   3  -2   7 114823. 548.545   2
  -2   3  -7 116052. 646.115   5
   2  -3  -7 117392. 630.144   8
   2  -3  -7 112290. 641.092   3
   2  -3  -7 119365. 635.288   4
  -3   2   7 119015. 570.709   2
  -2  -3  -7 120897. 570.645   8
  -3  -2   7 121649. 674.521   2
   2   3  -7 113590. 639.154   5
  -3   2   7 119568. 673.209   1
  -2   3  -7 116781. 596.597   3
   2   3  -7 117788. 701.590   3
  -2   3  -9 154179. 794.339   3
  -2  -3  -9 160830. 772.724   8
  -2   3  -9 154238. 845.975   5
   2   3  -9 156107. 933.830   3
   2   3  -9 150471. 840.769   8
   2  -3  -9 161825. 837.503   8
   2  -3  -9 157111. 802.171   4
   2  -3 -11 68168.5 594.980   8
  -2   3 -11 65199.1 557.108   3
   2  -3 -11 66933.7 641.059   3
  -2  -3 -11 67071.3 548.898   8
  -2  -3 -11 65971.2 541.888   7
   2   3 -11 65284.7 602.110   8
   2  -3 -11 68013.9 548.737   4
   2   3 -11 67661.6 671.526   3
  -2   3 -11 68308.0 614.893   8
   2   3 -13 16426.4 298.845   8
  -2  -3 -13 16271.8 253.727   7
  -2   3 -13 16853.6 279.437   3
  -2   3 -13 16543.6 300.893   8
   2   3 -13 16099.9 323.988   3
   2  -3 -13 17079.7 303.538   8
  -2  -3 -13 16487.4 275.871   8
   2   3 -15 15219.4 266.007   3
  -2   3 -15 15385.2 254.491   8
   2  -3 -15 14786.0 227.279   7
   2  -3 -15 15134.1 250.578   8
  -2  -3 -15 15250.6 221.377   8
   2  -3 -17 12082.0 148.405   8
  -3   3   0 1289.73 35.8878   1
   3  -3   0 1056.49 41.6269   2
  -3   3  -2 21876.5 191.075   2
  -3   3   2 21472.6 183.049   1
  -3   3   2 21988.1 183.580   2
   3  -3  -2 22063.0 182.619   2
  -3  -3   2 21666.0 180.507   2
   3  -3   4 236309. 700.141   2
  -3   3  -4 247056. 734.466   2
  -3   3   4 248325. 669.766   2
  -3  -3  -4 230862. 678.893   1
   3  -3  -6 217101. 827.999   3
   3   3  -6 222041. 821.355   5
  -3   3   6 222912. 717.383   2
   3  -3   6 221077. 773.069   2
  -3  -3   6 218393. 853.014   2
  -3   3   6 224634. 874.278   1
   3  -3  -6 217340. 855.200   4
  -3   3  -6 221693. 788.586   2
  -3   3  -6 218518. 815.619   5
   3   3  -8 104514. 745.710   3
   3  -3  -8 108371. 703.025   3
   3  -3  -8 106141. 667.679   4
   3  -3   8 101253. 589.868   2
  -3  -3  -8 107753. 602.688   7
   3   3  -8 104428. 654.578   8
  -3  -3  -8 107956. 568.363   8
  -3   3  -8 101286. 651.707   5
  -3  -3 -10 144993. 758.123   7
  -3  -3 -10 146660. 756.876   8
  -3   3 -10 146450. 764.785   3
  -3   3 -10 145684. 857.277   5
   3  -3 -10 146363. 836.680   4
  -3   3 -12 53393.0 547.316   8
  -3  -3 -12 54196.3 483.020   8
   3   3 -12 51774.2 533.757   8
  -3   3 -12 52733.5 475.880   3
   3  -3 -12 54953.1 490.232   4
   3  -3 -12 52760.3 539.882   8
  -3  -3 -12 53923.3 464.277   7
   3   3 -12 55601.6 627.301   3
   3   3 -14 30129.5 422.582   3
   3   3 -14 29486.8 375.274   8
  -3  -3 -14 29646.4 324.144   8
  -3   3 -14 28854.7 367.615   8
   3  -3 -14 29718.3 379.490   8
   3  -3 -16 33071.9 266.330   7
  -3   3 -16 33810.3 302.053   8
   3   3 -16 33630.5 319.215   8
   3  -3 -16 33987.1 321.249   8
  -4   0 -16 1303.64 51.7539   8
   4   0 -16 1336.84 70.2507   8
   4   0 -14 2534.14 131.758   3
   4   0 -14 2492.44 116.578   8
  -4   0 -14 2734.79 106.796   8
  -4   0 -12 29783.7 369.865   8
   4   0 -12 29695.1 402.464   8
  -4   0 -10 9164.14 199.149   8
   4   0 -10 9296.09 204.621   4
   4   0 -10 9759.55 222.773   8
  -4   0  -8 18637.8 239.675   5
  -4   0  -8 18803.3 253.553   8
  -4   0  -8 18391.8 230.974   3
   4   0  -8 18675.7 274.127   4
   4   0  -8 18517.1 307.912   3
   4   0  -6 26339.9 304.006   3
  -4   0  -6 25982.4 210.701   2
   0   4   6 27171.2 165.524   2
   0  -4   6 26028.1 272.570   2
   0   4   6 26381.3 273.611   1
   4   0  -6 26736.6 271.677   8
   0   4   6 25163.4 155.175   2
  -4   0  -4 28624.5 198.696   2
   0   4   4 27940.7 139.734   2
   0  -4   2 197608. 538.910   2
   0   4   2 195998. 356.874   2
  -4   0   0 334634. 662.437   2
   0   4   0 344488. 583.299   2
   0   4  -2 189134. 535.607   2
   0  -4  -2 197357. 386.949   2
   4   0   4 28342.6 192.081   2
   4   0   6 26249.6 211.203   2
   0  -4  -6 25760.9 259.783   8
   0   4  -8 18164.4 287.042   5
   0   4  -8 18572.0 289.428   3
   0  -4  -8 18571.9 258.682   4
   0   4 -10 9313.64 231.128   3
   0  -4 -10 9405.75 210.314   8
   0   4 -10 9020.16 225.626   5
   0  -4 -12 31984.6 404.313   8
   0   4 -12 30935.4 431.325   3
   0  -4 -14 2487.09 111.053   8
   0  -4 -14 2467.45 106.150   7
   0   4 -14 2590.02 116.742   3
   0   4 -16 1343.31 71.4375   8
   0  -4 -16 1479.26 65.2795   8
   4   1 -17 617.325 36.4262   8
  -4   1 -15 2911.50 101.025   8
   4   1 -15 2941.87 114.107   8
  -4  -1 -15 2887.02 92.9360   8
   4   1 -13 10251.7 271.158   3
  -4   1 -13 10193.3 219.570   8
   4   1 -13 10358.4 235.836   8
   4  -1 -13 9757.44 231.790   8
   4  -1 -11 8087.21 196.317   4
  -4   1 -11 7916.91 199.911   8
  -4  -1 -11 7769.42 184.474   8
   4   1 -11 7698.16 210.734   8
   4  -1 -11 7377.82 205.492   8
  -4  -1  -9 5812.54 147.456   8
   4  -1  -9 5938.47 167.466   8
   4   1  -9 5854.23 158.110   4
   4  -1  -9 6427.43 192.778   3
   4  -1  -9 6185.83 170.432   4
  -4   1  -9 6107.14 164.922   8
   4   1  -9 5916.60 167.001   8
  -4   1  -9 6268.94 156.154   5
  -1  -4   7 10456.2 194.890   2
   4  -1  -7 10799.0 212.701   3
  -1   4   7 10357.2 132.570   2
  -1   4   7 10715.8 139.038   2
  -4  -1  -7 11228.9 175.932   8
   4  -1  -7 10868.7 206.657   4
  -1   4   7 10771.3 193.549   1
   4  -1  -7 11764.4 202.863   8
   4   1  -7 11411.3 197.667   8
  -4   1  -7 10907.0 183.059   5
   4   1  -7 12002.8 231.639   3
   4   1  -7 10981.6 197.070   4
   1  -4   7 10125.7 183.160   2
  -4  -1  -5 6059.63 82.5580   2
   1  -4   5 6166.54 123.111   2
  -4   1  -5 6136.74 109.379   2
  -1   4   5 5962.28 85.7913   2
  -1  -4   3 30919.7 236.666   2
  -4   1  -3 31972.4 220.322   2
  -4  -1  -3 37782.5 189.575   1
  -1   4   3 38415.6 195.048   2
  -4  -1  -3 38688.0 187.046   2
  -4   1  -1 106088. 396.095   2
   1  -4   1 109860. 383.286   2
  -4  -1  -1 119201. 355.626   2
  -1  -4   1 106737. 351.605   2
  -1   4   1 114287. 338.322   2
   1   4   1 112297. 265.110   2
  -1  -4  -1 114406. 279.419   2
   1   4  -1 107913. 350.446   2
  -4  -1   1 112799. 395.996   2
  -1   4  -1 113914. 387.179   2
   4  -1   1 105654. 366.937   2
   1  -4  -1 113944. 416.903   1
   1  -4  -1 113989. 353.846   2
   4  -1   3 29813.7 209.518   2
  -4   1   3 30982.2 241.611   2
  -1   4  -5 5983.88 123.703   2
  -4   1   5 5770.84 116.667   2
   4  -1   5 5818.73 104.463   2
  -1   4  -7 11464.8 203.104   3
  -1   4  -7 11309.2 211.645   5
   1   4  -7 11130.9 217.208   3
  -1  -4  -7 10321.7 179.569   4
  -4  -1   7 10989.7 209.131   2
   1  -4  -7 11554.6 195.909   8
   4  -1   7 10420.4 158.947   2
   1  -4  -7 10669.9 192.328   4
  -1  -4  -7 10993.6 179.621   8
  -4   1   7 10248.0 180.685   2
   1   4  -9 6486.70 192.221   3
  -1   4  -9 5714.63 167.269   3
  -1   4  -9 6247.14 178.432   5
   1  -4  -9 5758.86 161.415   8
  -1  -4  -9 6215.61 161.741   8
   1  -4  -9 6014.79 161.666   4
  -1   4 -11 8299.29 216.263   3
  -1   4 -11 8052.21 222.346   8
   1  -4 -11 8075.32 209.524   8
   1   4 -11 7998.25 221.534   8
  -1  -4 -11 7372.58 190.893   8
   1   4 -11 7512.46 224.960   3
  -1  -4 -13 10155.1 221.495   8
  -1   4 -13 10026.4 225.831   3
  -1   4 -13 10572.5 249.952   8
   1  -4 -13 10314.7 231.230   8
  -1  -4 -13 10223.6 218.236   7
   1   4 -13 10093.6 249.762   3
   1   4 -15 2807.24 112.744   3
   1  -4 -15 2789.41 109.182   8
  -1  -4 -15 2828.41 90.2385   7
  -1   4 -15 2945.58 118.148   8
   1  -4 -15 2553.87 96.5869   7
  -1  -4 -15 2641.19 98.2296   8
  -1   4 -17 650.594 37.2750   8
   4  -2 -16 1260.34 55.2665   7
  -4   2 -16 1204.22 55.1239   8
   4   2 -16 1093.33 63.1562   8
   4   2 -14 3252.48 152.213   3
  -4   2 -14 3183.49 122.354   8
   4   2 -14 3049.12 127.693   8
   4   2 -12 2043.18 142.214   3
   4   2 -12 2223.86 122.924   8
  -4  -2 -12 1751.31 91.8661   8
   4  -2 -12 2460.84 109.649   4
  -4   2 -12 1909.89 107.147   8
   4   2 -10 7815.16 201.160   8
   4  -2 -10 8041.98 226.416   3
  -4  -2 -10 7476.84 169.465   8
  -4   2 -10 7974.40 201.202   8
   4  -2 -10 8450.13 210.611   8
  -4   2 -10 8252.08 195.402   5
   4  -2 -10 7638.33 197.554   4
  -4  -2 -10 8125.23 169.390   7
  -4  -2  -8 15055.6 215.223   7
   4  -2  -8 15242.1 271.370   3
   4   2  -8 13537.6 233.949   8
  -4   2  -8 14742.7 236.693   5
   4  -2  -8 14167.9 244.234   8
   4  -2  -8 14176.3 254.076   4
   2  -4   6 14534.6 209.484   2
  -4   2  -6 12350.2 176.632   2
   4   2  -6 13608.2 197.612   8
   4  -2  -6 12741.3 213.826   4
  -2   4   6 13788.3 160.441   2
   4   2  -6 13740.3 235.577   3
  -2  -4   6 11808.2 196.293   2
  -2   4   6 13483.4 205.585   1
   4  -2  -6 12510.7 193.608   8
   4  -2  -6 12746.5 207.811   3
  -4  -2  -4 23899.4 195.601   1
  -4   2  -4 25090.9 221.250   2
  -2   4   4 21286.5 179.178   2
  -4  -2  -4 21936.5 103.654   2
   2  -4   4 21918.8 220.237   2
  -2  -4   4 25319.6 242.864   2
  -2  -4   2 27934.5 205.315   2
  -2   4   2 29480.1 218.842   1
  -4   2  -2 29488.0 226.514   2
  -2   4   2 28507.8 192.622   2
   2  -4   2 28141.5 157.158   1
  -2  -4   0 111427. 317.728   2
  -2   4   0 111006. 394.931   2
  -4  -2   0 110718. 353.446   2
   4  -2   2 27786.0 210.991   2
  -4   2   2 27613.6 219.722   2
  -2  -4  -2 30910.8 240.499   1
   2  -4  -2 30876.5 207.302   2
  -2  -4  -4 30962.2 272.925   1
  -4   2   4 27505.6 241.697   2
   4  -2   4 27713.2 234.518   2
  -2   4  -4 23836.2 241.342   2
   4  -2   6 11979.6 178.251   2
  -4  -2   6 14542.3 225.291   2
  -4   2   6 11426.4 176.287   2
   2   4  -6 12570.5 202.230   5
   4   2   6 12797.8 83.1252   2
  -2   4  -6 13600.9 205.722   2
   2   4  -6 12317.1 217.470   3
   2  -4  -6 13424.2 198.206   8
   2  -4  -6 13389.4 206.748   3
  -4   2   6 11615.3 203.195   1
  -2   4  -6 13236.3 209.604   5
   2  -4  -6 12631.2 202.187   4
   2  -4  -8 15738.5 254.948   4
   2  -4  -8 13290.8 248.365   3
   2  -4  -8 13463.0 234.292   8
   2   4  -8 14743.4 278.356   3
  -2   4  -8 13459.2 224.991   3
  -4   2   8 15847.9 237.698   2
  -4   2   8 13234.4 241.323   2
  -2   4  -8 13899.8 250.300   5
  -2  -4  -8 14360.6 216.115   8
   2   4  -8 14392.3 253.783   5
  -2  -4 -10 7972.44 184.263   8
   2   4 -10 7991.05 212.887   8
  -2   4 -10 7524.71 189.348   3
  -2  -4 -10 6975.81 181.519   7
   2  -4 -10 7495.42 196.578   8
  -2   4 -10 8270.41 216.633   5
   2  -4 -10 7972.45 195.989   4
   2   4 -10 8328.16 240.058   3
   2  -4 -12 1677.48 112.183   8
  -2  -4 -12 1734.56 96.3052   8
  -2   4 -12 1771.00 97.8741   3
  -2  -4 -12 1583.18 95.6444   7
   2   4 -12 2005.38 120.442   8
   2   4 -12 2086.20 135.996   3
  -2   4 -12 2378.88 130.415   8
   2   4 -14 2775.43 127.528   8
  -2  -4 -14 2152.09 90.8846   7
  -2  -4 -14 2964.25 108.792   8
   2   4 -14 3198.40 142.569   3
   2  -4 -14 2557.99 120.472   8
  -2   4 -14 3388.87 136.576   8
   2  -4 -16 1523.45 72.4591   8
   2   4 -16 1428.69 70.3057   8
  -2   4 -16 1447.74 70.4774   8
   4   3 -15 1099.84 82.6515   3
  -4   3 -15 962.472 63.6624   8
  -4   3 -13 2853.27 123.626   8
   4   3 -13 2989.28 151.448   3
  -4  -3 -13 2868.76 104.518   8
   4   3 -13 2822.66 126.044   8
   4  -3 -11 20220.4 366.671   3
   4  -3 -11 19758.6 325.124   4
   4   3 -11 19170.5 318.878   8
  -4  -3 -11 19523.3 276.062   8
   4   3 -11 20480.5 388.578   3
  -4   3 -11 19873.9 327.556   8
   4  -3  -9 13645.3 264.377   4
  -4  -3  -9 14059.9 215.597   8
   4  -3  -9 13858.2 278.380   3
  -4  -3  -9 13239.4 221.748   7
  -4   3  -9 13023.8 251.392   5
   4   3  -9 13497.1 253.591   8
   4   3  -7 11870.3 204.537   8
   4  -3  -7 10888.0 199.430   8
   4  -3  -7 10525.2 208.287   3
   4  -3  -7 11147.0 193.768   6
  -3   4   7 12526.5 180.997   2
  -4   3  -7 10766.4 202.680   5
  -4  -3  -7 10215.4 178.926   7
   3  -4   7 12925.9 211.018   2
  -4   3  -7 10504.7 181.148   2
   4  -3  -7 13452.6 240.347   4
   4   3  -5 24239.5 291.827   3
   4  -3  -5 23932.0 281.157   4
  -4  -3  -5 24651.5 233.443   1
   3  -4   5 24908.5 258.738   2
   4  -3  -5 23863.8 253.250   8
  -4   3  -5 24278.1 254.698   2
  -4   3  -3 55940.1 351.372   2
  -4  -3  -3 55693.1 314.015   1
   3  -4   3 49918.0 161.174   1
  -3   4   3 51720.3 327.971   1
  -3   4   3 53348.9 306.866   2
   3  -4   3 56148.7 359.074   2
  -3  -4   3 53101.8 326.156   2
  -4   3  -1 19393.8 117.863   1
  -3  -4   1 19591.4 159.636   2
  -4  -3  -1 18039.0 128.647   2
  -3   4   1 18183.0 162.128   1
   3  -4   1 17334.1 180.529   2
   4  -3  -1 19947.1 188.857   2
  -4   3  -1 20488.9 197.908   2
  -3   4   1 17114.1 171.602   2
  -4   3   1 19221.4 166.767   1
  -3  -4  -1 19384.3 113.320   2
   4  -3   3 52559.1 332.476   2
  -4   3   3 52832.1 339.873   1
  -4   3   5 23934.9 239.488   2
  -3   4  -5 22558.3 257.512   5
  -4   3   5 23212.3 269.340   1
   3  -4  -5 24714.3 279.388   4
   4  -3   5 24964.9 259.686   2
  -3  -4  -5 24457.5 255.941   1
  -3  -4  -7 10614.0 164.063   8
   3  -4  -7 10579.2 185.434   6
   3   4  -7 11282.2 233.847   3
  -3   4  -7 11697.4 204.835   2
   4  -3   7 9559.47 179.320   2
   3  -4  -7 10953.7 212.676   4
   3   4  -7 11153.3 207.376   5
   3  -4  -7 12629.6 224.787   3
  -3   4  -7 10879.2 207.183   5
  -4   3   7 9395.72 167.249   2
   3  -4  -9 13783.3 258.841   8
  -3  -4  -9 13928.3 240.288   7
  -3   4  -9 13780.7 265.139   5
   3   4  -9 14052.1 263.761   8
   3  -4  -9 13941.3 263.626   4
   3  -4  -9 13860.5 278.175   3
   3   4  -9 14183.6 299.350   3
  -3  -4  -9 14413.2 223.396   8
  -3   4 -11 18772.5 282.953   3
  -3  -4 -11 19303.4 280.639   8
   3  -4 -11 19095.5 316.921   4
  -3   4 -11 19480.1 330.587   5
  -3  -4 -11 20568.8 305.644   7
   3   4 -11 20333.5 380.976   3
  -3   4 -11 19996.5 343.240   8
   3  -4 -11 20209.3 333.696   8
   3   4 -11 19558.2 332.719   8
  -3  -4 -13 2802.51 106.535   7
  -3  -4 -13 2823.57 106.720   8
   3   4 -13 2837.19 147.405   3
   3  -4 -13 3082.38 136.197   8
  -3   4 -13 3040.85 133.665   8
   3   4 -13 2873.63 128.677   8
   3  -4 -15 975.745 71.4965   8
  -3   4 -15 892.214 67.4574   8
  -3  -4 -15 793.390 47.5287   8
   3   4 -15 998.439 70.4107   8
   3  -4 -15 820.227 63.5410   7
  -4   4   0 9953.15 142.287   2
  -4   4   0 9843.03 111.426   1
  -4  -4   0 9934.52 106.469   2
  -4   4   2 1942.86 63.1648   1
  -4  -4  -2 1890.95 27.9689   2
  -4  -4  -2 1959.55 26.8303   2
  -4  -4   2 1949.61 60.7337   2
   4  -4   4 37726.1 317.353   2
  -4   4  -4 39722.4 333.574   2
  -4  -4   4 38039.8 314.908   2
  -4  -4  -4 39157.5 308.485   1
  -4   4   4 39373.5 324.473   1
  -4   4   4 38059.1 290.770   2
   4  -4   6 31624.9 330.939   2
   4  -4  -6 31407.5 331.239   3
  -4  -4  -6 29450.1 295.935   7
  -4   4   6 31132.9 297.919   2
  -4   4  -6 31034.7 322.011   2
   4   4  -6 29905.0 311.948   5
   4  -4  -6 29972.8 321.384   6
  -4   4  -6 30719.7 333.092   5
   4  -4  -6 29838.4 318.517   8
   4  -4  -6 30522.2 351.781   4
  -4   4  -8 20343.4 307.119   5
   4  -4  -8 20858.8 323.139   3
   4  -4  -8 20345.2 276.590   6
  -4  -4  -8 19657.5 270.516   7
   4   4  -8 21060.7 302.453   8
   4  -4  -8 20539.8 322.875   4
   4   4 -10 4303.03 154.241   8
  -4  -4 -10 3850.88 118.342   8
   4   4 -10 4900.15 199.862   3
   4  -4 -10 4056.23 156.196   4
  -4   4 -10 4793.35 166.060   5
  -4  -4 -10 3851.57 132.423   7
   4  -4 -10 4415.85 171.654   3
   4   4 -12 2547.31 124.264   8
  -4  -4 -12 2355.40 98.3575   8
  -4   4 -12 3294.89 146.379   8
   4  -4 -12 2191.50 113.360   4
   4   4 -12 3459.93 177.084   3
  -4  -4 -12 2020.05 96.6410   7
   4   4 -14 3217.83 145.523   3
  -4   4 -14 3150.60 124.666   8
   4   4 -14 2999.06 121.413   8
   4  -4 -16 1520.15 61.0126   7
   4   4 -16 1881.72 72.4694   8
  -4   4 -16 1821.24 65.7360   8
   4  -4 -16 1641.45 71.7154   8
  -4   4  16 1561.40 64.7223   5
   5   0 -15 22232.0 290.747   8
  -5   0 -15 22548.0 235.238   8
  -5   0 -13 34208.0 369.667   8
   5   0 -13 34656.1 418.403   8
   5   0 -11 79181.8 650.119   8
  -5   0 -11 80153.6 589.312   8
   5   0 -11 80891.6 618.451   4
  -5   0  -9 81690.3 555.459   8
   5   0  -9 80854.4 708.739   3
   5   0  -9 82620.8 614.595   8
   5   0  -7 184232. 928.133   3
   5   0  -7 183955. 877.771   4
  -5   0  -5 227266. 617.903   2
   0   5   5 220918. 387.291   2
   0   5   3 315215. 482.143   2
  -5   0  -3 312788. 431.376   1
   0  -5   1 805558. 1112.63   2
  -5   0  -1 800830. 1158.55   2
  -5   0   1 858388. 1260.16   2
   5   0   1 864947. 1067.51   2
   0  -5  -1 847497. 1289.51   1
   5   0   3 273582. 623.840   2
   0   5  -3 289660. 771.480   2
   5   0   5 214458. 581.697   2
   0   5  -5 212358. 801.817   5
   0   5  -7 175791. 850.130   3
   0  -5  -7 175652. 757.342   8
   0  -5  -9 82716.1 596.677   4
   0   5  -9 82439.9 661.504   3
   0  -5 -11 89221.7 667.064   8
   0   5 -11 80466.6 696.538   3
   0  -5 -13 36013.1 421.333   7
   0  -5 -13 36426.1 413.449   8
   0   5 -13 35655.9 436.021   3
   0  -5 -15 24639.1 285.838   8
   0  -5 -15 24671.5 273.164   7
   5   1 -16 5250.06 120.049   8
   5  -1 -16 5257.50 123.681   8
  -5   1 -14 32366.2 340.467   8
   5   1 -14 32013.4 382.093   8
  -5  -1 -14 32814.0 314.673   8
   5  -1 -14 32018.9 381.229   8
  -5   1 -12 57754.3 513.889   8
   5   1 -12 56736.6 548.072   8
  -5  -1 -12 59476.3 485.503   8
   5  -1 -12 58149.8 560.565   8
   5  -1 -12 60327.0 640.476   3
   5  -1 -10 1256.09 89.0605   8
   5   1 -10 1207.25 85.2616   8
  -5   1 -10 1105.20 75.4398   8
  -5  -1 -10 1356.60 75.0625   8
   5   1 -10 1092.39 98.0972   3
   5   1 -10 1483.04 88.0556   4
   5  -1 -10 1025.65 81.0044   4
   5  -1 -10 885.670 88.4225   3
   5   1  -8 61477.5 522.988   4
  -5  -1  -8 61286.8 429.409   8
   5  -1  -8 64687.9 580.532   3
   5  -1  -8 61225.1 539.359   4
  -5   1  -8 64010.1 462.121   5
   5  -1  -8 63278.6 517.444   8
   5   1  -8 61871.7 591.220   3
   5   1  -8 62300.8 498.674   8
   5  -1  -6 83625.9 566.404   4
   5   1  -6 84525.8 488.507   8
  -1   5   6 86553.1 339.997   2
   1  -5   6 82684.2 512.135   2
   5  -1  -6 82396.9 554.658   3
   5   1  -6 86422.3 591.751   3
  -1  -5   6 79099.3 508.627   2
  -1   5   6 82152.2 511.240   1
   5   1  -6 83398.6 556.375   4
   5  -1  -6 82848.1 501.020   8
  -5   1  -6 82257.0 432.624   2
  -1   5   4 36020.6 209.413   2
  -5  -1  -4 36247.0 199.302   1
  -1  -5   4 36760.3 299.315   2
  -5  -1  -4 37183.5 209.832   2
   1   5   2 18248.1 105.470   2
  -5  -1  -2 19437.1 161.745   2
   1  -5   2 18469.3 184.115   2
  -1  -5   2 19112.1 178.530   2
  -1   5   2 17938.5 143.293   2
  -1   5   0 3926.75 73.6303   2
  -5   1   0 3271.37 79.9778   2
   1   5   0 3427.39 62.2980   2
  -5  -1   0 4674.48 86.8182   2
   1  -5   0 4453.79 87.7071   1
  -1  -5   0 3261.26 63.7673   2
   1  -5   0 4435.67 82.7693   2
  -5  -1   2 15531.4 171.853   2
   5  -1   2 16097.0 162.682   2
   1  -5  -2 15855.5 189.344   1
  -1   5  -2 16081.6 173.738   2
  -1  -5  -2 17564.4 110.576   2
   1  -5  -2 17385.0 146.672   2
   1   5  -2 15837.6 166.166   2
  -5   1   4 38044.0 305.596   2
  -1  -5  -4 37458.9 332.137   1
   1   5  -6 82620.5 555.881   3
  -1   5  -6 81588.0 519.619   3
   5   1   6 83890.1 320.502   2
   5  -1   6 80654.5 429.314   2
  -1  -5  -6 82520.9 456.512   8
   1   5  -6 82174.6 539.987   5
   1  -5  -6 84877.2 500.531   8
   1  -5  -6 78193.2 475.880   6
   1  -5  -6 83079.6 524.112   4
  -5   1   6 81465.8 504.129   2
  -1  -5  -6 83678.6 508.991   4
   1   5  -8 59141.7 551.439   3
   1  -5  -8 58937.1 488.690   8
  -1   5  -8 57808.1 505.215   3
  -1   5  -8 58051.8 530.081   5
   1   5 -10 1263.21 93.4090   8
  -1  -5 -10 996.678 74.4651   8
  -1   5 -10 1182.33 85.6129   3
   1  -5 -10 960.099 75.3589   4
   1   5 -10 1276.39 97.4572   3
   1   5 -12 61441.2 625.424   3
  -1  -5 -12 59678.0 550.034   7
   1   5 -12 58994.1 588.637   8
   1  -5 -12 61493.1 561.456   8
  -1  -5 -12 60217.0 525.523   8
  -1   5 -12 59692.2 564.660   3
  -1  -5 -14 32117.4 347.490   8
  -1  -5 -14 31945.7 351.482   7
  -1   5 -14 31333.7 395.506   8
   1   5 -14 31282.0 386.678   8
   1   5 -14 31772.0 401.383   3
   1  -5 -14 32262.1 377.441   7
   1  -5 -14 32141.0 373.704   8
  -1  -5 -16 5196.44 97.1550   8
   1  -5 -16 5139.43 113.275   8
  -1   5 -16 5509.18 128.717   8
   1  -5 -16 5137.75 99.0574   7
   5   2 -15 11592.3 237.343   3
  -5   2 -15 11376.5 178.332   8
   5  -2 -15 11226.7 205.668   8
   5   2 -15 11521.1 202.675   8
   5   2 -13 20739.5 321.180   8
  -5  -2 -13 20626.3 263.124   8
   5  -2 -13 21159.7 329.376   8
  -5   2 -13 20334.8 300.231   8
   5  -2 -11 62655.7 582.081   8
  -5   2 -11 63762.6 568.029   8
  -5  -2 -11 64589.8 486.975   8
   5  -2 -11 63410.3 652.979   3
   5   2 -11 62302.6 573.909   8
   5  -2 -11 63569.6 579.168   4
  -5  -2  -9 91301.2 537.186   8
   5   2  -9 89528.9 640.082   4
  -5   2  -9 92153.8 618.345   5
   5  -2  -9 89835.4 699.830   4
   5  -2  -9 90621.6 725.813   3
   5   2  -9 92252.4 644.477   8
   5   2  -9 89900.0 766.714   3
   5  -2  -9 89992.4 662.481   8
   5   2  -7 207842. 909.818   4
   5   2  -7 214452. 1047.26   3
   5   2  -7 214007. 847.801   8
  -5   2  -7 208881. 843.286   5
  -5   2  -7 202644. 773.674   2
   5  -2  -7 208596. 866.997   6
  -5  -2  -7 214987. 761.023   7
   5  -2  -7 213061. 966.101   3
   5  -2  -7 209301. 882.106   8
   5  -2  -7 208158. 974.424   4
   5  -2  -5 44823.0 396.584   4
  -2  -5   5 43386.6 364.649   2
   5   2  -5 43556.5 394.754   3
   2  -5   5 46475.0 367.936   2
  -2   5   5 45087.5 280.164   2
   5  -2  -5 44990.7 345.640   8
  -5   2  -5 46563.8 338.338   2
  -2  -5   3 233724. 695.984   2
  -5  -2  -3 231925. 457.327   2
  -2   5   3 224915. 592.373   2
  -5  -2  -3 229743. 589.035   1
  -5   2  -3 226014. 696.761   2
  -2   5   3 235752. 731.196   1
  -5  -2  -1 11922.0 126.611   2
   2  -5   1 11864.6 130.069   1
  -2   5   1 11492.5 132.197   2
   2  -5   1 11552.6 147.431   2
  -5   2  -1 12283.7 96.6042   1
  -2  -5   1 11977.6 130.372   2
  -2   5  -1 16096.8 169.948   2
   2  -5  -1 18056.7 174.622   2
  -5  -2   1 16481.3 168.213   2
   2  -5  -1 16697.1 181.650   1
  -2  -5  -1 17610.5 123.027   2
   5  -2   1 16170.4 171.265   2
  -2  -5  -3 246609. 796.212   1
  -5   2   3 249993. 764.693   2
   5  -2   5 45451.4 339.836   2
  -2  -5  -5 42047.8 360.266   1
  -2   5  -5 42501.9 356.365   2
  -5   2   5 43660.4 345.206   2
   2   5  -5 41675.1 354.470   5
  -2   5  -5 45223.4 373.556   5
   2  -5  -5 40180.7 332.810   8
   2  -5  -5 42871.8 363.233   4
   2   5  -5 42971.0 381.944   3
   2  -5  -7 202156. 860.316   8
   2  -5  -7 214421. 848.230   6
  -2  -5  -7 208952. 755.498   8
  -2   5  -7 212871. 948.265   5
   2   5  -7 206557. 997.374   3
  -2   5  -7 207595. 860.412   3
  -5   2   7 218573. 876.930   2
   2  -5  -7 220344. 930.086   4
   2   5  -7 210705. 928.712   5
   5  -2   7 220658. 814.443   2
  -2   5  -9 91821.0 705.568   5
   2  -5  -9 92915.0 670.472   4
   2   5  -9 92664.0 748.694   3
   2  -5  -9 90676.6 658.676   8
   2   5  -9 92171.1 684.021   5
  -2   5  -9 90763.0 635.709   3
  -2  -5  -9 90887.3 646.404   7
  -2  -5  -9 93493.4 594.728   8
  -2   5 -11 61636.0 545.644   3
  -2   5 -11 63787.4 624.646   8
  -2   5 -11 63241.5 611.555   5
  -2  -5 -11 65451.4 532.078   8
   2  -5 -11 64982.9 587.301   8
   2   5 -11 63069.6 606.503   8
   2  -5 -11 64153.7 574.167   4
   2   5 -11 64481.2 668.022   3
  -2  -5 -11 63299.2 562.834   7
   2   5 -13 22294.8 379.697   3
  -2   5 -13 22736.3 355.811   8
  -2  -5 -13 22837.2 302.801   8
  -2   5 -13 22549.3 306.540   3
   2   5 -13 21868.4 341.179   8
  -2  -5 -13 21773.0 307.186   7
   2  -5 -13 23346.7 344.403   8
   2  -5 -15 12238.9 208.413   7
   2  -5 -15 12361.3 213.487   8
   2   5 -15 11569.5 211.518   8
  -2  -5 -15 11960.9 174.278   8
  -2   5 -15 11734.8 214.788   8
   2   5 -15 11821.5 220.648   3
   5  -3 -16 23269.7 222.014   7
   5   3 -16 22650.8 225.022   8
  -5   3 -14 31763.2 348.713   8
   5  -3 -14 30850.3 369.044   8
   5   3 -14 31470.9 360.116   8
   5  -3 -12 65379.2 592.261   8
   5   3 -12 65511.5 580.450   8
   5  -3 -12 64127.8 569.673   4
  -5   3 -12 65435.0 575.985   8
   5   3 -10 146222. 846.015   8
  -5  -3 -10 146730. 734.207   7
   5  -3 -10 145116. 924.820   4
  -5   3 -10 146391. 845.413   5
   5  -3  -8 171078. 950.412   4
  -5  -3  -8 173913. 754.366   7
   5  -3  -8 176668. 830.286   6
   5   3  -8 172274. 837.919   8
   5  -3  -8 175525. 890.049   8
   5   3  -8 175478. 1036.06   3
  -5   3  -8 175062. 859.106   5
   5   3  -8 172444. 852.819   4
   5   3  -6 217399. 785.589   8
  -3   5   6 216836. 718.210   2
  -5   3  -6 212744. 842.340   5
   5  -3  -6 213725. 877.900   6
   5  -3  -6 216039. 851.036   8
   5  -3  -6 219424. 953.632   4
   5   3  -6 216495. 988.781   3
  -5  -3  -6 214522. 773.207   7
  -5   3  -6 215266. 815.897   2
   3  -5   6 215210. 857.778   2
  -3  -5   4 260875. 828.579   2
  -3   5   4 247511. 804.481   1
   3  -5   4 261293. 844.177   2
   3  -5   4 264524. 424.884   1
  -5  -3  -4 264637. 732.722   1
  -3   5   4 252309. 729.529   2
  -5   3  -4 273796. 856.924   2
   3  -5   2 49212.6 237.943   1
  -5   3  -2 49532.6 350.410   2
   3  -5   2 49477.7 336.716   2
  -3   5   2 49280.6 314.421   1
  -5   3   0 8592.75 104.913   1
  -5  -3   0 7150.79 99.8904   2
  -3  -5   0 8488.18 99.8482   2
  -3   5   0 7745.59 124.100   2
   3  -5   0 7822.96 126.670   2
  -5   3   2 45362.2 302.260   1
  -5   3   2 41370.0 307.517   2
   3  -5  -2 50515.5 308.940   2
   5  -3   2 41992.8 304.745   2
  -3  -5  -4 262514. 868.936   1
  -5   3   4 271323. 879.954   1
   5  -3   4 276212. 847.743   2
  -3   5  -4 261756. 866.995   2
  -5   3   4 262250. 819.607   2
  -3   5  -6 204474. 841.633   2
   3  -5  -6 210557. 829.281   8
   3   5  -6 204108. 851.208   5
   3  -5  -6 206642. 838.303   6
   3   5  -6 202768. 957.231   3
  -5   3   6 206392. 914.086   1
   5  -3   6 201624. 791.255   2
  -3   5  -6 202777. 879.886   5
   3  -5  -6 205080. 887.952   4
  -5   3   6 210756. 821.007   2
  -3  -5  -6 213807. 820.908   7
   3  -5  -8 173542. 868.580   8
  -3  -5  -8 165354. 705.828   8
   3  -5  -8 173898. 816.750   6
  -3  -5  -8 168259. 831.225   7
   3   5  -8 169326. 998.137   3
   3  -5  -8 172525. 907.191   4
   3   5  -8 169474. 883.514   5
  -3   5  -8 171898. 917.497   5
  -3  -5 -10 146820. 838.849   7
  -3  -5 -10 144018. 727.787   8
   3  -5 -10 145567. 894.125   4
   3  -5 -10 147021. 875.827   8
   3   5 -10 145572. 882.878   8
  -3   5 -10 144176. 912.148   5
   3   5 -10 147551. 1020.50   3
  -3   5 -12 64839.8 614.298   8
   3   5 -12 66668.1 686.444   3
   3  -5 -12 65620.8 575.889   4
  -3  -5 -12 64556.1 495.147   8
  -3  -5 -12 66898.8 546.700   7
   3  -5 -12 67253.0 602.013   8
   3   5 -12 62528.6 578.601   8
  -3  -5 -14 34952.0 331.553   7
  -3   5 -14 34309.4 399.051   8
  -3  -5 -14 33717.8 309.818   8
   3   5 -14 33802.5 385.973   8
   3   5 -14 33330.5 424.673   3
   3  -5 -14 35139.0 395.818   8
   3  -5 -16 24629.4 251.989   8
   3   5 -16 25035.8 245.703   8
  -3   5 -16 24544.4 243.801   8
   3  -5 -16 24687.9 224.279   7
   5   4 -15 1670.57 93.6651   3
   5   4 -15 1321.74 69.1471   8
  -5   4 -15 1266.97 65.2101   8
  -4   5  15 1650.77 82.7984   5
   5   4 -13 525.851 59.7860   8
   5   4 -13 421.066 78.4954   3
  -5   4 -13 569.416 63.5818   8
   5  -4 -13 469.254 55.4498   4
   5   4 -11 9656.83 221.767   8
  -5   4 -11 9788.34 227.822   5
  -5   4 -11 9904.30 238.210   8
   5  -4 -11 9459.46 244.500   4
  -5  -4 -11 10007.8 200.082   7
   5  -4 -11 9562.47 233.912   8
   5  -4  -9 4277.44 152.834   8
   5  -4  -9 4686.27 169.348   3
  -5  -4  -9 4070.13 128.913   7
   5   4  -9 4498.42 145.390   8
  -5   4  -9 4236.05 150.228   5
   5  -4  -9 4794.28 171.552   4
  -5   4  -7 19912.3 289.257   5
   5   4  -7 20860.6 271.667   8
  -5  -4  -7 22017.4 274.587   7
   5  -4  -7 21250.3 329.571   4
   5   4  -7 20016.8 281.207   4
   5  -4  -7 20425.9 290.133   6
   5  -4  -7 21407.5 308.344   3
   5   4  -7 20457.3 343.570   3
   5  -4  -7 20158.6 287.114   8
  -4  -5   5 13246.2 208.841   2
  -4   5   5 13973.6 215.279   1
  -5   4  -5 13501.6 209.936   5
   5  -4  -5 13262.0 202.195   3
   5  -4  -5 13307.5 205.220   8
  -5  -4  -5 13446.0 195.476   7
   4  -5   5 14541.0 222.512   2
   5   4  -5 13969.4 242.459   3
  -5   4  -5 13321.1 209.946   2
  -4   5   3 27512.8 258.948   1
  -5  -4  -3 28476.9 260.064   1
  -4   5   3 27851.0 255.356   2
   4  -5   3 27491.1 273.103   2
  -4  -5   3 27464.1 253.489   2
  -4  -5   1 6808.37 104.569   2
   4  -5   1 8165.55 138.287   2
  -4   5   1 7897.36 121.389   1
  -4   5   1 7830.46 132.316   2
  -5  -4  -1 7552.32 89.7990   2
  -5  -4  -1 8725.75 100.217   2
   5  -4  -1 7093.00 128.409   2
  -4   5  -1 8390.32 144.611   2
   4  -5  -1 8114.82 132.281   2
  -4  -5  -1 6862.72 79.1324   2
  -5   4   1 6610.37 128.795   2
  -5   4   1 7821.66 117.804   1
  -4  -5  -3 29170.6 284.551   1
   5  -4   3 29362.0 279.617   2
  -5   4   3 29296.6 278.390   2
  -4   5  -3 28538.4 287.389   2
  -4   5  -5 14079.3 218.337   2
   4   5  -5 13646.8 201.137   5
   4  -5  -5 13135.8 214.584   6
  -5   4   5 12502.2 190.840   2
   5  -4   5 14508.0 216.215   2
  -5  -4   5 13566.2 212.404   2
  -4  -5  -5 13801.6 201.058   7
  -5   4   5 13352.3 218.589   1
  -4   5  -5 14038.8 220.161   5
  -4  -5  -5 13456.3 209.389   1
   4  -5  -7 20662.5 315.685   4
   4  -5  -7 21140.8 291.289   6
  -5   4   7 20467.0 273.170   2
  -4   5  -7 20366.6 300.136   5
  -4  -5  -7 20695.1 274.459   7
  -4  -5  -9 4522.89 142.594   7
   4  -5  -9 4304.75 137.127   6
  -4   5  -9 4281.31 155.312   5
   4   5  -9 4466.70 181.081   3
   4  -5  -9 4349.04 160.901   4
   4   5  -9 4251.65 146.627   8
   4   5 -11 9593.11 226.039   8
  -4  -5 -11 9060.53 204.008   7
   4  -5 -11 9034.58 226.888   8
  -4  -5 -11 9741.70 184.411   8
   4  -5 -11 9507.19 237.233   4
   4   5 -11 10022.0 282.719   3
  -4   5 -11 9982.11 242.134   5
  -4  -5 -13 412.591 47.1733   7
   4   5 -13 429.846 76.1868   3
  -4   5 -13 354.749 58.6937   8
   4  -5 -13 376.788 66.0479   8
   4   5 -13 422.277 57.9119   8
   4   5 -15 1593.82 75.1073   8
   4  -5 -15 1297.62 73.8025   7
   4  -5 -15 1410.40 78.0019   8
   4   5 -15 1481.09 86.4034   3
  -5   4  15 1083.71 75.9824   5
  -4   5 -15 1287.76 72.4123   8
  -5  -5   0 23029.0 182.618   2
  -5   5   0 23375.8 248.257   2
  -5   5   2 59853.9 401.362   2
  -5   5   2 61082.1 369.730   1
  -5  -5  -2 60044.9 176.469   2
   5  -5  -2 59112.9 385.456   2
  -5  -5   2 60524.8 362.574   2
  -5   5  -2 59831.0 418.765   2
  -5   5  -4 125234. 639.146   5
   5  -5  -4 131125. 647.565   8
   5  -5   4 130782. 660.184   2
   5  -5  -4 127755. 688.129   4
  -5   5  -4 120468. 621.719   2
   5  -5  -4 123872. 675.524   6
  -5  -5  -4 128126. 624.422   1
   5   5  -4 127172. 700.788   3
  -5  -5   4 123626. 616.220   2
  -5   5   4 126049. 624.840   1
  -5   5   4 126903. 611.403   2
  -5  -5  -4 126529. 608.592   7
   5   5  -6 243844. 1134.40   3
   5  -5  -6 261517. 1041.27   6
  -5   5  -6 240382. 979.542   5
  -5   5   6 252850. 923.284   2
   5   5  -6 251171. 872.227   8
   5  -5  -6 243917. 1075.64   4
   5  -5  -6 248703. 979.641   8
  -5  -5  -6 252471. 937.581   7
  -5  -5  -8 177506. 856.184   7
   5   5  -8 183953. 870.985   8
   5  -5  -8 172506. 919.091   8
   5  -5  -8 183493. 917.430   6
  -5   5  -8 171591. 948.752   5
   5  -5  -8 183911. 1019.67   4
   5   5 -10 92790.7 666.157   8
   5  -5 -10 94836.4 757.164   4
  -5  -5 -10 94409.4 644.316   7
   5   5 -12 85463.3 802.298   3
   5  -5 -12 86336.8 680.723   4
   5   5 -12 83893.9 623.008   8
  -5   5 -12 85781.0 686.488   8
   5   5 -14 34984.0 358.452   8
  -5   5 -14 35195.9 372.103   8
   5   5 -14 35015.5 438.577   3
   5  -5 -16 9994.95 136.649   7
   5  -5 -16 9836.23 147.488   8
   6   0 -16 6732.76 126.673   8
   6   0 -14 3490.60 125.569   8
   6   0 -14 3045.77 137.715   3
  -6   0 -12 11998.2 212.811   8
   6   0 -12 12328.9 294.025   3
   6   0 -12 12555.2 256.221   8
  -6   0 -10 19551.9 272.387   8
   6   0 -10 18814.4 356.818   3
   6   0 -10 19409.3 317.240   8
   6   0  -8 53584.7 530.052   4
  -6   0  -8 52941.0 408.039   8
   6   0  -8 54141.4 548.163   3
  -6   0  -6 167373. 574.674   2
   6   0  -6 168627. 709.277   8
   6   0  -6 173130. 866.294   4
   6   0  -6 168603. 778.559   6
   6   0  -6 174382. 844.650   3
   0  -6   4 253658. 821.318   2
   0   6   4 250312. 426.465   2
   0  -6   2 786745. 1307.06   2
  -6   0  -2 799559. 1311.60   2
   0  -6   0 399084. 841.577   2
   0   6   0 396755. 773.453   2
   0  -6  -2 839843. 1515.66   1
  -6   0   2 843157. 1404.52   2
   6   0   4 237713. 642.151   2
   0   6  -4 240189. 827.970   2
   0  -6  -6 160068. 677.477   8
   0  -6  -6 160403. 753.045   4
  -6   0   6 159917. 745.680   2
   0  -6  -8 58984.0 475.217   8
   0  -6  -8 58520.6 507.853   4
   0   6 -10 20664.4 355.140   3
   0  -6 -10 21833.8 323.952   8
   0   6 -12 9797.45 246.568   8
   0  -6 -12 9999.69 221.189   8
   0  -6 -12 10194.9 239.311   7
   0   6 -12 10499.8 250.057   3
   0  -6 -14 3794.91 130.612   7
   0  -6 -14 3738.37 124.002   8
   0   6 -14 3574.50 124.085   3
   0  -6 -16 6722.85 105.505   8
   6   1 -15 12046.1 199.817   8
   6  -1 -15 12221.6 205.638   8
   6  -1 -13 3283.22 132.222   8
  -6   1 -13 3305.36 113.324   8
   6   1 -13 3412.99 131.170   8
   6   1 -13 3246.04 156.556   3
   6  -1 -13 3574.06 159.119   3
   6  -1 -11 8178.48 211.645   8
  -6   1 -11 7672.08 182.554   8
   6  -1 -11 7153.85 201.715   4
   6  -1 -11 7436.16 230.118   3
   6   1 -11 7553.51 237.699   3
  -6  -1 -11 7314.35 164.304   8
   6   1 -11 7455.13 198.598   8
   6   1  -9 700.374 79.1481   3
   6   1  -9 603.721 62.0429   8
  -6   1  -9 608.076 53.4432   8
   6  -1  -9 533.943 60.3268   8
   6  -1  -9 628.386 70.4441   4
   6   1  -7 34476.7 406.061   4
   6  -1  -7 34931.4 360.870   8
   6   1  -7 35208.7 350.253   8
   6  -1  -7 34993.9 417.175   4
   6  -1  -7 34574.1 363.537   6
   6   1  -7 35507.5 422.835   3
   6  -1  -7 34136.3 403.103   3
  -1  -6   5 64877.3 457.976   2
  -6   1  -5 65539.4 386.722   2
   6   1  -5 68245.9 491.459   3
  -6  -1  -5 66935.9 310.022   2
   6  -1  -5 67096.3 465.330   3
   6  -1  -5 65594.9 417.868   8
   6  -1  -5 65903.7 478.278   6
   6  -1  -5 67772.2 518.742   4
  -1   6   5 63120.5 265.476   2
  -6  -1  -3 115397. 423.746   2
  -1   6   3 115832. 386.023   2
  -6   1  -3 115171. 505.943   2
   1  -6   1 40385.2 275.697   1
  -6  -1  -1 42918.0 280.140   2
  -1  -6   1 37921.3 255.772   2
   1  -6   1 42454.9 289.335   2
  -6   1  -1 40119.3 301.427   2
  -1   6   1 39662.1 242.085   2
   1   6   1 36700.1 203.572   2
  -1   6  -1 41794.1 285.981   2
   1  -6  -1 45241.0 276.305   2
  -6   1   1 41074.4 320.863   2
  -1  -6  -1 42075.5 322.550   1
   1  -6  -1 43970.4 321.822   1
  -1  -6  -1 41367.0 232.354   2
   6  -1   1 39812.8 277.158   2
   1   6  -1 41167.3 263.041   2
  -6  -1   3 114311. 536.782   2
   6  -1   3 103090. 449.239   2
  -1   6  -3 109243. 527.978   2
  -1  -6  -3 109883. 572.959   1
   1  -6  -3 115729. 403.286   2
   1  -6  -3 109379. 569.416   1
   6   1   5 66615.1 296.494   2
   1  -6  -5 64962.7 455.804   4
   1  -6  -5 65055.9 445.072   6
   1   6  -5 63935.2 481.826   3
  -1   6  -5 66451.9 476.520   5
   1  -6  -5 67834.2 431.375   8
  -1  -6  -5 65355.5 451.545   4
   1   6  -5 66081.2 460.539   5
  -6   1   5 64192.4 450.551   2
   6  -1   5 66554.2 390.877   2
   1  -6  -7 33683.8 348.102   6
   1  -6  -7 37493.8 365.058   8
   1   6  -7 35165.0 407.118   3
  -1   6  -7 35936.7 382.318   3
   1  -6  -7 33916.3 378.048   4
   1   6  -7 35771.2 394.546   5
  -1  -6  -7 33481.6 320.371   8
   1  -6  -9 541.660 62.5232   4
   1  -6  -9 653.855 66.5336   8
  -1  -6  -9 555.506 55.1816   8
   1   6  -9 658.291 70.9140   5
  -1   6  -9 743.248 75.1390   5
  -1   6  -9 839.398 71.9888   3
   1   6  -9 832.990 80.3167   3
   1   6 -11 7610.46 217.168   8
  -1  -6 -11 8241.33 194.561   8
   1   6 -11 8363.34 239.080   3
  -1  -6 -11 7609.80 205.776   7
  -1   6 -11 7629.63 207.101   3
   1  -6 -11 8835.38 218.412   8
  -1   6 -11 8033.03 226.436   5
  -1  -6 -13 3332.15 121.699   8
   1   6 -13 3146.28 137.280   8
   1   6 -13 3082.06 140.132   3
  -1   6 -13 3176.05 122.802   3
  -1  -6 -13 3193.81 128.597   7
   1  -6 -13 3182.51 128.801   8
   1  -6 -15 11596.7 194.115   7
   1  -6 -15 12808.5 202.045   8
  -1  -6 -15 12619.1 186.875   7
   1   6 -15 12564.2 216.629   8
  -1  -6 -15 12191.9 176.108   8
  -1   6 -15 11191.4 207.095   8
   1   6 -15 11920.2 201.026   3
   6  -2 -16 8024.19 123.353   7
   6  -2 -16 7849.34 136.418   8
   6   2 -16 7894.18 127.138   8
   6   2 -14 7068.26 171.076   8
   6  -2 -14 7589.83 182.417   8
  -6   2 -14 7234.44 151.223   8
  -6   2 -12 4146.62 137.450   8
   6  -2 -12 4566.42 181.143   3
   6   2 -12 4072.02 148.194   8
   6   2 -12 4427.02 189.831   3
   6  -2 -12 4048.49 152.613   8
   6  -2 -12 4297.43 152.256   4
  -6   2 -10 14350.3 258.035   8
   6   2 -10 14715.9 272.055   4
  -6   2 -10 14444.4 243.667   5
   6   2 -10 14785.0 268.346   8
   6  -2 -10 15340.4 314.877   3
   6   2 -10 14552.2 326.050   3
   6  -2 -10 14125.7 300.229   4
   6  -2 -10 14813.2 283.703   8
   6   2  -8 58413.8 534.052   4
   6  -2  -8 57258.2 561.325   4
   6   2  -8 59626.1 481.454   8
   6  -2  -8 58595.7 556.877   3
  -6   2  -8 57876.4 464.593   5
   6   2  -8 57990.0 596.730   3
   6  -2  -8 58050.7 491.724   6
   6  -2  -8 57664.4 509.362   8
   6   2  -6 121388. 581.657   8
  -2   6   6 118781. 669.815   1
   6  -2  -6 121860. 675.789   6
   6  -2  -6 121461. 677.335   3
   2  -6   6 116623. 644.221   2
   6  -2  -6 120079. 640.990   8
  -6   2  -6 119719. 602.019   5
   6  -2  -6 119276. 740.383   4
  -6   2  -6 118888. 588.287   2
   6   2  -6 122438. 747.317   3
  -6  -2  -4 94271.3 310.922   2
  -6  -2  -4 95712.7 391.121   1
  -6   2  -4 97895.9 503.293   2
  -2  -6   4 98169.6 522.122   2
   6  -2  -4 95613.4 570.148   6
  -6  -2  -2 171783. 512.045   2
  -2   6   2 170927. 547.860   2
   2  -6   2 169940. 536.294   1
  -6   2  -2 169913. 643.498   2
  -2  -6   2 168747. 563.206   2
  -2   6   0 71924.8 377.619   2
  -2  -6   0 72649.4 313.280   2
   2  -6   0 72088.7 388.523   2
   2  -6   0 71583.9 382.463   1
  -6  -2   0 70929.7 361.118   2
   6  -2   0 70265.5 386.531   2
   6  -2   2 164360. 593.910   2
  -6  -2   2 164551. 598.543   2
   2  -6  -2 164149. 555.613   2
   2  -6  -4 91737.1 528.031   4
   2   6  -4 93846.6 559.305   3
   2  -6  -4 94654.8 534.643   6
  -6   2   4 98480.6 537.213   2
   2  -6  -4 92250.6 505.151   8
  -2  -6  -4 102332. 593.397   1
   6  -2   4 98698.2 496.776   2
  -2   6  -6 118949. 631.203   3
   6  -2   6 117762. 564.405   2
   2  -6  -6 121604. 643.337   8
  -2  -6  -6 118486. 535.496   8
   2   6  -6 120262. 675.560   5
   2   6  -6 121243. 726.034   3
   2  -6  -6 120938. 657.012   6
  -2  -6  -6 121723. 646.973   7
   2  -6  -6 123190. 696.855   4
  -2   6  -6 120363. 678.106   2
   2   6  -8 61171.1 599.289   3
   2  -6  -8 62413.1 546.231   4
   2  -6  -8 63166.8 494.666   6
  -2  -6  -8 61744.2 516.506   7
  -2   6  -8 61886.3 575.645   5
   2  -6  -8 63345.1 519.585   8
  -2  -6  -8 61137.4 442.669   8
  -2   6  -8 60834.1 504.702   3
   2   6  -8 61802.7 554.093   5
  -2  -6 -10 13544.3 266.010   7
  -2   6 -10 14084.5 296.454   5
   2  -6 -10 14358.3 273.879   8
  -2   6 -10 13494.2 256.285   3
  -2  -6 -10 13973.9 237.473   8
   2   6 -10 13454.1 278.489   8
   2  -6 -10 13505.4 274.852   4
   2   6 -10 13370.9 307.591   3
  -2  -6 -12 4748.86 141.424   8
   2   6 -12 5103.22 173.339   8
  -2   6 -12 5461.01 157.391   3
  -2  -6 -12 5298.12 166.323   7
   2   6 -12 5031.40 190.539   3
   2  -6 -12 5416.00 171.591   8
  -2   6 -12 4819.51 177.730   8
  -2  -6 -14 6104.29 136.004   8
  -2  -6 -14 5457.45 144.232   7
   2   6 -14 5854.00 175.277   3
   2  -6 -14 5504.86 155.309   8
  -2   6 -14 6445.39 178.370   8
   2   6 -14 5582.24 159.799   8
   2  -6 -14 6483.76 175.557   7
   2  -6 -16 8539.45 127.046   7
  -2   6 -16 8557.07 146.279   8
   2   6 -16 8852.29 145.073   8
  -6   3 -15 7767.20 129.633   8
   6   3 -15 7711.68 150.035   8
   6  -3 -13 6953.92 176.196   4
   6   3 -13 7900.07 188.868   8
   6  -3 -13 7534.64 194.207   8
  -6   3 -13 7015.66 172.137   8
   6   3 -11 11399.1 298.943   3
   6  -3 -11 12152.0 261.150   8
  -6   3 -11 11906.3 244.159   8
   6  -3 -11 11649.9 268.243   4
   6  -3 -11 12411.3 284.764   3
   6   3 -11 12089.7 245.516   8
   6  -3  -9 29544.6 429.227   4
   6  -3  -9 29022.2 383.794   8
   6   3  -9 28555.2 354.254   8
   6   3  -9 27876.4 443.179   3
  -6   3  -9 28521.4 357.584   5
  -6  -3  -9 29854.1 325.190   7
   6  -3  -9 29457.8 414.445   3
   6   3  -9 29146.9 381.464   4
   6  -3  -7 120477. 700.126   8
   6  -3  -7 120763. 796.337   4
   6   3  -7 121083. 737.137   4
  -6  -3  -7 121975. 621.102   7
   6  -3  -7 126431. 745.342   3
   6   3  -7 120344. 637.207   8
   6  -3  -7 122176. 728.243   6
  -6   3  -7 116655. 666.808   5
   6   3  -7 122371. 827.984   3
   6   3  -5 218217. 954.426   3
  -3  -6   5 220618. 858.273   2
   3  -6   5 216392. 865.722   2
  -3   6   5 213411. 690.396   2
  -6   3  -5 220699. 825.072   2
  -3   6   5 210132. 837.218   1
   6  -3  -5 219807. 910.657   6
   6  -3  -5 219703. 820.353   3
   6  -3  -5 215814. 819.980   8
  -6   3  -5 213332. 798.704   5
  -6  -3  -5 222689. 716.285   1
   6   3  -5 218836. 851.132   6
  -3  -6   3 265393. 807.843   2
  -6  -3  -3 256578. 473.499   2
   6  -3  -3 258908. 924.532   6
   6  -3  -3 256743. 925.588   4
   3  -6   3 256183. 566.692   1
   3  -6   3 247342. 850.086   2
  -3   6   3 251525. 824.143   1
  -6   3  -3 257304. 849.103   2
  -3   6   1 87578.9 436.198   2
   3  -6   1 92350.0 479.503   2
  -6  -3  -1 89770.2 370.419   2
   3  -6   1 85349.6 397.547   1
  -6   3  -1 87124.4 482.656   2
  -6   3  -1 87694.7 290.597   1
  -3  -6   1 84737.9 380.524   2
  -6   3   1 83253.0 392.730   1
  -3   6  -1 84943.0 453.369   2
  -6  -3   1 80399.3 391.952   2
  -3  -6  -1 82120.0 294.535   2
   6  -3   1 83156.5 444.869   2
  -3  -6  -3 258864. 886.714   1
  -6   3   3 258816. 854.076   2
   6  -3   3 248823. 824.128   2
  -6   3   3 264150. 836.161   1
   3  -6  -3 257292. 872.645   6
   3  -6  -3 252376. 855.843   8
  -3  -6  -5 222613. 838.081   7
   3  -6  -5 215637. 847.843   8
  -6   3   5 220702. 902.366   1
   6  -3   5 213461. 797.909   2
   3   6  -5 221899. 840.482   5
  -3   6  -5 223104. 896.497   2
  -3   6  -5 222959. 899.440   5
  -6   3   5 221335. 842.136   2
  -3  -6  -5 219079. 906.721   1
   3  -6  -5 224353. 881.675   6
  -6  -3   5 221019. 891.877   2
   3   6  -5 215399. 949.962   3
   3   6  -7 120438. 804.029   3
  -3  -6  -7 117914. 689.265   7
   3  -6  -7 116454. 693.849   8
   3   6  -7 119489. 726.547   5
  -3   6  -7 116358. 748.369   5
   3  -6  -7 116115. 689.563   6
   3  -6  -7 116902. 736.850   4
  -3  -6  -9 31559.2 325.932   8
   3  -6  -9 32433.2 407.410   8
  -3   6  -9 32249.9 433.202   5
   3   6  -9 32312.9 473.071   3
  -3  -6  -9 31908.4 391.307   7
   3  -6  -9 32383.4 368.321   6
   3   6  -9 32560.5 407.923   8
   3  -6 -11 11168.4 254.948   4
  -3  -6 -11 11193.5 236.448   7
   3  -6 -11 11417.8 252.706   8
   3   6 -11 10999.3 247.547   8
  -3   6 -11 11266.9 267.356   5
   3   6 -11 11671.4 297.516   3
  -3  -6 -11 11147.9 202.730   8
  -3   6 -13 7674.38 209.422   8
  -3  -6 -13 7507.58 154.171   8
   3  -6 -13 7500.88 197.482   8
   3   6 -13 7829.87 196.136   8
   3   6 -13 7319.24 219.691   3
  -3  -6 -13 7676.21 179.905   7
  -3   6 -15 8192.60 171.631   8
   3  -6 -15 8199.73 168.869   7
   3   6 -15 8133.26 180.094   3
   3  -6 -15 8419.14 170.967   8
   3   6 -15 7955.65 160.492   8
   6  -4 -16 1050.30 50.1296   8
   6   4 -14 5679.51 143.532   8
   6  -4 -14 5444.25 157.390   8
  -6   4 -14 5506.09 137.052   8
   6  -4 -12 2958.25 133.216   4
  -6   4 -12 3380.45 134.766   8
   6   4 -12 3167.05 126.080   8
   6  -4 -12 3251.81 139.300   8
   6  -4 -10 11500.6 267.927   3
   6  -4 -10 12211.0 260.751   8
   6   4 -10 11417.6 229.660   8
  -6   4 -10 11849.3 245.391   5
   6   4 -10 11433.9 303.603   3
   6  -4 -10 11988.0 279.121   4
  -6  -4  -8 8559.24 180.458   7
   6  -4  -8 9022.86 219.956   3
   6   4  -8 9166.36 213.948   4
   6   4  -8 9384.40 256.207   3
   6  -4  -8 9124.73 237.090   4
  -6   4  -8 9039.33 207.403   5
   6   4  -8 9186.34 190.234   8
   6  -4  -8 8470.14 204.604   8
  -6  -4  -6 14630.1 219.918   7
   6  -4  -6 14062.7 231.501   3
   6  -4  -6 13778.2 249.191   6
   6   4  -6 13475.2 269.967   3
   6  -4  -6 14137.4 234.560   8
  -6   4  -6 14442.2 232.821   5
   6   4  -6 13496.6 195.598   8
   6  -4  -6 13995.8 264.828   4
   6  -4  -4 3846.96 122.848   6
  -6   4  -4 3129.86 103.793   2
   6  -4  -4 3560.74 108.106   8
  -4   6   4 4136.94 114.306   1
  -6   4  -4 3591.04 106.644   5
  -4  -6   4 3120.28 99.1487   2
   6   4  -4 3760.31 123.068   3
  -6  -4  -4 5010.99 114.881   1
   6  -4  -4 3623.92 123.074   4
  -4   6   4 4667.65 111.185   2
   4  -6   4 4990.99 130.222   2
   4  -6   2 10191.3 174.177   2
  -4   6   2 10231.7 157.382   2
  -4  -6   2 10899.0 155.305   2
  -6  -4  -2 11215.1 109.958   2
  -4   6   2 10845.6 189.181   5
  -6   4   0 11360.0 131.898   1
  -4  -6   0 11404.4 125.609   2
  -4   6   0 11303.8 171.064   2
   4  -6   0 11392.9 174.436   2
  -6  -4   0 11496.8 140.015   2
  -6   4   2 11936.1 200.557   5
   4  -6  -2 11066.5 185.103   6
   4  -6  -2 10240.1 159.044   2
   4  -6  -2 8792.50 165.797   8
   6  -4   2 10850.8 171.698   2
  -4   6  -2 9875.36 168.104   2
  -6   4   2 11735.8 167.930   1
   4   6  -2 10372.2 174.736   3
  -4   6  -2 10296.6 173.257   5
  -6   4   2 12992.0 199.633   2
  -6   4   4 2658.59 93.5732   2
   4  -6  -4 3611.89 117.148   6
   6  -4   4 2461.50 89.7474   2
  -4   6  -4 4210.35 122.072   2
  -4  -6  -4 3176.49 106.796   1
  -4   6  -4 4020.27 119.639   5
   4  -6  -4 3630.38 116.860   4
  -6   4   4 3327.06 106.116   1
  -6  -4   4 4167.83 113.507   2
  -4  -6  -4 4080.35 113.133   7
   4  -6  -6 13172.0 237.657   6
  -4   6  -6 13023.9 239.521   5
   4   6  -6 13799.3 229.552   5
   4   6  -8 8968.43 202.293   8
  -4  -6  -8 9109.10 201.122   7
   4  -6  -8 8742.68 204.320   6
   4  -6  -8 9439.34 233.310   4
  -4   6  -8 9458.08 231.934   5
   4   6  -8 9269.13 252.636   3
   4   6 -10 11210.6 242.255   8
   4  -6 -10 12126.2 274.375   4
   4  -6 -10 11336.4 252.806   8
  -4   6 -10 11781.6 270.414   5
   4   6 -10 11592.4 301.698   3
  -4   6 -12 3588.20 150.871   8
   4  -6 -12 3562.06 144.490   4
   4  -6 -12 3015.17 138.766   8
  -4   6 -12 3494.54 144.103   5
  -4  -6 -12 2635.11 113.323   7
   4   6 -12 3484.04 170.251   3
   4   6 -12 3027.31 129.077   8
  -4   6 -14 6050.91 163.168   8
   4   6 -14 5569.58 176.739   3
   4  -6 -14 6147.04 172.151   7
   4  -6 -14 5590.04 159.445   8
   4   6 -14 5164.34 143.650   8
  -4   6 -16 937.245 43.1631   8
   4  -6 -16 1119.16 50.9473   8
   6  -5 -15 7285.36 154.125   7
  -6   5 -15 7496.20 125.418   8
   6   5 -15 7560.44 126.890   8
   6  -5 -15 7232.70 150.610   8
  -6   5 -13 12869.2 237.803   8
   6  -5 -13 13087.2 252.880   8
  -5   6  13 12573.6 261.102   5
   6   5 -13 13220.4 226.726   8
   6  -5 -13 13222.0 244.924   4
   6  -5 -11 9084.73 230.418   8
   6   5 -11 8669.59 202.059   8
  -6   5 -11 8849.76 216.788   5
  -6   5 -11 8931.47 226.816   8
   6  -5 -11 8777.49 238.867   4
  -6   5  -9 29315.6 403.216   5
   6  -5  -9 29506.7 442.173   4
   6  -5  -9 31336.3 396.125   6
   6  -5  -9 30771.2 405.992   8
   6   5  -9 30233.0 361.385   8
   6   5  -9 30146.9 485.423   3
  -6  -5  -9 30394.8 361.330   7
   6   5  -7 118774. 633.046   8
  -6   5  -7 115730. 742.703   5
   6  -5  -7 119234. 737.274   8
   6   5  -7 122254. 880.439   3
   6  -5  -7 116804. 767.615   6
   6  -5  -7 120074. 830.074   4
  -6  -5  -7 112702. 676.489   7
  -6   5  -5 283666. 1044.97   5
   6  -5  -5 281322. 1119.52   6
   6  -5  -5 294134. 1058.37   8
   6   5  -5 297612. 1189.82   3
  -5   6   5 283533. 948.122   2
   6  -5  -5 286539. 1159.69   4
  -6  -5  -5 285125. 994.916   1
  -5   6   3 210688. 904.561   5
  -5   6   3 212566. 782.432   1
   6  -5  -3 211554. 887.535   4
  -6   5  -3 227938. 907.644   2
   6  -5  -3 210401. 842.836   8
   6  -5  -3 206406. 900.644   6
  -5   6   3 224151. 824.042   2
  -5  -6   3 216926. 764.960   2
  -6   5  -3 209927. 838.163   5
  -6  -5  -3 212587. 789.385   1
   6   5  -3 222101. 902.403   3
  -6  -5  -1 91414.3 335.948   2
   5  -6   1 95421.6 544.931   2
   6  -5  -1 93868.3 522.489   2
  -5   6   1 87984.6 499.217   2
  -5  -6   1 89619.6 416.885   2
   6  -5  -1 93198.6 555.339   6
  -6  -5  -1 95550.9 357.883   2
  -6   5  -1 99211.2 540.668   5
   5  -6  -1 91253.2 501.168   2
   5   6  -1 89755.4 510.876   3
   5  -6  -1 91536.6 541.174   6
  -6  -5   1 91508.6 427.567   2
  -6   5   1 92429.7 438.029   1
  -5  -6  -1 90102.7 308.203   2
  -6   5   1 91568.5 553.373   5
  -5  -6  -1 89651.4 311.661   2
  -5   6  -1 95776.7 539.546   5
  -6   5   1 94258.3 551.761   2
  -5   6  -1 92292.0 528.800   2
   6  -5   3 213256. 823.983   2
   5  -6  -3 213659. 873.834   8
   5  -6  -3 218114. 881.870   4
  -5  -6  -3 215502. 849.845   1
  -6  -5   3 216891. 771.144   2
   5   6  -3 214284. 892.300   3
  -5   6  -3 221077. 891.546   2
  -5   6  -3 206055. 839.256   5
  -6   5   3 220584. 843.224   2
  -6   5   3 211382. 908.117   5
  -6   5   3 212505. 786.657   1
   5  -6  -5 286583. 1112.78   6
   5   6  -5 283361. 1175.12   3
  -6   5   5 293761. 1030.72   2
   5   6  -5 287898. 934.856   5
  -5   6  -5 279577. 1073.88   5
  -5  -6  -5 280745. 999.610   7
   5  -6  -5 275639. 1040.07   8
   5  -6  -5 284875. 1144.90   4
  -5  -6  -5 295939. 1088.24   1
  -5  -6  -7 125898. 722.770   7
   5  -6  -7 124800. 819.066   4
   5  -6  -9 30427.1 434.221   4
  -5  -6  -9 29865.1 376.597   7
   5   6  -9 29676.6 368.332   8
  -5   6  -9 30203.0 426.302   5
  -5   6 -11 7780.83 216.092   5
   5   6 -11 7287.58 190.157   8
   5  -6 -11 7809.81 224.887   4
   5   6 -11 7851.38 256.092   3
  -5  -6 -11 7668.67 187.759   7
  -5   6 -13 11999.8 241.623   8
   5   6 -13 11304.1 215.788   8
   5   6 -13 12213.1 283.589   3
   5   6 -15 6408.64 122.132   8
  -6   5  15 6376.44 146.536   5
   5  -6 -15 6759.70 147.083   8
   5   6 -15 6639.47 160.352   3
  -5   6 -15 6759.19 135.347   8
   5  -6 -15 6660.57 147.577   7
   6  -6   0 84202.8 541.108   6
   6  -6   0 81579.6 505.208   2
  -6   6   0 81018.7 516.799   2
   6   6   0 83358.0 485.255   3
  -6  -6   0 82201.7 367.950   2
  -6  -6   2 90921.4 469.397   2
   6  -6  -2 92994.5 532.767   2
   6   6  -2 90309.1 558.538   3
   6  -6  -2 94479.1 578.061   4
   6  -6  -2 93800.6 613.114   6
   6  -6   2 95508.0 533.590   6
   6  -6  -2 88970.0 583.334   8
  -6   6  -2 97492.2 567.171   5
  -6   6   2 91293.2 543.676   2
  -6   6   2 95809.0 500.817   1
  -6   6   2 87800.8 588.100   5
   6  -6  -4 215094. 993.668   6
   6  -6  -4 218023. 997.075   4
  -6   6   4 215726. 872.216   1
   6  -6  -4 214027. 916.620   8
  -6  -6  -4 215658. 896.238   1
  -6   6   4 220299. 875.051   2
  -6  -6   4 218673. 851.641   2
   6   6  -4 216390. 1008.09   3
   6  -6  -6 139322. 792.717   8
  -6   6  -6 138155. 804.241   5
   6   6  -6 140575. 935.648   3
   6   6  -8 32503.0 354.252   8
   6  -6  -8 31885.1 453.084   4
   6  -6  -8 30926.3 409.075   6
  -6   6  -8 30901.4 412.952   5
   6  -6  -8 32370.8 412.986   8
  -6  -6  -8 31583.1 377.794   7
   6   6  -8 32519.9 488.212   3
   6  -6 -10 3004.38 123.959   6
   6   6 -10 3088.37 119.070   8
  -6   6 -10 3233.75 141.612   5
   6  -6 -10 3053.50 148.838   4
   6  -6 -10 3047.36 139.503   8
  -6   6  12 364.162 66.2463   5
  -6   6 -12 280.606 51.9299   8
   6  -6 -12 276.662 55.6545   4
  -6   6 -14 8753.44 169.789   8
   6   6 -14 9143.90 215.852   3
   6   6 -14 8974.40 156.412   8
  -6   6  14 9010.75 191.453   5
   7   0 -15 4614.11 118.424   8
   7   0 -13 28109.8 412.501   3
   7   0 -13 27521.8 351.158   8
   7   0 -11 26993.1 430.079   3
   7   0 -11 27615.3 394.530   4
   7   0 -11 27697.2 375.214   8
   7   0  -9 19707.6 302.684   8
   7   0  -9 18587.4 339.411   4
   7   0  -9 19509.0 353.316   3
   7   0  -7 32126.7 372.024   6
   7   0  -7 32834.6 425.381   4
   7   0  -7 33036.9 345.165   8
   7   0  -7 32883.8 412.607   3
   7   0  -5 168611. 815.551   6
   7   0  -5 172132. 877.868   4
   7   0  -5 171102. 667.120   8
   7   0  -5 168627. 782.678   3
   0  -7   5 167490. 768.277   2
   0   7   3 165917. 424.264   2
  -7   0  -3 167488. 359.323   1
   7   0  -3 166784. 759.581   6
   0   7   1 252436. 628.357   2
   0  -7   1 256703. 745.189   2
  -7   0   1 257348. 825.982   2
   0  -7  -1 254344. 848.434   1
   0  -7  -3 157705. 674.779   4
   0  -7  -3 161495. 431.018   2
   0   7  -3 157898. 664.823   5
   0   7  -3 161955. 666.913   2
   0  -7  -3 162029. 694.629   6
   7   0   3 159111. 557.803   2
   0  -7  -3 160691. 643.052   7
   0  -7  -5 164034. 769.961   4
   0  -7  -5 158693. 667.827   8
   0   7  -5 167882. 791.322   3
   0   7  -5 175102. 799.559   5
   7   0   5 174807. 586.788   2
  -7   0   5 163396. 761.465   2
   0   7  -7 35636.1 415.416   3
   0  -7  -7 36332.8 400.490   4
   0   7  -7 36280.3 422.144   5
   0  -7  -7 35802.4 355.373   8
   0  -7  -9 18769.4 288.026   8
   0   7  -9 19101.6 336.892   3
   0   7 -11 26268.6 405.409   8
   0   7 -11 25828.1 399.364   3
   0  -7 -11 26639.1 391.222   7
   0  -7 -11 27241.6 361.102   8
   0  -7 -13 25930.9 359.529   7
   0   7 -13 25340.2 351.138   3
   0   7 -13 25784.0 367.809   8
   0  -7 -13 25965.5 328.834   8
   0  -7 -15 4619.23 116.895   7
   0  -7 -15 4645.95 106.892   8
   7  -1 -16 1873.03 60.3463   8
   7  -1 -14 10773.2 206.020   8
   7   1 -14 10778.6 246.595   3
   7   1 -14 10792.7 199.704   8
   7  -1 -12 8026.11 203.024   4
  -7   1 -12 8267.99 169.966   8
   7  -1 -12 8031.55 233.244   3
   7   1 -12 8418.56 202.930   8
   7   1 -12 8362.21 242.369   3
  -1   7  12 7522.24 185.208   5
   7  -1 -12 8011.93 202.760   8
   7  -1 -10 15770.6 320.165   4
   7   1 -10 15351.5 299.473   4
  -7   1 -10 15669.8 244.080   8
   7  -1 -10 15885.0 286.723   8
   7   1 -10 15163.8 271.342   8
   7  -1 -10 15338.8 317.487   3
   7   1 -10 15538.4 332.383   3
   7   1  -8 7188.50 211.960   3
   7  -1  -8 7549.42 215.500   4
   7  -1  -8 7611.34 209.785   3
   7  -1  -8 7491.70 183.160   8
   7  -1  -8 7425.03 186.243   6
   7   1  -8 7227.22 173.208   8
   7   1  -6 5154.03 124.538   8
   7  -1  -6 4586.52 142.981   6
   7  -1  -6 4752.78 157.511   4
   7   1  -6 5196.23 147.749   6
   7  -1  -6 4918.05 129.128   8
   7  -1  -6 4518.86 138.116   3
   7   1  -6 5020.54 160.264   4
   7   1  -6 5192.22 157.234   3
   7   1  -4 15663.6 241.228   6
  -7   1  -4 16093.0 209.134   2
  -7  -1  -4 16665.1 135.961   1
  -1   7   4 17917.2 171.310   2
   1  -7   4 16555.3 228.795   2
   7  -1  -4 14163.3 234.057   6
  -7  -1  -4 16522.7 174.206   2
  -1  -7   4 13654.7 203.544   2
  -1  -7   2 7094.00 130.215   2
  -1   7   2 9099.13 121.058   2
   7  -1  -2 7659.69 161.881   6
   1   7   2 8394.43 94.4250   2
   1  -7   2 11244.7 168.156   2
  -7   1  -2 6807.95 131.757   2
  -7  -1  -2 10793.1 153.672   2
   1  -7   2 9458.55 146.659   1
  -7  -1   0 6337.91 127.472   2
  -1  -7   0 5911.78 103.842   2
   1  -7   0 5999.34 124.242   1
   1  -7   0 6189.54 117.064   2
   1  -7  -2 9656.26 174.929   1
  -7   1   2 6204.15 135.885   2
   1  -7  -2 10530.4 137.198   2
  -1   7  -2 8806.31 150.919   2
   1   7  -2 8329.82 140.166   2
  -1  -7  -2 6715.96 91.3554   2
  -7  -1   2 10034.5 163.741   2
   7  -1   2 6590.76 123.711   2
   1  -7  -4 15647.0 226.726   6
  -1   7  -4 15988.7 229.837   5
   1  -7  -4 14918.6 221.825   4
   7  -1   4 15121.9 185.283   2
  -1   7  -4 15373.9 220.505   2
   1   7  -4 15871.6 222.130   5
  -7  -1   4 17054.9 235.644   2
   1   7  -4 16250.5 240.426   3
  -1   7  -4 15237.3 215.596   3
  -1  -7  -4 15528.4 247.235   1
   1  -7  -6 4799.86 143.655   4
   1   7  -6 5140.55 153.558   3
   1  -7  -6 5218.40 142.813   6
   1   7  -6 5209.17 150.243   5
  -1   7  -6 5484.46 157.094   5
  -1  -7  -6 5098.77 121.779   8
  -1   7  -6 5810.92 152.453   3
   1  -7  -8 7564.54 197.263   4
  -1  -7  -8 6458.80 179.546   7
  -1  -7  -8 7095.35 162.505   8
  -1   7  -8 7040.88 189.333   3
   1   7  -8 7219.08 200.084   5
   1  -7  -8 6215.92 167.625   8
   1   7  -8 7794.00 214.825   3
  -1   7 -10 14087.7 300.049   5
   1  -7 -10 15268.3 282.207   8
   1   7 -10 14836.2 301.575   5
  -1  -7 -10 15336.4 259.911   8
  -1   7 -10 14908.9 290.483   3
   1   7 -10 14506.1 314.952   3
  -1  -7 -10 15090.5 287.562   7
  -1  -7 -12 8587.08 192.399   8
   1   7 -12 8391.22 224.252   8
  -1   7 -12 8508.24 205.544   3
   1   7 -12 8337.98 232.986   3
   1  -7 -12 8658.42 224.535   7
   1  -7 -12 8905.01 212.552   8
  -1  -7 -12 8712.59 217.584   7
   1   7 -14 10605.8 211.500   3
   1   7 -14 10357.1 212.541   8
  -1  -7 -14 11227.1 183.496   8
   1  -7 -14 11003.2 215.855   7
   1  -7 -14 11009.9 201.969   8
  -1  -7 -14 11514.3 210.127   7
   1   7 -16 1541.83 60.1008   8
  -7   1  16 2075.33 81.1048   5
   7   2 -15 1822.11 71.0975   8
   7  -2 -15 1858.58 78.7915   8
  -7   2 -13 17572.8 236.385   8
   7  -2 -13 17685.2 269.654   4
   7   2 -13 17187.2 269.437   8
   7   2 -13 17216.7 332.528   3
   7  -2 -13 17616.1 283.177   8
   7   2 -11 16725.6 281.554   8
  -7   2 -11 16992.4 264.355   8
   7  -2 -11 16845.5 328.779   3
   7  -2 -11 16921.6 299.395   8
   7   2 -11 17150.0 360.241   3
   7  -2 -11 16830.4 322.492   4
   7   2  -9 3790.63 130.738   8
  -7   2  -9 4163.55 133.541   8
   7  -2  -9 3918.75 144.830   8
   7   2  -9 3906.44 153.306   4
   7  -2  -9 4211.69 169.985   4
   7   2  -9 3904.94 172.019   3
   7   2  -7 20733.7 265.099   8
   7  -2  -7 21235.5 314.059   6
   7  -2  -7 21392.8 355.009   4
   7  -2  -7 20752.2 290.545   8
   7   2  -7 20529.3 331.897   4
   7   2  -7 20251.5 342.009   3
  -2   7   5 33074.1 344.815   5
  -2  -7   5 36047.7 358.636   2
   7  -2  -5 34754.1 385.708   6
   7  -2  -5 33872.4 400.419   4
   7   2  -5 34267.7 367.333   6
   7  -2  -5 35490.0 342.139   3
  -7   2  -5 34728.2 315.840   2
   7   2  -5 35881.1 388.158   3
   7  -2  -5 35184.3 327.183   8
   2  -7   3 162887. 559.819   1
  -2  -7   3 161226. 666.977   2
  -2   7   3 161412. 540.143   2
  -7   2  -3 159194. 676.220   2
   7  -2  -3 161701. 770.123   6
   7  -2  -3 162958. 780.122   4
  -7  -2  -3 156630. 504.604   2
   2  -7   3 165664. 704.711   2
  -7  -2  -1 64412.5 368.299   2
  -2   7   1 66907.5 374.893   2
  -2  -7   1 66014.6 356.517   2
   2  -7   1 66746.7 415.312   2
   2  -7   1 65136.5 387.858   1
  -2   7  -1 68713.5 414.347   2
   2  -7  -1 67663.4 396.541   2
  -7  -2   1 69218.3 405.329   2
   7  -2   1 68575.1 412.078   2
   2  -7  -1 67068.6 435.943   1
  -2   7  -3 161630. 704.146   2
  -2  -7  -3 165855. 762.630   1
  -2  -7  -3 159319. 669.892   7
   7  -2   3 157978. 640.763   2
  -2   7  -3 164487. 711.729   5
   2  -7  -3 158636. 556.067   2
   2  -7  -3 158582. 699.786   4
   2  -7  -3 157447. 694.180   8
   2  -7  -3 158472. 716.577   6
   2   7  -3 160133. 721.548   3
  -7  -2   3 156358. 657.836   2
  -7  -2   5 35424.4 356.246   2
  -2  -7  -5 35703.4 286.632   8
  -2  -7  -5 37667.8 401.066   1
   7  -2   5 33971.9 292.425   2
   2  -7  -5 36236.0 367.796   6
   2   7  -5 36545.7 392.531   3
  -2   7  -5 35948.5 336.291   3
   2   7  -5 36902.3 358.906   5
  -2   7  -5 33750.9 362.760   5
  -7   2   5 38155.0 373.276   2
   2  -7  -5 35740.1 350.313   8
  -2  -7  -7 22939.0 321.890   7
   2  -7  -7 23005.6 329.581   4
   2   7  -7 22281.8 350.763   3
  -2   7  -7 22420.6 301.037   3
   2   7  -7 22121.9 326.876   5
   2  -7  -7 22175.9 307.413   6
  -2  -7  -7 22226.7 254.500   8
  -2  -7  -9 3877.64 145.775   7
   2  -7  -9 4548.56 165.363   4
   2  -7  -9 3950.66 145.218   8
   2   7  -9 4307.03 161.223   5
  -2   7  -9 4949.13 178.530   5
  -2   7  -9 4782.91 153.458   3
   2   7  -9 4626.34 181.150   3
  -2  -7  -9 4329.38 128.434   8
   2  -7 -11 16755.0 299.646   8
  -2   7 -11 15542.6 272.223   3
  -2  -7 -11 16226.9 294.174   7
   2   7 -11 16260.7 341.599   3
   2   7 -11 15987.8 304.189   8
  -2  -7 -11 15003.7 243.070   8
  -2   7 -11 16152.4 325.726   5
  -2   7 -13 15954.9 300.136   8
   2  -7 -13 16045.0 290.253   7
   2  -7 -13 17584.6 288.683   8
   2   7 -13 17058.1 288.557   8
   2   7 -13 17229.1 316.507   3
  -2  -7 -13 17664.1 280.581   7
  -2  -7 -13 16040.3 229.940   8
   2   7 -15 1845.06 81.3862   8
  -2   7 -15 1791.81 83.0395   8
   2  -7 -15 1785.59 77.1707   8
   2  -7 -15 1779.76 79.1861   7
   2   7 -15 1763.60 76.5357   3
   7   3 -14 13219.9 268.591   3
   7  -3 -14 13277.5 230.257   8
  -3   7  14 12882.9 208.359   5
   7   3 -14 13212.4 205.601   8
   7  -3 -12 48930.7 514.336   4
   7   3 -12 47607.5 455.319   8
   7   3 -12 47376.3 581.374   3
  -7   3 -12 48909.5 446.228   8
   7  -3 -12 48230.3 491.808   8
   7   3 -10 13586.6 247.173   8
   7  -3 -10 13748.2 272.086   8
  -7   3 -10 13589.2 244.473   5
   7  -3 -10 13720.7 291.556   3
  -7   3 -10 13465.3 251.634   8
   7  -3 -10 13077.4 296.139   4
   7   3 -10 12977.7 316.183   3
   7   3 -10 13986.1 273.235   4
   7   3  -8 4659.50 163.210   4
   7  -3  -8 5027.38 157.872   8
   7   3  -8 4635.72 135.289   8
   7  -3  -8 4318.10 156.284   3
  -7   3  -8 5685.93 155.611   5
   7  -3  -8 4584.05 175.983   4
   7  -3  -8 4700.63 156.131   6
   7   3  -8 5847.52 200.587   3
   7  -3  -6 24746.7 366.964   4
   7   3  -6 25466.1 322.187   6
   7  -3  -6 24681.8 306.624   8
  -7   3  -6 24494.8 297.013   5
   7  -3  -6 24147.8 305.787   3
   7  -3  -6 23934.3 336.790   6
   7   3  -6 25428.8 363.925   3
  -3   7   4 128273. 687.644   5
   7  -3  -4 128486. 730.438   6
   7  -3  -4 129319. 749.053   4
   7  -3  -4 129881. 626.714   8
  -7  -3  -4 126649. 529.289   1
   7   3  -4 130356. 700.652   3
  -7   3  -4 129774. 655.192   2
  -7   3  -4 127296. 602.397   5
  -3   7   2 54038.3 407.852   5
  -7   3  -2 50763.2 394.491   2
  -3   7   2 50145.9 339.430   2
   7  -3  -2 48946.2 414.503   4
  -7  -3  -2 53117.2 294.709   2
   3  -7   2 51146.8 391.459   2
   3  -7   2 51141.2 318.495   1
   3  -7   0 63165.7 400.054   2
   7  -3   0 60481.0 443.906   6
  -3   7   0 63911.8 405.984   2
  -7   3   0 65982.7 450.700   2
   3  -7   0 61729.5 395.413   1
   7  -3   0 63171.0 409.662   2
  -3   7   0 66214.0 432.893   5
  -7   3   0 65953.7 331.122   1
  -3  -7   0 61914.1 315.813   2
  -7  -3   0 63110.1 364.909   2
  -3  -7  -2 48289.9 370.610   7
   3  -7  -2 45616.7 356.579   4
  -7   3   2 48175.9 398.407   5
  -7   3   2 46615.6 339.297   1
   3  -7  -2 47022.3 390.155   8
  -3  -7  -2 49280.7 410.516   1
   3  -7  -2 44926.1 376.741   6
   7  -3   2 46757.0 358.552   2
   3  -7  -2 48954.3 341.841   2
  -3  -7  -2 42959.8 151.027   2
  -3   7  -2 48201.7 382.234   5
  -7  -3   2 48411.9 344.676   2
  -3   7  -2 49194.3 386.417   2
   3  -7  -4 124324. 682.370   6
   7  -3   4 125171. 611.625   2
  -3  -7  -4 133158. 719.676   1
   3  -7  -4 125627. 660.392   8
   3  -7  -4 126440. 679.688   4
   3   7  -4 127843. 615.890   5
  -7   3   4 126784. 657.803   1
  -7   3   4 124504. 655.783   2
   3   7  -4 130322. 725.776   3
   3  -7  -6 25828.7 322.608   8
  -3  -7  -6 25562.1 315.516   7
   7  -3   6 25005.7 296.894   2
   3   7  -6 25450.3 322.152   5
  -3   7  -6 24936.0 340.664   5
   3  -7  -8 6263.61 175.628   8
   3  -7  -8 5737.74 181.553   4
   3   7  -8 5671.64 173.349   5
  -3   7  -8 6067.57 191.429   5
   3  -7  -8 5520.78 165.192   6
  -3  -7  -8 6269.22 173.680   7
   3   7  -8 6068.41 203.461   3
   3  -7 -10 11502.6 267.270   4
   3   7 -10 10858.7 244.201   8
  -3  -7 -10 11243.8 240.741   7
  -3   7 -10 11725.9 276.165   5
   3  -7 -10 12170.8 260.980   8
   3   7 -10 11745.4 299.421   3
  -3  -7 -10 11650.6 201.903   8
  -3   7 -12 45583.7 522.566   8
   3  -7 -12 46290.2 494.300   8
  -3  -7 -12 44515.4 461.489   7
   3   7 -12 44790.2 558.254   3
  -3   7 -12 45071.2 513.009   5
   3   7 -14 12896.8 222.592   8
   3  -7 -14 13052.6 237.282   7
  -3   7 -14 12529.9 235.590   8
   3   7 -14 12566.6 246.708   3
   3  -7 -14 13146.5 227.483   8
  -3   7 -16 13933.2 156.294   8
   7  -4 -15 1044.41 61.6884   8
   7   4 -15 997.589 45.7817   8
   7  -4 -13 875.226 72.1578   4
  -7   4 -13 1285.46 72.8477   8
   7   4 -13 1307.88 106.040   3
  -4   7  13 881.731 74.7325   5
   7   4 -13 1085.89 68.9808   8
   7  -4 -13 1087.65 82.2622   8
  -7   4 -11 1082.37 79.9189   8
   7  -4 -11 982.502 90.6935   4
  -7   4 -11 1014.27 72.0727   5
   7   4 -11 906.571 71.0431   8
   7   4 -11 1066.29 108.825   3
   7  -4 -11 758.363 81.3883   8
   7   4  -9 1531.66 85.0379   8
   7  -4  -9 1663.66 117.836   4
   7  -4  -9 1621.60 96.9113   6
   7   4  -9 1643.42 100.556   4
   7  -4  -9 1545.00 103.121   3
  -7   4  -9 1700.00 95.8368   5
   7   4  -9 1828.41 128.108   3
   7  -4  -7 9232.82 241.123   4
   7   4  -7 9544.70 251.006   3
   7  -4  -7 8907.71 219.159   6
   7  -4  -7 9361.51 210.168   3
  -7   4  -7 9463.56 202.842   5
  -4   7   5 4151.13 140.548   5
   7   4  -5 4031.23 144.147   3
   7  -4  -5 4067.48 142.028   6
   7  -4  -5 3722.37 142.573   4
  -7   4  -5 4135.80 124.699   5
   7  -4  -5 3839.30 123.328   8
   7  -4  -5 4334.23 120.987   3
  -4  -7   3 8811.67 151.997   2
  -7   4  -3 10026.5 184.903   2
   7  -4  -3 10430.0 207.303   6
   7   4  -3 10794.9 200.852   3
  -4   7   3 10363.5 159.731   2
   7  -4  -3 10132.1 182.477   8
  -7   4  -3 10670.2 183.329   5
   4  -7   3 12741.1 214.763   2
  -4   7   3 12169.4 215.132   5
   7  -4  -3 10283.7 206.368   4
  -7  -4  -1 15091.4 163.293   2
   7  -4  -1 14677.1 231.926   6
  -4   7   1 14298.4 197.787   2
   7  -4  -1 14168.0 213.374   4
  -4   7   1 14798.6 218.655   5
  -7   4  -1 15180.6 220.145   2
  -4  -7   1 13995.6 164.682   2
   4  -7   1 13928.3 208.178   2
  -7   4  -1 14842.6 206.551   5
  -4   7  -1 14580.3 213.982   2
   7  -4   1 14614.4 218.128   6
   4  -7  -1 13789.4 212.032   6
   4  -7  -1 13971.0 195.494   2
  -7   4   1 14604.9 176.865   1
   7  -4   1 14453.4 206.717   2
   4   7  -1 13678.0 204.973   3
  -7  -4   1 14494.8 182.180   2
  -4   7  -1 14231.6 215.784   5
  -4  -7  -1 14688.8 128.539   2
  -7   4   3 9288.53 193.720   5
  -4   7  -3 10314.1 191.859   2
   4  -7  -3 10329.3 189.963   4
  -7   4   3 9421.12 183.304   2
   7  -4   3 8470.49 157.203   2
  -7   4   3 9965.85 176.021   1
   4  -7  -5 3206.58 118.386   8
  -4  -7  -5 3234.86 113.473   7
   4  -7  -5 3900.16 136.464   4
   4  -7  -5 3575.13 128.601   6
   4   7  -5 4181.39 119.430   5
  -4   7  -5 3983.85 136.427   5
   4   7  -7 9827.68 252.747   3
   4  -7  -7 8369.31 217.125   4
  -4  -7  -7 9813.40 207.413   7
   4  -7  -7 9624.28 215.652   8
   4   7  -7 9289.88 206.373   5
  -4   7  -7 9208.17 226.002   5
   4  -7  -7 8606.33 210.178   6
   4  -7  -9 1520.70 110.123   4
  -4  -7  -9 1769.86 102.594   7
  -4   7  -9 1715.42 115.084   5
   4   7  -9 1727.10 98.9271   8
   4  -7  -9 1634.38 96.3536   6
   4  -7  -9 1772.66 110.313   8
   4   7 -11 884.929 76.8606   8
   4  -7 -11 999.485 91.1234   4
  -4   7 -11 1218.90 99.8124   5
   4  -7 -11 999.909 90.2274   8
  -4  -7 -11 758.334 75.1934   7
   4   7 -11 1145.29 114.400   3
   4   7 -13 1050.33 74.1571   8
   4  -7 -13 966.415 81.6860   8
   4   7 -13 1196.40 98.9826   3
  -7   4  15 1424.53 78.5623   5
  -4   7 -15 1403.38 68.0323   8
   4  -7 -15 1084.70 63.8606   7
   4   7 -15 1072.51 53.6377   8
   4   7 -15 1157.05 69.0230   3
   4  -7 -15 1035.80 62.6819   8
  -7   5 -14 11989.8 172.832   8
   7   5 -14 12225.0 172.997   8
   7  -5 -14 11626.1 207.770   8
  -5   7  12 32186.0 427.741   5
  -7   5 -12 32712.1 384.812   8
   7  -5 -12 31515.4 398.356   8
   7   5 -12 31336.0 476.145   3
   7  -5 -12 31831.4 416.250   4
   7   5 -12 31336.1 343.967   8
   7   5 -10 7063.91 172.792   8
   7  -5 -10 7243.96 224.380   4
   7  -5 -10 7129.56 187.470   6
  -7   5 -10 7287.79 197.342   5
   7   5 -10 7393.22 247.816   3
   7  -5 -10 7197.38 206.463   8
   7   5  -8 6092.57 147.902   8
   7  -5  -8 6411.90 212.341   4
   7  -5  -8 6339.45 183.741   8
   7  -5  -8 5949.17 183.966   6
   7   5  -8 6260.40 216.740   3
   7   5  -8 6326.62 185.320   4
  -7   5  -8 6125.30 181.244   5
  -5   7   6 43176.7 477.227   5
   7   5  -6 45427.4 522.977   3
   7  -5  -6 44325.7 449.202   8
   7   5  -6 44747.4 432.536   6
  -7   5  -6 43489.5 435.649   5
   7  -5  -6 42011.6 474.353   6
   7  -5  -4 66467.7 557.817   4
   7  -5  -4 62524.9 549.826   6
  -7  -5  -4 63892.7 453.867   1
  -5   7   4 60476.1 431.258   2
   7   5  -4 65466.0 559.566   3
  -7   5  -4 63879.7 489.125   5
   7  -5  -4 66610.3 504.865   8
  -5   7   4 64634.7 529.829   5
   5  -7   2 87437.5 508.647   6
  -5  -7   2 86823.0 461.653   2
  -7   5  -2 84867.7 544.559   2
   5  -7   2 91913.0 568.670   2
   7  -5  -2 91035.4 584.199   4
   7  -5  -2 89248.3 606.695   6
  -5   7   2 85992.8 514.659   2
   7   5  -2 87225.4 549.662   3
  -7   5  -2 89673.7 538.023   5
  -5   7   2 92600.1 588.593   5
   7  -5   0 32326.1 343.280   6
   5   7   0 31953.6 312.801   3
  -5  -7   0 30727.9 214.692   2
   5  -7   0 31598.5 315.991   2
  -7   5   0 34274.0 337.383   5
   5  -7   0 31713.6 326.836   6
  -7   5   0 33877.4 241.283   1
   7   5   0 31323.6 291.639   3
  -7  -5   0 31682.5 249.104   2
  -5   7   0 30970.7 312.378   2
  -7  -5   0 31552.5 240.473   2
   5  -7  -2 88374.6 582.888   6
   5  -7  -2 85644.1 535.436   4
  -5   7  -2 84966.5 538.945   2
   7  -5   2 81316.1 521.746   2
   7  -5   2 83292.5 522.865   6
   5  -7  -2 82990.7 563.739   8
  -7   5   2 89268.5 591.575   5
   5   7  -2 86247.4 545.704   3
  -7   5   2 83848.3 543.215   2
  -7   5   2 86528.6 478.019   1
   5  -7  -2 88526.1 518.837   2
  -5   7  -2 88085.9 562.225   5
  -7  -5   2 87819.5 477.060   2
   7   5   2 84879.7 473.820   3
  -7   5   4 65722.0 547.550   5
  -7   5   4 62953.9 478.626   1
   5   7  -4 64173.4 544.631   3
   5  -7  -4 66590.1 541.086   6
  -5   7  -4 65168.8 528.845   5
   5  -7  -4 64273.3 527.647   4
  -5   7  -6 47013.7 482.495   5
  -5  -7  -6 47720.0 447.892   7
   5  -7  -8 7340.41 217.100   4
   5  -7  -8 7387.59 203.661   6
  -5  -7  -8 7201.15 189.507   7
  -5   7  -8 7281.96 212.065   5
   5   7  -8 7406.05 177.120   8
   5   7 -10 6473.44 176.382   8
   5  -7 -10 6708.78 209.910   4
  -5  -7 -10 6498.35 181.457   7
  -5   7 -10 6579.38 208.022   5
   5  -7 -10 6647.89 184.254   6
   5   7 -10 6876.74 241.886   3
   5  -7 -12 29716.5 401.867   4
   5   7 -12 28676.7 344.863   8
   5  -7 -12 29306.4 392.340   8
  -5   7 -12 29688.7 398.618   5
   5   7 -12 30063.9 468.144   3
  -5   7 -12 29222.9 403.140   8
   5   7 -14 11685.4 181.235   8
   5  -7 -14 12247.4 217.594   8
  -7   5  14 10890.4 222.330   5
   5  -7 -14 11064.8 210.792   7
  -5   7 -14 11137.1 201.399   8
   5   7 -14 12631.3 248.511   3
   7  -6 -15 10771.9 162.363   7
   7  -6 -15 10687.3 156.560   8
   7   6 -13 3479.01 100.408   8
   7  -6 -13 3168.25 120.023   4
  -7   6 -13 3261.66 110.934   8
   7  -6 -13 3145.76 123.330   8
  -6   7  11 6926.07 214.097   5
   7   6 -11 7434.60 168.397   8
   7  -6 -11 7290.21 220.521   4
   7  -6 -11 7444.82 205.099   8
  -7   6 -11 7519.24 197.991   5
   7   6 -11 7206.51 245.792   3
   7  -6  -9 14302.7 285.111   6
  -6   7   9 14721.9 314.864   5
   7   6  -9 14338.4 230.046   8
   7  -6  -9 14067.0 314.782   4
  -7   6  -9 14340.3 294.194   5
   7  -6  -9 14356.1 286.036   8
   7  -6  -7 8932.95 228.865   6
   7  -6  -7 8663.65 212.534   8
  -7   6  -7 9045.95 220.638   5
   7  -6  -5 44271.2 496.507   4
   7  -6  -5 44958.3 446.711   8
  -6   7   5 45768.6 488.126   5
  -7   6  -5 46257.7 460.205   5
   7   6  -5 43937.7 497.235   3
   7  -6  -5 42844.3 478.234   6
   7  -6  -3 102907. 675.158   4
  -6  -7   3 95634.2 534.547   2
   7  -6  -3 97913.0 629.845   8
   7   6  -3 98152.2 650.554   3
  -7  -6  -3 101043. 592.096   1
  -7   6  -3 99660.0 616.039   5
   7  -6  -1 29133.1 317.847   4
   7  -6  -1 28888.6 352.505   6
   6  -7   1 28714.3 321.154   6
  -6  -7   1 26763.2 238.699   2
  -6   7   1 31019.6 327.229   2
   7   6  -1 28514.9 304.855   3
   6   7   1 28617.1 308.808   3
   7  -6  -1 25873.4 292.807   2
  -7   6  -1 30309.0 325.289   5
   7  -6   1 28135.3 323.294   6
  -7   6   1 28998.1 337.972   5
   6   7  -1 28603.7 317.241   3
   6  -7  -1 28921.6 309.629   2
   6  -7  -1 28157.3 340.131   6
   7   6   1 28054.4 293.263   3
  -6   7  -1 30534.0 332.668   5
  -7  -6   1 28972.5 257.145   2
   6  -7  -1 27787.8 302.336   4
  -7  -6   1 29528.1 255.678   2
   6  -7  -3 97222.0 645.352   8
  -7   6   3 99365.3 564.392   1
   6  -7  -3 103597. 661.969   4
   6   7  -3 100562. 663.098   3
  -6   7  -3 103207. 647.602   5
  -7  -6   3 102055. 561.999   2
  -7   6   3 97684.2 669.833   5
   6   7  -5 45439.7 509.850   3
   6  -7  -5 44692.1 482.956   4
   6  -7  -5 44395.6 478.094   6
  -6   7  -5 44695.5 467.210   5
   6   7  -7 11437.5 291.172   3
   6  -7  -7 10932.9 251.181   6
   6  -7  -7 10016.8 230.521   8
  -6   7  -7 10404.9 249.160   5
  -6   7  -9 14818.6 306.707   5
   6  -7  -9 14466.9 313.870   4
   6   7  -9 14142.4 238.509   8
   6  -7  -9 14320.6 288.133   6
  -7   6  11 6929.94 221.100   5
   6   7 -11 6352.03 159.446   8
   6  -7 -11 6477.51 204.978   4
  -6   7 -11 6464.09 195.717   5
  -6   7 -13 2984.36 115.370   8
   6   7 -13 2960.29 141.241   3
  -7   6  13 3161.66 132.684   5
   6  -7 -15 10744.6 160.997   7
   6   7 -15 10960.3 175.295   3
   7  -7   0 95816.5 646.383   6
   7   7   0 97477.2 579.331   3
  -7   7   0 97179.9 617.333   5
   7  -7   2 66653.5 499.599   6
   7  -7  -2 68523.1 535.768   4
   7  -7  -2 68064.2 574.409   6
   7   7  -2 66580.3 529.502   3
   7   7   2 66124.4 486.872   3
  -7   7  -2 69822.2 527.629   5
  -7   7   2 67115.9 544.295   5
   7   7  -4 35510.3 432.035   3
   7  -7  -4 35312.2 405.911   8
   7  -7  -4 35466.0 432.277   4
  -7   7  -4 35502.0 409.275   5
  -7   7   6 7317.01 212.394   5
   7   7  -6 7646.21 230.484   3
   7  -7  -6 7313.28 214.284   6
   7  -7  -6 8012.90 224.790   4
  -7   7  -6 7708.94 208.730   5
   7  -7  -6 7479.58 201.167   8
  -7   7   8 600.792 84.6373   5
   7  -7  -8 507.391 71.7744   8
   7   7  -8 799.152 97.8564   3
  -7   7  -8 722.960 76.5985   5
   7  -7  -8 514.237 69.1934   6
  -7   7  10 22006.8 383.320   5
   7  -7 -10 21112.6 378.906   4
  -7   7 -10 21970.8 356.188   5
   7  -7 -10 21206.4 349.078   8
   7  -7 -10 21122.9 325.914   6
  -7   7  12 1036.77 85.7098   5
   7  -7 -12 1261.56 89.1535   4
  -7   7 -12 1138.12 77.8630   8
   7  -7 -12 1309.34 90.6984   8
  -7   7 -14 799.741 46.0102   8
   7  -7 -14 684.003 54.7127   8
   7   7 -14 768.507 65.5390   3
  -7   7  14 743.013 53.6659   5
   8   0 -14 30589.3 315.421   8
   8   0 -12 72484.8 592.228   4
   8   0 -12 72448.7 667.772   3
   8   0 -12 71539.1 561.711   8
   8   0 -10 97064.8 784.084   4
   8   0 -10 95636.4 667.501   8
   8   0  -8 46081.4 471.348   6
   8   0  -8 46639.1 550.335   4
   8   0  -8 46151.8 523.201   3
   8   0  -8 47700.1 443.724   8
   8   0  -6 82113.9 634.629   6
   8   0  -6 83273.6 690.811   4
   8   0  -6 82462.9 507.608   8
   8   0  -6 82290.3 610.796   3
   8   0  -4 89529.5 626.327   6
   0  -8   4 91142.6 564.224   2
   0   8   2 508669. 888.574   2
   0  -8   2 510681. 1185.90   2
   0   8   0 972828. 1460.78   2
   0  -8   0 969250. 1759.53   1
   8   0   0 973537. 1862.88   6
   0  -8  -2 467631. 899.724   2
   0  -8  -2 482562. 1306.84   1
   0   8  -2 462134. 1208.36   3
   0  -8  -2 483637. 1141.54   7
   0   8  -2 474908. 1141.77   5
   0   8  -2 477562. 1151.03   2
  -8   0   2 486413. 1235.61   2
   0  -8  -4 81604.8 488.669   8
   0  -8  -4 81871.1 521.594   7
   0   8  -4 80948.9 552.407   3
  -8   0   4 82244.2 537.140   2
   0   8  -6 76210.4 599.076   5
   0   8  -6 74917.5 581.846   3
   0  -8  -6 76834.8 575.973   7
   0   8  -8 44631.0 506.752   3
   0  -8  -8 43697.1 431.041   8
   0   8  -8 45536.3 508.525   5
   0  -8 -10 94136.6 730.922   7
   0  -8 -10 95159.6 675.176   8
   0  -8 -12 68109.7 537.338   8
   0   8 -12 64947.6 603.222   8
   0  -8 -12 67485.3 606.834   7
   0   8 -12 65233.0 589.427   3
   0  -8 -14 34765.4 362.636   7
   0  -8 -14 34727.2 315.244   8
   8   1 -15 24218.5 227.117   8
   8  -1 -15 24983.2 244.067   8
   8   1 -13 20427.8 344.241   3
   8   1 -13 21343.6 287.278   8
   8  -1 -13 20365.0 290.281   8
   8  -1 -11 34541.5 457.162   4
   8   1 -11 33638.3 435.345   4
   8   1 -11 34004.0 395.227   8
   8  -1 -11 33059.9 456.106   3
   8   1 -11 33560.5 477.318   3
   8  -1 -11 33299.9 400.721   8
   8   1  -9 16709.4 272.264   8
  -1   8   9 17599.5 289.351   5
   8  -1  -9 16839.5 344.100   4
   8   1  -9 16366.4 334.447   4
   8  -1  -9 17018.2 324.589   3
   8   1  -9 16164.1 331.660   3
   8  -1  -9 16281.9 279.393   8
   8   1  -7 23706.2 286.458   8
  -1   8   7 24784.6 320.216   5
   8  -1  -7 23644.8 340.215   3
   8  -1  -7 23500.9 345.774   6
   8   1  -7 23641.0 340.039   6
   8   1  -7 23974.4 386.298   4
   8  -1  -7 23600.7 384.067   4
   8   1  -7 23064.4 363.818   3
   8  -1  -7 23745.2 301.587   8
   8  -1  -5 16847.6 300.623   4
   8   1  -5 16390.1 276.847   6
   8  -1  -5 16626.2 244.329   3
   8   1  -5 16915.1 264.029   3
   8  -1  -5 16692.1 285.198   6
   8  -1  -5 16725.2 222.195   8
  -1   8   5 16507.0 238.512   5
  -8  -1  -3 20659.0 219.709   2
  -1   8   3 19313.8 234.786   5
   8  -1  -3 18301.2 276.651   6
  -8   1  -3 19942.5 241.731   2
   8   1  -3 17790.1 270.752   6
   1  -8   3 21410.6 259.686   2
   1  -8   3 19868.9 225.116   1
  -1  -8   3 18306.5 239.266   2
  -1   8   3 17599.8 168.703   2
  -1   8   1 72614.7 389.500   2
   8  -1  -1 70261.3 517.558   6
  -1  -8   1 71820.3 417.168   2
   1  -8   1 72364.2 447.425   1
  -8   1  -1 73742.2 473.058   2
   1  -8   1 76136.6 452.157   2
   1   8   1 68928.6 332.907   2
  -8  -1  -1 77255.3 463.812   2
  -1   8  -1 76507.6 447.082   2
  -8   1   1 78077.5 498.349   2
  -8  -1   1 80228.7 482.123   2
   1  -8  -1 78689.6 423.593   2
  -1  -8  -1 76884.1 460.784   7
   1  -8  -1 77400.5 487.129   6
  -1  -8  -1 83128.0 399.581   2
   1  -8  -1 77057.4 500.783   1
   8  -1   1 78120.2 530.099   6
  -1  -8  -1 79479.1 525.284   1
   1   8  -1 79121.8 484.543   3
  -1   8  -1 77478.3 460.197   5
  -1   8  -1 81999.5 478.782   3
   1   8  -1 77819.7 424.908   2
   1  -8  -3 16420.1 235.421   4
   1  -8  -3 17018.2 259.561   1
  -1  -8  -3 16579.1 228.884   7
  -1  -8  -3 18742.7 218.438   8
  -8   1   3 17556.7 246.014   2
  -1   8  -3 18971.5 246.754   2
   1  -8  -3 18555.9 237.784   8
   1  -8  -3 16552.7 222.910   7
  -1   8  -3 16896.4 228.766   3
   1   8  -3 17649.0 250.255   3
   8  -1   3 17435.7 244.350   6
  -1   8  -3 16981.9 233.244   5
  -8  -1   3 17511.7 239.366   2
   1   8  -3 16508.4 220.283   5
   8  -1   3 16534.2 204.514   2
   1  -8  -3 17518.6 173.661   2
  -1  -8  -5 16932.9 256.702   7
   1  -8  -5 16992.5 264.984   6
   1   8  -5 17041.5 260.770   5
  -1   8  -5 16785.2 269.197   5
   1  -8  -5 16960.1 242.482   8
  -1   8  -5 17623.8 259.896   3
  -1  -8  -5 16898.7 220.407   8
  -1   8  -7 23236.6 335.258   3
   1  -8  -7 21715.5 332.966   4
   1   8  -7 23600.6 361.049   3
   1   8  -7 22751.5 339.230   5
  -1   8  -7 22662.4 347.489   5
  -1  -8  -7 21612.7 274.522   8
   1  -8  -7 22767.5 304.529   8
   1   8  -9 14288.6 310.591   3
  -1  -8  -9 14538.3 283.261   7
   1  -8  -9 14531.7 271.152   8
   1   8  -9 14948.6 304.285   5
  -1   8  -9 14960.9 286.181   3
  -1  -8  -9 14912.6 248.938   8
   1   8 -11 32551.2 439.205   8
  -1  -8 -11 35194.4 441.028   7
   1  -8 -11 34802.7 452.011   7
   1  -8 -11 35234.3 418.374   8
  -1   8 -11 33292.7 414.750   3
   1   8 -11 33061.7 470.814   3
  -1  -8 -11 33938.8 378.515   8
   1  -8 -13 21929.7 325.345   7
  -1  -8 -13 21556.2 312.526   7
   1   8 -13 20895.5 323.388   3
  -1  -8 -13 21681.7 268.578   8
   1  -8 -13 21385.9 294.147   8
   1  -8 -15 24139.8 224.347   8
   1   8 -15 24612.0 265.030   8
   8   2 -14 17296.7 289.520   3
   8  -2 -14 17776.2 246.010   8
   8   2 -14 17947.2 224.723   8
   8  -2 -12 36244.0 436.854   4
   8  -2 -12 36356.3 411.686   8
   8   2 -12 36435.4 382.520   8
   8  -2 -12 36636.5 453.882   3
   8   2 -12 36007.2 489.684   3
  -2   8  12 35280.0 385.186   5
  -2   8  10 81378.9 650.712   5
   8  -2 -10 84547.7 656.499   8
   8   2 -10 80390.6 694.774   4
   8  -2 -10 82912.1 708.723   3
   8   2 -10 81056.3 595.654   8
   8   2 -10 83040.2 771.762   3
   8  -2 -10 83793.4 754.218   4
   8   2  -8 66121.3 497.569   8
  -2   8   8 66976.2 575.693   5
   8  -2  -8 64586.5 664.285   4
   8  -2  -8 66095.4 591.490   6
   8   2  -8 66066.6 643.607   4
   8  -2  -8 66574.4 594.612   3
   8   2  -8 65721.2 652.133   3
   8  -2  -6 63660.6 568.703   6
   8  -2  -6 63479.2 618.200   4
   8   2  -6 63358.6 547.719   6
   8  -2  -6 64119.6 511.424   3
   8   2  -6 63266.9 574.354   3
   8  -2  -6 63160.9 478.701   8
   8   2  -4 58590.9 472.490   3
  -2  -8   4 56574.5 432.015   2
   8  -2  -4 60409.0 423.273   8
   8  -2  -4 59072.1 525.142   6
   8   2  -4 61121.7 510.647   6
   8  -2  -4 57344.4 537.291   4
  -2   8   4 60936.0 468.664   5
  -2   8   2 77757.7 401.250   2
   8  -2  -2 80563.3 565.622   4
  -8   2  -2 83984.0 511.655   2
  -2   8   2 80953.9 495.111   5
  -8  -2  -2 79653.8 424.933   2
  -2  -8   2 81931.6 459.626   2
   2  -8   2 80382.7 503.716   2
   2  -8   2 81095.2 451.703   1
   2  -8   0 280233. 866.289   2
  -2   8   0 273053. 856.630   2
  -8  -2   0 284946. 876.496   2
   2  -8   0 289338. 927.383   6
   8  -2   0 281875. 1024.63   6
  -2  -8   0 277444. 722.102   2
   2  -8   0 280082. 928.050   1
  -8   2   0 281730. 968.929   2
  -2   8   0 284781. 911.393   5
  -8   2   2 91561.6 559.734   2
  -8   2   2 93876.9 561.619   5
  -2   8  -2 88832.8 525.423   2
   2  -8  -2 89997.0 527.124   4
  -2  -8  -2 89521.6 298.507   2
   2  -8  -2 91184.6 562.080   6
   2  -8  -2 84462.6 544.178   1
   8  -2   2 96493.8 577.464   6
   2  -8  -2 92649.2 462.083   2
  -8  -2   2 89032.5 513.673   2
   2   8  -2 87933.0 542.260   3
  -2   8  -2 90734.4 534.139   5
  -2  -8  -2 90838.8 525.997   7
   8  -2   2 90114.8 494.807   2
  -2  -8  -4 61736.6 459.316   7
   2  -8  -4 61188.3 491.385   6
  -2   8  -4 59990.4 436.979   3
   2   8  -4 63537.6 520.147   3
   8  -2   4 61640.1 422.356   2
   2   8  -4 62193.1 450.665   5
   2  -8  -4 61344.7 470.208   8
  -2   8  -4 62643.9 498.763   5
   2  -8  -4 61210.2 483.704   4
   2  -8  -6 64878.9 542.632   6
   2   8  -6 65606.5 590.170   3
   2   8  -6 67936.7 547.156   5
  -2   8  -6 64701.6 503.537   3
  -2   8  -6 65195.9 574.756   5
  -2  -8  -6 63128.7 418.249   8
   2  -8  -6 66017.9 515.887   8
   2   8  -8 63908.1 649.874   3
   2  -8  -8 63320.0 600.176   4
  -2  -8  -8 64397.2 574.021   7
  -2   8  -8 66699.7 565.917   3
   2   8  -8 66597.1 598.030   5
  -2  -8  -8 63954.0 465.382   8
   2   8 -10 79647.0 675.434   8
   2   8 -10 78945.4 676.789   5
  -2  -8 -10 78623.0 550.024   8
  -2   8 -10 79472.9 718.839   5
   2   8 -10 77452.0 748.624   3
   2  -8 -12 36557.8 449.448   7
   2  -8 -12 37834.0 430.666   8
  -2  -8 -12 37629.2 433.137   7
  -2  -8 -12 37201.7 352.157   8
   2   8 -12 36000.7 428.999   8
   2   8 -12 37210.3 483.494   3
   2   8 -14 16703.3 246.182   8
   2   8 -14 16884.7 258.680   3
   8  -3 -15 32401.9 277.178   8
  -3   8  13 48901.6 420.778   5
   8  -3 -13 49849.6 455.806   4
   8  -3 -13 49719.9 455.647   8
   8   3 -13 48249.6 529.780   3
   8   3 -13 49737.4 404.163   8
  -3   8  11 103972. 732.886   5
   8   3 -11 102868. 645.738   8
  -8   3 -11 105846. 635.308   8
   8  -3 -11 102873. 803.465   4
   8   3 -11 104014. 863.098   3
   8  -3 -11 106021. 738.427   8
   8   3  -9 99329.9 625.205   8
  -3   8   9 98342.2 747.605   5
   8  -3  -9 98047.0 708.104   6
   8  -3  -9 98761.0 840.911   4
   8   3  -9 100474. 780.398   4
   8  -3  -9 99478.1 750.506   3
   8   3  -9 98728.6 845.365   3
   8  -3  -9 99155.8 707.908   8
   8   3  -7 137449. 902.627   4
   8  -3  -7 137575. 956.027   4
   8  -3  -7 137055. 771.625   8
   8  -3  -7 139693. 802.235   3
   8   3  -7 138215. 809.210   6
  -8   3  -7 133827. 715.188   5
   8   3  -7 133332. 919.270   3
   8  -3  -7 139757. 872.280   6
   8  -3  -5 118312. 773.321   6
   8   3  -5 122784. 749.438   6
  -8   3  -5 121117. 628.522   5
   8  -3  -5 122292. 659.320   8
   8   3  -5 120651. 758.601   3
  -3   8   5 116941. 701.235   5
   8   3  -3 73552.1 512.220   3
   8  -3  -3 73016.7 577.114   6
  -3   8   3 74691.1 426.367   2
  -8   3  -3 75161.8 501.878   2
   8  -3  -3 73939.8 581.974   4
  -8   3  -3 73114.1 457.298   5
   3  -8   3 73040.5 513.231   2
   8  -3  -3 70687.3 471.064   8
  -3   8   3 72639.6 508.096   5
  -8  -3  -1 119034. 512.568   2
  -8   3  -1 112848. 608.796   2
   3  -8   1 112896. 583.792   6
  -3  -8   1 111705. 490.877   2
   8  -3  -1 113396. 684.763   6
  -3   8   1 117887. 569.743   2
   8  -3  -1 118589. 659.665   4
   3  -8   1 117520. 561.415   1
  -8   3  -1 115258. 372.597   1
  -8   3  -1 117299. 565.089   5
  -3   8   1 120873. 618.617   5
   3  -8   1 125028. 630.044   2
   3  -8  -1 123422. 589.635   4
  -3   8  -1 113093. 576.831   2
   3  -8  -1 112259. 529.213   2
   8  -3   1 123999. 680.770   6
   3  -8  -1 121002. 648.897   6
  -8  -3   1 120599. 556.525   2
  -3  -8  -1 123254. 419.553   2
  -8   3   1 126891. 543.234   1
  -8   3   1 123050. 657.992   2
  -3   8  -1 123154. 642.009   5
   8  -3   1 115023. 583.008   2
  -8   3   1 121013. 644.542   5
   3  -8  -3 77078.1 439.084   2
  -8   3   3 75635.7 536.726   2
  -3   8  -3 77237.9 531.386   2
   3  -8  -3 79251.0 529.545   4
  -3  -8  -3 77549.8 512.289   7
   3   8  -3 76597.4 538.556   3
   3  -8  -3 76033.2 529.152   8
  -8   3   3 77234.7 496.785   1
   8  -3   3 77045.1 516.319   6
   8  -3   3 76327.9 489.375   2
   3   8  -3 80665.6 468.326   5
  -8  -3   3 79160.5 507.479   2
  -3   8  -3 76050.9 542.858   5
  -3  -8  -3 81958.0 594.654   1
   3  -8  -5 119720. 731.501   4
   3   8  -5 110764. 758.911   3
   3   8  -5 118874. 662.284   5
   3  -8  -5 115805. 723.160   6
   3  -8  -5 112075. 676.531   8
   3  -8  -7 129639. 811.368   6
  -3  -8  -7 128913. 776.306   7
   3  -8  -7 128728. 777.358   8
  -3  -8  -9 95498.5 701.907   7
   3  -8  -9 94216.6 706.729   8
   3   8  -9 92543.8 834.743   3
   3  -8  -9 99408.6 778.538   4
   3   8  -9 93024.5 717.739   5
  -3   8  -9 97991.7 798.954   5
   3  -8 -11 105070. 749.359   8
  -3   8 -11 104493. 811.576   5
  -3  -8 -11 101857. 721.550   7
   3   8 -11 100716. 852.320   3
   3  -8 -13 48167.9 480.538   7
   3   8 -13 45467.0 430.796   8
  -3   8 -13 47760.4 499.533   8
  -3  -8 -13 49468.4 444.643   7
   3  -8 -13 51811.9 478.004   8
  -8   3  15 31543.4 331.126   5
   3   8 -15 31680.8 261.453   8
  -3   8 -15 31824.5 295.751   8
   3  -8 -15 32886.9 292.875   7
   3  -8 -15 32642.9 275.756   8
   3   8 -15 31672.6 282.124   3
   8  -4 -14 757.538 58.7238   8
   8   4 -14 790.508 71.6565   3
  -8   4 -12 4459.83 127.736   8
   8  -4 -12 4689.36 164.856   4
   8  -4 -12 4352.89 147.993   8
   8   4 -12 4251.44 178.789   3
  -4   8  12 4455.38 150.486   5
   8   4 -12 4574.96 128.449   8
   8   4 -10 4538.20 134.013   8
  -4   8  10 4571.55 170.124   5
  -8   4 -10 4722.36 149.226   8
   8   4 -10 4789.98 163.613   4
  -8   4 -10 4627.23 144.599   5
   8   4 -10 4471.04 193.093   3
   8  -4 -10 4658.21 184.887   4
   8  -4 -10 4707.61 164.970   8
  -4   8   8 9261.16 235.029   5
   8  -4  -8 9299.32 235.110   6
   8  -4  -8 9894.82 269.558   4
   8   4  -8 9854.01 247.584   4
   8  -4  -8 10310.7 228.419   3
  -8   4  -8 9796.53 214.082   5
   8  -4  -8 9731.18 224.262   8
   8   4  -8 9439.54 264.432   3
  -4   8   6 5800.38 176.756   5
   8  -4  -6 5862.54 185.467   6
   8   4  -6 5837.98 170.181   6
   8  -4  -6 6335.12 157.964   3
  -8   4  -6 5958.24 157.333   5
   8  -4  -6 6058.49 164.555   8
   8   4  -6 5857.34 190.001   3
   8  -4  -4 894.954 74.8266   4
   8  -4  -4 910.472 62.0936   8
  -8   4  -4 904.847 60.0298   5
   8  -4  -4 976.704 75.7385   6
  -4   8   4 936.619 69.8602   5
   4  -8   2 32292.0 315.057   6
   8   4  -2 32770.3 333.440   3
  -4   8   2 33577.5 310.550   2
  -4  -8   2 32487.0 289.384   2
   8  -4  -2 30921.1 375.426   6
   8  -4  -2 33080.5 371.411   4
   8  -4  -2 29113.4 317.656   8
  -4   8   2 35129.9 363.081   5
  -8   4  -2 32834.9 347.770   2
  -8   4  -2 32695.5 316.554   5
   4  -8   2 35094.7 357.255   2
   4  -8   0 31054.1 312.861   2
  -4   8   0 29568.0 307.632   2
  -8  -4   0 28528.7 243.334   2
   4  -8   0 29940.5 320.259   6
   8  -4   0 28271.9 300.311   2
   8  -4   0 29574.8 349.009   6
   8  -4   0 29551.4 313.132   4
  -4  -8   0 29559.5 226.139   2
  -8   4   0 30737.7 317.245   5
  -8   4   0 29263.2 326.441   2
  -8   4   0 29761.9 230.683   1
   4   8   0 28733.0 314.344   3
  -4   8   0 31792.8 330.886   5
   4  -8  -2 31528.7 353.619   6
   8  -4   2 32686.2 344.886   6
   4  -8  -2 32514.4 335.365   4
  -4  -8  -2 32021.9 353.725   1
  -8   4   2 32620.5 304.710   1
  -4   8  -2 34525.9 359.924   2
   8  -4   2 33017.1 332.512   2
   4  -8  -2 33706.7 312.971   2
  -8  -4   2 34864.9 317.990   2
  -4   8  -2 33618.2 361.389   5
  -8   4   2 33646.3 363.811   5
   4  -8  -4 1017.92 71.5918   8
   4   8  -4 1185.52 62.4804   5
   4  -8  -4 1137.54 75.4528   4
   4  -8  -6 5646.64 176.747   4
   4   8  -6 6342.94 201.665   3
   4  -8  -6 6388.24 184.384   6
  -4  -8  -6 5894.04 165.418   7
   4   8  -6 6003.57 161.166   5
  -4   8  -6 5640.54 176.751   5
   4  -8  -6 6706.13 180.670   8
   4   8  -8 9652.05 273.463   3
   4  -8  -8 10057.4 250.769   4
   4  -8  -8 9561.78 234.217   6
   4  -8  -8 9514.02 227.648   8
  -4   8  -8 9210.29 244.497   5
  -4  -8  -8 9453.86 223.807   7
   4   8 -10 4800.13 158.287   8
  -4   8 -10 4636.14 180.431   5
   4  -8 -10 4598.64 169.416   8
  -4  -8 -10 4644.92 161.222   7
   4  -8 -10 4711.17 177.597   4
   4   8 -10 5251.08 211.193   3
   4   8 -12 4300.43 140.831   8
   4  -8 -12 4864.67 162.538   8
  -4   8 -12 4435.99 161.967   5
   4   8 -12 4455.52 180.756   3
  -4   8 -12 4533.30 167.528   8
  -8   4  14 747.156 70.4674   5
   4   8 -14 960.397 55.9450   8
   4  -8 -14 773.812 61.1081   7
   4  -8 -14 693.082 57.9549   8
  -4   8 -14 793.909 61.7408   8
   4   8 -14 736.106 66.1217   3
   8  -5 -15 25697.2 229.730   8
   8   5 -15 25239.1 256.939   3
   8  -5 -13 56664.3 477.033   4
  -8   5 -13 55202.2 388.267   8
   8   5 -13 56523.3 563.709   3
   8  -5 -13 55584.6 474.092   8
  -5   8  13 57331.1 471.565   5
  -5   8  11 93794.0 713.395   5
   8   5 -11 94870.2 570.239   8
  -8   5 -11 92253.3 638.256   8
   8  -5 -11 97735.1 711.223   8
   8  -5 -11 95427.6 768.071   4
  -8   5 -11 95342.6 622.336   5
   8   5 -11 96075.8 846.890   3
  -5   8   9 130252. 899.691   5
   8  -5  -9 129885. 846.757   6
   8  -5  -9 131393. 840.244   8
   8   5  -9 132826. 861.064   4
  -8   5  -9 132330. 815.325   5
   8  -5  -9 132899. 974.053   4
   8   5  -9 129727. 1010.79   3
  -5   8   7 91300.3 721.177   5
  -8   5  -7 93291.9 677.032   5
   8  -5  -7 92150.4 677.469   8
   8   5  -7 93652.7 806.890   3
   8   5  -5 156219. 947.252   3
   8  -5  -5 154860. 943.168   4
   8  -5  -5 155970. 938.350   6
  -8   5  -5 153322. 810.761   5
   8  -5  -5 159690. 830.076   8
  -5   8   5 151256. 879.504   5
   8  -5  -3 68781.5 525.170   8
  -8  -5  -3 72806.1 477.027   1
  -5  -8   3 71107.1 465.410   2
   8  -5  -3 74656.0 600.986   4
   8   5  -3 70524.1 553.956   3
  -5   8   3 73344.4 492.836   2
  -8   5  -3 71804.8 512.101   5
  -5   8   3 71422.2 559.354   5
  -5   8   1 167616. 792.162   5
   8  -5  -1 164669. 858.116   6
   5  -8   1 166244. 761.541   6
  -5   8   1 161989. 734.337   2
   8  -5  -1 165764. 799.418   4
  -8   5  -1 162302. 742.225   5
   8  -5   1 176036. 835.463   6
   5  -8  -1 169973. 743.546   2
   8   5   1 170200. 685.517   3
   5   8  -1 173773. 796.808   3
  -8  -5   1 172445. 662.949   2
   5  -8  -1 175306. 742.034   4
  -8  -5   1 169196. 650.061   2
  -8   5   1 172781. 815.153   5
   5  -8  -1 180698. 857.784   6
   5   8  -3 81028.2 593.051   3
  -8   5   3 80583.0 518.122   1
   5  -8  -3 81934.1 575.942   4
  -8   5   3 80871.5 598.530   5
  -8   5   5 151122. 901.168   5
   5  -8  -5 153031. 891.117   6
   5  -8  -5 149880. 882.763   4
   5   8  -5 152361. 721.123   5
  -5   8  -7 89737.4 735.661   5
   5   8  -7 89173.0 588.077   8
  -5  -8  -7 90109.3 660.497   7
   5   8  -9 128293. 752.275   8
  -5  -8  -9 126834. 811.273   7
   5  -8  -9 131518. 854.414   6
   5  -8  -9 132160. 912.998   4
   5  -8  -9 130508. 866.105   8
  -5   8  -9 125726. 922.195   5
   5   8  -9 125663. 1014.22   3
   5  -8 -11 96412.9 757.823   4
   5   8 -11 92266.2 617.514   8
  -5   8 -11 93323.4 755.917   5
   5   8 -11 92765.8 847.852   3
   5  -8 -11 97080.5 727.546   8
  -8   5  13 57816.5 542.652   5
   5   8 -13 55679.0 412.803   8
  -5   8 -13 55975.9 502.920   8
   5   8 -13 59347.1 582.783   3
   5  -8 -13 58349.7 497.385   8
   5   8 -15 22404.6 231.324   3
   5  -8 -15 23393.4 224.739   7
  -5   8 -15 23087.2 210.180   8
  -8   5  15 22716.8 231.724   5
   8  -6 -14 17648.0 226.212   8
   8   6 -14 17673.4 261.109   3
  -6   8  14 17008.3 202.441   5
  -8   6 -12 8712.77 182.725   8
   8  -6 -12 8942.96 208.123   8
   8  -6 -12 8658.37 213.100   4
   8   6 -12 8729.72 246.217   3
  -6   8  12 8585.91 208.386   5
  -6   8  10 36406.9 468.246   5
   8  -6 -10 35881.0 446.914   8
   8  -6 -10 36189.3 494.501   4
  -8   6 -10 36000.5 426.572   5
   8   6 -10 35544.4 531.261   3
  -6   8   8 37430.1 486.436   5
   8  -6  -8 38132.9 485.340   6
   8   6  -8 38694.9 474.277   4
  -8   6  -8 38602.5 462.963   5
   8  -6  -8 37730.1 458.033   8
   8   6  -8 39196.8 552.988   3
   8   6  -6 74075.3 698.331   3
   8  -6  -6 75746.5 695.561   4
   8  -6  -6 72578.9 674.376   6
   8   6  -6 76482.2 613.340   6
  -8   6  -6 72427.4 603.324   5
   8  -6  -6 75826.4 621.303   8
  -6   8   6 76604.4 654.772   5
   8  -6  -4 121494. 814.208   4
   8   6  -4 121567. 799.689   3
  -8   6  -4 121429. 727.525   5
   8  -6  -4 120942. 837.449   6
  -6   8   4 122076. 777.405   5
   8  -6  -2 177054. 882.597   4
  -6   8   2 163572. 853.216   5
   6  -8   2 172149. 782.992   6
   8   6  -2 169706. 827.179   3
  -8   6  -2 168296. 797.715   5
   8  -6  -2 173961. 949.824   6
   8  -6   0 89840.7 649.502   6
   8   6   0 84964.3 530.247   3
   8  -6   0 84602.2 541.889   4
   6   8   0 91195.8 594.825   3
   6  -8   0 88593.7 607.538   6
  -8   6   0 89542.8 583.424   5
   6  -8  -2 180489. 837.837   4
   6  -8  -2 183079. 924.008   6
   8  -6   2 182650. 855.694   6
  -6   8  -2 182505. 867.942   5
  -8   6   2 182348. 894.113   5
   6   8  -4 119746. 806.583   3
   6  -8  -4 122479. 774.239   8
   6  -8  -4 125820. 788.541   4
  -6   8  -4 122291. 781.723   5
  -8   6   4 124740. 797.306   5
   6   8  -6 69228.9 678.053   3
   6  -8  -6 70759.6 640.201   4
   6  -8  -6 70408.1 638.329   6
  -6   8  -6 70589.6 639.270   5
   6  -8  -8 34269.8 451.489   6
  -6   8  -8 34509.6 476.477   5
  -8   6  10 32595.5 471.140   5
   6   8 -10 31024.7 340.834   8
   6  -8 -10 31937.8 453.825   4
  -6   8 -10 32651.7 453.318   5
  -8   6  12 9730.56 236.206   5
   6   8 -12 9328.57 170.756   8
  -6   8 -12 9393.60 219.071   8
  -6   8 -12 9821.43 219.228   5
   6   8 -12 9772.55 257.608   3
  -6   8 -14 16507.2 209.630   8
   6  -8 -14 16699.9 232.808   8
   6   8 -14 17187.6 254.280   3
  -8   6  14 16948.4 241.001   5
  -8   7 -13 17571.1 209.163   8
   8   7 -13 17383.1 293.593   3
   8  -7 -13 17465.0 250.837   8
  -7   8  13 17537.2 247.425   5
   8  -7 -11 7391.97 210.530   4
  -8   7 -11 7081.49 182.875   8
   8  -7 -11 7212.95 195.066   8
  -8   7 -11 7290.38 182.420   5
   8   7 -11 6941.82 226.968   3
  -7   8  11 7095.57 201.596   5
   8  -7  -9 5867.87 187.458   6
   8  -7  -9 5980.16 208.388   4
   8  -7  -9 5825.83 187.555   8
  -8   7  -9 5785.97 184.634   5
   8   7  -9 6110.48 227.099   3
  -7   8   9 5867.89 195.150   5
   8  -7  -7 28841.9 443.014   4
   8  -7  -7 30241.3 411.158   8
   8  -7  -7 29696.2 438.246   6
  -8   7  -7 30423.0 418.523   5
  -7   8   7 28706.3 421.514   5
   8   7  -7 30040.1 471.106   3
   8   7  -5 52515.3 572.326   3
   8  -7  -5 53167.6 525.667   8
   8  -7  -5 53406.0 570.512   6
  -8   7  -5 53498.9 528.506   5
   8  -7  -5 53219.9 573.448   4
  -7   8   5 54730.4 554.437   5
   8  -7  -3 48766.7 503.634   4
   8   7  -3 49657.9 497.117   3
   8  -7  -1 109875. 674.848   4
   7  -8   1 110059. 689.048   6
   8  -7  -1 110315. 756.223   6
   8   7  -1 111586. 687.160   3
  -8   7  -1 111733. 677.776   5
   7  -8  -1 114522. 649.712   4
   7  -8  -1 114975. 748.930   6
   8  -7   1 115936. 726.848   6
  -8   7   1 111594. 700.042   5
   7   8  -1 112346. 692.691   3
   8   7   1 116476. 653.843   3
  -7   8  -1 117904. 712.061   5
   7  -8  -3 48578.5 484.483   4
   7  -8  -3 46757.5 507.752   6
   7   8  -3 49345.3 494.676   3
   8   7   3 50534.6 428.253   3
  -7   8  -3 50318.5 481.224   5
  -8   7   3 48151.2 489.629   5
   7   8  -5 51639.5 567.444   3
   7  -8  -5 50016.0 542.772   4
   7  -8  -5 50749.0 560.673   6
   7   8  -7 27968.0 455.579   3
   7  -8  -7 26844.7 418.746   4
   7  -8  -7 27524.2 415.389   6
   7  -8  -7 26142.1 388.663   8
  -7   8  -7 28612.4 425.730   5
  -8   7   9 4256.29 174.395   5
   7  -8  -9 4327.87 181.846   4
   7  -8  -9 4678.46 166.582   6
   7   8  -9 4549.74 200.503   3
  -7   8  -9 4986.97 182.490   5
   7  -8  -9 4999.96 177.571   8
  -8   7  11 8619.75 226.662   5
   7  -8 -11 8127.77 206.617   8
   7  -8 -11 8634.46 224.641   4
  -7   8 -11 8945.19 216.122   5
  -7   8 -13 19234.0 248.793   8
   7  -8 -13 19014.7 265.473   7
  -8   7  13 19555.9 278.574   5
   8   8   0 203676. 930.436   3
  -8   8   0 204082. 956.170   5
  -8   8   2 165154. 904.780   5
   8  -8   2 173078. 869.664   6
   8  -8  -2 167183. 966.109   6
   8   8  -2 171975. 923.506   3
   8  -8  -2 170002. 882.945   4
   8   8   2 174419. 844.946   3
  -8   8  -2 169677. 886.839   5
   8  -8  -4 43274.8 494.185   4
   8   8  -4 41066.3 492.756   3
  -8   8  -4 41919.7 470.812   5
   8   8   4 42709.6 428.238   3
   8   8  -6 74101.2 718.680   3
   8  -8  -6 75660.1 698.526   6
   8  -8  -6 76694.6 651.440   8
  -8   8  -6 74626.5 660.320   5
   8  -8  -6 74015.0 689.569   4
   8  -8  -8 49228.7 528.253   8
   8  -8  -8 49551.6 559.855   6
  -8   8  -8 48644.6 539.658   5
   8   8  -8 48659.9 615.069   3
  -8   8   8 50036.2 564.975   5
   8  -8 -10 87368.5 730.336   4
   8  -8 -10 93081.1 662.288   6
   8  -8 -10 93580.2 699.249   8
  -8   8 -10 89617.8 688.937   5
   8   8 -10 90927.2 813.726   3
  -8   8  10 95164.8 741.744   5
   8  -8 -12 65922.3 536.323   4
  -8   8 -12 65208.5 475.571   8
   8  -8 -12 68344.3 531.417   8
   8   8 -12 62099.9 581.626   3
  -8   8  12 64930.5 519.251   5
   8  -8 -14 47384.3 313.708   7
   9   0 -13 12164.6 203.971   8
   9   0 -13 11824.2 239.914   3
   9   0 -11 26935.6 406.862   4
   9   0 -11 27282.9 404.376   3
   9   0 -11 26576.4 335.876   8
   9   0  -9 26359.4 434.248   4
   9   0  -9 25713.2 401.442   3
   9   0  -9 26297.9 334.931   8
   9   0  -7 21321.8 346.771   6
   9   0  -7 21949.7 387.945   4
   9   0  -7 21387.0 334.940   3
   9   0  -7 21747.6 281.177   8
   9   0  -5 15615.8 308.183   4
   9   0  -5 15490.1 248.443   3
   9   0  -3 69016.3 579.507   6
  -9   0  -3 69415.5 457.972   2
   0  -9   3 69785.4 493.167   2
   0  -9   1 59763.9 456.493   1
   0  -9   1 59795.0 420.739   2
  -9   0  -1 60103.8 445.376   2
  -9   0   1 61005.6 459.138   2
   0  -9  -1 63059.5 374.598   2
   0  -9  -1 62413.2 494.942   1
   0  -9  -1 63805.5 435.354   7
   0   9  -1 60885.3 415.416   2
   9   0   1 62572.2 506.540   6
   0   9  -1 63735.9 452.977   3
   0   9  -1 64500.2 424.037   5
   9   0   3 69132.5 525.912   6
   0   9  -3 68653.7 496.181   5
   0  -9  -3 67693.7 477.091   7
   0   9  -5 16679.4 276.221   3
   0  -9  -5 16169.7 237.213   8
   0   9  -5 16533.9 278.608   5
   0  -9  -5 16477.0 264.456   7
   0   9  -7 21509.1 346.690   3
   0  -9  -7 22065.1 334.958   7
   0  -9  -7 21727.8 294.858   8
   0   9  -7 20901.0 343.278   5
   0   9  -9 28510.6 424.710   3
   0  -9  -9 27973.0 356.258   8
   0   9  -9 28792.4 423.612   5
   0  -9 -11 25379.5 375.955   7
   0   9 -11 24140.5 384.358   5
   0   9 -11 24660.2 372.769   3
   0  -9 -11 25626.9 337.139   8
   0  -9 -13 12443.2 236.094   7
   0  -9 -13 12165.7 196.693   8
   0   9 -13 11395.3 203.232   3
   0   9 -13 11129.4 226.885   8
  -9   0  15 3923.52 109.983   5
   0   9 -15 3721.09 95.8714   8
   9  -1 -14 2125.98 79.8842   8
   9   1 -14 2083.83 72.3350   8
   9   1 -12 1999.43 101.436   4
   9  -1 -12 2364.38 115.702   4
   9  -1 -12 1892.66 95.5866   8
   9  -1 -12 2405.26 120.362   3
   9   1 -12 2051.00 118.523   3
   9   1 -12 2095.42 93.2092   8
   9  -1 -10 11251.0 285.105   4
   9   1 -10 11059.7 273.145   4
   9  -1 -10 10761.1 257.903   3
   9   1 -10 11024.2 274.062   3
   9  -1 -10 11082.8 226.544   8
   9   1 -10 10587.0 211.838   8
   9  -1  -8 740.354 91.2482   4
   9  -1  -8 655.179 70.7328   6
   9   1  -8 651.945 84.7273   4
   9  -1  -8 676.296 69.1731   3
   9   1  -8 929.441 82.2276   3
  -1   9   8 741.003 62.6394   5
   9   1  -8 705.471 57.3318   8
   9  -1  -6 1207.37 88.8032   6
   9  -1  -6 1049.44 92.8169   4
   9   1  -6 1234.42 88.4864   6
   9   1  -6 1189.57 96.4434   4
   9  -1  -6 1061.40 70.8989   3
   9   1  -6 1418.50 88.5562   3
  -1   9   6 1290.13 73.3714   5
   9  -1  -6 1287.86 70.3786   8
   9  -1  -4 3318.72 135.213   6
  -1   9   4 3574.21 110.385   5
   9   1  -4 3515.31 137.102   6
  -1   9   2 52076.9 334.257   2
   9   1  -2 52908.2 484.872   6
   1  -9   2 50806.9 397.041   1
  -1  -9   2 53582.5 398.395   2
  -9   1  -2 54354.4 422.170   2
  -9  -1  -2 55690.7 409.775   2
   1  -9   2 52053.0 418.864   2
  -1   9   2 53081.2 395.629   5
  -1   9   0 1079.05 55.7912   2
   1  -9   0 1055.03 65.0046   1
  -1  -9   0 574.168 51.3088   1
   9  -1   0 896.208 69.6240   6
  -1  -9   0 548.060 39.7351   2
  -1   9   0 1249.83 62.7827   5
  -9   1   0 561.358 49.3715   2
   1  -9   0 997.857 55.8373   2
  -9  -1   0 1117.06 62.8666   2
  -9   1   2 57088.5 441.432   5
  -1  -9  -2 55291.4 424.192   7
   1  -9  -2 54216.7 405.420   7
   1  -9  -2 53761.3 461.982   6
  -9  -1   2 52448.4 423.132   2
   9  -1   2 55389.0 482.222   6
   1  -9  -2 51027.1 465.328   1
  -1   9  -2 57749.5 433.108   3
   1   9  -2 55074.3 446.340   3
   1   9  -2 54312.0 397.569   5
  -1   9  -2 52940.4 424.372   5
  -1   9  -2 51655.9 415.185   2
   1  -9  -4 3270.30 112.691   7
  -1   9  -4 3396.43 116.048   3
  -1  -9  -4 3517.72 117.180   7
   1   9  -4 3486.95 129.088   3
  -1  -9  -4 3752.19 106.162   8
   9  -1   4 3531.58 119.968   6
   1   9  -4 3358.35 115.550   5
  -1   9  -4 3433.94 121.489   5
   1  -9  -4 3409.00 112.617   8
  -1   9  -6 913.101 70.1348   3
   1   9  -6 904.775 78.3290   3
  -1  -9  -6 1287.13 83.2227   7
   1  -9  -6 814.139 68.9975   7
   1  -9  -6 1101.24 72.9725   8
  -1  -9  -6 783.729 56.3210   8
   1   9  -6 1120.36 78.8634   5
  -1   9  -6 888.003 74.7070   5
   1   9  -8 834.786 85.9263   3
   1  -9  -8 720.158 78.3046   7
  -1  -9  -8 789.844 62.4866   8
   1   9  -8 931.137 84.4535   5
  -1   9  -8 849.543 85.8215   5
   1  -9  -8 753.074 70.9814   8
  -1   9  -8 882.979 77.8148   3
  -1  -9 -10 10903.6 253.643   7
  -1  -9 -10 11117.2 216.776   8
   1   9 -10 11382.1 265.581   5
  -1   9 -10 11443.4 250.344   3
   1   9 -10 10969.4 277.330   3
   1  -9 -10 11017.4 236.590   8
  -1  -9 -12 2152.08 115.079   7
   1  -9 -12 1942.17 111.751   7
   1   9 -12 2196.16 116.722   3
  -1  -9 -12 2040.52 88.2058   8
   1  -9 -12 2086.65 103.088   8
  -1   9 -12 1922.53 114.067   8
  -1   9 -14 2375.60 97.6075   8
   1  -9 -14 2389.69 82.2310   8
   1  -9 -14 2336.38 95.4079   7
  -1  -9 -14 2141.16 88.6545   7
   1   9 -14 2186.63 89.1709   8
   9   2 -13 13596.0 264.831   3
   9  -2 -13 13025.2 221.351   4
   9  -2 -13 12967.5 219.442   8
   9   2 -13 13516.2 198.115   8
   9   2 -11 2742.94 129.419   4
   9  -2 -11 2859.81 120.858   8
   9  -2 -11 2649.10 127.771   3
   9   2 -11 2912.95 147.683   3
   9  -2 -11 3004.91 146.350   4
   9   2 -11 2747.94 105.861   8
   9  -2  -9 8925.84 260.398   4
   9   2  -9 8941.86 184.920   8
   9  -2  -9 8806.84 219.786   6
   9   2  -9 9173.34 253.817   4
   9  -2  -9 8496.36 221.095   3
   9   2  -9 9011.86 248.586   3
   9  -2  -9 8701.89 206.708   8
  -2   9   9 9612.91 216.738   5
   9  -2  -7 32742.7 483.265   4
   9  -2  -7 32758.1 438.456   6
   9   2  -7 32848.4 422.763   6
   9   2  -7 34340.7 480.908   4
   9  -2  -7 32819.0 390.530   3
   9   2  -7 32468.2 439.447   3
   9  -2  -7 32595.9 368.009   8
  -2   9   7 34594.7 392.368   5
   9  -2  -5 23379.1 360.662   6
   9  -2  -5 23035.1 282.492   8
   9   2  -5 23730.2 357.218   6
   9   2  -5 23837.2 334.518   3
  -2   9   5 24006.8 306.077   5
   9  -2  -3 2138.05 108.954   6
  -2   9   3 2740.47 99.2246   5
  -9   2  -3 2982.36 103.965   2
  -2  -9   3 2411.17 89.6659   2
   9  -2  -3 2468.84 115.994   4
   9   2  -3 2237.12 106.514   6
   9  -2  -1 26865.6 349.956   6
   2  -9   1 27855.4 308.013   6
  -2   9   1 27819.7 277.335   2
   2  -9   1 26892.1 297.914   1
  -2  -9   1 27609.5 259.990   2
  -9   2  -1 30411.8 342.736   2
  -2   9   1 29134.6 304.564   5
  -9  -2  -1 31298.2 302.021   2
  -2   9  -1 27813.6 298.972   2
  -9  -2   1 28436.1 305.329   2
   2  -9  -1 27815.2 324.266   6
   2  -9  -1 27715.2 274.506   2
   9  -2   1 28582.1 350.236   6
   2   9  -1 28386.5 319.772   3
  -2   9  -1 29696.6 298.614   3
   2  -9  -1 26076.8 316.795   1
  -2   9  -1 31201.3 326.153   5
  -9   2   1 28784.0 303.724   5
  -9   2   3 3068.66 112.145   5
  -2  -9  -3 3433.92 114.333   7
  -2   9  -3 3185.56 104.514   3
   9  -2   3 2789.98 108.067   6
   2   9  -3 3255.46 117.485   3
   2   9  -3 2807.47 96.3313   5
   2  -9  -3 2867.04 106.607   8
  -2   9  -3 2954.00 110.377   5
   9  -2   3 3113.12 97.7436   2
   2  -9  -5 25076.2 346.221   4
   2  -9  -5 25483.6 328.276   7
   2   9  -5 26357.1 378.181   3
  -2  -9  -5 25012.2 322.004   7
   2   9  -5 25905.3 331.252   5
  -2   9  -5 24758.4 346.230   5
   2  -9  -5 25169.2 343.364   6
   2  -9  -5 25931.0 329.975   8
  -2   9  -5 25810.1 317.535   3
   2  -9  -7 34101.7 407.151   8
   2   9  -7 34627.3 424.952   5
  -2   9  -7 34101.5 447.994   5
   2   9  -7 34472.0 472.580   3
  -2  -9  -7 33206.5 327.511   8
  -2   9  -7 34474.6 398.409   3
  -2  -9  -9 9546.08 233.052   7
   2   9  -9 9641.16 270.593   3
   2   9  -9 9808.33 242.761   5
  -2  -9  -9 10110.3 193.644   8
   2  -9  -9 9946.03 230.832   8
   2   9 -11 2868.79 129.967   8
  -2  -9 -11 2759.38 99.9431   8
  -2   9 -11 2625.40 138.620   5
  -2  -9 -11 2928.84 134.553   7
   2   9 -11 2916.88 149.620   3
   2  -9 -11 3062.93 131.986   8
  -2  -9 -13 13142.3 231.358   7
   2  -9 -13 13473.6 250.216   7
   2   9 -13 13274.7 251.724   3
   2  -9 -13 13501.5 228.319   8
   2   9 -15 751.288 41.0406   8
   2  -9 -15 777.628 45.6081   7
   9  -3 -14 9130.73 160.692   8
   9   3 -14 9106.14 188.583   3
   9  -3 -12 9421.57 223.819   4
   9   3 -12 9525.83 245.059   3
   9  -3 -12 9744.11 207.556   8
  -3   9  12 9337.37 185.354   5
   9   3 -12 9919.87 177.013   8
   9  -3 -10 2274.67 138.773   4
   9   3 -10 2265.77 124.769   4
   9   3 -10 2103.61 131.447   3
   9  -3  -8 17134.9 355.988   4
   9  -3  -8 16547.6 318.869   6
   9   3  -8 17811.2 351.285   4
   9  -3  -8 18169.9 301.239   3
   9   3  -8 17774.8 348.187   3
   9  -3  -8 17636.6 292.540   8
  -3   9   8 16883.6 299.068   5
   9   3  -6 16637.1 310.513   3
   9  -3  -6 16736.6 265.167   8
   9  -3  -6 15908.8 312.942   6
   9   3  -6 16554.1 299.981   6
  -3   9   6 16918.2 284.116   5
   9  -3  -4 35707.5 444.355   6
   9  -3  -4 35579.1 452.946   4
   9   3  -4 35911.5 426.290   6
   9  -3  -4 36579.6 360.622   8
  -3   9   4 36483.1 386.247   5
   9   3  -4 36235.8 397.315   3
   3  -9   2 28526.5 306.723   6
  -3  -9   2 29735.8 290.219   2
   9  -3  -2 29632.9 377.336   4
  -3   9   2 27562.3 281.302   2
  -9   3  -2 29144.7 285.889   5
  -3   9   2 28561.4 320.904   5
  -9  -3   0 9816.83 166.869   2
   3  -9   0 9807.53 182.446   2
  -3   9   0 8396.20 167.851   2
   9  -3   0 7791.85 191.403   6
   9  -3   0 8001.90 177.266   4
  -9   3   0 8068.64 160.525   5
   3  -9   0 7899.26 172.054   6
  -3   9   0 8884.71 178.330   5
   3  -9  -2 30507.9 333.343   4
   3  -9  -2 30479.2 357.680   6
   9  -3   2 31329.9 363.739   6
  -9  -3   2 27975.2 300.812   2
   3   9  -2 30137.2 345.510   3
   3  -9  -2 30023.4 292.849   2
   3  -9  -2 30057.6 294.596   7
  -3   9  -2 30335.2 346.213   5
  -9   3   2 32582.1 316.875   1
  -9   3   2 31666.1 351.663   5
   3  -9  -4 41067.0 429.087   4
  -3  -9  -4 41494.8 410.558   7
   3   9  -4 39695.7 443.043   3
   3   9  -4 39085.7 374.491   5
  -3   9  -4 40179.6 437.090   5
   3  -9  -4 39365.6 431.625   6
   3  -9  -4 39849.2 414.972   8
   3  -9  -6 16789.2 304.329   4
   3   9  -6 17741.3 334.751   3
   3  -9  -6 16885.9 300.750   6
   3   9  -6 17354.4 279.289   5
   3  -9  -6 16796.9 285.345   8
   3   9  -8 18657.3 374.088   3
   3  -9  -8 18095.3 338.927   4
  -3  -9  -8 18266.3 313.624   7
   3  -9  -8 18056.3 313.073   8
   3   9  -8 18401.7 312.771   5
   3   9 -10 2649.24 121.631   8
  -3  -9 -10 2715.80 130.341   7
   3  -9 -10 3053.08 143.218   7
  -3   9 -10 3131.77 151.053   5
   3  -9 -10 2769.81 133.087   8
   3  -9 -12 10013.6 220.841   8
  -3   9 -12 9639.61 234.012   5
  -3  -9 -12 9871.22 215.417   7
   3   9 -12 9194.45 201.324   8
   3   9 -12 9559.21 247.137   3
   3   9 -14 8920.61 155.833   8
  -3   9 -14 9276.37 183.983   8
   3  -9 -14 9243.46 175.855   7
   3   9 -14 9006.26 176.137   3
   9  -4 -15 1905.99 64.9889   7
   9  -4 -13 1947.91 90.4662   8
   9  -4 -13 1867.93 90.3816   4
   9   4 -11 4294.59 181.805   3
   9  -4 -11 4049.69 146.913   8
   9  -4  -9 2842.31 131.938   6
   9   4  -9 3401.83 154.419   4
   9  -4  -9 3105.03 166.613   4
   9   4  -9 3303.57 167.173   3
   9  -4  -9 2667.43 125.341   8
  -4   9   9 3570.39 147.945   5
   9  -4  -7 14159.1 301.415   6
   9   4  -7 14532.3 275.379   6
   9   4  -7 14690.4 315.473   4
  -9   4  -7 14665.6 253.640   5
   9   4  -7 15697.3 325.733   3
   9  -4  -7 13670.6 257.014   8
  -4   9   7 14836.0 289.475   5
   9  -4  -5 1740.90 112.712   4
   9  -4  -5 1795.29 110.075   6
   9   4  -5 1790.79 104.391   6
  -9   4  -5 2144.13 94.6292   5
  -4   9   5 1274.91 85.8126   5
   9  -4  -5 1574.35 86.2254   8
   9   4  -5 1622.78 99.4588   3
   9   4  -3 9115.68 198.403   3
   9  -4  -3 9276.49 188.325   8
   9  -4  -3 9318.77 226.870   4
  -9   4  -3 9287.58 177.199   5
   4  -9   1 370.180 43.4883   6
  -4   9   1 322.191 34.9289   2
   9  -4  -1 357.158 52.3205   6
   9  -4  -1 548.490 54.6823   4
  -9   4  -1 246.889 33.1631   5
  -4   9   1 653.598 56.0966   5
   4  -9  -1 475.123 52.4194   6
  -9  -4   1 308.679 33.4563   2
  -9   4   1 272.048 40.8270   5
   9  -4   1 533.586 56.1697   6
   4  -9  -1 410.802 41.4428   4
  -4   9  -1 659.806 55.4981   5
  -9   4   3 9243.48 204.888   5
   4  -9  -3 9478.80 200.283   4
  -4   9  -3 9728.64 213.668   5
   9  -4   3 9644.22 199.299   6
  -9   4   5 1797.72 106.903   5
   4  -9  -5 1603.06 97.3534   4
   4  -9  -5 1669.08 102.439   6
   4   9  -5 1604.95 81.2174   5
   4   9  -5 1831.50 108.943   3
   4  -9  -5 1416.70 89.8389   8
   4   9  -7 15112.8 333.665   3
   4  -9  -7 14253.8 292.930   6
  -4  -9  -7 14702.1 276.394   7
   4   9  -7 14598.2 262.035   5
   4  -9  -7 14995.0 284.341   8
   4  -9  -9 2866.90 149.026   4
   4   9  -9 3347.14 129.608   8
  -4  -9  -9 3793.91 150.906   7
  -4   9  -9 3345.63 161.405   5
   4  -9  -9 3260.13 146.391   8
   4   9  -9 3791.49 186.096   3
   4   9 -11 3460.95 127.744   8
   4  -9 -11 4329.18 164.203   7
  -4   9 -11 4735.38 177.325   5
   4   9 -11 4746.15 196.795   3
   4  -9 -11 3664.72 149.431   8
   4  -9 -13 1811.88 90.9257   8
   4   9 -13 1985.97 83.6004   8
  -4   9 -15 1893.76 60.9452   8
   4  -9 -15 1695.84 59.4001   7
  -9   4  15 1904.80 67.5991   5
   9   5 -14 6919.62 154.167   3
   9  -5 -14 6753.72 130.085   8
   9   5 -12 11305.2 263.440   3
  -5   9  12 10816.9 209.006   5
  -9   5 -10 1845.20 91.6517   8
   9  -5 -10 2029.15 111.138   8
   9  -5 -10 1870.42 101.379   6
   9   5 -10 1884.78 129.110   3
   9  -5 -10 1955.51 126.357   4
  -5   9  10 1621.58 101.685   5
   9  -5  -8 25362.4 363.710   8
   9  -5  -8 25356.7 436.389   4
   9  -5  -8 26342.5 403.183   6
   9   5  -8 26851.0 423.161   4
  -9   5  -8 26285.7 358.675   5
  -5   9   8 25831.2 392.439   5
   9  -5  -6 16800.8 339.057   4
   9  -5  -6 17559.7 336.516   6
   9   5  -6 18152.1 320.135   6
   9  -5  -6 18833.1 303.014   8
  -5   9   6 18248.7 318.581   5
   9   5  -6 17882.8 343.169   3
   9   5  -4 39970.6 452.425   3
   9  -5  -4 39411.3 487.960   4
   9  -5  -4 38395.4 485.454   6
  -9   5  -4 38744.8 396.783   5
   9  -5  -4 39965.3 415.384   8
  -5   9   4 39786.6 438.604   5
   9   5  -2 46001.7 432.147   3
   5  -9   2 49434.0 429.504   6
   9  -5  -2 49105.7 494.663   4
   9  -5  -2 46058.6 500.811   6
  -5   9   2 49899.6 456.090   5
  -9   5  -2 49597.8 418.880   5
   5  -9   0 5870.85 161.654   6
   9  -5   0 5658.19 169.604   6
   9   5   0 6345.41 142.853   3
   5   9   0 5814.38 156.192   3
  -5   9   0 5755.15 156.469   5
  -9   5   0 5925.70 149.999   5
   5  -9  -2 52121.6 450.597   4
   5  -9  -2 50770.7 500.654   6
   9  -5   2 51201.4 474.475   6
   5   9  -2 50311.3 472.692   3
  -9   5   2 51586.3 475.040   5
  -9   5   4 42478.3 465.288   5
   5  -9  -4 42866.7 460.962   4
  -9   5   6 17588.5 328.266   5
   5  -9  -6 17005.6 316.168   4
   5  -9  -6 16934.8 298.469   8
   5  -9  -6 16533.1 319.068   6
   5   9  -8 30448.5 496.157   3
  -9   5   8 26639.9 428.813   5
   5   9  -8 26017.8 323.002   8
   5  -9  -8 30343.5 424.006   6
  -5   9  -8 26851.9 422.511   5
   5  -9  -8 27817.7 399.512   8
   5  -9 -10 1813.24 118.779   4
   5  -9 -10 1776.25 113.855   8
   5   9 -10 1508.97 83.5772   8
  -5   9 -10 1800.65 117.567   5
   5   9 -12 10909.1 186.628   8
  -5   9 -12 11467.8 245.556   8
   5  -9 -12 11120.4 232.505   7
   5  -9 -12 11291.8 230.424   8
  -5   9 -12 11514.5 242.986   5
   5   9 -12 11327.3 271.344   3
  -5   9 -14 6874.90 139.594   8
  -9   5  14 6768.29 153.241   5
   9  -6 -13 4824.63 132.380   4
   9  -6 -13 4631.28 125.224   8
   9   6 -13 4540.93 144.763   3
  -6   9  13 4914.92 120.634   5
  -9   6 -11 3534.62 115.353   8
   9  -6 -11 3447.36 148.150   4
   9  -6 -11 3663.85 138.377   8
   9   6 -11 3291.14 156.255   3
  -6   9  11 3848.58 139.842   5
   9  -6  -9 16593.3 345.491   4
   9  -6  -9 17106.0 312.000   6
   9   6  -9 17409.3 314.190   4
   9  -6  -9 17415.1 311.640   8
  -9   6  -9 16869.5 288.422   5
   9   6  -9 17058.8 360.548   3
  -6   9   9 17618.2 322.722   5
   9  -6  -7 13781.6 300.158   6
   9  -6  -7 12909.5 262.881   8
  -9   6  -7 13081.4 263.519   5
   9   6  -7 13805.8 315.297   3
  -6   9   7 13939.9 290.552   5
   9  -6  -5 14401.1 307.869   4
   9   6  -5 13566.8 288.335   3
   9  -6  -5 14017.8 303.583   6
   9  -6  -5 14387.2 268.073   8
  -9   6  -5 14373.5 265.067   5
  -6   9   5 13566.6 271.192   5
   9   6  -3 26468.5 357.836   3
   9  -6  -3 27047.9 385.747   4
  -9   6  -3 26775.1 333.379   5
  -6   9   3 26101.4 356.732   5
   6  -9   1 10380.8 212.558   6
   9  -6  -1 10051.7 211.641   4
   9   6  -1 9748.06 197.874   3
   6   9   1 9844.95 207.374   3
  -9   6  -1 10156.7 201.197   5
  -6   9   1 10069.6 213.719   5
   6  -9  -1 10251.9 193.555   4
   6  -9  -1 10148.4 222.556   6
  -9   6   1 10207.7 214.429   5
   9  -6   1 10535.8 231.363   6
   9   6   1 9784.23 180.524   3
   6   9  -1 9647.88 210.443   3
   9  -6   3 29463.3 356.343   6
   6   9  -3 28992.5 387.980   3
  -6   9  -3 29220.3 378.661   5
   6  -9  -3 29138.4 370.100   4
  -9   6   3 29829.6 382.964   5
   6  -9  -5 13866.9 283.588   4
   6  -9  -5 14686.3 299.792   6
  -6   9  -5 14834.9 299.711   5
  -9   6   5 14806.3 293.821   5
  -9   6   7 11044.2 272.701   5
   6  -9  -7 10962.9 267.629   4
   6  -9  -7 11218.0 269.615   6
  -6   9  -7 11637.2 280.347   5
   6  -9  -9 15479.7 299.759   6
   6  -9  -9 14637.1 312.831   4
   6  -9 -11 2936.43 136.204   4
   6  -9 -11 2953.70 131.443   8
  -6   9 -11 3110.93 138.461   5
   6  -9 -13 4827.66 137.717   8
   6  -9 -13 4186.04 126.781   7
  -6   9 -13 4255.77 126.018   8
   6   9 -13 5199.28 157.653   3
  -9   6  13 3946.94 132.032   5
   9  -7 -14 9433.10 141.009   7
   9   7 -14 9378.20 151.470   3
   9  -7 -12 4179.72 139.959   4
  -9   7 -12 4153.26 106.355   8
   9  -7 -12 4183.69 129.624   8
   9   7 -12 4231.35 154.996   3
  -7   9  12 4156.31 127.194   5
   9  -7 -10 8487.73 237.214   4
   9  -7 -10 8088.28 198.713   6
   9  -7 -10 8128.96 207.555   8
  -9   7 -10 8707.09 198.211   5
   9   7 -10 8196.55 245.437   3
   9  -7  -8 3811.99 150.661   8
   9  -7  -8 4166.42 166.596   6
   9   7  -8 4221.58 159.361   4
  -9   7  -8 4472.50 159.119   5
   9   7  -8 4210.50 184.761   3
   9   7  -6 3730.36 166.182   3
   9  -7  -6 3766.14 166.578   6
   9  -7  -6 3648.19 146.163   8
   9   7  -6 3802.54 144.428   6
   9  -7  -6 3593.33 164.060   4
  -9   7  -6 3582.99 143.514   5
  -7   9   6 3250.49 143.750   5
   9  -7  -4 1069.39 90.2146   4
   9   7  -4 1088.80 86.2695   3
  -9   7  -4 1097.49 79.0221   5
  -7   9   4 972.959 83.9190   5
   9  -7  -2 8797.41 210.763   4
   7  -9   2 8185.62 189.461   6
   9   7  -2 8120.98 200.201   3
   7   9   2 8628.17 197.896   3
  -9   7  -2 8312.23 192.700   5
   9  -7  -2 8038.30 220.016   6
   7  -9   0 1714.07 98.1768   6
   9  -7   0 1612.29 100.616   6
   7   9   0 1717.80 94.2683   3
  -9   7   0 1477.43 85.1685   5
   7  -9  -2 8424.94 193.671   4
   9  -7   2 8565.98 203.464   6
   7  -9  -2 9197.59 227.152   6
   7   9  -2 8215.86 207.669   3
   9   7   2 8811.50 182.430   3
  -7   9  -2 8978.65 211.859   5
  -9   7   2 9670.72 217.870   5
   7  -9  -4 1125.53 86.6596   4
   7   9  -4 1029.70 89.6890   3
   9   7   4 1136.80 68.4861   3
  -9   7   4 1081.34 87.6095   5
   7  -9  -6 3677.92 153.850   8
   7   9  -6 3723.35 170.802   3
   7  -9  -6 3689.06 159.142   4
   7  -9  -6 4158.79 169.275   6
  -7   9  -6 4378.54 168.827   5
  -9   7   6 3746.99 159.524   5
   7  -9  -8 4411.73 170.393   6
  -7   9  -8 4633.35 179.377   5
   7   9  -8 4315.22 193.417   3
   7  -9 -10 8487.25 230.456   4
  -9   7  10 8092.02 228.739   5
  -7   9 -12 4246.21 132.178   8
   7  -9 -12 4184.13 131.841   7
   7   9 -12 4168.07 155.946   3
  -9   7  12 3963.32 137.988   5
   7  -9 -14 9306.82 137.085   7
  -9   7  14 8823.30 132.917   5
   9  -8 -13 8649.83 149.259   7
  -8   9  13 8431.78 137.391   5
   9   8 -13 8898.53 172.815   3
   9  -8 -11 4872.02 161.556   4
  -9   8 -11 5160.16 136.278   8
  -9   8 -11 5107.54 134.726   5
   9   8 -11 4639.05 172.216   3
   9  -8 -11 4935.93 150.691   8
  -8   9  11 4944.83 150.884   5
   9  -8  -9 18253.0 319.569   6
   9   8  -9 18620.5 367.375   3
   9  -8  -9 18799.9 320.861   8
  -8   9   9 18695.2 324.362   5
   9  -8  -7 2792.35 143.091   4
   9  -8  -7 2988.39 145.759   6
  -9   8  -7 2871.23 133.299   5
   9  -8  -7 3298.81 143.812   8
  -8   9   7 3425.12 147.746   5
   9   8  -7 2837.03 152.124   3
   9   8  -5 1471.82 106.692   3
   9  -8  -5 1503.69 110.075   6
  -9   8  -5 1803.25 106.254   5
   8   9   5 1434.68 87.2971   3
  -8   9   5 1136.03 91.3577   5
   9  -8  -3 13232.0 266.737   4
   9   8  -3 13652.4 280.721   3
   9  -8  -3 13953.0 298.778   6
   8   9   3 13642.8 253.408   3
  -9   8  -3 13732.6 264.046   5
   9  -8  -1 19473.5 291.190   4
   8  -9   1 18698.4 306.273   6
   9  -8  -1 19522.1 340.994   6
   9   8  -1 19202.2 307.283   3
   8   9   1 19215.8 301.107   3
  -9   8  -1 19751.2 301.531   5
  -8   9   1 18410.0 297.851   5
   8  -9  -1 19440.7 334.437   6
   9  -8   1 19482.2 317.794   6
   8   9  -1 19707.6 314.628   3
   8  -9  -1 19675.3 282.913   4
   9   8   1 19791.3 288.920   3
  -8   9  -1 20237.5 312.224   5
  -9   8   1 19933.3 310.850   5
   8  -9  -3 15269.2 282.297   4
   8   9  -3 14450.1 291.571   3
   8  -9  -3 14455.1 303.840   6
   9   8   3 15082.1 249.560   3
  -8   9  -3 15552.8 288.104   5
  -9   8   3 14856.1 282.333   5
   8   9  -5 1560.47 110.113   3
   8  -9  -5 1523.93 104.278   4
   8  -9  -5 1923.13 120.423   6
  -8   9  -5 1622.29 105.667   5
   9   8   5 1767.77 87.3613   3
   8   9  -7 3247.80 164.455   3
   8  -9  -7 3003.23 146.103   6
   8  -9  -7 3005.02 148.031   4
   8  -9  -7 3605.72 151.071   8
  -8   9  -7 3401.78 150.412   5
   9   8   7 3921.17 126.572   3
   8   9  -9 21180.9 396.553   3
   8  -9  -9 20436.1 338.950   8
   8  -9  -9 20243.8 336.689   6
  -8   9  -9 21129.3 350.995   5
  -9   8   9 19861.7 345.260   5
   8  -9 -11 4516.42 154.569   4
  -8   9 -11 4813.39 144.539   5
   8   9 -11 4397.35 170.975   3
   8  -9 -11 4573.39 148.239   8
  -9   8  11 4656.08 151.710   5
   8  -9 -13 8630.19 149.909   7
  -8   9 -13 8657.84 126.192   8
  -9   8  13 8769.37 151.472   5
   9  -9   0 20313.4 341.329   6
  -9   9   0 19824.2 317.338   5
   9  -9   2 4679.92 151.884   6
   9   9  -2 4476.48 160.104   3
   9  -9  -2 4689.09 177.329   6
   9   9   2 4854.95 151.945   3
  -9   9  -2 4873.54 160.613   5
  -9   9   2 4629.88 159.791   5
   9  -9  -4 859.063 79.2636   4
   9   9  -4 876.217 85.1377   3
   9   9   4 821.886 66.1526   3
  -9   9  -4 944.969 80.4752   5
   9   9  -6 6660.06 218.570   3
   9  -9  -6 6652.72 205.434   4
   9   9  -6 6499.18 177.399   6
   9  -9  -6 6652.85 218.624   6
  -9   9  -6 6898.97 203.075   5
   9   9   6 6702.80 168.229   3
   9  -9  -8 562.330 82.1412   4
   9  -9  -8 719.799 81.1796   6
  -9   9  -8 567.644 67.1679   5
   9   9   8 594.095 52.8641   3
   9   9  -8 513.225 83.5564   3
  -9   9   8 407.960 69.5734   5
  -9   9 -10 17896.6 278.685   5
   9   9 -10 17602.2 332.070   3
  -9   9  10 18273.9 292.830   5
  -9   9 -12 1752.56 62.5307   8
   9  -9 -12 1359.83 67.0477   7
   9   9 -12 1980.26 94.9983   3
  -9   9  12 1607.41 73.9193   5
  10   0 -12 26872.9 296.254   8
  10   0 -12 25822.4 352.816   3
  10   0 -12 25845.9 347.144   4
  10   0 -10 50770.0 592.790   4
  10   0 -10 51795.8 448.314   8
  10   0  -8 65696.7 620.568   6
  10   0  -8 68052.8 717.990   4
  10   0  -8 67163.4 611.164   3
  10   0  -8 65754.3 492.072   8
  10   0  -6 34540.4 503.274   4
  10   0  -6 36427.4 403.661   3
  10   0  -4 85656.4 703.596   6
  10   0   0 192383. 990.278   6
   0  10   0 193473. 754.403   5
   0 -10  -2 261810. 965.552   7
   0  10  -2 260785. 970.240   5
   0  10  -4 97884.4 683.078   3
  10   0   4 96095.3 679.601   6
   0  10  -4 97005.2 656.651   5
   0  10  -6 38590.5 459.518   3
   0 -10  -6 38365.6 433.692   7
   0 -10  -6 38038.7 385.334   8
   0  10  -8 65876.5 636.717   5
   0 -10  -8 66003.8 529.658   8
   0  10  -8 67565.5 645.983   3
   0  10 -10 56808.7 591.748   5
   0 -10 -10 57692.0 497.589   8
   0  10 -12 25540.0 357.753   8
   0 -10 -12 27094.5 359.773   7
   0  10 -12 25804.3 328.881   3
   0 -10 -12 27549.2 306.456   8
 -10   0  14 18721.3 258.595   5
   0  10 -14 17608.5 225.852   8
  10  -1 -13 17804.2 240.431   4
  10  -1 -13 17456.6 219.578   8
  10  -1 -11 16691.6 293.430   3
  10   1 -11 16502.7 311.946   4
  10   1 -11 15887.4 301.548   3
  10  -1 -11 16357.3 254.049   8
  10   1 -11 16730.9 240.204   8
  10   1  -9 5349.13 205.256   4
  10  -1  -9 5086.25 202.359   4
  10  -1  -9 5023.15 167.924   6
  10  -1  -9 4982.05 167.290   3
  10   1  -9 5311.80 183.936   3
  10  -1  -7 33628.9 457.190   6
  10  -1  -7 34497.4 509.906   4
  10   1  -7 33691.9 455.356   6
  10   1  -7 34575.4 511.043   4
  10  -1  -7 34407.1 397.855   3
  10   1  -7 33160.6 421.599   3
  10  -1  -7 34343.8 361.207   8
  -1  10   5 13273.6 216.677   5
  10  -1  -5 12770.5 281.063   6
  10   1  -5 12935.6 277.338   6
  10   1  -5 12873.1 296.308   4
  10  -1  -3 5123.51 174.024   6
  10   1  -3 5102.72 171.214   6
  10  -1  -3 5303.86 177.629   4
  10  -1  -1 7036.69 193.761   6
 -10  -1  -1 7373.66 158.935   2
  -1  10   1 7300.06 151.580   5
  10  -1   1 8460.82 208.831   6
  10   1   1 8832.06 210.547   6
   1  10  -1 8557.19 185.175   3
  -1  10  -1 8623.57 177.644   3
   1  10  -1 8510.25 160.397   5
  -1  10  -1 8250.46 172.096   5
 -10   1   3 5292.43 146.114   5
  -1 -10  -3 5289.05 146.661   7
   1 -10  -3 4940.96 135.603   7
   1  10  -3 5251.44 155.156   3
  10  -1   3 5089.45 158.312   6
  10   1   3 5262.13 163.615   6
   1  10  -3 4944.74 137.716   5
  -1  10  -3 4925.58 148.456   5
  -1  10  -5 14880.4 265.233   3
  -1 -10  -5 14363.5 255.247   7
   1 -10  -5 15406.3 262.481   7
   1  10  -5 16017.7 297.754   3
  10   1   5 14605.6 263.788   6
   1  10  -5 14077.6 256.132   5
  -1  10  -5 14944.3 278.870   5
   1 -10  -5 14814.5 250.205   8
  -1  10  -7 34346.8 430.951   3
   1  10  -7 35215.5 470.439   3
  -1 -10  -7 33480.0 417.781   7
   1 -10  -7 34658.0 429.802   7
   1  10  -7 33623.5 433.237   5
  -1  10  -7 33662.3 454.729   5
  -1 -10  -7 33031.0 347.876   8
   1 -10  -7 33209.2 387.572   8
   1 -10  -9 4760.72 174.274   7
   1  10  -9 4669.50 172.467   5
  -1  10  -9 4926.17 184.360   5
  -1  10  -9 4983.56 168.480   3
  -1 -10  -9 4654.65 137.028   8
   1 -10  -9 4345.25 149.244   8
   1  10  -9 4661.61 185.378   3
   1  10 -11 18296.1 311.350   8
  -1 -10 -11 18953.2 317.822   7
  -1 -10 -11 17886.0 249.097   8
   1  10 -11 18790.2 336.272   3
   1 -10 -11 19114.3 289.155   8
   1  10 -13 17298.8 254.234   8
  -1  10 -13 17613.2 270.896   8
  -1 -10 -13 19217.1 271.659   7
   1 -10 -13 18111.1 270.857   7
   1 -10 -13 18530.2 230.530   8
   1  10 -13 17397.4 247.020   3
  10  -2 -14 7957.06 120.916   8
  10  -2 -12 17883.4 296.295   4
  10   2 -12 17839.8 304.501   3
  10   2 -10 28753.6 431.368   4
  10  -2 -10 27970.8 377.105   3
  10  -2 -10 28543.5 356.665   8
  10  -2  -8 76994.6 771.200   4
  10  -2  -8 77131.4 694.880   6
  10  -2  -8 78737.5 583.724   8
  10   2  -8 79174.6 659.416   6
  10   2  -8 79212.6 774.899   4
  10  -2  -8 78498.3 615.975   3
  10   2  -8 76052.8 682.424   3
  -2  10   8 75904.4 575.209   5
  10  -2  -6 35693.8 481.767   6
  10   2  -6 34713.1 463.678   6
  10   2  -6 35521.2 507.570   4
  10   2  -6 34566.0 427.605   3
  -2  10   6 34938.1 381.820   5
  10  -2  -6 36448.8 371.395   8
  10  -2  -4 88004.1 725.094   6
  10  -2  -4 86341.8 740.478   4
  10   2  -4 87573.7 707.309   6
  10  -2  -2 62587.2 576.396   4
  -2  10   2 63518.8 474.847   5
   2 -10   0 261.483 34.6477   2
  10  -2   0 220.373 46.8828   6
  -2  10   0 356.282 42.1641   5
  -2  10   0 239.611 36.7849   3
 -10  -2   0 244.724 33.0557   2
   2 -10  -2 63889.3 454.021   7
   2 -10  -2 64901.7 542.310   6
  10  -2   2 64318.5 555.029   6
  -2  10  -2 68921.6 494.576   3
   2  10  -2 61737.0 515.623   3
   2  10  -2 64303.3 448.428   5
  -2  10  -2 67135.4 522.956   5
 -10   2   2 65807.2 496.912   5
 -10   2   4 88456.5 639.714   5
  -2 -10  -4 89272.7 614.532   7
   2 -10  -4 89102.6 598.707   7
  -2  10  -4 88271.7 603.083   3
   2  10  -4 87658.9 671.545   3
  10  -2   4 88543.9 632.704   6
   2  10  -4 88279.4 592.631   5
  -2  10  -4 89771.8 659.757   5
   2  10  -6 41044.2 510.717   3
  -2 -10  -6 39556.3 441.264   7
  -2  10  -6 40674.0 434.345   3
   2  10  -6 38730.5 442.308   5
  -2  10  -6 39880.1 483.351   5
   2 -10  -6 40136.9 440.396   7
   2 -10  -6 41191.8 435.263   8
   2  10  -8 79165.1 757.841   3
   2 -10  -8 77065.7 655.216   7
   2 -10  -8 77485.5 631.367   8
   2  10  -8 78239.9 665.214   5
  -2  10  -8 78302.7 711.564   5
   2  10 -10 28461.0 389.448   8
  -2 -10 -10 29176.3 399.201   7
   2 -10 -10 30103.6 416.994   7
   2  10 -10 28048.5 444.585   3
   2 -10 -10 29694.4 388.413   8
   2  10 -12 19020.2 283.112   8
  -2  10 -12 18543.8 310.978   8
  -2 -10 -12 19805.7 301.108   7
   2  10 -12 19190.2 317.914   3
   2 -10 -12 19816.6 282.079   8
   2  10 -14 8213.63 140.478   8
   2 -10 -14 8407.81 157.066   7
  10  -3 -13 20899.1 267.969   4
  10  -3 -13 21212.4 248.515   8
  10   3 -11 53598.8 522.596   4
  10   3 -11 51776.0 557.500   3
  -3  10  11 51042.5 429.021   5
  10  -3 -11 53483.8 475.962   8
  10  -3  -9 99516.7 872.471   4
  10  -3  -9 95936.4 725.646   6
  10   3  -9 100414. 837.548   4
  10   3  -9 99294.0 802.097   3
  10  -3  -9 97674.5 671.471   8
  -3  10   9 94647.7 660.386   5
  10  -3  -7 63395.2 684.181   4
  10  -3  -7 68577.1 670.496   6
  10   3  -7 68471.6 637.215   6
  10   3  -7 73050.1 726.549   4
  10   3  -7 67419.3 646.591   3
  10  -3  -7 70657.1 557.439   8
  -3  10   7 65012.7 557.017   5
  10  -3  -5 41390.3 532.334   4
  10   3  -5 42635.2 509.579   6
  10   3  -5 42489.6 470.439   3
  10  -3  -5 43161.3 406.519   8
  10  -3  -3 97795.9 751.805   4
  -3  10   3 95922.5 617.884   5
   3 -10   1 28249.1 338.610   6
  10  -3  -1 27083.5 390.506   6
  10  -3  -1 27352.5 372.867   4
  -3  10   1 27946.0 334.022   5
 -10   3  -1 28621.9 293.435   5
   3 -10  -1 25755.5 346.127   6
  10  -3   1 28128.3 380.596   6
  10  -3   1 26570.2 328.859   4
  -3  10  -1 28380.0 303.497   3
   3  10  -1 27501.2 338.327   3
  -3  10  -1 27914.2 341.238   5
 -10   3   1 27476.2 316.634   5
   3 -10  -3 99155.3 663.918   4
   3 -10  -3 96656.3 578.278   7
   3 -10  -3 91127.3 678.955   6
  10  -3   3 96591.1 679.121   6
   3  10  -3 93468.4 665.660   3
  -3  10  -3 97596.6 681.216   5
 -10   3   3 93806.5 646.667   5
   3 -10  -5 43299.0 483.377   4
   3 -10  -5 43334.8 492.380   6
   3 -10  -5 43550.1 437.465   7
   3  10  -5 43100.8 505.819   3
   3 -10  -5 44154.0 467.555   8
  -3 -10  -5 44326.0 457.247   7
   3  10  -5 44086.7 433.573   5
  -3  10  -5 43847.9 492.069   5
   3  10  -7 66962.0 695.233   3
   3 -10  -7 65585.2 579.854   7
   3  10  -7 65536.9 577.745   5
   3 -10  -7 64666.1 582.135   8
  -3 -10  -9 104217. 751.880   7
   3 -10  -9 102502. 754.691   7
   3 -10  -9 103359. 746.802   8
   3  10  -9 101917. 884.910   3
   3  10 -11 48992.7 468.030   8
  -3 -10 -11 52463.6 506.791   7
   3 -10 -11 50450.5 516.394   7
   3 -10 -11 53414.6 505.729   8
  -3  10 -11 50919.6 553.490   5
   3  10 -11 53424.7 597.589   3
 -10   3  13 21288.7 313.975   5
   3  10 -13 20388.9 242.592   8
   3 -10 -13 21355.8 268.882   8
   3  10 -13 21275.9 299.250   3
  10   4 -14 1222.17 60.0891   3
  10  -4 -12 1827.00 100.335   4
  10   4 -12 1816.74 103.385   3
  10  -4 -12 1715.03 86.2477   8
  10  -4 -10 1525.24 120.691   4
  10  -4 -10 1271.08 84.5260   6
  10   4 -10 1463.88 103.075   4
  10   4 -10 1481.41 109.982   3
  10  -4 -10 1170.90 87.9344   8
  -4  10  10 1274.33 84.3483   5
  10  -4  -8 10635.5 264.151   6
  10  -4  -8 10322.4 287.144   4
  10   4  -8 10313.0 279.850   4
  10   4  -8 9847.10 264.427   3
  10  -4  -8 10034.7 223.269   8
  -4  10   8 9777.69 226.627   5
  10  -4  -6 3292.16 163.107   4
  10  -4  -6 3315.01 157.811   6
  10   4  -6 3665.80 155.080   3
  10   4  -6 3681.83 155.781   6
  10  -4  -6 3697.52 132.332   8
  -4  10   6 3506.66 137.504   5
  10  -4  -4 1361.56 102.803   4
  10  -4  -4 1435.11 104.521   6
  10   4  -4 1501.13 101.186   6
 -10   4  -4 1383.28 73.4263   5
  10  -4  -4 1468.90 81.9467   8
  10   4  -4 1461.66 89.3026   3
   4 -10   2 14797.5 244.272   6
  10  -4  -2 14477.6 294.026   6
  10  -4  -2 15502.9 291.718   4
 -10   4  -2 14451.2 219.777   5
  -4  10   2 15818.8 259.466   5
   4 -10   0 5338.42 157.951   6
  10  -4   0 5339.15 173.858   6
  10  -4   0 5532.03 158.037   4
  -4  10   0 5330.78 150.306   5
 -10   4   0 5595.87 141.748   5
   4 -10  -2 14851.3 250.327   4
  10  -4   2 15260.5 277.992   6
   4 -10  -2 14765.5 274.279   6
 -10   4   2 15174.8 255.989   5
   4 -10  -4 1532.98 93.6128   4
   4 -10  -4 1406.29 77.7681   7
   4  10  -4 1603.74 100.504   3
 -10   4   6 3320.05 150.711   5
   4 -10  -6 3461.34 148.292   4
   4  10  -6 3633.80 165.042   3
   4 -10  -6 3308.00 131.190   7
   4 -10  -6 3399.60 149.289   6
   4  10  -6 3590.32 127.741   5
   4 -10  -6 3549.59 142.466   8
   4  10  -8 10758.1 296.119   3
 -10   4   8 9652.63 261.325   5
   4 -10  -8 9758.68 235.648   7
  -4 -10  -8 10392.7 242.112   7
   4 -10  -8 10336.3 242.484   8
 -10   4  10 1488.83 112.552   5
   4  10 -10 1612.77 89.6140   8
   4 -10 -10 1188.32 95.2757   7
   4 -10 -10 1068.98 92.8245   8
  -4  10 -10 1716.37 117.934   5
   4  10 -10 1769.14 131.126   3
 -10   4  12 1775.11 109.716   5
   4  10 -12 2137.73 85.2056   8
  -4  10 -12 1926.21 106.960   8
   4 -10 -12 1650.97 95.5657   7
  -4  10 -12 2045.76 109.391   5
   4  10 -12 2084.84 118.881   3
   4 -10 -12 2247.90 105.175   8
  -4  10 -14 1036.36 55.6113   8
   4  10 -14 1064.25 54.9802   3
  10  -5 -13 35147.2 332.226   4
  10   5 -13 34453.1 356.719   3
  10  -5 -11 31007.8 421.626   4
  10   5 -11 31059.0 429.783   3
  10  -5 -11 32261.0 372.054   8
  -5  10  11 31582.7 358.220   5
  10  -5  -9 81758.2 766.698   4
  10  -5  -9 78055.8 673.523   6
  10   5  -9 83565.2 726.385   4
  10  -5  -9 81518.9 634.063   8
  10   5  -9 79357.7 744.181   3
  -5  10   9 78307.5 629.928   5
  10  -5  -7 56419.0 620.073   6
  10   5  -7 58463.5 569.821   6
  10   5  -7 58797.2 652.455   4
 -10   5  -7 57199.7 507.978   5
  10   5  -7 57059.0 618.581   3
  10  -5  -7 58061.8 535.696   8
  10  -5  -5 54789.7 600.672   4
  10  -5  -5 54447.4 605.127   6
  10   5  -5 53725.8 570.878   6
 -10   5  -5 54326.4 483.284   5
  10  -5  -5 56651.0 516.630   8
  -5  10   5 53888.2 525.237   5
  10   5  -5 52176.0 553.573   3
  10  -5  -3 57233.7 585.790   4
 -10   5  -3 56569.4 461.889   5
  -5  10   3 57538.5 513.662   5
   5 -10   1 15746.7 261.886   6
  10  -5  -1 15550.9 279.044   4
  10  -5  -1 14913.6 297.102   6
   5  10   1 15253.8 262.480   3
 -10   5  -1 15228.8 240.400   5
  -5  10   1 15769.8 264.933   5
   5 -10  -1 14384.1 234.338   4
  10  -5   1 13624.1 272.090   6
   5 -10  -1 13646.8 264.366   6
   5  10  -1 13373.8 251.926   3
  -5  10  -1 14094.1 255.156   5
 -10   5   1 14103.1 241.381   5
   5 -10  -3 57994.9 523.668   4
   5 -10  -3 57214.2 565.033   6
  -5  10  -3 58342.1 551.814   5
 -10   5   3 56666.9 531.460   5
   5 -10  -5 58492.3 570.497   4
 -10   5   5 58830.7 579.560   5
 -10   5   7 60815.1 629.262   5
   5  10  -7 59271.8 664.524   3
   5 -10  -7 58899.9 576.129   8
  -5  10  -7 59485.6 635.084   5
   5 -10  -7 59544.6 603.059   6
 -10   5   9 87324.1 771.400   5
   5  10  -9 82354.3 556.564   8
   5 -10  -9 83331.3 669.023   7
   5 -10  -9 85769.8 697.065   8
  -5  10  -9 86003.4 758.614   5
   5  10  -9 84689.7 816.796   3
 -10   5  11 32344.3 432.983   5
   5  10 -11 32168.7 314.661   8
   5 -10 -11 32154.6 390.578   7
  -5  10 -11 32783.7 433.558   5
   5  10 -11 34494.8 479.248   3
   5 -10 -11 33861.7 402.698   8
  -5  10 -13 36254.6 360.399   8
   5 -10 -13 35456.5 334.361   7
   5  10 -13 36323.0 385.860   3
  10  -6 -12 5550.49 156.632   4
  10   6 -12 5498.64 163.422   3
  10  -6 -12 5521.92 141.501   8
  -6  10  12 5834.38 134.121   5
  10  -6 -10 9557.86 250.390   4
  10  -6 -10 9236.03 209.294   6
  10   6 -10 9283.43 246.519   3
  10  -6 -10 9436.01 212.742   8
  -6  10  10 9905.49 216.125   5
  10  -6  -8 17238.9 331.487   6
  10   6  -8 17619.5 338.288   4
 -10   6  -8 17386.8 284.085   5
  10   6  -8 17798.4 351.947   3
  10  -6  -8 17796.2 302.492   8
  -6  10   8 17766.2 312.289   5
  10  -6  -6 74517.9 727.075   4
  10  -6  -6 75239.1 721.165   6
  10   6  -6 74953.4 657.898   6
 -10   6  -6 75398.0 602.925   5
  10  -6  -6 76036.7 633.513   8
  -6  10   6 74388.8 638.964   5
  10   6  -6 73216.9 689.816   3
  10  -6  -4 65379.9 641.558   4
  -6  10   4 66697.0 583.897   5
  10   6  -2 65059.2 538.847   3
   6 -10   2 67083.4 534.793   6
  10  -6  -2 66289.5 596.264   4
  10  -6  -2 67522.6 655.868   6
   6  10   2 66866.3 563.299   3
 -10   6  -2 64027.9 517.336   5
  -6  10   2 66173.3 564.946   5
   6 -10   0 49389.0 501.158   6
  10   6   0 48260.5 421.239   3
  10  -6   0 52488.7 556.478   6
   6  10   0 50217.8 493.194   3
  -6  10   0 51806.1 488.748   5
 -10   6   0 51396.3 460.161   5
   6 -10  -2 65805.2 536.285   4
   6 -10  -2 65305.6 610.583   6
  10  -6   2 67215.7 588.100   6
   6  10  -2 66800.5 587.166   3
 -10   6   2 67225.9 565.985   5
   6 -10  -4 66446.2 590.641   4
 -10   6   4 67691.5 609.316   5
   6 -10  -6 75111.6 675.240   4
   6 -10  -6 73960.5 683.768   6
  -6  10  -6 75004.3 691.199   5
 -10   6   6 74517.0 679.500   5
 -10   6   8 18364.1 344.700   5
   6 -10  -8 18170.5 339.492   4
   6 -10  -8 18726.6 337.526   6
   6 -10  -8 18733.1 335.089   8
  -6  10  -8 19045.4 357.055   5
   6 -10 -10 9378.63 237.554   4
   6 -10 -10 9285.17 215.119   7
  -6  10 -10 10115.0 248.196   5
   6  10 -10 10123.3 277.076   3
   6 -10 -10 10421.9 240.863   8
  -6  10 -12 6796.69 170.761   8
  -6  10 -12 6884.92 168.904   5
   6  10 -12 7032.53 195.674   3
   6 -10 -12 6691.54 162.604   7
  10  -7 -13 3173.63 91.5609   7
  10   7 -13 3801.85 106.257   3
  10  -7 -11 5494.98 170.290   4
  10   7 -11 5931.10 181.644   3
  10  -7 -11 5841.70 154.671   8
  -7  10  11 5515.35 146.564   5
  10  -7  -9 1186.28 94.2182   6
 -10   7  -9 1343.63 81.9247   5
  10   7  -9 1486.83 113.081   3
  10  -7  -9 1163.57 88.8539   8
  -7  10   9 1233.68 90.9068   5
  10  -7  -7 7160.36 227.146   4
  10  -7  -7 7057.67 222.686   6
 -10   7  -7 6784.20 188.301   5
  10   7  -7 6596.39 217.226   3
  -7  10   7 6925.81 200.032   5
  10   7  -5 13155.1 289.566   3
  10  -7  -5 13730.8 307.255   4
  10  -7  -5 14454.2 318.718   6
  10   7  -5 13504.9 281.398   6
 -10   7  -5 15118.0 278.670   5
  -7  10   5 12914.3 267.212   5
  10   7  -3 55225.1 541.315   3
  10  -7  -3 56484.0 576.017   4
  10  -7  -3 55062.1 604.308   6
   7  10   3 55635.0 524.117   3
 -10   7  -3 56868.4 518.523   5
  -7  10   3 54822.7 527.831   5
  10  -7  -1 12428.4 245.240   4
  10   7  -1 12167.5 236.251   3
  10  -7  -1 12486.3 281.396   6
   7  10   1 13081.7 255.140   3
 -10   7  -1 12349.3 234.039   5
  -7  10   1 11564.9 239.689   5
   7 -10  -1 12123.3 219.844   4
   7 -10  -1 12507.1 266.155   6
  10  -7   1 12878.3 268.480   6
  10   7   1 12491.0 221.408   3
   7  10  -1 12604.3 252.831   3
 -10   7   1 12266.4 240.459   5
   7 -10  -3 54712.5 522.154   4
   7 -10  -3 54529.5 583.368   6
  10  -7   3 55239.0 504.645   6
   7  10  -3 56928.1 566.265   3
  -7  10  -3 58074.4 563.954   5
 -10   7   3 54377.8 538.119   5
   7 -10  -5 13958.8 288.343   4
   7  10  -5 13795.6 308.915   3
 -10   7   5 14618.0 294.663   5
   7 -10  -7 5957.01 198.474   4
   7 -10  -7 6060.42 199.654   6
  -7  10  -7 6018.07 203.059   5
 -10   7   7 6152.15 202.992   5
  -7  10  -9 1480.35 105.658   5
   7 -10 -11 6819.74 168.466   7
   7  10 -11 6287.71 196.134   3
  -7  10 -13 4173.89 97.1255   8
   7 -10 -13 3890.60 97.3977   7
   7  10 -13 3959.24 116.347   3
  10  -8 -12 32731.7 330.467   4
  10  -8 -12 30868.5 292.934   7
  10   8 -12 32592.7 343.168   3
  -8  10  12 30363.9 274.462   5
  10  -8 -10 62161.1 501.168   6
 -10   8 -10 62863.8 473.430   5
  10   8 -10 60877.6 590.437   3
   8  10  10 62791.4 446.123   3
  -8  10  10 62483.6 515.678   5
  10  -8  -8 50518.1 560.475   4
  10  -8  -8 52018.4 562.082   6
  10   8  -8 52223.5 518.535   4
 -10   8  -8 52931.8 509.842   5
   8  10   8 51830.6 467.158   3
  10   8  -8 51102.9 584.761   3
  -8  10   8 52207.3 527.848   5
  10  -8  -6 48984.1 559.304   4
  10  -8  -6 48133.0 570.673   6
  10   8  -6 48949.4 511.350   6
 -10   8  -6 48164.9 514.855   5
   8  10   6 48107.3 482.639   3
  -8  10   6 48165.0 515.253   5
  10   8  -6 46811.8 558.472   3
  10   8  -4 34651.9 457.924   3
  10  -8  -4 34613.6 456.607   4
 -10   8  -4 35195.8 423.145   5
  -8  10   4 34518.4 424.848   5
  10  -8  -2 89528.3 676.681   4
  10   8  -2 91504.2 695.285   3
   8 -10   2 93588.2 658.546   6
  10  -8  -2 88412.1 753.039   6
   8  10   2 97021.3 695.639   3
 -10   8  -2 93150.1 669.807   5
   8 -10   0 50133.5 532.136   6
  10  -8   0 50613.5 543.234   6
   8  10   0 49288.9 501.214   3
 -10   8   0 51154.6 492.000   5
   8 -10  -2 82129.3 609.083   4
  10  -8   2 84398.1 658.905   6
   8  10  -2 89190.1 713.196   3
   8 -10  -2 86090.9 715.351   6
  10   8   2 88264.5 590.203   3
  -8  10  -2 86643.2 675.113   5
 -10   8   2 87363.4 662.370   5
   8  10  -4 38832.6 499.649   3
  10   8   4 39260.7 385.245   3
  -8  10  -4 39514.7 475.613   5
 -10   8   4 39139.9 464.097   5
   8  10  -6 46934.9 576.813   3
   8 -10  -6 46414.8 523.983   4
   8 -10  -6 47316.5 558.624   6
  -8  10  -6 49285.1 551.375   5
 -10   8   6 48849.5 532.663   5
   8 -10  -8 54258.7 566.225   4
   8 -10  -8 55756.0 571.412   6
  -8  10  -8 56294.6 578.557   5
   8  10  -8 54953.8 631.427   3
   8  10 -10 55161.3 590.062   3
 -10   8  10 58816.1 533.395   5
  -8  10 -12 32065.4 290.589   8
   8 -10 -12 31165.8 288.114   7
 -10   8  12 32101.1 314.749   5
  10  -9 -11 3343.35 118.619   4
  10  -9 -11 3169.18 97.4272   7
  10   9 -11 3187.24 120.950   3
  -9  10  11 3102.77 101.537   5
  10  -9  -9 5725.34 180.433   4
  10  -9  -9 6041.50 174.106   6
 -10   9  -9 6155.80 164.692   5
  10   9  -9 6309.90 198.583   3
  -9  10   9 5606.74 163.951   5
  10  -9  -7 14354.9 296.577   4
  10  -9  -7 14819.2 307.597   6
  10   9  -7 14473.2 275.830   4
 -10   9  -7 14873.5 280.189   5
   9  10   7 14968.1 246.343   3
  -9  10   7 14571.4 278.006   5
  10   9  -7 14537.6 313.969   3
  10   9  -5 18490.6 345.696   3
  10  -9  -5 17642.4 325.400   4
  10   9  -5 18521.8 315.290   6
   9  10   5 18779.5 285.886   3
 -10   9  -5 18869.1 321.733   5
  10  -9  -3 3420.40 139.351   4
  10   9  -3 3420.77 146.072   3
  10  -9  -3 4136.74 171.844   6
   9  10   3 3586.56 132.423   3
 -10   9  -3 4314.54 154.472   5
   9 -10   1 18430.3 314.421   6
  10  -9  -1 17755.3 330.263   6
  10   9  -1 18581.4 313.219   3
   9  10   1 18582.9 303.926   3
 -10   9  -1 18615.2 309.224   5
  -9  10   1 18397.7 307.008   5
   9 -10  -1 18107.5 329.880   6
  10  -9   1 18683.2 323.774   6
  10   9   1 18637.9 295.824   3
  -9  10  -1 19073.5 318.272   5
 -10   9   1 18054.7 302.113   5
   9 -10  -3 3213.79 129.626   4
   9 -10  -3 3102.81 149.785   6
  10   9   3 3565.03 125.027   3
  -9  10  -3 3190.74 138.120   5
 -10   9   3 3408.01 138.259   5
   9  10  -5 17647.2 346.658   3
   9 -10  -5 17450.6 316.304   4
  10   9   5 17867.9 259.140   3
  -9  10  -5 18405.7 330.317   5
   9 -10  -7 14233.1 288.621   4
   9 -10  -7 14934.6 304.228   6
   9  10  -7 14602.2 321.259   3
   9 -10  -9 5397.82 174.136   4
   9 -10  -9 5432.52 146.168   7
   9 -10  -9 5428.88 165.295   6
  -9  10  -9 6020.05 171.630   5
   9  10  -9 5823.46 197.751   3
 -10   9   9 5886.03 172.343   5
  -9  10 -11 3346.27 99.3187   8
   9 -10 -11 3264.19 98.4464   7
   9  10 -11 3464.20 128.878   3
 -10   9  11 3217.44 108.675   5
  10  10   0 4795.77 160.160   3
 -10  10   0 4825.15 160.731   5
  10 -10   2 19562.5 308.530   6
  10 -10  -2 20742.4 299.714   4
  10  10  -2 19986.5 340.317   3
  10 -10  -2 18802.6 342.922   6
 -10  10  -2 20312.2 327.804   5
 -10  10   2 19552.8 316.314   5
  10  10  -4 17364.6 327.923   3
  10 -10  -4 16812.1 300.258   4
  10 -10  -4 17214.3 335.730   6
  10  10   4 17473.9 270.975   3
 -10  10  -4 17811.2 315.315   5
  10  10  -6 19936.1 362.369   3
  10 -10  -6 20011.4 333.261   4
  10 -10  -6 19891.2 356.809   6
  10  10   6 21302.5 276.182   3
 -10  10  -6 21513.6 343.696   5
  10 -10  -8 24967.1 361.799   4
  10 -10  -8 24970.4 283.888   7
  10 -10  -8 25577.3 365.200   6
  10  10  -8 25996.5 396.613   3
 -10  10   8 25890.2 338.562   5
 -10  10 -10 24683.7 259.084   8
  10 -10 -10 24014.7 250.780   7
 -10  10 -10 24601.0 271.675   5
  10  10 -10 24749.7 337.052   3
 -10  10  10 23650.1 280.761   5
  11   0 -11 75333.0 658.380   4
  11   0 -11 72756.2 569.115   3
  11   0  -9 96806.2 849.968   4
  11   0  -9 94558.0 709.452   6
  11   0  -7 28234.1 432.014   6
  11   0  -7 28120.6 472.433   4
  11   0  -5 58626.7 632.867   6
  11   0  -3 197423. 1107.99   6
  11   0  -1 437218. 1636.43   6
   0  11   1 449047. 1174.53   5
  11   0   1 448167. 1596.84   6
   0  11  -1 445621. 1256.72   5
   0 -11  -3 192402. 889.113   7
   0  11  -3 193992. 903.172   5
   0 -11  -5 60575.2 533.586   7
   0  11  -5 59734.2 558.271   5
   0  11  -7 23482.0 381.517   3
   0 -11  -7 22248.5 345.078   7
   0  11  -7 23302.9 372.882   5
   0 -11  -9 99248.6 733.706   7
   0  11  -9 98935.3 766.528   5
   0 -11  -9 97890.7 632.885   8
   0  11 -11 70021.0 598.459   8
   0  11 -11 70264.3 560.463   3
 -11   0  13 13776.1 227.267   5
   0  11 -13 12518.5 205.957   8
  11  -1 -12 7291.70 179.447   4
  11   1 -12 7024.59 168.152   4
  11   1 -12 6937.80 166.753   3
  11  -1 -10 21887.0 394.738   4
  11   1 -10 21824.7 381.548   4
  11  -1 -10 21513.3 314.404   3
  11   1 -10 21307.2 330.850   3
  11  -1  -8 5500.47 216.297   4
  11  -1  -8 5559.20 192.471   6
  11   1  -8 5399.19 182.937   6
  11   1  -8 5918.31 220.756   4
  11  -1  -6 17793.9 349.298   6
  11   1  -6 17991.1 350.644   6
  11   1  -6 18426.2 381.954   4
  11   1  -4 23479.5 394.868   6
  11  -1  -4 23171.6 398.999   4
  -1  11   4 24297.0 287.821   5
  11   1  -2 26980.8 407.346   6
  -1  11   2 32151.5 332.029   5
  11  -1   0 15763.3 305.683   6
  11   1   0 15732.2 307.273   6
   1  11   0 16241.4 261.694   3
  -1  11   0 15080.8 246.550   3
  -1  11   0 15162.8 235.540   5
   1 -11  -2 33284.3 350.348   7
  11  -1   2 33063.4 434.111   6
  11   1   2 33560.7 436.725   6
  -1  11  -2 34200.7 372.449   3
   1  11  -2 32457.3 386.868   3
   1  11  -2 32993.1 345.700   5
  -1  11  -2 31794.3 368.301   5
 -11   1   4 21691.6 313.181   5
   1 -11  -4 21430.3 303.582   7
  -1  11  -4 23343.2 333.673   3
   1  11  -4 22936.6 355.771   3
  11  -1   4 22129.0 340.491   6
  11   1   4 23317.8 359.970   6
   1  11  -4 23415.8 323.237   5
  -1  11  -4 21504.9 330.906   5
  -1 -11  -4 23014.3 326.045   7
  -1  11  -6 18862.1 320.061   3
  -1 -11  -6 18842.3 310.266   7
   1  11  -6 19703.9 353.542   3
   1 -11  -6 18387.2 301.819   7
   1  11  -6 18652.2 317.048   5
  -1  11  -6 18669.5 332.372   5
  -1 -11  -8 5376.06 179.788   7
   1 -11  -8 5135.77 173.211   7
   1 -11  -8 5187.44 160.501   8
   1  11  -8 5164.19 176.657   5
  -1  11  -8 4785.27 177.542   5
  -1  11  -8 5177.01 172.057   3
   1  11  -8 5201.90 191.711   3
   1 -11 -10 21249.3 336.808   7
   1  11 -10 22113.6 347.834   5
  -1  11 -10 21713.7 362.809   5
   1  11 -10 21667.2 365.692   3
   1 -11 -10 22757.0 313.065   8
 -11   1  12 8020.69 200.138   5
   1  11 -12 7655.36 176.599   8
  -1  11 -12 7585.71 186.452   8
  -1 -11 -12 8266.92 190.082   7
   1  11 -12 8085.42 181.672   3
 -11  -1  14 11509.6 157.271   5
   1  11 -14 10891.9 143.798   8
  -1  11 -14 10489.3 153.900   8
 -11   1  14 11129.8 163.947   5
  11  -2 -13 6190.99 131.104   4
  11  -2 -11 26785.4 392.747   4
  11   2 -11 27707.3 382.568   4
  11  -2 -11 27837.6 306.504   8
  11  -2  -9 71107.6 726.165   4
  11  -2  -9 68547.2 615.127   6
  11   2  -9 69508.7 715.174   4
  11   2  -9 69397.2 624.309   3
  11  -2  -7 11304.9 304.715   4
  11  -2  -7 11681.4 284.126   6
  11   2  -7 11597.8 277.197   6
  11   2  -7 11873.7 312.737   4
  11   2  -7 11106.8 246.364   3
  -2  11   7 11337.9 208.907   5
  11  -2  -5 103456. 834.418   6
  11  -2  -5 102733. 860.766   4
  11   2  -5 104111. 834.578   6
  -2  11   5 105751. 638.190   5
  11  -2  -3 23677.9 392.110   4
  11   2  -3 24271.9 391.127   6
  -2  11   3 24572.3 306.249   5
  11  -2  -1 93091.6 757.991   6
  11  -2  -1 94982.2 724.679   4
  -2  11   1 94669.8 603.597   5
   2  11   1 93054.6 645.893   3
  11  -2   1 97083.0 750.254   6
  11  -2   1 97869.2 680.294   4
  11   2   1 97481.2 747.684   6
  -2  11  -1 100276. 623.352   3
   2  11  -1 99139.3 676.688   3
  -2  11  -1 100251. 651.691   5
 -11   2   1 97866.7 565.274   5
   2 -11  -3 21865.4 288.404   7
  11  -2   3 21881.8 344.952   6
   2  11  -3 21775.2 333.894   3
   2  11  -3 21588.9 284.431   5
  -2  11  -3 21296.0 327.948   5
 -11   2   3 22572.9 309.083   5
 -11   2   5 113859. 773.763   5
  -2 -11  -5 112369. 738.708   7
   2 -11  -5 108507. 707.355   7
  -2  11  -5 114402. 725.930   3
  11   2   5 117102. 798.635   6
   2  11  -5 111075. 721.972   5
   2  11  -5 110723. 815.770   3
  -2  11  -5 112551. 800.473   5
   2  11  -7 12893.0 304.662   3
  -2 -11  -7 11243.7 248.679   7
   2 -11  -7 12726.9 257.232   7
   2 -11  -7 10988.8 235.601   8
   2  11  -7 10912.0 243.674   5
  -2  11  -7 11126.1 266.690   5
   2 -11  -9 69688.2 615.654   7
   2  11  -9 67733.0 601.211   5
  -2  11  -9 68653.4 666.817   5
   2 -11  -9 68035.1 582.341   8
   2  11  -9 68055.9 694.645   3
 -11   2  11 29041.0 404.217   5
  -2 -11 -11 28810.2 371.202   7
   2 -11 -11 27960.6 362.507   7
   2 -11 -11 28392.2 340.173   8
   2  11 -11 28460.4 407.948   3
 -11   2  13 6996.89 163.236   5
   2  11 -13 6667.63 131.396   8
  -2  11 -13 6648.29 156.833   8
   2  11 -13 6618.65 136.764   3
  11  -3 -12 25284.0 333.053   4
  11   3 -12 24910.7 315.938   3
  11  -3 -10 76148.2 720.497   4
  11  -3 -10 74789.7 573.921   6
  11   3 -10 77285.7 685.630   4
  11   3 -10 76449.3 646.021   3
  11  -3  -8 58062.4 671.935   4
  11  -3  -8 59744.5 612.460   6
  11   3  -8 61736.6 586.440   6
  11   3  -8 61980.2 690.198   4
  11   3  -8 57696.8 582.053   3
  -3  11   8 59401.4 499.065   5
  11  -3  -8 60341.2 504.207   8
  11  -3  -6 78520.4 739.673   6
  11   3  -6 78486.1 718.895   6
  11   3  -6 78948.7 783.233   4
  11   3  -6 78865.3 653.815   3
  -3  11   6 77268.1 575.948   5
  11  -3  -6 78445.1 555.430   8
  11  -3  -4 88307.2 769.153   6
  11  -3  -4 89439.9 782.384   4
  11   3  -4 89928.7 767.965   6
  -3  11   4 87531.5 606.737   5
  11  -3  -2 102967. 785.301   4
  -3  11   2 101939. 651.527   5
  11  -3   0 124476. 869.911   6
  11  -3   0 127792. 804.832   4
   3  11   0 122255. 764.897   3
  -3  11   0 129878. 672.436   3
  -3  11   0 129860. 752.096   5
 -11   3   0 125799. 640.883   5
   3 -11  -2 109277. 760.217   6
  11  -3   2 110126. 786.584   6
   3  11  -2 106561. 715.495   3
 -11   3   2 107474. 655.210   5
   3 -11  -4 93279.5 610.285   7
   3  11  -4 90652.5 719.359   3
  11  -3   4 94313.6 686.110   6
   3  11  -4 93427.3 598.830   5
  -3  11  -4 90664.2 712.019   5
 -11   3   4 94925.9 685.012   5
 -11   3   6 81911.5 696.415   5
   3  11  -6 77497.0 725.425   3
   3 -11  -6 79470.5 617.851   7
  11   3   6 81160.8 660.599   6
   3  11  -6 78554.7 604.640   5
  -3  11  -6 78484.9 705.605   5
   3  11  -8 60038.1 668.340   3
 -11   3   8 56935.7 605.389   5
   3 -11  -8 56959.4 555.013   7
   3  11  -8 59099.1 539.150   5
  -3  11  -8 56483.9 613.917   5
   3 -11  -8 57971.4 556.672   8
 -11   3  10 79728.9 696.587   5
   3 -11 -10 76502.6 616.715   7
   3  11 -10 76087.2 568.340   8
   3  11 -10 79290.3 736.351   3
   3 -11 -10 79506.7 619.614   8
   3  11 -12 27701.6 288.906   8
   3 -11 -12 27615.6 329.856   7
   3  11 -12 27119.6 359.189   3
 -11   3  14 15911.1 186.224   5
  11  -4 -13 653.468 46.9257   4
  11   4 -13 811.646 51.3734   3
  11  -4 -11 5029.63 171.184   4
  11   4 -11 5417.03 165.114   3
  11  -4 -11 5512.77 141.928   8
  11  -4  -9 9629.20 268.360   4
  11  -4  -9 9578.04 232.645   6
  11   4  -9 10259.4 265.955   4
  11   4  -9 9731.30 241.370   3
  -4  11   9 9242.78 198.270   5
  11  -4  -9 9552.68 204.037   8
  11  -4  -7 4591.67 183.154   6
  11   4  -7 4491.19 172.089   6
  11   4  -7 4474.54 194.434   4
  11   4  -7 4224.34 162.909   3
  11  -4  -7 4482.91 142.640   8
  -4  11   7 4235.57 144.556   5
  11  -4  -5 4072.45 175.956   4
  11   4  -5 4074.34 150.249   3
  11  -4  -5 4011.43 174.755   6
  11   4  -5 4274.53 174.675   6
  -4  11   5 3888.98 137.738   5
  11  -4  -3 7218.03 217.789   4
  11   4  -3 7297.19 216.445   6
 -11   4  -3 7958.66 167.586   5
  -4  11   3 7472.55 182.672   5
  11  -4  -1 3491.12 141.843   4
  11  -4  -1 3361.24 151.056   6
 -11   4  -1 3245.00 107.772   5
   4 -11  -1 3143.62 131.044   6
 -11   4   1 3192.86 113.827   5
  11  -4   1 3233.93 142.874   6
   4  11  -1 3413.94 134.339   3
  -4  11  -1 3362.01 129.177   5
   4 -11  -3 7297.07 205.188   6
   4  11  -3 7720.73 208.056   3
  -4  11  -3 7382.64 200.220   5
 -11   4   3 7085.22 185.420   5
   4 -11  -5 4261.12 159.043   4
   4 -11  -5 4146.71 137.691   7
   4 -11  -5 4322.61 165.959   6
   4  11  -5 4380.28 174.642   3
   4  11  -5 4126.44 128.378   5
  -4  11  -5 4476.40 170.419   5
 -11   4   5 4160.87 158.012   5
 -11   4   7 4509.82 175.618   5
   4  11  -7 4807.50 194.993   3
   4 -11  -7 4984.36 161.748   7
   4  11  -7 4540.15 144.774   5
 -11   4   9 10000.8 255.807   5
   4  11  -9 9187.20 193.239   8
   4 -11  -9 10034.9 231.093   7
   4 -11  -9 9639.43 229.528   8
   4  11  -9 10490.9 284.212   3
   4 -11 -11 5562.24 161.205   7
  -4  11 -11 6045.03 185.322   5
   4  11 -11 5718.89 190.428   3
 -11  -4  13 624.153 39.5083   5
  -4  11 -13 948.623 60.1893   8
   4 -11 -13 713.533 51.4903   7
   4  11 -13 694.926 52.7978   3
 -11   4  13 1014.07 66.2677   5
  11  -5 -12 25610.8 319.361   4
  11   5 -12 25854.3 309.501   3
  11  -5 -10 81651.4 697.724   4
  11  -5 -10 79466.4 591.890   6
  11   5 -10 81314.6 624.700   4
  11  -5 -10 81761.0 574.317   8
  11   5 -10 79817.6 659.256   3
  -5  11  10 78862.9 541.800   5
  11  -5  -8 61306.5 624.159   6
  11   5  -8 67049.0 684.951   4
  11   5  -8 62812.7 624.960   3
  11  -5  -8 65155.1 548.385   8
  -5  11   8 62039.9 543.163   5
  11  -5  -6 57521.4 647.041   4
  11  -5  -6 58346.9 647.804   6
  11   5  -6 60138.1 614.618   6
  11   5  -6 56893.8 586.954   3
  11  -5  -6 60086.9 521.095   8
  -5  11   6 58829.6 539.345   5
  11  -5  -4 124508. 907.431   4
  11  -5  -4 118078. 919.262   6
  11   5  -4 121461. 886.028   6
 -11   5  -4 122379. 698.572   5
  -5  11   4 118862. 757.576   5
  11   5  -4 122264. 789.938   3
  11  -5  -2 53236.5 557.155   4
  11  -5  -2 51642.6 584.874   6
   5  11   2 51018.2 507.900   3
  -5  11   2 52699.9 492.369   5
   5 -11   0 122201. 791.141   6
  11  -5   0 121712. 761.873   4
  11  -5   0 120932. 861.945   6
  -5  11   0 122052. 753.599   5
 -11   5   0 119818. 688.661   5
  11  -5   2 55837.5 558.028   6
  -5  11  -2 56398.2 543.673   5
 -11   5   2 57314.6 508.220   5
   5 -11  -4 129050. 829.471   4
   5 -11  -4 124220. 679.210   7
  -5  11  -4 131306. 884.054   5
 -11   5   4 126713. 816.397   5
   5 -11  -6 59626.7 597.870   4
   5  11  -6 60231.1 648.677   3
   5 -11  -6 62004.5 624.040   6
 -11   5   6 62376.2 615.712   5
   5  11  -8 65638.1 703.960   3
   5 -11  -8 61619.4 549.926   7
  -5  11  -8 60095.0 631.240   5
 -11   5   8 65585.0 633.894   5
  -5  11 -10 82889.2 695.927   5
   5  11 -10 82111.0 740.605   3
 -11   5  10 84385.3 687.488   5
  -5  11 -12 28716.6 341.439   8
   5 -11 -12 28545.9 308.490   7
   5  11 -12 27939.3 356.270   3
  11   6 -13 8292.51 135.005   3
  11  -6 -11 12192.3 244.705   4
  11   6 -11 11674.1 229.490   3
  -6  11  11 11688.7 186.741   5
  11  -6  -9 35030.9 429.654   6
  11   6  -9 34446.9 433.386   4
  11   6  -9 34429.4 447.008   3
  11  -6  -9 35912.9 398.931   8
  -6  11   9 35403.0 396.045   5
  11  -6  -7 57477.7 634.906   4
  11  -6  -7 55638.5 612.633   6
  11   6  -7 58354.4 559.024   6
  11   6  -7 57839.6 629.872   4
 -11   6  -7 57536.3 490.228   5
  11   6  -7 56150.2 586.329   3
  -6  11   7 54427.4 521.271   5
  11  -6  -5 52762.0 603.439   4
  11  -6  -5 53620.0 621.270   6
  11   6  -5 53574.5 589.075   6
 -11   6  -5 53046.7 482.867   5
  -6  11   5 52139.1 510.727   5
  11   6  -3 91067.7 664.748   3
  11  -6  -3 91283.7 752.463   4
  11  -6  -3 87041.9 773.477   6
 -11   6  -3 89426.6 623.491   5
   6  11   3 94575.1 694.230   3
  -6  11   3 92097.8 675.310   5
   6 -11   1 92299.4 673.488   6
  11  -6  -1 93620.7 693.215   4
  11  -6  -1 94060.4 781.143   6
 -11   6  -1 90719.1 612.082   5
  -6  11   1 91517.4 666.822   5
   6 -11  -1 92026.8 712.854   6
  11  -6   1 96306.1 756.154   6
   6  11  -1 93693.2 706.341   3
  -6  11  -1 95097.5 696.025   5
 -11   6   1 92131.4 642.904   5
   6 -11  -3 95022.5 681.904   4
   6 -11  -3 95585.4 761.276   6
 -11   6   3 95868.5 694.170   5
   6 -11  -5 50499.1 534.167   4
   6 -11  -5 49577.0 445.730   7
 -11   6   5 51106.3 537.825   5
   6 -11  -7 61116.3 523.842   7
   6 -11  -7 59314.2 601.379   6
  -6  11  -7 61261.9 632.528   5
 -11   6   7 60179.0 608.382   5
  -6  11  -9 33408.4 453.302   5
   6  11  -9 33216.4 486.784   3
 -11   6   9 32940.0 437.053   5
   6 -11 -11 13109.3 222.399   7
  -6  11 -11 13785.2 254.280   5
   6  11 -11 13780.4 278.566   3
 -11   6  11 13881.9 252.239   5
  -6  11 -13 8703.57 140.486   8
   6 -11 -13 8992.76 137.590   7
   6  11 -13 9234.08 157.723   3
  11   7 -12 7975.95 155.161   3
  -7  11  12 7731.53 119.528   5
  11  -7 -10 2206.39 117.717   4
  11  -7 -10 2498.44 102.195   6
  11   7 -10 2294.23 113.559   3
   7  11  10 2678.11 100.452   3
  -7  11  10 2797.15 104.255   5
  11  -7  -8 14819.5 309.467   4
  11  -7  -8 15047.5 298.863   6
  11   7  -8 15790.1 302.187   4
 -11   7  -8 15695.5 253.186   5
  11   7  -8 14855.3 301.644   3
  -7  11   8 14580.7 261.463   5
  11  -7  -6 7028.39 222.472   4
  11  -7  -6 6994.63 226.536   6
  11   7  -6 6851.20 199.800   6
 -11   7  -6 7087.67 184.650   5
  -7  11   6 6325.97 181.025   5
  11   7  -6 6593.02 204.190   3
  11   7  -4 65759.0 609.418   3
  11   7  -4 66262.0 637.610   6
 -11   7  -4 66177.7 556.523   5
   7  11   4 66418.0 584.357   3
  11  -7  -4 66940.9 660.620   4
  -7  11   4 64450.4 573.397   5
   7 -11   2 15954.2 269.738   6
  11  -7  -2 16039.0 297.200   4
  11  -7  -2 15863.7 328.096   6
   7  11   2 16405.5 297.387   3
 -11   7  -2 16529.1 275.364   5
  -7  11   2 15839.9 284.944   5
   7 -11   0 15360.4 289.128   6
  11  -7   0 16107.0 317.718   6
   7  11   0 15020.9 283.924   3
  -7  11   0 15694.5 283.630   5
 -11   7   0 15562.2 266.462   5
   7 -11  -2 16003.0 267.597   4
   7 -11  -2 15687.5 308.988   6
  11  -7   2 16746.2 305.205   6
   7  11  -2 15719.7 304.984   3
 -11   7   2 15824.7 279.294   5
   7 -11  -4 65532.5 586.798   4
   7  11  -4 66642.0 657.157   3
 -11   7   4 67617.8 602.980   5
   7 -11  -6 6122.79 191.436   4
   7 -11  -6 5978.76 156.623   7
   7 -11  -6 6197.78 203.630   6
  -7  11  -6 6465.81 209.122   5
 -11   7   6 6417.06 198.788   5
   7 -11  -8 13461.4 277.539   4
   7 -11  -8 13176.9 240.136   7
  -7  11  -8 14940.4 305.472   5
 -11   7   8 14511.1 286.799   5
   7 -11 -10 2962.68 110.933   7
  -7  11 -10 3240.02 132.820   5
 -11   7  10 2992.23 124.917   5
  -7  11 -12 10058.9 169.753   8
   7  11 -12 10122.2 197.574   3
  11  -8 -11 61892.8 475.246   4
  11   8 -11 60606.7 468.292   3
  11  -8  -9 39697.8 465.789   4
  11  -8  -9 41656.5 443.174   6
 -11   8  -9 42729.5 378.141   5
   8  11   9 41916.0 377.178   3
  11   8  -9 40631.4 469.617   3
  -8  11   9 41897.7 406.897   5
  11  -8  -7 31269.9 434.474   4
  11  -8  -7 31317.1 439.009   6
  11   8  -7 31059.2 423.684   4
 -11   8  -7 32534.0 384.376   5
   8  11   7 31954.8 372.899   3
  -8  11   7 30471.6 381.464   5
  11   8  -7 31001.5 439.119   3
  11   8  -5 32024.6 436.763   3
  11  -8  -5 32132.5 447.753   4
  11   8  -5 32875.5 433.737   6
 -11   8  -5 32841.4 399.673   5
   8  11   5 33115.1 401.118   3
  -8  11   5 32262.2 405.229   5
  11   8  -3 89233.8 701.524   3
  11  -8  -3 88085.9 699.474   4
  11  -8  -3 88949.7 776.073   6
  -8  11   3 90546.7 675.351   5
  11   8  -1 120639. 757.839   3
   8 -11   1 119906. 785.229   6
  11  -8  -1 118917. 872.012   6
 -11   8  -1 121789. 758.991   5
   8 -11  -1 121593. 841.879   6
  11  -8   1 120397. 829.609   6
  11   8   1 118959. 694.070   3
 -11   8   1 119168. 756.593   5
   8 -11  -3 91682.2 762.942   6
   8  11  -3 92082.5 759.618   3
 -11   8   3 91431.5 684.600   5
   8 -11  -5 31093.2 413.770   4
   8  11  -5 30390.9 450.039   3
  -8  11  -5 31927.5 440.327   5
 -11   8   5 31281.5 413.346   5
   8  11  -7 34183.4 487.902   3
   8 -11  -7 32989.3 427.353   4
   8 -11  -7 32547.0 349.991   7
   8 -11  -7 34240.2 451.809   6
  -8  11  -7 35392.8 458.184   5
 -11   8   7 34471.9 434.502   5
   8 -11  -9 42063.4 390.778   7
  -8  11  -9 43361.6 469.248   5
  -8  11 -11 66822.2 459.309   8
  -8  11 -11 66910.5 461.993   5
  11  -9 -10 9284.40 153.967   7
  11   9 -10 9685.73 200.279   3
  -9  11  10 9681.74 173.182   5
  11  -9  -8 7774.15 204.317   4
  11  -9  -8 7671.67 201.329   6
 -11   9  -8 7985.52 180.445   5
   9  11   8 7959.65 163.293   3
  11   9  -8 7648.08 207.199   3
  -9  11   8 7561.17 180.247   5
  11  -9  -6 7850.85 213.516   4
  11  -9  -6 7909.77 228.262   6
  11   9  -6 7987.92 196.715   6
   9  11   6 7883.76 182.914   3
 -11   9  -6 8340.19 204.388   5
  -9  11   6 7903.34 198.244   5
  11   9  -6 7820.35 219.373   3
  11   9  -4 4164.67 159.093   3
  11  -9  -4 4247.21 155.619   4
  11  -9  -4 3884.37 166.758   6
   9  11   4 4234.21 142.844   3
 -11   9  -4 4297.75 150.742   5
  -9  11   4 4118.10 147.752   5
  11  -9  -2 34995.7 399.836   4
  11   9  -2 34705.4 425.739   3
  11  -9  -2 36277.4 483.722   6
   9  11   2 37173.1 426.869   3
   9 -11   2 35475.1 404.590   6
 -11   9  -2 35811.3 425.675   5
   9 -11   0 20602.8 339.668   6
  11   9   0 20875.3 313.896   3
  11  -9   0 20804.1 353.652   6
   9  11   0 21900.5 344.737   3
 -11   9   0 21175.9 325.917   5
   9 -11  -2 36143.3 387.183   4
   9 -11  -2 36453.2 471.582   6
  11  -9   2 37026.2 427.713   6
   9  11  -2 37740.8 475.781   3
  11   9   2 36437.2 390.744   3
  -9  11  -2 37748.6 455.806   5
 -11   9   2 36789.9 429.203   5
   9 -11  -4 3090.25 128.708   4
   9  11  -4 3453.91 154.430   3
   9 -11  -4 3477.05 153.812   6
  -9  11  -4 3367.28 146.567   5
 -11   9   4 3293.12 134.928   5
   9  11  -6 7758.93 230.995   3
   9 -11  -6 7552.48 202.927   4
   9 -11  -6 7484.20 217.056   6
  -9  11  -6 8213.12 221.398   5
 -11   9   6 8129.77 203.985   5
   9 -11  -8 8223.96 206.833   4
   9 -11  -8 8543.62 210.800   6
  -9  11  -8 8876.38 213.951   5
   9  11  -8 8342.50 231.795   3
  -9  11 -10 9865.85 187.139   5
   9  11 -10 10048.4 220.219   3
   9  11 -12 3666.68 91.0771   3
  11  10 -11 24439.7 234.917   3
 -10  11  11 24706.5 206.787   5
  11 -10  -9 29194.3 342.685   4
  11 -10  -9 31035.3 341.044   6
 -11  10  -9 29410.7 291.754   5
  11  10  -9 30711.9 364.360   3
 -10  11   9 29548.2 311.706   5
  11 -10  -7 35034.4 412.156   4
  11 -10  -7 36152.1 436.759   6
  11  10  -7 34941.9 380.160   4
 -11  10  -7 35854.4 390.808   5
 -10  11   7 35989.9 389.943   5
  11  10  -7 35324.6 442.583   3
  11  10  -5 20700.2 346.308   3
  11 -10  -5 19897.7 316.720   4
  11  10  -5 21008.7 321.294   6
  10  11   5 21223.2 284.502   3
 -11  10  -5 21101.7 319.931   5
  11 -10  -3 37677.5 410.371   4
  11  10  -3 37216.0 453.518   3
  11 -10  -3 37410.9 483.551   6
 -11  10  -3 38148.5 436.550   5
  11  10  -1 30645.4 394.457   3
  10 -11   1 30965.5 394.262   6
  11 -10  -1 30199.7 423.633   6
  10  11   1 31263.9 392.967   3
 -11  10  -1 30622.1 386.673   5
 -10  11   1 30659.2 388.270   5
  10 -11  -1 31969.6 426.426   6
  11 -10   1 31897.6 409.267   6
  10  11  -1 31909.4 419.130   3
  11  10   1 31557.6 377.584   3
 -10  11  -1 31861.1 401.488   5
 -11  10   1 32254.2 394.013   5
  10 -11  -3 35872.0 394.016   4
  10  11  -3 36145.1 460.891   3
  10 -11  -3 36011.6 470.692   6
 -10  11  -3 36595.9 439.437   5
 -11  10   3 36578.5 422.997   5
  10  11  -5 21012.4 357.872   3
  10 -11  -5 20417.5 316.253   4
  10  11  -5 21446.7 309.049   6
 -10  11  -5 21659.6 338.339   5
 -11  10   5 20662.1 314.496   5
  10 -11  -7 36753.6 415.815   4
  10 -11  -7 37399.6 443.119   6
 -10  11  -7 38023.7 426.897   5
  10  11  -7 36984.8 466.831   3
  10  11  -9 26370.8 349.627   3
 -11  10   9 25455.7 295.263   5
  10  11 -11 25873.0 260.365   3
 -11  10  11 26356.3 223.125   5
  11 -11   0 101523. 721.289   6
  11  11   0 102025. 694.247   3
 -11  11   0 100929. 692.713   5
  11  11  -2 110051. 750.025   3
  11  11   2 111343. 681.391   3
 -11  11  -2 110527. 737.194   5
 -11  11   2 109993. 715.009   5
  11  11  -4 4683.33 163.264   3
  11 -11  -4 4621.81 140.850   4
  11 -11  -4 4745.05 170.482   6
  11  11  -4 4931.58 158.940   6
 -11  11  -4 4690.35 155.193   5
 -11  11   4 4780.70 151.078   5
  11 -11  -6 54991.6 479.428   4
  11 -11  -6 55407.7 531.392   6
  11  11  -6 55935.4 542.094   3
  11 -11  -8 23213.2 292.145   4
  11 -11  -8 24178.1 312.613   6
 -11  11  -8 24104.5 279.993   5
  11  11  -8 23551.3 319.171   3
 -11  11   8 23135.7 278.074   5
  11  11 -10 39158.4 316.019   3
 -11  11  10 38397.7 279.773   5
  12   0 -12 1088.81 66.2462   4
  12   0 -10 5180.88 188.060   4
  12   0  -8 4322.50 194.934   4
  12   0  -8 4123.83 163.973   6
  12   0  -6 29901.8 464.225   6
  12   0  -6 26233.2 460.197   4
  12   0  -4 23515.3 414.938   6
  12   0  -4 23505.5 418.869   4
  12   0   0 11849.2 278.766   6
   0  12   0 12041.0 234.391   3
   0  12   0 11471.0 201.600   5
  12   0   2 11388.2 271.453   6
   0  12  -2 11688.2 235.770   3
   0  12  -2 11950.1 223.649   5
   0 -12  -4 25003.3 341.635   7
  12   0   4 25173.9 387.604   6
   0  12  -4 24644.2 352.779   5
 -12   0   6 31731.3 391.025   5
   0  12  -6 32076.9 442.558   3
   0 -12  -6 30956.2 397.636   7
   0  12  -6 30457.5 415.413   5
   0 -12  -8 4106.79 153.329   7
   0  12  -8 3986.90 156.087   5
   0  12  -8 4237.64 161.959   3
 -12   0  10 5610.23 171.062   5
   0 -12 -10 5302.29 164.406   7
   0  12 -10 5344.55 161.772   3
 -12   0  12 1235.07 73.0150   5
   0  12 -12 1048.06 66.5424   8
  12   1 -11 4784.88 159.799   4
  12   1 -11 4490.10 124.483   3
  12  -1  -9 3845.48 178.809   4
  12  -1  -9 4152.25 153.561   6
  12   1  -9 4441.87 192.581   4
  12   1  -9 4301.93 150.520   6
  12  -1  -7 2766.47 161.120   4
  12  -1  -7 2750.99 144.136   6
  12   1  -7 2801.36 144.598   6
  12   1  -7 3106.17 170.032   4
  12  -1  -5 2021.23 130.003   6
  12  -1  -5 2052.18 136.176   4
  12   1  -5 2111.09 131.740   6
  12  -1  -3 17201.7 356.523   6
  12   1  -3 17662.8 356.398   6
  12  -1  -3 17775.5 353.315   4
  12  -1  -1 9760.73 257.615   6
  12   1  -1 9516.65 258.520   6
  12  -1  -1 10028.6 252.457   4
  -1  12   1 10282.8 196.186   5
   1  12   1 10382.7 222.561   3
  -1  12   1 9501.39 206.455   3
  12  -1   1 9909.28 251.074   6
  12   1   1 10366.7 263.554   6
  -1  12  -1 10151.9 209.074   3
   1  12  -1 9806.61 218.703   3
  -1  12  -1 9558.53 199.612   5
  -1  12  -3 19131.0 305.238   3
   1  12  -3 19133.6 317.495   3
  12  -1   3 18430.1 333.791   6
  12   1   3 19076.1 347.552   6
   1  12  -3 18342.5 282.476   5
  -1  12  -3 17970.2 298.108   5
 -12   1   5 2086.75 103.049   5
  -1 -12  -5 2062.55 106.941   7
  -1  12  -5 2008.11 108.776   3
   1  12  -5 2255.94 125.531   3
   1 -12  -5 1931.68 100.637   7
  12   1   5 2197.90 117.612   6
   1  12  -5 2071.44 106.259   5
  -1  12  -5 1857.64 108.161   5
  -1  12  -7 2970.64 132.672   3
 -12   1   7 2601.09 126.222   5
   1  12  -7 2974.31 150.295   3
  -1 -12  -7 2877.01 132.042   7
   1 -12  -7 2707.04 124.773   7
   1  12  -7 2846.43 129.738   5
  -1  12  -7 2910.04 138.718   5
  -1 -12  -9 3356.97 141.001   7
   1 -12  -9 4373.25 155.975   7
   1  12  -9 3699.20 145.655   5
  -1  12  -9 4400.69 166.962   5
   1  12  -9 3902.94 162.942   3
   1  12 -11 4994.53 144.924   8
  -1  12 -11 4687.32 151.268   8
   1 -12 -11 4540.43 143.444   7
   1  12 -13 969.864 47.3119   8
  -1  12 -13 867.790 51.6866   8
  12  -2 -12 1745.29 86.9704   4
  12  -2 -10 9849.60 258.846   4
  12   2 -10 10100.2 249.676   4
  12   2 -10 9404.57 198.411   3
  12  -2  -8 5867.21 224.381   4
  12  -2  -8 5633.40 193.116   6
  12   2  -8 6078.26 190.392   6
  12   2  -8 6256.94 230.430   4
  12   2  -8 6220.69 172.587   3
  12  -2  -6 29607.8 461.906   6
  12   2  -6 30542.3 468.528   6
  12   2  -6 30270.3 503.263   4
  -2  12   6 30649.2 331.813   5
  12  -2  -4 4101.39 178.541   6
  12  -2  -4 4073.50 177.888   4
  12   2  -4 4437.21 184.266   6
  -2  12   4 4235.22 127.781   5
  12  -2  -2 12153.3 294.994   6
  12  -2  -2 13433.8 299.869   4
  12   2  -2 12252.9 293.521   6
  -2  12   2 13542.9 231.312   5
  12  -2   0 3750.09 162.215   6
  12  -2   0 3939.89 152.078   4
   2  12   0 3461.77 134.392   3
  -2  12   0 4010.40 129.522   3
  -2  12   0 3793.06 129.979   5
  12  -2   2 13788.4 293.944   6
  -2  12  -2 14081.4 245.809   3
   2  12  -2 13002.6 259.746   3
  12   2   2 13590.4 294.225   6
  -2  12  -2 13583.8 257.585   5
 -12   2   2 13871.9 225.177   5
   2 -12  -4 4502.79 141.713   7
  -2  12  -4 4503.96 147.903   3
   2  12  -4 4258.35 160.079   3
  12  -2   4 4609.55 163.298   6
  12   2   4 4980.10 179.660   6
   2  12  -4 4189.63 136.159   5
  -2  12  -4 4241.21 155.680   5
 -12   2   4 4904.55 153.811   5
 -12   2   6 31352.0 405.458   5
   2  12  -6 31301.8 456.791   3
   2 -12  -6 30889.8 382.381   7
   2  12  -6 30840.1 391.818   5
  -2  12  -6 30319.8 430.511   5
 -12   2   8 6463.30 198.264   5
   2 -12  -8 5958.29 177.518   7
   2  12  -8 5740.37 174.765   5
  -2  12  -8 6146.81 201.327   5
   2  12  -8 6057.40 211.825   3
   2  12 -10 9664.69 203.655   8
   2 -12 -10 9569.19 214.892   7
  -2  12 -10 9612.72 235.429   5
   2  12 -10 9931.98 243.493   3
 -12  -2  12 1428.40 69.7652   5
   2  12 -12 2005.73 75.4495   8
  -2  12 -12 2391.32 100.453   8
   2 -12 -12 2230.52 92.2885   7
   2  12 -12 1976.91 83.8173   3
 -12   2  12 2934.10 108.432   5
  12  -3 -11 9671.20 222.413   4
  12   3 -11 9717.12 199.532   4
  12   3 -11 9430.40 185.112   3
  12  -3  -9 6324.53 216.802   4
  12  -3  -9 6344.45 186.895   6
  12   3  -9 5931.41 205.629   4
  12   3  -9 6106.28 172.309   3
  12  -3  -7 4009.86 172.888   6
  12   3  -7 4251.77 171.634   6
  12   3  -7 4346.12 198.799   4
  12   3  -7 3723.99 137.759   3
  -3  12   7 3755.13 121.876   5
  12  -3  -5 22693.1 414.945   4
  12  -3  -5 22755.9 411.219   6
  12   3  -5 23946.5 415.320   6
  -3  12   5 23359.5 309.166   5
  12  -3  -3 24226.3 406.234   4
  -3  12   3 25025.3 321.646   5
  12  -3  -1 8697.32 246.480   6
  -3  12   1 8776.32 184.846   3
  12  -3   1 9086.68 244.429   6
  12  -3   1 9143.47 215.796   4
  12   3   1 9204.88 244.828   6
   3  12  -1 9280.83 221.441   3
  -3  12  -1 9083.44 211.922   5
 -12   3   1 8708.20 176.958   5
   3  12  -3 24202.7 374.714   3
  12  -3   3 25129.5 384.891   6
  12   3   3 24780.2 395.679   6
  -3  12  -3 25886.9 383.368   5
 -12   3   3 25166.9 332.136   5
   3 -12  -5 23566.2 318.614   7
   3  12  -5 24433.4 402.909   3
  12   3   5 23779.0 374.110   6
   3  12  -5 24167.5 319.200   5
  -3  12  -5 24099.9 386.336   5
 -12   3   5 24299.1 353.308   5
 -12   3   7 4345.04 160.953   5
   3  12  -7 4272.50 180.202   3
   3 -12  -7 3883.78 140.885   7
   3  12  -7 3918.58 138.087   5
  -3  12  -7 4273.16 170.529   5
 -12   3   9 6145.38 189.158   5
   3  12  -9 5799.92 155.841   8
  -3  12  -9 6283.87 201.998   5
   3  12  -9 6249.28 210.140   3
   3  12 -11 9336.22 167.617   8
   3 -12 -11 9582.50 197.751   7
   3  12 -11 9485.18 221.526   3
 -12   3  11 9865.02 212.677   5
  -3  12 -13 180.491 29.4875   8
 -12   3  13 306.343 33.2406   5
  12  -4 -12 867.156 61.7800   4
  12   4 -12 1048.00 54.9434   3
  12  -4 -10 1364.96 104.580   4
  12  -4 -10 1231.06 76.1726   6
  12   4 -10 1451.24 92.9132   4
  12   4 -10 1295.69 80.8888   3
  12  -4  -8 6497.32 206.330   6
  12   4  -8 6610.31 186.596   6
  12   4  -8 6976.08 230.200   4
  12   4  -8 6340.92 182.175   3
  -4  12   8 6596.43 160.500   5
  12  -4  -6 10082.2 277.551   4
  12  -4  -6 10949.5 283.269   6
  12   4  -6 10506.3 268.430   6
  12   4  -6 10362.3 286.376   4
  12   4  -6 10193.1 227.178   3
  -4  12   6 10169.9 212.314   5
  12  -4  -4 4212.19 179.675   4
  12  -4  -4 4185.98 183.085   6
  12   4  -4 3996.99 172.433   6
  -4  12   4 3820.10 135.239   5
  12  -4  -2 3333.33 150.983   4
  12  -4  -2 3170.23 156.668   6
  12   4  -2 2871.93 146.161   6
  -4  12   2 3050.90 119.975   5
  -4  12   2 3391.45 113.777   3
  12  -4   0 3584.99 140.148   4
  12  -4   0 3444.75 154.668   6
   4  12   0 3346.22 137.002   3
 -12   4   0 3458.46 113.511   5
  12  -4   2 3332.58 145.790   6
   4  12  -2 3297.08 140.424   3
  -4  12  -2 3229.08 135.547   5
 -12   4   2 3065.75 114.909   5
   4 -12  -4 4167.78 128.508   7
   4  12  -4 4096.60 167.772   3
  -4  12  -4 4431.13 166.377   5
   4  12  -6 10608.6 272.979   3
  12   4   6 10581.1 241.885   6
   4  12  -6 10759.0 204.468   5
  -4  12  -6 10887.3 269.775   5
 -12   4   6 10446.4 244.471   5
   4  12  -8 6734.78 226.558   3
   4 -12  -8 6524.22 178.414   7
  -4  12  -8 6686.33 215.422   5
 -12   4   8 7080.74 205.347   5
   4  12 -10 1582.17 110.228   3
 -12   4  10 1363.77 96.1269   5
   4 -12 -12 973.657 59.8338   7
   4  12 -12 993.509 66.4537   3
  12  -5 -11 5525.38 162.411   4
  12   5 -11 5118.50 134.201   3
  12   5  -9 3749.05 149.963   4
  12   5  -9 3628.16 136.914   3
  -5  12   9 3797.10 119.071   5
  12  -5  -7 4468.83 186.523   4
  12  -5  -7 4995.80 190.517   6
  12   5  -7 4562.15 165.155   6
  12   5  -7 4725.99 193.987   4
  12   5  -7 4928.26 165.078   3
  -5  12   7 4377.81 139.221   5
  12  -5  -5 11201.0 282.750   4
  12  -5  -5 11720.3 294.258   6
  12   5  -5 12523.9 293.320   6
  -5  12   5 11628.4 233.092   5
  12   5  -5 12983.7 255.218   3
  12  -5  -3 45332.5 547.790   4
 -12   5  -3 43859.0 406.665   5
   5  12   3 43767.4 485.949   3
  -5  12   3 44512.7 454.433   5
  12  -5  -1 3346.64 141.832   4
  12  -5  -1 3436.43 158.559   6
 -12   5  -1 3500.48 117.075   5
  -5  12   1 3454.91 132.906   5
   5 -12  -1 3307.00 141.855   6
  -5  12  -1 3480.91 138.710   5
   5 -12  -3 44472.7 512.559   6
  -5  12  -3 44613.8 505.641   5
 -12   5   3 44433.7 462.229   5
   5 -12  -5 11920.3 216.069   7
   5  12  -5 12131.5 290.490   3
   5  12  -7 4766.96 193.254   3
   5 -12  -7 4623.46 145.081   7
 -12   5   7 4746.85 169.904   5
   5 -12  -9 4422.03 140.127   7
   5  12  -9 3901.87 168.020   3
 -12   5   9 4033.73 155.746   5
   5 -12 -11 5903.22 141.469   7
  -5  12 -11 5952.16 162.401   5
   5  12 -11 6087.58 173.886   3
 -12   5  11 5774.29 155.448   5
  -5  12 -13 1114.71 48.2946   8
 -12   5  13 1165.81 47.9721   5
  12  -6 -12 4464.04 112.279   4
  12  -6 -10 616.221 54.3480   6
  12   6 -10 555.082 55.7559   3
  -6  12  10 661.211 48.6863   5
  12  -6  -8 2572.47 138.006   4
  12  -6  -8 2851.95 136.275   6
  12   6  -8 2874.37 138.198   4
  12   6  -8 3036.54 129.591   3
  -6  12   8 2497.84 107.025   5
  12  -6  -6 7196.38 228.357   4
  12  -6  -6 7250.88 229.754   6
  12   6  -6 7354.43 213.308   6
  12   6  -6 7247.50 198.541   3
  -6  12   6 7096.72 184.049   5
  12  -6  -4 8008.86 234.403   4
  12   6  -4 8354.17 240.113   6
 -12   6  -4 8566.34 190.198   5
   6  12   4 8047.06 210.520   3
  -6  12   4 8746.92 207.201   5
  12  -6  -2 4286.48 160.150   4
  12  -6  -2 4248.78 180.683   6
   6  12   2 4247.62 157.432   3
 -12   6  -2 3946.64 128.037   5
  -6  12   2 4200.30 146.112   5
 -12   6   0 103.899 33.0462   5
   6 -12   0 251.333 47.9241   6
  12  -6   0 115.443 53.2210   6
   6  12   0 164.047 50.8915   3
   6 -12  -2 4028.40 156.955   6
  12  -6   2 4024.51 157.496   6
 -12   6   2 3912.51 137.233   5
   6 -12  -4 8148.73 228.447   6
  -6  12  -4 8281.06 228.498   5
 -12   6   4 8574.88 211.984   5
   6 -12  -6 7500.06 170.339   7
 -12   6   6 7435.97 206.404   5
   6 -12  -8 2723.77 109.076   7
  -6  12  -8 2916.19 139.374   5
 -12   6   8 2697.50 127.697   5
   6  12  -8 2770.05 149.217   3
   6 -12 -10 375.000 45.4500   7
  -6  12 -10 467.277 60.0175   5
 -12   6  10 350.220 55.1091   5
  -6  12 -12 4153.32 109.570   8
   6 -12 -12 4141.29 94.1632   7
 -12   6  12 4076.93 104.451   5
  12  -7 -11 488.190 51.8391   4
  12   7 -11 501.949 43.5633   3
   7  12  11 535.311 36.7767   3
  -7  12  11 558.579 35.8383   5
  12  -7  -9 1388.59 99.3257   4
  12  -7  -9 1593.91 94.1228   6
  12   7  -9 1517.79 84.3304   4
  12   7  -9 1746.10 94.5219   3
   7  12   9 1815.38 87.3184   3
  -7  12   9 1498.63 78.2033   5
  12  -7  -7 8172.85 230.413   4
  12  -7  -7 7776.20 224.122   6
  12   7  -7 7705.91 192.014   6
  12   7  -7 7830.33 226.405   4
   7  12   7 7283.99 185.452   3
  12   7  -7 7750.70 205.005   3
  -7  12   7 7521.17 183.510   5
  12  -7  -5 4637.34 175.468   4
  12  -7  -5 4433.82 182.938   6
  12   7  -5 4280.60 165.896   6
 -12   7  -5 4723.36 142.395   5
   7  12   5 4760.33 159.130   3
  -7  12   5 4565.50 150.221   5
  12   7  -5 4471.53 156.128   3
  12   7  -3 4065.94 143.034   3
  12  -7  -3 3375.87 146.160   4
  12  -7  -3 3035.45 154.104   6
  12   7  -3 3144.59 151.202   6
   7  12   3 3026.16 134.370   3
 -12   7  -3 3081.30 118.276   5
  -7  12   3 4037.54 144.575   5
   7 -12   1 2870.07 123.957   6
  12  -7  -1 2485.91 114.006   4
  12  -7  -1 2571.27 139.320   6
   7  12   1 2687.79 128.836   3
  -7  12   1 2637.40 120.923   5
   7 -12  -1 2702.62 130.550   6
  12  -7   1 2857.34 137.049   6
  -7  12  -1 2685.60 125.417   5
 -12   7   1 2556.74 111.698   5
   7 -12  -3 3217.72 145.884   6
   7  12  -3 3030.56 147.444   3
  12  -7   3 3095.48 126.390   6
 -12   7   3 2967.03 125.441   5
 -12   7   5 4404.13 157.068   5
  -7  12  -7 8995.25 233.450   5
 -12   7   7 8422.38 213.839   5
   7 -12  -9 1223.26 70.2542   7
  -7  12  -9 1612.22 99.3124   5
   7  12  -9 1795.67 114.801   3
 -12   7   9 1261.26 87.3658   5
  -7  12 -11 615.957 53.0038   8
  -7  12 -11 653.748 52.0364   5
   7  12 -11 669.009 62.2424   3
 -12   7  11 639.305 53.3078   5
  12  -8 -10 2461.95 85.4597   6
   8  12  10 2376.36 74.1004   3
  12   8 -10 2354.19 93.0556   3
  -8  12  10 2268.42 79.7808   5
  12  -8  -8 9553.56 225.833   4
  12  -8  -8 9619.42 224.076   6
  12   8  -8 9455.51 207.473   4
   8  12   8 10340.6 194.448   3
  12   8  -8 9411.99 214.629   3
  -8  12   8 9589.34 194.088   5
  12  -8  -6 2373.16 123.907   4
  12  -8  -6 2438.84 133.051   6
  12   8  -6 2263.78 112.094   6
 -12   8  -6 2557.13 106.169   5
   8  12   6 2461.91 110.074   3
  -8  12   6 2361.55 108.100   5
  12   8  -6 2285.46 115.633   3
  12  -8  -4 7972.64 213.777   4
  12   8  -4 8937.92 235.538   6
   8  12   4 8656.63 212.422   3
 -12   8  -4 8328.29 197.820   5
  -8  12   4 7859.52 198.758   5
  12   8  -4 8256.31 208.451   3
  12   8  -2 11682.0 234.244   3
  12  -8  -2 11683.0 240.281   4
  12  -8  -2 11920.2 280.866   6
   8  12   2 12366.2 254.415   3
 -12   8  -2 11720.7 231.854   5
  -8  12   2 11660.1 242.646   5
   8 -12   0 331.788 57.4016   6
  12  -8   0 335.781 61.2417   6
  12  -8   2 12209.5 253.181   6
   8  12  -2 11957.4 270.640   3
 -12   8   2 11867.5 239.216   5
   8  12  -4 8121.74 234.141   3
   8 -12  -4 8223.09 228.029   6
  -8  12  -4 8401.88 224.419   5
 -12   8   4 8239.55 204.830   5
   8  12  -6 2678.14 142.008   3
   8 -12  -6 2373.24 126.474   6
  -8  12  -6 2568.50 128.681   5
 -12   8   6 2562.25 117.225   5
  -8  12  -8 10465.9 234.265   5
 -12   8   8 9904.95 213.659   5
   8 -12 -10 2443.28 75.8939   7
  -8  12 -10 2513.92 100.934   5
 -12   8  10 2521.01 95.2431   5
  12  -9  -9 11033.4 211.988   4
  12  -9  -9 11861.2 205.149   6
  12   9  -9 12368.4 214.116   3
  -9  12   9 11252.1 184.064   5
  12  -9  -7 16371.5 285.258   4
  12  -9  -7 17282.7 303.382   6
  12   9  -7 16939.5 281.252   4
   9  12   7 16665.6 238.782   3
 -12   9  -7 16808.7 246.055   5
  12   9  -7 16930.3 285.703   3
  -9  12   7 16469.7 256.008   5
  12  -9  -5 445.346 60.6187   4
   9  12   5 375.626 51.0867   3
 -12   9  -5 460.104 52.8481   5
  -9  12   5 346.705 54.9106   5
  12   9  -5 536.118 62.8185   3
  12   9  -3 1484.80 90.6972   3
  12  -9  -3 1574.12 90.8991   4
  12  -9  -3 1622.41 111.424   6
   9  12   3 1593.13 92.4096   3
 -12   9  -3 1428.93 86.1217   5
  -9  12   3 1372.31 88.9646   5
  12   9  -1 4726.02 147.753   3
   9 -12   1 4769.20 153.945   6
  12  -9  -1 4835.59 177.599   6
 -12   9  -1 4977.80 154.421   5
   9 -12  -1 4950.82 169.418   6
  12  -9   1 4906.05 166.122   6
   9  12  -1 5242.47 175.776   3
 -12   9   1 4982.65 155.429   5
   9  12  -3 1559.36 107.528   3
   9 -12  -3 1467.07 104.279   6
  -9  12  -3 1710.07 103.977   5
 -12   9   3 1452.19 89.8356   5
   9 -12  -5 382.922 53.0094   4
   9  12  -5 551.641 75.1827   3
  -9  12  -5 633.415 69.8836   5
 -12   9   5 542.406 63.0920   5
  -9  12  -7 17675.1 297.121   5
 -12   9   7 17077.6 269.540   5
   9  12  -9 11216.7 233.294   3
 -12   9   9 12326.8 205.658   5
   9  12 -11 1484.28 64.0447   3
 -10  12  10 1518.41 53.5809   5
  12 -10  -8 1157.11 71.9351   4
  12 -10  -8 1266.80 76.7976   6
 -12  10  -8 1179.33 58.9337   5
  12  10  -8 1333.59 77.4179   3
 -10  12   8 1167.87 66.4491   5
  12 -10  -6 504.626 57.8158   4
  12 -10  -6 605.593 70.5361   6
  10  12   6 518.854 47.0145   3
  12  10  -6 591.712 60.7826   4
 -12  10  -6 597.730 55.1760   5
 -10  12   6 530.696 56.2038   5
  12  10  -6 629.357 64.2442   3
  12 -10  -4 20378.2 294.099   4
  12 -10  -4 21338.6 353.019   6
  10  12   4 21493.2 293.054   3
  12  10  -4 20585.4 327.163   6
 -12  10  -4 21212.7 305.206   5
  12  10  -4 20861.0 319.475   3
  12  10  -2 15268.3 268.803   3
  12 -10  -2 14974.9 298.984   6
  10  12   2 15925.5 271.541   3
 -12  10  -2 16032.5 271.942   5
  12  10   0 8128.03 185.747   3
  12 -10   0 7849.66 206.813   6
  10  12   0 7946.98 202.763   3
 -10  12   0 7933.05 196.533   5
 -12  10   0 7641.97 189.191   5
  10  12  -2 14917.5 289.322   3
  10 -12  -2 14793.6 286.031   6
  12 -10   2 15597.2 257.839   6
 -12  10   2 15048.2 260.241   5
  10  12  -4 20908.7 348.502   3
  10 -12  -4 21264.2 340.963   6
 -10  12  -4 21113.2 328.143   5
 -12  10   4 20909.0 302.960   5
 -10  12  -6 683.559 65.8920   5
 -12  10   6 537.456 57.2749   5
  10  12  -6 547.762 70.4727   3
 -10  12  -8 1307.29 74.5606   5
  10  12  -8 1485.16 88.8903   3
  10  12 -10 1852.05 74.4013   3
 -11  12   9 2077.93 66.5712   5
  12 -11  -7 5011.45 130.891   4
  12 -11  -7 5197.75 147.280   6
 -12  11  -7 5070.93 125.049   5
 -11  12   7 4893.47 126.249   5
  12  11  -7 5179.55 141.553   3
  12 -11  -5 633.805 54.3816   4
  12  11  -5 164.604 35.7563   6
 -12  11  -5 196.910 41.3105   5
  12  11  -5 532.551 57.6729   3
  12  11  -3 2698.77 115.309   3
  12 -11  -3 2617.31 124.111   6
  11  12   3 2661.19 102.212   3
  12  11  -3 2730.47 123.050   6
 -12  11  -3 2604.37 112.750   5
  12  11  -1 16828.6 270.440   3
  11 -12   1 17253.4 264.373   6
  12 -11  -1 16587.0 290.948   6
  11  12   1 16606.3 269.835   3
 -12  11  -1 16752.0 274.951   5
 -11  12   1 17172.9 277.099   5
  11  12  -1 16682.9 283.659   3
  12  11   1 16810.9 253.783   3
  11 -12  -1 16695.2 286.807   6
  12 -11   1 17031.8 269.149   6
 -11  12  -1 16616.7 281.257   5
 -12  11   1 17076.9 271.187   5
  11  12  -3 2517.61 117.008   3
 -11  12  -3 2697.34 117.871   5
 -12  11   3 2588.80 109.484   5
 -11  12  -5 309.795 49.2135   5
 -12  11   5 310.127 46.4128   5
  11  12  -5 163.367 47.7272   3
 -11  12  -7 5371.40 137.660   5
  11  12  -7 4721.17 143.253   3
  11  12  -9 2621.50 85.0570   3
 -12  11   9 2218.58 69.5346   5
  12  12   0 1621.37 81.1939   3
  12 -12   0 1612.54 84.2829   6
  12  12  -2 4339.94 134.857   3
  12 -12  -2 4393.02 143.560   6
 -12  12  -2 4417.13 138.419   5
 -12  12   2 4413.29 134.542   5
  12 -12  -4 982.695 76.3987   6
  12  12  -4 1020.49 68.1816   6
 -12  12  -4 1062.41 68.6103   5
 -12  12   4 1056.38 67.3145   5
  12  12  -4 1126.83 73.4096   3
 -12  12  -6 3105.59 100.041   5
  12  12  -6 3099.96 106.480   3
 -12  12   8 913.356 45.4556   5
  13   0 -11 12881.1 239.168   4
  13   0  -9 26428.5 426.188   4
  13   0  -9 26834.2 355.679   6
  13   0  -7 70514.8 753.832   4
  13   0  -7 71591.2 688.683   6
  13   0  -5 32048.0 495.142   6
  13   0  -3 162072. 1100.65   6
  13   0  -3 164572. 1105.53   4
  13   0  -1 308437. 1464.75   6
   0  13   1 287790. 1179.58   3
  13   0   1 311517. 1475.03   6
   0  13  -1 313451. 1112.11   5
  13   0   3 160101. 1014.67   6
   0  13  -3 158684. 863.526   5
   0  13  -5 28227.3 404.192   3
  13   0   5 29369.8 409.020   6
 -13   0   7 70200.8 545.956   5
   0  13  -7 70711.5 645.389   3
   0 -13  -7 69112.2 585.682   7
 -13   0   9 31764.0 363.138   5
   0  13  -9 30887.9 391.628   5
   0  13  -9 31377.1 386.725   3
   0  13 -11 12356.8 208.284   8
 -13   0  11 12542.3 198.954   5
  13  -1 -12 6361.68 133.951   4
  13  -1 -10 7280.27 210.678   4
  13   1 -10 7291.55 205.503   4
  13  -1  -8 9840.55 277.105   4
  13  -1  -8 9616.53 244.252   6
  13   1  -8 9652.02 278.621   4
  13   1  -8 9720.29 241.157   6
  13  -1  -6 10623.1 279.272   6
  13   1  -6 10649.1 281.174   6
  13   1  -6 10032.2 293.497   4
  13  -1  -4 5277.38 205.808   4
  13   1  -4 4856.17 199.534   6
  13   1  -4 5098.88 206.567   4
  13  -1  -2 29886.2 459.485   4
  -1  13   2 31212.7 338.188   5
   1  13   2 31669.6 401.459   3
  -1  13   2 29103.8 368.844   3
  13  -1   0 2812.31 151.091   6
  13   1   0 3046.72 157.626   6
  13  -1   0 2892.59 139.615   4
  -1  13   0 2795.14 120.353   3
  -1  13   0 2587.81 106.337   5
  13  -1   2 32997.0 469.643   6
  -1  13  -2 32181.7 391.772   3
   1  13  -2 35047.0 428.367   3
  13   1   2 34174.6 489.098   6
  13  -1   2 32702.9 415.746   4
   1  13  -2 34399.7 369.705   5
  -1  13  -2 32428.2 387.625   5
  -1  13  -4 4444.85 155.331   3
   1  13  -4 4744.23 172.606   3
  13  -1   4 4135.18 161.870   6
  13   1   4 4444.42 171.725   6
   1  13  -4 4309.40 142.882   5
  -1  13  -4 4118.92 151.767   5
  -1  13  -6 11007.5 244.204   3
   1  13  -6 11412.5 269.315   3
   1 -13  -6 10547.0 226.050   7
   1  13  -6 10884.6 234.480   5
  -1  13  -6 10419.0 245.549   5
 -13   1   6 10918.1 222.724   5
 -13  -1   8 8644.57 187.907   5
   1 -13  -8 8919.97 209.317   7
   1  13  -8 8765.36 208.857   5
  -1  13  -8 8914.94 224.996   5
   1  13  -8 9143.12 236.506   3
 -13   1   8 9611.04 211.642   5
   1  13 -10 7843.74 176.851   8
   1 -13 -10 7750.18 182.451   7
  -1  13 -10 7549.30 189.774   5
   1  13 -10 8031.09 190.594   3
 -13   1  10 7669.24 175.973   5
  -1  13 -12 6512.86 135.202   8
 -13   1  12 6591.33 123.478   5
  13  -2 -11 3292.00 125.301   4
  13   2 -11 3347.76 114.683   4
  13  -2  -9 29554.3 446.738   4
  13  -2  -9 29626.2 377.009   6
  13   2  -9 29860.2 445.699   4
  13  -2  -7 64732.2 663.932   6
  13   2  -7 65538.6 654.322   6
  13   2  -7 64877.6 722.736   4
  13  -2  -5 13685.6 326.517   4
  13  -2  -5 13379.5 320.402   6
  13   2  -5 14129.9 330.531   6
  13  -2  -3 72237.6 727.010   4
  13   2  -3 72261.2 741.864   6
  13  -2  -1 101947. 855.350   6
  13  -2  -1 101835. 818.629   4
   2  13   1 100041. 713.741   3
  -2  13   1 102871. 671.570   3
  -2  13   1 101847. 655.712   5
  13  -2   1 105356. 848.113   6
  13  -2   1 103600. 761.286   4
  13   2   1 101998. 847.118   6
  -2  13  -1 106594. 670.379   3
   2  13  -1 101902. 725.582   3
  -2  13  -1 106603. 707.486   5
   2  13  -3 77807.0 663.776   3
  13  -2   3 78516.9 706.488   6
  13   2   3 77772.9 720.168   6
   2 -13  -5 13398.3 243.608   7
   2  13  -5 13211.8 293.025   3
  13   2   5 13706.9 288.391   6
   2  13  -5 13693.8 246.154   5
  -2  13  -5 13687.1 282.152   5
 -13   2   5 13886.2 246.327   5
   2  13  -7 63578.6 642.494   3
   2 -13  -7 64192.4 545.283   7
   2  13  -7 66579.0 552.171   5
  -2  13  -7 66128.7 626.311   5
 -13   2   7 67993.9 573.314   5
   2  13  -9 27913.2 332.941   8
   2 -13  -9 29080.2 357.624   7
  -2  13  -9 29130.0 396.897   5
   2  13  -9 29333.9 410.127   3
   2  13 -11 3671.22 98.4091   8
  -2  13 -11 3853.42 125.401   8
   2  13 -11 3844.75 116.373   3
  13  -3 -12 15528.1 205.965   4
  13  -3 -10 30289.1 406.769   4
  13   3 -10 30645.9 382.714   4
  13  -3  -8 70899.8 647.881   6
  13   3  -8 70338.1 594.509   6
  13  -3  -6 80922.3 776.609   4
  13  -3  -6 81910.0 776.967   6
  13   3  -6 81609.2 744.716   6
  -3  13   6 81881.5 536.716   5
  13  -3  -4 34472.3 503.613   4
  13   3  -4 33766.8 502.310   6
  -3  13   4 34762.5 369.423   5
  13  -3  -2 106476. 884.726   6
  13  -3  -2 110655. 857.833   4
  13   3  -2 109141. 888.404   6
   3  13   2 111885. 761.922   3
  -3  13   2 107078. 657.050   3
  -3  13   2 110376. 685.217   5
  13  -3   0 99802.9 835.246   6
  13  -3   0 100249. 756.875   4
  13   3   0 98867.1 845.791   6
  -3  13   0 102378. 631.193   3
   3  13   0 99468.2 716.221   3
  -3  13   0 102194. 692.001   5
  13  -3   2 115401. 858.047   6
   3  13  -2 113884. 796.597   3
  13   3   2 114198. 870.741   6
  -3  13  -2 116512. 780.669   5
   3  13  -4 37792.5 488.898   3
  13  -3   4 38437.2 453.984   6
  13   3   4 39065.0 501.753   6
 -13   3   4 38566.7 408.771   5
   3  13  -6 81525.6 725.755   3
   3 -13  -6 78920.3 586.118   7
   3  13  -6 79600.7 571.996   5
  -3  13  -6 81203.8 704.662   5
 -13   3   6 81274.9 620.161   5
  -3  13  -8 72093.5 651.152   5
   3  13  -8 70881.6 674.683   3
   3 -13 -10 30245.6 337.336   7
   3  13 -10 29972.2 386.594   3
 -13   3  10 30823.3 355.791   5
  -3  13 -12 14951.1 203.309   8
 -13   3  12 15591.2 188.482   5
  13  -4 -11 641.760 58.4887   4
  13  -4  -9 428.948 69.4262   4
  13  -4  -9 601.323 62.4696   6
  13   4  -9 531.847 69.1026   4
  13  -4  -7 2899.83 153.162   4
  13  -4  -7 2771.06 141.967   6
  13   4  -7 2708.28 131.359   6
  13   4  -7 2571.21 149.912   4
  -4  13   7 3123.19 107.157   5
  13  -4  -5 2031.46 130.385   4
  13  -4  -5 2006.46 133.663   6
  13   4  -5 1937.37 122.741   6
  -4  13   5 2085.99 95.3379   5
  13  -4  -3 1414.85 106.980   4
  13   4  -3 1180.37 106.267   6
  -4  13   3 1400.47 84.1348   5
  -4  13   3 1492.83 79.5620   3
  13  -4  -1 1017.83 85.8227   4
  13  -4  -1 980.897 97.3813   6
   4  13   1 1039.86 88.8667   3
  -4  13   1 1141.56 80.1426   5
  13  -4   1 994.902 92.4993   6
   4  13  -1 1094.17 92.5000   3
  13   4   1 1097.51 100.722   6
  -4  13  -1 1214.95 87.6784   5
 -13   4   1 1268.07 72.1914   5
   4  13  -3 1312.24 102.113   3
  13  -4   3 2158.40 116.854   6
  13   4   3 1447.99 106.926   6
  -4  13  -3 2112.12 117.306   5
 -13   4   3 1228.85 76.7716   5
   4 -13  -5 2086.43 92.5276   7
   4  13  -5 2528.34 137.870   3
  13   4   5 2512.26 127.103   6
  -4  13  -5 2020.35 118.473   5
 -13   4   5 2005.24 103.562   5
   4 -13  -7 2692.87 110.904   7
  -4  13  -7 2990.39 144.061   5
 -13   4   7 2929.79 126.315   5
  -4  13  -9 319.332 57.9767   5
   4  13  -9 288.968 61.6620   3
 -13   4   9 278.763 51.6088   5
   4 -13 -11 548.735 45.9447   7
   4  13 -11 613.538 55.8912   3
 -13   4  11 504.964 48.2717   5
  13  -5 -12 17512.9 194.228   4
  13  -5 -10 22784.7 325.672   4
  13  -5 -10 22671.9 262.114   6
  13   5 -10 22180.2 279.350   4
   5  13  10 22790.8 281.138   3
  13  -5  -8 70268.4 616.787   6
  13   5  -8 71068.8 659.480   4
  -5  13   8 70056.2 475.509   5
  13  -5  -6 48318.8 575.460   4
  13  -5  -6 49184.1 581.378   6
  13   5  -6 49683.0 553.285   6
  13   5  -6 48930.6 598.246   4
   5  13   6 50438.7 506.979   3
  -5  13   6 49005.1 440.385   5
  13  -5  -4 48330.9 568.165   4
  13   5  -4 48858.4 583.836   6
   5  13   4 48793.5 510.826   3
  -5  13   4 48243.2 452.435   5
  13  -5  -2 95063.6 753.905   4
  13  -5  -2 93051.5 819.782   6
  -5  13   2 94539.3 659.681   5
  13  -5   0 107446. 851.957   6
 -13   5   0 105435. 619.784   5
   5  13  -2 94490.7 754.960   3
 -13   5   2 95218.9 619.494   5
   5  13  -4 52472.1 580.264   3
  13   5   4 50845.9 559.510   6
 -13   5   4 50836.1 477.303   5
   5 -13  -6 48826.9 425.654   7
  13   5   6 48870.7 514.824   6
  -5  13  -6 48936.9 548.248   5
 -13   5   6 49047.3 489.935   5
   5 -13  -8 73638.4 524.134   7
 -13   5   8 75597.1 592.869   5
   5  13  -8 73874.4 683.746   3
   5 -13 -10 23054.3 267.336   7
   5  13 -10 23583.6 335.603   3
  -5  13 -12 16943.1 195.071   8
 -13   5  12 17600.2 178.913   5
  13  -6 -11 1875.44 79.9183   4
   6  13  11 1919.50 64.8036   3
  13  -6  -9 17184.3 269.538   6
  13   6  -9 16960.3 270.198   4
  13   6  -9 17006.6 236.857   3
  -6  13   9 16684.8 214.742   5
  13  -6  -7 28930.0 421.168   4
  13  -6  -7 29267.8 420.502   6
  13   6  -7 30339.5 382.744   6
  13   6  -7 31039.0 443.329   4
   6  13   7 31716.1 382.779   3
  -6  13   7 29917.3 334.912   5
  13  -6  -5 48633.6 559.836   4
  13  -6  -5 49554.9 582.828   6
  13   6  -5 48271.8 548.780   6
  -6  13   5 48428.0 453.044   5
  13  -6  -3 51354.2 556.446   4
  13  -6  -3 52017.2 606.781   6
  13   6  -3 51720.6 598.502   6
 -13   6  -3 51584.3 433.284   5
  -6  13   3 49840.7 478.107   5
  13  -6  -1 62384.9 565.721   4
  13  -6  -1 63051.3 661.044   6
  13   6  -1 59841.4 639.799   6
 -13   6  -1 61070.9 483.746   5
  -6  13   1 61253.7 545.782   5
  13  -6   1 61748.2 627.369   6
 -13   6   1 60974.1 499.173   5
  13  -6   3 55055.3 533.776   6
  -6  13  -3 54670.8 559.243   5
  13   6   5 49490.4 527.921   6
  -6  13  -5 49929.3 548.224   5
 -13   6   5 48982.6 474.955   5
   6 -13  -7 27753.3 305.323   7
 -13   6   7 27597.0 361.873   5
   6 -13  -9 17772.3 234.170   7
   6  13  -9 18387.6 317.239   3
 -13   6   9 18521.0 273.503   5
  -6  13 -11 2141.47 82.0387   8
  -6  13 -11 2294.15 84.2881   5
   6  13 -11 2157.37 86.9139   3
 -13   6  11 2299.14 77.3293   5
  13  -7 -10 6251.66 122.475   6
   7  13  10 6588.22 124.823   3
  -7  13  10 6417.00 108.107   5
  13  -7  -8 4239.42 150.559   4
  13  -7  -8 4319.97 148.901   6
  13   7  -8 4386.65 146.493   4
   7  13   8 4490.05 133.796   3
  13   7  -8 4165.96 125.394   3
  -7  13   8 4481.36 123.164   5
  13  -7  -6 19666.5 337.024   4
  13  -7  -6 20196.7 354.998   6
  13   7  -6 20487.0 327.741   6
  13   7  -6 20904.6 364.795   4
   7  13   6 21672.9 314.802   3
  13   7  -6 19900.1 292.363   3
  -7  13   6 19341.1 279.539   5
  13  -7  -4 19811.7 339.980   4
  13   7  -4 19347.2 349.923   6
   7  13   4 19929.8 318.390   3
 -13   7  -4 19548.3 270.512   5
  -7  13   4 18993.3 290.372   5
  13  -7  -2 71874.9 601.456   4
  13  -7  -2 73580.4 701.189   6
  13   7  -2 74571.1 694.188   6
   7  13   2 73203.9 625.126   3
 -13   7  -2 72077.8 538.219   5
  -7  13   2 73509.0 588.961   5
  13  -7   0 55293.2 588.114   6
   7  13   0 53747.0 550.851   3
  -7  13   0 55669.8 527.736   5
 -13   7   0 52897.6 464.874   5
  13  -7   2 71203.7 623.423   6
 -13   7   2 70805.3 548.886   5
 -13   7   4 19155.7 293.417   5
  13   7   6 20097.8 320.040   6
 -13   7   6 18514.5 288.340   5
  -7  13  -8 3745.46 142.049   5
 -13   7   8 3996.90 130.265   5
   7  13  -8 3621.74 151.244   3
  -7  13 -10 7515.72 162.543   5
   7  13 -10 7358.99 176.161   3
 -13   7  10 7212.10 144.069   5
  13  -8  -9 45921.8 415.670   4
  13  -8  -9 46223.0 391.511   6
   8  13   9 47637.6 337.942   3
  13   8  -9 44169.2 339.282   3
  -8  13   9 44379.9 326.338   5
  13  -8  -7 44205.0 459.464   4
  13  -8  -7 45367.4 484.857   6
  13   8  -7 45814.5 477.203   4
  13   8  -7 44691.5 416.531   3
  -8  13   7 44422.8 395.164   5
  13  -8  -5 34450.7 420.187   4
  13   8  -5 36046.6 439.031   6
   8  13   5 36995.6 401.672   3
 -13   8  -5 36538.5 367.690   5
  -8  13   5 35350.0 383.529   5
  13   8  -5 35127.3 386.211   3
  13  -8  -3 58831.6 529.996   4
  13  -8  -3 59357.6 615.093   6
  13   8  -3 59279.1 610.360   6
   8  13   3 61258.7 547.708   3
 -13   8  -3 60825.0 496.179   5
  -8  13   3 59539.2 521.632   5
  13  -8  -1 143794. 936.909   6
   8  13   1 145195. 875.898   3
  -8  13   1 142929. 831.356   5
   8 -13  -1 141169. 870.565   6
  13  -8   1 141954. 878.219   6
  -8  13  -1 139030. 859.739   5
 -13   8   1 139896. 772.036   5
   8 -13  -3 60737.7 581.483   6
   8  13  -3 60756.2 609.869   3
 -13   8   3 58945.8 507.288   5
   8  13  -5 36691.7 478.843   3
 -13   8   5 35052.5 395.414   5
  13   8   7 44812.0 422.289   6
  -8  13  -7 44223.6 469.959   5
  -8  13  -9 55793.1 452.606   5
 -13   8   9 53550.4 406.194   5
  13  -9  -8 9450.75 188.138   4
  13  -9  -8 9574.34 191.498   6
   9  13   8 9570.32 148.622   3
  13   9  -8 9250.76 162.380   3
  -9  13   8 9498.81 159.955   5
  13  -9  -6 4069.71 136.906   4
  13  -9  -6 4082.14 152.550   6
  13   9  -6 4107.47 127.518   6
  13   9  -6 4257.25 148.903   4
   9  13   6 4055.16 121.257   3
 -13   9  -6 4183.40 115.569   5
  -9  13   6 4325.99 127.870   5
  13   9  -6 4390.83 132.023   3
  13  -9  -4 5503.58 157.620   4
  13  -9  -4 5341.14 179.349   6
  13   9  -4 5406.65 174.671   6
   9  13   4 6019.61 160.941   3
 -13   9  -4 6111.31 153.399   5
  -9  13   4 5378.98 152.453   5
  13   9  -4 5222.89 147.880   3
  13  -9  -2 5810.10 191.031   6
   9  13   2 7145.10 190.013   3
  13   9  -2 7104.15 211.134   6
 -13   9  -2 5884.57 157.544   5
  -9  13   2 5759.33 167.942   5
  13  -9   0 8123.74 212.850   6
   9  13   0 8450.85 213.926   3
 -13   9   0 8137.86 186.442   5
   9 -13  -2 5692.85 178.577   6
  13  -9   2 5724.83 160.447   6
   9  13  -4 5619.38 186.724   3
   9 -13  -4 5413.90 172.826   6
  -9  13  -4 5038.31 164.771   5
   9  13  -6 3935.07 154.289   3
  -9  13  -6 4026.20 143.435   5
 -13   9   6 3613.94 121.257   5
  -9  13  -8 9473.78 189.350   5
 -13   9   8 8824.86 167.564   5
   9  13  -8 9014.98 204.046   3
   9  13 -10 9719.24 158.219   3
 -13   9  10 10434.9 136.864   5
 -10  13   9 14243.8 155.400   5
  13  10  -7 31452.7 298.065   4
  13  10  -7 32108.3 306.154   3
 -10  13   7 32074.2 305.642   5
  13 -10  -5 19758.5 264.988   4
  10  13   5 19784.2 256.648   3
  13  10  -5 19945.4 280.328   6
 -13  10  -5 19759.2 257.836   5
 -10  13   5 19087.0 264.283   5
  13  10  -5 19795.0 270.331   3
  13 -10  -3 33250.2 420.714   6
  10  13   3 32997.4 368.523   3
  13  10  -3 33158.3 416.923   6
 -13  10  -3 33033.6 356.980   5
 -10  13   3 32100.3 366.557   5
  13 -10  -1 47964.7 496.329   6
  10  13   1 48848.7 467.984   3
 -13  10  -1 47962.4 443.063   5
  10 -13  -1 52865.8 498.511   6
  10  13  -1 52829.8 514.647   3
  13 -10   1 52444.8 476.999   6
  10  13  -3 34499.2 419.256   3
  10 -13  -3 33852.1 409.816   6
 -10  13  -3 34259.6 404.809   5
  10  13  -5 20578.4 323.040   3
 -10  13  -5 20665.0 306.422   5
 -13  10   5 20216.1 272.393   5
  13  10   7 32419.8 309.773   6
 -10  13  -7 33006.6 346.794   5
 -13  10   7 32971.5 317.008   5
 -10  13  -9 15137.6 175.992   5
  10  13  -9 15022.8 202.322   3
 -13  10   9 15098.6 170.705   5
 -11  13   8 17703.4 181.837   5
  13  11  -6 28971.4 286.844   4
 -13  11  -6 30091.9 268.747   5
 -11  13   6 29643.1 290.287   5
  13  11  -6 28809.1 279.420   3
  13 -11  -4 26797.0 345.322   6
  11  13   4 27789.1 285.176   3
  13  11  -4 26564.4 325.895   6
 -13  11  -4 27884.4 308.746   5
  13  11  -4 26439.6 298.788   3
  13 -11  -2 63868.5 537.999   6
  11  13   2 66187.3 491.476   3
  13  11  -2 64272.1 559.624   6
 -13  11  -2 65597.8 501.628   5
  11  13   0 50108.4 454.376   3
  13 -11   0 48460.0 442.448   6
 -11  13   0 47658.7 446.102   5
 -13  11   0 50912.3 442.462   5
  11  13  -2 65776.2 538.521   3
  11 -13  -2 64639.7 531.836   6
 -11  13  -2 65560.1 530.522   5
  11  13  -4 29987.9 362.969   3
  11  13  -4 28810.1 306.676   6
 -11  13  -4 30184.5 348.638   5
 -13  11   4 28625.4 313.771   5
  13  11   6 28689.3 304.698   6
 -13  11   6 28735.1 286.020   5
  11  13  -6 28892.7 330.667   3
  11  13  -8 17695.4 207.096   3
 -13  11   8 17654.4 185.746   5
 -12  13   7 1723.00 57.3195   5
  13 -12  -5 2264.59 91.5235   6
  13  12  -5 2165.93 76.1862   4
 -13  12  -5 2149.32 74.3902   5
  13 -12  -3 7630.01 170.219   6
  13  12  -3 7611.82 171.082   6
 -13  12  -3 7613.05 157.431   5
 -12  13   3 7127.30 152.793   5
  12  13   1 1759.38 75.0546   3
  13 -12  -1 1881.73 85.7009   6
  13  12  -1 2316.35 107.129   6
 -13  12  -1 2026.31 88.0701   5
 -12  13   1 2089.28 91.2218   5
 -12  13  -1 1850.65 87.6421   5
 -13  12   1 2003.59 87.8060   5
 -12  13  -3 7840.92 166.635   5
 -13  12   3 7602.88 154.966   5
  12  13  -3 7983.32 165.747   3
 -13  12   5 2072.40 76.6806   5
  12  13  -5 1983.87 79.6637   3
 -13  12   7 1525.88 54.4143   5
  13  13   0 102411. 615.451   6
 -13  13   0 103205. 552.888   5
 -13  13  -2 69806.6 438.838   5
 -13  13   2 68956.0 437.531   5
  13  13   4 37221.7 328.324   6
 -13  13  -4 36933.7 285.526   5
   0  14  12 20957.5 200.290   3
  14   0 -10 35958.5 417.063   4
  14   0  -8 33134.9 481.835   4
  14   0  -8 33764.3 428.955   6
  14   0  -6 44277.6 560.777   6
  14   0  -4 146328. 1065.41   6
  14   0  -4 144493. 1056.71   4
  14   0  -2 37990.5 527.870   4
   0  14   2 38117.1 432.475   3
  14   0   0 33368.1 506.415   6
  14   0   0 33981.1 474.449   4
   0  14   0 34619.1 409.639   3
   0  14  -2 32772.9 408.709   3
  14   0   2 32860.8 480.238   6
  14   0   2 31851.2 424.847   4
   0  14  -2 31943.2 366.381   5
   0  14  -4 140176. 877.582   3
   0  14  -4 137551. 806.340   5
   0  14  -6 44141.6 488.763   3
   0  14  -6 42209.2 455.334   5
   0  14  -8 36247.1 404.323   5
   0  14  -8 37744.7 418.541   3
   0  14 -10 33664.1 330.475   8
  14  -1 -11 3141.07 104.502   4
  14   1 -11 2987.65 96.9896   4
  14  -1  -9 9351.73 244.108   4
  14   1  -9 8942.70 232.401   4
  14  -1  -9 8770.09 188.211   6
  14  -1  -7 1867.82 119.548   6
  14   1  -7 1802.85 130.902   4
  14   1  -7 1842.27 115.283   6
  14  -1  -5 18200.2 377.771   4
  14  -1  -5 18289.3 372.252   6
  14   1  -5 18470.8 377.614   6
  14  -1  -3 13850.6 321.195   4
  14   1  -3 13895.5 333.196   6
  14   1  -3 13600.4 326.472   4
   1  14   3 14051.4 269.531   3
  -1  14   3 13693.0 254.462   3
  14  -1  -1 665.397 90.2019   6
  14   1  -1 510.928 84.8877   6
  14  -1  -1 730.139 83.9375   4
  -1  14   1 439.773 57.5483   3
   1  14   1 480.658 64.3576   3
  -1  14   1 742.421 57.8871   5
  14  -1   1 578.216 81.6438   6
  14   1   1 532.210 81.4356   6
  14  -1   1 815.674 78.2319   4
  -1  14  -1 559.249 60.2775   3
   1  14  -1 455.826 63.3298   3
  -1  14  -1 721.653 60.5973   5
  -1  14  -3 14232.7 268.058   3
   1  14  -3 13875.6 275.350   3
  14  -1   3 13476.3 299.631   6
  14   1   3 13105.4 300.742   6
   1  14  -3 13805.0 235.586   5
  -1  14  -3 13400.1 255.945   5
  -1  14  -5 17752.8 302.547   3
   1  14  -5 18544.5 329.958   3
  14   1   5 18264.0 324.410   6
   1  14  -5 18480.9 286.371   5
   1  14  -7 2378.41 120.390   3
   1  14  -7 2181.99 101.942   5
  -1  14  -7 1875.96 102.915   5
 -14   1   7 2655.81 99.7119   5
  -1  14  -9 9454.76 203.120   5
   1  14  -9 9283.37 197.877   3
 -14   1   9 9488.15 173.231   5
   1  14 -11 2866.95 75.7102   8
  -1  14 -11 2829.49 88.8812   8
   2  14  12 15507.1 166.375   3
  14  -2 -10 8292.10 200.533   4
  14   2 -10 8435.50 193.005   4
  14  -2  -8 28424.3 396.204   6
  14   2  -8 29678.8 448.465   4
  14   2  -8 29558.8 377.390   6
  14  -2  -6 42057.7 553.284   4
  14  -2  -6 43538.4 553.399   6
  14   2  -6 43656.4 540.882   6
  14   2  -6 43390.2 573.258   4
  14  -2  -4 13722.3 321.745   4
  14  -2  -4 13762.5 327.527   6
  14   2  -4 14363.7 333.018   6
  14   2  -4 13332.6 323.854   4
   2  14   4 13309.4 267.705   3
  14  -2  -2 17178.9 362.408   6
  14  -2  -2 16954.4 340.766   4
   2  14   2 16635.1 297.808   3
  -2  14   2 17364.8 276.796   3
  -2  14   2 17895.8 262.811   5
  14  -2   0 21307.2 396.494   6
  14  -2   0 21735.0 360.997   4
  14   2   0 21919.1 399.906   6
  -2  14   0 21635.5 302.455   3
   2  14   0 21589.1 339.682   3
  -2  14   0 22917.9 318.562   5
  -2  14  -2 14795.8 259.166   3
  14  -2   2 14273.1 310.535   6
   2  14  -2 13712.9 278.135   3
  14   2   2 13892.9 314.078   6
  -2  14  -2 14630.0 265.504   5
   2  14  -4 12631.5 277.114   3
  14  -2   4 13172.2 274.148   6
  14   2   4 12953.5 287.699   6
  -2  14  -4 13649.6 269.662   5
   2  14  -6 43501.9 517.613   3
   2  14  -6 44120.0 421.693   5
  -2  14  -6 44207.7 490.088   5
 -14   2   6 45347.7 412.804   5
  -2  14  -8 30466.8 391.223   5
 -14   2   8 31393.4 336.613   5
  -2  14 -10 8061.75 175.215   5
   2  14 -10 8185.17 168.628   3
 -14   2  10 8224.24 150.474   5
  14  -3 -11 10176.6 178.588   4
   3  14  11 10061.3 159.941   3
  14  -3  -9 12832.0 227.675   6
  14   3  -9 13017.5 261.716   4
  14  -3  -7 59081.7 605.416   6
  14   3  -7 59493.6 576.431   6
  14  -3  -5 95101.1 823.700   4
  14  -3  -5 94064.3 831.825   6
  14   3  -5 96485.1 817.780   6
  14   3  -5 85920.4 808.248   4
  -3  14   5 96214.9 563.259   5
   3  14   5 87866.4 677.992   3
  14  -3  -3 18879.7 360.395   4
  14   3  -3 18404.8 371.093   6
  -3  14   3 18408.5 270.334   3
  -3  14   3 19092.5 267.665   5
  14  -3  -1 3537.60 152.221   4
  14  -3  -1 3643.98 170.662   6
  -3  14   1 4180.91 128.476   3
   3  14   1 3751.33 147.529   3
  -3  14   1 3925.83 133.212   5
  14  -3   1 1976.88 123.283   6
  14   3   1 2114.93 128.479   6
  -3  14  -1 2142.37 106.756   5
   3  14  -3 15447.4 301.918   3
  14   3   3 15984.9 326.574   6
  -3  14  -3 15611.9 286.411   5
   3  14  -5 94654.6 764.421   3
  14   3   5 94092.1 731.267   6
 -14   3   5 93004.7 596.245   5
   3  14  -7 62961.8 613.980   3
  -3  14  -7 62387.0 585.421   5
 -14   3   7 62207.4 496.187   5
  -3  14  -9 12782.8 239.593   5
   3  14  -9 13509.8 255.137   3
 -14   3   9 12923.6 209.100   5
  -3  14 -11 9787.43 164.710   8
 -14   3  11 10179.8 139.691   5
  14  -4 -10 2783.64 113.094   4
  14   4 -10 3024.52 101.642   4
   4  14  10 2858.41 97.2769   3
  14  -4  -8 2585.30 119.889   6
  14   4  -8 2459.27 129.302   4
   4  14   8 2602.01 113.806   3
  14  -4  -6 759.952 88.2598   4
  14   4  -6 820.100 83.9025   6
  14   4  -6 814.845 95.4832   4
  -4  14   6 751.915 54.8490   5
  14  -4  -4 760.322 87.4024   4
  14   4  -4 621.750 85.2216   6
  -4  14   4 984.628 64.6221   3
  -4  14   4 881.361 63.8239   5
  14  -4  -2 1028.28 89.6605   4
  14  -4  -2 867.483 92.5742   6
  14   4  -2 795.701 95.6390   6
   4  14   2 983.607 84.6500   3
  -4  14   2 1079.28 72.0438   5
  14  -4   0 5017.23 164.795   4
  14  -4   0 4760.16 187.241   6
  14   4   0 5102.23 195.924   6
   4  14   0 5198.67 175.180   3
  -4  14   0 5004.37 155.443   5
  14  -4   2 993.370 87.3983   6
   4  14  -2 1101.03 93.8746   3
  14   4   2 928.125 94.3984   6
  -4  14  -2 798.169 73.2101   5
 -14   4   2 834.513 56.7359   5
   4  14  -4 793.879 85.7635   3
  14   4   4 1059.35 90.6387   6
  -4  14  -4 1003.24 84.9568   5
 -14   4   4 740.357 58.2019   5
  14   4   6 873.498 73.8550   6
 -14   4   6 883.506 67.6278   5
  -4  14  -8 2588.66 118.767   5
 -14   4   8 2373.29 99.3269   5
   4  14  -8 2693.07 127.854   3
  -4  14 -10 3136.96 111.452   5
   4  14 -10 3167.31 112.108   3
 -14   4  10 2847.72 88.7034   5
  14  -5 -11 19749.6 222.301   4
   5  14  11 19217.0 187.797   3
  14  -5  -9 22480.6 285.718   6
  14   5  -9 23116.3 304.170   4
   5  14   9 22332.4 272.079   3
  14  -5  -7 57135.3 577.483   4
  14  -5  -7 56384.1 562.573   6
  14   5  -7 57447.2 517.721   6
   5  14   7 56869.9 502.535   3
  -5  14   7 56800.9 407.459   5
  14  -5  -5 89877.1 749.822   4
  14  -5  -5 92139.0 785.928   6
  14   5  -5 91579.2 758.620   6
  14   5  -5 89852.6 804.210   4
   5  14   5 93155.7 679.135   3
  -5  14   5 92132.4 580.502   5
  14  -5  -3 24856.8 386.335   4
  14  -5  -3 25703.6 425.476   6
  14   5  -3 25287.9 425.993   6
  -5  14   3 25161.1 326.056   5
  14  -5  -1 862.271 74.5779   4
  14  -5  -1 662.177 84.2009   6
  14  -5   1 1476.01 105.766   6
  14   5   1 1594.75 115.243   6
 -14   5   1 1669.39 77.8113   5
   5  14  -3 23041.9 381.585   3
  14   5   3 22482.1 379.352   6
  -5  14  -3 23513.6 354.544   5
 -14   5   3 22603.4 288.945   5
   5  14  -5 91239.7 755.433   3
  14   5   5 91580.2 712.494   6
  -5  14  -5 93099.6 722.300   5
   5  14  -7 59657.1 595.481   3
  -5  14  -7 60951.3 563.403   5
 -14   5   7 59540.6 479.060   5
  -5  14  -9 22519.5 309.033   5
   5  14  -9 23063.5 327.595   3
   6  14  10 8152.13 136.444   3
  14  -6  -8 17811.7 288.432   4
  14  -6  -8 18427.2 284.196   6
  14   6  -8 18189.0 292.314   4
   6  14   8 19193.3 264.245   3
  -6  14   8 17289.5 207.353   5
  14  -6  -6 43427.9 491.549   4
  14  -6  -6 44988.2 513.335   6
  14   6  -6 44966.8 479.678   6
  14   6  -6 44364.0 530.511   4
   6  14   6 45498.0 453.714   3
  -6  14   6 43410.6 384.757   5
  14   6  -4 34845.1 469.783   6
  -6  14   4 34943.5 374.025   5
  14  -6  -2 9516.59 224.331   4
  14  -6  -2 9397.62 255.898   6
  14   6  -2 9498.06 258.719   6
   6  14   2 9902.47 231.618   3
  -6  14   2 9581.79 206.119   5
  14  -6   0 5065.68 185.566   6
 -14   6   0 4807.63 129.603   5
  14  -6   2 8733.38 222.094   6
  -6  14  -2 8510.94 215.067   5
 -14   6   2 8464.94 177.451   5
   6  14  -4 33440.8 453.862   3
  14   6   4 33542.3 439.486   6
  -6  14  -4 33018.7 423.431   5
 -14   6   4 33297.2 355.012   5
   6  14  -6 45422.7 520.327   3
  14   6   6 45264.6 458.296   6
  -6  14  -6 43918.3 482.760   5
 -14   6   6 44581.7 409.770   5
 -14   6   8 17403.3 240.338   5
   6  14  -8 18740.8 310.170   3
   6  14 -10 7243.33 153.844   3
 -14   6  10 6950.03 122.742   5
  14  -7  -9 1546.34 76.8348   4
  14  -7  -9 1375.49 65.2563   6
   7  14   9 1439.95 61.1810   3
  14  -7  -7 5071.17 156.058   4
  14  -7  -7 5174.08 161.202   6
  14   7  -7 5619.94 169.355   4
   7  14   7 5389.15 145.153   3
  -7  14   7 5357.96 125.867   5
  14  -7  -5 24606.0 353.924   4
  14   7  -5 24503.6 362.524   6
  14   7  -5 25761.8 402.609   4
   7  14   5 24817.9 335.360   3
  -7  14   5 25030.5 304.992   5
  14  -7  -3 4969.23 157.194   4
  14  -7  -3 4638.69 175.637   6
  14   7  -3 4835.13 179.639   6
  -7  14   3 4668.45 143.431   5
  14  -7  -1 3019.49 144.454   6
   7  14   1 3201.87 136.130   3
  14   7  -1 2976.88 150.024   6
 -14   7  -1 3115.24 106.617   5
  -7  14   1 2859.48 120.319   5
  14  -7   1 3534.00 142.802   6
   7  14  -1 3627.18 150.028   3
  14   7   1 3552.34 155.270   6
  -7  14  -1 3311.96 133.364   5
 -14   7   1 3519.85 116.152   5
  14   7   3 4235.83 163.311   6
  -7  14  -3 4202.70 153.771   5
 -14   7   3 3983.39 126.340   5
  14   7   5 25032.6 356.326   6
  -7  14  -5 24520.0 358.222   5
 -14   7   5 24228.0 299.494   5
 -14   7   7 5055.07 134.601   5
   7  14  -7 4686.25 161.921   3
  -7  14  -9 1804.54 81.2094   5
   7  14  -9 2023.74 94.3594   3
 -14   7   9 1810.14 71.0610   5
  14  -8  -8 19607.3 255.758   4
  14  -8  -8 20047.6 262.984   6
   8  14   8 19891.8 220.275   3
  -8  14   8 19568.9 209.030   5
  14  -8  -6 40976.3 414.301   4
  14  -8  -6 41318.6 446.051   6
  14   8  -6 40642.0 396.269   6
  14   8  -6 42393.1 459.724   4
   8  14   6 42922.0 390.851   3
  -8  14   6 41206.1 360.356   5
  14  -8  -4 62993.0 596.331   6
  14   8  -4 64828.1 590.605   6
   8  14   4 64326.8 525.998   3
  -8  14   4 63012.3 496.262   5
  14  -8  -2 20092.0 341.157   6
   8  14   2 20330.7 316.244   3
  14   8  -2 20973.7 363.957   6
 -14   8  -2 19794.6 262.274   5
  -8  14   2 20143.4 292.909   5
  14  -8   0 1294.07 90.9725   6
   8  14   0 1039.44 85.3792   3
  -8  14   0 1041.88 78.2516   5
 -14   8   0 1396.62 75.4363   5
   8  14  -2 17695.2 315.086   3
  14  -8   2 17769.0 276.282   6
  14   8   2 17699.5 320.237   6
  -8  14  -2 18638.8 306.333   5
 -14   8   2 17361.8 252.543   5
   8  14  -4 58032.6 568.168   3
  14   8   4 56917.2 544.451   6
 -14   8   4 57355.3 456.346   5
  14   8   6 43359.8 420.374   6
 -14   8   6 41778.9 373.703   5
  -8  14  -8 23571.0 291.178   5
 -14   8   8 22150.0 245.895   5
  14  -9  -7 3152.41 100.741   4
  14  -9  -7 3386.03 116.000   6
  14   9  -7 3292.66 102.505   4
  -9  14   7 3256.33 93.0686   5
  14  -9  -5 2978.54 104.266   4
  14   9  -5 2839.62 110.053   6
  14   9  -5 2766.58 120.569   4
  -9  14   5 2837.78 102.131   5
  14  -9  -3 14060.2 270.595   6
  14   9  -3 14224.7 274.974   6
 -14   9  -3 14067.2 212.742   5
  -9  14   3 13838.7 231.966   5
  14  -9  -1 3739.00 140.532   6
   9  14   1 4041.61 141.145   3
  14   9  -1 3686.15 150.655   6
 -14   9  -1 3950.30 119.901   5
  -9  14   1 3658.13 128.962   5
   9  14  -1 3099.89 130.356   3
  14  -9   1 3050.10 118.761   6
 -14   9   1 3173.73 108.739   5
   9  14  -3 13829.8 265.959   3
  14   9   3 13330.7 263.903   6
 -14   9   3 13191.7 215.820   5
  14   9   5 2265.93 102.641   6
  -9  14  -5 2186.68 102.919   5
 -14   9   5 2314.34 90.5890   5
  -9  14  -7 4184.26 126.622   5
 -14   9   7 4053.11 106.650   5
   9  14  -7 3951.12 129.713   3
  -9  14  -9 3210.54 79.8439   5
   9  14  -9 3083.24 88.0463   3
 -14   9   9 2991.13 68.6767   5
  14 -10  -6 33689.3 283.245   4
  14  10  -6 33198.2 318.285   4
 -10  14   6 33406.1 292.667   5
  14 -10  -4 12403.6 235.744   6
  10  14   4 11678.5 195.386   3
  14  10  -4 11946.9 222.271   6
 -14  10  -4 11600.9 176.660   5
 -10  14   4 12011.1 198.467   5
  14 -10  -2 8580.71 199.751   6
  10  14   2 8661.48 183.303   3
  14  10  -2 9070.59 218.066   6
 -14  10  -2 8566.52 166.297   5
 -10  14   2 8993.26 184.086   5
  10  14   0 8507.59 195.423   3
  14 -10   0 8060.46 183.157   6
  14  10   0 8088.44 208.491   6
 -14  10   0 7753.61 164.913   5
  10  14  -2 7392.69 183.376   3
 -14  10   2 7210.11 156.936   5
  10  14  -4 10784.0 219.109   3
  14  10   4 11068.1 218.058   6
 -14  10   4 10615.0 181.809   5
  14  10   6 35189.6 322.802   6
 -14  10   6 34614.3 299.248   5
 -10  14  -8 21559.2 204.441   5
 -14  10   8 20979.4 185.805   5
 -11  14   7 25969.2 203.557   5
  14 -11  -5 33077.7 326.268   6
 -11  14   5 32639.1 284.611   5
  11  14   3 27346.1 271.659   3
  14 -11  -3 26991.3 315.651   6
  14  11  -3 27229.2 322.483   6
 -14  11  -3 27704.5 272.695   5
  11  14   1 22719.7 274.320   3
  14 -11  -1 22349.7 281.979   6
  14  11  -1 23043.5 320.263   6
 -14  11  -1 22158.4 263.616   5
  11  14  -1 18771.0 264.642   3
 -11  14  -1 18735.0 265.578   5
 -14  11   1 19439.4 243.943   5
  11  14  -3 23530.1 297.098   3
  11  14  -3 23120.3 257.552   6
  14  11   3 23860.4 311.767   6
 -11  14  -3 24281.1 292.650   5
 -14  11   3 22804.7 254.273   5
  14  11   5 31784.7 312.668   6
 -11  14  -5 32491.8 309.161   5
 -14  11   5 32530.4 279.061   5
  11  14  -5 31786.1 318.991   3
 -14  11   7 27856.7 209.904   5
  14  12  -4 1010.31 52.4037   4
  14  12  -2 5861.03 140.331   6
 -14  12  -2 6163.03 122.487   5
  12  14   0 519.873 39.6213   3
 -12  14   0 564.846 48.2461   5
 -14  12   0 494.017 41.7338   5
  12  14  -2 6147.56 132.661   6
 -12  14  -2 5808.76 132.613   5
 -14  12   2 6291.70 127.190   5
  12  14  -2 6122.73 126.241   3
  14  12   4 1149.97 61.4862   6
 -12  14  -4 1367.72 60.7751   5
 -14  12   4 1250.43 54.7758   5
  12  14  -4 1197.73 54.4411   3
  13  14   3 19579.3 212.102   6
 -13  14   3 20697.9 194.255   5
  14  13  -1 3954.80 102.540   6
  13  14   1 3433.19 97.8690   6
 -14  13  -1 3191.76 79.0702   5
 -13  14   1 3856.01 91.8752   5
  13  14  -1 2744.18 83.2839   6
  14  13   1 3034.38 94.9592   6
 -13  14  -1 3039.69 82.2868   5
 -14  13   1 2872.81 76.6745   5
  14  13   3 18787.7 212.443   6
 -14  13   3 17606.6 172.057   5
   0  15  11 8241.38 121.676   3
  15   0  -9 481.957 61.8766   4
   0  15   9 760.762 56.9401   3
  15   0  -7 7667.93 210.171   6
  15   0  -5 16142.4 345.376   4
  15   0  -5 16044.6 339.133   6
   0  15   5 16290.8 269.674   3
  15   0  -3 29202.1 461.210   4
   0  15   3 29765.7 372.626   3
  15   0  -1 53450.5 630.466   6
  15   0  -1 52181.2 596.550   4
   0  15  -1 50232.0 490.533   3
  15   0   1 51803.2 605.623   6
  15   0   1 51110.3 551.851   4
   0  15  -3 30208.2 391.103   3
   0  15  -3 30158.1 347.100   5
   0  15  -5 17364.5 295.967   3
   0  15  -5 17518.0 269.637   5
   0  15  -7 6874.10 164.464   5
   0  15  -9 706.991 50.1328   8
  15  -1 -10 1846.46 85.6154   4
  15   1 -10 1639.80 78.5603   4
   1  15  10 1774.34 72.5718   3
  -1  15  10 1616.84 67.1888   3
  15  -1  -8 2411.49 127.462   4
  15   1  -8 2421.06 125.430   4
  15  -1  -8 2251.04 105.031   6
  15   1  -8 2492.30 105.781   6
   1  15   8 2234.41 96.7590   3
  15  -1  -6 9397.02 259.162   4
  15  -1  -6 9710.58 254.087   6
  15   1  -6 9206.81 242.908   6
   1  15   6 9581.53 209.669   3
  -1  15   6 9148.49 196.967   3
  15  -1  -4 636.394 86.5782   4
  15  -1  -4 504.821 85.4330   6
  15   1  -4 549.410 86.4917   6
  15   1  -4 522.635 84.8556   4
   1  15   4 534.577 64.9355   3
  -1  15   4 569.355 60.2779   3
  15  -1  -2 1415.63 116.634   6
  15  -1  -2 1426.38 109.019   4
  15   1  -2 1307.47 109.650   4
  -1  15   2 1361.80 85.5742   3
   1  15   2 1564.68 96.8253   3
  15  -1   0 761.932 91.2392   6
  15  -1   0 894.560 82.4612   4
  15   1   0 776.084 90.2098   6
  -1  15   0 795.461 66.7689   3
  15   1   0 767.487 83.6420   4
   1  15   0 716.336 71.8825   3
  -1  15  -2 1490.46 87.1629   3
   1  15  -2 1894.50 106.881   3
  15  -1   2 1590.68 111.822   6
  15   1   2 1662.42 115.440   6
  15   1   2 1630.96 99.9697   4
  -1  15  -2 1597.47 86.1493   5
  -1  15  -4 683.338 62.9648   3
  15  -1   4 505.580 62.7983   6
  15   1   4 502.314 68.0267   6
  -1  15  -4 589.115 58.8813   5
   1  15  -6 10301.4 229.037   3
   1  15  -6 10286.0 194.430   5
  -1  15  -6 10150.9 213.263   5
  -1  15  -8 2502.29 100.986   5
   1  15  -8 1983.37 90.4997   3
  -1  15 -10 1768.12 66.1897   8
  15  -2  -9 7156.29 187.758   4
  15  -2  -9 7275.64 147.435   6
  15   2  -9 7230.96 181.898   4
   2  15   9 7382.74 155.512   3
  -2  15   9 6815.34 141.120   3
  15  -2  -7 3318.92 150.649   4
  15  -2  -7 3593.59 147.561   6
  15   2  -7 3558.63 159.796   4
  15   2  -7 3542.66 138.263   6
   2  15   7 3827.40 131.692   3
  -2  15   7 3694.17 119.772   3
  15  -2  -5 22578.1 397.408   4
  15  -2  -5 23105.1 402.076   6
  15   2  -5 22690.8 393.320   6
   2  15   5 23289.2 331.295   3
  -2  15   5 22803.0 301.084   3
  15  -2  -3 20532.8 374.214   4
  15   2  -3 20862.8 395.353   6
  15   2  -3 20606.9 387.332   4
   2  15   3 20986.8 320.933   3
  -2  15   3 21743.1 295.764   3
  15  -2  -1 6071.08 196.477   4
  15   2  -1 6048.83 213.837   6
  -2  15   1 6445.06 161.385   3
   2  15   1 5882.62 178.042   3
  -2  15   1 6361.48 156.666   5
  -2  15  -1 6356.58 163.445   3
  15  -2   1 6226.63 180.709   4
  15  -2   1 6306.40 210.727   6
   2  15  -1 6283.47 186.330   3
  15   2   1 6358.60 215.077   6
  -2  15  -1 6370.35 165.114   5
   2  15  -3 21494.1 348.440   3
  15  -2   3 22422.3 364.960   6
  15   2   3 21441.2 367.332   6
  -2  15  -3 22959.1 326.304   5
   2  15  -5 23540.5 359.735   3
  15   2   5 23890.1 350.822   6
  -2  15  -5 23669.9 336.443   5
  -2  15  -7 4154.20 137.910   5
   2  15  -7 4154.56 145.755   3
  -2  15  -9 6113.73 144.132   5
   2  15  -9 6356.99 140.709   3
  15  -3 -10 21138.9 260.819   4
   3  15  10 21388.8 229.361   3
  -3  15  10 20725.5 190.925   3
  15  -3  -8 4459.79 143.906   6
  15   3  -8 4562.43 159.243   4
  15   3  -8 4578.10 126.353   6
  -3  15   8 4525.57 117.716   3
  15  -3  -6 13089.9 288.628   4
  15  -3  -6 13289.0 292.144   6
  15   3  -6 13794.1 281.621   6
  15   3  -6 13478.4 303.360   4
   3  15   6 13271.3 241.836   3
  -3  15   6 12890.8 210.805   3
  15  -3  -4 11210.1 272.730   4
  15   3  -4 10924.7 279.153   6
   3  15   4 11532.1 240.732   3
  -3  15   4 10875.2 201.710   3
  15  -3  -2 27716.3 412.077   4
  15  -3  -2 28101.1 446.229   6
  -3  15   2 28278.7 319.155   3
   3  15   2 29274.1 383.664   3
  -3  15   2 28463.9 324.444   5
  15  -3   0 13289.2 266.098   4
  15  -3   0 13721.3 306.727   6
  15   3   0 13391.4 308.165   6
   3  15   0 13397.9 266.613   3
  -3  15   0 13819.8 244.398   5
  15  -3   2 28220.2 416.253   6
  15   3   2 27731.2 426.688   6
  -3  15  -2 27142.9 354.013   5
   3  15  -4 11546.3 256.773   3
  15   3   4 11131.9 254.695   6
  -3  15  -4 11414.3 236.631   5
   3  15  -6 14134.6 277.072   3
  -3  15  -6 13856.3 258.300   5
  -3  15  -8 4381.51 135.184   5
 -15   3   8 4481.74 103.927   5
   3  15  -8 4082.48 136.273   3
  -3  15 -10 21172.9 232.101   8
  15  -4  -9 1406.12 65.0129   6
  15   4  -9 1331.55 73.0772   4
   4  15   9 1510.25 71.9312   3
  15  -4  -7 758.481 76.9085   4
  15  -4  -7 573.850 68.7799   6
  15   4  -7 504.035 55.7761   6
  15   4  -7 720.905 77.7851   4
  -4  15   7 494.066 42.9780   3
  15  -4  -5 2662.31 132.877   4
  15  -4  -5 2433.66 136.450   6
  15   4  -5 2506.40 131.519   6
  15   4  -5 2470.94 137.949   4
  -4  15   5 2108.98 83.8557   3
  -4  15   5 2387.17 85.8685   5
  15  -4  -3 4341.07 164.757   4
  15  -4  -3 4508.85 182.881   6
  15   4  -3 4321.09 178.067   6
   4  15   3 4091.15 148.599   3
  -4  15   3 4793.53 133.628   5
  15  -4  -1 10244.1 231.965   4
  15  -4  -1 10511.0 270.513   6
   4  15   1 10677.6 238.341   3
  -4  15   1 10331.9 206.173   5
  15  -4   1 10303.3 257.794   6
   4  15  -1 10678.5 245.650   3
  15   4   1 10493.9 267.021   6
  -4  15  -1 10537.1 220.239   5
   4  15  -3 4847.70 172.475   3
  15  -4   3 4586.33 157.751   6
  15   4   3 4617.25 174.697   6
  -4  15  -3 4772.29 156.273   5
  15   4   5 2455.40 116.846   6
  -4  15  -5 2416.46 114.510   5
 -15   4   5 2248.53 83.5432   5
  -4  15  -7 622.577 62.5629   5
 -15   4   7 635.744 47.1758   5
   4  15  -7 675.233 70.3859   3
  -4  15  -9 1347.95 71.1620   5
 -15   4   9 1272.11 51.4126   5
   5  15  10 11941.0 145.536   3
  15  -5  -8 2247.59 102.058   4
  15  -5  -8 2231.84 95.5719   6
  15   5  -8 2282.48 102.752   4
   5  15   8 2171.71 89.8562   3
  15  -5  -6 6212.08 183.445   4
  15  -5  -6 5920.52 185.377   6
  15   5  -6 6368.81 178.866   6
  15   5  -6 6089.45 196.753   4
   5  15   6 6511.77 170.308   3
  -5  15   6 6238.71 128.596   5
  15  -5  -4 6820.11 196.467   4
  15   5  -4 6559.87 207.770   6
  -5  15   4 6782.82 153.224   5
  15  -5  -2 11472.8 244.037   4
  15  -5  -2 10988.5 270.356   6
  15   5  -2 10967.4 273.125   6
  -5  15   2 11067.3 212.278   5
  15  -5   0 15780.1 318.379   6
   5  15   0 14841.5 285.798   3
  15   5   0 15350.9 320.483   6
  -5  15   0 15676.8 261.655   5
  15  -5   2 10417.5 240.640   6
  15   5   2 10230.3 253.772   6
  -5  15  -2 10246.4 221.022   5
   5  15  -4 6964.80 202.646   3
  15   5   4 6873.13 200.313   6
  -5  15  -4 7533.75 195.066   5
 -15   5   4 6904.71 145.717   5
   5  15  -6 7366.24 200.399   3
  -5  15  -6 7083.48 183.528   5
 -15   5   6 6874.00 141.801   5
  -5  15  -8 2739.58 105.705   5
 -15   5   8 2881.87 84.4022   5
   5  15  -8 2538.21 109.677   3
  -5  15 -10 11723.3 160.495   8
  15  -6  -9 1647.18 72.4621   4
  15  -6  -9 1608.05 59.5200   6
   6  15   9 1685.79 62.6169   3
  15  -6  -7 700.489 63.3085   4
  15  -6  -7 615.536 61.4634   6
  15   6  -7 757.916 69.2837   4
   6  15   7 785.005 60.1551   3
  15  -6  -5 9053.27 209.327   4
  15  -6  -5 8355.94 219.545   6
  15   6  -5 9177.44 219.759   6
  15   6  -5 9079.09 237.712   4
   6  15   5 9549.14 201.886   3
  -6  15   5 8743.74 162.672   5
  15  -6  -3 11347.0 232.489   4
  15  -6  -3 11901.6 273.913   6
  15   6  -3 11125.9 266.798   6
   6  15   3 11919.0 238.968   3
  -6  15   3 10933.8 202.678   5
  15  -6  -1 21557.9 364.777   6
  -6  15   1 21316.1 297.593   5
  15  -6   1 22947.9 353.586   6
  15   6   1 22487.2 374.211   6
  -6  15  -1 22472.6 323.126   5
  15   6   3 11232.7 255.515   6
  -6  15  -3 11108.1 231.462   5
 -15   6   3 11092.0 182.497   5
  15   6   5 9824.80 215.731   6
  -6  15  -5 9451.80 211.911   5
 -15   6   5 9301.17 166.913   5
  -6  15  -7 923.186 70.0154   5
   6  15  -7 874.747 73.1545   3
  -6  15  -9 1659.28 69.4699   5
   6  15  -9 1615.28 71.9342   3
 -15   6   9 1567.91 51.5514   5
  15  -7  -8 3478.41 102.240   4
  15  -7  -8 3519.79 102.899   6
  15   7  -8 3318.59 96.2128   4
  15  -7  -6 5124.46 143.074   4
  15  -7  -6 5223.66 158.578   6
  15   7  -6 5517.60 143.476   6
  15   7  -6 5436.98 166.271   4
   7  15   6 5680.45 142.437   3
  -7  15   6 5153.80 115.671   5
  15  -7  -4 8519.96 187.161   4
  15  -7  -4 8213.51 213.468   6
  15   7  -4 8501.83 212.686   6
   7  15   4 8998.90 196.231   3
  15   7  -4 8702.10 228.553   4
  -7  15   4 8707.98 172.473   5
  15  -7  -2 14277.9 283.801   6
   7  15   2 14988.5 266.686   3
  15   7  -2 14345.9 296.562   6
  15  -7   0 2900.99 128.774   6
   7  15   0 2826.19 128.219   3
  -7  15   0 2950.59 116.316   5
 -15   7   0 2688.94 90.7867   5
  15  -7   2 14532.0 249.728   6
  15   7   2 14157.7 287.738   6
  -7  15  -2 13882.6 252.384   5
 -15   7   2 13820.4 202.398   5
  15   7   4 8518.96 206.371   6
  -7  15  -4 8644.24 201.991   5
 -15   7   4 8129.16 155.522   5
   7  15  -6 5743.63 170.616   3
  15   7   6 5471.29 138.187   6
  -7  15  -6 5500.80 153.682   5
 -15   7   6 5709.20 124.033   5
 -15   7   8 3220.42 79.4379   5
   7  15  -8 3590.98 114.674   3
  15  -8  -7 5037.64 118.787   4
  15  -8  -7 4971.55 129.322   6
  15   8  -7 4822.69 122.810   4
   8  15   7 4960.03 109.083   3
  -8  15   7 4709.49 93.6892   5
  15  -8  -5 12505.7 203.470   4
  15   8  -5 12739.9 222.929   6
   8  15   5 12914.0 210.197   3
  15   8  -5 12655.0 247.432   4
  -8  15   5 12087.4 186.400   5
  15  -8  -3 14438.0 269.388   6
  15   8  -3 14233.2 273.635   6
  -8  15   3 13945.4 221.816   5
  15  -8  -1 21530.7 326.820   6
   8  15   1 22041.4 320.010   3
  15   8  -1 21075.0 345.628   6
 -15   8  -1 21281.1 243.914   5
  -8  15   1 21233.2 290.710   5
   8  15  -1 22551.3 334.091   3
  15  -8   1 22027.9 300.229   6
  15   8   1 22340.4 351.449   6
  -8  15  -1 22566.4 311.279   5
 -15   8   1 21904.8 252.075   5
   8  15  -3 13719.8 262.650   3
  15   8   3 13549.8 262.898   6
  -8  15  -3 13267.4 238.176   5
 -15   8   3 13857.2 201.898   5
  15   8   5 13620.6 230.833   6
 -15   8   5 13449.6 188.366   5
 -15   8   7 4908.47 100.377   5
  15  -9  -6 2487.04 73.8041   4
  15  -9  -6 2724.64 97.8410   6
   9  15   6 2433.30 74.8829   3
  15   9  -6 2714.10 93.6690   4
  -9  15   6 2571.74 75.7463   5
  15  -9  -4 5231.68 151.288   6
  15   9  -4 5183.71 146.624   6
  15   9  -4 5079.69 153.637   4
  -9  15   4 5018.66 123.166   5
  15  -9  -2 4324.70 139.947   6
   9  15   2 4329.24 130.172   3
  15   9  -2 4254.71 148.293   6
  -9  15   2 4026.77 120.670   5
   9  15   0 3736.90 129.469   3
  15  -9   0 3467.84 119.799   6
  -9  15   0 3304.03 116.131   5
 -15   9   0 3560.99 99.3094   5
   9  15  -2 4890.85 150.542   3
  15   9   2 4605.56 153.931   6
  -9  15  -2 4512.92 133.967   5
 -15   9   2 4651.26 114.639   5
   9  15  -4 5709.09 157.963   3
  15   9   4 5373.44 148.789   6
 -15   9   4 5345.44 118.007   5
  -9  15  -6 2728.09 95.0385   5
 -15   9   6 2606.82 74.7980   5
   9  15  -6 2676.41 99.9928   3
  15 -10  -5 4113.37 114.448   6
  15  10  -5 4041.20 111.332   4
 -10  15   5 4294.63 98.2812   5
  15 -10  -3 10709.4 195.616   6
  10  15   3 10697.8 175.500   3
  15  10  -3 10745.2 199.571   6
 -10  15   3 10338.2 173.508   5
  10  15   1 3326.52 109.654   3
  15 -10  -1 3494.14 111.940   6
  15  10  -1 3550.89 130.265   6
 -15  10  -1 3189.71 88.2618   5
 -10  15   1 3470.20 108.925   5
  10  15  -1 4058.71 124.745   3
 -10  15  -1 3852.92 117.698   5
 -15  10   1 4170.16 103.568   5
  10  15  -3 9923.22 190.265   3
  15  10   3 9924.14 197.899   6
 -15  10   3 9855.51 153.817   5
  15  10   5 4474.75 110.120   6
 -10  15  -5 4720.49 117.918   5
 -15  10   5 4402.79 93.7023   5
  10  15  -5 4515.71 121.286   3
  15  11  -4 4437.18 107.209   4
 -11  15   4 4308.69 95.2781   5
  15 -11  -2 9732.88 159.505   6
  15  11  -2 9622.78 176.346   6
 -11  15   2 9603.48 158.758   5
  11  15   0 5872.62 127.504   3
  15  11   0 5587.88 146.184   6
 -15  11   0 5904.73 111.321   5
  11  15  -2 10557.0 173.158   3
  15  11   2 10576.5 191.472   6
  11  15  -2 10166.3 154.160   6
 -11  15  -2 10312.4 172.586   5
 -15  11   2 10292.7 145.080   5
  15  11   4 5014.13 115.076   6
 -11  15  -4 5071.17 109.979   5
 -15  11   4 5248.18 96.6070   5
  11  15  -4 5130.70 112.325   3
 -12  15   3 262.500 25.6324   5
  15  12  -1 3916.60 99.7206   6
  12  15   1 4067.58 100.775   6
 -12  15  -1 3914.95 92.7458   5
  15  12   3 308.843 31.4885   6
 -12  15  -3 281.492 26.5546   5
  16   0  -8 31498.7 379.371   4
  16   0  -8 32106.5 313.820   6
   0  16   8 31928.8 305.378   3
  16   0  -6 32503.7 421.531   6
   0  16   6 31736.4 339.612   3
  16   0  -4 58282.4 610.658   4
  16   0  -4 58161.9 616.121   6
   0  16   4 59729.8 487.506   3
  16   0  -2 125524. 883.391   4
   0  16   2 128235. 732.744   3
   0  16   0 115969. 712.309   3
  16   0   0 117205. 813.798   4
   0  16  -2 124699. 753.018   3
  16   0   2 125044. 872.837   6
   0  16  -4 57240.9 490.453   3
  16   0   4 59785.4 535.123   6
   0  16  -6 31049.0 306.729   5
   0  16  -8 35267.1 280.208   8
  16  -1  -9 6711.62 151.840   4
  16   1  -9 6638.09 149.319   4
   1  16   9 6834.62 128.755   3
  -1  16   9 6347.05 115.851   3
  16  -1  -7 6109.38 167.369   6
  16   1  -7 6265.59 166.398   6
   1  16   7 6305.36 149.215   3
  -1  16   7 5748.25 136.309   3
  16  -1  -5 10765.2 259.026   4
  16  -1  -5 10846.0 261.697   6
  16   1  -5 10451.5 258.586   4
  16   1  -5 10589.6 252.706   6
   1  16   5 11276.0 212.693   3
  -1  16   5 10023.3 192.632   3
  16  -1  -3 16619.2 323.517   4
  16   1  -3 15705.4 325.513   6
  16   1  -3 16505.3 328.231   4
  -1  16   3 15733.2 247.027   3
   1  16   3 17214.5 271.225   3
  16  -1  -1 2073.22 116.995   4
  16  -1  -1 2468.84 138.291   6
  16   1  -1 2106.93 132.617   6
  16   1  -1 2079.19 122.000   4
  -1  16   1 2019.56 94.3039   3
   1  16   1 2123.52 103.610   3
  -1  16  -1 2410.74 102.261   3
  16  -1   1 2428.63 112.552   4
  16  -1   1 2488.93 135.100   6
  16   1   1 2312.73 130.936   6
  16   1   1 2184.42 115.141   4
  -1  16  -3 17192.1 262.435   3
  16  -1   3 17649.3 310.983   6
  16   1   3 17706.8 319.478   6
  -1  16  -3 17245.8 249.911   5
   1  16  -5 11245.3 222.232   3
  -1  16  -5 10761.8 195.293   5
  -1  16  -7 6141.23 138.316   5
  -1  16  -9 6335.49 107.496   8
  16  -2  -8 32655.9 322.653   6
  16   2  -8 33653.1 377.415   4
   2  16   8 33928.7 314.260   3
  -2  16   8 32925.5 279.869   3
  16  -2  -6 36434.3 447.391   4
  16  -2  -6 37808.4 449.531   6
  16   2  -6 37405.4 432.834   6
   2  16   6 38260.6 376.393   3
  -2  16   6 36827.1 336.068   3
  16  -2  -4 24852.4 385.154   4
  16  -2  -4 24772.5 401.278   6
  16   2  -4 25027.8 395.248   6
  16   2  -4 24882.5 395.385   4
  -2  16   4 25556.0 296.075   3
   2  16   4 26115.9 337.002   3
  16  -2  -2 43237.4 499.063   4
  16  -2  -2 41769.0 525.454   6
  16   2  -2 42283.8 519.319   4
  -2  16   2 41490.7 382.421   3
   2  16   2 42194.2 436.097   3
  16  -2   0 12542.7 252.839   4
  -2  16   0 12597.7 215.185   3
  16  -2   0 12130.4 281.426   6
   2  16   0 12074.4 243.462   3
  16   2   0 12663.7 290.851   6
  16   2   0 12161.1 268.357   4
   2  16  -2 43467.6 465.111   3
  16  -2   2 42402.2 492.628   6
  16   2   2 41553.0 501.729   6
  16   2   2 41552.1 453.898   4
  -2  16  -2 43225.8 404.085   5
  16   2   4 27658.2 373.213   6
  -2  16  -4 28048.1 330.811   5
   2  16  -6 39846.1 409.870   3
  -2  16  -6 40610.3 379.894   5
  -2  16  -8 34386.4 303.064   5
  16   3  -9 34008.7 301.097   4
  16  -3  -7 52453.2 496.276   4
  16  -3  -7 52838.2 474.488   6
  16   3  -7 52438.9 512.569   4
  -3  16   7 53089.9 353.070   3
  16  -3  -5 64884.6 594.878   4
  16  -3  -5 66010.6 622.835   6
  16   3  -5 65362.7 597.885   6
  -3  16   5 65427.7 435.966   3
  16  -3  -3 51501.4 531.169   4
  16   3  -3 53300.6 577.893   6
  16   3  -3 51670.9 576.530   4
  -3  16   3 51595.6 393.615   3
  16  -3  -1 48919.3 491.194   4
  16  -3  -1 50035.5 563.407   6
  16   3  -1 46017.9 544.436   6
   3  16   1 47693.5 472.575   3
  16   3  -1 46748.8 536.152   4
  -3  16   1 48518.1 399.982   5
   3  16  -1 49807.3 496.745   3
  16  -3   1 48899.7 538.803   6
  -3  16  -1 49059.3 433.243   5
   3  16  -3 56631.1 536.380   3
  16  -3   3 56704.9 521.262   6
  16   3   3 54310.8 550.139   6
  16   3   3 53675.8 487.246   4
  -3  16  -3 55504.3 472.724   5
   3  16  -5 69315.0 569.193   3
  16   3   5 68978.5 533.024   6
  -3  16  -5 68158.6 523.410   5
  -3  16  -7 54668.6 426.155   5
   3  16  -7 55147.4 459.024   3
  16  -4  -8 774.617 57.3793   4
  16  -4  -8 966.946 56.4203   6
  16   4  -8 886.133 61.7060   4
   4  16   8 754.171 50.8603   3
  16  -4  -6 317.463 53.4095   4
  16   4  -6 379.019 52.2719   6
  16   4  -6 200.747 54.7221   4
  16  -4  -4 3063.02 129.026   4
  16   4  -4 2971.85 138.445   6
   4  16   4 3092.40 119.742   3
  16  -4  -2 606.366 63.1985   4
  16  -4  -2 413.931 71.4371   6
  16   4  -2 382.961 71.2183   6
   4  16   2 517.072 63.3615   3
  -4  16   2 504.236 46.2200   5
  16  -4   0 2185.50 120.891   6
   4  16   0 2159.51 110.485   3
  16   4   0 1877.25 115.263   6
  -4  16   0 1923.58 87.9843   5
   4  16  -2 524.758 66.3282   3
  16  -4   2 545.920 63.1565   6
  16   4   2 518.650 68.8582   6
  -4  16  -2 549.870 55.2066   5
   4  16  -4 3098.29 129.026   3
  16   4   4 2881.78 123.021   6
  -4  16  -4 2961.36 112.706   5
   4  16  -6 433.120 55.5613   3
  -4  16  -6 378.880 46.6546   5
  -4  16  -8 1059.38 57.1625   5
   4  16  -8 954.292 56.3238   3
  16  -5  -7 54041.2 440.305   6
  16   5  -7 54966.2 468.165   4
   5  16   7 54289.6 398.791   3
  16  -5  -5 41671.9 423.882   4
  16  -5  -5 40992.9 453.363   6
  16   5  -5 42083.9 477.216   4
  16  -5  -3 51643.9 474.596   4
  16  -5  -3 52651.4 545.293   6
  16   5  -3 52024.0 542.434   6
  -5  16   3 50860.6 388.351   5
  16  -5  -1 28030.5 397.938   6
   5  16   1 28172.8 362.786   3
  -5  16   1 27867.6 316.680   5
   5  16  -1 28004.3 369.310   3
  16  -5   1 29194.4 386.284   6
  16   5   1 28132.0 405.187   6
  -5  16  -1 28116.9 330.402   5
   5  16  -3 55279.3 522.545   3
  16   5   3 53977.6 523.890   6
  -5  16  -3 54500.5 471.096   5
   5  16  -5 45618.1 457.109   3
  16   5   5 44520.4 415.535   6
  -5  16  -5 45046.8 417.658   5
  -5  16  -7 55090.5 418.558   5
   5  16  -7 55908.9 447.602   3
  16  -6  -8 17517.5 197.568   4
   6  16   8 17794.9 183.459   3
  16  -6  -6 36102.5 346.944   4
  16  -6  -6 35611.0 379.799   6
  16   6  -6 36004.8 332.696   6
  16   6  -6 36173.7 393.090   4
  16  -6  -4 53211.8 440.002   4
  16  -6  -4 48000.9 481.861   6
  16   6  -4 52243.3 504.380   6
  16   6  -4 48002.1 507.792   4
   6  16   4 53229.1 446.325   3
  -6  16   4 51864.7 367.354   5
  16  -6  -2 24206.2 355.071   6
  16   6  -2 24013.9 359.616   6
  -6  16   2 23934.4 277.955   5
  16  -6   0 29365.9 377.227   6
  16   6   0 28683.5 403.247   6
  -6  16   0 29312.1 329.405   5
   6  16  -2 25709.3 353.282   3
  16  -6   2 26266.5 316.637   6
  16   6   2 24476.0 357.767   6
  -6  16  -2 24888.7 311.279   5
   6  16  -4 54374.6 504.480   3
  -6  16  -4 53737.0 455.883   5
  -6  16  -6 37811.9 359.084   5
   6  16  -6 39470.9 396.851   3
  -6  16  -8 17502.0 197.749   5
   6  16  -8 17783.8 207.626   3
  16  -7  -7 3986.18 93.9293   4
  16  -7  -7 4142.01 105.622   6
  16   7  -7 3944.28 102.997   4
   7  16   7 4176.99 94.6346   3
  16  -7  -5 9386.23 162.056   4
  16   7  -5 9635.50 185.806   6
  16   7  -5 9780.26 209.139   4
  -7  16   5 9660.87 142.256   5
  16  -7  -3 20871.2 312.687   6
   7  16   3 21493.8 284.904   3
  16   7  -3 21390.9 321.609   6
  -7  16   3 20696.5 241.914   5
  16  -7  -1 11739.4 229.928   6
   7  16   1 11167.3 221.009   3
  16   7  -1 10838.4 240.213   6
  -7  16   1 12104.9 204.069   5
  16  -7   1 12103.0 216.152   6
  16   7   1 11538.2 244.107   6
  -7  16  -1 11408.0 206.290   5
  16   7   3 21201.3 305.740   6
  -7  16  -3 21959.4 286.167   5
   7  16  -5 8828.93 192.068   3
  16   7   5 8497.19 162.090   6
  -7  16  -5 8902.85 176.386   5
  -7  16  -7 3450.10 94.2013   5
   7  16  -7 3319.91 100.221   3
   8  16   6 25368.5 230.778   3
  16   8  -6 25822.7 264.071   4
  16  -8  -4 53015.2 447.850   6
   8  16   4 52917.7 401.681   3
  16   8  -4 52508.8 432.444   6
  16   8  -4 54158.4 473.665   4
  16  -8  -2 46647.7 425.559   6
   8  16   2 46494.4 408.224   3
  16   8  -2 46463.3 457.118   6
  -8  16   2 46482.2 372.307   5
   8  16   0 71199.6 531.275   3
  16  -8   0 72966.9 511.587   6
   8  16  -2 46909.6 433.070   3
  16   8   2 46442.5 450.392   6
  -8  16  -2 47129.4 406.600   5
  16   8   4 51965.3 420.861   6
  -8  16  -4 52081.1 414.348   5
  -8  16  -6 27298.6 260.469   5
  16  -9  -5 11815.4 175.172   6
  16   9  -5 11515.0 174.315   4
  16  -9  -3 18615.6 243.533   6
   9  16   3 19227.5 230.755   3
  16   9  -3 18550.6 250.919   6
  16   9  -3 18937.4 265.544   4
  -9  16   3 18217.5 208.008   5
   9  16   1 7245.37 158.249   3
  16  -9  -1 6926.48 145.905   6
  16   9  -1 6858.83 169.565   6
  16   9   1 6855.23 167.519   6
  -9  16  -1 6605.35 143.240   5
  16   9   3 17428.6 242.022   6
  -9  16  -3 17938.3 230.415   5
   9  16  -5 11810.1 180.900   3
  16 -10  -4 13920.4 171.600   6
  16  10  -4 13741.8 175.508   4
  10  16   2 10883.3 155.439   3
  16 -10  -2 11333.2 161.526   6
  16  10  -2 11106.6 180.635   6
  16  10  -2 11366.5 188.313   4
 -10  16   2 11437.9 159.787   5
  10  16   0 18504.6 221.044   3
  16  10   0 18525.7 248.968   6
  10  16  -2 11112.3 173.377   3
  16  10   2 11137.0 185.232   6
  10  16  -4 14890.6 184.310   3
  16  11  -1 42876.6 310.399   6
  16  11  -1 42631.0 317.182   4
 -11  16   1 43415.5 276.730   5
  17   0  -7 3811.43 109.160   6
   0  17   7 3623.48 93.4292   3
  17   0  -5 7411.87 192.308   4
  17   0  -5 7676.23 198.516   6
   0  17   5 7725.79 155.211   3
  17   0  -3 14540.3 275.955   4
   0  17   3 14243.0 221.538   3
  17   0  -1 25795.4 357.679   4
  17   0  -1 25528.0 385.204   6
   0  17   1 25321.0 304.836   3
   0  17  -1 25371.9 310.216   3
  17   0   1 25017.8 369.159   6
   0  17  -3 14150.0 222.192   3
  17   0   3 14713.8 253.444   6
  17   1  -8 2706.77 90.2410   4
   1  17   8 2343.35 68.2961   3
  17  -1  -6 1449.28 86.2537   4
  17   1  -6 1252.00 84.2646   4
  17  -1  -6 1562.78 86.2066   6
  17   1  -6 1386.85 80.5151   6
  -1  17   6 1228.92 58.9208   3
   1  17   6 1696.36 74.4492   3
  17  -1  -4 7739.87 196.986   4
  17  -1  -4 8034.63 212.182   6
  17   1  -4 7484.61 201.210   4
  17   1  -4 7727.80 202.937   6
  -1  17   4 7780.38 152.666   3
   1  17   4 7833.39 165.791   3
  17  -1  -2 3651.55 136.728   4
  17  -1  -2 3691.11 152.232   6
  17   1  -2 3600.12 141.438   4
  -1  17   2 3522.71 109.753   3
   1  17   2 4016.41 126.112   3
  -1  17   0 5293.58 133.773   3
  17  -1   0 5652.96 155.132   4
   1  17   0 5729.61 156.111   3
  17  -1   0 5641.14 182.715   6
  17   1   0 5489.88 182.505   6
  17   1   0 5543.25 164.878   4
   1  17  -2 4002.19 128.949   3
  17  -1   2 3562.32 136.083   6
  17   1   2 3586.22 139.255   6
   1  17  -4 7623.97 166.386   3
  17  -2  -7 7531.23 160.954   4
  17  -2  -7 7429.50 149.649   6
  17   2  -7 7198.63 163.806   4
  17   2  -7 7370.27 137.855   6
  -2  17   7 6877.03 107.414   3
   2  17   7 7499.59 137.925   3
  17  -2  -5 648.189 63.1764   4
  17  -2  -5 628.500 66.6101   6
  17   2  -5 760.735 71.7757   4
  17   2  -5 685.010 65.5415   6
  -2  17   5 577.452 41.1756   3
   2  17   5 688.465 54.7589   3
  17  -2  -3 3617.70 133.278   4
  17   2  -3 3573.07 146.581   6
  17   2  -3 3644.95 143.844   4
  -2  17   3 3884.22 105.557   3
   2  17   3 3579.15 117.977   3
  17  -2  -1 10319.8 208.613   4
  17  -2  -1 9929.83 239.543   6
   2  17   1 10128.9 201.811   3
  17   2  -1 10266.8 246.201   6
  17   2  -1 9890.95 227.689   4
   2  17  -1 9556.20 202.264   3
  17  -2   1 9643.69 224.787   6
  17   2   1 9254.67 227.763   6
  17   2   1 9466.37 205.888   4
   2  17  -3 3482.24 121.397   3
  17  -2   3 3869.32 126.311   6
  17   2   3 3583.86 130.986   6
   2  17  -5 975.291 62.5606   3
  -2  17  -5 894.123 50.4177   5
  17  -3  -8 2748.35 80.2553   4
  17   3  -8 2991.41 85.9435   4
   3  17   8 2896.15 73.3820   3
  17  -3  -6 6752.87 157.739   4
  17  -3  -6 6794.78 161.963   6
  17   3  -6 6605.35 153.987   6
   3  17   6 6767.09 141.903   3
  17  -3  -4 13919.1 246.491   4
  17   3  -4 14128.6 265.453   6
  17   3  -4 13855.4 266.406   4
   3  17   4 14356.5 225.198   3
  17  -3  -2 8741.79 190.093   4
  17  -3  -2 8664.91 219.982   6
  17   3  -2 8484.77 213.442   4
   3  17   2 8935.93 190.589   3
   3  17   0 13557.7 240.446   3
  17  -3   0 13449.1 265.626   6
  17   3   0 13162.7 269.678   6
  17   3   0 13125.9 253.782   4
   3  17  -2 9299.13 201.182   3
  17  -3   2 9379.06 203.657   6
  17   3   2 8936.87 212.985   6
  17   3   2 9044.36 190.444   4
  -3  17  -2 8872.80 163.307   5
   3  17  -4 14804.7 244.702   3
  17   3   4 15082.0 237.822   6
  -3  17  -4 14760.4 208.449   5
  -3  17  -6 7152.15 130.930   5
   3  17  -6 7042.88 146.667   3
  17  -4  -7 870.330 50.9740   4
  17  -4  -7 949.150 52.8319   6
  17   4  -7 941.067 58.2595   4
  17  -4  -5 1229.76 70.2937   4
  17  -4  -5 1181.06 78.3490   6
  17   4  -5 1106.67 72.2413   6
   4  17   5 1318.11 70.2245   3
  17  -4  -3 563.592 52.3892   4
  17  -4  -3 533.794 64.7591   6
  17   4  -3 609.863 66.6339   6
  17   4  -3 584.143 65.1222   4
   4  17   3 675.761 59.2303   3
  17  -4  -1 527.288 62.8482   6
   4  17   1 487.889 55.6696   3
  17   4  -1 482.386 63.8055   6
  17   4  -1 630.318 66.4748   4
   4  17  -1 494.890 56.3878   3
  17  -4   1 594.968 60.1172   6
  17   4   1 438.031 60.0957   6
  17   4   1 526.912 55.7712   4
  -4  17  -1 547.525 45.5525   5
   4  17  -3 628.644 59.0902   3
  17   4   3 580.735 59.3077   6
  -4  17  -3 639.773 49.1739   5
   4  17  -5 1425.42 76.5598   3
  -4  17  -5 1236.25 61.2610   5
  -4  17  -7 926.457 43.9832   5
  17  -5  -6 10506.2 162.450   4
  17  -5  -6 10728.9 182.699   6
  17   5  -6 11105.6 162.359   6
  17  -5  -4 12027.9 187.584   4
  17   5  -4 12439.2 229.041   6
  17  -5  -2 11456.9 233.273   6
   5  17   2 11755.7 213.013   3
  17   5  -2 11302.4 238.373   6
  17   5  -2 11125.7 233.129   4
  -5  17   2 10782.6 157.694   5
   5  17   0 2940.13 114.684   3
  17  -5   0 2820.65 115.746   6
  17   5   0 2771.20 124.574   6
  17   5   0 2584.95 112.604   4
  -5  17   0 2797.32 92.0337   5
  17   5   2 11393.1 228.791   6
  17   5   2 11116.8 208.016   4
  -5  17  -2 11728.1 189.515   5
   5  17  -4 12608.6 221.534   3
  17   5   4 12741.9 206.395   6
  -5  17  -4 12839.0 191.971   5
  -5  17  -6 11103.8 159.284   5
   5  17  -6 10875.2 176.340   3
  17   6  -5 7944.90 149.555   6
  17   6  -5 7957.83 170.852   4
   6  17   5 8238.81 148.139   3
  17  -6  -3 4485.29 137.418   6
  17   6  -3 4595.61 142.810   6
  17   6  -3 4164.07 138.747   4
  17  -6  -1 3084.58 113.880   6
  17   6  -1 3170.37 122.716   4
  -6  17   1 3123.43 90.9579   5
   6  17  -1 3584.48 121.233   3
  17  -6   1 3613.42 110.163   6
  17   6   1 3144.80 123.248   6
  17   6   1 3227.49 117.485   4
  -6  17  -1 3356.48 100.573   5
   6  17  -3 4757.17 136.183   3
  17   6   3 4524.05 131.128   6
  17   6   3 4390.49 114.614   4
  -6  17  -3 4499.53 114.381   5
  -6  17  -5 8538.70 144.311   5
   6  17  -5 8385.53 163.222   3
  17  -7  -4 2289.50 88.2936   6
   7  17   4 2246.94 79.1607   3
  17   7  -4 2357.35 85.9342   6
  17   7  -4 2419.98 93.3997   4
  17  -7  -2 604.377 51.4695   6
   7  17   2 578.773 50.7788   3
  17   7  -2 607.747 59.3053   6
  17   7  -2 702.844 62.2246   4
  -7  17   2 658.303 40.8714   5
  17  -7   0 161.125 31.4084   6
  17   7   0 193.906 40.5900   4
  17   7   0 127.519 41.3445   6
  -7  17   0 198.322 30.5117   5
  17   7   2 498.038 51.4907   6
  17   7   2 550.452 47.9331   4
  -7  17  -2 566.284 44.2194   5
   7  17  -4 2209.49 87.3372   3
  17   7   4 2226.16 76.5591   6
  -7  17  -4 2450.47 79.4904   5
  17  -8  -3 9791.18 161.872   6
   8  17   3 9442.66 151.579   3
  17   8  -3 9487.36 164.432   6
   8  17   1 9057.62 162.363   3
  17  -8  -1 9295.75 153.573   6
  17   8  -1 9022.16 180.713   6
  17   8  -1 8906.51 177.274   4
  -8  17   1 8983.50 139.703   5
   8  17  -1 8895.28 165.710   3
  17   8   1 9420.58 179.502   6
  17   8   1 9192.83 170.503   4
  -8  17  -1 9374.45 151.106   5
  17   8   3 9135.24 156.673   6
  -8  17  -3 9394.85 145.773   5
   9  17   2 3174.74 80.9773   3
  17   9  -2 3280.26 90.8696   6
   9  17   0 4496.10 103.828   3
  17   9   0 4321.99 109.437   4
  -9  17   0 4291.10 92.5023   5
   9  17  -2 3284.75 87.7408   3
  17   9   2 3066.34 88.4523   6
  -9  17  -2 3150.72 78.8065   5
  18   0  -6 10893.5 174.417   4
  18   0  -6 11281.8 167.758   6
  18   0  -4 35689.9 378.051   6
   0  18   4 35065.0 283.391   3
  18   0  -2 30214.2 333.072   4
   0  18   2 30653.0 285.446   3
  18   0  -2 30275.2 371.741   6
   0  18   0 13711.4 192.307   3
  18   0   0 13864.5 249.530   6
  18   0   2 28631.1 322.532   6
  18  -1  -5 1920.19 79.4524   4
  18   1  -5 1980.66 84.2081   4
  18  -1  -5 1854.77 83.8568   6
  18   1  -5 1823.14 81.6675   6
  18  -1  -3 3793.28 116.753   4
  18   1  -3 3677.18 122.659   4
  -1  18   3 3651.63 89.5770   3
   1  18   3 3829.16 105.059   3
   1  18   1 720.371 51.6180   3
  18   1  -1 599.342 53.0717   4
  18  -1  -1 622.221 64.1114   6
  18   1  -1 492.790 58.9978   6
   1  18  -1 605.880 48.3712   3
  18   1   1 634.112 59.7567   6
   1  18  -3 4072.61 101.836   3
  18   1   3 4179.28 113.268   6
  18  -2  -6 9446.69 147.360   4
  18   2  -6 9618.23 161.851   4
  18  -2  -6 9648.02 151.667   6
   2  18   6 9440.15 133.977   3
  18  -2  -4 15823.4 217.683   4
  18   2  -4 15972.4 243.085   4
  18   2  -4 16050.7 246.953   6
   2  18   4 15661.6 202.280   3
  18  -2  -2 10673.8 174.506   4
  18  -2  -2 10526.8 215.288   6
   2  18   2 10666.6 181.147   3
  18   2  -2 10491.3 204.477   4
   2  18   0 2398.72 90.7655   3
  18  -2   0 2424.70 104.801   6
  18   2   0 2478.22 94.4843   4
  18   2   0 2601.69 111.175   6
   2  18  -2 10132.4 175.110   3
  18  -2   2 10646.9 181.349   6
  18   2   2 10371.0 196.560   6
   2  18  -4 15215.4 190.268   3
  18  -3  -5 19966.7 243.774   6
  18   3  -5 20007.3 248.998   4
  18   3  -5 20435.4 238.763   6
   3  18   5 20063.0 212.821   3
  18  -3  -3 16794.7 202.670   4
  18  -3  -3 17666.7 263.709   6
  18   3  -3 17372.6 256.659   4
  18   3  -3 17236.5 263.399   6
   3  18   3 17680.0 226.984   3
   3  18   1 11094.4 189.656   3
  18  -3  -1 11418.5 214.803   6
  18   3  -1 11242.5 221.826   6
  18   3  -1 10943.5 202.392   4
   3  18  -1 9408.64 176.277   3
  18   3   1 9094.90 163.240   4
  18   3   1 9364.24 196.094   6
   3  18  -3 16082.3 215.435   3
  18   3   3 16004.4 215.375   6
  18   4  -4 221.897 38.0314   4
  18   4  -4 221.121 35.2205   6
  18  -4  -2 1248.38 72.4512   6
   4  18   2 1129.30 62.2594   3
   4  18   0 1230.92 67.6301   3
  18  -4   0 1288.11 69.3276   6
  18   4   0 1251.62 77.8826   6
  18   4   0 1250.65 68.5433   4
   4  18  -2 961.552 59.0738   3
  18   4   2 1040.70 64.7278   6
   4  18  -4 212.889 30.3765   3
  18  -5  -3 16786.6 225.258   6
   5  18   3 16756.4 206.161   3
  18   5  -3 17073.3 232.779   6
  18   5  -3 16955.1 234.314   4
   5  18   1 5823.21 133.704   3
  18  -5  -1 5945.01 135.199   6
  18   5  -1 5693.93 138.197   4
   5  18  -1 4822.22 123.119   3
  18   5   1 4827.53 133.223   6
  18   5   1 4735.00 115.150   4
   5  18  -3 16278.1 209.721   3
  18   5   3 15526.8 194.679   6
  18  -6  -4 11709.6 159.719   6
   6  18   4 10635.0 145.606   3
  18  -6  -2 10073.9 160.101   6
  18   6  -2 10307.8 178.670   6
  18   6  -2 9956.18 173.061   4
   6  18   0 2424.39 84.0878   3
  18   6   0 2383.99 92.2544   6
  18   6   0 2465.74 86.0679   4
   6  18  -2 9826.88 162.659   3
  18   6   2 9611.63 161.774   6
   6  18  -4 11602.8 154.791   3
  18   7  -1 8094.20 142.151   4
  18   7   1 8129.10 144.144   6
  19   0  -1 84439.2 503.842   6
  19   0   1 82685.1 451.367   6
  19  -1  -4 9315.07 143.288   6
  19   1  -4 9109.43 141.197   6
  19  -1  -2 9573.82 165.388   6
  19   1  -2 9301.31 165.877   6
  19  -1   0 8095.81 147.282   6
  19   1   0 7897.77 152.744   6
  19  -2  -3 15390.1 193.698   6
  19   2  -3 14634.5 192.446   6
  19  -2  -1 37469.3 315.184   6
  19   2  -1 37554.1 329.203   6
  19   2   1 37391.7 306.188   6
  19  -3  -2 27948.3 254.288   6
   3  19   0 61728.2 344.964   3
  19   3   0 64555.2 409.731   6
  19   4  -1 465.360 38.7322   6
   0   0   0    0.00    0.00   0

TITL 170329m in I-4m2
REM I-4m2 (#119 in standard setting)
CELL 1.54184  15.636160  15.636160  13.951473  90.0000  90.0000  90.0000
ZERR    8.00   0.000081   0.000081   0.000114   0.0000   0.0000   0.0000
LATT -2
SYMM -x,-y, z
SYMM  y,-x,-z
SYMM -y, x,-z
SYMM  x,-y, z
SYMM -x, y, z
SYMM  y, x,-z
SYMM -y,-x,-z
SFAC C H N O Zn
UNIT 100.00 84.00 44.00 44.00 8.00
TREF
HKLF 4
END
;
_shelx_hkl_checksum              65561
_shelx_fab_file
;
    0    2    0    140.41     -0.08
    1    3    0      3.04     -0.09
    3    3    0     -5.19     -0.07
    0    4    0     51.05      0.00
    4    4    0     18.44      0.00
    1    5    0     -6.25      0.00
    3    5    0    -11.91      0.00
    5    5    0    -11.02     -0.03
    0    6    0      9.10      0.09
    2    6    0      8.71      0.02
    4    6    0      7.33     -0.05
    6    6    0      1.85     -0.03
    3    7    0    -10.51      0.01
    5    7    0     -8.18     -0.03
    7    7    0     -6.70     -0.02
    0    8    0     -9.45      0.00
    2    8    0     -1.96     -0.02
    4    8    0      5.10     -0.01
    6    8    0      0.91      0.01
    8    8    0      0.49      0.00
    5    9    0     -3.50      0.05
    7    9    0     -4.82      0.04
    9    9    0     -6.12     -0.04
    0   10    0     -1.71     -0.09
    4   10    0      6.41      0.04
    6   10    0      1.41      0.05
    8   10    0     -0.35      0.00
   10   10    0     -1.61     -0.05
    1   11    0      0.51     -0.02
    3   11    0     -1.15     -0.02
    5   11    0     -1.63      0.04
    7   11    0     -3.49      0.03
    9   11    0     -5.04     -0.04
   11   11    0     -5.99     -0.03
    0   12    0     11.68     -0.02
    2   12    0      9.01     -0.05
    4   12    0      4.70      0.00
    6   12    0     -0.35      0.04
    8   12    0     -3.69      0.00
   10   12    0     -3.24     -0.05
   12   12    0     -1.49     -0.02
    1   13    0     -0.55      0.02
    3   13    0      0.32      0.00
    5   13    0     -0.84     -0.02
    7   13    0     -2.23     -0.01
    9   13    0     -3.47      0.03
   11   13    0     -4.40      0.02
   13   13    0     -2.23     -0.01
    0   14    0     11.79      0.06
    2   14    0      8.98      0.00
    4   14    0      5.06     -0.04
    6   14    0      0.92     -0.02
    8   14    0     -1.98      0.00
   10   14    0     -1.45      0.00
   12   14    0     -0.60      0.02
    1   15    0      1.34      0.02
    3   15    0      0.20      0.00
    5   15    0     -1.03     -0.01
    7   15    0     -1.20      0.00
    9   15    0     -1.95      0.03
   11   15    0     -1.71      0.02
    0   16    0      7.59      0.00
    2   16    0      5.69      0.02
    4   16    0      3.23     -0.01
    6   16    0      0.88     -0.04
    8   16    0     -0.79      0.00
   10   16    0     -0.59      0.03
    1   17    0     -0.15     -0.03
    3   17    0     -0.55     -0.02
    5   17    0     -1.83      0.03
    7   17    0     -1.42      0.02
    9   17    0     -0.58     -0.01
    0   18    0      5.13     -0.07
    2   18    0      3.10     -0.01
    4   18    0      1.08      0.03
    6   18    0      0.57      0.00
    1   19    0      0.42     -0.03
    3   19    0     -0.17     -0.01
    0    1    1    -45.51     29.30
    0    3    1    -13.20     -7.68
    0    5    1      9.41    -18.81
    0    7    1     12.16    -21.16
    0    9    1      9.94    -19.62
    0   11    1      2.10     -8.41
    0   13    1     -1.75     -2.22
    0   15    1     -1.22     -3.47
    0   17    1     -0.77     -3.65
    0   19    1      0.03     -2.64
    1    2    1    -41.73    -23.00
    1    4    1    -24.31    -14.93
    1    6    1     -8.56    -10.42
    1    8    1     -5.21     -0.36
    1   10    1     -3.82      1.31
    1   12    1     -2.02     -3.45
    1   14    1     -0.17     -2.46
    1   16    1      0.63     -2.77
    1   18    1      0.29     -1.66
    2    3    1    -13.66     -2.81
    2    5    1      8.68    -13.20
    2    7    1     12.59    -16.23
    2    9    1      9.50    -13.72
    2   11    1      1.73     -6.97
    2   13    1     -1.95     -2.70
    2   15    1     -1.94     -2.62
    2   17    1     -1.38     -3.31
    2   19    1     -0.14     -2.28
    3    4    1     -9.91     -3.04
    3    6    1     -7.49     -6.26
    3    8    1     -6.60     -5.04
    3   10    1     -3.84     -2.75
    3   12    1     -2.37     -1.82
    3   14    1     -0.46     -0.51
    3   16    1      0.83     -0.76
    3   18    1      0.79     -0.14
    4    5    1      6.34     -5.63
    4    7    1     10.63     -9.98
    4    9    1      7.44     -7.61
    4   11    1      1.92     -5.59
    4   13    1     -0.84     -2.79
    4   15    1     -2.06     -1.01
    4   17    1     -1.79     -1.52
    5    6    1      0.70     -0.59
    5    8    1     -1.35     -2.85
    5   10    1     -1.06     -1.47
    5   12    1     -2.22     -0.89
    5   14    1     -1.02      0.48
    5   16    1      0.21      0.52
    5   18    1      0.64     -0.11
    6    7    1      4.58     -4.57
    6    9    1      3.67     -4.40
    6   11    1      2.07     -4.06
    6   13    1      0.68     -2.09
    6   15    1     -0.92     -0.31
    6   17    1     -0.95      0.10
    7    8    1      1.69      1.35
    7   10    1      0.26      0.89
    7   12    1     -1.16      0.51
    7   14    1     -0.21      1.70
    7   16    1     -0.09      1.46
    7   18    1      0.11     -0.02
    8    9    1      1.86     -0.38
    8   11    1      1.80     -1.68
    8   13    1      1.30     -1.28
    8   15    1      0.49      0.28
    8   17    1      0.24      0.25
    9   10    1      1.09     -0.83
    9   12    1      0.82      0.11
    9   14    1      1.10      1.25
    9   16    1      0.17      1.19
   10   11    1      1.47      0.54
   10   13    1      1.82      0.76
   10   15    1      1.58      0.98
   11   12    1      1.28     -0.97
   11   14    1      0.66      0.11
   12   13    1      1.55      1.18
   12   15    1      1.23      0.21
   13   14    1      0.38     -0.25
   11   16    1      0.01      0.44
    4   19    1     -0.36     -0.84
    0    0    2     17.98     -0.06
    0    2    2     15.76      4.32
    0    4    2      2.68     14.98
    0    6    2     -6.21     14.99
    0    8    2     -0.76      9.86
    0   10    2      1.70      5.12
    0   12    2     -0.99     -1.78
    0   14    2     -2.55     -2.20
    0   16    2     -1.91     -0.27
    0   18    2     -0.52      1.08
    1    5    2     -8.08      5.76
    1    7    2     -8.04      7.19
    1    9    2     -7.62      9.27
    1   11    2     -5.29      5.77
    1   13    2     -4.26      2.60
    1   15    2     -3.41      2.20
    1   17    2     -2.15      1.90
    2    2    2     12.86     -0.12
    2    4    2      2.81     12.18
    2    6    2     -3.16     15.33
    2    8    2     -0.49     11.11
    2   10    2      1.17      5.69
    2   12    2      0.30     -1.20
    2   14    2     -1.20     -2.08
    2   16    2     -0.73     -0.62
    2   18    2      0.12      0.90
    3    5    2     -7.36      2.94
    3    7    2     -5.96      3.96
    3    9    2     -4.39      6.50
    3   11    2     -3.52      4.30
    3   13    2     -2.23      2.81
    3   15    2     -1.29      3.12
    3   17    2     -1.21      2.17
    4    4    2      1.40     -0.01
    4    6    2      0.75      8.01
    4    8    2      1.14      7.25
    4   10    2      1.41      3.70
    4   12    2      1.36     -0.44
    4   14    2      0.42     -1.19
    4   16    2      0.78     -0.82
    4   18    2      0.40      0.44
    5    5    2     -4.96      0.00
    5    7    2     -1.80      0.45
    5    9    2     -2.08      2.54
    5   11    2     -1.58      1.44
    5   13    2     -0.19      1.77
    5   15    2     -0.31      2.66
    5   17    2     -0.09      1.70
    6    6    2      3.01     -0.05
    6    8    2      3.74      1.61
    6   10    2      2.65      0.97
    6   12    2      1.20      0.00
    6   14    2      0.75     -0.05
    6   16    2      0.97     -0.11
    6   18    2      0.04      0.44
    7    7    2      1.07     -0.05
    7    9    2      0.09      1.14
    7   11    2      0.03      0.57
    7   13    2      0.15      1.25
    7   15    2     -0.49      1.05
    7   17    2      0.14      0.04
    8    8    2      3.21      0.01
    8   10    2      1.53     -0.43
    8   12    2      0.85     -1.35
    8   14    2      0.18     -1.14
    8   16    2      0.19     -0.38
    9    9    2      1.41     -0.06
    9   11    2      1.11      0.01
    9   13    2      0.15      0.40
    9   15    2     -0.12     -0.52
    9   17    2      0.22     -0.91
   10   10    2      0.58      0.03
   10   12    2      0.49     -1.40
   10   14    2     -0.35     -1.22
   10   16    2     -0.35     -0.52
   11   11    2      0.86     -0.04
   11   13    2     -0.17     -0.40
   11   15    2     -0.31     -1.20
   12   12    2     -0.13     -0.03
   12   14    2     -0.62      0.10
   13   13    2     -0.54      0.04
    1   19    2     -1.87      1.03
    3   19    2     -0.94      0.67
    0    1    3      9.27     -3.60
    0    3    3      9.88     -7.71
    0    5    3      2.44    -15.74
    0    7    3      1.13    -13.07
    0    9    3     -0.04     -3.90
    0   11    3      1.24      0.69
    0   13    3      3.83      2.75
    0   15    3      3.27      0.11
    0   17    3      1.05     -2.58
    1    2    3      9.14     -0.61
    1    4    3      9.01     -2.80
    1    6    3      7.50     -1.26
    1    8    3     -0.38      0.19
    1   10    3     -2.12      2.31
    1   12    3      2.72      2.42
    1   14    3      2.99      1.53
    1   16    3      2.16      0.72
    1   18    3      1.28      0.33
    2    3    3      9.61     -4.77
    2    5    3      2.51    -12.17
    2    7    3      0.99    -10.94
    2    9    3     -0.06     -4.08
    2   11    3      1.30      0.07
    2   13    3      3.53      1.53
    2   15    3      2.75     -0.82
    2   17    3      0.31     -2.39
    3    4    3      7.65      1.60
    3    6    3      5.25      0.45
    3    8    3      0.10      1.00
    3   10    3     -0.78      1.20
    3   12    3      1.62      0.47
    3   14    3      0.38      0.55
    3   16    3      0.33      0.36
    3   18    3      0.72      0.59
    4    5    3     -0.30     -6.13
    4    7    3     -2.99     -6.65
    4    9    3     -3.11     -3.79
    4   11    3     -0.46     -1.80
    4   13    3      1.81     -1.25
    4   15    3      1.67     -1.94
    4   17    3      0.03     -1.87
    5    6    3     -2.12      1.95
    5    8    3     -2.12      0.38
    5   10    3     -0.17     -0.29
    5   12    3      1.20     -0.17
    5   14    3     -0.64      0.35
    5   16    3     -0.76      0.53
    5   18    3     -0.30      1.17
    6    7    3     -5.38     -2.97
    6    9    3     -5.18     -2.85
    6   11    3     -1.98     -2.96
    6   13    3     -0.04     -2.30
    6   15    3      0.39     -1.08
    6   17    3      0.13     -0.53
    7    8    3     -3.52      1.25
    7   10    3     -0.75      0.37
    7   12    3      0.08      0.30
    7   14    3     -0.92      0.50
    7   16    3     -0.38      0.68
    8    9    3     -4.16     -2.23
    8   11    3     -2.17     -2.44
    8   13    3     -0.73     -1.70
    8   15    3     -0.51     -0.37
    8   17    3     -0.45      0.25
    9   10    3     -2.90      0.82
    9   12    3     -2.78     -0.29
    9   14    3     -2.51      0.01
    9   16    3     -0.62      0.75
   10   11    3     -2.07     -0.66
   10   13    3     -0.48     -0.62
   10   15    3     -0.30     -0.37
   11   12    3     -2.14     -0.89
   11   14    3     -1.52     -0.71
   12   13    3     -0.34      0.61
   12   15    3     -0.22     -0.06
   13   14    3      0.04     -0.30
    2   19    3     -0.78     -1.48
    0    0    4    -29.35      0.02
    0    2    4    -26.29      3.27
    0    4    4    -15.34      4.24
    0    6    4     -1.65      4.04
    0    8    4      2.16      2.24
    0   10    4      0.29     -3.44
    0   12    4     -4.48     -4.81
    0   14    4     -7.75     -2.30
    0   16    4     -4.32      0.35
    1    1    4    -15.47      0.06
    1    3    4     -6.56      4.50
    1    5    4     -0.70      5.18
    1    7    4      3.69     -0.96
    1    9    4      2.90     -6.48
    1   11    4      1.13     -4.35
    1   13    4      0.38     -1.99
    1   15    4      0.06     -1.33
    1   17    4     -0.76     -0.07
    2    2    4    -22.32      0.15
    2    4    4    -11.55      0.82
    2    6    4      0.35      0.21
    2    8    4      2.92     -0.34
    2   10    4      0.19     -3.44
    2   12    4     -3.85     -3.15
    2   14    4     -6.10     -0.53
    2   16    4     -3.16      0.85
    2   18    4     -0.78     -0.07
    3    3    4     -1.86     -0.13
    3    5    4      1.58      2.09
    3    7    4      4.03     -1.05
    3    9    4      2.70     -4.79
    3   11    4      1.79     -2.99
    3   13    4      1.04     -1.31
    3   15    4      0.84     -0.49
    3   17    4      0.27      0.88
    4    4    4     -5.13     -0.01
    4    6    4      0.49     -2.11
    4    8    4      1.08     -2.56
    4   10    4     -1.08     -2.85
    4   12    4     -2.34     -1.32
    4   14    4     -2.19      0.78
    4   16    4     -0.23      1.43
    4   18    4      0.64      0.06
    5    5    4      4.59      0.00
    5    7    4      5.63      0.02
    5    9    4      3.09     -1.20
    5   11    4      2.84     -0.05
    5   13    4      2.35      0.54
    5   15    4      1.65      0.22
    5   17    4      0.88      0.09
    6    6    4     -0.37     -0.07
    6    8    4     -0.64     -2.08
    6   10    4     -0.94     -2.51
    6   12    4     -0.18     -1.65
    6   14    4      0.86     -0.61
    6   16    4      1.42      0.74
    6   18    4      0.96      0.57
    7    7    4      5.81      0.05
    7    9    4      3.85      0.67
    7   11    4      4.71      1.73
    7   13    4      4.54      1.56
    7   15    4      2.84      0.68
    7   17    4      1.20     -0.27
    8    8    4     -0.09     -0.09
    8   10    4      0.82     -0.68
    8   12    4      1.68      0.33
    8   14    4      1.33      0.37
    8   16    4      0.50      0.30
    9    9    4      3.73     -0.02
    9   11    4      4.56      1.10
    9   13    4      4.25      0.91
    9   15    4      2.40      0.62
   10   10    4      2.62      0.07
   10   12    4      2.65      1.69
   10   14    4      0.78      1.55
   10   16    4     -0.23      0.33
   11   11    4      3.94     -0.01
   11   13    4      3.22      0.33
   11   15    4      1.23      0.47
   12   12    4      1.38     -0.04
   12   14    4     -0.14      0.35
   13   13    4      2.31     -0.02
    0   18    4     -1.37      0.37
    1   19    4     -0.89      0.24
    0    1    5      6.85      1.96
    0    3    5      1.73      3.53
    0    5    5     -2.82      6.32
    0    7    5     -6.71      9.67
    0    9    5     -4.29      9.87
    0   11    5      0.38     10.07
    0   13    5      1.05      6.55
    0   15    5      0.19      2.83
    1    2    5      4.89     -2.67
    1    4    5      1.35     -3.85
    1    6    5      1.21     -0.28
    1    8    5      1.91      3.53
    1   10    5      0.22      4.68
    1   12    5     -0.81      4.42
    1   14    5     -0.67      3.49
    1   16    5     -0.53      2.37
    2    3    5      0.12      3.53
    2    5    5     -3.17      5.57
    2    7    5     -6.11      8.42
    2    9    5     -4.01      8.04
    2   11    5      0.30      8.38
    2   13    5      0.60      5.47
    2   15    5     -0.23      1.60
    2   17    5     -0.85      0.16
    3    4    5     -3.21     -3.42
    3    6    5     -3.23     -0.12
    3    8    5     -0.49      2.70
    3   10    5      0.44      3.47
    3   12    5      0.51      2.51
    3   14    5      0.61      1.13
    3   16    5     -0.55      0.79
    4    5    5     -4.31      3.17
    4    7    5     -4.62      5.31
    4    9    5     -3.23      5.22
    4   11    5     -0.17      5.29
    4   13    5      0.30      3.32
    4   15    5     -0.55      0.19
    4   17    5     -0.91     -1.06
    5    6    5     -3.72      1.07
    5    8    5     -0.65      2.13
    5   10    5      1.13      2.43
    5   12    5      0.17      1.92
    5   14    5     -0.67     -0.77
    5   16    5     -0.91     -1.42
    6    7    5     -2.40      1.19
    6    9    5     -1.83      2.12
    6   11    5     -0.79      1.57
    6   13    5      0.10      0.61
    6   15    5     -0.33     -0.44
    6   17    5     -1.00     -1.28
    7    8    5      0.42     -0.12
    7   10    5      1.57      0.94
    7   12    5     -0.17      1.50
    7   14    5     -1.20     -1.01
    7   16    5     -0.67     -1.91
    8    9    5      0.12      0.66
    8   11    5     -0.72      0.32
    8   13    5     -0.68     -0.14
    8   15    5     -0.36     -0.63
    9   10    5      0.92     -0.26
    9   12    5      0.05      0.07
    9   14    5      0.03     -0.52
    9   16    5      0.32     -0.84
   10   11    5     -0.39      1.07
   10   13    5     -0.53      0.40
   10   15    5      0.10     -0.34
   11   12    5     -0.80     -0.47
   11   14    5     -0.54     -0.02
   12   13    5     -0.40     -0.11
    0   17    5     -1.20      1.12
    1   18    5     -0.25      0.47
    3   18    5     -1.09     -0.05
    0    0    6     -1.82     -0.02
    0    2    6     -2.16     -0.77
    0    4    6     -1.48     -1.12
    0    6    6     -0.47     -2.81
    0    8    6      1.25     -4.24
    0   10    6      0.04     -2.50
    0   12    6     -2.44     -2.95
    0   14    6     -1.55     -1.13
    0   16    6     -0.01      0.77
    1    1    6     13.95      0.14
    1    3    6     15.15      0.98
    1    5    6     13.04      0.89
    1    7    6      7.76      0.36
    1    9    6      4.76     -2.96
    1   11    6      3.45     -2.71
    1   13    6      3.09     -0.88
    1   15    6      2.79     -0.30
    2    2    6     -2.18     -0.07
    2    4    6     -1.57     -0.30
    2    6    6     -1.33     -1.69
    2    8    6      0.11     -3.25
    2   10    6     -0.85     -1.85
    2   12    6     -3.46     -2.58
    2   14    6     -2.18     -1.37
    2   16    6      0.05      0.84
    3    3    6     13.84      0.00
    3    5    6     10.08      0.39
    3    7    6      5.18      0.90
    3    9    6      2.43     -1.15
    3   11    6      1.25     -1.34
    3   13    6      1.76      0.15
    3   15    6      2.05      0.72
    3   17    6      1.76      0.40
    4    4    6     -0.64     -0.02
    4    6    6     -1.17     -0.30
    4    8    6     -2.03     -1.72
    4   10    6     -2.91     -1.52
    4   12    6     -4.18     -1.90
    4   14    6     -2.49     -0.92
    4   16    6      0.29      0.71
    5    5    6      4.47      0.04
    5    7    6      1.20      1.18
    5    9    6      0.93      1.64
    5   11    6     -0.49      1.51
    5   13    6      0.01      0.89
    5   15    6      1.06      0.87
    5   17    6      0.63      0.33
    6    6    6     -2.97     -0.05
    6    8    6     -6.00     -1.27
    6   10    6     -5.87     -1.98
    6   12    6     -4.45     -1.27
    6   14    6     -2.48      0.16
    6   16    6     -0.08      0.64
    7    7    6     -0.62     -0.06
    7    9    6     -0.60      1.86
    7   11    6     -1.59      1.97
    7   13    6     -0.77      0.65
    7   15    6      0.40      0.52
    8    8    6     -7.77      0.02
    8   10    6     -5.87     -0.82
    8   12    6     -4.02     -0.46
    8   14    6     -2.15     -0.14
    8   16    6     -0.55      0.13
    9    9    6     -1.85     -0.01
    9   11    6     -1.52      0.15
    9   13    6     -0.27      0.02
    9   15    6      0.14      0.71
   10   10    6     -3.51      0.04
   10   12    6     -2.25     -0.07
   10   14    6     -1.21     -0.53
   11   11    6     -0.59     -0.02
   11   13    6      0.06     -0.35
   12   12    6     -0.83     -0.03
    1   17    6      2.19      0.41
    0   18    6      1.56     -0.51
    2   18    6      1.44      0.08
    0    1    7     -1.62      3.99
    0    3    7     -2.62      1.74
    0    5    7     -2.20      1.08
    0    7    7     -0.86      1.47
    0    9    7     -0.71      1.35
    0   11    7      1.25      1.18
    0   13    7      2.55      1.34
    0   15    7      0.24      0.17
    1    2    7     -1.60     -4.27
    1    4    7     -2.20     -6.35
    1    6    7     -3.42     -8.68
    1    8    7     -1.46     -6.98
    1   10    7     -0.30     -4.16
    1   12    7     -0.86     -3.87
    1   14    7     -0.58     -2.79
    1   16    7     -1.56     -1.26
    2    3    7     -2.29      2.38
    2    5    7     -2.03      1.51
    2    7    7     -0.85      1.71
    2    9    7     -0.62      2.14
    2   11    7      1.02      1.71
    2   13    7      2.23      0.78
    2   15    7     -0.17     -0.50
    3    4    7     -1.33     -4.77
    3    6    7     -1.13     -6.94
    3    8    7     -0.13     -6.09
    3   10    7      0.02     -4.76
    3   12    7     -0.68     -4.29
    3   14    7     -0.66     -2.54
    3   16    7     -0.85     -1.09
    4    5    7     -0.51      4.14
    4    7    7      0.59      2.73
    4    9    7      1.34      1.92
    4   11    7      2.05      1.51
    4   13    7      1.97      0.02
    4   15    7     -0.47     -0.82
    4   17    7     -0.51     -0.23
    5    6    7      1.02     -6.15
    5    8    7      1.50     -4.27
    5   10    7      0.52     -3.23
    5   12    7     -0.01     -3.53
    5   14    7     -0.35     -1.97
    5   16    7     -0.72     -0.84
    6    7    7      2.53      3.39
    6    9    7      3.55      1.53
    6   11    7      2.97      1.67
    6   13    7      1.32      1.02
    6   15    7     -0.62      0.83
    7    8    7      3.31     -2.40
    7   10    7      2.35     -1.61
    7   12    7      1.63     -1.51
    7   14    7      0.49     -1.01
    7   16    7     -0.07     -0.26
    8    9    7      3.81      3.01
    8   11    7      2.22      3.12
    8   13    7      0.81      2.44
    8   15    7     -0.25      2.21
    9   10    7      2.74     -2.57
    9   12    7      1.59     -0.85
    9   14    7      0.17     -0.71
   10   11    7      1.11      2.43
   10   13    7      0.38      1.88
   11   12    7      0.29     -0.81
   11   14    7     -0.18     -0.49
   12   13    7     -0.08      0.84
    0   17    7      0.38     -0.01
    2   17    7     -0.22     -0.51
    0    0    8     -7.61     -0.07
    0    2    8     -5.46     -0.43
    0    4    8     -4.49     -0.60
    0    6    8     -4.38      0.44
    0    8    8     -2.02      1.62
    0   10    8     -1.56      1.37
    0   12    8     -1.33      0.67
    0   14    8     -0.25     -0.05
    0   16    8      1.12      0.66
    1    1    8      0.42      0.00
    1    3    8      2.31      1.48
    1    5    8      5.23      1.72
    1    7    8      3.17      1.13
    1    9    8     -0.28     -0.42
    1   11    8     -0.06     -1.64
    1   13    8      1.33     -0.27
    1   15    8      1.55     -0.31
    2    2    8     -3.82     -0.01
    2    4    8     -3.02     -0.38
    2    6    8     -2.56      0.34
    2    8    8     -1.07      1.55
    2   10    8     -1.46      1.72
    2   12    8     -1.07      1.55
    2   14    8     -0.06      0.50
    2   16    8      0.76      0.25
    3    3    8      4.33      0.00
    3    5    8      5.65      1.04
    3    7    8      2.91      1.55
    3    9    8     -0.08      1.23
    3   11    8     -0.65      0.59
    3   13    8     -0.37      1.10
    3   15    8      0.02      0.68
    4    4    8     -1.57      0.01
    4    6    8     -0.17      0.07
    4    8    8      0.65      0.99
    4   10    8     -1.21      1.69
    4   12    8     -1.17      2.14
    4   14    8      0.02      1.02
    4   16    8      0.20     -0.01
    5    5    8      4.57      0.01
    5    7    8      1.19      1.08
    5    9    8     -1.19      1.35
    5   11    8     -1.10      1.20
    5   13    8     -0.71      1.16
    5   15    8     -0.49      0.21
    6    6    8      1.36     -0.03
    6    8    8      1.39      0.36
    6   10    8     -0.90      0.61
    6   12    8     -0.99      0.80
    6   14    8      0.25      0.32
    6   16    8      0.32      0.03
    7    7    8      0.16      0.01
    7    9    8     -0.21      0.17
    7   11    8     -0.07     -0.16
    7   13    8      0.59     -0.36
    7   15    8      0.47     -0.89
    8    8    8      0.29      0.01
    8   10    8     -0.90     -0.36
    8   12    8     -0.12     -0.64
    8   14    8      0.26     -0.74
    9    9    8      0.36     -0.02
    9   11    8     -0.17     -0.90
    9   13    8      0.57     -1.22
   10   10    8     -0.69      0.00
   10   12    8     -0.06     -0.61
   10   14    8     -0.18     -0.83
   11   11    8     -0.44      0.01
   11   13    8      0.14     -0.35
   12   12    8     -0.13     -0.01
    1   17    8      1.53     -0.77
    3   17    8      0.78      0.07
    0    1    9      3.48     -0.89
    0    3    9      2.69      1.34
    0    5    9      1.10      0.67
    0    7    9     -2.60      0.58
    0    9    9     -3.82     -1.04
    0   11    9     -2.03     -1.64
    0   13    9     -0.58     -0.79
    0   15    9     -0.09     -1.06
    1    2    9      2.03      1.26
    1    4    9     -0.34      2.68
    1    6    9     -0.39      1.97
    1    8    9      0.98     -0.27
    1   10    9      2.02     -1.01
    1   12    9      1.61     -1.38
    1   14    9     -0.44     -1.87
    1   16    9     -1.52     -1.37
    2    3    9      1.13      0.49
    2    5    9     -0.63      0.31
    2    7    9     -2.61      0.37
    2    9    9     -1.81     -1.19
    2   11    9     -0.02     -1.22
    2   13    9      0.63     -0.13
    2   15    9      0.64     -0.64
    3    4    9     -0.25      0.53
    3    6    9      0.42     -0.49
    3    8    9      0.44     -1.82
    3   10    9      0.75     -2.65
    3   12    9      1.28     -2.89
    3   14    9      0.16     -2.03
    4    5    9     -1.61      0.92
    4    7    9     -1.73      1.84
    4    9    9      0.48      0.12
    4   11    9      1.33     -0.76
    4   13    9      0.82     -0.17
    4   15    9      0.54     -0.52
    5    6    9     -0.48     -2.56
    5    8    9     -0.38     -3.05
    5   10    9     -0.07     -2.98
    5   12    9      0.58     -2.21
    5   14    9      0.27     -1.05
    6    7    9     -0.78      3.65
    6    9    9     -0.19      1.63
    6   11    9     -0.30     -0.53
    6   13    9     -0.68     -0.62
    6   15    9     -0.63     -0.47
    7    8    9     -0.43     -3.29
    7   10    9     -0.23     -2.99
    7   12    9     -0.48     -2.13
    7   14    9     -0.37     -1.20
    8    9    9     -0.93      1.55
    8   11    9     -0.97      0.14
    8   13    9     -0.78      0.09
    9   10    9     -0.99     -1.76
    9   12    9     -1.27     -1.17
    9   14    9     -0.73     -0.75
   10   11    9     -0.57      0.23
   10   13    9     -0.09      0.18
   11   12    9     -0.42      0.49
    3   16    9     -0.72     -0.58
    0    0   10     -1.60      0.04
    0    2   10     -2.80     -0.75
    0    4   10     -2.68     -1.96
    0    6   10     -1.16     -3.02
    0    8   10      0.88     -2.33
    0   10   10      1.91      0.22
    0   12   10      0.62      1.33
    0   14   10      1.07      0.70
    1    3   10     -4.28     -0.35
    1    5   10     -2.44      0.44
    1    7   10     -2.35      1.16
    1    9   10     -2.40      0.25
    1   11   10     -2.14      0.27
    1   13   10     -1.13      0.58
    1   15   10      0.39     -0.76
    2    2   10     -3.48      0.03
    2    4   10     -2.85     -2.20
    2    6   10     -0.94     -3.83
    2    8   10      1.21     -2.20
    2   10   10      1.71      0.57
    2   12   10     -0.03      1.69
    2   14   10      0.43      1.21
    3    3   10     -3.30      0.01
    3    5   10     -2.61      1.46
    3    7   10     -3.50      0.92
    3    9   10     -3.39     -1.31
    3   11   10     -2.07     -0.85
    3   13   10     -0.89     -0.42
    3   15   10      0.12     -1.29
    4    4   10     -1.20      0.02
    4    6   10      1.03     -2.56
    4    8   10      1.92     -1.15
    4   14   10      0.63      1.34
    5    5   10     -2.42      0.00
    5    7   10     -2.06      0.18
    5    9   10     -0.81     -0.71
    5   11   10     -0.26      0.79
    5   13   10     -0.67      1.28
    5   15   10     -0.67      0.05
    6    6   10      2.15     -0.06
    6    8   10      1.43     -0.38
    6   10   10      1.26     -0.37
    6   12   10      0.81      0.58
    6   14   10      0.98      0.99
    7    7   10      0.28      0.06
    7    9   10      1.69     -0.16
    7   11   10      1.47      0.44
    7   13   10      0.22      0.77
    8    8   10      1.30     -0.03
    8   10   10      1.86     -0.19
    8   12   10      0.94      0.92
    9    9   10      1.86      0.08
    9   11   10      1.34     -0.51
    9   13   10      0.35     -0.31
   10   10   10      2.78     -0.07
   10   12   10      1.59      0.49
   11   11   10      0.54      0.07
    0    1   11      3.04     -6.22
    0    3   11      2.70     -3.79
    0    5   11      2.66     -2.11
    0    7   11      1.35     -1.96
    0    9   11      0.59     -0.60
    0   11   11     -0.34     -0.66
    0   13   11     -0.06      0.45
    1    2   11      2.50      6.95
    1    4   11      1.21      8.08
    1    6   11      0.21      6.75
    1    8   11      0.33      3.46
    1   10   11      0.54      1.54
    1   12   11     -0.16      1.34
    1   14   11     -0.27      1.35
    2    3   11      2.50     -3.76
    2    5   11      3.35     -1.33
    2    7   11      2.12     -0.45
    2    9   11      1.11      1.01
    2   11   11     -0.19      0.18
    2   13   11     -0.96      0.33
    3    4   11      0.85      4.34
    3    6   11     -0.73      4.26
    3    8   11     -0.23      2.83
    3   10   11      0.01      1.85
    3   12   11     -0.14      1.46
    3   14   11      0.75      1.14
    4    5   11      2.73     -0.15
    4    7   11      2.40      1.25
    4    9   11      1.99      1.45
    4   11   11      1.16      0.07
    4   13   11     -0.43     -0.42
    5    6   11      0.69      0.39
    5    8   11      0.26      2.33
    5   10   11     -0.03      2.87
    5   12   11     -0.48      1.47
    6    7   11      0.54      0.31
    6    9   11      0.63     -0.48
    6   11   11      0.88     -1.07
    6   13   11      0.35     -1.31
    7    8   11     -0.72      2.15
    7   10   11     -0.78      2.56
    7   12   11     -1.02      0.91
    8    9   11     -1.33     -1.43
    8   11   11     -0.97     -1.09
    9   10   11     -1.21      1.53
    9   12   11     -1.04      0.58
   10   11   11     -0.79     -1.23
    5   14   11      0.59      0.55
    0   15   11      0.81      1.56
    0    0   12      6.23      0.01
    0    2   12      2.95     -2.99
    0    4   12     -1.34     -4.58
    0    6   12     -0.51     -2.26
    0    8   12      0.14      0.44
    0   10   12      0.21      1.12
    0   12   12      1.17     -0.46
    1    1   12     -0.18     -0.05
    1    3   12      0.30      0.49
    1    5   12      0.16      0.02
    1    7   12      1.26     -0.10
    1    9   12      3.49      1.17
    1   11   12      1.98      0.79
    1   13   12     -0.75      0.17
    2    2   12      0.03     -0.14
    2    4   12     -2.59     -1.85
    2    6   12     -0.12     -0.68
    2    8   12      0.74      0.41
    2   10   12      0.57      0.79
    2   12   12      1.19     -0.53
    3    3   12      0.48      0.14
    3    5   12     -0.86     -1.35
    3    7   12     -0.85     -1.94
    3    9   12      1.10     -0.28
    3   11   12      0.78      0.22
    3   13   12     -0.45      0.64
    4    4   12     -3.42      0.00
    4    6   12     -1.08     -0.24
    4    8   12      0.61     -1.03
    4   10   12      1.09     -0.84
    4   12   12      1.09     -1.25
    5    5   12     -0.78      0.01
    5    7   12     -0.56     -1.92
    5    9   12     -0.49     -1.29
    5   11   12     -0.03     -0.56
    5   13   12     -0.14      0.21
    6    6   12     -2.04     -0.01
    6    8   12     -0.50     -1.09
    6   10   12      0.67     -1.03
    6   12   12      0.45     -1.00
    7    7   12     -0.10     -0.03
    7    9   12     -0.64     -0.58
    7   11   12     -0.05     -0.33
    8    8   12     -0.14      0.11
    8   10   12      0.49      0.07
    9    9   12     -0.64      0.02
    9   11   12     -0.10      0.07
    0   14   12      0.17     -0.29
    2   14   12      0.02     -0.34
    0    1   13      0.68     -3.48
    0    3   13      4.03     -4.94
    0    5   13      1.89     -5.54
    0    7   13     -1.80     -5.22
    0    9   13     -2.73     -3.91
    0   11   13     -0.87     -1.48
    1    2   13      0.17      3.90
    1    4   13      0.49      4.37
    1    6   13      2.56      3.16
    1    8   13      1.22      2.10
    1   10   13     -0.94      1.40
    1   12   13     -0.56     -0.68
    2    3   13      2.87     -4.68
    2    5   13      1.11     -3.30
    2    7   13     -0.85     -2.35
    2    9   13     -1.03     -1.84
    2   11   13      0.05     -0.37
    3    4   13      1.99      3.38
    3    6   13      2.19      1.56
    3    8   13     -0.22      1.28
    3   10   13     -1.78      0.92
    3   12   13     -0.81     -0.61
    4    5   13      0.54     -1.26
    4    7   13      0.06     -0.05
    4    9   13      0.10      0.73
    4   11   13      0.35      0.65
    5    6   13      0.95      1.51
    5    8   13      0.04      1.06
    5   10   13     -0.85      0.31
    5   12   13     -0.74     -0.17
    6    7   13      0.53     -0.81
    6    9   13     -0.58      1.26
    6   11   13     -0.49      0.72
    7    8   13      1.10      0.47
    7   10   13      0.73      0.11
    8    9   13     -0.03      0.68
    0    0   14     -4.80      0.01
    0    2   14     -5.01     -0.03
    0    4   14     -4.38     -1.40
    0    6   14     -1.55     -2.15
    0    8   14     -0.66     -1.71
    0   10   14     -1.43     -0.35
    1    1   14     -1.26     -0.05
    1    3   14      0.18     -0.62
    1    5   14      0.56      1.03
    1    7   14      0.57      2.86
    1    9   14     -0.21      2.31
    1   11   14      0.16      1.09
    2    2   14     -4.54     -0.03
    2    4   14     -3.62     -1.35
    2    6   14     -1.18     -1.76
    2    8   14      0.19     -1.16
    2   10   14     -0.70     -0.31
    3    3   14      1.22      0.05
    3    5   14      1.71      0.83
    3    7   14      0.88      1.16
    3    9   14     -0.46      0.47
    3   11   14      0.27      0.26
    4    4   14     -2.52      0.01
    4    6   14     -0.75     -0.81
    4    8   14     -0.30     -1.06
    4   10   14     -1.15     -0.98
    5    5   14      1.04      0.02
    5    7   14      0.45      0.57
    5    9   14      0.35      0.55
    6    6   14     -0.76     -0.04
    6    8   14     -2.21     -1.36
    7    7   14      0.63      0.06
    7    9   14      0.52      0.66
    8    8   14     -2.62     -0.01
    0    1   15      0.95     -0.47
    0    3   15      0.99     -0.78
    0    5   15     -0.70     -0.04
    0    7   15     -1.18      0.56
    0    9   15      0.09     -1.20
    1    2   15      0.56      1.87
    1    4   15     -0.32      2.87
    1    6   15     -0.51      1.67
    1    8   15      0.20     -1.14
    2    3   15      0.71     -1.32
    2    5   15     -0.41     -0.43
    2    7   15     -0.68      0.91
    2    9   15      0.38     -0.16
    3    4   15     -0.71      1.82
    3    6   15     -1.85      1.02
    3    8   15     -1.19     -1.43
    4    5   15     -1.02     -0.59
    4    7   15     -0.49      1.10
    4    9   15      0.37      0.39
    5    6   15     -2.04      0.34
    5    8   15     -1.38     -0.09
    6    7   15     -0.73      0.21
    0    0   16      0.07      0.13
    0    2   16      0.16      0.43
    0    4   16      0.46     -1.03
    0    6   16     -0.84     -2.34
    1    1   16     -1.55      0.03
    1    3   16     -0.36     -0.53
    1    5   16      0.50     -0.76
    1    7   16      0.82      0.26
    2    2   16      0.05      0.01
    2    4   16      0.89     -0.83
    2    6   16      0.16     -1.58
    3    3   16      0.07      0.03
    3    5   16     -0.05     -1.15
    3    7   16      0.50     -0.64
    4    4   16      2.16     -0.01
    4    6   16      1.41     -0.48
    5    5   16      0.02      0.02
    0    1   17      0.78      1.76
    0    3   17     -0.13      1.07
    1    2   17     -0.26     -0.61
    1    4   17     -0.67      0.57
    2    3   17     -0.76      0.43
    1    1    0     -0.86     -0.10
    2    2    0     97.10     -0.06
    2    4    0     37.26      0.02
    1    7    0     -5.47      0.01
    1    9    0      5.18     -0.02
    3    9    0     -3.03     -0.02
    2   10    0      3.09     -0.05
    8   18    0     -0.14      0.00
    5   19    0     -1.42      0.03
    1    1    2     -6.28      0.05
    1    3    2     -7.59      2.15
    3    3    2     -6.55     -0.05
   11   16    3     -0.29      0.49
    7   18    3     -0.26      0.86
    0   19    3     -0.16     -1.85
    4   19    3     -0.79     -1.00
    8   17    5     -0.31     -0.90
    5   18    5     -0.72     -0.75
   13   13    6      0.09      0.05
   12   14    6     -0.59      0.18
    7   17    6      0.21     -0.20
    4   18    6      1.27      0.32
   10   15    7      0.08      1.54
    6   17    7     -0.37      0.95
    1   18    7     -1.12     -0.97
    9   15    8      0.59     -0.90
    5   16    9     -0.20      0.10
    1    1   10     -6.56     -0.11
    4   10   10      1.61      0.50
    4   12   10      0.23      1.31
    8   14   10      0.50      0.85
    0   16   10      0.35      0.58
    2   16   10     -0.02      0.45
    8   13   11     -0.55     -1.03
    2   15   11     -0.11      1.06
   10   10   12      0.79     -0.09
    8   12   12      0.09      0.01
    0   13   13     -0.22     -0.03
    2   13   13      0.03      0.16
    6   10   14     -2.14     -1.51
    1   10   15      0.55     -1.88
    0    8   16     -1.20     -0.65
    3    4   17     -0.68     -0.16
    0    5   17      0.13      0.60
    0    0    0      0.00      0.00
# SQUEEZE RESULTS (Version = 160117)
# Note: Data are Listed for all Voids in the P1 Unit Cell
# i.e. Centre of Gravity, Solvent Accessible Volume,
# Recovered number of Electrons in the Void and
# Details about the Squeezed Material
loop_
  _platon_squeeze_void_nr
  _platon_squeeze_void_average_x
  _platon_squeeze_void_average_y
  _platon_squeeze_void_average_z
  _platon_squeeze_void_volume
  _platon_squeeze_void_count_electrons
  _platon_squeeze_void_content
   1  0.000  0.000 -0.010       255        46 ' '
   2  0.000  0.500 -0.250       325        47 ' '
   3  0.500  0.000  0.250       325        47 ' '
   4  0.500  0.500 -0.006       255        46 ' '
# Missing Reflections Below sin(th)/lambda = 0.25
loop_
  _platon_missing_refln_index_h
  _platon_missing_refln_index_k
  _platon_missing_refln_index_l
  _platon_missing_refln_theta
    1    1    0     3.998
    2    2    0     8.016
    2    4    0    12.738
    1    7    0    20.404
    1    1    2     7.508
    1    3    2    11.017
    3    3    2    13.685
_platon_squeeze_void_probe_radius                  1.20
_platon_squeeze_details
)
TITL zn        I -4 m 2     R = 0.07
CELL   15.6361   15.6361   13.9515     90.00     90.00     90.00
SPGR I-4m2
# Solvent Accessible Volume =      1160
# Electrons Found in S.A.V. =       184
# Note: Atoms in Void as Cxxx and Qxxx all others
C101 1.000 0.506 0.094 !       4.21 eA-3
C102 1.000 0.956 0.341 !       3.88 eA-3
C103 0.500 0.995 0.062 !       2.25 eA-3
C104 0.560 1.008 0.062 !       1.33 eA-3
C105 1.000 0.542 0.030 !       1.12 eA-3
C106 0.542 0.496 0.344 !       1.07 eA-3
C107 1.000 1.002 0.266 !       1.05 eA-3
C108 1.000 0.034 0.455 !       0.90 eA-3
C109 0.471 0.939 0.331 !       0.84 eA-3
C110 0.500 0.956 0.225 !       0.81 eA-3
Q111 0.818 0.317 0.286 !       0.75 eA-3
C112 0.546 0.047 0.249 !       0.72 eA-3
C113 0.500 0.440 0.133 !       0.66 eA-3
Q114 0.955 0.506 0.328 !       0.62 eA-3
Q115 0.935 0.310 0.357 !       0.54 eA-3
C116 0.393 0.494 0.328 !       0.54 eA-3
)
;
_shelx_fab_checksum              13750
loop_
_space_group_symop_operation_xyz
'x, y, z'
'-x, -y, z'
'-y, -x, -z'
'y, x, -z'
'-x, y, z'
'x, -y, z'
'-y, x, -z'
'y, -x, -z'
'x+1/2, y+1/2, z+1/2'
'-x+1/2, -y+1/2, z+1/2'
'-y+1/2, -x+1/2, -z+1/2'
'y+1/2, x+1/2, -z+1/2'
'-x+1/2, y+1/2, z+1/2'
'x+1/2, -y+1/2, z+1/2'
'-y+1/2, x+1/2, -z+1/2'
'y+1/2, -x+1/2, -z+1/2'
loop_
_atom_site_label
_atom_site_type_symbol
_atom_site_fract_x
_atom_site_fract_y
_atom_site_fract_z
_atom_site_U_iso_or_equiv
_atom_site_adp_type
_atom_site_occupancy
_atom_site_site_symmetry_order
_atom_site_calc_flag
_atom_site_refinement_flags_posn
_atom_site_refinement_flags_adp
_atom_site_refinement_flags_occupancy
_atom_site_disorder_assembly
_atom_site_disorder_group
Zn1 Zn 0.18778(2) 0.31222(2) 0.2500 0.0158(2) Uani 1 2 d S T P . .
O1 O 0.17807(14) 0.21936(15) 0.1473(2) 0.0260(5) Uani 1 1 d . . . . .
O2 O 0.1996(2) 0.1569(2) 0.2879(2) 0.0358(7) Uani 1 1 d . . . . .
O3 O 0.1926(2) 0.0000 0.2086(2) 0.0220(7) Uani 1 2 d S T P . .
N1 N 0.18408(14) 0.42748(18) 0.18486(19) 0.0162(5) Uani 1 1 d . . . . .
N2 N 0.2616(3) 0.4575(2) -0.0554(2) 0.0344(8) Uani 0.5 1 d . . P A 1
H2 H 0.2784 0.4314 -0.1079 0.041 Uiso 0.5 1 calc R U P A 1
N3 N 0.2367(3) 0.3258(3) -0.0001(3) 0.0182(10) Uani 0.5 1 d . . P A 1
H32 H 0.2510 0.3076 -0.0576 0.022 Uiso 0.5 1 calc R U P A 1
H31 H 0.2218 0.2888 0.0444 0.022 Uiso 0.5 1 calc R U P A 1
C2' C 0.2616(3) 0.4575(2) -0.0554(2) 0.0344(8) Uani 0.5 1 d . . P B 2
H2' H 0.2794 0.4299 -0.1109 0.041 Uiso 0.5 1 calc R U P B 2
C1 C 0.1893(2) 0.1535(3) 0.1985(3) 0.0249(9) Uani 1 1 d . . . . .
C2 C 0.1932(2) 0.0700(2) 0.1506(2) 0.0204(7) Uani 1 1 d . . . . .
C3 C 0.1962(2) 0.0456(2) 0.0564(3) 0.0259(7) Uani 1 1 d . . . . .
H3 H 0.1979 0.0813 0.0031 0.031 Uiso 1 1 calc R U . . .
C4 C 0.1678(3) 0.5000 0.2328(3) 0.0179(9) Uani 1 2 d S T P . .
H4 H 0.1467 0.5000 0.2951 0.021 Uiso 1 2 calc R U P . .
C5 C 0.21275(19) 0.45559(19) 0.0978(2) 0.0194(6) Uani 1 1 d . . . . .
C6 C 0.2376(2) 0.40866(19) 0.0194(2) 0.0273(6) Uani 0.5 1 d . . P A 1
N6' N 0.2376(2) 0.40866(19) 0.0194(2) 0.0273(6) Uani 0.5 1 d . . P B 2
loop_
_atom_site_aniso_label
_atom_site_aniso_U_11
_atom_site_aniso_U_22
_atom_site_aniso_U_33
_atom_site_aniso_U_23
_atom_site_aniso_U_13
_atom_site_aniso_U_12
Zn1 0.0116(2) 0.0116(2) 0.0241(3) -0.00189(19) -0.00189(19) -0.00007(14)
O1 0.0251(11) 0.0117(11) 0.0412(13) -0.0082(10) 0.0012(10) -0.0017(8)
O2 0.0442(16) 0.0332(17) 0.0299(13) -0.0211(13) -0.0007(11) -0.0023(11)
O3 0.0347(18) 0.0176(17) 0.0138(13) 0.000 -0.0021(12) 0.000
N1 0.0160(12) 0.0177(14) 0.0149(10) 0.0022(10) 0.0046(8) 0.0013(8)
N2 0.052(2) 0.0348(17) 0.0161(11) -0.0060(12) 0.0141(14) 0.0044(16)
N3 0.028(3) 0.014(2) 0.012(2) -0.0036(18) 0.007(2) -0.0022(19)
C2' 0.052(2) 0.0348(17) 0.0161(11) -0.0060(12) 0.0141(14) 0.0044(16)
C1 0.0207(17) 0.025(2) 0.029(2) -0.0114(16) 0.0005(11) 0.0005(11)
C2 0.0316(17) 0.0148(15) 0.0150(13) 0.0028(12) -0.0024(11) 0.0003(10)
C3 0.042(2) 0.0161(18) 0.0201(15) 0.0031(13) 0.0001(13) 0.0011(13)
C4 0.0204(17) 0.0158(18) 0.017(2) 0.000 0.0101(16) 0.000
C5 0.0195(13) 0.0223(15) 0.0163(13) 0.0029(12) 0.0080(11) 0.0021(12)
C6 0.0358(17) 0.0197(13) 0.0265(13) 0.0004(12) 0.0108(13) -0.0001(12)
N6' 0.0358(17) 0.0197(13) 0.0265(13) 0.0004(12) 0.0108(13) -0.0001(12)
loop_
_atom_type_symbol
_atom_type_description
_atom_type_scat_dispersion_real
_atom_type_scat_dispersion_imag
_atom_type_scat_source
C C 0.0181 0.0091 'International Tables Vol C Tables 4.2.6.8 and 6.1.1.4'
H H 0.0000 0.0000 'International Tables Vol C Tables 4.2.6.8 and 6.1.1.4'
N N 0.0311 0.0180 'International Tables Vol C Tables 4.2.6.8 and 6.1.1.4'
O O 0.0492 0.0322 'International Tables Vol C Tables 4.2.6.8 and 6.1.1.4'
Zn Zn -1.5491 0.6778 'International Tables Vol C Tables 4.2.6.8 and 6.1.1.4'
loop_
_geom_angle_atom_site_label_1
_geom_angle_atom_site_label_2
_geom_angle_atom_site_label_3
_geom_angle
_geom_angle_site_symmetry_1
_geom_angle_site_symmetry_3
N1 Zn1 N1 98.70(13) . 11
N1 Zn1 O1 108.43(11) . .
N1 Zn1 O1 105.62(10) 11 .
N1 Zn1 O1 105.62(10) . 11
N1 Zn1 O1 108.43(11) 11 11
O1 Zn1 O1 126.59(14) . 11
N1 Zn1 O2 165.31(10) . .
N1 Zn1 O2 89.93(10) 11 .
O1 Zn1 O2 57.49(11) . .
O1 Zn1 O2 82.59(9) 11 .
N1 Zn1 O2 89.93(10) . 11
N1 Zn1 O2 165.31(10) 11 11
O1 Zn1 O2 82.59(9) . 11
O1 Zn1 O2 57.49(11) 11 11
O2 Zn1 O2 84.27(14) . 11
C1 O1 Zn1 99.9(2) . .
C1 O2 Zn1 79.7(3) . .
C2 O3 C2 107.1(4) 6 .
C4 N1 C5 103.5(3) . .
C4 N1 Zn1 122.4(2) . .
C5 N1 Zn1 132.6(2) . .
N2 N2 C6 124.58(19) 6_565 .
C2' C2' N6' 124.58(19) 6_565 .
O1 C1 O2 122.8(4) . .
O1 C1 C2 118.1(3) . .
O2 C1 C2 119.0(4) . .
O3 C2 C3 110.2(3) . .
O3 C2 C1 116.3(3) . .
C3 C2 C1 133.4(3) . .
C2 C3 C3 106.2(2) . 6
N1 C4 N1 115.5(3) 6_565 .
N1 C5 N6' 128.9(3) . .
N1 C5 C6 128.9(3) . .
N1 C5 C5 108.74(18) . 6_565
N6' C5 C5 122.31(17) . 6_565
C6 C5 C5 122.31(17) . 6_565
N3 C6 N2 113.5(3) . .
N3 C6 C5 133.2(3) . .
N2 C6 C5 113.1(3) . .
C2' N6' C5 113.1(3) . .
loop_
_geom_bond_atom_site_label_1
_geom_bond_atom_site_label_2
_geom_bond_distance
_geom_bond_site_symmetry_2
Zn1 N1 2.019(3) .
Zn1 N1 2.019(3) 11
Zn1 O1 2.045(2) .
Zn1 O1 2.045(2) 11
Zn1 O2 2.492(4) .
Zn1 O2 2.492(4) 11
O1 C1 1.266(6) .
O2 C1 1.258(4) .
O3 C2 1.362(4) 6
O3 C2 1.362(4) .
N1 C4 1.341(3) .
N1 C5 1.368(4) .
N2 N2 1.328(7) 6_565
N2 C6 1.346(4) .
N3 C6 1.325(6) .
C2' C2' 1.328(7) 6_565
C2' N6' 1.346(4) .
C1 C2 1.467(5) .
C2 C3 1.369(5) .
C3 C3 1.426(7) 6
C4 N1 1.341(3) 6_565
C5 N6' 1.373(4) .
C5 C6 1.373(4) .
C5 C5 1.389(6) 6_565
loop_
_geom_hbond_atom_site_label_D
_geom_hbond_atom_site_label_H
_geom_hbond_atom_site_label_A
_geom_hbond_distance_DH
_geom_hbond_distance_HA
_geom_hbond_distance_DA
_geom_hbond_angle_DHA
_geom_hbond_site_symmetry_A
N2 H2 O2 0.88 2.03 2.890(5) 164 10_554
N3 H31 O1 0.88 1.93 2.800(5) 172 .
