#------------------------------------------------------------------------------
#$Date: 2019-11-26 00:30:21 +0200 (Tue, 26 Nov 2019) $
#$Revision: 242172 $
#$URL: file:///home/coder/svn-repositories/cod/cif/4/13/21/4132128.cif $
#------------------------------------------------------------------------------
#
# This file is available in the Crystallography Open Database (COD),
# http://www.crystallography.net/
#
# All data on this site have been placed in the public domain by the
# contributors.
#
data_4132128
loop_
_publ_author_name
'Chu, Qianli'
'Duncan, Andrew J. E.'
'Papaefstathiou, Giannis S.'
'Hamilton, Tamara D.'
'Atkinson, Manza B. J.'
'Mariappan, S. V. Santhana'
'MacGillivray, Leonard R.'
_publ_section_title
;
 Putting Cocrystal Stoichiometry to Work: A Reactive Hydrogen-Bonded
 &quot;Superassembly&quot; Enables Nanoscale Enlargement of a
 Metal-Organic Rhomboid via a Solid-State Photocycloaddition.
;
_journal_issue                   14
_journal_name_full               'Journal of the American Chemical Society'
_journal_page_first              4940
_journal_page_last               4944
_journal_paper_doi               10.1021/jacs.8b01775
_journal_volume                  140
_journal_year                    2018
_chemical_formula_moiety         'C6 H4 Cl2 O2, 2(C18 H14 N2)'
_chemical_formula_sum            'C42 H32 Cl2 N4 O2'
_chemical_formula_weight         695.61
_chemical_name_common
;
 4,6-diClres,  2-pyr-4-ppyr        
;
_chemical_name_systematic
;
 4,6-dichlororesorcinol, trans-1-(2-pyridyl)-2-(4-(4-phenyl)pyridyl)ethylene)
;
_space_group_crystal_system      monoclinic
_space_group_IT_number           14
_space_group_name_Hall           '-P 2yn'
_space_group_name_H-M_alt        'P 1 21/n 1'
_atom_sites_solution_hydrogens   mixed
_atom_sites_solution_primary     dual
_audit_creation_date             2017-06-14
_audit_creation_method
;
Olex2 1.2
(compiled 2017.03.28 svn.r3405 for OlexSys, GUI svn.r5337)
;
_cell_angle_alpha                90
_cell_angle_beta                 93.00(3)
_cell_angle_gamma                90
_cell_formula_units_Z            4
_cell_length_a                   18.838(4)
_cell_length_b                   7.8317(16)
_cell_length_c                   23.075(5)
_cell_measurement_reflns_used    8817
_cell_measurement_temperature    173(2)
_cell_measurement_theta_max      25.03
_cell_measurement_theta_min      1.02
_cell_volume                     3399.7(12)
_computing_cell_refinement       'HKL Scalepack (Otwinowski & Minor, 1997)'
_computing_data_collection       'Collect (Nonius BV, 1997-2000)'
_computing_data_reduction
;
 HKL Denzo, Scalepack (Otwinowski & Minor, 1997)
;
_computing_molecular_graphics    'Olex2 (Dolomanov et al., 2009)'
_computing_publication_material  'Olex2 (Dolomanov et al., 2009)'
_computing_structure_refinement  'ShelXL (Sheldrick, 2015)'
_computing_structure_solution    'ShelXT (Sheldrick, 2015)'
_diffrn_ambient_temperature      173.15
_diffrn_measured_fraction_theta_full 0.953
_diffrn_measured_fraction_theta_max 0.975
_diffrn_measurement_device_type  'Nonius KappaCCD'
_diffrn_measurement_method       'CCD phi and omega scans'
_diffrn_radiation_type           MoK\a
_diffrn_radiation_wavelength     0.7107
_diffrn_reflns_av_R_equivalents  0.0757
_diffrn_reflns_av_unetI/netI     0.0756
_diffrn_reflns_Laue_measured_fraction_full 0.953
_diffrn_reflns_Laue_measured_fraction_max 0.975
_diffrn_reflns_limit_h_max       22
_diffrn_reflns_limit_h_min       -22
_diffrn_reflns_limit_k_max       8
_diffrn_reflns_limit_k_min       -9
_diffrn_reflns_limit_l_max       27
_diffrn_reflns_limit_l_min       -27
_diffrn_reflns_number            19023
_diffrn_reflns_point_group_measured_fraction_full 0.953
_diffrn_reflns_point_group_measured_fraction_max 0.975
_diffrn_reflns_theta_full        25.241
_diffrn_reflns_theta_max         25.041
_diffrn_reflns_theta_min         3.145
_exptl_absorpt_coefficient_mu    0.236
_exptl_absorpt_correction_type   multi-scan
_exptl_absorpt_process_details   'HKL Scalepack (Otwinowski & Minor, 1997)'
_exptl_crystal_colour            'clear blank colorless'
_exptl_crystal_density_diffrn    1.359
_exptl_crystal_density_method    'not measured'
_exptl_crystal_description       needle
_exptl_crystal_F_000             1448
_exptl_crystal_size_max          0.49
_exptl_crystal_size_mid          0.1
_exptl_crystal_size_min          0.04
_exptl_transmission_factor_max   0.983
_exptl_transmission_factor_min   0.932
_refine_diff_density_max         0.359
_refine_diff_density_min         -0.244
_refine_diff_density_rms         0.046
_refine_ls_extinction_method     none
_refine_ls_goodness_of_fit_ref   1.100
_refine_ls_hydrogen_treatment    mixed
_refine_ls_matrix_type           full
_refine_ls_number_parameters     459
_refine_ls_number_reflns         5879
_refine_ls_number_restraints     0
_refine_ls_restrained_S_all      1.100
_refine_ls_R_factor_all          0.1030
_refine_ls_R_factor_gt           0.0609
_refine_ls_shift/su_max          0.000
_refine_ls_shift/su_mean         0.000
_refine_ls_structure_factor_coef Fsqd
_refine_ls_weighting_details
'w=1/[\s^2^(Fo^2^)+(0.0170P)^2^+2.6280P] where P=(Fo^2^+2Fc^2^)/3'
_refine_ls_weighting_scheme      calc
_refine_ls_wR_factor_gt          0.0934
_refine_ls_wR_factor_ref         0.1046
_reflns_Friedel_coverage         0.000
_reflns_number_gt                4091
_reflns_number_total             5879
_reflns_threshold_expression     'I > 2\s(I)'
_cod_data_source_file            ja8b01775_si_002.cif
_cod_data_source_block           2:1assembly
_cod_database_code               4132128
_shelxl_version_number           2014/6
_shelx_space_group_comment
;
The symmetry employed for this shelxl refinement is uniquely defined
by the following loop, which should always be used as a source of
symmetry information in preference to the above space-group names.
They are only intended as comments.
;
_olex2_refinement_description
;
1. Fixed Uiso
 At 1.2 times of:
  All C(H) groups
2.a Aromatic/amide H refined with riding coordinates:
 C36(H36), C24(H24), C28(H28), C32(H32), C34(H34), C33(H33), C17(H17),
 C31(H31), C41(H41), C15(H15), C21(H21), C1(H1), C37(H37), C27(H27), C11(H11),
 C16(H16), C26(H26), C10(H10), C42(H42), C18(H18), C12(H12), C39(H39), C40(H40),
  C25(H25), C9(H9), C2(H2), C4(H4), C7(H7), C6(H6), C3(H3)
;
_shelx_res_file
;
TITL mcg240_a.res in P2(1)/n
REM Old TITL MCG240 in P2(1)/n
REM SHELXT solution in P2(1)/n
REM R1 0.188, Rweak 0.030, Alpha 0.058, Orientation as input
REM Formula found by SHELXT: C42 N4 O2 Cl2
CELL 0.7107 18.8382 7.8317 23.0747 90 93.003 90
ZERR 4 0.0038 0.0016 0.0046 0 0.03 0
LATT 1
SYMM 0.5-X,0.5+Y,0.5-Z
SFAC C H Cl N O
UNIT 168 128 8 16 8
EQIV $1 1-X,1-Y,1-Z

L.S. 4
PLAN  -20
TEMP -100
HTAB C18 N4_$1
HTAB O2 N3
HTAB O1 N2
BOND $H
list 4
MORE -1
CONF
HTAB
fmap 2
acta
SHEL 6.7 0
REM <olex2.extras>
REM <HklSrc "%./Mcg240.hkl">
REM </olex2.extras>

WGHT    0.017000    2.628000
FVAR       0.43537
CL2   3    0.685119    0.236935    0.030123    11.00000    0.06798    0.04747 =
         0.02874   -0.00883    0.00573    0.01452
CL1   3    0.516190    0.791793    0.048953    11.00000    0.07945    0.05276 =
         0.02847    0.00034   -0.00717    0.02580
O2    5    0.698887    0.256493    0.156896    11.00000    0.05319    0.03920 =
         0.02615   -0.00034    0.00105    0.01316
O1    5    0.550242    0.754176    0.172884    11.00000    0.05707    0.04158 =
         0.02248   -0.00421    0.00278    0.01501
N2    4    0.569846    0.728528    0.290282    11.00000    0.04177    0.03890 =
         0.02575   -0.00360    0.00213    0.00039
N4    4    0.647456    0.149874    0.758128    11.00000    0.03429    0.05257 =
         0.02844   -0.00031   -0.00149   -0.00320
N3    4    0.717989    0.260965    0.275136    11.00000    0.05227    0.04132 =
         0.02602    0.00268    0.00396    0.01188
N1    4    0.486018    0.831591    0.786549    11.00000    0.05434    0.04174 =
         0.02940   -0.00202    0.00200   -0.00628
C14   1    0.565559    0.698204    0.412163    11.00000    0.02849    0.02465 =
         0.02673   -0.00205    0.00124   -0.00195
C30   1    0.721513    0.190454    0.460754    11.00000    0.03187    0.02473 =
         0.02518   -0.00002    0.00399    0.00640
C35   1    0.710032    0.167198    0.582607    11.00000    0.03234    0.03211 =
         0.02751    0.00380    0.00279    0.00479
C23   1    0.656244    0.381242    0.133349    11.00000    0.03227    0.02760 =
         0.02716    0.00279    0.00278   -0.00297
C36   1    0.696556    0.159821    0.644519    11.00000    0.03515    0.03541 =
         0.02716    0.00410    0.00117    0.00457
AFIX  43
H36   2    0.657420    0.091211    0.654452    11.00000   -1.20000
AFIX   0

C24   1    0.623654    0.503221    0.166791    11.00000    0.03562    0.03358 =
         0.01697    0.00107    0.00187   -0.00235
AFIX  43
H24   2    0.630919    0.499274    0.207822    11.00000   -1.20000
AFIX   0

C38   1    0.711843    0.219556    0.749072    11.00000    0.03337    0.02993 =
         0.02866   -0.00081    0.00128    0.00232
C28   1    0.766445    0.329061    0.370754    11.00000    0.04530    0.03124 =
         0.02762    0.00123    0.00372    0.00311
AFIX  43
H28   2    0.798905    0.396114    0.393978    11.00000   -1.20000
AFIX   0

C13   1    0.563265    0.682753    0.476040    11.00000    0.03071    0.02845 =
         0.02504   -0.00354   -0.00059   -0.00196
C29   1    0.722126    0.212441    0.396848    11.00000    0.03377    0.02651 =
         0.02572    0.00002    0.00440    0.00775
C32   1    0.766067    0.284976    0.499251    11.00000    0.03629    0.03088 =
         0.03241    0.00037    0.00527   -0.00459
AFIX  43
H32   2    0.800827    0.358217    0.484185    11.00000   -1.20000
AFIX   0
C34   1    0.760620    0.274128    0.558556    11.00000    0.03999    0.03357 =
         0.03000   -0.00542   -0.00177    0.00065
AFIX  43
H34   2    0.791574    0.340023    0.583501    11.00000   -1.20000
AFIX   0

C19   1    0.580767    0.630704    0.141882    11.00000    0.03696    0.02905 =
         0.02326   -0.00203    0.00376   -0.00007
C33   1    0.668413    0.066103    0.544468    11.00000    0.03709    0.03707 =
         0.03012    0.00560    0.00392   -0.00499
AFIX  43
H33   2    0.635421   -0.011795    0.559565    11.00000   -1.20000
AFIX   0

C17   1    0.625676    0.672834    0.323077    11.00000    0.03705    0.05057 =
         0.02880   -0.00570    0.00768    0.00738
AFIX  43
H17   2    0.667371    0.641896    0.304142    11.00000   -1.20000
AFIX   0

C22   1    0.644475    0.387611    0.073510    11.00000    0.03862    0.02955 =
         0.02339   -0.00423    0.00621    0.00010
C31   1    0.674215    0.077004    0.485141    11.00000    0.03948    0.03570 =
         0.02743    0.00081   -0.00294   -0.00229
AFIX  43
H31   2    0.645362    0.005670    0.460338    11.00000   -1.20000
AFIX   0
C41   1    0.671156    0.186858    0.860392    11.00000    0.05643    0.03672 =
         0.02657    0.00035    0.00530    0.00258
AFIX  43
H41   2    0.655527    0.175017    0.898666    11.00000   -1.20000
AFIX   0

C15   1    0.626645    0.657390    0.382660    11.00000    0.03469    0.04550 =
         0.02889   -0.00342   -0.00284    0.00952
AFIX  43
H15   2    0.668424    0.619337    0.403631    11.00000   -1.20000
AFIX   0

C21   1    0.601287    0.511721    0.047778    11.00000    0.04448    0.03601 =
         0.01632   -0.00165    0.00012   -0.00409
AFIX  43
H21   2    0.593211    0.513593    0.006797    11.00000   -1.20000
AFIX   0

C1    1    0.489014    0.837180    0.844360    11.00000    0.04943    0.03785 =
         0.03473   -0.00394    0.00523   -0.00812
AFIX  43
H1    2    0.458891    0.916029    0.862454    11.00000   -1.20000
AFIX   0

C37   1    0.731796    0.236325    0.688569    11.00000    0.03720    0.03388 =
         0.03292    0.00309    0.00601    0.00102
AFIX  43
H37   2    0.771710    0.305010    0.680650    11.00000   -1.20000
AFIX   0
C27   1    0.675367    0.122233    0.358969    11.00000    0.04036    0.04321 =
         0.02744   -0.00167    0.00649   -0.00287
AFIX  43
H27   2    0.644081    0.040248    0.374066    11.00000   -1.20000
AFIX   0

C11   1    0.612212    0.582712    0.508407    11.00000    0.04907    0.03702 =
         0.03021   -0.00060    0.00060    0.00966
AFIX  43
H11   2    0.647371    0.521628    0.488851    11.00000   -1.20000
AFIX   0
C16   1    0.507510    0.757834    0.377570    11.00000    0.03016    0.04512 =
         0.02882   -0.00387    0.00274    0.00523
AFIX  43
H16   2    0.465005    0.789671    0.395178    11.00000   -1.20000
AFIX   0

C26   1    0.763088    0.346909    0.311206    11.00000    0.05651    0.03140 =
         0.03360    0.00741    0.00820    0.00361
AFIX  43
H26   2    0.794823    0.425243    0.294711    11.00000   -1.20000
AFIX   0

C10   1    0.610972    0.570106    0.567726    11.00000    0.05707    0.04023 =
         0.02989    0.00089   -0.00322    0.01013
AFIX  43
H10   2    0.645340    0.501214    0.588252    11.00000   -1.20000
AFIX   0
C8    1    0.560362    0.656286    0.598254    11.00000    0.04424    0.03871 =
         0.02560    0.00279   -0.00302   -0.01074

C42   1    0.628280    0.136822    0.813017    11.00000    0.03698    0.05874 =
         0.03434    0.00159    0.00553   -0.00425
AFIX  43
H42   2    0.582794    0.090725    0.819734    11.00000   -1.20000
AFIX   0

C18   1    0.511331    0.770855    0.318310    11.00000    0.03722    0.04747 =
         0.02543   -0.00219   -0.00119    0.00765
AFIX  43
H18   2    0.470886    0.811526    0.296155    11.00000   -1.20000
AFIX   0

C20   1    0.569776    0.633252    0.081520    11.00000    0.04193    0.03164 =
         0.02423    0.00252   -0.00018   -0.00011
C12   1    0.511638    0.767216    0.506550    11.00000    0.03586    0.04983 =
         0.02677   -0.00347    0.00162    0.00294
AFIX  43
H12   2    0.476892    0.834745    0.485901    11.00000   -1.20000
AFIX   0

C39   1    0.757838    0.272428    0.794644    11.00000    0.03847    0.03852 =
         0.03731   -0.00142   -0.00176   -0.00576
AFIX  43
H39   2    0.802810    0.320242    0.787220    11.00000   -1.20000
AFIX   0

C5    1    0.529153    0.720383    0.761807    11.00000    0.05014    0.04249 =
         0.02442    0.00043    0.00210   -0.01218
C40   1    0.737179    0.254409    0.850886    11.00000    0.05864    0.04011 =
         0.02874   -0.00616   -0.01135   -0.00380
AFIX  43
H40   2    0.768102    0.288168    0.882675    11.00000   -1.20000
AFIX   0
C25   1    0.674204    0.150968    0.300098    11.00000    0.04138    0.05301 =
         0.03112   -0.00667    0.00343    0.00292
AFIX  43
H25   2    0.640718    0.089877    0.275867    11.00000   -1.20000
AFIX   0

C9    1    0.510138    0.754374    0.566409    11.00000    0.03341    0.05469 =
         0.03344   -0.01097    0.00935    0.00224
AFIX  43
H9    2    0.474418    0.813160    0.586067    11.00000   -1.20000
AFIX   0
C2    1    0.532798    0.736436    0.879606    11.00000    0.05494    0.04373 =
         0.02438   -0.00225    0.00243   -0.01200
AFIX  43
H2    2    0.533002    0.747114    0.920625    11.00000   -1.20000
AFIX   0
C4    1    0.574166    0.611247    0.793749    11.00000    0.05120    0.04850 =
         0.04171   -0.01037    0.01139    0.00078
AFIX  43
H4    2    0.603130    0.531772    0.774745    11.00000   -1.20000
AFIX   0
C7    1    0.562872    0.641490    0.662269    11.00000    0.05425    0.04127 =
         0.03747   -0.00175    0.00167   -0.00508
AFIX  43
H7    2    0.595256    0.560781    0.679388    11.00000   -1.20000
AFIX   0
C6    1    0.524902    0.728616    0.697255    11.00000    0.04929    0.04742 =
         0.03931   -0.00287    0.00102   -0.00135
AFIX  43
H6    2    0.491006    0.805315    0.679878    11.00000   -1.20000
AFIX   0
C3    1    0.576196    0.620162    0.854369    11.00000    0.05393    0.05529 =
         0.03935    0.00703   -0.00108    0.00067
AFIX  43
H3    2    0.606727    0.547845    0.877424    11.00000   -1.20000
AFIX   0

H2A   2    0.705128    0.270823    0.194334    11.00000    0.05926
H1A   2    0.561197    0.744179    0.213856    11.00000    0.07821
HKLF 4

REM  mcg240_a.res in P2(1)/n
REM R1 =  0.0609 for    4091 Fo > 4sig(Fo)  and  0.1030 for all    5879 data
REM    459 parameters refined using      0 restraints

END

WGHT      0.0166      2.6284

REM Instructions for potential hydrogen bonds
HTAB C18 N4_$1
HTAB O2 N3
HTAB O1 N2

REM Highest difference peak  0.359,  deepest hole -0.244,  1-sigma level  0.046
Q1    1   0.5662  0.6207  0.7091  11.00000  0.05    0.36
Q2    1   0.5216  0.7271  0.6511  11.00000  0.05    0.32
Q3    1   0.6213  0.6514  0.0700  11.00000  0.05    0.19
Q4    1   0.4837  0.8557  0.5551  11.00000  0.05    0.19
Q5    1   0.6267  0.1550  0.0211  11.00000  0.05    0.19
Q6    1   0.6845  0.2134  0.3808  11.00000  0.05    0.17
Q7    1   0.5804  0.8616  0.0723  11.00000  0.05    0.17
Q8    1   0.6843  0.6553  0.1009  11.00000  0.05    0.16
Q9    1   0.6656  0.2371 -0.0207  11.00000  0.05    0.16
Q10   1   0.4791  0.8305  0.1694  11.00000  0.05    0.16
Q11   1   0.5637  0.6974  0.0723  11.00000  0.05    0.16
Q12   1   0.5759  0.6307  0.1082  11.00000  0.05    0.16
Q13   1   0.5643  0.6722  0.4427  11.00000  0.05    0.15
Q14   1   0.6200  0.2540  0.2595  11.00000  0.05    0.15
Q15   1   0.6198  0.5475  0.6822  11.00000  0.05    0.15
Q16   1   0.5014  0.7414  0.7737  11.00000  0.05    0.15
Q17   1   0.5783  0.8840  0.5844  11.00000  0.05    0.15
Q18   1   0.5253  0.6872  0.4834  11.00000  0.05    0.15
Q19   1   0.7055  0.2326  0.0792  11.00000  0.05    0.15
Q20   1   0.6787  0.7383  0.0651  11.00000  0.05    0.15
;
_shelx_res_checksum              11017
_shelx_hkl_file
;
 -22   0  -2   54.84   15.80
 -22   0   0   18.98   13.09
 -22   1   0    6.52    7.22
 -22   1   1    2.26    8.58
 -22   1   2   11.94    6.75
 -22   1   3   15.84   13.99
 -21  -2  -5  109.33   30.79
 -21  -2  -3   79.11   55.32
 -21  -1  -7   61.03   23.00
 -21  -1  -6  -10.83   18.10
 -21   0  -7   13.77    8.15
 -21   0  -5   10.63   11.76
 -21   0  -3   25.93    8.42
 -21   0  -1   94.77   14.63
 -21   0   3    3.59   10.59
 -21   0   5   -0.90    8.98
 -21   0   7    7.00   10.40
 -21   1  -4    9.21    9.66
 -21   1  -3    2.48    7.45
 -21   1  -2   22.12   11.31
 -21   1   2    4.29    8.17
 -21   1   3   83.98   14.87
 -21   1   4   45.50   22.50
 -21   1   5   78.02   24.15
 -21   1   8   37.38   15.80
 -21   1   9   59.63   13.23
 -21   2  -5   25.93    9.48
 -21   2  -4   -4.74   13.09
 -21   2  -3    5.64    8.55
 -21   2  -2   -6.52    8.82
 -21   2  -1   -3.36    9.41
 -21   2   0   10.63    9.01
 -21   2   1   27.49   10.88
 -21   2   2    3.81    9.46
 -21   2   3   23.41   16.43
 -21   2   4   44.89   15.71
 -21   2   7   17.20   15.82
 -21   2   8    6.07   11.04
 -21   3   1  -10.63    6.95
 -21   3   2   -4.06    9.93
 -20  -4   1   41.14   16.00
 -20  -4   2    8.33    7.02
 -20  -3  -4   81.25   25.19
 -20  -3  -3   65.32   27.45
 -20  -3  -2   36.11   21.67
 -20  -3  -1   28.93   14.72
 -20  -2  -9   88.45   20.63
 -20  -2  -8   70.78   29.32
 -20  -2  -7    1.78   16.84
 -20  -2  -6   70.28   25.68
 -20  -2  -5   90.14   38.23
 -20  -2  -4   26.86   20.72
 -20  -1 -10   44.49   59.92
 -20  -1  -8   96.83   19.23
 -20  -1  -7   43.29   27.49
 -20   0 -10    5.21   12.01
 -20   0  -8   12.46    8.17
 -20   0  -6   14.44    8.33
 -20   0  -4   32.93    9.66
 -20   0  -2  -16.45    8.53
 -20   0   2   14.22    7.92
 -20   0   6   34.51    8.31
 -20   0   8    5.64   15.12
 -20   1 -10  -11.74    6.59
 -20   1  -9   20.58   13.50
 -20   1  -8   29.75   10.31
 -20   1  -7  -18.98   14.92
 -20   1  -2   15.84   11.24
 -20   1  -1    0.68   10.88
 -20   1   0   38.68   10.09
 -20   1   1   22.55   10.40
 -20   1   2  182.82   24.78
 -20   1   4   16.45   17.56
 -20   1   5   10.34    8.60
 -20   1   6    1.78    8.31
 -20   1   7    0.00    2.26
 -20   1   9  -11.53   11.53
 -20   1  10   30.24   13.72
 -20   1  11   10.83   18.69
 -20   1  12    6.30   17.11
 -20   2  -9    2.26   11.28
 -20   2  -4   11.94   11.01
 -20   2  -3   63.87   29.05
 -20   2  -2   56.88   28.10
 -20   2  -1   89.58   30.99
 -20   2   2   25.48   12.14
 -20   2   3   32.25   16.88
 -20   2   4   35.03   15.30
 -20   2   5   30.74    9.66
 -20   2   8   13.54   13.50
 -20   2   9   10.83   10.59
 -20   2  10   55.52   14.11
 -20   2  11   29.09   16.86
 -20   3  -4   -0.68    8.62
 -20   3  -3   13.99   11.24
 -20   3  -2   26.86   14.17
 -20   3  -1   21.26   11.78
 -20   3   0    3.81   10.16
 -20   3   1   25.32    9.23
 -20   3   4    1.78    8.31
 -20   3   5   17.20    9.10
 -20   3   6   20.72   11.08
 -20   3   7    7.22   14.72
 -20   3   8   31.39   25.59
 -20   3   9    2.93   11.06
 -20   4   0  111.86   71.19
 -19  -4  -4   39.81   25.77
 -19  -4  -3   48.80   11.56
 -19  -4  -2  -29.41   16.79
 -19  -4  -1    1.60    5.42
 -19  -4   0    8.76   13.07
 -19  -4   1   -3.14    7.40
 -19  -4   2    3.14    7.20
 -19  -3  -9   50.92   16.95
 -19  -3  -8   44.28   26.59
 -19  -3  -7   31.06   46.22
 -19  -3  -6   80.71   19.97
 -19  -3  -5  -10.83   18.10
 -19  -3  -4  -11.53   19.39
 -19  -3  -3   31.73   33.18
 -19  -3  -2    8.58   18.30
 -19  -2 -11   -6.52   35.62
 -19  -2 -10   11.94   46.00
 -19  -2  -9   10.63   32.52
 -19  -2  -8   53.96   16.11
 -19  -2  -7    9.66   10.56
 -19  -2  -6    1.13   13.36
 -19  -2  -5  110.28   47.33
 -19  -2  -4    8.58   10.13
 -19  -1 -12    7.00   18.03
 -19  -1 -11    4.29   12.21
 -19  -1 -10    4.49    7.00
 -19  -1  -9   15.98   12.37
 -19  -1  -8    9.03    8.40
 -19  -1  -7   13.99    7.88
 -19  -1  -6   31.06    8.53
 -19  -1  -5   78.30   10.63
 -19  -1  -4   33.11    9.86
 -19  -1  -3   23.41    8.28
 -19  -1  -2   18.98   13.09
 -19  -1  -1  -13.32    7.45
 -19  -1   0    0.23    7.76
 -19  -1   1    7.00   10.81
 -19  -1   2   35.39    7.70
 -19  -1   3   29.57    5.24
 -19  -1   5   52.88   10.50
 -19   0 -11   23.41   13.81
 -19   0  -9   12.14   11.94
 -19   0  -7   -1.78   10.13
 -19   0  -5    4.29    7.92
 -19   0  -3   37.20    9.89
 -19   0  -1  483.74   29.75
 -19   0   1   -6.30    6.79
 -19   0   3   34.51    5.12
 -19   0   5   32.07   13.79
 -19   0   7   18.98   19.64
 -19   0   9   -6.07    8.58
 -19   0  11   76.72   10.52
 -19   0  13   -2.48   10.61
 -19   1 -12   26.25    7.70
 -19   1 -11   35.21   12.12
 -19   1 -10   14.67    8.62
 -19   1  -9   11.53   10.81
 -19   1  -8   -2.03   10.63
 -19   1  -7   15.84    9.10
 -19   1  -6   18.08   13.29
 -19   1  -5  399.24  223.33
 -19   1  -4  356.60  214.48
 -19   1  -3   19.64   10.65
 -19   1  -2   10.13    8.33
 -19   1  -1   15.62   11.76
 -19   1   0   33.81   20.97
 -19   1   1   53.74   26.88
 -19   1   2   50.49   13.25
 -19   1   3   42.52   11.76
 -19   1   4   10.34    8.98
 -19   1   5   82.88   14.22
 -19   1   6   -2.48    7.45
 -19   1   7   45.30   53.38
 -19   1   8  116.69   72.38
 -19   1   9   40.38   11.08
 -19   1  10   -5.85    8.58
 -19   1  11   46.11   11.22
 -19   1  12   -5.21   12.68
 -19   1  13   52.23   18.24
 -19   1  14   36.29   14.67
 -19   1  15   -4.49    9.23
 -19   2 -11   14.22   14.63
 -19   2 -10   12.46    7.22
 -19   2  -9   20.31   11.92
 -19   2  -8   29.09   13.93
 -19   2  -7    7.47   17.67
 -19   2  -2   64.60   11.83
 -19   2  -1  204.12   19.32
 -19   2   0  175.98   16.34
 -19   2   1   12.14    9.75
 -19   2   2    2.93    9.48
 -19   2   3   38.68   13.09
 -19   2   4   -1.78    9.01
 -19   2   5   99.51    9.89
 -19   2   6   15.14   12.62
 -19   2   9    1.13    8.85
 -19   2  10   43.11   20.31
 -19   2  11  145.89   21.78
 -19   2  12   -3.59   14.40
 -19   2  13   47.76   16.61
 -19   2  14    7.47   11.51
 -19   3  -9    7.00   16.21
 -19   3  -8   26.25   18.94
 -19   3  -7   18.08   15.60
 -19   3  -6   85.92   13.65
 -19   3  -2   10.63   10.38
 -19   3  -1   14.90   12.41
 -19   3   0   -2.73    8.60
 -19   3   1   46.92   10.90
 -19   3   2    2.26    9.93
 -19   3   3   13.11   14.04
 -19   3   4    8.76   12.62
 -19   3   6   15.84   17.47
 -19   3   7   12.68   13.16
 -19   3   8    9.03    9.93
 -19   3   9   31.39   12.46
 -19   3  12    0.45   10.90
 -19   4  -6   16.21   11.49
 -19   4  -5   14.90    9.98
 -19   4  -4   29.09   10.54
 -19   4  -3   40.76    9.39
 -19   4  -2  -10.34    9.95
 -19   4  -1    9.03   10.56
 -19   4   0   -3.59    9.66
 -19   4   1    8.33    7.88
 -19   4   2    9.48   10.63
 -19   4   3   14.90   10.79
 -19   4   4   -2.03   10.63
 -19   4   7   16.21    9.43
 -19   4   8   -9.48    9.25
 -19   4   9    9.21   10.11
 -18  -5  -5  -33.81   71.28
 -18  -5  -4  104.68   16.30
 -18  -5  -3    3.59    7.40
 -18  -5  -2    8.33    7.45
 -18  -5  -1   -4.06    4.72
 -18  -5   0   -1.60    4.74
 -18  -5   1   10.34   10.63
 -18  -5   2   -6.07    5.19
 -18  -5   3    0.00    2.26
 -18  -5   4   -2.93    8.13
 -18  -5   5    5.42    7.00
 -18  -5   6    2.48    9.23
 -18  -4  -9   83.44   42.82
 -18  -4  -8  113.78   25.32
 -18  -4  -7   48.39   31.15
 -18  -4  -6   59.86   19.77
 -18  -4  -5   33.81   17.65
 -18  -4  -4   -0.23   20.09
 -18  -4  -3   -2.93    5.19
 -18  -4  -2    0.23    6.16
 -18  -4  -1   -1.33   10.09
 -18  -4   0    5.21    5.89
 -18  -4   1   13.99    7.65
 -18  -4   2    7.65    8.15
 -18  -3 -12   93.89   25.03
 -18  -3 -11   42.70   18.26
 -18  -3 -10    2.93   25.26
 -18  -3  -9   38.30   28.64
 -18  -3  -8  -15.62   16.50
 -18  -3  -7   39.81   12.14
 -18  -3  -6    9.95   13.75
 -18  -3  -5   29.75   14.42
 -18  -3  -4   81.79   16.84
 -18  -3  -3   30.90   19.70
 -18  -3  -2   24.58   13.56
 -18  -2 -13   -6.52    9.91
 -18  -2 -12    4.94   11.69
 -18  -2 -11   38.30   16.00
 -18  -2  -9   50.29   22.80
 -18  -2  -8    1.78   12.14
 -18  -2  -7   13.11   13.05
 -18  -2  -6  145.53   17.40
 -18  -2  -5   -3.36    9.19
 -18  -2  -4   91.30   12.64
 -18  -1 -14   50.49    9.19
 -18  -1 -13   63.40   11.24
 -18  -1 -12   -3.59    8.98
 -18  -1 -11   -1.60    6.34
 -18  -1 -10   21.83    7.15
 -18  -1  -9    0.68    6.59
 -18  -1  -8   -4.94    6.55
 -18  -1  -7   12.89    6.36
 -18  -1  -6   79.63   10.72
 -18  -1  -5   20.31   11.51
 -18  -1  -4    2.93    7.47
 -18  -1  -3   -1.60   11.10
 -18  -1  -2  121.27   18.53
 -18  -1  -1   31.06   10.88
 -18  -1   0  419.91   24.01
 -18  -1   1   32.25    7.67
 -18  -1   2   25.77    9.46
 -18  -1   3    4.49    4.06
 -18  -1   4    4.94    8.76
 -18  -1   5    7.90    6.34
 -18  -1   6   43.29    9.10
 -18  -1   7   11.01    6.59
 -18  -1   8   -2.93   12.19
 -18  -1   9   12.14   13.09
 -18   0 -14   24.42   10.70
 -18   0 -12    9.21    8.31
 -18   0 -10   44.89   18.91
 -18   0  -8   39.99    9.68
 -18   0  -6   48.80    8.40
 -18   0  -4   39.99   29.27
 -18   0  -2  143.73   14.76
 -18   0   0   30.24   10.56
 -18   0   2   -4.06    6.12
 -18   0   4   29.57    7.85
 -18   0   6   46.11    7.76
 -18   0   8    9.03   10.38
 -18   0  10  122.60   27.60
 -18   0  12    1.78    6.75
 -18   0  14   11.74   17.20
 -18   1 -14   58.48   14.47
 -18   1 -13   64.37   10.61
 -18   1 -12   16.95    8.78
 -18   1 -11   34.33   11.44
 -18   1 -10   25.03    9.48
 -18   1  -9   21.83    9.68
 -18   1  -8   15.37   16.97
 -18   1  -7    8.15    9.25
 -18   1  -6   65.32   10.45
 -18   1  -5   35.93    9.01
 -18   1  -4   -1.33    8.31
 -18   1  -3    7.47    8.13
 -18   1  -2  111.86   11.44
 -18   1  -1   26.70   10.88
 -18   1   0  357.19   27.26
 -18   1   1   14.22    8.15
 -18   1   2   41.73   12.82
 -18   1   3    6.75    6.79
 -18   1   4   23.99    9.28
 -18   1   5   10.13   11.96
 -18   1   6   49.02    8.19
 -18   1   7   15.84    9.21
 -18   1   8   18.71   11.58
 -18   1   9   16.45    8.78
 -18   1  10    7.22    9.93
 -18   1  11  118.63   74.62
 -18   1  12   46.92   11.74
 -18   1  13    4.94    8.55
 -18   1  14   -3.59   10.13
 -18   1  16  126.96   17.94
 -18   2 -13   -1.60    8.82
 -18   2 -12   27.96   16.52
 -18   2 -11    7.65    7.22
 -18   2 -10   12.46    7.43
 -18   2  -9   19.37   22.75
 -18   2  -8   25.48   10.77
 -18   2  -7   -1.60   14.06
 -18   2  -6  102.22   18.53
 -18   2  -5   11.74    9.25
 -18   2  -4   91.30   13.50
 -18   2  -3   33.45   38.93
 -18   2  -2   31.39   45.64
 -18   2  -1   41.73   23.29
 -18   2   2   -8.76    7.47
 -18   2   3   -9.03    7.22
 -18   2   4   12.14   11.94
 -18   2   5   13.32   11.96
 -18   2   6   26.70   12.41
 -18   2   7   11.94    8.62
 -18   2   8   -1.13   12.01
 -18   2  10  112.17   13.36
 -18   2  13    9.95   18.30
 -18   2  14   14.90   10.79
 -18   2  15  -10.13   13.97
 -18   2  16  -22.39   15.35
 -18   3 -12    5.64   10.34
 -18   3 -11    9.66    9.25
 -18   3 -10   -5.85   12.64
 -18   3  -9   -3.59   12.35
 -18   3  -8   -3.81   11.67
 -18   3  -7   18.33    9.91
 -18   3  -6   12.89    9.93
 -18   3  -5   17.20   12.71
 -18   3  -4   54.19   11.51
 -18   3  -3   18.71   11.58
 -18   3  -2   14.44   47.17
 -18   3  -1   49.86   46.04
 -18   3   0   84.82   39.84
 -18   3   1  170.83   63.62
 -18   3   2    0.23    7.76
 -18   3   3   26.70    9.48
 -18   3   4   11.94    9.98
 -18   3   5    7.65    9.48
 -18   3   6  -14.67   12.21
 -18   3   7   38.12   12.26
 -18   3   8   23.99   10.00
 -18   3   9   25.03   22.10
 -18   3  10   52.66   30.09
 -18   3  11   16.95   10.13
 -18   3  12   20.04   10.77
 -18   3  13   11.74   11.01
 -18   3  14   41.93   28.42
 -18   4  -9   11.53    9.48
 -18   4  -4   12.89    9.28
 -18   4  -3   20.04    9.95
 -18   4   1   20.31   11.92
 -18   4   2   20.99   16.25
 -18   4   3  -13.32    8.13
 -18   4   4    0.90   10.36
 -18   4   5   31.73   10.65
 -18   4   8    7.47    9.93
 -18   4   9   12.68    9.73
 -18   4  10   13.99    9.43
 -18   4  11    4.29    9.48
 -18   4  12  109.33   72.58
 -18   5  -5   -2.93    7.20
 -18   5  -4   25.93    9.95
 -18   5  -3   11.94    6.95
 -18   5  -2    9.48    9.91
 -18   5  -1    0.00    2.26
 -18   5   0  162.30   64.69
 -18   5   1  139.80   99.83
 -18   5   2  133.48   95.81
 -18   5   3   -4.94    8.35
 -18   5   4   24.42   12.19
 -18   5   7    3.14   11.24
 -17  -5  -8   56.88   34.44
 -17  -5  -7   79.11   17.11
 -17  -5  -6  -19.25   13.05
 -17  -5  -5    8.33    6.32
 -17  -5  -4   11.74   25.53
 -17  -5  -3   -7.47    9.03
 -17  -5  -2   17.31   10.13
 -17  -5  -1   -1.78    5.19
 -17  -5   0  107.77   25.26
 -17  -5   1   72.56   18.42
 -17  -5   2   15.84    9.68
 -17  -5   3    6.07    5.85
 -17  -5   5   -0.90    6.75
 -17  -5   6   20.31    8.53
 -17  -4 -12  -67.28   73.69
 -17  -4 -11  115.72   24.56
 -17  -4 -10   81.79   35.32
 -17  -4  -9   60.10   19.09
 -17  -4  -8   -7.90   16.88
 -17  -4  -7   37.94   30.18
 -17  -4  -6   38.68   19.25
 -17  -4  -5   17.31   15.12
 -17  -4  -4   -1.13    7.92
 -17  -4  -3   -3.59    7.40
 -17  -4  -2   34.69   12.57
 -17  -4  -1   14.67   13.11
 -17  -4   0   19.37   54.75
 -17  -4   1   60.10   12.57
 -17  -3 -14  130.36   28.12
 -17  -3 -13   18.98   32.34
 -17  -3 -12   19.64   15.84
 -17  -3 -11  -26.70   16.93
 -17  -3 -10   66.31   18.85
 -17  -3  -7   -7.65   14.44
 -17  -3  -6   79.36   37.22
 -17  -3  -5  191.87   15.82
 -17  -3  -4    4.29   14.69
 -17  -3  -3   52.23   14.76
 -17  -3  -2  119.28   16.07
 -17  -2 -15   46.31   16.57
 -17  -2 -14   70.53   14.63
 -17  -2 -13   37.38   19.84
 -17  -2 -12   22.39   10.25
 -17  -2 -11   34.33   11.08
 -17  -2 -10  -10.63    9.50
 -17  -2  -8    2.93   12.66
 -17  -2  -7    3.36    8.76
 -17  -2  -6   39.99    9.32
 -17  -2  -5   13.99    6.97
 -17  -2  -4    4.74    7.65
 -17  -2  -3   12.89    9.71
 -17  -2  -2   94.77    9.66
 -17  -2  -1   15.84    9.68
 -17  -2   0   33.45    9.03
 -17  -2   1   32.93    7.24
 -17  -1 -16    8.76   11.04
 -17  -1 -15    2.48    7.67
 -17  -1 -14   27.49   10.88
 -17  -1 -13   15.14   12.62
 -17  -1 -12   11.74    7.20
 -17  -1 -11   15.37    6.12
 -17  -1 -10   25.93    7.65
 -17  -1  -9   68.27    8.69
 -17  -1  -8    2.73    9.73
 -17  -1  -7   23.25    9.41
 -17  -1  -6   10.63    8.82
 -17  -1  -5  399.24   24.62
 -17  -1  -4    0.90    6.52
 -17  -1  -3   60.10   32.14
 -17  -1  -2   20.99   18.73
 -17  -1  -1   63.65    7.90
 -17  -1   0  -11.74    6.07
 -17  -1   1  320.70   22.05
 -17  -1   2   11.01    6.59
 -17  -1   3   22.12    8.76
 -17  -1   4    0.68    4.99
 -17  -1   5   -4.29    7.65
 -17  -1   6   25.32    7.40
 -17  -1   7   -8.15    8.40
 -17  -1   8   20.58    9.28
 -17  -1   9   11.94    6.12
 -17  -1  10   15.14    9.93
 -17  -1  11   89.02   12.48
 -17   0 -15   10.83    9.01
 -17   0 -13   12.68    8.78
 -17   0 -11   -5.42    7.90
 -17   0  -9   82.34    8.73
 -17   0  -7    5.42    7.70
 -17   0  -5   26.25    9.23
 -17   0  -3   17.31    8.51
 -17   0  -1  146.98   12.75
 -17   0   1   12.89    5.82
 -17   0   3   63.40   12.21
 -17   0   5   28.28    8.15
 -17   0   7   16.45    5.60
 -17   0   9   -7.00    6.36
 -17   0  11    4.06    6.77
 -17   0  13   35.93   17.65
 -17   0  15   11.74    8.53
 -17   0  17    1.13    8.85
 -17   1 -16   -5.21   13.79
 -17   1 -15   -1.78   10.56
 -17   1 -14   17.83    8.13
 -17   1 -13   23.41    9.30
 -17   1 -12   29.41    7.49
 -17   1 -11   28.93    7.43
 -17   1 -10   33.11    6.05
 -17   1  -9   69.76    9.55
 -17   1  -8    1.33    8.06
 -17   1  -7    2.93    8.60
 -17   1  -6   -9.48    7.67
 -17   1  -5  407.68   33.36
 -17   1  -4    0.45    8.85
 -17   1  -3   37.20    8.06
 -17   1  -2   41.53   38.14
 -17   1  -1   92.15   28.55
 -17   1   0   22.39   26.16
 -17   1   1  383.19   40.58
 -17   1   2   30.90    8.85
 -17   1   3   27.02    7.49
 -17   1   4   -8.33    9.46
 -17   1   5   -7.22    7.20
 -17   1   6   33.45   11.47
 -17   1   7    2.03   11.96
 -17   1   8    4.94   11.01
 -17   1   9    9.03    7.22
 -17   1  10   26.70    7.29
 -17   1  11  104.36   14.74
 -17   1  12   25.48    7.88
 -17   1  13   21.26   10.40
 -17   1  14   46.11   60.60
 -17   1  15  124.27   13.41
 -17   1  16   20.58   11.58
 -17   1  17   36.83   27.35
 -17   1  18   50.06   13.61
 -17   2 -15   27.81    9.98
 -17   2 -14   58.00   18.08
 -17   2 -13    7.65    9.89
 -17   2 -12   51.14   23.86
 -17   2 -11   38.30    9.48
 -17   2 -10    3.14    9.21
 -17   2  -9   60.10   11.87
 -17   2  -8    8.58    9.07
 -17   2  -7    9.66    9.91
 -17   2  -6   63.65   10.07
 -17   2  -5    1.78    7.20
 -17   2  -4   13.11   11.10
 -17   2  -3   48.16   13.56
 -17   2   0   31.58    8.10
 -17   2   1   19.64    8.40
 -17   2   2   12.14   10.16
 -17   2   3  118.63    8.51
 -17   2   4  215.88   22.07
 -17   2   5   33.45   23.45
 -17   2   6    5.64    9.48
 -17   2   7   31.73    7.45
 -17   2   8   14.44   10.86
 -17   2   9  -10.13    8.13
 -17   2  10    8.33    8.76
 -17   2  11    1.33   12.12
 -17   2  12   21.69    7.70
 -17   2  13   20.04   13.99
 -17   2  14   22.39   28.30
 -17   2  15   31.73   25.23
 -17   2  16   27.02   11.24
 -17   2  17   11.53   12.86
 -17   3 -14   21.42   10.16
 -17   3 -13   20.72   18.33
 -17   3 -12   17.20   11.96
 -17   3 -11   12.89    9.50
 -17   3  -8   21.69   10.36
 -17   3  -7    9.48    8.78
 -17   3  -6   58.25   10.31
 -17   3  -5  177.58   17.22
 -17   3  -4   11.01   12.57
 -17   3  -1    0.45    7.27
 -17   3   0   -1.78    6.30
 -17   3   1  316.41   17.63
 -17   3   3   62.20    9.23
 -17   3   4   17.56    8.82
 -17   3   5    6.30   10.56
 -17   3   6  132.08   21.42
 -17   3   7    8.15   11.49
 -17   3   8    7.00    8.35
 -17   3   9   55.97   11.47
 -17   3  10   20.58   16.23
 -17   3  11    6.52    8.82
 -17   3  12   25.93   17.74
 -17   3  13    8.76   12.62
 -17   3  16   24.87   26.38
 -17   4 -12    0.23   10.97
 -17   4 -11   36.29   15.03
 -17   4 -10    4.94   13.77
 -17   4  -9   53.74   11.47
 -17   4  -8    9.21    7.65
 -17   4  -7    0.45    8.85
 -17   4  -6   25.32   10.13
 -17   4  -5   49.43   29.36
 -17   4  -4   -7.47   23.09
 -17   4  -3   -4.29    7.47
 -17   4  -2   41.35   10.63
 -17   4  -1    7.65   16.70
 -17   4   0    9.66   18.69
 -17   4   1   71.03   20.00
 -17   4   2   16.95   20.54
 -17   4   3   11.01    8.78
 -17   4   4    7.47   10.18
 -17   4   5    1.60    9.30
 -17   4   8   -6.75    9.21
 -17   4   9    9.95    9.30
 -17   4  10    6.52   11.74
 -17   4  13   24.58   11.01
 -17   4  14   -0.68    9.07
 -17   5  -8   -0.90    9.21
 -17   5   0    8.33    9.28
 -17   5   1  141.92   24.69
 -17   5   2   41.73   18.44
 -17   5   3   38.87   21.73
 -17   5   4  102.22   23.70
 -17   5   7   17.83   11.28
 -17   5   8    4.06    7.85
 -17   5   9   -4.49   11.26
 -17   5  10   11.94   10.18
 -16  -6  -5    1.13    4.51
 -16  -6  -4    4.94    4.47
 -16  -6  -3    2.03    9.73
 -16  -6  -2   14.90    9.75
 -16  -6  -1   -2.03    4.06
 -16  -6   0    2.03    7.47
 -16  -6   1    3.81    6.75
 -16  -6   2    2.26    4.97
 -16  -6   3   78.84   12.55
 -16  -6   4  108.70   20.99
 -16  -6   5    5.64    8.55
 -16  -6   6   -1.33   15.46
 -16  -6   7   25.03   11.71
 -16  -6   8   18.46    8.78
 -16  -5 -10  108.70   30.06
 -16  -5  -9   26.70   16.77
 -16  -5  -8    8.33   21.15
 -16  -5  -7   46.31   12.89
 -16  -5  -6    3.14    5.87
 -16  -5  -5   10.63   12.26
 -16  -5  -4   -0.45    6.14
 -16  -5  -3   13.54    9.07
 -16  -5  -2    3.36    4.74
 -16  -5  -1   -2.93   10.40
 -16  -5   0   14.67   11.06
 -16  -5   1   30.06   11.69
 -16  -5   2    9.66   11.04
 -16  -5   3   22.82    7.90
 -16  -5   4   -0.90    5.87
 -16  -5   5   -6.07    9.25
 -16  -5   6    5.85    5.17
 -16  -4 -13   82.06   32.12
 -16  -4 -12  -12.68   21.51
 -16  -4 -11   -6.07   18.96
 -16  -4 -10   97.41   21.94
 -16  -4  -9   36.83   19.14
 -16  -4  -8   11.53   13.07
 -16  -4  -7   25.48   15.17
 -16  -4  -6   -7.47   10.61
 -16  -4  -5   18.46    9.03
 -16  -4  -4   18.46   13.81
 -16  -4  -3   67.28   56.45
 -16  -4  -2   58.00   10.99
 -16  -4  -1   -7.90    6.59
 -16  -4   0   -1.13    7.92
 -16  -4   1  102.22   17.31
 -16  -3 -15    3.59   13.25
 -16  -3 -14   52.00   29.02
 -16  -3 -13   22.12   12.01
 -16  -3 -12   63.15   16.00
 -16  -3 -11   37.76   11.83
 -16  -3 -10   23.41   10.61
 -16  -3  -9    5.64   10.34
 -16  -3  -5    7.65   15.12
 -16  -3  -4   14.67   11.51
 -16  -3  -3   23.99   13.97
 -16  -3  -2   18.08    8.55
 -16  -2 -17   28.44   14.90
 -16  -2 -16   30.06   13.18
 -16  -2 -15   27.49   18.91
 -16  -2 -14    5.21    7.90
 -16  -2 -13    1.33   10.09
 -16  -2 -12   58.70    8.28
 -16  -2 -11    6.07    6.30
 -16  -2 -10    1.33    6.95
 -16  -2  -9   33.63    5.91
 -16  -2  -8  133.82    9.39
 -16  -2  -7    9.66    8.78
 -16  -2  -6   19.37    8.73
 -16  -2  -5  153.61   10.07
 -16  -2  -4  137.32    8.80
 -16  -2  -3    7.00    8.10
 -16  -2  -2   23.25    6.09
 -16  -2  -1  117.66    9.12
 -16  -2   0   76.99    9.75
 -16  -2   1    0.45   10.45
 -16  -2   2  203.26   14.13
 -16  -2   3   62.92    5.01
 -16  -2   4  121.27    9.93
 -16  -2   5    5.42    7.20
 -16  -2   6   76.20    7.34
 -16  -2   7   57.55    7.29
 -16  -1 -17   73.58   15.73
 -16  -1 -16    3.59   10.36
 -16  -1 -15   21.69    6.16
 -16  -1 -14   26.86   22.59
 -16  -1 -13   -6.52    5.60
 -16  -1 -12  242.24   18.71
 -16  -1 -11   -7.22    9.93
 -16  -1 -10   97.41    9.80
 -16  -1  -9    2.26    6.55
 -16  -1  -8   80.44   11.06
 -16  -1  -7   13.11    7.52
 -16  -1  -6   19.91    6.57
 -16  -1  -5    1.78    5.62
 -16  -1  -4    7.47    6.07
 -16  -1  -3   20.99    9.23
 -16  -1  -2   12.14    6.82
 -16  -1  -1  105.29   12.03
 -16  -1   0   20.04    6.05
 -16  -1   1   -4.74    8.13
 -16  -1   2  148.44   12.07
 -16  -1   3    5.42    5.39
 -16  -1   4   -0.68   13.14
 -16  -1   5   -1.13   14.74
 -16  -1   6   69.76    7.02
 -16  -1   7    8.76    7.20
 -16  -1   8    8.15   10.20
 -16  -1   9   -7.00    6.12
 -16  -1  10   90.14   10.56
 -16  -1  11   -4.94    6.27
 -16  -1  12   40.38   10.70
 -16  -1  13   36.11    8.49
 -16  -1  14   11.33   10.81
 -16   0 -16  194.78   12.57
 -16   0 -14   27.96    8.73
 -16   0 -12  222.54   16.59
 -16   0 -10   54.19    9.73
 -16   0  -8  175.98   13.16
 -16   0  -6  321.22   22.62
 -16   0  -4  206.27   18.55
 -16   0  -2    0.90    6.27
 -16   0   0  224.35   13.50
 -16   0   2  137.68   11.62
 -16   0   4   12.14    8.06
 -16   0   6  165.75   13.93
 -16   0   8   44.10   11.78
 -16   0  10    9.95    6.07
 -16   0  12  136.62   13.34
 -16   0  14   19.37   17.33
 -16   0  16   -4.74    7.65
 -16   0  18   42.70   10.99
 -16   1 -17  114.41   20.25
 -16   1 -16   -6.07   10.36
 -16   1 -15   14.67    6.57
 -16   1 -14   23.25    8.55
 -16   1 -13    1.78   12.32
 -16   1 -12  229.78   13.20
 -16   1 -11   -3.59    8.53
 -16   1 -10  120.61    7.92
 -16   1  -9   -5.21    6.79
 -16   1  -8   72.04   10.45
 -16   1  -7    9.48    6.57
 -16   1  -6    0.90    6.75
 -16   1  -5    8.76    7.92
 -16   1  -4   18.46    8.53
 -16   1  -3   19.64    9.73
 -16   1  -2   -0.23    6.84
 -16   1  -1  112.49   13.38
 -16   1   0   22.98   11.96
 -16   1   1   -5.21    6.12
 -16   1   2  131.04   15.48
 -16   1   3   -2.26    6.55
 -16   1   4    0.90    9.21
 -16   1   5   -4.94    5.21
 -16   1   6   83.15   12.32
 -16   1   7   21.83    7.72
 -16   1   8   17.31    9.64
 -16   1   9    3.59    6.32
 -16   1  10  141.58   17.88
 -16   1  11   11.33    8.08
 -16   1  12   37.38    9.19
 -16   1  13   75.14   16.14
 -16   1  14   -2.26    7.90
 -16   1  15   42.91   55.88
 -16   1  18   93.60   25.30
 -16   1  19   14.22   12.68
 -16   2 -17    2.26   16.70
 -16   2 -16    0.68    9.75
 -16   2 -15  190.20  112.71
 -16   2 -14    7.90   10.38
 -16   2 -13   -3.59    9.43
 -16   2 -12   33.63    8.89
 -16   2 -11    4.06   14.22
 -16   2 -10    1.13    8.62
 -16   2  -9   39.99    9.12
 -16   2  -8  121.27   12.23
 -16   2  -7   35.39   47.55
 -16   2  -6   19.37    8.60
 -16   2  -5  166.93   12.41
 -16   2  -4  128.65   10.56
 -16   2  -3   -4.29    9.73
 -16   2  -2   18.71    9.23
 -16   2  -1  117.32   12.05
 -16   2   0  105.29   13.88
 -16   2   1    6.52    6.07
 -16   2   2  216.76   18.15
 -16   2   3   94.18   15.46
 -16   2   4  124.27   16.07
 -16   2   5   10.13   17.60
 -16   2   6  107.46   13.38
 -16   2   7   49.65    9.10
 -16   2   8  -10.83    9.48
 -16   2   9   10.34    9.28
 -16   2  10   -3.36    9.41
 -16   2  11   -3.14    7.40
 -16   2  12  253.60   15.80
 -16   2  13    7.90    7.94
 -16   2  15   18.08   28.87
 -16   2  16   19.91   15.42
 -16   2  17   17.31   17.76
 -16   2  18  139.80   22.39
 -16   2  19   14.90    9.98
 -16   3 -15    8.76   10.13
 -16   3 -14   28.44   12.01
 -16   3 -13   16.45   14.38
 -16   3 -12   20.31   17.88
 -16   3 -11   19.64   17.18
 -16   3 -10  -11.33   11.53
 -16   3  -9   -7.00   10.40
 -16   3  -8   69.76   11.56
 -16   3  -3   -1.60    7.92
 -16   3  -2   15.84    7.43
 -16   3  -1  197.31   16.45
 -16   3   0   36.47   13.07
 -16   3   1   23.41    9.46
 -16   3   2  163.45   14.60
 -16   3   3   78.30   13.84
 -16   3   4   13.54    6.97
 -16   3   5   -0.68    7.94
 -16   3   6  -25.03   11.58
 -16   3   7    5.21    6.79
 -16   3   8   -3.59    8.08
 -16   3   9    2.73   14.06
 -16   3  10   31.73   11.51
 -16   3  11   37.76    9.05
 -16   3  12    0.90   11.24
 -16   3  13   31.73   14.74
 -16   3  14   -7.22    8.17
 -16   3  15   60.56   22.46
 -16   3  16   39.43   11.89
 -16   3  17   48.39   17.36
 -16   4 -13   13.32   11.74
 -16   4 -12  138.74   95.90
 -16   4 -11   14.67   13.36
 -16   4 -10   33.45   15.30
 -16   4  -9    0.23    8.92
 -16   4  -8   14.67    8.76
 -16   4  -7    3.36   11.01
 -16   4  -6   31.73   23.18
 -16   4  -5   35.21    9.28
 -16   4  -4    0.68    7.70
 -16   4  -3   24.13    7.67
 -16   4   0   -1.33    6.95
 -16   4   1  108.70   10.97
 -16   4   2   11.74    5.67
 -16   4   3   22.39   11.94
 -16   4   4   36.11    9.21
 -16   4   5    9.03   10.56
 -16   4   6   56.42   21.44
 -16   4   7  132.44  123.10
 -16   4   8   12.14   10.16
 -16   4   9   34.33    9.68
 -16   4  11   18.98    8.64
 -16   4  12   20.72    9.71
 -16   4  13    5.64   11.06
 -16   4  14  -21.26    9.43
 -16   4  15   -3.14    9.43
 -16   5 -11    4.06    7.02
 -16   5 -10    2.26    7.67
 -16   5  -9    0.23    5.03
 -16   5  -8    1.13    5.89
 -16   5  -7   28.93   10.68
 -16   5  -6    1.60    6.34
 -16   5  -5    4.94    5.21
 -16   5  -4    5.21    9.48
 -16   5  -3    0.23   11.42
 -16   5  -2   -7.22    7.67
 -16   5  -1    1.78    7.88
 -16   5   2    7.65    9.48
 -16   5   3   36.11   10.83
 -16   5   4   -3.59    8.08
 -16   5   7   16.45   11.33
 -16   5   8   31.39   11.96
 -16   5   9  -18.08    8.17
 -16   5  12    5.21   11.33
 -16   5  13   39.99   13.11
 -16   6  -6    3.36    7.22
 -16   6  -5    9.21    9.66
 -16   6  -4    3.81    7.63
 -16   6  -3    3.14    6.97
 -16   6  -2   20.72   10.40
 -16   6  -1    0.68    5.89
 -16   6   0    4.74   10.40
 -16   6   3   76.20   13.38
 -16   6   4   82.34   12.82
 -16   6   5   18.08   23.77
 -16   6   6   19.91   12.46
 -16   6   7   27.02   12.66
 -15  -6  -8   11.94    9.03
 -15  -6  -7    2.93    5.67
 -15  -6  -6   17.31    7.63
 -15  -6  -5   -2.03    8.15
 -15  -6  -4    6.75    6.79
 -15  -6  -3    2.03    4.49
 -15  -6  -2   74.37   16.84
 -15  -6  -1   49.02   12.62
 -15  -6   0   17.56    9.71
 -15  -6   1   42.91   10.83
 -15  -6   2    1.13    4.29
 -15  -6   3    7.90    9.71
 -15  -6   4    4.29   11.08
 -15  -6   5   -1.13    9.07
 -15  -6   6   56.42   54.17
 -15  -6   7   21.42    9.46
 -15  -6   8   16.21   14.04
 -15  -6   9  124.59   55.68
 -15  -6  10   -7.65   11.28
 -15  -5 -12  120.61   25.73
 -15  -5 -11   47.35   26.45
 -15  -5 -10   -7.47   14.22
 -15  -5  -9   12.68   11.13
 -15  -5  -8   -6.07    9.25
 -15  -5  -7    6.30    7.92
 -15  -5  -6   14.90    9.28
 -15  -5  -5   22.55   12.84
 -15  -5  -4   39.07   52.59
 -15  -5  -3   -9.03    6.95
 -15  -5  -2   10.34    7.24
 -15  -5  -1    9.03    9.75
 -15  -5   0    8.76   11.47
 -15  -5   1   21.42   13.77
 -15  -5   2    7.90    7.00
 -15  -5   3    5.85    6.32
 -15  -5   4   15.14   13.79
 -15  -5   5   57.55   36.25
 -15  -5   6    9.95    7.49
 -15  -4 -15   62.92   18.12
 -15  -4 -14   14.90   29.59
 -15  -4 -13   13.77   15.82
 -15  -4 -12   19.37   15.35
 -15  -4 -11   17.56   13.34
 -15  -4 -10   11.53   14.17
 -15  -4  -9   -4.74   10.40
 -15  -4  -8   12.68   11.98
 -15  -4  -7   65.32   12.86
 -15  -4  -6   39.81   12.50
 -15  -4  -5   -0.90    8.10
 -15  -4  -4    5.21   13.11
 -15  -4  -3   -0.45    7.94
 -15  -4  -2    8.58    8.10
 -15  -4  -1    2.26   13.99
 -15  -4   0   10.83    8.60
 -15  -4   1   13.32    8.55
 -15  -3 -17  129.69   31.82
 -15  -3 -16   41.35   41.73
 -15  -3 -15  247.89   31.21
 -15  -3 -14   49.65   20.11
 -15  -3 -13   53.08   18.39
 -15  -3 -12  108.70   20.04
 -15  -3 -11   52.23   11.71
 -15  -3 -10   18.33   19.68
 -15  -3  -9   15.37   11.78
 -15  -3  -8   46.11   27.54
 -15  -3  -7   31.58    9.46
 -15  -3  -6    4.29   15.82
 -15  -3  -2   41.14   10.99
 -15  -2 -18   36.47   27.04
 -15  -2 -17   25.03    9.77
 -15  -2 -16   30.90   18.53
 -15  -2 -15   18.08   10.22
 -15  -2 -14   -4.29    8.17
 -15  -2 -13   19.37    5.69
 -15  -2 -12    7.47    8.37
 -15  -2 -11    5.21    7.00
 -15  -2 -10   37.94   16.30
 -15  -2  -9    7.22    6.79
 -15  -2  -8    4.74    4.97
 -15  -2  -7   30.90    7.85
 -15  -2  -6  176.77    9.19
 -15  -2  -5   58.48    6.43
 -15  -2  -4    7.00    4.06
 -15  -2  -3   11.33    7.67
 -15  -2  -2   42.70   10.20
 -15  -2  -1  171.62   11.01
 -15  -2   0   17.83    5.57
 -15  -2   1   43.70   11.51
 -15  -2   2  265.69   15.66
 -15  -2   3   18.08   12.01
 -15  -2   4   12.68    9.10
 -15  -2   5   -2.26    6.77
 -15  -2   6   17.83    6.97
 -15  -2   7   50.49    7.47
 -15  -2   8    2.48    7.02
 -15  -2   9   78.02    9.03
 -15  -1 -19   20.31   10.83
 -15  -1 -18    3.36    7.65
 -15  -1 -17   -7.22    6.79
 -15  -1 -16    7.22   10.59
 -15  -1 -15  174.38   13.50
 -15  -1 -14   14.67    7.47
 -15  -1 -13   70.53   10.61
 -15  -1 -12    5.85    7.40
 -15  -1 -11    1.60    6.09
 -15  -1 -10   11.74    5.46
 -15  -1  -9   17.56    6.30
 -15  -1  -8    7.65    6.32
 -15  -1  -7   72.56    7.43
 -15  -1  -6   69.52    7.76
 -15  -1  -5   31.73   16.25
 -15  -1  -4   35.57    7.70
 -15  -1  -3  136.62   11.94
 -15  -1  -2   10.83    7.02
 -15  -1  -1  380.26   19.93
 -15  -1   0  129.69   17.45
 -15  -1   1   10.34   12.37
 -15  -1   2    2.26    5.64
 -15  -1   3   70.53    7.56
 -15  -1   4  -10.34    6.57
 -15  -1   5   71.03    7.85
 -15  -1   6    5.85    4.72
 -15  -1   7   20.72    6.70
 -15  -1   8    4.29    7.92
 -15  -1   9    9.03    8.58
 -15  -1  10   14.90    7.65
 -15  -1  11  215.88   14.56
 -15  -1  12    0.23    5.48
 -15  -1  13   55.07   10.04
 -15  -1  14   -2.48    6.55
 -15  -1  15  135.56   23.79
 -15  -1  16   22.55    7.85
 -15   0 -19    3.14   14.38
 -15   0 -17    2.03    9.95
 -15   0 -15   15.14    8.31
 -15   0 -13  246.46   19.34
 -15   0 -11   27.02   15.93
 -15   0  -9   24.42   11.13
 -15   0  -7   33.81    9.77
 -15   0  -5  120.93    9.59
 -15   0  -3   99.80   10.81
 -15   0  -1   52.88    6.77
 -15   0   1   66.78    7.85
 -15   0   3  114.09   12.53
 -15   0   5   86.76    8.67
 -15   0   7  117.32   12.05
 -15   0   9  123.59   12.68
 -15   0  11   22.39   14.51
 -15   0  13  406.48   27.26
 -15   0  15    6.52    7.22
 -15   0  17  296.93   23.81
 -15   0  19    8.76    9.43
 -15   1 -19   19.64   17.58
 -15   1 -18   -5.21    8.85
 -15   1 -17    1.60    9.52
 -15   1 -16    6.07    7.40
 -15   1 -15  170.04   11.35
 -15   1 -14   -5.85    5.17
 -15   1 -13   45.30    7.29
 -15   1 -12   -7.00    5.87
 -15   1 -11    4.49    7.20
 -15   1 -10   -3.59    6.09
 -15   1  -9   29.57    7.52
 -15   1  -8    3.36    8.76
 -15   1  -7   63.87    7.45
 -15   1  -6   70.53    8.33
 -15   1  -5   63.87   10.56
 -15   1  -4   28.93    9.71
 -15   1  -3  141.58   13.59
 -15   1  -2   20.72    8.35
 -15   1  -1  429.82   25.55
 -15   1   0   93.30    9.57
 -15   1   1   11.01   10.77
 -15   1   2    7.47    6.07
 -15   1   3   76.44    8.94
 -15   1   4    5.42    5.39
 -15   1   5   93.30    8.42
 -15   1   6    3.14    8.78
 -15   1   7   11.74    5.87
 -15   1   8   11.33    9.91
 -15   1   9   11.53    6.52
 -15   1  10   21.83   12.91
 -15   1  11  200.69   13.20
 -15   1  12   -1.60   11.78
 -15   1  13   84.52   10.50
 -15   1  14    7.90    8.10
 -15   1  15   72.56   16.39
 -15   1  16   11.01    8.37
 -15   1  17  140.50   21.37
 -15   1  18   32.77   13.93
 -15   1  19    9.95   18.48
 -15   1  20   -1.13   11.35
 -15   2 -18   28.28   10.22
 -15   2 -17   41.35   19.70
 -15   2 -16   -2.93   11.74
 -15   2 -15  -10.13   13.29
 -15   2 -14    6.75    9.46
 -15   2 -13   64.12   30.31
 -15   2 -12    7.90   10.81
 -15   2 -11   14.22    6.12
 -15   2 -10    6.30    6.34
 -15   2  -9   13.54    7.85
 -15   2  -8   13.99    9.21
 -15   2  -7   18.71   11.06
 -15   2  -6  171.22   11.80
 -15   2  -5   66.06   10.25
 -15   2  -4   17.20    9.73
 -15   2  -3    2.26    6.09
 -15   2  -2   12.68    6.75
 -15   2  -1  186.09   15.98
 -15   2   0   22.98    7.20
 -15   2   1   61.03    9.16
 -15   2   2  253.12   17.20
 -15   2   3   25.77    9.77
 -15   2   4   10.83    7.02
 -15   2   5  -15.98    8.53
 -15   2   6   19.37    8.06
 -15   2   7   65.57   13.86
 -15   2   8    0.23   11.19
 -15   2   9   64.37    7.94
 -15   2  10   15.37   10.36
 -15   2  11   -6.30    7.47
 -15   2  12   52.43   12.84
 -15   2  13  251.68   15.73
 -15   2  14  -12.46    9.75
 -15   2  15   44.49    9.21
 -15   2  16   87.32   20.49
 -15   2  17  269.15   34.51
 -15   2  18   15.37   14.49
 -15   2  19    3.14   11.71
 -15   2  20   25.93    8.58
 -15   3 -17   83.15   14.51
 -15   3 -16   10.63   17.45
 -15   3 -15  236.19   24.01
 -15   3 -14    9.66   17.56
 -15   3 -13   75.65   28.48
 -15   3 -12   52.88    8.73
 -15   3 -11   31.06   14.40
 -15   3 -10   11.74   12.14
 -15   3  -9   11.74   12.46
 -15   3  -8   27.02   11.56
 -15   3  -7   18.08   14.17
 -15   3  -6   81.52   16.81
 -15   3  -5   61.03    8.92
 -15   3  -4    0.23    9.37
 -15   3  -3   42.70   16.30
 -15   3  -2   54.19   21.89
 -15   3  -1  114.41   14.78
 -15   3   0  234.37   24.38
 -15   3   1    7.65   11.04
 -15   3   2   85.65   10.02
 -15   3   3   55.97    7.88
 -15   3   4   12.46   11.56
 -15   3   5   46.52    7.18
 -15   3   6  -12.89    9.50
 -15   3   7   21.26   21.49
 -15   3   8    8.76    7.65
 -15   3   9   18.33   11.58
 -15   3  10   24.13    8.85
 -15   3  11  211.48   15.30
 -15   3  12   42.12   16.39
 -15   3  13    5.64    7.92
 -15   3  14   -0.90    9.43
 -15   3  17   -0.90   10.13
 -15   3  18    5.21   10.83
 -15   3  19    7.00    8.10
 -15   4 -15    2.73    4.31
 -15   4 -14    6.75   12.66
 -15   4 -13   -3.14   11.94
 -15   4 -12    1.60   10.20
 -15   4 -11   -0.45   11.58
 -15   4 -10   16.45   14.38
 -15   4  -9   25.93   15.14
 -15   4  -8   29.57   25.98
 -15   4  -7   89.87   20.22
 -15   4  -3    0.00    2.26
 -15   4  -2    7.22    7.92
 -15   4  -1   17.20   10.22
 -15   4   0   11.53   12.64
 -15   4   1    2.48    6.30
 -15   4   2   44.69    6.23
 -15   4   3   49.02   12.41
 -15   4   4   -5.42    7.00
 -15   4   5    0.45    7.94
 -15   4   6    2.73   10.43
 -15   4   7    0.90    8.10
 -15   4   8    1.33    7.61
 -15   4   9   97.73   22.86
 -15   4  10  179.18  112.62
 -15   4  11   26.25   10.16
 -15   4  12  118.31   19.27
 -15   4  15   94.48   18.98
 -15   4  16   -1.33   29.41
 -15   4  17   40.58   11.67
 -15   5 -12   15.84   16.75
 -15   5 -11    5.85    5.89
 -15   5  -8  -12.68   10.38
 -15   5  -7   17.31   10.13
 -15   5  -3    1.78    7.40
 -15   5  -2   11.94    6.95
 -15   5  -1    2.03    8.58
 -15   5   0    8.15    9.01
 -15   5   1   17.20   13.84
 -15   5   2    3.36    8.76
 -15   5   3   35.39   14.83
 -15   5   4   21.26   16.21
 -15   5   5   18.46   18.21
 -15   5   6   15.37    6.95
 -15   5   7   16.70    9.46
 -15   5   8   22.55    9.71
 -15   5   9   37.94   13.32
 -15   5  10   51.35   11.85
 -15   5  11  106.21   17.04
 -15   5  12   50.92   14.58
 -15   5  13   -1.13   11.35
 -15   5  14  -22.39   10.38
 -15   6  -8   11.01    8.08
 -15   6  -7   17.20   10.22
 -15   6  -4    5.42    5.39
 -15   6  -3   -1.60    6.57
 -15   6  -2   63.65   12.93
 -15   6  -1   58.25    8.49
 -15   6   0    8.15    9.52
 -15   6   1   80.71   12.41
 -15   6   2   50.71   28.03
 -15   6   3   21.26   26.05
 -15   6   4   -5.64   12.62
 -15   6   5  -12.68   10.59
 -15   6   6  -14.90    9.05
 -15   6   9   35.57   11.10
 -15   6  10    8.76   11.92
 -14  -7  -4   13.77    7.92
 -14  -7  -3    4.49    5.85
 -14  -7  -2    6.52   20.94
 -14  -7  -1   10.34   10.34
 -14  -7   0   29.09   10.38
 -14  -7   1   15.98   13.56
 -14  -7   2    7.00    8.82
 -14  -7   3   -8.58   11.08
 -14  -7   4  -10.83   12.84
 -14  -7   5   13.77    7.70
 -14  -7   6   36.83   17.69
 -14  -6 -10   28.28   19.66
 -14  -6  -9   -1.78    4.69
 -14  -6  -8   13.11   23.50
 -14  -6  -7    3.14   11.51
 -14  -6  -6    9.03    9.21
 -14  -6  -5   26.41   41.53
 -14  -6  -4    4.29   13.77
 -14  -6  -3   -4.49    5.85
 -14  -6  -2   11.94    9.46
 -14  -6  -1   -8.58    9.23
 -14  -6   0   16.70    6.75
 -14  -6   1   67.78   11.87
 -14  -6   2   69.76   11.80
 -14  -6   3   35.39    9.30
 -14  -6   4   -1.60   10.88
 -14  -6   5    3.81   10.79
 -14  -6   6    3.59    8.08
 -14  -6   7   16.95    8.53
 -14  -6   8   79.36   13.65
 -14  -6   9   18.08    9.71
 -14  -6  10   22.12   14.42
 -14  -5 -14  100.12   45.39
 -14  -5 -13  134.86   30.36
 -14  -5 -12   -5.64   31.60
 -14  -5 -11   16.70   18.78
 -14  -5 -10   17.56   17.38
 -14  -5  -9   12.46   10.40
 -14  -5  -8   16.95    9.52
 -14  -5  -7   65.81   14.63
 -14  -5  -6   21.69   15.82
 -14  -5  -5    6.52    9.21
 -14  -5  -4   95.65   13.23
 -14  -5  -3   77.78   17.76
 -14  -5  -2   47.55   14.29
 -14  -5  -1   62.45   11.15
 -14  -5   0   99.22   11.38
 -14  -5   1   79.11   10.95
 -14  -5   2    8.58    6.77
 -14  -5   3   10.34   10.63
 -14  -5   4   -1.78    9.01
 -14  -5   5   -0.23    7.76
 -14  -5   6   44.10   27.13
 -14  -4 -16  -10.83   18.28
 -14  -4 -15  -34.33   23.07
 -14  -4 -14   44.28   24.19
 -14  -4 -13   68.27   17.88
 -14  -4 -12   56.88   25.14
 -14  -4 -11   63.40   34.69
 -14  -4 -10   17.20   15.32
 -14  -4  -9   35.39   16.09
 -14  -4  -8  120.28   18.12
 -14  -4  -7   50.92   15.66
 -14  -4  -4   18.33   12.62
 -14  -4  -3   19.64   10.79
 -14  -4  -2   37.94   15.73
 -14  -4  -1   26.70   15.53
 -14  -4   0   64.12   13.95
 -14  -4   1    2.93    9.93
 -14  -3 -18   51.35   22.19
 -14  -3 -17   25.48   16.68
 -14  -3 -16   52.23   12.82
 -14  -3 -15   70.78   28.30
 -14  -3 -14   34.51   35.82
 -14  -3 -13   49.02   13.05
 -14  -3 -12   22.98   10.65
 -14  -3 -11   -2.26   20.54
 -14  -3  -9   24.13    6.34
 -14  -3  -8   51.78    8.44
 -14  -3  -7   64.84    7.99
 -14  -3  -6   56.65    6.12
 -14  -3  -5   17.20   11.71
 -14  -3  -4  413.77   18.33
 -14  -3  -3  118.97   11.15
 -14  -3  -2  219.88    9.80
 -14  -3  -1  266.19   11.76
 -14  -3   0  308.96   16.90
 -14  -3   1   17.31    9.50
 -14  -3   2  108.70    9.39
 -14  -2 -19    8.58    9.23
 -14  -2 -18   16.70    8.10
 -14  -2 -17   42.12   12.10
 -14  -2 -16    5.21    6.12
 -14  -2 -15   29.09    8.76
 -14  -2 -14   53.31   25.01
 -14  -2 -13   82.06    8.44
 -14  -2 -12   -5.21    6.79
 -14  -2 -11   15.37    6.12
 -14  -2 -10   13.11    5.44
 -14  -2  -9   14.90    4.06
 -14  -2  -8   35.03    6.93
 -14  -2  -7   25.77    5.96
 -14  -2  -6  218.54   13.32
 -14  -2  -5    1.60    4.97
 -14  -2  -4    5.64    4.29
 -14  -2  -3    1.60    9.30
 -14  -2  -2   34.51    9.01
 -14  -2  -1   50.49    9.39
 -14  -2   0  173.20   10.68
 -14  -2   1   40.20    5.91
 -14  -2   2   14.22   55.97
 -14  -2   3  164.22   54.28
 -14  -2   4    8.58    5.46
 -14  -2   5   11.01    6.27
 -14  -2   6    5.21    6.59
 -14  -2   7   28.93   21.64
 -14  -2   8   33.81    8.40
 -14  -2   9    6.52    8.98
 -14  -2  10   19.64    6.79
 -14  -2  11   -2.93    7.47
 -14  -1 -20   23.70    9.21
 -14  -1 -19   29.57   10.63
 -14  -1 -18   22.82   12.91
 -14  -1 -17   13.54    6.97
 -14  -1 -16   30.40    9.28
 -14  -1 -15   36.83    6.57
 -14  -1 -14   50.92    9.43
 -14  -1 -13   42.70    6.86
 -14  -1 -12   39.81    7.02
 -14  -1 -11   16.45    6.09
 -14  -1 -10    1.60    9.30
 -14  -1  -9   16.95    7.67
 -14  -1  -8   12.46   10.81
 -14  -1  -7   10.34    7.63
 -14  -1  -6   42.12    7.22
 -14  -1  -5  120.61   12.21
 -14  -1  -4  550.66   31.03
 -14  -1  -3   10.63   15.57
 -14  -1  -2   22.12   12.14
 -14  -1  -1   77.78   14.04
 -14  -1   0   63.15    8.13
 -14  -1   1   22.12    8.33
 -14  -1   2  295.37   19.12
 -14  -1   3   19.25    8.82
 -14  -1   4   80.44   10.25
 -14  -1   6    4.49    6.05
 -14  -1   7   44.69    5.62
 -14  -1   8   38.12    5.94
 -14  -1   9   -9.66    7.20
 -14  -1  10  177.96   11.22
 -14  -1  11   -1.33    6.30
 -14  -1  12    7.65   11.96
 -14  -1  13    6.52    5.60
 -14  -1  14    4.49    8.53
 -14  -1  15   28.44    7.85
 -14  -1  16  614.47   35.01
 -14  -1  17    1.78    8.31
 -14   0 -20   24.87   18.12
 -14   0 -18    6.52   10.59
 -14   0 -16   46.31   10.02
 -14   0 -14  435.44   18.80
 -14   0 -12   80.71    8.37
 -14   0 -10    2.03    7.00
 -14   0  -8   41.14    7.52
 -14   0  -6  704.70   32.70
 -14   0  -4  121.92   12.28
 -14   0  -2   81.52    9.23
 -14   0   0  191.87   11.24
 -14   0   2  166.54   19.00
 -14   0   4   32.41    7.18
 -14   0   6   43.11   10.65
 -14   0   8   26.70    5.89
 -14   0  10    4.94    9.68
 -14   0  12  191.44   16.63
 -14   0  14  204.55   18.06
 -14   0  16    2.93    6.55
 -14   0  18    4.49    8.08
 -14   0  20   14.44    9.48
 -14   0  22   12.46   13.99
 -14   1 -20   21.26   10.81
 -14   1 -19   -0.23   10.74
 -14   1 -18    6.30   14.17
 -14   1 -17   23.70   20.47
 -14   1 -16   23.41    7.40
 -14   1 -15   28.44    7.04
 -14   1 -14   38.12    9.46
 -14   1 -13   53.74    8.80
 -14   1 -12   39.99    5.51
 -14   1 -11   16.45    8.28
 -14   1 -10   11.94   11.01
 -14   1  -9   16.70    7.00
 -14   1  -8    2.93    9.01
 -14   1  -7   27.96    9.21
 -14   1  -6   30.40    6.95
 -14   1  -5   96.24    9.73
 -14   1  -4  549.26   33.09
 -14   1  -3    7.90    5.39
 -14   1  -2   17.56    7.67
 -14   1  -1   99.80   15.62
 -14   1   0  111.86   16.84
 -14   1   1   40.38   12.59
 -14   1   2  275.58   19.46
 -14   1   3  -10.63    7.45
 -14   1   4   67.78    5.69
 -14   1   5    6.52    6.75
 -14   1   6    2.03    7.90
 -14   1   7   55.07    8.03
 -14   1   8   52.23   15.42
 -14   1   9   -0.45    7.94
 -14   1  10  195.21   10.92
 -14   1  11  -10.83    8.60
 -14   1  12   36.83    7.83
 -14   1  13   15.98   11.53
 -14   1  14   -5.64    7.70
 -14   1  15   30.90   11.35
 -14   1  16  601.13   31.69
 -14   1  17   15.84   14.94
 -14   1  18    8.58    7.92
 -14   1  19   18.46    8.40
 -14   1  20   44.69   15.05
 -14   1  21   -2.48   12.19
 -14   2 -19    9.48   13.52
 -14   2 -18   25.93   34.13
 -14   2 -17   42.52   12.14
 -14   2 -16   14.44    9.71
 -14   2 -15   30.06   11.04
 -14   2 -14   55.97   10.79
 -14   2 -13   66.54    8.33
 -14   2 -12    4.06    6.12
 -14   2 -11    5.85    6.09
 -14   2 -10   13.77    9.25
 -14   2  -9    3.59    8.53
 -14   2  -8   35.21    9.10
 -14   2  -7   27.96    7.00
 -14   2  -6  201.98   14.51
 -14   2  -5   16.70   13.75
 -14   2  -4   28.28    7.04
 -14   2  -3    7.65    6.73
 -14   2  -2   17.56    9.43
 -14   2  -1   19.91    6.57
 -14   2   0  176.38   13.97
 -14   2   1   30.24    6.93
 -14   2   2    3.59   20.47
 -14   2   3  164.99   11.96
 -14   2   4   -1.78    6.30
 -14   2   5   31.39    9.93
 -14   2   6    9.48    6.75
 -14   2   7   14.44    8.58
 -14   2   8   41.93    7.40
 -14   2   9   23.99    9.57
 -14   2  10   18.46    9.03
 -14   2  11   12.14   15.51
 -14   2  12   45.30    9.50
 -14   2  13   84.52    9.66
 -14   2  14   22.39   11.51
 -14   2  15   20.72    9.03
 -14   2  16   55.52   13.65
 -14   2  17   -8.15    9.95
 -14   2  18   75.65   14.63
 -14   2  19   11.74   20.99
 -14   2  20   33.45   10.61
 -14   2  21   19.37   10.86
 -14   3 -18   67.28   15.28
 -14   3 -17    0.68    9.98
 -14   3 -16  181.19   67.96
 -14   3 -15   18.46   12.01
 -14   3 -14    8.58   14.69
 -14   3 -13   36.11   18.78
 -14   3 -12   19.91    8.31
 -14   3 -11    7.47    7.72
 -14   3 -10   20.04    6.73
 -14   3  -9   33.81   12.57
 -14   3  -8   51.78   11.47
 -14   3  -7   59.86   10.22
 -14   3  -6   43.29    8.89
 -14   3  -5    5.42    7.00
 -14   3  -4  393.26   19.07
 -14   3  -3   92.15   11.24
 -14   3  -2  206.27   11.65
 -14   3  -1  256.96   16.86
 -14   3   0  342.57   18.91
 -14   3   1   20.99    8.40
 -14   3   2  115.38   15.82
 -14   3   3   -0.90    4.27
 -14   3   4   26.41   10.65
 -14   3   5   69.52    8.51
 -14   3   6   38.68    9.91
 -14   3   7   54.64   11.78
 -14   3   8    1.33   10.77
 -14   3   9   23.70    7.18
 -14   3  10  203.69   28.30
 -14   3  11   46.92    9.48
 -14   3  12   -0.68    8.40
 -14   3  13   -9.48    8.60
 -14   3  14   18.46   17.18
 -14   3  15   25.93   10.86
 -14   3  16   10.13    9.28
 -14   3  17    8.15   14.49
 -14   3  18    8.15   18.53
 -14   3  19   44.49   18.44
 -14   3  20   15.98   14.17
 -14   4 -16    4.06    6.77
 -14   4 -15    9.66   21.87
 -14   4 -14    4.74   12.89
 -14   4 -13    9.03    9.21
 -14   4 -12    2.73    7.49
 -14   4 -11   40.38   10.11
 -14   4 -10   36.47   16.88
 -14   4  -9   34.69   12.21
 -14   4  -8   77.51   12.44
 -14   4  -7   24.13   18.46
 -14   4  -6   30.90   28.05
 -14   4  -5   30.90   11.53
 -14   4  -4    8.15    7.90
 -14   4  -3   18.98   14.40
 -14   4  -2   25.03   15.64
 -14   4  -1    0.68    8.85
 -14   4   0   50.06   11.26
 -14   4   1  -12.46   12.62
 -14   4   2  177.96    9.61
 -14   4   3  117.97   17.29
 -14   4   4   99.22   10.47
 -14   4   5    3.14    9.01
 -14   4   6   51.78   13.18
 -14   4   7   23.41    7.27
 -14   4   8   37.01   12.26
 -14   4   9   -0.90    7.20
 -14   4  10    3.36    7.88
 -14   4  11    3.59   11.26
 -14   4  13   52.43   12.19
 -14   4  14    3.81   15.55
 -14   4  15   45.91   12.82
 -14   4  18   14.22   12.68
 -14   5 -14    1.78    4.94
 -14   5 -13   17.31    8.37
 -14   5 -12   -4.29    4.74
 -14   5 -11    2.03    8.58
 -14   5 -10   16.45   14.26
 -14   5  -9    0.90    8.33
 -14   5  -8   12.68   12.19
 -14   5  -7   80.71   12.68
 -14   5  -6    9.03   10.11
 -14   5  -5    9.48    9.43
 -14   5  -4  102.54   11.56
 -14   5  -3   80.17    9.41
 -14   5  -2   19.25   10.68
 -14   5  -1   47.35    7.45
 -14   5   0  107.46   11.83
 -14   5   1   68.77    6.73
 -14   5   2   24.58    8.19
 -14   5   3   29.09   13.77
 -14   5   4   44.89   11.87
 -14   5   5    2.26   26.63
 -14   5   6   87.59   23.63
 -14   5   7    9.21   12.39
 -14   5   8   28.93   18.91
 -14   5   9   30.06    8.08
 -14   5  10   35.39    9.30
 -14   5  11   -7.00   10.18
 -14   5  12  -13.77   14.26
 -14   5  13   33.11   20.74
 -14   5  14    5.42   13.99
 -14   5  15   -2.93    8.33
 -14   5  16   -2.26   10.83
 -14   6 -11   10.34    6.95
 -14   6 -10    8.15    6.09
 -14   6  -9    3.14    5.37
 -14   6  -8  664.62  190.56
 -14   6  -7    1.33    5.39
 -14   6  -6   -0.68    6.79
 -14   6  -5    8.15    6.09
 -14   6  -2   11.53    7.85
 -14   6  -1    4.49    6.30
 -14   6   0   29.41   10.11
 -14   6   1   83.98   13.23
 -14   6   2  138.74   16.63
 -14   6   3   49.02   10.95
 -14   6   4    2.26   10.16
 -14   6   5   35.21   27.47
 -14   6   6  121.61   46.07
 -14   6   7   49.23   20.02
 -14   6   8   70.01   14.33
 -14   6   9   16.95    9.77
 -14   6  10   25.77   13.72
 -14   7  -4   27.81    9.50
 -14   7  -3   10.83    6.32
 -14   7  -2   11.01   13.77
 -14   7  -1    9.21   13.95
 -14   7   2   -1.60    8.60
 -14   7   3    6.07   14.44
 -14   7   4   -1.13   16.32
 -14   7   5   12.89   14.47
 -13  -7  -7    1.13    9.52
 -13  -7  -6    5.85    6.97
 -13  -7  -5    4.29    9.48
 -13  -7  -4   37.01   14.26
 -13  -7  -3    0.00    2.26
 -13  -7  -2    9.21    5.37
 -13  -7  -1   25.48   18.51
 -13  -7   0   86.49   19.84
 -13  -7   1   34.33    9.86
 -13  -7   2   58.25   55.73
 -13  -7   3    2.93    8.33
 -13  -7   4    9.48   11.10
 -13  -7   5    0.45    9.07
 -13  -7   6   14.22   11.78
 -13  -7   7   12.46   16.77
 -13  -6 -12   54.19   15.93
 -13  -6 -11   13.77   13.27
 -13  -6 -10    0.00    2.26
 -13  -6  -9   31.39   12.12
 -13  -6  -8    3.59    8.76
 -13  -6  -7   10.34    6.57
 -13  -6  -6    1.78    6.50
 -13  -6  -5   18.33   16.48
 -13  -6  -4   10.34    9.46
 -13  -6  -3   59.16   14.56
 -13  -6  -2   13.32    6.14
 -13  -6  -1   24.58    7.00
 -13  -6   0   25.48   13.34
 -13  -6   1  125.60   37.71
 -13  -6   2   -6.75    5.39
 -13  -6   3  109.33   20.43
 -13  -6   4   30.24    9.75
 -13  -6   5   31.58   14.02
 -13  -6   6   39.43    7.36
 -13  -6   7   18.98   28.93
 -13  -6   8    3.81    6.52
 -13  -6   9   16.21   11.74
 -13  -6  10    8.76   11.92
 -13  -5 -15   87.32   32.00
 -13  -5 -14    1.13   11.35
 -13  -5 -13    0.45   13.63
 -13  -5 -12   20.72   19.14
 -13  -5 -11   23.41   11.78
 -13  -5 -10   57.33   14.56
 -13  -5  -9    6.52   10.81
 -13  -5  -8    7.90   10.13
 -13  -5  -7   50.49   47.83
 -13  -5  -6   -3.59    8.76
 -13  -5  -5   36.11    9.75
 -13  -5  -4   48.39   11.28
 -13  -5  -3  159.64   14.42
 -13  -5  -2   21.26    9.01
 -13  -5  -1   19.25    6.59
 -13  -5   0  178.78   13.65
 -13  -5   1  166.93   15.91
 -13  -5   2   22.39   18.35
 -13  -5   3   -0.68    7.70
 -13  -5   4    5.42    7.70
 -13  -5   5   17.83   12.82
 -13  -5   6   57.33   10.25
 -13  -4 -18   71.03   19.50
 -13  -4 -17  -18.46   12.01
 -13  -4 -16   53.54   20.67
 -13  -4 -15   97.41   16.32
 -13  -4 -14   78.84   53.90
 -13  -4 -13    8.76    9.86
 -13  -4 -12   -1.33   23.77
 -13  -4 -11    4.06   11.24
 -13  -4 -10   15.84    8.85
 -13  -4  -9   72.81   10.25
 -13  -4  -8   -0.45   10.22
 -13  -4  -7   14.44   11.31
 -13  -4  -6   23.25    9.28
 -13  -4  -5  202.41   38.05
 -13  -4  -4   56.42   10.61
 -13  -4  -3   65.57    9.48
 -13  -4  -2  238.05   19.00
 -13  -4  -1    0.68    6.59
 -13  -4   0  414.99   22.64
 -13  -4   1 1300.03   63.92
 -13  -4   2  149.91   14.35
 -13  -3 -19   11.53   55.30
 -13  -3 -18  115.06   22.23
 -13  -3 -17   -8.76   11.47
 -13  -3 -16  231.61   23.31
 -13  -3 -15   28.44   18.10
 -13  -3 -14   35.57   14.15
 -13  -3 -13   15.37   10.13
 -13  -3 -12   17.56    9.95
 -13  -3 -11   17.56    7.43
 -13  -3 -10    7.47    6.82
 -13  -3  -9   16.21    6.30
 -13  -3  -8    4.06    4.29
 -13  -3  -7    4.29    6.79
 -13  -3  -6  116.03   15.21
 -13  -3  -5  235.74   12.91
 -13  -3  -4    3.59    3.59
 -13  -3  -3   46.72    4.51
 -13  -3  -2   12.46    4.56
 -13  -3  -1   27.96   10.34
 -13  -3   0    7.90    9.28
 -13  -3   1  390.28   17.81
 -13  -3   2   18.08    6.77
 -13  -3   3   13.77    6.36
 -13  -3   4  176.77   15.19
 -13  -3   5   17.31    8.51
 -13  -3   6  105.29    8.33
 -13  -2 -20   11.01   10.77
 -13  -2 -19  114.75   10.29
 -13  -2 -18   17.83    9.89
 -13  -2 -17   27.49    6.14
 -13  -2 -16  120.93   24.44
 -13  -2 -15  140.50   12.46
 -13  -2 -14  120.61    9.57
 -13  -2 -13   -0.45    4.56
 -13  -2 -12    7.22    7.02
 -13  -2 -11   14.44   10.63
 -13  -2 -10   46.72    7.20
 -13  -2  -9   89.02   10.20
 -13  -2  -8    9.03    4.69
 -13  -2  -7    2.03    3.61
 -13  -2  -6   33.81    6.30
 -13  -2  -5  103.44    7.34
 -13  -2  -4    2.03    5.19
 -13  -2  -3   -0.68   13.61
 -13  -2  -2   57.10    8.40
 -13  -2  -1   25.03    8.42
 -13  -2   0   74.10    9.05
 -13  -2   1  260.34   13.09
 -13  -2   2   12.68    5.67
 -13  -2   3   14.22    4.76
 -13  -2   4   40.38    7.24
 -13  -2   5   18.71    7.02
 -13  -2   6   71.28   14.72
 -13  -2   7   28.28    6.55
 -13  -2   8   16.95    4.69
 -13  -2   9   -0.45    4.56
 -13  -2  10    4.74    6.82
 -13  -2  11   21.69    7.43
 -13  -2  12   34.69    6.03
 -13  -2  13   57.33    6.59
 -13  -1 -21   19.37   20.11
 -13  -1 -20    0.23    7.09
 -13  -1 -19   15.98    8.28
 -13  -1 -18  143.00   14.74
 -13  -1 -17  139.80   12.44
 -13  -1 -16  141.22    9.28
 -13  -1 -15   -2.03    7.47
 -13  -1 -14   56.20    7.20
 -13  -1 -13   -2.03    8.37
 -13  -1 -12    9.48    7.67
 -13  -1 -11    6.75    5.62
 -13  -1 -10   12.89    4.74
 -13  -1  -9   13.99    4.94
 -13  -1  -8   -3.81    3.81
 -13  -1  -7   13.99    6.07
 -13  -1  -6    3.36    4.51
 -13  -1  -5   -4.29    7.22
 -13  -1  -4   54.19    7.97
 -13  -1  -3   46.92   12.14
 -13  -1  -2    0.68   12.91
 -13  -1  -1   95.36    7.34
 -13  -1   0   11.01    4.99
 -13  -1   1   28.44    5.94
 -13  -1   2   10.83    5.64
 -13  -1   3    3.36    7.22
 -13  -1   4   58.70    9.21
 -13  -1   5   72.81    8.46
 -13  -1   6   37.38    8.64
 -13  -1   7   37.94    9.43
 -13  -1   8    1.13    9.98
 -13  -1   9  237.59   14.35
 -13  -1  10   22.82    6.03
 -13  -1  11   73.58   10.04
 -13  -1  13  104.05   13.18
 -13  -1  15   13.99    6.52
 -13  -1  16   15.14   17.90
 -13  -1  17    7.22   10.83
 -13  -1  18   28.44   10.40
 -13  -1  19  107.77   15.91
 -13   0 -21   40.76   17.09
 -13   0 -19  112.49   12.75
 -13   0 -17   20.72    8.35
 -13   0 -15  670.82   31.91
 -13   0 -13  241.32   13.54
 -13   0 -11   36.83    4.92
 -13   0  -9   72.56   10.25
 -13   0  -7   19.37    8.06
 -13   0  -5  167.31   11.67
 -13   0  -3   41.73    7.18
 -13   0  -1   13.11    7.52
 -13   0   1    4.06    5.39
 -13   0   3   45.09    7.27
 -13   0   5   40.58    5.94
 -13   0   7  110.28    9.14
 -13   0   9   81.52    8.42
 -13   0  11   12.68    8.13
 -13   0  13  211.05   14.85
 -13   0  15  319.61   22.57
 -13   0  17   12.46    6.79
 -13   0  19   99.22   17.65
 -13   0  21   85.65   12.23
 -13   0  23    5.42   12.66
 -13   1 -21   12.46   11.78
 -13   1 -20   10.34   18.94
 -13   1 -19    9.21   22.52
 -13   1 -18  136.25   12.62
 -13   1 -17  140.14   19.57
 -13   1 -16  148.80   10.27
 -13   1 -15   11.74    6.79
 -13   1 -14   46.52    9.43
 -13   1 -13    9.03    6.14
 -13   1 -12   13.32    6.59
 -13   1 -11    6.52    8.60
 -13   1 -10   11.01    4.69
 -13   1  -9   12.89    5.62
 -13   1  -8   -0.68   10.43
 -13   1  -7   18.08   11.49
 -13   1  -6    9.21    6.30
 -13   1  -5   -3.36    4.97
 -13   1  -4   66.54   10.04
 -13   1  -3   20.31    5.42
 -13   1  -2   19.64   21.71
 -13   1  -1  108.09   18.44
 -13   1   0    7.90   15.10
 -13   1   1   36.29    6.16
 -13   1   2   19.25    7.65
 -13   1   3   13.32    7.45
 -13   1   4   41.73    4.65
 -13   1   5   72.81    8.46
 -13   1   6   25.48   15.32
 -13   1   7   44.10   15.75
 -13   1   8    2.93    5.87
 -13   1   9  238.97   12.07
 -13   1  10   34.69   10.45
 -13   1  11   66.06    6.84
 -13   1  12    7.47    9.71
 -13   1  13   84.25    7.99
 -13   1  14   50.71   11.56
 -13   1  15   16.70    9.71
 -13   1  16   -3.14    7.88
 -13   1  17  -12.14    8.80
 -13   1  19   79.63   10.45
 -13   1  20   -1.60   11.78
 -13   1  21  101.32   13.90
 -13   1  22   15.37    8.82
 -13   2 -20   25.03   11.71
 -13   2 -19  112.17   13.05
 -13   2 -18    2.73   12.71
 -13   2 -17   25.77    8.85
 -13   2 -16   47.76   13.09
 -13   2 -15  131.04   18.58
 -13   2 -14  137.32   11.96
 -13   2 -13    8.15    9.25
 -13   2 -12    2.93    5.39
 -13   2 -11   -4.06    4.54
 -13   2 -10   40.20    8.37
 -13   2  -9   88.45   10.74
 -13   2  -8   -1.60    4.97
 -13   2  -7    2.48    7.02
 -13   2  -6   15.84    6.59
 -13   2  -5  132.44   16.25
 -13   2  -4    7.00    7.22
 -13   2  -3   14.44    7.88
 -13   2  -2   43.11    7.90
 -13   2  -1   22.98    8.49
 -13   2   0   64.37    8.67
 -13   2   1  266.69   15.21
 -13   2   2   13.77    8.80
 -13   2   3   16.95    6.07
 -13   2   4    2.73    7.94
 -13   2   5    9.66    8.96
 -13   2   6   88.16   23.70
 -13   2   7   70.53   28.51
 -13   2   8   14.90   11.01
 -13   2   9   12.89    7.45
 -13   2  10   11.74    8.85
 -13   2  11   27.49    6.93
 -13   2  12   89.58   15.64
 -13   2  13   52.00   11.69
 -13   2  14   55.07   11.83
 -13   2  15   15.84   20.34
 -13   2  16   14.90    7.65
 -13   2  17   11.01   11.96
 -13   2  18    2.26   10.38
 -13   2  19    2.26    9.48
 -13   2  20   80.17   35.77
 -13   2  21   -6.52   11.28
 -13   2  22   32.07   23.31
 -13   3 -19  -11.33    8.08
 -13   3 -18  113.78   17.31
 -13   3 -17   -6.30    8.82
 -13   3 -16  240.84   17.72
 -13   3 -15   11.33   24.38
 -13   3 -14   31.58   11.49
 -13   3 -13    7.90    8.60
 -13   3 -12    1.33    7.85
 -13   3 -11    4.29    5.42
 -13   3 -10    6.52    6.75
 -13   3  -9   11.94   12.35
 -13   3  -8    8.58   23.95
 -13   3  -7   -4.06    6.30
 -13   3  -6   93.60    9.89
 -13   3  -5  208.00   14.74
 -13   3  -4    6.75   11.24
 -13   3  -3   41.53    9.68
 -13   3  -2   18.33   11.33
 -13   3  -1    5.64    7.20
 -13   3   0    7.22   10.18
 -13   3   1  423.62   19.79
 -13   3   2    5.85   10.18
 -13   3   3    9.95    7.67
 -13   3   4  202.41   17.11
 -13   3   5   -0.45    9.55
 -13   3   6   99.51    9.89
 -13   3   7   58.48   10.11
 -13   3   8   20.58    8.87
 -13   3   9   42.12    9.75
 -13   3  10   31.73    8.96
 -13   3  11   66.06    9.03
 -13   3  12    0.23   22.39
 -13   3  13   20.72    8.35
 -13   3  14   86.19   11.44
 -13   3  16   25.48   44.73
 -13   3  17    4.29    9.03
 -13   3  18    4.49   10.56
 -13   3  19  119.94   23.70
 -13   3  20    0.68   13.38
 -13   3  21   23.99   14.42
 -13   4 -17   15.62    8.19
 -13   4 -16    1.13    7.24
 -13   4 -15   18.08    9.71
 -13   4 -14   37.94   12.59
 -13   4 -13   -5.21   11.33
 -13   4 -12   19.25   11.08
 -13   4 -11   12.46   21.01
 -13   4 -10   19.37    8.73
 -13   4  -9   82.61    9.01
 -13   4  -8   13.54    6.97
 -13   4  -7   23.70    7.02
 -13   4  -6   34.15    8.42
 -13   4  -5  176.77   12.77
 -13   4  -4   11.53    8.37
 -13   4  -3   66.06    7.81
 -13   4  -2  179.97   15.32
 -13   4  -1   31.06   20.76
 -13   4   0  469.95   27.35
 -13   4   1 1433.28   71.66
 -13   4   2  165.75   14.69
 -13   4   3  442.37   29.07
 -13   4   4    4.29    6.09
 -13   4   5   35.93   12.62
 -13   4   6   32.41    7.88
 -13   4   7   13.99   11.69
 -13   4   8   15.84    6.82
 -13   4   9   20.04    9.28
 -13   4  10   34.33   11.26
 -13   4  11   42.52   10.18
 -13   4  12   25.03    9.93
 -13   4  14   47.35   22.75
 -13   4  15   46.92   13.38
 -13   4  16   13.11   11.76
 -13   4  17   16.95    9.03
 -13   4  18   56.88   10.65
 -13   4  19   92.15   20.20
 -13   5 -15   10.63    8.82
 -13   5 -14   -1.78    5.62
 -13   5 -13   22.55   12.68
 -13   5 -12   39.25   34.83
 -13   5 -11   12.89   11.98
 -13   5 -10   65.57   10.95
 -13   5  -9   14.22    8.62
 -13   5  -8   27.33   11.31
 -13   5  -7   38.30   11.53
 -13   5  -6    9.03    5.87
 -13   5  -5   50.06   10.43
 -13   5  -4   55.52   10.52
 -13   5  -3  146.98   15.30
 -13   5  -2   -4.49    6.30
 -13   5  -1   22.39    9.10
 -13   5   0  196.90   13.50
 -13   5   1  157.36   15.08
 -13   5   2   39.25   23.54
 -13   5   3    7.47   15.62
 -13   5   4   40.38   12.03
 -13   5   5    8.15    8.15
 -13   5   6   22.82    6.32
 -13   5   7  121.27   20.52
 -13   5   8   28.60   12.86
 -13   5   9  115.38   21.94
 -13   5  10   43.49   18.24
 -13   5  11  110.28   16.09
 -13   5  12   -1.13    8.40
 -13   5  13   38.12   11.51
 -13   5  16  166.93   88.11
 -13   5  17   13.99   13.72
 -13   6 -12    3.14    8.78
 -13   6 -11    6.30    6.12
 -13   6 -10    5.42    9.23
 -13   6  -9   75.41   20.61
 -13   6  -8   -0.23   14.85
 -13   6  -7   21.69   12.86
 -13   6  -6    1.13    6.12
 -13   6  -5    4.06    6.12
 -13   6  -4   39.99    8.17
 -13   6  -3   50.71    8.78
 -13   6  -2   19.37   10.86
 -13   6  -1   16.21    4.72
 -13   6   0    8.15    6.52
 -13   6   2   -1.33    7.20
 -13   6   3   85.92    8.92
 -13   6   4   18.46    7.22
 -13   6   5    9.48   13.32
 -13   6   6   18.33    7.47
 -13   6   7   20.72   10.40
 -13   6  10   14.90   21.24
 -13   6  11   15.84    9.46
 -13   6  12   38.12   12.80
 -13   6  13  122.26   26.90
 -13   7  -7   25.93    9.19
 -13   7  -6   13.11   10.45
 -13   7  -5    3.36    6.73
 -13   7  -4   35.93   12.26
 -13   7  -3    2.73    4.31
 -13   7  -2   15.84    9.21
 -13   7  -1   15.37    9.89
 -13   7   1   53.96   12.37
 -13   7   2   22.98   10.36
 -13   7   3   21.83   10.11
 -13   7   6   22.12    7.63
 -13   7   7    6.75   15.78
 -13   7   8   25.03   16.68
 -13   7   9   39.81   13.27
 -12  -7  -9    9.03   12.64
 -12  -7  -8    4.06   12.64
 -12  -7  -7   25.93    9.03
 -12  -7  -6    4.94    5.87
 -12  -7  -5   24.58   10.59
 -12  -7  -4   -3.36    4.97
 -12  -7  -3   12.46    9.55
 -12  -7  -2   19.91    9.25
 -12  -7  -1    0.23    5.26
 -12  -7   0   21.26   12.89
 -12  -7   1   83.15   13.43
 -12  -7   2   14.22    8.62
 -12  -7   3   16.70   16.09
 -12  -7   4  118.31   15.03
 -12  -7   5    5.42   12.66
 -12  -7   6   -1.13    7.02
 -12  -6 -13  148.44   30.02
 -12  -6 -12   -9.21   17.60
 -12  -6 -11   -2.93    7.00
 -12  -6 -10   -2.93    5.87
 -12  -6  -9   21.69   10.63
 -12  -6  -8    6.75    8.82
 -12  -6  -7   -0.45    9.77
 -12  -6  -6    2.26    7.67
 -12  -6  -5    8.58    9.07
 -12  -6  -4   11.33    8.08
 -12  -6  -3   24.58    9.68
 -12  -6  -2   35.03   10.86
 -12  -6  -1   62.20   10.65
 -12  -6   0   30.74    9.32
 -12  -6   1   27.49   10.56
 -12  -6   2   64.84   15.23
 -12  -6   3   18.71    9.48
 -12  -6   4   13.54    7.18
 -12  -6   5    7.90    9.28
 -12  -6   6   -4.49    8.08
 -12  -6   7   35.39    6.97
 -12  -6   8    3.81   11.51
 -12  -6   9    2.03    9.73
 -12  -6  10    6.30    6.34
 -12  -5 -16   24.13   19.18
 -12  -5 -15  130.36   49.74
 -12  -5 -14   48.39   23.20
 -12  -5 -13   34.33   17.42
 -12  -5 -12   29.41   20.04
 -12  -5 -11   67.03   13.52
 -12  -5 -10    7.00    6.36
 -12  -5  -9   -2.48    7.92
 -12  -5  -8   25.93   21.89
 -12  -5  -7    2.26    8.58
 -12  -5  -6    1.78    6.95
 -12  -5  -5   42.91    9.05
 -12  -5  -4   30.24   10.56
 -12  -5  -3   15.84   44.98
 -12  -5  -2  188.55   21.46
 -12  -5  -1   89.02   10.77
 -12  -5   0  145.17   16.30
 -12  -5   1  410.73   24.96
 -12  -5   2    9.21    7.83
 -12  -5   3   46.72    7.61
 -12  -5   4  166.93   13.59
 -12  -5   5   54.42   12.19
 -12  -5   6    5.85    6.97
 -12  -4 -19  178.78   44.60
 -12  -4 -18  114.75   19.95
 -12  -4 -17   29.75   12.62
 -12  -4 -16   17.20    9.98
 -12  -4 -15   11.53   13.07
 -12  -4 -14  -10.13   11.01
 -12  -4 -13   15.62   13.29
 -12  -4 -12   26.25    8.31
 -12  -4 -11   42.52    9.21
 -12  -4 -10   29.09   16.21
 -12  -4  -9   26.86   16.50
 -12  -4  -8  186.90   15.19
 -12  -4  -7   13.11   10.65
 -12  -4  -6  104.36   13.20
 -12  -4  -5   54.42   11.08
 -12  -4  -4  111.54   14.60
 -12  -4  -3   24.42    9.50
 -12  -4  -2    5.21    5.42
 -12  -4  -1  354.91   20.38
 -12  -4   0   13.11    8.17
 -12  -4   1   73.58   13.41
 -12  -4   2  820.78   43.04
 -12  -3 -20   87.89   16.05
 -12  -3 -19   21.42   11.53
 -12  -3 -18   -2.03   12.86
 -12  -3 -17   27.02   23.74
 -12  -3 -16   18.98   10.34
 -12  -3 -15    4.29    5.42
 -12  -3 -14   29.57    8.17
 -12  -3 -13   35.03    4.99
 -12  -3 -12   61.25    5.64
 -12  -3 -11    7.22    4.51
 -12  -3 -10    8.15    6.77
 -12  -3  -9    2.26    4.97
 -12  -3  -8   13.32    4.94
 -12  -3  -7   95.65    9.12
 -12  -3  -6    7.90    4.47
 -12  -3  -5  432.33   14.38
 -12  -3  -4    0.90    5.62
 -12  -3  -3   92.45    6.64
 -12  -3  -2   48.80    3.77
 -12  -3  -1   51.35    5.17
 -12  -3   0    4.06    3.14
 -12  -3   1  178.37   11.24
 -12  -3   2  138.02    9.89
 -12  -3   3  138.38    7.43
 -12  -3   4  108.09   21.55
 -12  -3   7   11.01   11.67
 -12  -3   8   26.25    8.15
 -12  -2 -21   11.01   10.38
 -12  -2 -20   -4.06   11.06
 -12  -2 -19   18.08    7.40
 -12  -2 -18  165.37   12.37
 -12  -2 -17   -2.26    8.80
 -12  -2 -16   -6.52    5.82
 -12  -2 -15   20.99    5.91
 -12  -2 -14    7.90    4.99
 -12  -2 -13   11.01    7.67
 -12  -2 -12   16.21    6.05
 -12  -2 -11   -2.48    4.97
 -12  -2 -10   60.10    8.15
 -12  -2  -9    8.58    4.31
 -12  -2  -8  263.26   12.19
 -12  -2  -7   15.84    6.34
 -12  -2  -6  123.25    9.01
 -12  -2  -5    6.52    4.54
 -12  -2  -4  222.99   10.77
 -12  -2  -3   27.81    6.03
 -12  -2  -2   10.13    5.85
 -12  -2  -1  121.61    9.61
 -12  -2   0   13.77    3.79
 -12  -2   1    6.52    5.37
 -12  -2   2  270.12   13.34
 -12  -2   3   19.25    5.01
 -12  -2   4  271.61   13.36
 -12  -2   5   62.45    5.94
 -12  -2   6  487.06   27.20
 -12  -2   7    4.94   14.17
 -12  -2   8   20.31   10.56
 -12  -2   9   10.63   16.07
 -12  -2  10  181.60   11.74
 -12  -2  11   49.86    8.28
 -12  -2  12   86.76   10.07
 -12  -2  13   19.64    6.12
 -12  -2  14  336.47   19.30
 -12  -2  15  238.05   14.83
 -12  -1 -22  134.16   13.93
 -12  -1 -21   22.55    6.70
 -12  -1 -20   32.41    9.23
 -12  -1 -19   12.89   12.62
 -12  -1 -18   62.45   13.07
 -12  -1 -17   59.63    9.28
 -12  -1 -16  614.47   26.81
 -12  -1 -15  105.29    7.40
 -12  -1 -14   75.65   12.28
 -12  -1 -13    9.95    4.56
 -12  -1 -12   61.50    6.59
 -12  -1 -11   31.39    6.57
 -12  -1 -10   69.76    8.53
 -12  -1  -9    0.23    6.64
 -12  -1  -8   -0.45    5.44
 -12  -1  -7    9.03    3.88
 -12  -1  -6  775.80   29.30
 -12  -1  -5  139.44   11.71
 -12  -1  -4   81.52   14.11
 -12  -1  -3   46.72   22.19
 -12  -1  -2   54.19   25.21
 -12  -1  -1  238.97   15.32
 -12  -1   0   74.37   12.19
 -12  -1   1    3.81    6.75
 -12  -1   2  113.46    7.67
 -12  -1   3   -5.21    5.01
 -12  -1   4    1.33    8.51
 -12  -1   5   23.25    9.41
 -12  -1   6   64.37    5.30
 -12  -1   7   33.11    9.50
 -12  -1   8   24.87    5.69
 -12  -1   9   21.83    5.48
 -12  -1  10   30.06    7.24
 -12  -1  11  -14.90    6.14
 -12  -1  12   56.20    6.07
 -12  -1  13   21.42    6.82
 -12  -1  14   54.42   13.52
 -12  -1  15   13.32   14.49
 -12  -1  16  143.36   12.23
 -12  -1  17  102.22   23.70
 -12  -1  18   49.02   15.57
 -12  -1  19   22.82    6.75
 -12  -1  20   32.93    8.80
 -12   0 -22   27.02   23.74
 -12   0 -20   38.12    7.43
 -12   0 -18   78.84    9.86
 -12   0 -16   32.07    5.78
 -12   0 -14  166.93   10.47
 -12   0 -12  138.02    8.82
 -12   0 -10  351.53   12.96
 -12   0  -8  285.65   14.72
 -12   0  -6  595.98   27.87
 -12   0  -4  368.63   19.61
 -12   0  -2    3.36    4.02
 -12   0   0  165.37    8.51
 -12   0   2  385.54   16.52
 -12   0   4  577.07   16.61
 -12   0   6 1881.16   62.56
 -12   0   8  227.05   11.78
 -12   0  10  203.69   16.30
 -12   0  12  683.33   29.84
 -12   0  14  625.68   27.81
 -12   0  16   13.32    7.90
 -12   0  18  703.10   45.41
 -12   0  20  252.15   21.46
 -12   0  22   33.11   12.80
 -12   1 -22  136.25   15.78
 -12   1 -21   18.33   11.58
 -12   1 -20   63.87   16.57
 -12   1 -19    0.00    2.26
 -12   1 -18   85.92   14.20
 -12   1 -17   41.35    7.92
 -12   1 -16  563.44   22.12
 -12   1 -15  115.72   10.02
 -12   1 -14   30.90    6.00
 -12   1 -13    9.03    5.60
 -12   1 -12   56.88    4.76
 -12   1 -11   18.46    4.90
 -12   1 -10   82.61    7.11
 -12   1  -9   -0.23    4.56
 -12   1  -8   -4.06    5.87
 -12   1  -7    0.45    5.21
 -12   1  -6  807.94   72.58
 -12   1  -5  149.19   14.31
 -12   1  -4   57.33   12.50
 -12   1  -3    0.45    5.21
 -12   1  -2   12.46    5.19
 -12   1  -1  209.31   12.62
 -12   1   0   74.10    9.05
 -12   1   1   -4.29    7.47
 -12   1   2  109.96    9.14
 -12   1   3    2.26    4.51
 -12   1   4    7.65    3.16
 -12   1   5   26.25    5.69
 -12   1   6   74.89    7.29
 -12   1   7   19.64    7.72
 -12   1   8   17.20    9.10
 -12   1   9   27.96   14.63
 -12   1  10   28.93    6.95
 -12   1  11   19.91    9.66
 -12   1  12   77.78    8.22
 -12   1  13   12.46    8.17
 -12   1  14   62.92    8.35
 -12   1  15   26.70   12.73
 -12   1  16  162.30   35.21
 -12   1  17   74.37   44.82
 -12   1  18   46.11   10.81
 -12   1  19   32.25   16.54
 -12   1  20   40.38   12.21
 -12   1  21   23.99   13.84
 -12   1  22    9.03   12.01
 -12   1  23   -7.65    6.97
 -12   2 -21   22.55   20.54
 -12   2 -20  -18.46   13.05
 -12   2 -19   32.77   10.31
 -12   2 -18  181.19   24.26
 -12   2 -17   -0.90    7.20
 -12   2 -16   -4.49    9.93
 -12   2 -15   17.31    7.63
 -12   2 -14   32.93    9.48
 -12   2 -13    4.29    5.85
 -12   2 -12    2.93    5.67
 -12   2 -11   17.20    4.99
 -12   2 -10   72.56    9.21
 -12   2  -9   31.58   11.65
 -12   2  -8  232.06   13.27
 -12   2  -7   13.32    7.24
 -12   2  -6  127.97    7.81
 -12   2  -5    7.22    7.92
 -12   2  -4  237.59   13.43
 -12   2  -3   37.76    7.38
 -12   2  -2    2.93    4.54
 -12   2  -1  117.32    9.12
 -12   2   0   48.80   17.00
 -12   2   1   13.99   16.30
 -12   2   2  267.66   20.65
 -12   2   3   21.69    9.10
 -12   2   4  254.54   12.46
 -12   2   5   48.39   10.25
 -12   2   6  481.76   21.10
 -12   2   7    1.33    6.30
 -12   2   8   14.90    6.95
 -12   2   9   76.99   25.84
 -12   2  10  211.93   12.68
 -12   2  11   53.54   11.87
 -12   2  12   62.92    8.82
 -12   2  13    4.94    9.03
 -12   2  14  349.27   21.89
 -12   2  15  251.20   16.68
 -12   2  16   87.89   22.82
 -12   2  17   42.91    8.26
 -12   2  18  112.49   12.44
 -12   2  19   -5.64    8.98
 -12   2  20   13.77    8.35
 -12   2  21   98.31   24.42
 -12   2  22   13.54    8.40
 -12   2  23   -0.23   14.38
 -12   3 -20   81.79   16.84
 -12   3 -19   29.57   11.76
 -12   3 -18    4.06    9.01
 -12   3 -17   12.89   11.10
 -12   3 -16   52.00   37.26
 -12   3 -15   12.46   15.17
 -12   3 -14   50.71   13.27
 -12   3 -13   31.39    7.74
 -12   3 -12   46.92    8.85
 -12   3 -11   12.14    4.29
 -12   3 -10   -6.30    6.34
 -12   3  -9   -0.68    9.07
 -12   3  -8   65.57   20.45
 -12   3  -5  470.61   27.38
 -12   3  -4    5.42    6.30
 -12   3  -3   78.57   10.92
 -12   3  -2   50.92    7.29
 -12   3  -1   32.93    8.80
 -12   3   0    9.21    5.37
 -12   3   1  175.98   24.31
 -12   3   2  134.16   22.98
 -12   3   3  120.93    8.26
 -12   3   4  113.46   13.45
 -12   3   5  179.18   20.11
 -12   3   6   32.25    7.85
 -12   3   7    5.64    7.43
 -12   3   8   28.28   15.66
 -12   3   9    9.03    6.32
 -12   3  10   -6.30    9.66
 -12   3  11   48.39    9.41
 -12   3  12   13.11   10.45
 -12   3  13    1.33   10.54
 -12   3  14    6.07    8.80
 -12   3  15    6.52    8.82
 -12   3  18   33.11   13.47
 -12   3  19   -5.85    8.15
 -12   3  20   52.23   16.50
 -12   3  21   -6.52   10.81
 -12   3  22    7.65   10.54
 -12   4 -19   80.98   12.44
 -12   4 -18   99.80   12.30
 -12   4 -17   31.06   18.42
 -12   4 -16    2.03    8.37
 -12   4 -15   10.63   12.26
 -12   4 -14   27.96   10.34
 -12   4 -13   -5.21   12.41
 -12   4 -12   10.63   12.44
 -12   4 -11   29.57    8.33
 -12   4 -10    3.59    7.00
 -12   4  -9   42.91    9.46
 -12   4  -8  190.20   13.68
 -12   4  -7   13.11    6.95
 -12   4  -6  158.49   13.25
 -12   4  -5   57.10    9.30
 -12   4  -4   73.08    7.45
 -12   4  -3   18.98    7.85
 -12   4  -2   -9.95    5.69
 -12   4  -1  360.04   19.95
 -12   4   0   21.83    8.98
 -12   4   1   73.85   12.91
 -12   4   2  758.33   23.16
 -12   4   3   43.29   19.37
 -12   4   4  438.58   21.40
 -12   4   5   11.74    9.25
 -12   4   6    7.65    8.80
 -12   4   7   25.48   11.22
 -12   4   8    5.21    5.42
 -12   4   9   67.03   11.31
 -12   4  10   64.84    8.46
 -12   4  11  107.14   15.23
 -12   4  12   31.73    7.29
 -12   4  13    0.90   10.36
 -12   4  14   28.93   10.99
 -12   4  15   40.58   25.64
 -12   4  16   74.37   11.40
 -12   4  17   14.90   19.61
 -12   4  18    8.15    9.95
 -12   4  19   28.93   10.83
 -12   4  20   19.91   12.21
 -12   5 -17    0.90    4.49
 -12   5 -16   11.94   11.01
 -12   5 -15    4.74    6.09
 -12   5 -14   33.81    8.03
 -12   5 -13   -6.30   11.47
 -12   5 -12   -8.76   10.31
 -12   5 -11   52.23   14.56
 -12   5 -10   27.96   11.13
 -12   5  -9   35.57   15.05
 -12   5  -8   13.54   14.72
 -12   5  -7   -1.13   10.20
 -12   5  -6   12.46    7.63
 -12   5  -5   48.16    8.35
 -12   5  -4   52.23   11.94
 -12   5  -3   -4.06    7.85
 -12   5  -2  158.12   11.33
 -12   5  -1  107.14   11.51
 -12   5   0  177.17   14.81
 -12   5   1  405.88   17.56
 -12   5   2   -4.94    5.42
 -12   5   3   57.78   19.64
 -12   5   4  168.10   14.42
 -12   5   5   70.01    8.31
 -12   5   6   19.64   18.10
 -12   5   7  107.46   19.32
 -12   5   8   30.24   12.55
 -12   5   9   14.67   10.59
 -12   5  10   39.43   12.26
 -12   5  13    2.73    9.73
 -12   5  14   26.25   10.47
 -12   5  15   13.32   14.04
 -12   5  16   30.24   21.15
 -12   5  17  295.89  150.93
 -12   5  18   64.60   20.04
 -12   6 -14   69.76   71.03
 -12   6 -13    4.74    8.37
 -12   6 -12    0.23    5.03
 -12   6 -11    7.22    7.67
 -12   6 -10   10.13   11.01
 -12   6  -9   30.74    7.15
 -12   6  -8   17.83    6.73
 -12   6  -7   13.77    9.25
 -12   6  -6   25.77   14.94
 -12   6  -5   40.20   13.52
 -12   6  -4   10.34    7.24
 -12   6  -3    8.15    6.34
 -12   6  -2   29.57    9.98
 -12   6  -1   44.89    5.24
 -12   6   0   43.70    8.53
 -12   6   1   26.70   10.88
 -12   6   2   74.89    9.37
 -12   6   3   28.60    7.40
 -12   6   4    6.75    9.91
 -12   6   5    8.76   10.13
 -12   6   6    4.74   11.98
 -12   6   7   31.73   12.37
 -12   6   8   13.54    8.08
 -12   6   9   13.11    7.52
 -12   6  12    1.78   20.90
 -12   6  13   15.37    8.13
 -12   6  14    9.66   11.04
 -12   6  15    3.36   20.00
 -12   7  -9   -0.23    7.31
 -12   7  -8   19.64    9.73
 -12   7  -7   41.14   13.68
 -12   7  -6    6.07   17.33
 -12   7  -5   51.14   21.26
 -12   7  -4    9.66    7.65
 -12   7  -3   15.14    4.92
 -12   7  -2   34.51    8.13
 -12   7   1   91.30    8.33
 -12   7   2  -12.46    6.57
 -12   7   3    1.13   22.21
 -12   7   4  138.74   24.06
 -12   7   5    7.65    7.40
 -12   7   6    7.00   10.56
 -12   7   7   61.50   14.13
 -12   7   8   -0.23    7.09
 -12   7   9   10.63    8.62
 -12   7  10   27.33   15.55
 -12   7  11   13.11   16.21
 -11  -8  -3   39.99   10.65
 -11  -8  -2   53.54   16.70
 -11  -8  -1   -2.26    8.80
 -11  -8   0  -15.84    9.46
 -11  -8   1    3.36    8.53
 -11  -8   2   -4.06    9.68
 -11  -7 -11   14.90    8.82
 -11  -7 -10   10.34    6.27
 -11  -7  -9   -1.78    5.62
 -11  -7  -8    5.42    7.00
 -11  -7  -7   31.58    7.61
 -11  -7  -6    8.33    6.77
 -11  -7  -5   17.83   10.79
 -11  -7  -4    0.45    4.76
 -11  -7  -3   15.37    6.12
 -11  -7  -2  101.02   14.49
 -11  -7  -1   71.55   10.16
 -11  -7   0   30.24    9.25
 -11  -7   1  152.87   15.98
 -11  -7   2   26.86    7.02
 -11  -7   3   79.11   36.34
 -11  -7   4   42.91   12.21
 -11  -7   5  -16.70    7.61
 -11  -7   6    1.13    8.17
 -11  -6 -15   15.98   70.71
 -11  -6 -14   24.58   13.99
 -11  -6 -13  -13.99   15.39
 -11  -6 -12   72.56   17.65
 -11  -6 -11    6.30    8.82
 -11  -6 -10   18.33   10.43
 -11  -6  -9   55.75   59.90
 -11  -6  -8   23.25    8.98
 -11  -6  -7   15.98   11.28
 -11  -6  -6 2216.82  662.07
 -11  -6  -5   51.14   13.97
 -11  -6  -4    0.68    5.44
 -11  -6  -3    0.90    6.27
 -11  -6  -2   48.59    9.21
 -11  -6  -1   20.04    9.01
 -11  -6   0  -13.11    5.87
 -11  -6   1   58.70   11.51
 -11  -6   2  110.91   13.61
 -11  -6   3   13.11    7.72
 -11  -6   4    6.75    8.35
 -11  -6   5    5.64    6.34
 -11  -6   6   10.83    9.30
 -11  -6   7    5.64    8.78
 -11  -6   8    9.03    7.40
 -11  -6   9   17.83   24.60
 -11  -6  10   13.11    7.18
 -11  -5 -18  -32.77   73.08
 -11  -5 -17   -1.60   11.56
 -11  -5 -16   10.83   15.12
 -11  -5 -15  105.60   18.82
 -11  -5 -13  125.26   17.49
 -11  -5 -12  137.68   66.63
 -11  -5 -11   26.25   10.63
 -11  -5 -10   37.38   16.16
 -11  -5  -9   11.53   10.40
 -11  -5  -8    8.33    7.63
 -11  -5  -7  116.03   11.33
 -11  -5  -6   11.01   10.38
 -11  -5  -5   10.34   11.49
 -11  -5  -4   41.35   10.25
 -11  -5  -3  148.08   11.33
 -11  -5  -2    3.59    5.87
 -11  -5  -1    7.47    6.57
 -11  -5   0   12.14   11.74
 -11  -5   1  302.12   18.28
 -11  -5   2  109.64   12.28
 -11  -5   3   34.33    8.28
 -11  -5   4   39.07   13.52
 -11  -5   5   28.44   11.69
 -11  -5   6   69.52   10.27
 -11  -5   7   -4.29    7.65
 -11  -4 -20  103.44   22.62
 -11  -4 -19   36.29   19.91
 -11  -4 -18    1.33   14.81
 -11  -4 -17  116.69   20.45
 -11  -4 -16   34.69   17.15
 -11  -4 -15   44.28   22.59
 -11  -4 -14   74.62   26.72
 -11  -4 -13   30.74   15.82
 -11  -4 -12   64.12   11.78
 -11  -4 -11   23.25   21.73
 -11  -4 -10  110.91   17.40
 -11  -4  -9   25.77   12.66
 -11  -4  -8   54.42   34.35
 -11  -4  -7  371.52   21.42
 -11  -4  -6   10.83    7.72
 -11  -4  -5   67.03    8.13
 -11  -4  -4   42.52    8.24
 -11  -4  -3   13.11    4.24
 -11  -4  -2   39.43    5.46
 -11  -4  -1   10.63    3.43
 -11  -4   0    7.65    3.81
 -11  -4   1   85.09   11.65
 -11  -4   2  377.32   26.86
 -11  -3 -21   53.54   17.36
 -11  -3 -20   44.28   17.40
 -11  -3 -19   25.93    8.10
 -11  -3 -18   27.33    6.59
 -11  -3 -17   31.73   11.35
 -11  -3 -16   19.64   16.25
 -11  -3 -15   38.30    6.70
 -11  -3 -14    4.94    7.02
 -11  -3 -13   65.81    8.28
 -11  -3 -12   71.79    5.60
 -11  -3 -11   17.31    4.49
 -11  -3 -10    5.85    5.17
 -11  -3  -9    1.13    3.61
 -11  -3  -8   32.07    4.60
 -11  -3  -7  362.32   12.01
 -11  -3  -6   12.89    4.74
 -11  -3  -5   -0.90    3.59
 -11  -3  -4   89.58    4.83
 -11  -3  -3   -0.23    4.11
 -11  -3  -2  203.26    8.15
 -11  -3  -1   65.57    5.85
 -11  -3   0   30.90   10.52
 -11  -3   1   20.04    8.08
 -11  -3   2  390.89   23.16
 -11  -3   3   48.16   14.17
 -11  -3   4   15.84   14.24
 -11  -3   5   20.31    6.09
 -11  -3   6    2.48    2.93
 -11  -3   7   17.56   15.62
 -11  -3  10   20.04    8.08
 -11  -3  11  171.62   13.00
 -11  -2 -22    9.48    8.15
 -11  -2 -21    7.47   10.18
 -11  -2 -20  101.32    9.07
 -11  -2 -19    6.75    6.32
 -11  -2 -18   44.10   11.38
 -11  -2 -17   43.29    8.51
 -11  -2 -16   14.67    7.02
 -11  -2 -15  140.86    9.64
 -11  -2 -14    0.45    5.44
 -11  -2 -13    8.33    7.88
 -11  -2 -12   10.63    6.95
 -11  -2 -11   18.08    4.47
 -11  -2 -10   59.63    7.43
 -11  -2  -9   50.29    7.04
 -11  -2  -8   13.32    5.91
 -11  -2  -7  224.35   10.81
 -11  -2  -6    8.58    5.64
 -11  -2  -5   67.28    5.17
 -11  -2  -4    5.42    3.63
 -11  -2  -3    6.52   10.81
 -11  -2  -2   38.68   13.09
 -11  -2  -1   86.76    8.67
 -11  -2   0   26.25    4.76
 -11  -2   1   86.49    5.60
 -11  -2   2  236.19   16.63
 -11  -2   3  211.93   10.07
 -11  -2   4   14.44    4.11
 -11  -2   5   22.98    6.05
 -11  -2   6    0.23    3.66
 -11  -2   7   15.62    6.30
 -11  -2   8    3.36    5.85
 -11  -2   9   18.46   12.91
 -11  -2  10   25.48    8.35
 -11  -2  11  119.28   19.03
 -11  -2  12   45.91   74.71
 -11  -2  13  187.71   12.75
 -11  -2  14   11.01    7.88
 -11  -2  15  332.09   19.70
 -11  -2  16  207.58   11.69
 -11  -2  17  494.37   34.08
 -11  -1 -22   35.39   10.54
 -11  -1 -21   48.59    9.84
 -11  -1 -20   20.04    9.41
 -11  -1 -19   17.20    6.61
 -11  -1 -18    0.45   11.58
 -11  -1 -17  204.98   12.05
 -11  -1 -16   57.33   12.05
 -11  -1 -15  282.10   13.63
 -11  -1 -14   19.64    6.79
 -11  -1 -13  228.86   10.00
 -11  -1 -12   46.11    5.10
 -11  -1 -11  284.63   13.68
 -11  -1 -10   10.13    6.12
 -11  -1  -9    2.93    3.61
 -11  -1  -8   17.83    5.46
 -11  -1  -7  851.20   27.17
 -11  -1  -6  243.64    9.84
 -11  -1  -5  100.41    8.73
 -11  -1  -4   18.98    4.31
 -11  -1  -3  278.08   13.52
 -11  -1  -2   15.37    5.67
 -11  -1  -1  115.72   14.87
 -11  -1   0   15.14    4.56
 -11  -1   1  158.49    8.69
 -11  -1   2   67.53    8.15
 -11  -1   3    0.00    2.26
 -11  -1   4    9.95    7.20
 -11  -1   5  466.70   18.82
 -11  -1   6   33.81    7.70
 -11  -1   7   61.50    7.79
 -11  -1   8   27.49   10.40
 -11  -1   9  151.02   10.70
 -11  -1  10    9.95    7.49
 -11  -1  11   92.45   12.14
 -11  -1  12   12.89    5.17
 -11  -1  13  270.61   16.81
 -11  -1  14    9.21    8.58
 -11  -1  15   24.42    7.72
 -11  -1  16    0.68    9.98
 -11  -1  17   52.23   10.63
 -11  -1  18    7.90   16.88
 -11  -1  19   -1.78    6.75
 -11  -1  20   51.78    9.73
 -11  -1  21    9.66    7.65
 -11   0 -23   21.26   14.26
 -11   0 -21   17.56   13.34
 -11   0 -19   57.55    7.29
 -11   0 -17  213.67   12.73
 -11   0 -15   17.20    7.47
 -11   0 -13   28.60    7.22
 -11   0 -11   93.30    9.30
 -11   0  -9  109.64    8.17
 -11   0  -7  732.08   26.02
 -11   0  -5   14.44    8.80
 -11   0  -3  110.28    6.95
 -11   0  -1    0.23    4.33
 -11   0   1  148.44    9.89
 -11   0   3   99.22    6.88
 -11   0   5   95.36   15.26
 -11   0   7  177.96   14.83
 -11   0   9  107.46    9.66
 -11   0  11  357.76   15.35
 -11   0  13  297.97   17.63
 -11   0  15 1243.24   57.21
 -11   0  17 2865.25  157.61
 -11   0  19   28.44   14.42
 -11   0  21   10.63   11.26
 -11   0  23   -1.78   14.83
 -11   1 -22   19.64   25.30
 -11   1 -21    2.48   13.32
 -11   1 -20    5.64    9.28
 -11   1 -19   33.81   14.15
 -11   1 -18   19.64    9.73
 -11   1 -17  201.12   11.51
 -11   1 -16   46.11    6.73
 -11   1 -15  286.66   12.73
 -11   1 -14    2.26    4.51
 -11   1 -13  207.15    9.07
 -11   1 -12   55.52    5.82
 -11   1 -11  288.20   12.23
 -11   1 -10    5.64    5.64
 -11   1  -9    8.76    4.99
 -11   1  -8   38.87   11.42
 -11   1  -7  828.56   33.72
 -11   1  -6  245.52   15.08
 -11   1  -5  107.14    8.08
 -11   1  -4   15.98    8.17
 -11   1  -3  284.63   14.69
 -11   1  -2   17.83    4.56
 -11   1  -1  104.68    8.31
 -11   1   0   24.42    5.48
 -11   1   1  175.19   10.74
 -11   1   2   61.03    5.87
 -11   1   3    0.45    3.86
 -11   1   4   10.13    4.02
 -11   1   5  489.05   21.94
 -11   1   6   39.81    8.15
 -11   1   7   61.25    7.99
 -11   1   8    9.95    5.69
 -11   1   9  144.81    8.67
 -11   1  10    6.75    5.62
 -11   1  11  125.60   19.52
 -11   1  12   26.41    6.03
 -11   1  13  264.72   17.60
 -11   1  14   53.08   10.29
 -11   1  15   42.52    9.41
 -11   1  16   -8.33    7.88
 -11   1  17   76.20   24.92
 -11   1  18   32.25   43.33
 -11   1  19    6.52   11.51
 -11   1  20   24.13   12.68
 -11   1  21   22.39   13.36
 -11   1  22    4.49   13.75
 -11   1  23   18.08   16.23
 -11   1  24   22.39   14.92
 -11   2 -22   22.98   11.51
 -11   2 -21   15.14   25.96
 -11   2 -20  155.10   19.46
 -11   2 -19   53.54   25.28
 -11   2 -18  100.12  134.99
 -11   2 -17   65.57   12.66
 -11   2 -16   10.13   11.01
 -11   2 -15  157.74   13.97
 -11   2 -14   16.70    6.14
 -11   2 -13   14.90    6.50
 -11   2 -12   22.39    8.10
 -11   2 -11   39.07    8.26
 -11   2 -10   49.65    6.34
 -11   2  -9   52.23    4.78
 -11   2  -8   13.54    8.62
 -11   2  -7  216.31   12.82
 -11   2  -6    8.33    6.32
 -11   2  -5   45.50    7.90
 -11   2  -4    3.14    6.07
 -11   2  -3    2.26    4.74
 -11   2  -2   44.89    7.65
 -11   2  -1   80.71    8.10
 -11   2   0   16.45    4.99
 -11   2   1   91.30    7.47
 -11   2   2  235.74   11.98
 -11   2   3  229.78   10.92
 -11   2   4   23.99    6.32
 -11   2   5    9.95    6.34
 -11   2   6   13.77    7.70
 -11   2   7   11.33    6.57
 -11   2   8    7.00    7.85
 -11   2   9   25.03    6.32
 -11   2  10    8.58    8.37
 -11   2  11   71.55   20.34
 -11   2  12    2.26    5.87
 -11   2  13  181.60   13.77
 -11   2  14   10.34   10.63
 -11   2  15  346.47   17.33
 -11   2  16  215.00   22.91
 -11   2  17  579.23   42.66
 -11   2  18    6.52    8.13
 -11   2  19    0.00    2.26
 -11   2  20   -8.76    9.25
 -11   2  21    1.33    9.66
 -11   2  22   14.67   10.13
 -11   2  23   -9.03   10.11
 -11   3 -21   59.63   12.30
 -11   3 -20    9.21   13.05
 -11   3 -19   61.50   19.79
 -11   3 -18   18.98    9.30
 -11   3 -17   85.65   33.09
 -11   3 -16   37.20   15.39
 -11   3 -15   52.43   11.10
 -11   3 -14   32.25    9.55
 -11   3 -13   60.10   11.87
 -11   3 -12   70.53    8.33
 -11   3 -11   18.71    7.92
 -11   3 -10    0.00    2.26
 -11   3  -9    8.15    7.47
 -11   3  -8   43.29    9.10
 -11   3  -7  370.37   17.92
 -11   3  -6   13.77    6.36
 -11   3  -5   -1.13    8.40
 -11   3  -4   76.20    7.09
 -11   3  -3   17.56    5.17
 -11   3  -2  191.44   12.89
 -11   3  -1   86.76    6.73
 -11   3   0   33.81    5.42
 -11   3   1   11.33    7.29
 -11   3   2  348.16   22.98
 -11   3   3   46.31    6.34
 -11   3   4    9.95   16.50
 -11   3   5   25.77   17.24
 -11   3   6   57.78   21.46
 -11   3   7   12.14    7.43
 -11   3   8   30.74   13.16
 -11   3   9  145.17   15.57
 -11   3  10   45.50   12.17
 -11   3  11  190.63   16.59
 -11   3  12  360.60   22.25
 -11   3  13   82.34   12.82
 -11   3  14   13.54   10.83
 -11   3  15   46.52    9.43
 -11   3  16   98.31   22.64
 -11   3  19    1.33   15.01
 -11   3  20    2.73   10.43
 -11   3  21   45.09   84.95
 -11   3  22   -2.73   11.76
 -11   4 -19    7.47   13.14
 -11   4 -18   24.58   21.89
 -11   4 -17  107.77   18.39
 -11   4 -16    9.21   13.32
 -11   4 -15   37.76    8.49
 -11   4 -14   -8.33   12.14
 -11   4 -13   25.48    6.97
 -11   4 -12   39.25    9.03
 -11   4 -11   16.70   16.21
 -11   4 -10  109.64    9.12
 -11   4  -9   19.25   17.67
 -11   4  -8   26.86    9.03
 -11   4  -7  368.05   17.29
 -11   4  -6   16.95    7.43
 -11   4  -5   66.31    7.83
 -11   4  -4   26.86    7.94
 -11   4  -3   26.25    6.77
 -11   4  -2   37.94   10.00
 -11   4  -1   18.46    7.49
 -11   4   0    9.48    7.04
 -11   4   1   86.19   10.04
 -11   4   2  325.01   11.92
 -11   4   3  464.76   21.37
 -11   4   4   20.58    9.01
 -11   4   5   25.32    6.50
 -11   4   6   34.69   21.58
 -11   4   7   11.74    8.33
 -11   4   8   12.46    7.94
 -11   4   9    4.94    7.67
 -11   4  10   39.43   10.00
 -11   4  11  105.90   12.98
 -11   4  12   52.66   11.98
 -11   4  13  192.27   15.01
 -11   4  14    4.74    6.55
 -11   4  15   -2.26    7.67
 -11   4  17   42.12    8.96
 -11   4  18   -5.42   11.26
 -11   4  19  101.61   17.88
 -11   4  20   23.70   12.44
 -11   4  21   -9.66   12.62
 -11   5 -18    3.59    9.21
 -11   5 -17    5.64    6.57
 -11   5 -16  653.81  205.14
 -11   5 -15   66.54   12.75
 -11   5 -14    1.78    7.88
 -11   5 -13  111.54   12.68
 -11   5 -12   15.14   13.56
 -11   5 -11   16.45   13.05
 -11   5 -10    9.48   10.36
 -11   5  -9   15.98    9.98
 -11   5  -8   12.14    9.43
 -11   5  -7  132.78   10.38
 -11   5  -6   -4.29    5.85
 -11   5  -5    7.90    7.94
 -11   5  -4   41.14    6.93
 -11   5  -3  144.09   11.53
 -11   5  -2    4.29    5.85
 -11   5   0    7.22    5.42
 -11   5   1  301.08   35.98
 -11   5   2  118.97   18.69
 -11   5   3   15.98   17.29
 -11   5   4   12.68    6.32
 -11   5   5    8.33   10.56
 -11   5   6   81.79    7.61
 -11   5   7   -8.15    8.82
 -11   5   8   19.37    7.94
 -11   5   9  198.57   25.41
 -11   5  10   18.98    8.13
 -11   5  11   51.14    8.17
 -11   5  14   60.10   13.97
 -11   5  15  107.46   14.33
 -11   5  16   61.98   12.05
 -11   5  17   17.20   11.33
 -11   5  18   13.32   10.63
 -11   5  19   32.07   15.66
 -11   6 -15   17.83    6.59
 -11   6 -14    2.93    4.54
 -11   6 -13    3.36    8.76
 -11   6 -12   93.03   15.08
 -11   6 -11    6.75    8.13
 -11   6 -10   52.66   12.64
 -11   6  -9   41.73   27.38
 -11   6  -8   32.93   23.63
 -11   6  -7   41.14   16.77
 -11   6  -6   14.44    9.03
 -11   6  -5   75.41   12.77
 -11   6  -4    7.47    9.93
 -11   6  -3    3.14    5.64
 -11   6  -2   50.49    9.39
 -11   6  -1    4.94    4.09
 -11   6   0    4.29    7.65
 -11   6   1   31.39    7.74
 -11   6   2   96.53    8.85
 -11   6   3   13.99    9.89
 -11   6   4   15.62    6.52
 -11   6   5   30.24   11.06
 -11   6   6    1.60    8.37
 -11   6   7    2.73    6.79
 -11   6   8   28.28   16.30
 -11   6   9   11.01    8.58
 -11   6  10   32.07    8.17
 -11   6  13   55.30   33.97
 -11   6  14    8.76    9.43
 -11   6  15    7.00    8.10
 -11   6  16   -1.33    6.95
 -11   7 -11    1.60    7.92
 -11   7  -9   -8.58    7.92
 -11   7  -8   18.08    8.82
 -11   7  -7   48.80   12.80
 -11   7  -6    8.58    7.49
 -11   7  -5    4.74    9.23
 -11   7  -4    3.14   17.31
 -11   7  -3   21.83    5.19
 -11   7  -2  154.74   30.65
 -11   7  -1   83.44   30.74
 -11   7   0    1.33    7.20
 -11   7   1  111.86   10.50
 -11   7   2   35.39   11.26
 -11   7   3    1.78    7.20
 -11   7   4   82.34    9.01
 -11   7   5   13.32   10.63
 -11   7   6    4.94    5.87
 -11   7   7   23.70    8.33
 -11   7  10   21.26    9.28
 -11   7  11   -9.48    8.15
 -11   7  12  154.36   82.13
 -11   8  -3   54.64   13.32
 -11   8   0    9.48    7.04
 -11   8   1   19.64   11.98
 -11   8   4    7.65    9.21
 -10  -8  -6   37.01   18.10
 -10  -8  -5   62.92   13.34
 -10  -8  -4   86.19   15.62
 -10  -8  -3   13.11   20.13
 -10  -8  -2   97.41   20.47
 -10  -8  -1   87.32   14.31
 -10  -8   0   61.73   58.07
 -10  -8   1   27.02   18.89
 -10  -8   2    2.26    9.93
 -10  -7 -12   18.46    8.13
 -10  -7 -11    9.48    8.15
 -10  -7 -10    3.81    8.10
 -10  -7  -9    1.78    5.39
 -10  -7  -8   10.83    8.80
 -10  -7  -7    9.21    9.21
 -10  -7  -6    5.42    6.57
 -10  -7  -5  -15.14    7.72
 -10  -7  -4   28.60   11.89
 -10  -7  -3   15.14    8.76
 -10  -7  -2   43.11    9.07
 -10  -7  -1  -14.67    8.17
 -10  -7   0   15.14    9.23
 -10  -7   1  155.48   18.35
 -10  -7   2  176.77   64.32
 -10  -7   3   45.91   10.18
 -10  -7   4   26.86   12.14
 -10  -7   5   33.45   18.78
 -10  -7   6   43.49   20.61
 -10  -6 -16   32.77   31.12
 -10  -6 -15    3.36   16.41
 -10  -6 -14   13.32   19.21
 -10  -6 -13   31.06   10.22
 -10  -6 -12    3.81    6.09
 -10  -6 -11   43.49   13.47
 -10  -6 -10   24.13   14.17
 -10  -6  -9   93.03   48.10
 -10  -6  -8   64.37   15.19
 -10  -6  -7    9.03    9.75
 -10  -6  -6   -7.47   10.61
 -10  -6  -5   34.15   18.96
 -10  -6  -4   39.81    8.35
 -10  -6  -3   32.25   17.74
 -10  -6  -2   91.86   10.36
 -10  -6  -1  231.14   18.28
 -10  -6   0   33.45    9.21
 -10  -6   1   -3.81    6.97
 -10  -6   2   -1.78    5.39
 -10  -6   3   21.83   25.41
 -10  -6   4   15.62    8.55
 -10  -6   5   12.89    6.36
 -10  -6   6   16.95    5.19
 -10  -6   7    8.33    8.58
 -10  -6   8   -1.78    6.30
 -10  -6   9   54.42    5.98
 -10  -6  10   38.68    7.47
 -10  -5 -18   93.30   71.68
 -10  -5 -17   28.44   43.11
 -10  -5 -16   44.10   16.57
 -10  -5 -15   10.83   11.08
 -10  -5 -14   19.64   11.33
 -10  -5 -13  -12.46   10.61
 -10  -5 -12    4.74    9.03
 -10  -5 -11   49.23   13.70
 -10  -5 -10   23.25    8.55
 -10  -5  -9   -0.68   13.61
 -10  -5  -8  115.72   15.51
 -10  -5  -7   25.48   10.31
 -10  -5  -6   38.12   18.37
 -10  -5  -5   -1.33    5.85
 -10  -5  -4  174.38   11.89
 -10  -5  -3   44.49    6.82
 -10  -5  -2  383.19   21.76
 -10  -5  -1  306.86   17.38
 -10  -5   0  297.45   18.15
 -10  -5   1   35.21    6.77
 -10  -5   2  153.99   14.17
 -10  -5   3   -0.90    4.72
 -10  -5   4   14.90   12.89
 -10  -5   5   27.96    7.94
 -10  -5   6   13.77   11.71
 -10  -5   7   17.20   12.71
 -10  -5   8   42.91    5.12
 -10  -4 -20   60.10   30.29
 -10  -4 -19   61.50   39.59
 -10  -4 -18  129.69   97.52
 -10  -4 -17   13.54   14.49
 -10  -4 -16   44.28   15.39
 -10  -4 -15   79.90   30.63
 -10  -4 -14    3.14   12.62
 -10  -4 -13  210.62   17.00
 -10  -4 -12   16.95   12.01
 -10  -4 -11  140.50   15.66
 -10  -4 -10   17.83    8.13
 -10  -4  -9   81.79    6.79
 -10  -4  -8   28.44    4.81
 -10  -4  -7   82.06    7.09
 -10  -4  -6   18.33    5.39
 -10  -4  -5    0.00    2.26
 -10  -4  -4   57.55    5.46
 -10  -4  -3  151.40    8.13
 -10  -4  -2   68.77    4.49
 -10  -4  -1  202.41    8.98
 -10  -4   0  326.09   13.02
 -10  -4   1  299.53   13.52
 -10  -4   2   54.42    3.77
 -10  -4   3    5.21    2.46
 -10  -4   4   -0.68    2.96
 -10  -4   5   66.54    6.36
 -10  -3 -22   54.84   25.59
 -10  -3 -21   18.33    8.87
 -10  -3 -20   11.01    9.68
 -10  -3 -19   57.55    7.52
 -10  -3 -18    2.73    8.40
 -10  -3 -17   24.42   10.09
 -10  -3 -16    7.65    5.39
 -10  -3 -15    1.78    7.40
 -10  -3 -14   57.78    5.94
 -10  -3 -13    4.29    5.42
 -10  -3 -12   64.84    5.80
 -10  -3 -11   34.69    5.85
 -10  -3 -10   38.12    5.19
 -10  -3  -9   84.52    5.80
 -10  -3  -8  293.32   10.29
 -10  -3  -7   44.49    6.61
 -10  -3  -6   57.55    5.01
 -10  -3  -5    3.59    2.91
 -10  -3  -4   85.92    5.57
 -10  -3  -3   15.98    3.11
 -10  -3  -2   17.20    3.61
 -10  -3  -1  124.27    6.70
 -10  -3   0  118.31    8.49
 -10  -3   1   17.20    4.49
 -10  -3   2  428.58   27.38
 -10  -3   3  224.80   11.26
 -10  -3   4   93.30    8.71
 -10  -3   5   27.81    5.71
 -10  -3   6   -6.07    3.86
 -10  -3   7   23.25    8.55
 -10  -3   8   91.59    8.33
 -10  -3   9   15.98    7.20
 -10  -3  11   68.77    8.46
 -10  -3  12   -0.90    8.53
 -10  -3  13   76.72   10.52
 -10  -2 -23   14.22   11.10
 -10  -2 -22   40.20   11.80
 -10  -2 -21   20.99   15.98
 -10  -2 -20   11.94   15.98
 -10  -2 -19   22.82    8.33
 -10  -2 -18   43.70    7.36
 -10  -2 -17   24.87    5.69
 -10  -2 -16  182.00   13.38
 -10  -2 -15   65.32    7.76
 -10  -2 -14  149.91   10.29
 -10  -2 -13    6.30    8.37
 -10  -2 -12   14.44    7.20
 -10  -2 -11   -5.64    7.70
 -10  -2 -10   15.98    4.67
 -10  -2  -9   80.44    5.12
 -10  -2  -8  135.56    9.43
 -10  -2  -7    4.49    4.27
 -10  -2  -6   72.81    5.64
 -10  -2  -5   13.99    2.91
 -10  -2  -4   15.84    3.34
 -10  -2  -3   47.35    6.61
 -10  -2  -2  167.69   13.23
 -10  -2  -1    1.60    4.74
 -10  -2   0   42.91    5.12
 -10  -2   1  570.59   30.15
 -10  -2   2    0.90    4.04
 -10  -2   3  -11.74    4.33
 -10  -2   4    0.00    2.26
 -10  -2   5  249.78   12.82
 -10  -2   6   57.10    4.99
 -10  -2   7   27.81    5.71
 -10  -2   8   25.32    4.69
 -10  -2   9   -2.93    3.61
 -10  -2  10  342.02   23.34
 -10  -2  11   27.96    6.36
 -10  -2  12   88.45   15.26
 -10  -2  13  119.94   69.76
 -10  -2  14  277.59   14.02
 -10  -2  15    1.13    7.92
 -10  -2  16   31.58   11.31
 -10  -2  17    2.48    7.24
 -10  -2  18   99.22    9.57
 -10  -1 -23   21.69    9.93
 -10  -1 -22   74.62   15.57
 -10  -1 -21   12.68    7.92
 -10  -1 -20   11.94   16.50
 -10  -1 -19   18.33    9.25
 -10  -1 -18   95.06   11.13
 -10  -1 -17   -0.90    4.72
 -10  -1 -16  366.33   17.83
 -10  -1 -15   54.64    6.43
 -10  -1 -14  362.32   14.87
 -10  -1 -13   81.52   10.04
 -10  -1 -12  433.57   17.51
 -10  -1 -11   -4.74    3.41
 -10  -1 -10   57.33    5.69
 -10  -1  -9   11.33    3.84
 -10  -1  -8   34.15    3.68
 -10  -1  -7   -5.64    3.86
 -10  -1  -6  715.92   25.73
 -10  -1  -5  133.48    7.63
 -10  -1  -4 1316.32   54.51
 -10  -1  -3   31.58    6.93
 -10  -1  -2   95.36    7.34
 -10  -1  -1   15.62    5.21
 -10  -1   0  228.41   10.00
 -10  -1   1   50.71    4.92
 -10  -1   2 1912.55  101.18
 -10  -1   3  179.97    9.68
 -10  -1   4  618.94   23.18
 -10  -1   5  103.44    8.55
 -10  -1   6   81.79    5.98
 -10  -1   7   56.42    9.03
 -10  -1   8  215.43   11.47
 -10  -1   9   26.25    5.39
 -10  -1  10  136.25   11.92
 -10  -1  11    9.66    8.13
 -10  -1  12   42.91    8.26
 -10  -1  13   24.87    7.20
 -10  -1  14   48.80   21.19
 -10  -1  15   39.81    8.71
 -10  -1  16  414.99   23.27
 -10  -1  17   20.72   10.54
 -10  -1  18   51.35   25.84
 -10  -1  19   23.41    6.97
 -10  -1  20   35.93    9.73
 -10  -1  21   72.56    9.48
 -10  -1  22   -1.60    7.24
 -10  -1  23   20.58    8.60
 -10   0 -22   51.78   16.00
 -10   0 -20   40.58    9.01
 -10   0 -18   85.09    9.98
 -10   0 -16  676.29   25.01
 -10   0 -14  128.99    8.19
 -10   0 -12    3.59    6.32
 -10   0 -10   42.70    5.10
 -10   0  -8   18.33    5.15
 -10   0  -6  195.21   11.76
 -10   0  -4  515.97   21.85
 -10   0  -2  155.87    8.62
 -10   0   0   39.25   12.05
 -10   0   2  576.35   36.79
 -10   0   4   28.28    6.07
 -10   0   6  557.75   22.01
 -10   0   8   42.91   14.76
 -10   0  10  511.89   21.76
 -10   0  12  142.28   10.74
 -10   0  14   54.84    9.12
 -10   0  16  360.04   21.67
 -10   0  18   12.46    7.00
 -10   0  20  246.94   35.41
 -10   0  22   58.00   13.27
 -10   0  24   34.51   22.77
 -10   1 -23   22.55   14.26
 -10   1 -22   64.12   10.83
 -10   1 -21   25.77    9.77
 -10   1 -20   16.45   14.02
 -10   1 -19   16.95   12.37
 -10   1 -18   80.98    7.29
 -10   1 -17    4.49    5.15
 -10   1 -16  340.35   13.86
 -10   1 -15   46.52    7.18
 -10   1 -14  389.69   17.79
 -10   1 -13   72.56    9.48
 -10   1 -12  423.62   14.85
 -10   1 -11    5.64    4.29
 -10   1 -10   64.37    5.55
 -10   1  -9   21.26    5.26
 -10   1  -8   30.06    3.79
 -10   1  -7   13.77   10.59
 -10   1  -6  710.30   31.24
 -10   1  -5  124.92   10.40
 -10   1  -4 1277.37   47.26
 -10   1  -3   33.11    5.35
 -10   1  -2   75.41    5.73
 -10   1  -1   31.73    7.29
 -10   1   0  240.84   15.39
 -10   1   1   38.87    4.69
 -10   1   2 1777.07   60.80
 -10   1   3  188.55   11.56
 -10   1   4  579.96   26.77
 -10   1   5  101.02    7.56
 -10   1   6   66.06    6.09
 -10   1   7   69.27    9.25
 -10   1   8  203.26   11.13
 -10   1   9   18.71    4.67
 -10   1  10  144.09   12.26
 -10   1  11   -4.06    7.67
 -10   1  12   60.56    6.55
 -10   1  13   54.42   19.27
 -10   1  14   26.86    8.10
 -10   1  15   10.83    9.30
 -10   1  16  420.52   26.50
 -10   1  17    5.21    8.17
 -10   1  18    8.33   27.47
 -10   1  19   20.04   17.63
 -10   1  20   51.35   12.28
 -10   1  21  673.15  346.13
 -10   1  22   -2.73   14.31
 -10   1  23   32.41   22.23
 -10   1  24   43.29   12.66
 -10   2 -23   16.70   14.85
 -10   2 -22   23.41   28.19
 -10   2 -21    1.60    9.07
 -10   2 -20   21.83   16.84
 -10   2 -19   22.39   25.03
 -10   2 -18   58.48   12.19
 -10   2 -17   12.14    6.82
 -10   2 -16  201.12   17.04
 -10   2 -15   63.87    5.53
 -10   2 -14  147.72    8.40
 -10   2 -13   -0.68    4.06
 -10   2 -12    4.94    4.47
 -10   2 -11    4.94    4.74
 -10   2 -10   28.60    5.15
 -10   2  -9   90.73    6.86
 -10   2  -8  141.22   11.42
 -10   2  -7   16.21    7.63
 -10   2  -6   85.92   13.65
 -10   2  -5   49.23   13.70
 -10   2  -4   30.90    6.34
 -10   2  -3   33.11   11.24
 -10   2  -2  149.55    9.19
 -10   2  -1    9.66    4.94
 -10   2   0   34.33    5.64
 -10   2   1  552.08   20.47
 -10   2   2    2.48    4.74
 -10   2   3    6.52    4.29
 -10   2   4    4.94    5.87
 -10   2   5  247.41   12.28
 -10   2   6   49.43    7.61
 -10   2   7    8.15    5.39
 -10   2   8   36.29    7.43
 -10   2   9    9.48    8.15
 -10   2  10  343.69   23.41
 -10   2  11   32.07    6.48
 -10   2  12   55.52    9.19
 -10   2  13   32.07    8.17
 -10   2  14  244.59   17.85
 -10   2  15   14.44    6.75
 -10   2  16   27.49    8.82
 -10   2  17  -13.54   10.83
 -10   2  18  123.93   19.41
 -10   2  19   27.02    9.52
 -10   2  20    4.94    9.48
 -10   2  21   -2.93    9.73
 -10   2  22   29.09   14.92
 -10   2  23   11.94    9.03
 -10   2  24   26.25   14.15
 -10   3 -22   29.75   19.00
 -10   3 -21   44.28   30.20
 -10   3 -20   14.44   16.90
 -10   3 -19   73.58   10.04
 -10   3 -18   -7.47   10.83
 -10   3 -17   18.08   10.61
 -10   3 -16   -9.66   13.54
 -10   3 -15   11.74   16.68
 -10   3 -14   34.15   11.24
 -10   3 -13   -8.33   11.53
 -10   3 -12   70.78   14.40
 -10   3 -11   36.11    6.86
 -10   3 -10   40.20    6.09
 -10   3  -9   75.93   10.74
 -10   3  -8  259.85   16.48
 -10   3  -7   66.54    9.80
 -10   3  -6   51.14    8.60
 -10   3  -5    1.60    5.64
 -10   3  -4   72.56    9.73
 -10   3  -3   15.98    5.39
 -10   3  -2    9.03    5.42
 -10   3  -1  122.26    7.97
 -10   3   0  151.02   11.83
 -10   3   1    6.07    8.80
 -10   3   2  421.76   22.21
 -10   3   3  234.37   16.09
 -10   3   4  116.35   12.32
 -10   3   5   43.11    9.48
 -10   3   6    2.73    6.55
 -10   3   7   18.08    9.07
 -10   3   8   99.51   33.56
 -10   3   9    5.42   15.32
 -10   3  10   30.06    9.55
 -10   3  11   56.20   17.33
 -10   3  12   -0.68    7.02
 -10   3  13   87.03   10.09
 -10   3  14    1.13   17.22
 -10   3  15    9.66    8.78
 -10   3  16   46.92   10.29
 -10   3  17   50.29   27.92
 -10   3  18   -0.23   10.74
 -10   3  19   -1.78   13.02
 -10   3  20   18.98   15.32
 -10   3  21   22.98   15.55
 -10   3  22  252.65  114.14
 -10   3  23   58.70   15.19
 -10   4 -20   21.83    9.98
 -10   4 -19    9.48   12.86
 -10   4 -18   -1.60   14.49
 -10   4 -17    5.21   11.33
 -10   4 -16   10.83    8.10
 -10   4 -15   34.15   15.28
 -10   4 -14   18.33   11.58
 -10   4 -13  169.27   12.12
 -10   4 -12   26.70   20.49
 -10   4 -11  106.53    9.93
 -10   4 -10   43.11   10.86
 -10   4  -9   93.03    9.57
 -10   4  -8   36.11    7.22
 -10   4  -7  103.44   15.60
 -10   4  -6   36.83    9.84
 -10   4  -5    8.33   12.82
 -10   4  -4   88.72    8.49
 -10   4  -3  198.16   13.95
 -10   4  -2   57.78    6.39
 -10   4  -1  198.16   10.99
 -10   4   0  305.28   14.69
 -10   4   1  310.02   20.63
 -10   4   2   50.92    4.49
 -10   4   3   14.67    5.42
 -10   4   4    5.42    7.49
 -10   4   5   80.71   12.96
 -10   4   6   38.30    7.06
 -10   4   7    2.93    4.94
 -10   4   8   28.44    9.30
 -10   4   9   86.76   11.19
 -10   4  10  577.79   32.50
 -10   4  11   16.70   17.20
 -10   4  12   14.90    9.75
 -10   4  13  107.77   16.52
 -10   4  14  153.25   15.62
 -10   4  15    1.13    7.47
 -10   4  18   11.94   11.31
 -10   4  19   25.48   27.45
 -10   4  20   -6.07   10.59
 -10   4  21   52.43   12.39
 -10   4  22   20.72   12.59
 -10   5 -18   25.93   16.23
 -10   5 -17   40.58   16.66
 -10   5 -16   36.83   20.06
 -10   5 -15    4.94   10.16
 -10   5 -14  -13.54    6.75
 -10   5 -13   25.03   12.17
 -10   5 -12   28.93   11.47
 -10   5 -11   92.45   28.03
 -10   5 -10   37.76    9.23
 -10   5  -9   23.99    8.82
 -10   5  -8  101.93    8.49
 -10   5  -7    7.00    8.35
 -10   5  -6   25.32    7.85
 -10   5  -5   -9.95    4.92
 -10   5  -4  162.68   11.10
 -10   5  -3   57.78    6.39
 -10   5  -2  361.75   18.28
 -10   5  -1  288.20   14.78
 -10   5   0  285.65   14.22
 -10   5   1   50.92   12.01
 -10   5   2  186.09   14.35
 -10   5   3   -0.45    4.76
 -10   5   4    3.14    9.01
 -10   5   5   18.08    7.40
 -10   5   6    7.65    9.48
 -10   5   7    7.00    9.21
 -10   5   8   38.87    9.19
 -10   5   9    9.21    5.64
 -10   5  10   18.98   12.17
 -10   5  11   17.20   16.07
 -10   5  12  106.82    9.93
 -10   5  13  140.50   21.73
 -10   5  14    1.78   14.83
 -10   5  15    5.64    9.71
 -10   5  16   17.31    8.13
 -10   5  17   -0.68    7.47
 -10   5  18    5.64   11.98
 -10   5  19    9.48   14.24
 -10   5  20   -5.85   15.32
 -10   6 -16   -0.90    7.65
 -10   6 -15   -0.90    8.76
 -10   6 -14   17.83   10.16
 -10   6 -13   53.31   10.09
 -10   6 -12    8.76    7.47
 -10   6 -11   58.00   10.07
 -10   6 -10   38.87    7.31
 -10   6  -9   63.65   11.26
 -10   6  -8   95.94   15.60
 -10   6  -7   31.39    8.08
 -10   6  -6    8.58    9.68
 -10   6  -5   22.55    5.42
 -10   6  -4   44.89    7.85
 -10   6  -3   30.74    6.32
 -10   6  -2   96.24   10.61
 -10   6  -1  224.35    9.01
 -10   6   0   46.11   10.61
 -10   6   1    7.00    6.36
 -10   6   2    4.49    9.41
 -10   6   3    9.21    8.76
 -10   6   4   55.97   20.67
 -10   6   5    1.33    5.85
 -10   6   6   18.46    9.03
 -10   6   7    7.65    5.39
 -10   6   8   21.42    8.76
 -10   6  10   37.20    8.62
 -10   6  11   -7.00    8.58
 -10   6  14   49.02   24.40
 -10   6  15   -0.68   29.70
 -10   6  16   19.91   10.86
 -10   6  17    5.42    8.82
 -10   7 -12   27.96    8.10
 -10   7 -11   37.94   13.14
 -10   7 -10   11.74   13.79
 -10   7  -9   15.62   17.56
 -10   7  -8   19.25   11.08
 -10   7  -7   29.41   29.81
 -10   7  -6    6.30    6.57
 -10   7  -5    7.47    8.13
 -10   7  -4   34.51    9.71
 -10   7  -3   17.31    5.37
 -10   7  -2   79.36   10.70
 -10   7  -1    1.78    7.40
 -10   7   0   23.25   10.43
 -10   7   1  122.26   12.62
 -10   7   2   59.86    9.30
 -10   7   3   34.69   10.61
 -10   7   4   10.34    5.60
 -10   7   7   16.45    7.92
 -10   7   8   97.41    9.19
 -10   7  11   15.98   10.34
 -10   7  12   61.03   10.56
 -10   7  13   47.13   76.94
 -10   8  -6    0.23   10.04
 -10   8  -5   73.85   17.81
 -10   8  -4   79.90   17.72
 -10   8  -3   19.64   17.45
 -10   8  -2   80.44   11.85
 -10   8  -1   94.18    8.76
 -10   8   0   -7.65    8.80
 -10   8   1    1.13    9.30
 -10   8   2    6.75    7.43
 -10   8   5    4.94   12.17
 -10   8   6    7.22   14.22
 -10   8   7   14.90    9.28
  -9  -8  -8   25.32   17.69
  -9  -8  -7   15.62   14.72
  -9  -8  -6   29.75   45.39
  -9  -8  -5   28.44   13.79
  -9  -8  -4  173.59   28.89
  -9  -8  -3   84.52   40.60
  -9  -8  -2   11.74   13.07
  -9  -8  -1    9.48    7.22
  -9  -8   0   51.35   15.71
  -9  -8   1   74.37   12.19
  -9  -8   2   24.87   12.44
  -9  -7 -13    9.21    7.65
  -9  -7 -12   -3.36    4.97
  -9  -7 -11   -3.81    6.27
  -9  -7 -10   56.20   52.70
  -9  -7  -9   32.07   17.36
  -9  -7  -8   -1.78    4.49
  -9  -7  -7   18.33   11.71
  -9  -7  -6   22.55    8.85
  -9  -7  -5    7.65   13.95
  -9  -7  -4   20.99   27.81
  -9  -7  -3   13.77    8.15
  -9  -7  -2    6.30   26.16
  -9  -7  -1    8.58   10.83
  -9  -7   0    8.15    6.77
  -9  -7   1   10.83    8.31
  -9  -7   2   15.84    7.18
  -9  -7   3   -4.29   15.14
  -9  -7   4   11.53    6.32
  -9  -7   5   13.77   22.07
  -9  -7   6    0.68    7.94
  -9  -6 -17  -64.37   70.15
  -9  -6 -16   42.91   18.10
  -9  -6 -15   13.99   25.28
  -9  -6 -14   66.78   16.45
  -9  -6 -13   -2.73    6.79
  -9  -6 -12   26.86   12.46
  -9  -6 -11   20.99   17.63
  -9  -6 -10   39.07   34.37
  -9  -6  -9   25.77   14.49
  -9  -6  -8    4.49    8.78
  -9  -6  -7   92.45   13.29
  -9  -6  -6   18.08   10.86
  -9  -6  -5   86.76   11.47
  -9  -6  -4  315.87   21.35
  -9  -6  -3  139.80   12.07
  -9  -6  -2   78.57   10.38
  -9  -6  -1   35.21   11.58
  -9  -6   0   17.83   10.40
  -9  -6   1  487.06   19.88
  -9  -6   2   97.41    9.80
  -9  -6   3   10.34   11.49
  -9  -6   4   43.70    9.52
  -9  -6   5   27.49    7.72
  -9  -6   6   21.26    4.72
  -9  -6   7   56.42    8.13
  -9  -6   8   92.45   10.70
  -9  -6   9   56.42    5.87
  -9  -5 -19  112.49   17.54
  -9  -5 -18   11.01   18.06
  -9  -5 -17    7.90   16.88
  -9  -5 -16   80.44   23.99
  -9  -5 -15   36.83   12.59
  -9  -5 -14   45.50   11.15
  -9  -5 -13   41.53   12.21
  -9  -5 -12   24.42    9.50
  -9  -5 -11   15.14    9.71
  -9  -5 -10   12.14    8.80
  -9  -5  -9   84.25   12.96
  -9  -5  -8    5.42   12.66
  -9  -5  -7   28.60   25.71
  -9  -5  -6   90.44   11.71
  -9  -5  -5   29.09    7.45
  -9  -5  -4   30.24    6.61
  -9  -5  -3   68.27   16.14
  -9  -5  -2   45.50    6.48
  -9  -5  -1   15.62    4.51
  -9  -5   0  245.99   15.08
  -9  -5   1  569.15   22.23
  -9  -5   2  201.12   10.65
  -9  -5   3   29.09    5.82
  -9  -5   4   83.15    6.57
  -9  -5   5   19.37    4.24
  -9  -5   6    1.33    5.15
  -9  -5   7    5.64    6.07
  -9  -5   8   -7.22    4.92
  -9  -4 -21   40.20   15.62
  -9  -4 -20   68.77   16.21
  -9  -4 -19   90.44   89.44
  -9  -4 -18    8.58   16.90
  -9  -4 -17   16.70   16.95
  -9  -4 -16   80.44   26.14
  -9  -4 -15  210.17   18.30
  -9  -4 -14   25.93   10.86
  -9  -4 -13   -7.00    6.36
  -9  -4 -12   -4.49    4.51
  -9  -4 -11   24.13    8.42
  -9  -4 -10   13.11    5.67
  -9  -4  -9    2.48    5.39
  -9  -4  -8    6.52    4.54
  -9  -4  -7   39.25    7.54
  -9  -4  -6    6.52    4.54
  -9  -4  -5   90.14    5.71
  -9  -4  -4  114.09    5.78
  -9  -4  -3  353.78   13.00
  -9  -4  -2  255.99   11.06
  -9  -4  -1  224.35    8.55
  -9  -4   0   98.02    4.18
  -9  -4   1  399.85   12.62
  -9  -4   2  107.14    6.23
  -9  -4   3   20.31    3.39
  -9  -4   4  103.44    6.41
  -9  -4   5  174.38   11.10
  -9  -4   6    8.33    2.69
  -9  -4   7   82.88    6.03
  -9  -3 -22   46.52   11.89
  -9  -3 -21   13.32   12.62
  -9  -3 -20    4.06   12.82
  -9  -3 -19   66.78    9.32
  -9  -3 -18   25.03    9.48
  -9  -3 -17   13.32    9.43
  -9  -3 -16   14.22    5.67
  -9  -3 -15  248.36   12.77
  -9  -3 -14   16.95    4.94
  -9  -3 -13   16.95    7.67
  -9  -3 -12   13.54    4.76
  -9  -3 -11  230.24   11.40
  -9  -3 -10   -4.49    4.72
  -9  -3  -9    9.21    4.47
  -9  -3  -8  144.45    8.31
  -9  -3  -7   26.25    4.31
  -9  -3  -6   -0.68    2.48
  -9  -3  -5  155.87    6.00
  -9  -3  -4   17.83    3.43
  -9  -3  -3   77.23    3.95
  -9  -3  -2    6.30    2.93
  -9  -3  -1  364.03   11.47
  -9  -3   0 1622.28   44.78
  -9  -3   1 1627.11   61.82
  -9  -3   2  370.94   16.21
  -9  -3   3    6.52    3.14
  -9  -3   4   66.54    6.61
  -9  -3   5   68.27    4.97
  -9  -3   6   29.75    5.42
  -9  -3   7    7.22    4.92
  -9  -3   8   28.93    5.01
  -9  -3   9  225.70   24.38
  -9  -3  10   12.14    5.12
  -9  -3  12    5.42    4.27
  -9  -3  13   11.53    5.91
  -9  -3  14   44.10    8.37
  -9  -2 -23  106.82   13.65
  -9  -2 -22    0.68    8.62
  -9  -2 -21   58.25    8.94
  -9  -2 -20    9.03    6.59
  -9  -2 -19   73.85    9.55
  -9  -2 -18  196.47   14.74
  -9  -2 -17   16.95    5.82
  -9  -2 -16  399.24   16.21
  -9  -2 -15  525.59   18.60
  -9  -2 -14   79.11    8.55
  -9  -2 -13  183.22   10.99
  -9  -2 -12   20.58    6.14
  -9  -2 -11   24.58    4.76
  -9  -2 -10  170.04    8.24
  -9  -2  -9    9.21    3.18
  -9  -2  -8   17.31    6.50
  -9  -2  -7   14.44    3.88
  -9  -2  -6   -3.59    4.49
  -9  -2  -5    7.00    3.18
  -9  -2  -4   20.72    3.84
  -9  -2  -3   16.70    3.18
  -9  -2  -2  165.75   11.22
  -9  -2  -1   34.69    4.78
  -9  -2   0  796.85   27.99
  -9  -2   1 1140.57   38.55
  -9  -2   2  439.21   32.75
  -9  -2   3  172.01    9.84
  -9  -2   4  437.34   20.74
  -9  -2   5  177.96   11.62
  -9  -2   6   27.49    5.82
  -9  -2   7  108.09    7.81
  -9  -2   8   59.86    7.20
  -9  -2   9    9.66    5.42
  -9  -2  10   27.96    7.15
  -9  -2  11  112.49    9.23
  -9  -2  12  249.78   11.40
  -9  -2  13   31.73    5.26
  -9  -2  14  405.88   18.76
  -9  -2  15   -4.49    7.00
  -9  -2  16  293.32   15.96
  -9  -2  17   68.77    6.97
  -9  -2  18   36.11    6.86
  -9  -2  19  128.65    9.89
  -9  -1 -24   17.83   10.79
  -9  -1 -23   29.75   10.31
  -9  -1 -22   12.89    7.65
  -9  -1 -21   20.99   14.44
  -9  -1 -20    5.42    7.70
  -9  -1 -19   66.78   17.67
  -9  -1 -18   13.54    7.85
  -9  -1 -17  143.73    9.01
  -9  -1 -16    0.00    2.26
  -9  -1 -15 1056.93   35.16
  -9  -1 -14   24.87    4.94
  -9  -1 -13  190.63    8.71
  -9  -1 -12   21.42    7.65
  -9  -1 -11   22.98    4.47
  -9  -1 -10   18.98    4.06
  -9  -1  -9    0.45    4.09
  -9  -1  -8   35.93    6.84
  -9  -1  -7   25.03    5.71
  -9  -1  -6   48.80    6.73
  -9  -1  -5  148.08    7.67
  -9  -1  -4  194.37   12.98
  -9  -1  -3 1202.28   47.92
  -9  -1  -2   85.09    6.66
  -9  -1  -1  152.87   10.02
  -9  -1   0    6.07    4.29
  -9  -1   1   55.75    5.82
  -9  -1   2   60.10    6.52
  -9  -1   3  606.30   30.33
  -9  -1   4   73.08    7.45
  -9  -1   5  401.65   20.47
  -9  -1   6   93.30    6.68
  -9  -1   7    1.33    5.39
  -9  -1   8   10.63    4.51
  -9  -1   9  372.67   16.25
  -9  -1  10  132.78    9.34
  -9  -1  11  205.41   12.48
  -9  -1  12    8.33    4.76
  -9  -1  13  199.86   12.75
  -9  -1  14   10.34   11.49
  -9  -1  15   18.46   11.24
  -9  -1  16   58.48   10.79
  -9  -1  17   50.92    7.94
  -9  -1  18   38.12    7.24
  -9  -1  19   82.88   14.22
  -9  -1  20   -1.33    8.06
  -9  -1  21   15.37    8.82
  -9  -1  22    7.47    8.13
  -9  -1  23   13.11   14.04
  -9  -1  24   12.68   17.65
  -9   0 -23  -20.58   13.09
  -9   0 -21  179.97   15.32
  -9   0 -19  206.27   10.79
  -9   0 -17    6.75    5.15
  -9   0 -15  109.01    7.83
  -9   0 -13   45.91    5.30
  -9   0 -11   26.70    8.53
  -9   0  -9   10.63    5.39
  -9   0  -7   23.70    7.61
  -9   0  -5  923.67   46.56
  -9   0  -3   -2.48    5.21
  -9   0  -1   15.98    5.64
  -9   0   1   86.76    8.40
  -9   0   3  136.95    8.44
  -9   0   5  142.28   12.19
  -9   0   7   16.70    6.50
  -9   0   9  378.50   18.12
  -9   0  11  377.91   18.10
  -9   0  13   90.14   11.42
  -9   0  15  168.48   15.21
  -9   0  17  254.07   16.27
  -9   0  19  683.33   54.98
  -9   0  21   18.33   11.33
  -9   0  23   31.39   13.14
  -9   0  25   72.56   16.63
  -9   1 -24   -9.03   13.72
  -9   1 -23   28.28   35.48
  -9   1 -22    7.00    9.05
  -9   1 -21   16.70    8.85
  -9   1 -20   18.71    9.23
  -9   1 -19   19.25    4.49
  -9   1 -18    9.95    9.01
  -9   1 -17  135.92    9.46
  -9   1 -16    0.00    2.26
  -9   1 -15 1052.05   32.16
  -9   1 -14   20.04    4.04
  -9   1 -13  188.96    7.43
  -9   1 -12    6.75    5.15
  -9   1 -11   21.69    4.33
  -9   1 -10   22.12    4.11
  -9   1  -9   -1.78    4.06
  -9   1  -8   47.55    6.64
  -9   1  -7    9.21    4.92
  -9   1  -6   55.75   12.57
  -9   1  -5  129.69    8.89
  -9   1  -4  183.22    9.75
  -9   1  -3 1160.95   41.98
  -9   1  -2   59.16    7.40
  -9   1  -1  154.36    9.34
  -9   1   0    2.26    4.51
  -9   1   1   51.14    7.31
  -9   1   2   61.50    5.89
  -9   1   3  582.85   29.02
  -9   1   4   67.53    6.41
  -9   1   5  383.78   17.65
  -9   1   6   79.36    8.82
  -9   1   7    9.48    5.64
  -9   1   8    4.29    4.74
  -9   1   9  353.22   14.69
  -9   1  10  142.64   10.04
  -9   1  11  208.43   23.86
  -9   1  12   -1.33    6.75
  -9   1  13  209.74   13.05
  -9   1  14   18.71   12.21
  -9   1  15    6.07   27.92
  -9   1  16   34.33    8.98
  -9   1  17   49.86   10.40
  -9   1  18   72.56   12.80
  -9   1  19   86.76   14.26
  -9   1  20   12.89   16.93
  -9   1  21  -15.98   13.68
  -9   1  22  310.54  261.04
  -9   1  23  -27.02   14.22
  -9   1  24   29.41   15.14
  -9   1  25   37.38   17.83
  -9   2 -23  110.59   13.27
  -9   2 -22   95.94   48.86
  -9   2 -21   92.45   35.53
  -9   2 -20    0.00    2.26
  -9   2 -19   68.27    9.93
  -9   2 -18  191.87   14.56
  -9   2 -17    3.59   10.13
  -9   2 -16  395.04   14.33
  -9   2 -15  525.59   25.48
  -9   2 -14   66.06   10.02
  -9   2 -13  186.09    9.03
  -9   2 -12   10.13    5.64
  -9   2 -11   33.45    9.73
  -9   2 -10  193.54    9.19
  -9   2  -9    5.85    6.32
  -9   2  -8    3.81    2.46
  -9   2  -7   28.93    6.79
  -9   2  -6   -1.33    2.26
  -9   2  -5    6.30    3.61
  -9   2  -4   23.99    4.27
  -9   2  -3   27.81    3.16
  -9   2  -2  173.20   10.68
  -9   2  -1   47.76    8.31
  -9   2   0  759.97   30.65
  -9   2   1 1121.36   38.23
  -9   2   2  415.60   17.76
  -9   2   3  153.25   10.79
  -9   2   4  410.73   17.65
  -9   2   5  175.98    9.95
  -9   2   6   22.82    4.45
  -9   2   7  120.61    7.92
  -9   2   8   57.10    6.36
  -9   2   9    1.33    5.15
  -9   2  10    6.30    9.89
  -9   2  11   88.16    7.90
  -9   2  12  228.41   14.54
  -9   2  13   25.48    6.52
  -9   2  14  426.10   24.19
  -9   2  15   14.67    8.17
  -9   2  16  290.25   18.94
  -9   2  17  104.36   13.20
  -9   2  18   46.52   12.10
  -9   2  19  133.82   13.90
  -9   2  20   55.07   39.93
  -9   2  21    4.29    7.65
  -9   2  22   52.88   10.92
  -9   2  23   32.25   13.14
  -9   2  24    6.52    8.82
  -9   3 -22   40.58   11.67
  -9   3 -21    1.60   11.78
  -9   3 -20   24.87   13.50
  -9   3 -19   53.31   10.74
  -9   3 -18   38.87   29.23
  -9   3 -17   -2.26    7.00
  -9   3 -16   23.99    6.61
  -9   3 -15  237.59   13.90
  -9   3 -14   18.33    8.35
  -9   3 -13    5.21    4.54
  -9   3 -12   15.14    4.92
  -9   3 -11  250.73   11.89
  -9   3 -10    0.23    2.51
  -9   3  -9    9.21    4.02
  -9   3  -8  140.50    7.13
  -9   3  -7   33.11    3.63
  -9   3  -6   11.94    5.39
  -9   3  -5  158.87    6.82
  -9   3  -4   18.98    6.16
  -9   3  -3   91.86    9.80
  -9   3  -2   12.68    7.49
  -9   3  -1  355.48   21.53
  -9   3   0 1649.00   95.18
  -9   3   1 1656.34   57.46
  -9   3   2  427.95   18.03
  -9   3   3   16.21    5.44
  -9   3   4   77.78    8.22
  -9   3   5   84.52    8.01
  -9   3   6   26.86    6.39
  -9   3   7    4.06   10.83
  -9   3   8   34.51    9.52
  -9   3   9  244.59   15.51
  -9   3  10    7.22   22.39
  -9   3  11  109.33   13.52
  -9   3  12    1.13    7.70
  -9   3  13   14.44    6.97
  -9   3  14   51.35   11.19
  -9   3  15   94.48   20.74
  -9   3  16  107.46   13.38
  -9   3  17   46.52   13.11
  -9   3  18   50.29   24.51
  -9   3  19   -3.14   13.05
  -9   3  20   76.44   13.65
  -9   3  21   34.51   15.53
  -9   3  22   34.51   17.29
  -9   3  23   46.52   26.02
  -9   3  24   75.65   17.51
  -9   4 -21   43.11   16.18
  -9   4 -20   85.09   10.81
  -9   4 -19   77.23   28.26
  -9   4 -18    1.13    8.62
  -9   4 -17    5.64    6.34
  -9   4 -16   28.93    7.43
  -9   4 -15  163.84   13.07
  -9   4 -14    1.33    5.39
  -9   4 -13    3.59    6.32
  -9   4 -12    4.49    6.05
  -9   4 -11    7.65    5.15
  -9   4 -10   22.82    5.89
  -9   4  -9   13.11   11.76
  -9   4  -8    7.00    8.10
  -9   4  -7   39.99    4.38
  -9   4  -6    7.47    3.36
  -9   4  -5   74.89    4.67
  -9   4  -4  111.54    5.08
  -9   4  -3  349.83   19.12
  -9   4  -2  244.12   11.74
  -9   4  -1  244.12   13.61
  -9   4   0  112.17    9.55
  -9   4   1  407.07   19.41
  -9   4   2  125.94   10.79
  -9   4   3   17.56    7.67
  -9   4   4  104.36    9.82
  -9   4   5  181.19   10.11
  -9   4   6    7.65    4.74
  -9   4   7  102.22   12.75
  -9   4   8  123.59    9.34
  -9   4   9   40.76    8.62
  -9   4  10   40.20   10.86
  -9   4  11  218.09   15.53
  -9   4  12  195.21   23.09
  -9   4  13  194.78   15.10
  -9   4  14   38.87   10.31
  -9   4  15   37.76   11.26
  -9   4  16   12.68   10.59
  -9   4  17   35.21   13.72
  -9   4  18   -0.68   11.33
  -9   4  19   50.29   17.90
  -9   4  20    4.29   16.70
  -9   4  21   -9.66   16.25
  -9   4  22   43.49   18.62
  -9   5 -19   46.31   12.68
  -9   5 -18   40.38   16.05
  -9   5 -17   42.52   12.73
  -9   5 -16   74.62   13.23
  -9   5 -15   63.65   13.90
  -9   5 -14   53.96    9.28
  -9   5 -13   17.20    5.85
  -9   5 -12   30.06    7.24
  -9   5 -11   31.06   11.71
  -9   5 -10   -3.14    6.07
  -9   5  -9   77.23    6.86
  -9   5  -8   -6.07    6.73
  -9   5  -7   10.83    8.31
  -9   5  -6   74.10    8.01
  -9   5  -5   29.41    7.49
  -9   5  -4   41.14    8.28
  -9   5  -3   64.84    7.49
  -9   5  -2   62.20   11.85
  -9   5  -1   24.58   10.88
  -9   5   0  265.22   17.60
  -9   5   1  585.76   22.55
  -9   5   2  232.52   13.75
  -9   5   3   31.39   11.96
  -9   5   4  111.22   12.05
  -9   5   5   22.98    7.92
  -9   5   6   -2.26    8.80
  -9   5   7   10.63    6.36
  -9   5   8    3.59    8.53
  -9   5   9  167.31   11.26
  -9   5  10   87.89   14.65
  -9   5  11   74.10   23.27
  -9   5  12    7.65    6.07
  -9   5  14   73.85    8.78
  -9   5  15   11.33   15.17
  -9   5  16   -1.13    7.92
  -9   5  17   25.32    9.52
  -9   5  18    0.68   10.88
  -9   5  19   -2.03    8.58
  -9   5  20   39.99   12.73
  -9   6 -17   13.54    7.85
  -9   6 -16   16.45    8.17
  -9   6 -15   27.02   27.49
  -9   6 -14  109.01   16.63
  -9   6 -13    7.90    5.67
  -9   6 -12   40.38    8.60
  -9   6 -11   -3.14    5.64
  -9   6 -10   41.73   11.26
  -9   6  -9   13.32   40.15
  -9   6  -8    1.33    8.31
  -9   6  -7   80.71   10.25
  -9   6  -6    5.64    9.48
  -9   6  -5  114.75   12.23
  -9   6  -4  373.26   25.55
  -9   6  -3  169.66   12.91
  -9   6  -2   63.40    8.37
  -9   6  -1   30.24    5.62
  -9   6   0    8.33    5.37
  -9   6   1  492.36   28.01
  -9   6   2   91.59    9.21
  -9   6   3   15.84    6.82
  -9   6   4   36.29    9.95
  -9   6   5   29.41    7.18
  -9   6   6   22.98   10.09
  -9   6   7   79.36   13.65
  -9   6   8   93.03   10.43
  -9   6   9   59.63   10.20
  -9   6  10   94.48   10.52
  -9   6  11   83.15   10.68
  -9   6  14   14.90    9.28
  -9   6  15   24.87    9.30
  -9   6  16   23.99    8.82
  -9   6  17   10.13   12.44
  -9   6  18   89.02   18.42
  -9   7 -13   18.71   15.73
  -9   7 -12   11.01   10.77
  -9   7 -11   27.81   15.53
  -9   7 -10   10.13    7.47
  -9   7  -9   58.00   12.37
  -9   7  -8   -0.23    8.69
  -9   7  -7   29.75    9.66
  -9   7  -6   23.99    7.94
  -9   7  -5   12.14   11.31
  -9   7  -4    7.65    8.15
  -9   7  -3   20.31    8.40
  -9   7  -2   -2.03    5.67
  -9   7  -1    4.74    7.65
  -9   7   0   16.21    5.80
  -9   7   1   35.03    9.25
  -9   7   2   17.20    6.73
  -9   7   3    2.93    7.88
  -9   7   4    5.85    5.37
  -9   7   5   18.33    6.95
  -9   7   6    9.03   10.11
  -9   7   7   -6.30    5.42
  -9   7   8    4.06    7.20
  -9   7  11   19.91   21.71
  -9   7  12   33.11   10.20
  -9   7  13    0.00    2.26
  -9   7  14    5.85    8.15
  -9   8  -8    6.52    8.37
  -9   8  -7   21.69   10.36
  -9   8  -6   10.13    4.31
  -9   8  -5    2.26    8.13
  -9   8  -4  127.63   15.62
  -9   8  -3   30.24   15.37
  -9   8  -2   38.30   20.45
  -9   8  -1   22.12   16.95
  -9   8   0   41.14   15.62
  -9   8   1   93.30   20.02
  -9   8   2   25.77    7.47
  -9   8   3   11.94    7.15
  -9   8   4   22.55   10.83
  -9   8   5   20.58    7.49
  -9   8   6   13.32    7.24
  -9   8   7   15.14    8.19
  -8  -8  -9    1.60    7.02
  -8  -8  -8    6.07   11.26
  -8  -8  -7   -6.30    9.89
  -8  -8  -6   44.89   19.32
  -8  -8  -5    1.13   10.63
  -8  -8  -4   15.37   14.49
  -8  -8  -3   18.71    8.58
  -8  -8  -2   -8.58    9.23
  -8  -8  -1    8.33   10.56
  -8  -8   0    6.75    9.91
  -8  -8   1   39.99   12.93
  -8  -8   2    3.59    7.18
  -8  -7 -14    8.15    4.54
  -8  -7 -13   -0.68    6.79
  -8  -7 -12   12.68    7.92
  -8  -7 -11   -1.33    7.40
  -8  -7 -10   27.96   19.86
  -8  -7  -9   31.73   10.34
  -8  -7  -8   15.37    9.07
  -8  -7  -7   -2.48    7.24
  -8  -7  -6   53.31   12.28
  -8  -7  -5   35.21   11.58
  -8  -7  -4   -2.93    6.79
  -8  -7  -3  288.71   23.50
  -8  -7  -2   47.35   11.78
  -8  -7  -1   34.15    7.02
  -8  -7   0   20.72   10.54
  -8  -7   1   23.41    6.09
  -8  -7   2   87.32   12.07
  -8  -7   3   19.25    9.10
  -8  -7   4   10.34    7.45
  -8  -7   5   10.13    7.85
  -8  -7   6    1.60    5.87
  -8  -6 -17   49.23   22.14
  -8  -6 -16   19.64   12.66
  -8  -6 -15   35.93   10.99
  -8  -6 -14   68.27   15.14
  -8  -6 -13    8.76   12.62
  -8  -6 -12   54.42   18.85
  -8  -6 -11    1.78    7.20
  -8  -6 -10   20.58   10.22
  -8  -6  -9   -0.45    7.72
  -8  -6  -8   10.13    8.33
  -8  -6  -7    2.93    5.67
  -8  -6  -6  101.32   13.90
  -8  -6  -5   82.34   11.71
  -8  -6  -4   18.33    7.85
  -8  -6  -3  107.77   12.17
  -8  -6  -2    1.60   14.06
  -8  -6  -1   56.88    9.52
  -8  -6   0   -0.68    7.47
  -8  -6   1   66.06    6.59
  -8  -6   2  176.38   21.55
  -8  -6   3   26.70   13.52
  -8  -6   4   21.83    5.19
  -8  -6   5   11.53    4.99
  -8  -6   6  109.96   12.28
  -8  -6   7  132.78    9.34
  -8  -6   8    1.33    4.04
  -8  -6   9   66.06    9.28
  -8  -5 -20   85.92   16.16
  -8  -5 -19   49.02   15.14
  -8  -5 -18  278.58   26.07
  -8  -5 -17  128.99   48.12
  -8  -5 -16   45.09   19.37
  -8  -5 -15   34.69    9.73
  -8  -5 -14   37.38   16.16
  -8  -5 -13   39.81   11.38
  -8  -5 -12   -0.90    9.43
  -8  -5 -11  -13.54    8.85
  -8  -5 -10   20.72   10.81
  -8  -5  -9    9.95    9.95
  -8  -5  -8  132.78   11.42
  -8  -5  -7  101.02   13.59
  -8  -5  -6  110.28    9.77
  -8  -5  -5  325.01   16.79
  -8  -5  -4    1.33    5.15
  -8  -5  -3   -3.81    5.87
  -8  -5  -2   32.77    5.17
  -8  -5  -1  520.08   20.56
  -8  -5   0  510.53   21.04
  -8  -5   1   18.98    5.24
  -8  -5   2 1131.45   44.46
  -8  -5   3    8.15    3.86
  -8  -5   4  242.72   12.64
  -8  -5   5   28.60    6.12
  -8  -5   6   32.93    9.48
  -8  -5   7   13.77    6.57
  -8  -5   8    9.95    5.21
  -8  -5   9   17.56    4.92
  -8  -4 -22   18.33   15.19
  -8  -4 -21   64.37   25.55
  -8  -4 -20  161.92   19.12
  -8  -4 -19    2.03   10.86
  -8  -4 -18   64.84   19.84
  -8  -4 -17    8.33   16.90
  -8  -4 -16   32.25    7.18
  -8  -4 -15    9.66    7.85
  -8  -4 -14   62.92    7.85
  -8  -4 -13   -0.23    4.33
  -8  -4 -12   10.83   11.26
  -8  -4 -11   56.42    7.22
  -8  -4 -10    4.74    6.82
  -8  -4  -9   24.58    6.12
  -8  -4  -8   -0.90    5.87
  -8  -4  -7    4.06    2.91
  -8  -4  -6   64.84    8.46
  -8  -4  -5  131.04    5.51
  -8  -4  -4  152.51    5.94
  -8  -4  -3   34.51    3.36
  -8  -4  -2    0.00    2.26
  -8  -4  -1  277.09    9.50
  -8  -4   0  217.64    8.42
  -8  -4   1  132.78    4.49
  -8  -4   2   40.76    2.69
  -8  -4   3   46.31    2.66
  -8  -4   4  130.36    6.18
  -8  -4   5  184.44   13.07
  -8  -4   6   11.53    3.36
  -8  -4   7  169.27   10.16
  -8  -4   8   29.57    4.09
  -8  -4   9   20.72    6.70
  -8  -3 -23   29.41   15.64
  -8  -3 -22   46.92   27.58
  -8  -3 -21   -0.68    6.36
  -8  -3 -20   25.77    7.18
  -8  -3 -19   18.46   10.83
  -8  -3 -18  160.02   10.27
  -8  -3 -17   87.89    9.57
  -8  -3 -16  207.15   12.10
  -8  -3 -15   21.69    9.23
  -8  -3 -14   56.42    5.42
  -8  -3 -13   16.21    3.88
  -8  -3 -12   -0.68    5.21
  -8  -3 -11   14.90    5.21
  -8  -3 -10    6.30    6.79
  -8  -3  -9    4.94    3.61
  -8  -3  -8  104.97    7.09
  -8  -3  -7   22.12    4.11
  -8  -3  -6  161.92    7.65
  -8  -3  -5    2.93    3.39
  -8  -3  -4  210.17    8.28
  -8  -3  -3  459.59   12.89
  -8  -3  -2   50.71    4.06
  -8  -3  -1    0.45    2.28
  -8  -3   0 3784.75  121.99
  -8  -3   1  311.60   13.79
  -8  -3   2  397.43   16.77
  -8  -3   3  679.40   31.33
  -8  -3   4  427.95   32.95
  -8  -3   5  159.64    8.73
  -8  -3   6  125.60    9.43
  -8  -3   7   35.93    5.03
  -8  -3   8   92.15    7.79
  -8  -3   9  170.45    9.41
  -8  -3  10  596.73   29.36
  -8  -3  11  155.87   12.75
  -8  -3  12    6.07    7.40
  -8  -3  13   19.64    9.73
  -8  -3  14  149.19   13.95
  -8  -3  15  186.90   13.14
  -8  -2 -24   73.08   15.42
  -8  -2 -23   46.31   11.24
  -8  -2 -22   39.43   10.38
  -8  -2 -21    1.13   12.23
  -8  -2 -20   16.21    5.80
  -8  -2 -19    5.64    6.07
  -8  -2 -18  419.30   18.46
  -8  -2 -17   92.45    7.52
  -8  -2 -16  891.99   36.79
  -8  -2 -15   27.33    5.67
  -8  -2 -14   46.31    5.94
  -8  -2 -13   11.53    5.21
  -8  -2 -12   52.88    7.20
  -8  -2 -11   16.45    4.51
  -8  -2 -10   25.48   12.59
  -8  -2  -9  101.02    5.12
  -8  -2  -8   85.65    5.28
  -8  -2  -7   46.72    4.72
  -8  -2  -6  895.60   26.97
  -8  -2  -5  246.46    7.54
  -8  -2  -4  308.44    9.50
  -8  -2  -3   25.93    3.36
  -8  -2  -2   27.49    6.14
  -8  -2  -1    4.74    5.44
  -8  -2   0   -2.73    2.48
  -8  -2   1   16.95    2.48
  -8  -2   2    6.07    8.80
  -8  -2   3   30.40   12.59
  -8  -2   4  305.28   26.77
  -8  -2   5  499.07   20.81
  -8  -2   6  487.71   27.20
  -8  -2   7   45.30    4.65
  -8  -2   8    9.21    4.47
  -8  -2   9   21.83    5.89
  -8  -2  10   50.71    5.78
  -8  -2  11  192.70   17.94
  -8  -2  12   93.89    7.00
  -8  -2  13   28.93    7.92
  -8  -2  14   48.39    5.85
  -8  -2  15   58.00    7.56
  -8  -2  16  443.00   22.77
  -8  -2  17  499.72   42.32
  -8  -2  18    2.48    9.23
  -8  -2  19   27.96    8.58
  -8  -2  20  309.48   25.91
  -8  -1 -24   29.41    7.18
  -8  -1 -23   19.25    7.65
  -8  -1 -22   44.89   11.67
  -8  -1 -21   14.90    8.13
  -8  -1 -20    8.15    7.04
  -8  -1 -19   -0.90    6.27
  -8  -1 -18   10.83    5.44
  -8  -1 -17   32.41    9.75
  -8  -1 -16   64.37    7.94
  -8  -1 -15  100.12    7.81
  -8  -1 -14  320.15   10.74
  -8  -1 -13    2.93    4.06
  -8  -1 -12   12.46    5.42
  -8  -1 -11   15.14    4.56
  -8  -1 -10  101.93    6.68
  -8  -1  -9   17.83    4.31
  -8  -1  -8   41.35    3.86
  -8  -1  -7    6.07    4.51
  -8  -1  -6  495.05   14.72
  -8  -1  -5   35.03    4.45
  -8  -1  -4  774.13   28.42
  -8  -1  -3   33.63    5.39
  -8  -1  -2   13.99    4.72
  -8  -1  -1  255.04   14.40
  -8  -1   0  199.43    9.34
  -8  -1   1  164.99    7.72
  -8  -1   2   84.25    6.07
  -8  -1   3   36.47    3.81
  -8  -1   4  508.50   23.72
  -8  -1   5   87.03    7.29
  -8  -1   6 2069.39  133.95
  -8  -1   7   52.23    5.42
  -8  -1   8  601.13   33.16
  -8  -1   9   10.63    3.43
  -8  -1  10  731.27   29.25
  -8  -1  11   18.08    6.77
  -8  -1  12   20.31    7.04
  -8  -1  13    6.75    6.09
  -8  -1  14  598.19   27.20
  -8  -1  15  254.54   19.18
  -8  -1  16  115.38   11.62
  -8  -1  17   18.33    7.20
  -8  -1  18  505.79   30.40
  -8  -1  19   35.39   11.98
  -8  -1  20   45.91   10.38
  -8  -1  21   69.02   15.48
  -8  -1  22    5.64    8.98
  -8  -1  23    7.47    8.37
  -8  -1  24   44.10   13.16
  -8   0 -24   22.98   14.83
  -8   0 -22   87.89    8.44
  -8   0 -20    7.00    4.92
  -8   0 -18 1952.19   59.74
  -8   0 -16 2301.05   63.42
  -8   0 -14   27.49    6.14
  -8   0 -12   18.33    5.15
  -8   0 -10   -2.26    4.29
  -8   0  -8  404.05   13.29
  -8   0  -6  798.57   22.07
  -8   0  -4   88.45    6.21
  -8   0  -2   19.37    5.42
  -8   0   0   39.81    4.36
  -8   0   2   47.13    6.59
  -8   0   4  536.67   26.45
  -8   0   6  484.40   18.51
  -8   0   8  240.37   12.12
  -8   0  10   26.70    4.81
  -8   0  12   40.76    7.47
  -8   0  14    4.06    9.50
  -8   0  16 1025.89   49.09
  -8   0  18  115.72   13.25
  -8   0  20  113.78   13.45
  -8   0  22   18.71   10.13
  -8   0  24   54.84   23.36
  -8   0  26    8.15    8.40
  -8   1 -24   72.31   44.19
  -8   1 -23   34.69   18.94
  -8   1 -22   36.47   13.25
  -8   1 -21   30.40   11.76
  -8   1 -20    5.42   17.42
  -8   1 -19    5.85    6.75
  -8   1 -18   20.31    4.74
  -8   1 -17   22.12    6.07
  -8   1 -16   87.59    7.31
  -8   1 -15  112.49    6.70
  -8   1 -14  321.22   12.93
  -8   1 -13    7.65    3.81
  -8   1 -12    7.22    4.04
  -8   1 -11   10.34    3.39
  -8   1 -10  106.21    6.18
  -8   1  -9   31.06    6.36
  -8   1  -8   35.21    4.81
  -8   1  -7   12.68    6.09
  -8   1  -6  505.12   20.94
  -8   1  -5   25.48    7.29
  -8   1  -4  722.35   29.88
  -8   1  -3   33.81    6.30
  -8   1  -2    7.65    4.31
  -8   1  -1  259.37    8.22
  -8   1   0  197.31    7.61
  -8   1   1  154.74    5.98
  -8   1   2   71.28    6.09
  -8   1   3   44.10    5.19
  -8   1   4  464.13   19.41
  -8   1   5   71.55    5.85
  -8   1   6 1982.84   68.23
  -8   1   7   44.69    5.62
  -8   1   8  559.87   22.05
  -8   1   9   12.89    4.97
  -8   1  10  683.33   25.14
  -8   1  11   31.06    7.88
  -8   1  12    9.66   15.51
  -8   1  13    3.36    8.76
  -8   1  14  614.47   37.24
  -8   1  15  255.99   14.90
  -8   1  16  141.22   23.56
  -8   1  17   30.06   10.54
  -8   1  18  556.33   39.68
  -8   1  19   26.25   14.47
  -8   1  20   84.25   20.97
  -8   1  21   35.39   11.98
  -8   1  22  -13.11   10.88
  -8   1  23   15.14   15.55
  -8   1  24   93.03   27.54
  -8   1  25  -19.25   12.39
  -8   2 -24   79.63   11.80
  -8   2 -23   41.93   13.23
  -8   2 -22   15.84    9.93
  -8   2 -21    6.75    9.91
  -8   2 -20   -5.64   11.69
  -8   2 -19    7.65   13.29
  -8   2 -18  388.50   20.13
  -8   2 -17   90.14    9.12
  -8   2 -16  908.21   28.08
  -8   2 -15   45.09   10.09
  -8   2 -14   64.12    7.70
  -8   2 -13    5.21    3.16
  -8   2 -12   48.16    4.58
  -8   2 -11   20.31    3.39
  -8   2 -10    6.07    3.86
  -8   2  -9  105.90    5.57
  -8   2  -8  100.12   10.52
  -8   2  -7   50.06    3.41
  -8   2  -6  930.08   27.49
  -8   2  -5  249.31    9.95
  -8   2  -4  313.72   10.65
  -8   2  -3   22.12    4.51
  -8   2  -2   24.42    2.66
  -8   2  -1    4.94    2.28
  -8   2   0   -3.14    2.93
  -8   2   1   22.39    4.13
  -8   2   2    2.73    5.91
  -8   2   3   23.41    3.20
  -8   2   4  282.10   13.11
  -8   2   5  474.53   17.67
  -8   2   6  524.89   19.95
  -8   2   7   23.70    5.12
  -8   2   8    1.60    4.09
  -8   2   9    8.58    5.19
  -8   2  10   28.60    7.88
  -8   2  11  192.27   16.25
  -8   2  12  106.82    8.69
  -8   2  13   38.12   10.59
  -8   2  14   60.33    8.64
  -8   2  15   91.00   10.02
  -8   2  16  429.19   28.64
  -8   2  17  473.88   24.85
  -8   2  18    2.93    6.32
  -8   2  19   25.03   10.22
  -8   2  20  280.59   21.15
  -8   2  21   61.25   13.88
  -8   2  22  119.28   17.06
  -8   2  23    8.15    9.25
  -8   2  24   30.74    9.66
  -8   2  25   25.32   24.80
  -8   3 -23    2.73    8.15
  -8   3 -22    2.73    9.10
  -8   3 -21   13.54   11.71
  -8   3 -20   24.87   17.38
  -8   3 -19   29.75   25.89
  -8   3 -18  200.29   17.02
  -8   3 -17   85.92   10.59
  -8   3 -16  185.25   14.31
  -8   3 -15   16.95    9.28
  -8   3 -14   55.97    9.43
  -8   3 -13    8.33    3.63
  -8   3 -12    2.73    5.21
  -8   3 -11   19.37    2.51
  -8   3 -10    7.47    2.05
  -8   3  -9    0.23    2.28
  -8   3  -8   98.61    5.96
  -8   3  -7   23.25    2.89
  -8   3  -6  155.87    6.39
  -8   3  -5    1.60    2.28
  -8   3  -4  204.98    7.31
  -8   3  -3  444.27   14.56
  -8   3  -2   37.20    3.30
  -8   3  -1    2.73    3.18
  -8   3   0 3821.81  183.90
  -8   3   1  287.68   13.77
  -8   3   2  382.61   17.63
  -8   3   3  693.57   27.69
  -8   3   4  381.43   22.30
  -8   3   5  168.87   11.33
  -8   3   6  110.91   10.77
  -8   3   7   32.93    9.66
  -8   3   8  101.93   10.92
  -8   3   9  181.60   10.52
  -8   3  10  614.47   26.07
  -8   3  11  152.12   29.27
  -8   3  12   -2.73    7.70
  -8   3  13   11.53    9.48
  -8   3  14  156.23   11.65
  -8   3  15  196.90   13.90
  -8   3  16   22.12   18.08
  -8   3  17   63.15   14.56
  -8   3  18  170.45   20.79
  -8   3  19   60.33   26.84
  -8   3  20   22.98   16.41
  -8   3  21   81.25   16.79
  -8   3  22   30.90   12.19
  -8   3  23   -8.33   34.49
  -8   3  24   50.92   18.67
  -8   4 -22   27.33   20.58
  -8   4 -21  106.82   39.14
  -8   4 -20  146.98   15.66
  -8   4 -19   18.46    8.78
  -8   4 -18   13.54   11.06
  -8   4 -17    2.73    8.85
  -8   4 -16   30.24    9.25
  -8   4 -15    9.48    7.04
  -8   4 -14   57.33    6.59
  -8   4 -13   28.60   15.60
  -8   4 -12   -1.78    6.95
  -8   4 -11   65.57   10.22
  -8   4 -10   13.11    8.37
  -8   4  -9   31.39    5.06
  -8   4  -8   -2.03    2.28
  -8   4  -7    6.52    2.69
  -8   4  -6   59.40    4.40
  -8   4  -5  168.48    7.02
  -8   4  -4  156.23    6.39
  -8   4  -3   39.25    5.28
  -8   4  -2    7.00    5.64
  -8   4  -1  280.59   14.08
  -8   4   0  210.62   11.33
  -8   4   1  133.12    7.97
  -8   4   2   33.81    5.60
  -8   4   3   45.09    8.87
  -8   4   4  121.27   12.23
  -8   4   5  182.00   11.35
  -8   4   6   24.13    7.67
  -8   4   7  182.82   13.41
  -8   4   8   45.50    7.70
  -8   4   9   14.67    7.72
  -8   4  10    3.81    7.22
  -8   4  11   31.73    6.59
  -8   4  12    8.33   12.39
  -8   4  13   11.74   13.27
  -8   4  14  350.96   17.45
  -8   4  15   76.72   13.68
  -8   4  16   78.02   14.60
  -8   4  17   19.37   14.15
  -8   4  18   18.71   12.86
  -8   4  19  215.88   28.26
  -8   4  20  133.82   18.42
  -8   4  21   24.87   42.70
  -8   4  22  113.78   16.34
  -8   4  23   27.49   17.65
  -8   5 -20  273.10  113.71
  -8   5 -19   37.94    9.61
  -8   5 -18  248.83   23.22
  -8   5 -17  106.21   12.07
  -8   5 -16   72.56   18.42
  -8   5 -15   49.23    9.07
  -8   5 -14   45.91    7.94
  -8   5 -13   19.64    4.92
  -8   5 -12   11.53    7.45
  -8   5 -11    8.33    5.64
  -8   5 -10   18.33    6.82
  -8   5  -9    6.30    9.66
  -8   5  -8  127.63   11.19
  -8   5  -7  108.09    8.44
  -8   5  -6  145.17   23.18
  -8   5  -5  382.02   22.91
  -8   5  -4   14.90    4.51
  -8   5  -3   -4.29    4.74
  -8   5  -2   32.25    5.46
  -8   5  -1  499.07   20.13
  -8   5   0  516.67   23.22
  -8   5   1   25.03    7.97
  -8   5   2 1103.33   45.91
  -8   5   3   13.11    5.44
  -8   5   4  254.07   14.85
  -8   5   5   51.78    6.93
  -8   5   6   23.70    7.61
  -8   5   7   14.44    7.65
  -8   5   8    6.52    9.66
  -8   5   9   13.77    5.46
  -8   5  10   80.44   17.24
  -8   5  11   74.10   10.61
  -8   5  12   16.21   19.59
  -8   5  13   25.93   10.09
  -8   5  14   37.94   10.54
  -8   5  15    6.75    8.13
  -8   5  16   -4.74    9.03
  -8   5  17   68.27    8.94
  -8   5  18   88.16   15.80
  -8   5  19   -1.33    8.31
  -8   5  20   28.28   31.01
  -8   5  21    0.68    7.94
  -8   6 -18   27.96   14.15
  -8   6 -17   15.98    9.98
  -8   6 -16   12.68   17.65
  -8   6 -15   23.41   11.92
  -8   6 -14   95.36   23.47
  -8   6 -13   13.11   18.94
  -8   6 -12   77.23   13.20
  -8   6 -10   29.57   12.91
  -8   6  -9    6.75    5.87
  -8   6  -8   26.25    7.38
  -8   6  -7   10.13    8.13
  -8   6  -6   89.02    9.07
  -8   6  -5   62.92    8.35
  -8   6  -4    5.21    6.59
  -8   6  -3  119.94    9.21
  -8   6  -2   -2.93    4.54
  -8   6  -1   68.52    8.46
  -8   6   0   18.08    7.40
  -8   6   1   99.22    9.57
  -8   6   2  151.40    9.61
  -8   6   3   -0.23    6.64
  -8   6   4   37.38    7.72
  -8   6   5   15.14    4.92
  -8   6   6  101.32   10.29
  -8   6   7  111.86   10.50
  -8   6   8    7.90    9.28
  -8   6   9   51.35   14.22
  -8   6  10   11.33    6.36
  -8   6  11   27.49    8.19
  -8   6  13   40.20   11.80
  -8   6  14   86.19    8.94
  -8   6  15   17.20    9.10
  -8   6  16   64.84   11.85
  -8   6  17   67.78   12.12
  -8   6  18   14.22   10.20
  -8   6  19   20.99   11.69
  -8   7 -14    8.58    6.52
  -8   7 -13    6.30    7.47
  -8   7 -12   18.08   10.34
  -8   7 -11   -8.15   11.33
  -8   7 -10   37.01   11.51
  -8   7  -9   55.97    9.21
  -8   7  -8   37.20    6.59
  -8   7  -7    6.30   11.01
  -8   7  -6   56.20   10.36
  -8   7  -5   37.76    8.87
  -8   7  -4    9.21    5.37
  -8   7  -3  276.57   18.48
  -8   7  -2   53.74    7.92
  -8   7  -1   31.39    6.73
  -8   7   0   69.52   29.32
  -8   7   1   64.37   30.85
  -8   7   2  117.00   31.85
  -8   7   3    5.64    7.43
  -8   7   4    9.48    4.99
  -8   7   5    5.85    7.40
  -8   7   6    3.81    7.85
  -8   7   7   14.90    6.73
  -8   7   8    7.65    8.31
  -8   7  10    3.59    6.77
  -8   7  11    0.90    6.75
  -8   7  12    3.59    6.77
  -8   7  13   22.12    9.75
  -8   7  14   29.75   10.65
  -8   7  15   38.87   19.12
  -8   8  -9    2.73    7.24
  -8   8  -8   26.41    8.33
  -8   8  -7    7.00    9.46
  -8   8  -6    2.03    4.49
  -8   8  -5   12.89   20.29
  -8   8  -4    8.33    6.32
  -8   8  -3   16.70    7.85
  -8   8  -2    4.29    4.54
  -8   8  -1   20.58   29.86
  -8   8   0   44.89   17.31
  -8   8   1   48.39   34.69
  -8   8   2    7.47    6.07
  -8   8   5    1.60    7.02
  -8   8   6   47.76   12.46
  -8   8   9   11.74    7.20
  -8   8  10   14.22   15.75
  -7  -8 -10    0.68    9.28
  -7  -8  -9   -4.29    5.85
  -7  -8  -8    6.75    6.09
  -7  -8  -7    7.90    7.94
  -7  -8  -6   36.47   13.97
  -7  -8  -5   71.28   11.17
  -7  -8  -4   10.83   11.96
  -7  -8  -3    5.42   11.76
  -7  -8  -2   52.66    8.51
  -7  -8  -1  168.10   14.81
  -7  -8   0    3.14    5.87
  -7  -8   1   17.83   17.38
  -7  -7 -15   79.11   13.09
  -7  -7 -14   -0.68    6.12
  -7  -7 -13   18.08   13.16
  -7  -7 -12   15.14   10.88
  -7  -7 -11    0.90    5.17
  -7  -7 -10    4.29    9.73
  -7  -7  -9   30.74   10.34
  -7  -7  -8   28.28    8.78
  -7  -7  -7   14.22    7.24
  -7  -7  -6   13.77    6.57
  -7  -7  -5   21.26   11.08
  -7  -7  -4  151.40   14.04
  -7  -7  -3   47.55   11.80
  -7  -7  -2   -2.03    4.97
  -7  -7  -1   10.13    9.66
  -7  -7   0    4.74    7.65
  -7  -7   1   30.74   10.65
  -7  -7   2  108.38   19.07
  -7  -7   3   18.33    6.05
  -7  -7   4   88.45    9.05
  -7  -7   5    0.00    2.26
  -7  -6 -17    5.42   16.52
  -7  -6 -16    7.00   10.40
  -7  -6 -15   -1.60    5.64
  -7  -6 -14   31.06   14.24
  -7  -6 -13  127.63   21.04
  -7  -6 -12   13.77    6.36
  -7  -6 -11    5.85    8.80
  -7  -6 -10    2.48    8.35
  -7  -6  -9    5.85    6.32
  -7  -6  -8    2.73    7.49
  -7  -6  -7  349.27   29.21
  -7  -6  -6   28.60    9.32
  -7  -6  -5    5.42    5.87
  -7  -6  -4   -4.74    4.72
  -7  -6  -3   64.12    8.67
  -7  -6  -2  133.82    9.73
  -7  -6  -1  655.34   30.76
  -7  -6   0   26.41   12.19
  -7  -6   1    5.64    5.42
  -7  -6   2  150.65    9.95
  -7  -6   3   96.24    8.26
  -7  -6   4   34.69    6.03
  -7  -6   5   88.16    9.59
  -7  -6   6   41.73    5.24
  -7  -6   7   30.06    6.75
  -7  -6   8  159.64   12.91
  -7  -6   9  184.04   11.83
  -7  -5 -21   91.86   19.86
  -7  -5 -20   71.28   28.91
  -7  -5 -19  -11.94    9.46
  -7  -5 -18   61.50   10.83
  -7  -5 -17   44.28   22.19
  -7  -5 -16   50.29   14.69
  -7  -5 -15  110.59   19.91
  -7  -5 -14   12.46    9.01
  -7  -5 -13    1.60   10.65
  -7  -5 -12    6.52   11.28
  -7  -5 -11   -0.68    9.98
  -7  -5 -10   61.25   11.06
  -7  -5  -9   44.69    8.85
  -7  -5  -8  199.86   11.04
  -7  -5  -7   21.26    5.82
  -7  -5  -6  159.64    9.86
  -7  -5  -5   32.77   10.16
  -7  -5  -4  108.38   10.02
  -7  -5  -3   39.07   11.83
  -7  -5  -2   12.68    2.03
  -7  -5  -1    8.76    2.05
  -7  -5   0    5.42   11.06
  -7  -5   1   30.06    7.24
  -7  -5   2  227.05   16.30
  -7  -5   3  424.86   24.78
  -7  -5   4  302.12   22.98
  -7  -5   5   25.93    7.97
  -7  -5   6   34.51    6.36
  -7  -5   7   11.01    4.69
  -7  -5   8   35.21    5.71
  -7  -5   9   18.08    5.87
  -7  -5  10   23.70    7.45
  -7  -4 -22   65.09   16.25
  -7  -4 -21   57.78   14.63
  -7  -4 -20   14.44   16.68
  -7  -4 -19   74.89   11.96
  -7  -4 -18   63.40    8.62
  -7  -4 -17    5.85    6.09
  -7  -4 -16   41.35    6.57
  -7  -4 -15   -4.06    6.30
  -7  -4 -14  199.00   11.87
  -7  -4 -13  134.52    7.31
  -7  -4 -12  101.93   10.02
  -7  -4 -11   48.16    6.46
  -7  -4 -10  127.97    6.46
  -7  -4  -9    7.65    3.41
  -7  -4  -8   30.90    6.00
  -7  -4  -7  726.39   27.54
  -7  -4  -6    0.68    3.41
  -7  -4  -5    6.07    2.44
  -7  -4  -4   31.39    2.87
  -7  -4  -3   72.04    4.09
  -7  -4  -2   94.48    4.38
  -7  -4  -1  193.54    7.94
  -7  -4   0  368.63   10.38
  -7  -4   1   19.37    1.58
  -7  -4   2   50.06    3.18
  -7  -4   3    8.76    1.15
  -7  -4   4    9.95    1.33
  -7  -4   5    0.68    1.58
  -7  -4   6    4.29    1.56
  -7  -4   7    4.74    2.28
  -7  -4   8   58.00    5.03
  -7  -4   9  186.09    9.43
  -7  -4  10    4.74    4.97
  -7  -3 -24  -13.54   11.94
  -7  -3 -23   95.06   15.23
  -7  -3 -22   18.33    7.20
  -7  -3 -21    9.95    6.55
  -7  -3 -20   38.12   11.13
  -7  -3 -19   58.48    8.26
  -7  -3 -18   26.86    5.44
  -7  -3 -17    0.00    2.26
  -7  -3 -16   64.60    7.00
  -7  -3 -15   37.94    9.25
  -7  -3 -14   -0.45    5.69
  -7  -3 -13   21.42    6.12
  -7  -3 -12   61.50    7.31
  -7  -3 -11   22.12    3.81
  -7  -3 -10   72.56    6.66
  -7  -3  -9   71.28    7.61
  -7  -3  -8   38.87    5.62
  -7  -3  -7   11.33    3.43
  -7  -3  -6   35.93    4.51
  -7  -3  -5  168.87    7.43
  -7  -3  -4  169.66    7.83
  -7  -3  -3    5.85    2.91
  -7  -3  -2    2.48    1.81
  -7  -3  -1  917.31   25.48
  -7  -3   0  352.09   10.16
  -7  -3   1  813.92   23.13
  -7  -3   2  516.67   19.12
  -7  -3   3 2259.45   98.54
  -7  -3   4  595.98   27.87
  -7  -3   5  436.07   18.82
  -7  -3   6  216.76   10.18
  -7  -3   7   64.37    5.78
  -7  -3   8    8.33    3.11
  -7  -3   9   94.77    8.19
  -7  -3  10   20.04    4.58
  -7  -3  11   46.92    9.05
  -7  -3  12    9.66    7.02
  -7  -3  13   75.93    7.06
  -7  -3  14  150.65   14.76
  -7  -3  15   -2.73    5.91
  -7  -3  16  236.19   14.31
  -7  -2 -24    3.81    7.22
  -7  -2 -23   50.49    9.82
  -7  -2 -22   24.87   11.98
  -7  -2 -21  174.38   12.30
  -7  -2 -20   83.15    9.32
  -7  -2 -19  204.98   12.91
  -7  -2 -18  306.86   15.80
  -7  -2 -17   46.11    5.91
  -7  -2 -16   26.41    5.39
  -7  -2 -15   24.42    6.39
  -7  -2 -14   21.69    8.40
  -7  -2 -13   40.20    5.15
  -7  -2 -12   37.38    4.04
  -7  -2 -11  241.32   11.19
  -7  -2 -10  174.78   10.72
  -7  -2  -9   40.58    5.17
  -7  -2  -8  124.59    5.71
  -7  -2  -7 5662.82  162.80
  -7  -2  -6  276.57    9.50
  -7  -2  -5  206.27    7.34
  -7  -2  -4  138.74    6.03
  -7  -2  -3    9.95    5.87
  -7  -2  -2  846.82   28.84
  -7  -2  -1   27.81    2.69
  -7  -2   0  491.71   13.99
  -7  -2   1  305.80    9.46
  -7  -2   2   48.39    3.54
  -7  -2   3  389.11   13.05
  -7  -2   4  142.28    5.73
  -7  -2   5   56.65    4.29
  -7  -2   6   68.27   12.17
  -7  -2   7  203.69    9.86
  -7  -2   8    9.48    4.27
  -7  -2   9  396.85   16.16
  -7  -2  10  125.60    7.40
  -7  -2  11  354.35   22.62
  -7  -2  12  148.44    8.06
  -7  -2  13    9.03    6.14
  -7  -2  14   92.15   19.32
  -7  -2  15  117.00    7.81
  -7  -2  16  108.70    9.39
  -7  -2  17  750.07   28.80
  -7  -2  18    4.94    4.94
  -7  -2  19    0.68   10.88
  -7  -2  20    6.07    6.73
  -7  -2  21   27.81    9.98
  -7  -1 -25   23.70   11.26
  -7  -1 -24   -0.45    8.17
  -7  -1 -23   49.43    8.44
  -7  -1 -22    8.33    7.02
  -7  -1 -21   37.20    9.16
  -7  -1 -20   36.83    7.47
  -7  -1 -19   63.87    8.17
  -7  -1 -18    2.48    8.82
  -7  -1 -17  129.69    9.23
  -7  -1 -16    1.33    5.85
  -7  -1 -15  451.26   14.67
  -7  -1 -14    2.73    5.46
  -7  -1 -13   16.70    5.89
  -7  -1 -12   12.46    4.04
  -7  -1 -11   25.77    4.27
  -7  -1 -10   21.83    4.92
  -7  -1  -9   90.14    5.98
  -7  -1  -8  130.36    7.20
  -7  -1  -7    5.21    2.75
  -7  -1  -6  328.26   10.34
  -7  -1  -5   29.41    4.24
  -7  -1  -4  112.17    4.45
  -7  -1  -3   18.71    4.67
  -7  -1  -2  124.92    5.71
  -7  -1  -1  218.09    6.66
  -7  -1   0  297.97    8.82
  -7  -1   1  228.41    8.17
  -7  -1   2    4.74    2.48
  -7  -1   3  232.99    5.51
  -7  -1   4  767.45   21.64
  -7  -1   5  174.38    5.55
  -7  -1   6  505.79   19.59
  -7  -1   7  314.26   13.32
  -7  -1   8   83.15    9.59
  -7  -1   9  369.20   15.01
  -7  -1  10  109.33    8.17
  -7  -1  11   67.78   10.63
  -7  -1  12  107.46    7.79
  -7  -1  13   29.75   21.62
  -7  -1  14   13.54    5.19
  -7  -1  15  741.04   32.73
  -7  -1  16  340.35   28.82
  -7  -1  17 1535.14   76.51
  -7  -1  18   75.41   23.74
  -7  -1  19   51.14   11.83
  -7  -1  20  106.82   12.41
  -7  -1  21   27.33   10.68
  -7  -1  22   -4.06   15.78
  -7  -1  23   13.77   11.04
  -7  -1  24   -1.13    8.40
  -7  -1  25   22.98    9.64
  -7   0 -25    3.14    9.91
  -7   0 -23   -1.33   11.67
  -7   0 -21   20.99   10.88
  -7   0 -19   29.41    8.31
  -7   0 -17   96.83    6.79
  -7   0 -15  878.58   25.82
  -7   0 -13   -1.60    4.33
  -7   0 -11  432.33   14.99
  -7   0  -9   43.29    5.35
  -7   0  -7 6817.48  215.84
  -7   0  -5  503.08   19.55
  -7   0  -3   45.30    3.84
  -7   0  -1  315.87   11.22
  -7   0   1  117.00    4.22
  -7   0   3   79.63    2.96
  -7   0   5   32.77    3.43
  -7   0   7   35.93    5.94
  -7   0   9  105.29   11.40
  -7   0  11   22.39    6.82
  -7   0  13   14.67    7.02
  -7   0  15   35.03   10.13
  -7   0  17  655.34  590.72
  -7   0  19   14.67    9.91
  -7   0  21   37.94    8.15
  -7   0  23   12.68   12.84
  -7   0  25    5.21   11.53
  -7   1 -25   31.58   13.16
  -7   1 -24    7.65    8.80
  -7   1 -23   82.34   11.17
  -7   1 -22   -1.78    8.08
  -7   1 -21   20.72    7.38
  -7   1 -20   34.15    5.44
  -7   1 -19   71.03    7.34
  -7   1 -18   26.25   11.08
  -7   1 -17  158.87   11.35
  -7   1 -16    9.66    6.55
  -7   1 -15  410.73   14.02
  -7   1 -14   12.46    4.36
  -7   1 -13   -0.90    3.81
  -7   1 -12   11.74    3.81
  -7   1 -11   22.82    3.16
  -7   1 -10   10.83    4.54
  -7   1  -9   83.15    5.21
  -7   1  -8  110.91    6.00
  -7   1  -7    8.58    5.64
  -7   1  -6  333.74   14.83
  -7   1  -5   27.02    5.15
  -7   1  -4  123.59    7.02
  -7   1  -3   14.22    3.63
  -7   1  -2  117.32    4.56
  -7   1  -1  222.11    7.15
  -7   1   0  298.49    7.79
  -7   1   1  232.52    6.41
  -7   1   2    7.47    2.46
  -7   1   3  238.05    6.50
  -7   1   4  742.69   23.74
  -7   1   5  184.44   30.20
  -7   1   6  462.19   18.08
  -7   1   7  302.12   13.05
  -7   1   8   92.45    7.81
  -7   1   9  344.24   15.05
  -7   1  10  120.28    9.23
  -7   1  11   53.54    9.23
  -7   1  12  121.92   10.95
  -7   1  13   26.41    9.41
  -7   1  14   21.69    8.13
  -7   1  15  763.29   34.87
  -7   1  16  323.38   22.68
  -7   1  17 1622.28   76.24
  -7   1  18   66.78   11.78
  -7   1  19   62.20   11.60
  -7   1  20  107.14   11.83
  -7   1  21   25.03    7.67
  -7   1  22   -5.85    8.80
  -7   1  23    9.66   18.69
  -7   1  24   -4.06   27.94
  -7   1  25   36.29   24.98
  -7   1  26    1.78   12.57
  -7   2 -23   76.44   14.96
  -7   2 -22   26.86   12.93
  -7   2 -21  164.60   14.26
  -7   2 -20   75.14   10.95
  -7   2 -19  211.93   15.30
  -7   2 -18  266.19   17.65
  -7   2 -17   52.43    6.95
  -7   2 -16   41.35   13.72
  -7   2 -15   21.83    4.92
  -7   2 -14   10.34    4.06
  -7   2 -13   32.77    4.81
  -7   2 -12   33.45    3.66
  -7   2 -11  234.82    8.28
  -7   2 -10  185.25    7.76
  -7   2  -9   46.72    4.92
  -7   2  -8  113.46    5.44
  -7   2  -7 5683.18  154.02
  -7   2  -6  276.08   11.49
  -7   2  -5  193.11    7.92
  -7   2  -4  136.62    5.62
  -7   2  -3    1.13    2.51
  -7   2  -2  850.32   19.27
  -7   2  -1   29.75    2.78
  -7   2   0  497.71   12.73
  -7   2   1  299.53   11.44
  -7   2   2   50.06    2.75
  -7   2   3  400.44   11.42
  -7   2   4  149.91    8.46
  -7   2   5   61.03    6.34
  -7   2   6   58.93    6.46
  -7   2   7  185.66    9.82
  -7   2   8   19.64    7.45
  -7   2   9  398.63   19.21
  -7   2  10  110.59    8.22
  -7   2  11  314.26   15.44
  -7   2  12  203.26   17.13
  -7   2  13    9.66    6.73
  -7   2  14   74.37    7.76
  -7   2  15  110.28   13.25
  -7   2  16  106.21   11.76
  -7   2  17  736.95   39.16
  -7   2  18   11.33    9.50
  -7   2  19   -7.90    7.00
  -7   2  20   54.84   42.27
  -7   2  21   31.39   10.77
  -7   2  22    2.48    9.48
  -7   2  23   27.33   12.41
  -7   2  24   14.90   12.89
  -7   2  25   18.71   12.62
  -7   3 -24    5.64   13.54
  -7   3 -23   86.19   14.78
  -7   3 -22    7.47   11.76
  -7   3 -21   30.90   14.04
  -7   3 -20   13.54    7.85
  -7   3 -19   87.32   20.22
  -7   3 -18   30.24   10.90
  -7   3 -17   -7.90    7.67
  -7   3 -16   85.36   12.77
  -7   3 -15   56.88   12.01
  -7   3 -14   13.99    8.33
  -7   3 -13   32.41    6.16
  -7   3 -12   56.42    4.06
  -7   3 -11   30.24    2.64
  -7   3 -10   71.79    3.32
  -7   3  -9   66.31    3.18
  -7   3  -8   46.31    4.69
  -7   3  -7    6.30    3.16
  -7   3  -6   34.33    3.00
  -7   3  -5  145.89    6.52
  -7   3  -4  188.96    7.85
  -7   3  -3    1.13    2.05
  -7   3  -2   -2.48    2.28
  -7   3  -1  896.48   21.60
  -7   3   0  350.40   10.13
  -7   3   1  793.47   18.62
  -7   3   2  521.46   18.53
  -7   3   3 2150.82   65.50
  -7   3   4  569.87   27.96
  -7   3   5  409.51   27.35
  -7   3   6  219.88   13.36
  -7   3   7   57.78    6.16
  -7   3   8   14.44    6.27
  -7   3   9   97.73   11.58
  -7   3  10   21.26    5.82
  -7   3  11   38.68    6.36
  -7   3  12    8.15    8.15
  -7   3  13   86.76    9.23
  -7   3  14  143.00   13.29
  -7   3  15    3.36    6.73
  -7   3  16  255.51   19.21
  -7   3  17  167.69   22.95
  -7   3  18   10.13    8.33
  -7   3  19   10.13   12.14
  -7   3  20   39.99    8.55
  -7   3  21   92.15   10.68
  -7   3  22   14.44   12.46
  -7   3  23   -4.29   14.69
  -7   3  24  -16.45   13.29
  -7   4 -22   82.06   11.71
  -7   4 -21   55.97   13.72
  -7   4 -20   -2.48   12.66
  -7   4 -19   54.64    9.10
  -7   4 -18   78.02   15.12
  -7   4 -17   25.48    9.71
  -7   4 -16   42.91    7.47
  -7   4 -15    0.00    2.26
  -7   4 -14  191.03   12.86
  -7   4 -13  141.22   10.72
  -7   4 -12   98.31    9.84
  -7   4 -11   40.58   10.34
  -7   4 -10  132.78    7.27
  -7   4  -9   11.94    1.56
  -7   4  -8   17.83    2.53
  -7   4  -7  703.91   19.93
  -7   4  -6    5.85    2.91
  -7   4  -5    2.48    2.46
  -7   4  -4   44.10    4.58
  -7   4  -3   66.06    3.41
  -7   4  -2   96.24    4.13
  -7   4  -1  191.03    6.64
  -7   4   0  387.32   13.00
  -7   4   1   21.26    3.88
  -7   4   2   55.75    4.27
  -7   4   3   13.54    4.76
  -7   4   4    6.30    4.06
  -7   4   5   -3.36    3.79
  -7   4   6    2.93    8.80
  -7   4   7   11.74    4.54
  -7   4   8   55.52    9.84
  -7   4   9  188.55   13.20
  -7   4  10   14.22    5.44
  -7   4  11   42.52    9.41
  -7   4  12   36.29    7.24
  -7   4  13    6.52    6.30
  -7   4  14   39.43    8.87
  -7   4  15    7.65   12.12
  -7   4  16   70.78   16.68
  -7   4  17   64.84   12.10
  -7   4  18   35.93   10.81
  -7   4  19    1.33    9.21
  -7   4  20   30.90   11.01
  -7   4  22   52.23   55.14
  -7   4  23    1.33   15.26
  -7   5 -21   77.23   13.99
  -7   5 -20   10.83   12.84
  -7   5 -19   16.70    9.71
  -7   5 -18   44.49   11.83
  -7   5 -17   36.11   18.96
  -7   5 -16   85.65   24.47
  -7   5 -15   65.57    6.82
  -7   5 -14   15.62    8.78
  -7   5 -13   -2.48    5.21
  -7   5 -12    2.93    8.33
  -7   5 -11    0.23    4.78
  -7   5 -10   50.71    6.64
  -7   5  -9   50.92    7.72
  -7   5  -8  199.86   11.47
  -7   5  -7   21.83    6.32
  -7   5  -6  160.77   14.11
  -7   5  -5   20.31    6.36
  -7   5  -4  121.61    5.30
  -7   5  -3   59.86    7.90
  -7   5  -2   11.74    4.54
  -7   5  -1    7.47    3.36
  -7   5   0    4.06    2.48
  -7   5   1   35.93    4.15
  -7   5   2  199.00   10.61
  -7   5   3  373.26   15.66
  -7   5   4  278.58   14.04
  -7   5   5   30.74    6.16
  -7   5   6   18.33    6.30
  -7   5   7   12.89   10.90
  -7   5   8   40.76    8.24
  -7   5   9   16.21    8.35
  -7   5  10   11.94    6.55
  -7   5  11   14.44    6.27
  -7   5  12   56.88   16.54
  -7   5  13  173.59   11.87
  -7   5  14   43.11    9.48
  -7   5  15   34.69   11.33
  -7   5  16   65.09   11.65
  -7   5  17   41.53   13.56
  -7   5  18   29.09   11.67
  -7   5  19   19.91    8.31
  -7   5  20   26.41    8.80
  -7   5  21   39.07    9.95
  -7   6 -17    8.76   11.74
  -7   6 -16   23.99    9.28
  -7   6 -15   53.74   82.83
  -7   6 -14   72.04   10.97
  -7   6 -13  118.31   14.06
  -7   6 -12   17.56    9.43
  -7   6 -11    6.75    6.09
  -7   6 -10    8.76    4.72
  -7   6  -9   11.33    8.40
  -7   6  -8    6.30    5.64
  -7   6  -7  356.04   21.55
  -7   6  -6   37.01    6.41
  -7   6  -5    9.48    4.06
  -7   6  -4    2.48    6.30
  -7   6  -3   68.03    7.92
  -7   6  -2  139.80   10.29
  -7   6  -1  659.20   25.46
  -7   6   0   25.93    6.12
  -7   6   1    3.36    4.29
  -7   6   2  127.29    7.11
  -7   6   3  100.41   10.54
  -7   6   4   19.37    6.48
  -7   6   5   81.52    8.69
  -7   6   6   28.44    7.38
  -7   6   7   29.09    6.16
  -7   6   8  157.36   13.56
  -7   6   9  196.90   11.80
  -7   6  10   23.99    8.53
  -7   6  12   46.31    7.97
  -7   6  13   12.46    6.79
  -7   6  14   27.02   12.35
  -7   6  15   43.70    8.53
  -7   6  16   58.25   13.29
  -7   6  17   65.81   11.22
  -7   6  18   18.33   11.58
  -7   6  19   -8.76   11.28
  -7   7 -15   46.11   23.27
  -7   7 -14   26.70    9.48
  -7   7 -13    1.33   10.31
  -7   7 -12   32.93   12.41
  -7   7 -11   13.77    6.79
  -7   7 -10   35.39    9.66
  -7   7  -9   45.91   16.09
  -7   7  -8   49.23   15.39
  -7   7  -7   31.39    7.40
  -7   7  -6    8.76    7.20
  -7   7  -5    9.03    4.24
  -7   7  -4  137.32   10.92
  -7   7  -3   34.51    7.94
  -7   7  -2    1.33    6.50
  -7   7  -1   20.72   10.54
  -7   7   0   15.84    9.21
  -7   7   1    9.21    7.02
  -7   7   2   94.48    9.05
  -7   7   3   20.31    8.13
  -7   7   4  135.22   18.51
  -7   7   5   62.92   25.50
  -7   7   6   32.41    5.82
  -7   7   7    7.47    6.07
  -7   7   9    7.65    8.31
  -7   7  10   11.33    7.88
  -7   7  11    4.94    7.02
  -7   7  12   27.96   11.44
  -7   7  13   -3.14   10.81
  -7   7  14   15.98   14.40
  -7   7  15   37.01   15.17
  -7   7  16   39.99   26.41
  -7   8 -10    8.76    9.68
  -7   8  -9   11.74    8.13
  -7   8  -8   11.01    7.18
  -7   8  -7    6.52    7.45
  -7   8  -6   24.42    7.72
  -7   8  -5   31.39    9.10
  -7   8  -4    7.22    7.43
  -7   8  -3    8.76    7.65
  -7   8  -2   49.65    8.03
  -7   8  -1  151.40   14.42
  -7   8   0    6.75    7.88
  -7   8   1   25.93    8.87
  -7   8   2    3.81    8.98
  -7   8   3   -4.94    9.68
  -7   8   4   75.14   25.77
  -7   8   7   19.37   14.94
  -7   8   8   49.43   10.36
  -7   8   9   12.14    8.06
  -7   8  10    9.48   10.63
  -7   8  11   10.13    7.47
  -6  -8 -11    1.78    4.49
  -6  -8 -10    2.93    5.19
  -6  -8  -9   15.98    8.17
  -6  -8  -8   -1.13    5.89
  -6  -8  -7   13.54   19.91
  -6  -8  -6   30.40    8.62
  -6  -8  -5  -15.14   19.41
  -6  -8  -4    9.21    8.76
  -6  -8  -3   20.31   11.51
  -6  -8  -2   36.29   24.98
  -6  -8  -1   36.47    9.25
  -6  -8   0   33.45   14.94
  -6  -8   1  113.46   12.80
  -6  -7 -16 -174.38   90.08
  -6  -7 -15    3.14    8.58
  -6  -7 -14   -7.22    8.80
  -6  -7 -13   44.28   16.00
  -6  -7 -12    4.49    8.98
  -6  -7 -11   20.04   15.32
  -6  -7 -10    9.21    6.12
  -6  -7  -9   34.51    9.89
  -6  -7  -8   79.36   13.11
  -6  -7  -7   19.91    6.57
  -6  -7  -6   -0.90    9.21
  -6  -7  -5    9.48    7.49
  -6  -7  -4  107.46   12.14
  -6  -7  -3   69.76   11.28
  -6  -7  -2   34.69    9.21
  -6  -7  -1   44.89    9.46
  -6  -7   0    7.00    9.46
  -6  -7   1   96.24   16.21
  -6  -7   2    5.64    6.77
  -6  -7   3    0.23    4.11
  -6  -7   4   25.77    7.63
  -6  -7   5    5.64    6.57
  -6  -6 -19  -11.01   18.26
  -6  -6 -18   16.95   27.58
  -6  -6 -17  128.99   17.74
  -6  -6 -16    9.66    9.25
  -6  -6 -15   23.99   11.92
  -6  -6 -14  125.26   19.84
  -6  -6 -13   38.68    9.34
  -6  -6 -12   47.55    9.12
  -6  -6 -11    7.00   13.99
  -6  -6 -10  -10.13    6.32
  -6  -6  -9   54.19   34.94
  -6  -6  -8  160.77   19.82
  -6  -6  -7   24.58    7.45
  -6  -6  -6   48.16    7.09
  -6  -6  -5    4.06    8.78
  -6  -6  -4    5.85    8.58
  -6  -6  -3   70.78    8.60
  -6  -6  -2  653.81   29.21
  -6  -6  -1  389.69   21.35
  -6  -6   0   61.25    5.17
  -6  -6   1    7.47    4.51
  -6  -6   2  168.87   10.54
  -6  -6   3    3.36    6.05
  -6  -6   4    3.59    3.14
  -6  -6   5   43.29    6.14
  -6  -6   6  111.86   15.89
  -6  -6   7  150.29   16.21
  -6  -6   9    3.59    4.27
  -6  -5 -21   83.71   16.77
  -6  -5 -20   35.21   15.87
  -6  -5 -19  -21.26   10.68
  -6  -5 -18  116.03   52.75
  -6  -5 -17   72.56   14.08
  -6  -5 -16  126.28   11.83
  -6  -5 -15   61.98    9.93
  -6  -5 -14    9.66   11.49
  -6  -5 -13   64.37   14.94
  -6  -5 -12   45.09   12.10
  -6  -5 -11  204.12   14.17
  -6  -5 -10   25.32    7.40
  -6  -5  -9  217.21   15.51
  -6  -5  -8  107.46    9.66
  -6  -5  -7   93.89    6.12
  -6  -5  -6   13.11    5.44
  -6  -5  -5   17.20    2.98
  -6  -5  -4   54.64    5.10
  -6  -5  -3    4.94    2.66
  -6  -5  -2    5.42    1.60
  -6  -5  -1   91.30    8.03
  -6  -5   0   75.65    7.06
  -6  -5   1  189.38   15.71
  -6  -5   2   44.89    8.06
  -6  -5   3  179.18    8.85
  -6  -5   4   72.31    5.62
  -6  -5   5   24.87    3.90
  -6  -5   6    5.21    2.75
  -6  -5   7   61.50    4.24
  -6  -5   8   20.31    3.39
  -6  -5   9   39.25    4.13
  -6  -5  10  258.40   12.07
  -6  -5  11  106.21    7.74
  -6  -5  12    6.52    4.29
  -6  -4 -23   37.38   16.16
  -6  -4 -22  -12.89    9.28
  -6  -4 -21  117.00   19.50
  -6  -4 -20   37.94   11.10
  -6  -4 -19   14.22    7.02
  -6  -4 -18   -6.75    5.87
  -6  -4 -17   -5.21    5.01
  -6  -4 -16   97.41    8.31
  -6  -4 -15    2.73    4.31
  -6  -4 -14   72.31    6.14
  -6  -4 -13   -2.73    6.55
  -6  -4 -12   35.03    4.09
  -6  -4 -11    0.90    3.39
  -6  -4 -10    9.21    4.92
  -6  -4  -9   13.99    3.59
  -6  -4  -8  289.21   12.26
  -6  -4  -7   32.41    3.59
  -6  -4  -6   41.53    4.06
  -6  -4  -5   57.55    4.56
  -6  -4  -4   45.09    3.63
  -6  -4  -3  218.97    7.56
  -6  -4  -2  689.62   21.31
  -6  -4  -1  840.71   20.90
  -6  -4   0   43.49    1.99
  -6  -4   1  415.60   11.04
  -6  -4   2   73.58    2.57
  -6  -4   3    7.00    0.88
  -6  -4   4   10.13    1.15
  -6  -4   5  186.50    6.57
  -6  -4   6  216.31    7.06
  -6  -4   7   36.29    2.71
  -6  -4   9   69.02    4.49
  -6  -4  10   28.93    3.88
  -6  -4  11   19.91    5.37
  -6  -4  12   23.41    5.82
  -6  -3 -24  160.77   19.05
  -6  -3 -23    0.90    8.98
  -6  -3 -22   60.80    9.61
  -6  -3 -21   -2.93    7.00
  -6  -3 -20    4.74    6.55
  -6  -3 -19   20.31    5.15
  -6  -3 -18  104.05    7.36
  -6  -3 -17    2.93    4.74
  -6  -3 -16  217.21   19.93
  -6  -3 -15  117.00    7.81
  -6  -3 -14   45.09    7.88
  -6  -3 -13   10.63    5.39
  -6  -3 -12  191.44    9.98
  -6  -3 -11  572.04   18.69
  -6  -3 -10  128.99    7.18
  -6  -3  -9   81.79    8.42
  -6  -3  -8   84.25    5.51
  -6  -3  -7   70.53    5.30
  -6  -3  -6  208.86   10.00
  -6  -3  -5   -0.68    2.73
  -6  -3  -4  702.31   23.09
  -6  -3  -3    6.52    1.99
  -6  -3  -2  211.93    6.57
  -6  -3  -1  369.20   10.38
  -6  -3   0    0.90    1.56
  -6  -3   1  305.80   10.52
  -6  -3   2   56.42    2.71
  -6  -3   3   24.42    2.08
  -6  -3   4  537.35   27.17
  -6  -3   5    5.21    2.05
  -6  -3   6   63.40    3.34
  -6  -3   7   12.89    3.88
  -6  -3   8    6.52    2.69
  -6  -3   9   13.99    2.91
  -6  -3  10  888.42   62.70
  -6  -3  11   33.81    6.12
  -6  -3  12  179.97   10.47
  -6  -3  13   14.44    5.60
  -6  -3  14  410.12   26.16
  -6  -3  15  555.63   41.78
  -6  -3  16  277.59   20.52
  -6  -3  17  107.77   16.23
  -6  -2 -25   -4.29   10.83
  -6  -2 -24    7.65   10.13
  -6  -2 -23   17.56    7.43
  -6  -2 -22   12.68    6.75
  -6  -2 -21   13.77    7.92
  -6  -2 -20   22.12    5.64
  -6  -2 -19    7.22    5.42
  -6  -2 -18   30.06    9.73
  -6  -2 -17   27.96    7.15
  -6  -2 -16   31.39    6.07
  -6  -2 -15  234.37   11.49
  -6  -2 -14   89.02    5.67
  -6  -2 -13  119.94    7.90
  -6  -2 -12  200.69   10.22
  -6  -2 -11   90.73    5.73
  -6  -2 -10   11.01    4.69
  -6  -2  -9    3.59    4.49
  -6  -2  -8 1034.58   31.89
  -6  -2  -7  143.36    5.39
  -6  -2  -6  265.69    9.30
  -6  -2  -5  489.05   13.95
  -6  -2  -4  169.27    5.46
  -6  -2  -3  366.33    9.77
  -6  -2  -2  154.36    5.98
  -6  -2  -1   38.87    2.26
  -6  -2   0  295.37    8.78
  -6  -2   1  547.14   16.86
  -6  -2   2 2127.19   90.08
  -6  -2   3  501.08   19.50
  -6  -2   4   11.01    2.30
  -6  -2   5  322.30    9.71
  -6  -2   6  627.20   16.54
  -6  -2   7   56.65    5.19
  -6  -2   8  966.17   28.96
  -6  -2   9  244.12    7.99
  -6  -2  10 1539.83  115.56
  -6  -2  11  243.17   12.66
  -6  -2  12    7.00   12.64
  -6  -2  13   20.31    7.85
  -6  -2  14   32.25    7.18
  -6  -2  15    7.90   12.66
  -6  -2  16   -2.03    7.24
  -6  -2  17   65.57    9.25
  -6  -2  18   16.21   10.40
  -6  -2  19   30.06   12.84
  -6  -2  20   11.01    9.48
  -6  -2  21  345.91   19.00
  -6  -2  22    0.68    7.02
  -6  -1 -25    6.52   10.13
  -6  -1 -24  223.89   16.18
  -6  -1 -23    2.93    8.13
  -6  -1 -22  392.06   21.42
  -6  -1 -21    5.42    6.57
  -6  -1 -20   24.42    9.50
  -6  -1 -19   23.99    5.60
  -6  -1 -18   26.86    6.70
  -6  -1 -17   17.56   10.20
  -6  -1 -16  440.47   15.78
  -6  -1 -15   41.35    4.45
  -6  -1 -14  208.86   10.86
  -6  -1 -13   -1.60    3.86
  -6  -1 -12   72.56    6.91
  -6  -1 -11  132.08    7.61
  -6  -1 -10   -7.00    3.57
  -6  -1  -9   28.28    6.39
  -6  -1  -8  554.20   18.39
  -6  -1  -7  415.60   14.08
  -6  -1  -6  290.75   10.25
  -6  -1  -5   40.38    4.58
  -6  -1  -4  375.00    8.73
  -6  -1  -3   33.45    2.44
  -6  -1  -2  689.62   22.89
  -6  -1  -1 1612.60   60.33
  -6  -1   0   84.82    4.42
  -6  -1   1  238.05    8.80
  -6  -1   2  618.19   20.18
  -6  -1   3   47.13    3.50
  -6  -1   4  293.32    9.25
  -6  -1   5  179.18    6.03
  -6  -1   6 1034.58   30.92
  -6  -1   7   20.58    3.41
  -6  -1   8    9.48    2.21
  -6  -1   9    2.93    3.14
  -6  -1  10  587.95   24.04
  -6  -1  11   66.31    7.34
  -6  -1  12   92.15   11.83
  -6  -1  13    7.90    7.67
  -6  -1  14  287.18   32.07
  -6  -1  15  304.22   20.97
  -6  -1  16  297.97   16.07
  -6  -1  17  131.40   12.05
  -6  -1  18   55.07   13.38
  -6  -1  19   28.28   10.22
  -6  -1  20    7.00    5.64
  -6  -1  21    7.00    7.70
  -6  -1  22   80.44   12.39
  -6  -1  23   38.68   23.54
  -6  -1  24   14.90    8.82
  -6  -1  25   17.31    8.76
  -6  -1  26  149.19   13.95
  -6   0 -26  -20.72   14.22
  -6   0 -24    6.52    9.91
  -6   0 -22   21.69    7.27
  -6   0 -20   10.83    5.44
  -6   0 -18    9.21    6.12
  -6   0 -16  130.36   10.29
  -6   0 -14   75.93    5.76
  -6   0 -12  791.78   22.82
  -6   0 -10  241.32    7.47
  -6   0  -8   80.44    4.58
  -6   0  -6    8.58    3.16
  -6   0  -4 1770.75   46.79
  -6   0  -2   79.11    4.54
  -6   0   0  572.73   15.82
  -6   0   2 2852.39   67.39
  -6   0   4  195.21    5.87
  -6   0   6  161.53    5.73
  -6   0   8 1127.41   51.46
  -6   0  10 1740.53   62.68
  -6   0  12    7.00    4.92
  -6   0  14  122.92   10.00
  -6   0  16   -5.64    6.77
  -6   0  18   70.01    9.30
  -6   0  20  112.49   16.88
  -6   0  22   -2.73    6.55
  -6   0  24   40.76   59.09
  -6   0  26   -6.07   11.26
  -6   1 -25    4.29    9.98
  -6   1 -24  259.37   21.28
  -6   1 -23   41.14   23.70
  -6   1 -22  590.14  191.24
  -6   1 -21   32.07   19.57
  -6   1 -20   61.03   11.74
  -6   1 -19   34.33   10.38
  -6   1 -18   48.80   17.85
  -6   1 -17   33.45    9.73
  -6   1 -16  406.48   13.32
  -6   1 -15   38.68    5.60
  -6   1 -14  186.50    8.62
  -6   1 -13   -3.36    3.14
  -6   1 -12   69.52    4.02
  -6   1 -11  119.94    8.22
  -6   1 -10   -1.78    2.69
  -6   1  -9   19.91    3.23
  -6   1  -8  565.58   16.43
  -6   1  -7  388.50   14.22
  -6   1  -6  280.59    8.55
  -6   1  -5   54.64    5.33
  -6   1  -4  380.26   13.47
  -6   1  -3   31.73    3.54
  -6   1  -2  700.71   15.91
  -6   1  -1 1644.13   38.98
  -6   1   0   85.92    3.34
  -6   1   1  227.50    7.70
  -6   1   2  599.66   13.97
  -6   1   3   42.70    2.96
  -6   1   4  276.57    8.49
  -6   1   5  183.63    6.12
  -6   1   6  996.28   30.36
  -6   1   7   22.55    4.56
  -6   1   8   11.01    5.89
  -6   1   9   -2.48    6.55
  -6   1  10  538.04   22.30
  -6   1  11   63.15    5.48
  -6   1  12  100.41   10.25
  -6   1  13    3.59    6.32
  -6   1  14  287.68   20.90
  -6   1  15  284.13   60.78
  -6   1  16  310.54   17.47
  -6   1  17  135.56   10.50
  -6   1  18   50.49    7.27
  -6   1  19   41.93    9.73
  -6   1  20   12.89    8.10
  -6   1  21    6.75    8.13
  -6   1  22   87.59   10.97
  -6   1  23    5.21    7.67
  -6   1  24   26.41   16.68
  -6   1  25    0.45   15.91
  -6   1  26  124.92   22.16
  -6   2 -25   34.69   15.57
  -6   2 -24    5.21   12.01
  -6   2 -23    7.90   10.13
  -6   2 -22   32.25   12.46
  -6   2 -21   33.45   18.78
  -6   2 -20    1.33   10.31
  -6   2 -19   18.98   17.40
  -6   2 -18   10.13    7.00
  -6   2 -17   32.41   11.98
  -6   2 -16   31.58    4.06
  -6   2 -15  224.35    9.91
  -6   2 -14   89.58    5.69
  -6   2 -13  112.49    4.78
  -6   2 -12  226.15    9.48
  -6   2 -11  101.32    5.15
  -6   2 -10    7.47    6.82
  -6   2  -9   10.13    3.63
  -6   2  -8  972.72   31.87
  -6   2  -7  138.02    9.52
  -6   2  -6  270.61    8.89
  -6   2  -5  515.29   16.36
  -6   2  -4  182.00    5.26
  -6   2  -3  365.75   10.34
  -6   2  -2  157.36    5.28
  -6   2  -1   43.11    2.96
  -6   2   0  319.61    9.66
  -6   2   1  550.66   18.33
  -6   2   2 2098.19   50.92
  -6   2   3  507.15   15.57
  -6   2   4    9.66    2.23
  -6   2   5  308.44   11.60
  -6   2   6  607.79   24.44
  -6   2   7   53.96    5.30
  -6   2   8  968.02   33.65
  -6   2   9  255.99   12.98
  -6   2  10 1469.91   51.84
  -6   2  11  240.37   14.90
  -6   2  12    9.48    4.72
  -6   2  13   30.06   13.52
  -6   2  14   37.38    7.90
  -6   2  15  -10.83    6.52
  -6   2  16    1.78    6.30
  -6   2  17   57.55   11.85
  -6   2  18    6.52   11.06
  -6   2  19   32.25   16.72
  -6   2  20  -11.53   11.01
  -6   2  21  349.27   23.02
  -6   2  22    2.26    8.80
  -6   2  23   20.58   12.68
  -6   2  24   -5.64   19.41
  -6   2  25    6.30    9.66
  -6   2  26   30.74   12.66
  -6   3 -24  171.62   15.35
  -6   3 -23   15.84   23.34
  -6   3 -22   67.28   14.04
  -6   3 -21   -4.74   15.57
  -6   3 -20   12.14   10.59
  -6   3 -19   13.11    6.52
  -6   3 -18  122.60   16.97
  -6   3 -17   20.72   20.52
  -6   3 -16  210.62   13.52
  -6   3 -15  114.09   10.90
  -6   3 -14   41.53   12.59
  -6   3 -13    5.42    2.53
  -6   3 -12  185.25    6.14
  -6   3 -11  548.56   16.88
  -6   3 -10  128.31    4.42
  -6   3  -9   83.98    3.02
  -6   3  -8   88.72    4.24
  -6   3  -7   63.15    3.11
  -6   3  -6  208.00    6.50
  -6   3  -5   -1.60    1.83
  -6   3  -4  689.62   26.84
  -6   3  -3    3.36    2.71
  -6   3  -2  211.05    7.43
  -6   3  -1  360.04    9.12
  -6   3   0    4.29    1.81
  -6   3   1  309.48    7.92
  -6   3   2   61.98    3.54
  -6   3   3   23.70    3.36
  -6   3   4  553.51   16.25
  -6   3   5   18.46    4.90
  -6   3   6   77.78   13.52
  -6   3   7   12.14    9.21
  -6   3   8    5.85    6.75
  -6   3   9   14.67    6.09
  -6   3  10  883.05   32.14
  -6   3  11   42.70    9.61
  -6   3  12  175.19   11.94
  -6   3  13    2.93    5.67
  -6   3  14  413.77   23.83
  -6   3  15  500.40   25.55
  -6   3  16  292.28   16.95
  -6   3  17   88.45    8.49
  -6   3  18  148.80   12.46
  -6   3  19   11.01   12.17
  -6   3  20   33.81   13.45
  -6   3  21   11.33    6.77
  -6   3  22   11.53    8.78
  -6   3  23    0.68   12.68
  -6   3  24  -25.32   11.80
  -6   3  25    3.14   12.84
  -6   4 -23   47.13   10.31
  -6   4 -22    6.52    9.43
  -6   4 -21  113.46   13.45
  -6   4 -20   53.54   16.93
  -6   4 -19    3.14    9.43
  -6   4 -18    9.95    6.55
  -6   4 -17   51.14   28.57
  -6   4 -16   92.45    9.82
  -6   4 -15    6.30    7.70
  -6   4 -14   61.25    6.59
  -6   4 -13    1.78    4.94
  -6   4 -12   47.55   10.77
  -6   4 -11   -2.48    4.97
  -6   4 -10   11.53    6.12
  -6   4  -9    9.66    1.13
  -6   4  -8  283.61   13.16
  -6   4  -7   27.81    2.21
  -6   4  -6   42.91    3.54
  -6   4  -5   39.81    2.66
  -6   4  -4   48.59    3.14
  -6   4  -3  224.80    8.10
  -6   4  -2  679.40   18.01
  -6   4  -1  820.78   18.94
  -6   4   0   38.30    3.16
  -6   4   1  399.85   11.42
  -6   4   2   68.27    4.97
  -6   4   3    9.03    3.61
  -6   4   4    8.33    3.63
  -6   4   5  186.90    9.86
  -6   4   6  237.12   15.73
  -6   4   7   48.59    8.58
  -6   4   8  280.09   15.60
  -6   4   9   70.53    8.33
  -6   4  10   20.04    7.67
  -6   4  11   10.34    6.09
  -6   4  12   19.37    8.73
  -6   4  13   12.46    9.23
  -6   4  14  107.77    8.42
  -6   4  15    3.81    6.09
  -6   4  16   58.93   10.61
  -6   4  17   61.50    8.96
  -6   4  18    7.90    8.10
  -6   4  19   57.78   18.96
  -6   4  20   58.93   24.44
  -6   4  21    0.45    8.62
  -6   4  22   11.74    8.33
  -6   4  23   45.50   17.42
  -6   4  24   26.25   17.85
  -6   5 -21   68.03   26.77
  -6   5 -20    5.21   11.53
  -6   5 -19    9.48    9.43
  -6   5 -18   31.39    7.74
  -6   5 -17   47.35    9.30
  -6   5 -16  106.82   15.53
  -6   5 -15   61.25    7.99
  -6   5 -14    3.59    8.76
  -6   5 -13   71.28   11.42
  -6   5 -12   52.23    8.26
  -6   5 -11  205.84   11.65
  -6   5 -10   24.13    6.93
  -6   5  -9  168.87   11.33
  -6   5  -8   81.79    7.34
  -6   5  -7  101.32    8.46
  -6   5  -6   -2.03    3.86
  -6   5  -5   22.98    2.44
  -6   5  -4   54.19    2.87
  -6   5  -3    4.29    2.05
  -6   5  -2    3.14    2.23
  -6   5  -1   76.99    6.59
  -6   5   0   62.92    5.48
  -6   5   1  193.11    7.92
  -6   5   2   48.39    5.44
  -6   5   3  180.79    8.49
  -6   5   4   85.65    5.55
  -6   5   5   21.26    6.36
  -6   5   6   13.11    5.44
  -6   5   7   70.01    7.54
  -6   5   8   44.89   10.47
  -6   5   9   51.35   10.11
  -6   5  10  268.15   17.22
  -6   5  11   92.45    9.82
  -6   5  12    4.49    6.05
  -6   5  13   66.78    8.35
  -6   5  14   56.65   11.53
  -6   5  15  221.21   19.21
  -6   5  16   -9.48    8.15
  -6   5  17  136.25   21.40
  -6   5  18   46.72   16.84
  -6   5  19   15.37   12.26
  -6   5  20   24.87   15.44
  -6   5  21   14.22    8.37
  -6   5  22   -7.47    7.47
  -6   6 -19   20.72    8.08
  -6   6 -18   10.13   10.34
  -6   6 -17  145.17   23.54
  -6   6 -16   13.54   16.70
  -6   6 -15   39.99    7.40
  -6   6 -14  157.36   13.95
  -6   6 -13   78.02    8.76
  -6   6 -12  106.82   22.66
  -6   6 -11    8.58    6.07
  -6   6 -10   -3.59    7.63
  -6   6  -9   32.07    6.12
  -6   6  -8  140.50   13.18
  -6   6  -7   34.15   17.20
  -6   6  -6   44.69    4.42
  -6   6  -5    8.33    7.02
  -6   6  -4   13.54    8.85
  -6   6  -3   61.73    9.21
  -6   6  -2  639.29   18.98
  -6   6  -1  362.88   16.02
  -6   6   0   72.31   18.91
  -6   6   1   49.02   19.34
  -6   6   2  168.10   25.32
  -6   6   3    3.81    4.29
  -6   6   4    7.90    7.00
  -6   6   5   49.43    8.03
  -6   6   6   81.79    7.34
  -6   6   7  122.92   10.34
  -6   6   8  236.67   12.48
  -6   6   9   -6.30    8.37
  -6   6  10   21.42    6.55
  -6   6  11    4.74    7.00
  -6   6  12   13.99    6.75
  -6   6  13   27.49   11.04
  -6   6  14   46.92   10.09
  -6   6  15   56.88   13.59
  -6   6  16   14.22   13.36
  -6   6  17   29.09   17.83
  -6   6  18 1344.83  416.51
  -6   6  19   98.61   14.02
  -6   6  20   57.10   12.26
  -6   7 -16   22.98    7.06
  -6   7 -15   20.31   11.10
  -6   7 -14   14.67   10.13
  -6   7 -13   97.41   13.95
  -6   7 -12  112.80   55.21
  -6   7 -11   46.72    8.62
  -6   7 -10   15.14    7.02
  -6   7  -9   48.16    8.96
  -6   7  -8   69.27    8.01
  -6   7  -7  -15.14    6.77
  -6   7  -6    7.00    5.39
  -6   7  -5   10.83    5.82
  -6   7  -4  103.44   10.99
  -6   7  -3   78.02    9.55
  -6   7  -2   49.23    6.55
  -6   7  -1   53.31    6.36
  -6   7   0   18.46   10.59
  -6   7   1   70.01   10.56
  -6   7   2    2.73    9.98
  -6   7   3   -0.45   10.45
  -6   7   4   15.98    7.92
  -6   7   5    6.75    4.99
  -6   7   6   51.35   30.36
  -6   7   7   20.99   19.41
  -6   7   8    1.33    5.60
  -6   7  12   57.78   26.72
  -6   7  13  161.15   16.41
  -6   7  14   63.65   11.51
  -6   7  15   13.54   15.37
  -6   7  16   47.55   15.96
  -6   8 -11   11.33   10.40
  -6   8 -10   12.89    6.36
  -6   8  -9   53.96    8.82
  -6   8  -8    8.15    7.47
  -6   8  -7   -3.36    4.74
  -6   8  -6   31.06    8.71
  -6   8  -5    8.76    8.53
  -6   8  -4    9.66    8.31
  -6   8  -3   11.33    9.30
  -6   8  -2   38.12    9.10
  -6   8  -1   20.72    7.65
  -6   8   0    6.30    8.15
  -6   8   1   68.52    9.71
  -6   8   2   28.93    9.05
  -6   8   3    4.74    6.82
  -6   8   4   -3.81    7.63
  -6   8   5    4.49    5.42
  -6   8   6   53.08   27.81
  -6   8   7   16.95   15.57
  -6   8   8   73.08   11.04
  -6   8   9   58.93   17.99
  -6   8  10    5.85   11.26
  -6   8  11  -16.45   10.36
  -6   8  12   83.15   14.81
  -5  -8 -12   -1.13    4.29
  -5  -8 -11  -12.46   11.98
  -5  -8 -10   -6.52    4.99
  -5  -8  -9   12.46    9.01
  -5  -8  -8    0.68    3.86
  -5  -8  -7   19.37   11.89
  -5  -8  -6   34.33   21.49
  -5  -8  -5    1.78    7.88
  -5  -8  -4   72.04   19.39
  -5  -8  -3  238.52   36.65
  -5  -8  -2  120.93   10.25
  -5  -8  -1   25.77   14.20
  -5  -8   0   15.84    9.68
  -5  -8   1  110.91   22.46
  -5  -7 -16   37.76   16.07
  -5  -7 -15   69.02   40.69
  -5  -7 -14   97.41   18.39
  -5  -7 -13   -5.64   13.05
  -5  -7 -12   -5.42   13.29
  -5  -7 -11    4.29   11.96
  -5  -7 -10   10.13    9.48
  -5  -7  -9   23.70   10.09
  -5  -7  -8    4.06    7.02
  -5  -7  -7   13.11   10.45
  -5  -7  -6   -0.90    5.17
  -5  -7  -5   11.94   16.50
  -5  -7  -4  125.26   16.81
  -5  -7  -3   10.83    8.31
  -5  -7  -2  171.22   31.85
  -5  -7  -1    1.13    7.24
  -5  -7   0   37.76    4.99
  -5  -7   1   46.72    7.61
  -5  -7   2  215.88   13.25
  -5  -7   3   42.70    7.27
  -5  -7   4  231.14   12.32
  -5  -6 -19   84.25   14.90
  -5  -6 -18   -3.59   16.66
  -5  -6 -17    5.85    9.01
  -5  -6 -16   67.28   11.33
  -5  -6 -15   -8.33   12.14
  -5  -6 -14   22.12    8.62
  -5  -6 -13    4.49    6.05
  -5  -6 -12   20.58    7.63
  -5  -6 -11   11.74    7.00
  -5  -6 -10   55.07   36.34
  -5  -6  -9    0.45   12.28
  -5  -6  -8   -2.73    7.00
  -5  -6  -7   28.44    5.94
  -5  -6  -6   71.03    8.87
  -5  -6  -5   35.57    6.27
  -5  -6  -4   25.32   10.59
  -5  -6  -3  159.25   10.99
  -5  -6  -2  123.59    9.03
  -5  -6  -1  179.59   12.07
  -5  -6   0  102.83    8.53
  -5  -6   1    2.03    5.87
  -5  -6   2  106.82   11.17
  -5  -6   3   41.73    7.00
  -5  -6   4  117.66    9.77
  -5  -6   5   42.91    5.71
  -5  -6   6   11.01    3.59
  -5  -6   7    2.48    5.39
  -5  -6   8   37.76    8.13
  -5  -5 -22   29.57   68.14
  -5  -5 -21   73.08   29.54
  -5  -5 -20   15.98   10.09
  -5  -5 -19   22.39    9.52
  -5  -5 -18   56.88   17.00
  -5  -5 -17   19.25    8.58
  -5  -5 -16   18.98   11.26
  -5  -5 -15  464.76   29.79
  -5  -5 -14  208.00   19.50
  -5  -5 -13   16.70    7.85
  -5  -5 -12   15.14    6.07
  -5  -5 -11   -4.06    6.52
  -5  -5 -10   60.33   16.09
  -5  -5  -9   63.40    5.98
  -5  -5  -8   30.40    4.81
  -5  -5  -7    7.47    3.86
  -5  -5  -6   24.13    4.29
  -5  -5  -5    6.52    2.69
  -5  -5  -4   37.01    6.95
  -5  -5  -3   14.22    1.81
  -5  -5  -2   36.47    1.81
  -5  -5  -1   -1.78    3.57
  -5  -5   0  591.60   23.38
  -5  -5   1    6.30    4.29
  -5  -5   2  151.02    7.76
  -5  -5   3  116.35    7.79
  -5  -5   4    7.65    6.57
  -5  -5   5   91.86    7.79
  -5  -5   6    4.74    4.06
  -5  -5   7   18.46    9.03
  -5  -5   8  122.26    7.31
  -5  -5   9   18.98    4.06
  -5  -5  10   30.74    6.84
  -5  -5  11   64.84    4.83
  -5  -5  12  137.68    9.86
  -5  -4 -23   54.84   37.60
  -5  -4 -22   50.71   13.90
  -5  -4 -21   64.84   10.65
  -5  -4 -20   22.12    9.89
  -5  -4 -19   63.87    6.25
  -5  -4 -18   21.26    5.26
  -5  -4 -17   89.58    7.67
  -5  -4 -16    3.59    6.77
  -5  -4 -15   43.49    4.94
  -5  -4 -14   94.77    7.02
  -5  -4 -13   25.48    5.46
  -5  -4 -12  154.36   10.45
  -5  -4 -11  218.54   11.56
  -5  -4 -10   24.58    3.88
  -5  -4  -9   13.99    4.27
  -5  -4  -8   -1.78    3.14
  -5  -4  -7  133.48    5.55
  -5  -4  -6   34.33    3.16
  -5  -4  -5   85.92    4.18
  -5  -4  -4   33.81    2.98
  -5  -4  -3    4.49    1.58
  -5  -4  -2  139.08    3.90
  -5  -4  -1  181.60    5.67
  -5  -4   0    3.81    0.88
  -5  -4   1   82.34    7.09
  -5  -4   2    4.94    3.14
  -5  -4   3  111.54    7.61
  -5  -4   4  188.55    9.91
  -5  -4   5  104.97    3.70
  -5  -4   6  134.52    5.57
  -5  -4   7    2.73    1.15
  -5  -4   8   36.83    2.55
  -5  -4   9  306.86   12.10
  -5  -4  10  152.51    6.68
  -5  -4  11  184.85   11.04
  -5  -4  12    5.42    4.06
  -5  -4  13   10.63    4.31
  -5  -3 -24   -3.14   11.51
  -5  -3 -23  144.09   10.09
  -5  -3 -22    3.59    5.62
  -5  -3 -21   -7.90    6.34
  -5  -3 -20  150.29    9.21
  -5  -3 -19   24.42    5.48
  -5  -3 -18  101.93    7.29
  -5  -3 -17  247.41   11.83
  -5  -3 -16  186.90   11.92
  -5  -3 -15 1252.79   40.42
  -5  -3 -14  208.43   14.74
  -5  -3 -13  193.54    8.35
  -5  -3 -12   23.70    9.07
  -5  -3 -11  246.46    9.43
  -5  -3 -10  225.70    8.58
  -5  -3  -9   72.81    6.41
  -5  -3  -8   16.95    3.84
  -5  -3  -7   -0.68    3.86
  -5  -3  -6  121.61    5.96
  -5  -3  -5  107.46    4.67
  -5  -3  -4   33.63    2.80
  -5  -3  -3   88.72    3.11
  -5  -3  -2   45.91    2.44
  -5  -3  -1   10.83    1.58
  -5  -3   0 4093.98   99.96
  -5  -3   1  896.48   25.19
  -5  -3   2  279.08    8.53
  -5  -3   3  340.35   14.96
  -5  -3   4  542.24   23.09
  -5  -3   5  636.25   21.98
  -5  -3   6  236.67   10.63
  -5  -3   7  390.89   13.07
  -5  -3   8    8.15    3.18
  -5  -3   9   55.30    3.57
  -5  -3  10  108.38    5.94
  -5  -3  11   14.22    2.96
  -5  -3  12  244.12    8.92
  -5  -3  13   22.39    2.41
  -5  -3  14   15.84    4.78
  -5  -3  15    0.23    5.71
  -5  -3  16   37.01    7.31
  -5  -3  17   39.43    6.61
  -5  -3  18   28.60    8.85
  -5  -2 -25   29.09    7.45
  -5  -2 -24    2.93    6.79
  -5  -2 -23   27.81    9.98
  -5  -2 -22  148.80   12.46
  -5  -2 -21   44.89    6.25
  -5  -2 -20    7.00    4.92
  -5  -2 -19   13.77    5.46
  -5  -2 -18   64.12    5.53
  -5  -2 -17    1.33    3.81
  -5  -2 -16  270.12   10.86
  -5  -2 -15  397.43   12.57
  -5  -2 -14  227.05    9.05
  -5  -2 -13  117.66    6.18
  -5  -2 -12  111.54    5.71
  -5  -2 -11  584.31   21.78
  -5  -2 -10   -2.93    3.61
  -5  -2  -9  475.84   21.62
  -5  -2  -8   77.51    5.28
  -5  -2  -7  100.12    4.81
  -5  -2  -6  211.05    8.28
  -5  -2  -5  307.90    9.48
  -5  -2  -4 1605.38   39.72
  -5  -2  -3  218.97    5.78
  -5  -2  -2   14.90    2.10
  -5  -2  -1  617.45   20.15
  -5  -2   0   41.73    2.32
  -5  -2   1 1139.56   48.68
  -5  -2   2   16.45    1.83
  -5  -2   3   97.73    4.15
  -5  -2   4    8.33    2.69
  -5  -2   5   38.30    2.05
  -5  -2   6  406.48   12.12
  -5  -2   7  327.72    9.25
  -5  -2   8   41.53    3.09
  -5  -2   9  599.66   22.07
  -5  -2  10   92.15    6.64
  -5  -2  11  789.25   21.10
  -5  -2  12   44.69    7.63
  -5  -2  13   14.22   12.91
  -5  -2  14   54.64    6.00
  -5  -2  15  231.61   13.27
  -5  -2  16  316.93   18.19
  -5  -2  17  416.84   34.96
  -5  -2  18   12.14   11.94
  -5  -2  19  126.28    9.12
  -5  -2  20    9.48    9.07
  -5  -2  21   59.16    9.93
  -5  -2  22   18.33   16.07
  -5  -2  23   33.45   10.61
  -5  -1 -26   37.76   10.70
  -5  -1 -25  143.36   13.32
  -5  -1 -24   15.98    6.48
  -5  -1 -23  288.20   17.85
  -5  -1 -22    7.47   10.43
  -5  -1 -21   49.86    8.06
  -5  -1 -20   34.51    5.82
  -5  -1 -19  367.48   13.25
  -5  -1 -18   53.74    7.72
  -5  -1 -17  787.56   27.83
  -5  -1 -16  158.87    7.58
  -5  -1 -15  675.50   19.52
  -5  -1 -14  110.91    6.64
  -5  -1 -13  331.53   10.95
  -5  -1 -12   31.06    6.70
  -5  -1 -11  861.74   24.69
  -5  -1 -10  246.94   10.86
  -5  -1  -9  167.69    6.61
  -5  -1  -8   31.39    4.54
  -5  -1  -7  166.54    6.59
  -5  -1  -6   20.99    3.59
  -5  -1  -5  276.08    7.00
  -5  -1  -4  139.44    3.90
  -5  -1  -3    7.22    1.78
  -5  -1  -2   24.13    2.08
  -5  -1  -1  300.04   11.44
  -5  -1   1 5781.00  189.61
  -5  -1   2 1741.79   50.15
  -5  -1   3  116.35    4.22
  -5  -1   4  533.19   14.58
  -5  -1   5   48.39    2.71
  -5  -1   6  509.18   15.60
  -5  -1   7  255.51    6.73
  -5  -1   8   27.81    3.63
  -5  -1   9   53.74    3.52
  -5  -1  10    1.13    3.18
  -5  -1  11  145.89    7.99
  -5  -1  12   69.27   12.50
  -5  -1  13   10.13    6.79
  -5  -1  14   74.37    7.24
  -5  -1  15  347.04   18.46
  -5  -1  16  103.44   10.38
  -5  -1  17  286.66   20.36
  -5  -1  18   65.09   11.65
  -5  -1  19  176.77   23.18
  -5  -1  20   24.87   10.34
  -5  -1  21   20.72    9.03
  -5  -1  22   37.94    7.58
  -5  -1  23   59.40    9.03
  -5  -1  24   24.58   11.76
  -5  -1  25  100.71   12.66
  -5  -1  26   -7.65    8.31
  -5   0 -25   89.02   92.99
  -5   0 -23   62.92   10.97
  -5   0 -21    8.76    6.32
  -5   0 -19   99.51    7.79
  -5   0 -17   65.32    6.79
  -5   0 -15   70.53    7.31
  -5   0 -13   23.99    4.56
  -5   0 -11  103.75    5.51
  -5   0  -9  128.31    6.12
  -5   0  -7  117.66    4.56
  -5   0  -5  382.61   10.00
  -5   0  -3 1086.43   30.70
  -5   0  -1  562.71   14.96
  -5   0   1   29.41    2.44
  -5   0   3  699.13   17.47
  -5   0   5  583.59   12.35
  -5   0   7  229.78    5.91
  -5   0   9   98.61    5.37
  -5   0  11  515.29   25.23
  -5   0  13    3.59    6.55
  -5   0  15  579.23   26.75
  -5   0  17  128.31   11.58
  -5   0  19    5.64    6.34
  -5   0  21  436.71   28.89
  -5   0  23   88.72   17.27
  -5   0  25   97.41   16.32
  -5   0  27    2.73    7.24
  -5   1 -26    4.49   13.50
  -5   1 -25  224.35   36.90
  -5   1 -24   26.70   17.69
  -5   1 -23  338.14   23.20
  -5   1 -22    9.03    9.48
  -5   1 -21   53.54    7.70
  -5   1 -20   43.11    6.91
  -5   1 -19  381.43   15.26
  -5   1 -18   47.13    6.59
  -5   1 -17  777.47   31.85
  -5   1 -16  180.38    8.87
  -5   1 -15  686.46   22.84
  -5   1 -14  107.77    7.79
  -5   1 -13  348.71   15.71
  -5   1 -12    2.48    4.09
  -5   1 -11  870.59   23.95
  -5   1 -10  232.99    7.79
  -5   1  -9  164.99    6.18
  -5   1  -8   18.71    3.63
  -5   1  -7  165.37    4.63
  -5   1  -6   13.99    2.71
  -5   1  -5  271.11    8.92
  -5   1  -4  148.44    6.59
  -5   1  -3    6.07    3.86
  -5   1  -2   26.86    2.19
  -5   1  -1  289.21    7.67
  -5   1   0 9999.00  615.93
  -5   1   1 5787.86  128.02
  -5   1   2 1709.33   37.26
  -5   1   3  124.27    4.69
  -5   1   4  526.26   13.79
  -5   1   5   40.20    2.66
  -5   1   6  481.76   13.18
  -5   1   7  242.72    6.55
  -5   1   8   30.74    7.00
  -5   1   9   59.86    9.77
  -5   1  10    2.03    6.34
  -5   1  11  151.76    8.51
  -5   1  13   -2.73    5.91
  -5   1  14   60.56    7.49
  -5   1  15  348.71   25.82
  -5   1  16  106.82   12.41
  -5   1  17  261.31   17.49
  -5   1  18   70.78   12.39
  -5   1  19  145.89   15.98
  -5   1  20   28.60   10.77
  -5   1  21   34.15   10.36
  -5   1  22   17.56    6.93
  -5   1  23   26.70   10.88
  -5   1  24   21.69   10.36
  -5   1  25  165.37   23.18
  -5   1  26    2.26   10.61
  -5   2 -25   63.15   15.05
  -5   2 -24   19.25   19.37
  -5   2 -23   19.25    9.10
  -5   2 -22  139.08   12.75
  -5   2 -21   28.93    9.52
  -5   2 -20   17.56   21.67
  -5   2 -19   20.99    9.77
  -5   2 -18   54.84    5.55
  -5   2 -17    1.78    3.39
  -5   2 -16  283.12   14.67
  -5   2 -15  399.24   14.40
  -5   2 -14  235.27    9.68
  -5   2 -13  112.49    6.05
  -5   2 -12  118.63    6.21
  -5   2 -11  568.45   18.62
  -5   2 -10   16.95    3.59
  -5   2  -9  456.39   17.97
  -5   2  -8   87.89    3.95
  -5   2  -7   92.45    3.75
  -5   2  -6  206.70    6.48
  -5   2  -5  315.32    8.53
  -5   2  -4 1599.35   36.04
  -5   2  -3  223.89    5.85
  -5   2  -2   14.90    2.89
  -5   2  -1  625.68   16.54
  -5   2   0   42.52    2.93
  -5   2   1 1124.39   26.20
  -5   2   2   14.67    2.53
  -5   2   3   94.48    3.79
  -5   2   4    9.66    2.53
  -5   2   5   35.21    2.84
  -5   2   6  416.23   12.86
  -5   2   7  309.48   10.56
  -5   2   8   35.93    5.57
  -5   2   9  569.87   24.40
  -5   2  10   98.31    9.52
  -5   2  11  812.20   32.55
  -5   2  12   40.38    6.68
  -5   2  13   22.82    5.89
  -5   2  14   48.59    9.64
  -5   2  15  255.51   14.90
  -5   2  16  307.90   15.28
  -5   2  17  353.78   20.34
  -5   2  18    6.30    8.15
  -5   2  19  117.97   14.69
  -5   2  20    5.42   12.66
  -5   2  21   47.35   10.74
  -5   2  22   34.33   18.30
  -5   2  23   62.92   12.64
  -5   2  24   30.06   13.84
  -5   2  25  146.61   19.27
  -5   2  26   21.42   14.17
  -5   3 -24    8.15    8.82
  -5   3 -23  153.61   14.15
  -5   3 -22   -3.59    7.18
  -5   3 -21   11.94    8.10
  -5   3 -20  177.58   12.01
  -5   3 -19    6.07   13.54
  -5   3 -18  128.99   29.68
  -5   3 -17  265.69   14.69
  -5   3 -16  218.54   14.22
  -5   3 -15 1194.99   46.74
  -5   3 -14  208.00   10.40
  -5   3 -13  200.29    6.39
  -5   3 -12    0.90    1.13
  -5   3 -11  248.36    7.58
  -5   3 -10  231.61    6.86
  -5   3  -9   67.28    2.46
  -5   3  -8   29.41    1.78
  -5   3  -7    0.45    2.28
  -5   3  -6  128.99    5.12
  -5   3  -5  113.46    3.84
  -5   3  -4   31.39    2.87
  -5   3  -3   86.76    4.20
  -5   3  -2   44.49    2.80
  -5   3  -1    7.47    2.30
  -5   3   0 4109.38  104.00
  -5   3   1  910.04   24.47
  -5   3   2  276.57    7.49
  -5   3   3  347.04   10.07
  -5   3   4  530.42   18.69
  -5   3   5  662.29   17.79
  -5   3   6  229.78    8.19
  -5   3   7  401.65   13.25
  -5   3   8    9.48    5.19
  -5   3   9   67.53    6.91
  -5   3  10  113.46   11.19
  -5   3  11   16.21    5.69
  -5   3  12  260.82   14.56
  -5   3  13   19.25    5.67
  -5   3  14    4.94    6.75
  -5   3  15   25.03   10.22
  -5   3  16   80.71   15.39
  -5   3  17   44.69   11.44
  -5   3  18   20.31    9.75
  -5   3  19   36.83   12.96
  -5   3  20   26.41   12.82
  -5   3  21   20.58    8.31
  -5   3  22   78.57   10.11
  -5   3  23   48.59   10.90
  -5   3  24   50.29   14.49
  -5   3  25  148.80   37.01
  -5   4 -23   11.94   14.02
  -5   4 -22   77.78   20.40
  -5   4 -21   34.33    8.28
  -5   4 -20    0.00    2.26
  -5   4 -19   72.31   12.53
  -5   4 -18   25.93   11.78
  -5   4 -17  116.35   10.04
  -5   4 -16   17.20    8.35
  -5   4 -15   32.77    5.17
  -5   4 -14  101.93    8.19
  -5   4 -13   23.41    7.70
  -5   4 -12  151.76   12.59
  -5   4 -11  199.86   11.89
  -5   4 -10   24.42    4.02
  -5   4  -9    8.76    5.60
  -5   4  -8    7.00    4.76
  -5   4  -7  140.50    5.35
  -5   4  -6   36.83    2.19
  -5   4  -5   92.15    4.04
  -5   4  -4   38.87    4.13
  -5   4  -3    4.74    2.28
  -5   4  -2  145.89    5.44
  -5   4  -1  184.85    5.71
  -5   4   0    3.59    2.66
  -5   4   1   96.83    4.74
  -5   4   2   12.14    2.93
  -5   4   3  124.27    6.70
  -5   4   4  157.00    7.54
  -5   4   5  107.14    6.84
  -5   4   6  132.44    6.23
  -5   4   7    0.00    2.26
  -5   4   8   43.29    5.15
  -5   4   9  303.18   29.30
  -5   4  10  156.23   11.26
  -5   4  11  192.70   13.34
  -5   4  12    2.26    5.19
  -5   4  13    2.93    7.00
  -5   4  14  182.41   23.54
  -5   4  15    2.48   10.38
  -5   4  16  534.57   31.26
  -5   4  17  790.08   42.23
  -5   4  18  105.90   29.68
  -5   4  19    3.81   11.04
  -5   4  20   -3.14   11.24
  -5   4  21   -7.65    9.21
  -5   4  22    6.30    9.89
  -5   4  23    2.93   10.81
  -5   4  24   14.44   16.90
  -5   5 -22   89.87   21.08
  -5   5 -21   12.68   10.16
  -5   5 -20   22.55   10.99
  -5   5 -19   28.93   11.47
  -5   5 -18   50.92    7.52
  -5   5 -17    3.36    9.41
  -5   5 -16    1.33    5.85
  -5   5 -15  469.95   24.10
  -5   5 -14  199.86   16.14
  -5   5 -13   12.14    9.75
  -5   5 -12   30.74    7.49
  -5   5 -11    5.85    6.09
  -5   5 -10   63.65    6.95
  -5   5  -9   60.80    5.62
  -5   5  -8   29.75    5.24
  -5   5  -7    9.03    3.61
  -5   5  -6   26.70    2.96
  -5   5  -5   13.32    2.96
  -5   5  -4   36.29    2.53
  -5   5  -3   15.37    2.93
  -5   5  -2   44.49    2.80
  -5   5  -1   12.68    3.43
  -5   5   0  589.41   19.70
  -5   5   1   -0.45    5.44
  -5   5   2  136.25    6.32
  -5   5   3  105.60    5.55
  -5   5   4    3.14    4.04
  -5   5   5   67.03    4.67
  -5   5   6    4.94    2.93
  -5   5   7   19.37    7.02
  -5   5   8  106.82    9.32
  -5   5   9   28.60    7.72
  -5   5  10   40.58    9.95
  -5   5  13   18.33    6.30
  -5   5  14   95.94   10.29
  -5   5  15   10.63    7.45
  -5   5  16   17.20    6.73
  -5   5  17    0.90    9.66
  -5   5  18   -4.94    7.67
  -5   5  19   37.94   15.17
  -5   5  20   28.60   12.68
  -5   5  21   15.98   21.37
  -5   5  22   18.33   11.58
  -5   6 -19   68.27   16.39
  -5   6 -18   18.71   15.98
  -5   6 -17   20.04   12.64
  -5   6 -16   52.00    8.67
  -5   6 -15    0.23    6.16
  -5   6 -14   18.33    6.05
  -5   6 -13    8.33    6.50
  -5   6 -12   52.88    7.43
  -5   6 -11    2.73    7.00
  -5   6 -10   69.76    7.27
  -5   6  -9    1.33    5.60
  -5   6  -8    7.47    5.67
  -5   6  -7   20.04    3.63
  -5   6  -5   36.83    6.39
  -5   6  -4   37.38    6.97
  -5   6  -3  157.36   10.92
  -5   6  -2  130.36    9.61
  -5   6  -1  177.58   10.81
  -5   6   0  128.31    9.19
  -5   6   1   -3.59    5.17
  -5   6   2  120.28   11.19
  -5   6   3   51.35    7.31
  -5   6   4  146.25   25.08
  -5   6   5   42.91    8.08
  -5   6   6   10.13    4.69
  -5   6   7    1.13   25.62
  -5   6   8   35.39    6.07
  -5   6   9  270.61   17.29
  -5   6  12    0.90    8.33
  -5   6  13   37.76    7.20
  -5   6  14  159.25   14.04
  -5   6  15   78.57   14.11
  -5   6  16   39.07    9.77
  -5   6  17  292.28   26.20
  -5   6  18   80.44   22.37
  -5   6  19  680.19  318.94
  -5   6  20   24.42   11.74
  -5   7 -16   12.14    8.37
  -5   7 -15   81.79   16.02
  -5   7 -14  114.75   12.23
  -5   7 -13   11.01   11.67
  -5   7 -12   17.56    5.67
  -5   7 -11   42.12    8.19
  -5   7 -10    6.75    4.29
  -5   7  -9   36.83   17.69
  -5   7  -8    1.78    5.39
  -5   7  -7    7.90    5.67
  -5   7  -6   -7.00    4.54
  -5   7  -5    0.45    5.44
  -5   7  -4  109.01    8.15
  -5   7  -3   21.26    6.52
  -5   7  -2  159.25   11.76
  -5   7  -1  132.44  140.72
  -5   7   0  316.93  184.55
  -5   7   1   32.93    7.24
  -5   7   2  190.20   12.44
  -5   7   3   37.76    8.87
  -5   7   4  205.84   14.22
  -5   7   5   38.87   35.59
  -5   7   6   33.63    9.93
  -5   7   8   52.00   25.14
  -5   7   9   43.49    8.33
  -5   7  10    2.03    6.09
  -5   7  11   22.98   10.36
  -5   7  12   18.98   10.86
  -5   7  13    9.21   76.31
  -5   7  14   13.77   10.16
  -5   7  15    4.74   19.18
  -5   7  16   26.25    8.31
  -5   7  17    7.90    6.75
  -5   8  -9   42.12    7.81
  -5   8  -8   10.83    8.60
  -5   8  -7   65.32   11.65
  -5   8  -6   12.46    7.43
  -5   8  -5   20.31   36.56
  -5   8  -4   79.63   40.76
  -5   8  -3  197.74   30.00
  -5   8  -2  116.69   25.64
  -5   8  -1   10.13    5.64
  -5   8   0    9.95    5.21
  -5   8   1   92.45   10.97
  -5   8   2   68.27    9.93
  -5   8   3   25.48   12.14
  -5   8   4   -2.48    5.64
  -5   8   5    6.52    8.13
  -5   8   6   35.03    9.07
  -5   8   7   -5.21   10.43
  -5   8   8   28.28   25.73
  -5   8   9   33.81   18.69
  -5   8  10   27.02   19.84
  -5   8  11   12.68    9.95
  -5   8  12   31.06   24.96
  -5   8  13   -8.15   14.24
  -4  -9  -5    7.00   12.39
  -4  -9  -4   15.84    9.93
  -4  -8 -12    1.13   10.86
  -4  -8 -11   48.80   14.69
  -4  -8 -10   62.20   15.17
  -4  -8  -9    0.23    5.94
  -4  -8  -8   32.07   10.54
  -4  -8  -7   -3.14   12.14
  -4  -8  -6   23.25   12.46
  -4  -8  -5   43.70   17.29
  -4  -8  -4    4.29    9.48
  -4  -8  -3   33.81    8.40
  -4  -8  -2   13.32   12.39
  -4  -8  -1   40.76    9.21
  -4  -8   0    9.03    5.87
  -4  -8   1    3.36    4.74
  -4  -7 -17   27.96   18.28
  -4  -7 -16   35.03   12.62
  -4  -7 -15   32.93   11.04
  -4  -7 -14   58.48   18.62
  -4  -7 -13    8.15    9.01
  -4  -7 -12   73.58   21.13
  -4  -7 -11    1.13    9.30
  -4  -7 -10    6.30   13.05
  -4  -7  -9   -0.90    6.52
  -4  -7  -8    0.90    9.89
  -4  -7  -7   28.28    7.20
  -4  -7  -6  102.22   11.85
  -4  -7  -5    5.85   11.49
  -4  -7  -4   -3.14    7.40
  -4  -7  -3  181.60   12.55
  -4  -7  -2   67.03   14.51
  -4  -7  -1   29.57    8.49
  -4  -7   0  152.87   10.40
  -4  -7   1    8.33    8.76
  -4  -7   2   54.19    9.30
  -4  -7   3   40.58    6.12
  -4  -7   4    0.90    4.49
  -4  -6 -19   74.37   23.07
  -4  -6 -18   33.63   16.02
  -4  -6 -17  152.87   14.85
  -4  -6 -16   19.91   15.42
  -4  -6 -15    6.52    7.67
  -4  -6 -14  131.74   68.64
  -4  -6 -13   12.68   12.62
  -4  -6 -12    3.14   16.88
  -4  -6 -11   81.79   10.34
  -4  -6 -10   32.07   10.54
  -4  -6  -9    5.42    6.30
  -4  -6  -8   32.07   10.90
  -4  -6  -7   11.33    6.07
  -4  -6  -6   95.06   21.40
  -4  -6  -5   38.68    9.52
  -4  -6  -4    3.14    4.54
  -4  -6  -3   57.78    8.22
  -4  -6  -2   11.33    4.97
  -4  -6  -1  405.88   19.37
  -4  -6   0  211.05   11.78
  -4  -6   1   22.98    7.63
  -4  -6   2  261.79   17.02
  -4  -6   3   11.53    4.69
  -4  -6   4   27.02    6.09
  -4  -6   5   32.77    5.17
  -4  -6   6   25.77    4.58
  -4  -6   7   43.29    4.54
  -4  -6   8   39.99    5.71
  -4  -5 -22   39.07   19.73
  -4  -5 -21   30.06   16.63
  -4  -5 -20   56.42   11.74
  -4  -5 -19  153.61   63.31
  -4  -5 -18   56.20   11.04
  -4  -5 -17   20.31    7.45
  -4  -5 -16   23.70   11.26
  -4  -5 -15   77.78   14.04
  -4  -5 -14   19.64    8.53
  -4  -5 -13   12.46    6.57
  -4  -5 -12  190.63    8.71
  -4  -5 -11   11.74    4.74
  -4  -5 -10    1.33    3.14
  -4  -5  -9  118.97    6.55
  -4  -5  -8   30.40    4.47
  -4  -5  -7    8.33    3.39
  -4  -5  -6  407.68   12.14
  -4  -5  -5  168.48    7.40
  -4  -5  -4  195.64    8.40
  -4  -5  -3  361.75   11.42
  -4  -5  -2    1.78    0.88
  -4  -5  -1   -1.78    3.39
  -4  -5   0  230.69   11.87
  -4  -5   1   57.10    5.91
  -4  -5   2    9.66    4.02
  -4  -5   3   32.41    4.97
  -4  -5   4  481.76   26.38
  -4  -5   5    5.42    4.76
  -4  -5   6    0.68    2.96
  -4  -5   7  118.63    3.93
  -4  -5   8   -0.68    5.67
  -4  -5   9   50.71   24.17
  -4  -5  10   12.68   12.41
  -4  -5  11  233.44   12.39
  -4  -4 -24  171.22   28.30
  -4  -4 -23   31.58   10.29
  -4  -4 -22   -2.73    7.24
  -4  -4 -21    9.95    6.55
  -4  -4 -20   16.95    7.92
  -4  -4 -19   -2.26    7.22
  -4  -4 -18   30.74    7.49
  -4  -4 -17   -1.33    5.60
  -4  -4 -16  437.95   15.10
  -4  -4 -15  331.53   12.59
  -4  -4 -14  190.63    9.55
  -4  -4 -13   96.24    6.48
  -4  -4 -12   53.74    5.06
  -4  -4 -11   87.89   10.13
  -4  -4 -10   82.34    6.00
  -4  -4  -9   14.90    4.06
  -4  -4  -8   61.98    4.97
  -4  -4  -7   15.62    3.20
  -4  -4  -6    4.29    2.05
  -4  -4  -5  114.75    5.15
  -4  -4  -4    7.65    3.16
  -4  -4  -3  447.45   19.07
  -4  -4  -2   52.66    2.39
  -4  -4  -1  664.62   17.81
  -4  -4   0 3269.39  121.99
  -4  -4   1    9.48    3.14
  -4  -4   2  199.00   14.83
  -4  -4   3    3.81    4.29
  -4  -4   4    7.00    5.87
  -4  -4   5    3.36    0.65
  -4  -4   6   19.37    1.99
  -4  -4   7   69.27    3.00
  -4  -4   8   15.84    2.03
  -4  -4   9    1.13    2.05
  -4  -4  10  100.41    4.22
  -4  -4  11   25.93    3.68
  -4  -4  12   85.92    4.74
  -4  -4  13   22.12    4.94
  -4  -3 -25   43.49   13.47
  -4  -3 -24   30.24    8.42
  -4  -3 -23   -2.48    7.92
  -4  -3 -22   16.21    8.82
  -4  -3 -21    2.26    6.55
  -4  -3 -20    3.14    5.64
  -4  -3 -19   45.50    7.29
  -4  -3 -18   92.74    8.96
  -4  -3 -17   13.11    5.21
  -4  -3 -16   82.88    8.76
  -4  -3 -15  356.60   15.32
  -4  -3 -14  325.01   10.83
  -4  -3 -13   76.20    6.55
  -4  -3 -12   60.33    5.85
  -4  -3 -11   40.20    3.61
  -4  -3 -10    1.78    3.39
  -4  -3  -9   33.45    4.69
  -4  -3  -8   -4.49    2.03
  -4  -3  -7   31.39    4.04
  -4  -3  -6  772.46   29.23
  -4  -3  -5   41.35    3.48
  -4  -3  -4  467.36   11.69
  -4  -3  -3  102.83    3.95
  -4  -3  -2   13.11    1.85
  -4  -3  -1  484.40   11.89
  -4  -3   0 1134.50   29.34
  -4  -3   1  324.47    9.75
  -4  -3   2  275.58    7.99
  -4  -3   3    4.06    0.90
  -4  -3   4   23.70    1.76
  -4  -3   5   67.03    3.20
  -4  -3   6  435.44   16.93
  -4  -3   7  137.68    4.94
  -4  -3   8   91.00    4.02
  -4  -3   9    8.58    2.28
  -4  -3  10   20.58    3.14
  -4  -3  11  832.88   26.88
  -4  -3  12   -0.68    3.63
  -4  -3  13   -2.73    4.06
  -4  -3  14  708.70   25.59
  -4  -3  15  131.74    9.32
  -4  -3  16  190.63   12.44
  -4  -3  17  110.91   37.33
  -4  -3  18   45.09    5.85
  -4  -3  19   36.11    7.94
  -4  -2 -26   -4.06    7.02
  -4  -2 -25    0.23    5.94
  -4  -2 -24   49.43   12.05
  -4  -2 -23    4.74    7.47
  -4  -2 -22   19.37    7.94
  -4  -2 -21   75.41    8.35
  -4  -2 -20   76.44    8.67
  -4  -2 -19   21.42    7.52
  -4  -2 -18  286.16   11.17
  -4  -2 -17   47.35    6.00
  -4  -2 -16  624.19   17.27
  -4  -2 -15  858.22   29.05
  -4  -2 -14  225.70   10.83
  -4  -2 -13   18.98    4.97
  -4  -2 -12   26.25    7.24
  -4  -2 -11  251.20   13.34
  -4  -2 -10   43.29    4.36
  -4  -2  -9    8.33    4.94
  -4  -2  -8   17.83    2.91
  -4  -2  -7   56.42    4.29
  -4  -2  -6  244.12    7.52
  -4  -2  -5   95.36    4.40
  -4  -2  -4  470.61   11.74
  -4  -2  -3 1082.48   25.71
  -4  -2  -2  397.43   11.38
  -4  -2  -1 1031.67   26.07
  -4  -2   1  538.74   19.52
  -4  -2   2   45.09    2.01
  -4  -2   3  555.63   21.96
  -4  -2   4    4.49    2.03
  -4  -2   5  133.12    5.55
  -4  -2   6    0.45    1.58
  -4  -2   7   76.20    3.41
  -4  -2   8 1048.15   22.37
  -4  -2   9    9.03    3.16
  -4  -2  10  802.81   29.79
  -4  -2  11   11.74    5.87
  -4  -2  12  390.28   14.83
  -4  -2  13   56.20    4.74
  -4  -2  14   61.50    6.12
  -4  -2  15   64.60    7.24
  -4  -2  16    8.15    7.72
  -4  -2  17   98.31    9.23
  -4  -2  18  153.61   11.17
  -4  -2  19   29.75    8.85
  -4  -2  20  173.59   11.87
  -4  -2  21   15.98   15.98
  -4  -2  22  121.92   15.93
  -4  -2  23   27.02   11.71
  -4  -2  24  235.74   22.62
  -4  -1 -26    9.95    9.01
  -4  -1 -25   12.46   11.78
  -4  -1 -24   74.62    8.31
  -4  -1 -23   30.90    7.18
  -4  -1 -22   28.93   16.00
  -4  -1 -21    2.03    7.47
  -4  -1 -20    8.76    6.05
  -4  -1 -19   49.23    6.32
  -4  -1 -18  967.10   29.91
  -4  -1 -17    6.30    5.64
  -4  -1 -16  688.83   20.49
  -4  -1 -15   18.46    4.27
  -4  -1 -14  336.47   11.01
  -4  -1 -13   27.81    4.29
  -4  -1 -12    5.42    4.76
  -4  -1 -11   28.44    3.84
  -4  -1 -10  287.18    9.16
  -4  -1  -9  166.16    6.59
  -4  -1  -8   89.58    5.12
  -4  -1  -7   35.93    2.71
  -4  -1  -6 1021.09   23.04
  -4  -1  -5   72.31    2.82
  -4  -1  -4  344.24    8.92
  -4  -1  -3  103.75    3.97
  -4  -1  -2  252.65    7.65
  -4  -1  -1   23.25    2.46
  -4  -1   1 1384.78   48.07
  -4  -1   2  319.61    8.06
  -4  -1   3  235.27    6.91
  -4  -1   4  948.50   21.28
  -4  -1   5    0.90    1.56
  -4  -1   6   65.81    2.93
  -4  -1   7   35.57    1.96
  -4  -1   8   42.70    2.75
  -4  -1   9  182.00    7.70
  -4  -1  10  813.06   23.13
  -4  -1  11 1108.34   32.00
  -4  -1  12   31.73    6.09
  -4  -1  13   30.90    7.02
  -4  -1  14   25.48    5.01
  -4  -1  15   -0.45    7.72
  -4  -1  16  228.41   12.26
  -4  -1  17  122.26   13.29
  -4  -1  18   96.24   12.07
  -4  -1  19   47.35   15.51
  -4  -1  20   -0.45    6.14
  -4  -1  21   13.11    9.25
  -4  -1  22    9.66    9.73
  -4  -1  23   16.45    7.43
  -4  -1  24   36.11    8.31
  -4  -1  25   22.82   14.22
  -4  -1  26   16.95    8.53
  -4  -1  27   49.02   18.51
  -4   0 -26    0.68   14.29
  -4   0 -24  167.31   12.44
  -4   0 -22   70.53    6.82
  -4   0 -20   48.39   10.25
  -4   0 -18   90.14    7.70
  -4   0 -16  281.61   14.13
  -4   0 -14   12.14    4.72
  -4   0 -12   31.06    4.02
  -4   0 -10  469.32   14.31
  -4   0  -8   19.91    3.36
  -4   0  -6   37.20    2.75
  -4   0  -4  261.31    6.32
  -4   0  -2  103.75    3.97
  -4   0   0 4970.87  171.60
  -4   0   2   17.56    1.65
  -4   0   4   30.24    2.30
  -4   0   6   66.78    2.96
  -4   0   8  396.24   11.35
  -4   0  10  322.84   17.27
  -4   0  12  756.68   35.55
  -4   0  14    9.95    7.49
  -4   0  16  101.32    9.07
  -4   0  18  116.03   10.68
  -4   0  20  368.05   22.48
  -4   0  22  322.84   23.22
  -4   0  24  253.12   19.59
  -4   0  26   79.11   18.17
  -4   1 -26   13.32   10.43
  -4   1 -25    8.76   11.04
  -4   1 -24   71.55   26.18
  -4   1 -23   62.68   24.74
  -4   1 -22    3.59   11.26
  -4   1 -21   12.14    8.06
  -4   1 -20   16.70    5.89
  -4   1 -19   68.77    9.21
  -4   1 -18  895.60   35.07
  -4   1 -17    0.90    4.04
  -4   1 -16  736.95   32.64
  -4   1 -15   30.74    7.65
  -4   1 -14  355.48   16.43
  -4   1 -13   24.87    4.36
  -4   1 -12   16.21    4.47
  -4   1 -11   33.11    2.93
  -4   1 -10  292.28    8.73
  -4   1  -9  165.37    6.95
  -4   1  -8   87.89    3.39
  -4   1  -7   38.87    2.44
  -4   1  -6 1015.33   23.92
  -4   1  -5   94.77    7.61
  -4   1  -4  349.83   11.80
  -4   1  -3  104.68    5.24
  -4   1  -2  269.62    6.91
  -4   1  -1   16.95    3.34
  -4   1   1 1376.97   33.45
  -4   1   2  316.41    8.55
  -4   1   3  222.54    6.27
  -4   1   4  962.43   22.37
  -4   1   5    0.45    2.51
  -4   1   6   58.25    3.20
  -4   1   7   34.15    4.04
  -4   1   8   46.92    3.30
  -4   1   9  193.54   10.88
  -4   1  10  757.49   28.93
  -4   1  11 1100.35   38.87
  -4   1  12   36.11    9.21
  -4   1  13   44.49    6.82
  -4   1  14   32.07    8.17
  -4   1  15   15.14    9.23
  -4   1  16  268.15   59.54
  -4   1  17  144.09   16.59
  -4   1  18   65.32    9.71
  -4   1  19   17.83    6.73
  -4   1  20    5.64    9.48
  -4   1  21    8.15    7.04
  -4   1  22    6.52   18.26
  -4   1  23   28.60   16.07
  -4   1  24    6.75    9.46
  -4   1  25    3.59    8.98
  -4   1  26   17.31   12.37
  -4   1  27   22.82   16.23
  -4   2 -26   -3.59    9.21
  -4   2 -25   37.20   22.19
  -4   2 -24   30.90   18.03
  -4   2 -23    7.65   11.96
  -4   2 -22   10.63   14.90
  -4   2 -21   77.78   11.40
  -4   2 -20   82.61   18.85
  -4   2 -19   15.37   10.36
  -4   2 -18  268.65   10.34
  -4   2 -17   55.97    5.39
  -4   2 -16  641.57   21.31
  -4   2 -15  854.70   27.24
  -4   2 -14  222.99   11.22
  -4   2 -13   31.73    4.06
  -4   2 -12   22.98    3.88
  -4   2 -11  257.93    9.66
  -4   2 -10   45.50    3.86
  -4   2  -9    2.73    2.03
  -4   2  -8   17.83    2.66
  -4   2  -7   54.64    2.66
  -4   2  -6  249.31    7.58
  -4   2  -5  100.71    3.93
  -4   2  -4  469.95   13.02
  -4   2  -3 1076.56   24.65
  -4   2  -2  383.19    9.41
  -4   2  -1  975.52   26.27
  -4   2   1  552.08   12.71
  -4   2   2   47.35    2.28
  -4   2   3  550.66   14.11
  -4   2   4    2.48    2.46
  -4   2   5  138.74    5.30
  -4   2   6    1.13    2.73
  -4   2   7   75.93    4.20
  -4   2   8 1074.58   27.58
  -4   2   9    6.75    4.99
  -4   2  10  756.68   29.75
  -4   2  11   -2.93    6.07
  -4   2  12  360.04   15.39
  -4   2  13   59.16   14.11
  -4   2  14   65.81    6.09
  -4   2  15   69.52    9.77
  -4   2  16   22.12   10.61
  -4   2  17   94.77   12.28
  -4   2  18  161.92   13.38
  -4   2  19   52.23   10.86
  -4   2  20  168.48   28.08
  -4   2  21   -3.81    8.10
  -4   2  22  138.02   12.01
  -4   2  23    9.95   14.22
  -4   2  24  269.15   26.61
  -4   2  25   14.22   18.01
  -4   2  26   35.39   12.32
  -4   3 -25   67.78   12.86
  -4   3 -24   46.11   13.07
  -4   3 -23   18.71   23.92
  -4   3 -22    3.36   10.56
  -4   3 -21    7.22   19.39
  -4   3 -20   -9.66    5.15
  -4   3 -19   51.78    7.13
  -4   3 -18   94.77   11.40
  -4   3 -17   15.98   16.45
  -4   3 -16  107.14   18.67
  -4   3 -15  340.35   15.53
  -4   3 -14  311.08   10.61
  -4   3 -13   92.45    4.33
  -4   3 -12   55.75    2.69
  -4   3 -11   45.30   30.94
  -4   3 -10   -0.90    2.93
  -4   3  -9   27.81    4.76
  -4   3  -8   -2.03    2.96
  -4   3  -7   33.45    1.56
  -4   3  -6  768.28   21.64
  -4   3  -5   41.73    2.32
  -4   3  -4  477.15   14.44
  -4   3  -3  101.93    3.63
  -4   3  -2   17.20    2.48
  -4   3  -1  495.05   12.71
  -4   3   0 1108.34   27.02
  -4   3   1  319.61    7.52
  -4   3   2  267.16    8.35
  -4   3   3    2.93    2.46
  -4   3   4   25.48    2.44
  -4   3   5   71.03    4.56
  -4   3   6  416.84   12.89
  -4   3   7  140.14    7.11
  -4   3   8   97.73    6.55
  -4   3   9    3.59    4.04
  -4   3  10   30.40    6.30
  -4   3  11  854.70   31.62
  -4   3  12    3.81    6.97
  -4   3  13   13.32    9.77
  -4   3  14  684.12   28.30
  -4   3  15  127.63   10.52
  -4   3  17  101.93    8.49
  -4   3  18   61.50   28.75
  -4   3  19   19.37    7.94
  -4   3  20  163.07   14.96
  -4   3  21   32.07   15.14
  -4   3  22  167.69   17.90
  -4   3  23   37.20   12.46
  -4   3  24   31.06   11.22
  -4   3  25   17.56   20.54
  -4   4 -24  176.38   17.56
  -4   4 -23   -2.03   12.44
  -4   4 -22   36.47   17.42
  -4   4 -21    7.22   11.31
  -4   4 -20    2.73   10.88
  -4   4 -19    6.75    6.32
  -4   4 -18   31.39    6.57
  -4   4 -17    3.59   11.94
  -4   4 -16  453.18   18.55
  -4   4 -15  330.45   18.58
  -4   4 -14  196.47   11.78
  -4   4 -13   83.98    7.43
  -4   4 -12   46.52    4.92
  -4   4 -11   77.23    5.01
  -4   4 -10   79.90   13.43
  -4   4  -9   11.94    3.84
  -4   4  -8   62.68    5.94
  -4   4  -7   12.89    4.31
  -4   4  -6    0.23    1.38
  -4   4  -5  111.22    4.76
  -4   4  -4   11.94    2.71
  -4   4  -3  460.25   14.17
  -4   4  -2   53.54    3.30
  -4   4  -1  671.59   17.90
  -4   4   0 3331.55   79.78
  -4   4   1    4.74    2.48
  -4   4   2  181.19    6.07
  -4   4   3   -2.93    3.86
  -4   4   4    4.49    2.48
  -4   4   5    7.22    3.88
  -4   4   6   18.98    5.24
  -4   4   7   60.80    4.92
  -4   4   8   23.41    3.63
  -4   4   9   19.64    9.32
  -4   4  10   95.65   10.00
  -4   4  12   82.61    7.11
  -4   4  13   19.37    7.02
  -4   4  14   54.42    7.54
  -4   4  15   25.48    6.97
  -4   4  16  149.91   15.08
  -4   4  17  144.81   11.22
  -4   4  18   37.01    9.86
  -4   4  19    1.13    6.79
  -4   4  20   44.69   16.07
  -4   4  21   45.50   14.20
  -4   4  22   28.93   14.22
  -4   4  23    5.42   13.29
  -4   4  24   29.75   11.96
  -4   5 -22   25.93   13.77
  -4   5 -21   39.99   28.89
  -4   5 -20   42.91    8.26
  -4   5 -19   98.31   11.62
  -4   5 -18   34.51    9.52
  -4   5 -17    9.21   29.27
  -4   5 -16   12.14    6.82
  -4   5 -15   26.41    7.24
  -4   5 -14   22.12    8.76
  -4   5 -13   27.02   25.30
  -4   5 -12  210.17   13.07
  -4   5 -11   19.25    7.00
  -4   5 -10    3.59   15.30
  -4   5  -9   93.30    6.39
  -4   5  -8   34.15    7.02
  -4   5  -7    8.15    4.54
  -4   5  -6  401.05   12.64
  -4   5  -5  172.01    6.70
  -4   5  -4  186.09    7.38
  -4   5  -3  349.27   11.24
  -4   5  -2    0.90    2.48
  -4   5  -1   -2.48    2.46
  -4   5   0  206.70    9.50
  -4   5   1   46.72    3.70
  -4   5   2   20.99    5.24
  -4   5   3   24.13    4.13
  -4   5   4  457.02   14.13
  -4   5   5   -0.90    3.39
  -4   5   6    7.90    3.79
  -4   5   7  119.28    6.88
  -4   5   8    0.45    5.44
  -4   5   9   43.49    7.13
  -4   5  10    6.07    5.19
  -4   5  11  237.59   12.50
  -4   5  12   14.67    8.17
  -4   5  13  -18.33    7.47
  -4   5  14  461.53   31.62
  -4   5  15   16.95   10.38
  -4   5  16   52.66   10.90
  -4   5  17  138.02   14.13
  -4   5  18  364.59   24.10
  -4   5  19  136.62   13.34
  -4   5  20   50.06    9.57
  -4   5  21   29.57   17.00
  -4   5  22   35.39   11.44
  -4   6 -20   13.99    9.66
  -4   6 -19   53.96    7.94
  -4   6 -18   21.83    9.41
  -4   6 -17  158.87   12.50
  -4   6 -16   12.14    6.27
  -4   6 -15    6.52    9.66
  -4   6 -14  122.92    8.67
  -4   6 -13    6.30    4.74
  -4   6 -12   28.44   12.35
  -4   6 -11  120.93   31.06
  -4   6 -10   14.44    6.50
  -4   6  -9    7.90    3.39
  -4   6  -8   14.90    3.59
  -4   6  -7    1.78    8.31
  -4   6  -6   86.49   12.30
  -4   6  -5   50.49   10.25
  -4   6  -4    9.95    7.67
  -4   6  -3   57.33    4.78
  -4   6  -2    7.65    6.07
  -4   6  -1  361.16   18.28
  -4   6   0  196.04   13.45
  -4   6   1   11.53    7.24
  -4   6   2  240.37   14.90
  -4   6   3   19.25    4.49
  -4   6   4   18.98    7.20
  -4   6   5   45.50    7.70
  -4   6   6   32.93   14.65
  -4   6   7   50.71    7.92
  -4   6   8   53.74    8.37
  -4   6   9   41.93   30.54
  -4   6  10   75.65   11.76
  -4   6  11   18.71   12.86
  -4   6  12    3.36   10.36
  -4   6  13    9.21    9.93
  -4   6  14   -7.65    9.21
  -4   6  15  196.90   18.55
  -4   6  16  100.12   19.84
  -4   6  17  208.00   20.36
  -4   6  18  179.97   23.79
  -4   6  19   40.20   15.82
  -4   6  20    9.95   12.41
  -4   7 -17   11.01    9.48
  -4   7 -16   42.91   10.43
  -4   7 -15   73.08   20.29
  -4   7 -14   52.66    6.75
  -4   7 -13   12.14    8.06
  -4   7 -12   73.58    8.76
  -4   7 -11   11.94    8.31
  -4   7 -10    4.29    6.36
  -4   7  -9   13.54    9.73
  -4   7  -8    6.07   10.13
  -4   7  -7   21.69    4.47
  -4   7  -6  106.21    6.18
  -4   7  -5    9.21    4.92
  -4   7  -4    1.60    4.97
  -4   7  -3  204.98   15.48
  -4   7  -2   61.03    8.92
  -4   7  -1   44.89    9.66
  -4   7   0  151.40    8.87
  -4   7   1   -4.74    4.97
  -4   7   2   56.88    6.79
  -4   7   3  170.04  144.58
  -4   7   4    4.94    7.02
  -4   7   5   -2.73    4.76
  -4   7   6   49.02    8.82
  -4   7   7   30.06   13.52
  -4   7   8   31.39    5.89
  -4   7   9    9.48    4.99
  -4   7  10   11.01    8.08
  -4   7  11   88.72    9.05
  -4   7  12   27.49    7.88
  -4   7  13   48.16    8.96
  -4   7  14   63.87   94.61
  -4   7  15   61.50   15.55
  -4   7  16  127.63   22.75
  -4   7  17   88.16   45.14
  -4   8  -2    5.85    7.20
  -4   8  -1   13.32    7.45
  -4   8   0    6.07    5.39
  -4   8   1   -2.03    4.97
  -4   8   2   13.32    6.14
  -4   8   3   47.13    7.22
  -4   8   4   10.83   10.18
  -4   8   5   27.02   10.77
  -4   8   6   25.32    8.31
  -4   8   7   24.87    9.30
  -4   8   8   32.93    9.66
  -4   8   9   35.21   11.76
  -4   8  10   25.93   14.38
  -4   8  11   45.09   17.15
  -4   8  12   20.72   12.44
  -4   8  13   45.09   18.37
  -3  -9  -6    7.65   11.71
  -3  -9  -5   14.22   11.33
  -3  -9  -4   30.40    8.28
  -3  -8 -13   14.90    8.13
  -3  -8 -12   10.63   13.81
  -3  -8 -11    6.07    5.19
  -3  -8 -10   13.54    9.50
  -3  -8  -9    8.58    6.34
  -3  -8  -8   -1.60    5.19
  -3  -8  -7    8.15   14.49
  -3  -8  -6   78.02   10.09
  -3  -8  -5   25.03    6.77
  -3  -8  -4  210.17   93.64
  -3  -8  -3   47.55    9.73
  -3  -8  -2   16.95    7.92
  -3  -8  -1  242.24   26.66
  -3  -8   0   13.54    6.97
  -3  -7 -17   68.77   13.20
  -3  -7 -16   93.03   37.67
  -3  -7 -15   14.67   10.36
  -3  -7 -14   28.28   14.06
  -3  -7 -13   -1.78   11.01
  -3  -7 -12   -6.52    6.97
  -3  -7 -11   14.44    8.33
  -3  -7 -10   17.20    8.60
  -3  -7  -9   30.90   13.02
  -3  -7  -8   34.15    7.90
  -3  -7  -7   68.27   12.17
  -3  -7  -6   13.54   12.62
  -3  -7  -4   34.69    7.43
  -3  -7  -3   13.54    6.97
  -3  -7  -2  195.64   18.08
  -3  -7  -1  542.94   26.61
  -3  -7   0   22.39    8.10
  -3  -7   1    8.58    4.04
  -3  -7   2  165.37   10.81
  -3  -7   3  155.87   10.50
  -3  -7   4   11.94    6.95
  -3  -6 -20   19.64   13.05
  -3  -6 -19   42.12   25.17
  -3  -6 -18   13.99   10.11
  -3  -6 -17   71.79   10.95
  -3  -6 -16   40.58   13.59
  -3  -6 -15    7.65    7.22
  -3  -6 -14  131.74   15.53
  -3  -6 -13   23.70    7.45
  -3  -6 -12   24.58   23.99
  -3  -6 -11   16.21    7.85
  -3  -6 -10    5.21    8.58
  -3  -6  -9   81.79   12.50
  -3  -6  -8   50.06    7.02
  -3  -6  -7    7.22    7.43
  -3  -6  -6  174.38   15.08
  -3  -6  -5   16.70    7.49
  -3  -6  -4   38.30    5.96
  -3  -6  -3  135.56    9.43
  -3  -6  -2   91.30    7.74
  -3  -6  -1   91.86    8.06
  -3  -6   0   16.95    4.69
  -3  -6   1   76.72    7.90
  -3  -6   2  228.41   11.80
  -3  -6   3   40.20    6.86
  -3  -6   4  377.32   18.69
  -3  -6   5   91.30    5.73
  -3  -6   6  122.26   10.63
  -3  -6   7    4.94    3.41
  -3  -5 -22   57.78   32.88
  -3  -5 -21   35.57   12.55
  -3  -5 -20   38.30   15.05
  -3  -5 -19   -4.94   34.67
  -3  -5 -18  139.80   12.80
  -3  -5 -17   68.77   17.20
  -3  -5 -15   85.65   81.18
  -3  -5 -14   29.09    6.48
  -3  -5 -13   10.83    5.82
  -3  -5 -12   21.42    3.88
  -3  -5 -11   17.56    3.66
  -3  -5 -10   15.62    5.82
  -3  -5  -9   12.14    5.12
  -3  -5  -8  148.44    8.42
  -3  -5  -7  484.40   15.21
  -3  -5  -6   32.07    4.24
  -3  -5  -5    7.90    2.96
  -3  -5  -4  163.45    6.52
  -3  -5  -3   96.24    3.84
  -3  -5  -2   61.03    2.35
  -3  -5  -1  955.93   43.67
  -3  -5   0    6.30    4.74
  -3  -5   1   89.02    6.23
  -3  -5   2   55.07    5.80
  -3  -5   3  337.58   16.00
  -3  -5   4  316.93   17.11
  -3  -5   5   20.04    3.77
  -3  -5   6  192.27   13.75
  -3  -5   7    0.68    1.15
  -3  -5   8  149.91    6.25
  -3  -5   9  260.82   13.11
  -3  -5  10   46.11    4.49
  -3  -4 -24   18.46   12.66
  -3  -4 -23   13.11    6.75
  -3  -4 -22   34.51   13.25
  -3  -4 -21    8.33    9.28
  -3  -4 -20   -2.03    4.76
  -3  -4 -19   17.31    8.13
  -3  -4 -18   22.39   11.24
  -3  -4 -17  255.99   11.06
  -3  -4 -16    2.26    5.64
  -3  -4 -15   60.56    7.24
  -3  -4 -14   12.68    5.67
  -3  -4 -13   -0.45    3.63
  -3  -4 -12   21.83    4.36
  -3  -4 -11    4.49    6.05
  -3  -4 -10   87.03    6.16
  -3  -4  -9  162.68    7.67
  -3  -4  -8    4.74    3.86
  -3  -4  -7 1251.73   31.89
  -3  -4  -6   16.70    2.96
  -3  -4  -5   86.49    4.74
  -3  -4  -4  817.35   21.49
  -3  -4  -3  215.88    7.52
  -3  -4  -2    8.58    1.33
  -3  -4  -1 1760.64   41.60
  -3  -4   0  153.25    8.55
  -3  -4   1    0.68    3.86
  -3  -4   2  416.84   26.99
  -3  -4   3  153.25    9.66
  -3  -4   4  451.26   21.06
  -3  -4   5  555.63   17.00
  -3  -4   6  136.95    4.22
  -3  -4   7   28.60    1.76
  -3  -4   8  140.50    4.63
  -3  -4   9   61.50    2.82
  -3  -4  10  218.97    7.56
  -3  -4  11   11.94    2.08
  -3  -4  12   18.46    4.27
  -3  -4  13   15.62   19.00
  -3  -4  14   39.25   10.92
  -3  -3 -25   17.20   15.32
  -3  -3 -24    3.81    8.80
  -3  -3 -23   49.02    9.68
  -3  -3 -22    1.78    8.31
  -3  -3 -21  210.17   12.64
  -3  -3 -20   83.15    7.13
  -3  -3 -19   78.57    7.20
  -3  -3 -18  586.48   20.38
  -3  -3 -17  555.63   22.66
  -3  -3 -16  217.21   11.08
  -3  -3 -15  319.07   11.80
  -3  -3 -14   25.77    5.03
  -3  -3 -13   44.89    5.44
  -3  -3 -12   90.73    5.73
  -3  -3 -11   91.00    5.17
  -3  -3 -10   82.88    4.65
  -3  -3  -9   24.13    3.09
  -3  -3  -8  537.35   14.63
  -3  -3  -7 2441.50   60.87
  -3  -3  -6  248.83    8.53
  -3  -3  -5   99.80    4.20
  -3  -3  -4  175.19    5.57
  -3  -3  -3   42.91    1.96
  -3  -3  -2  159.64    4.56
  -3  -3  -1  233.89    5.98
  -3  -3   0  531.12   17.31
  -3  -3   1   58.48    5.28
  -3  -3   2  170.45    9.41
  -3  -3   3  151.02    5.53
  -3  -3   4  243.17    7.49
  -3  -3   5   75.93    4.20
  -3  -3   6  477.81   15.10
  -3  -3   7  229.33    6.82
  -3  -3   8   -0.68    1.58
  -3  -3   9  711.09   24.04
  -3  -3  10   28.60    2.73
  -3  -3  11   72.56    3.84
  -3  -3  12   59.16    3.23
  -3  -3  13   46.31    3.68
  -3  -3  14    3.36    4.51
  -3  -3  15    3.59    3.36
  -3  -3  16   51.35    6.88
  -3  -3  17  899.19   45.05
  -3  -3  18  140.14    8.53
  -3  -3  19   11.01    7.67
  -3  -3  20   42.52   11.35
  -3  -2 -26   16.70   11.53
  -3  -2 -25   24.58   11.01
  -3  -2 -24   11.53    7.24
  -3  -2 -23   76.99   10.54
  -3  -2 -22   22.55    7.27
  -3  -2 -21   -5.85    4.51
  -3  -2 -20   11.94    9.46
  -3  -2 -19  208.00   12.57
  -3  -2 -18   27.33    5.19
  -3  -2 -17   18.08    4.99
  -3  -2 -16  160.38    8.76
  -3  -2 -15   73.85    7.49
  -3  -2 -14   90.73    6.00
  -3  -2 -13    3.81    3.16
  -3  -2 -12   89.58    6.55
  -3  -2 -11   19.64    3.59
  -3  -2 -10  453.81   13.45
  -3  -2  -9  210.17    7.40
  -3  -2  -8   83.71    4.13
  -3  -2  -7 1419.67   39.63
  -3  -2  -6    3.36    2.48
  -3  -2  -5  145.53    4.72
  -3  -2  -4 2850.79   67.37
  -3  -2  -3  337.04   10.47
  -3  -2  -2  481.10   11.19
  -3  -2  -1 2581.53   68.70
  -3  -2   0 7024.94  224.14
  -3  -2   1  165.37    5.03
  -3  -2   2 3580.56  219.36
  -3  -2   3  949.43   38.89
  -3  -2   4  946.65   31.44
  -3  -2   5  228.41    6.36
  -3  -2   6  922.77   23.72
  -3  -2   7  272.60    6.95
  -3  -2   8  155.48    4.13
  -3  -2   9  826.83   24.19
  -3  -2  10   70.53    4.04
  -3  -2  11  297.45    9.32
  -3  -2  12   -2.73    2.73
  -3  -2  13   37.01    2.75
  -3  -2  14   60.33    3.97
  -3  -2  15   10.63    3.14
  -3  -2  16  104.05   11.65
  -3  -2  17  615.96   32.82
  -3  -2  18   75.41    8.35
  -3  -2  19  129.33   10.92
  -3  -2  20   11.94    5.82
  -3  -2  21  151.40   18.85
  -3  -2  22   11.01    6.79
  -3  -2  23  138.02   17.29
  -3  -2  24    8.76   10.86
  -3  -1 -26   12.14   10.16
  -3  -1 -25   22.55    7.85
  -3  -1 -24    7.90    7.94
  -3  -1 -23   50.29   12.14
  -3  -1 -22   -4.29    5.17
  -3  -1 -21  157.00    9.80
  -3  -1 -20   49.65    6.34
  -3  -1 -19    6.75    4.76
  -3  -1 -18  356.60   14.76
  -3  -1 -17  559.17   17.76
  -3  -1 -16   22.98    4.90
  -3  -1 -15   83.15    6.86
  -3  -1 -14   66.31    5.37
  -3  -1 -13    5.64    4.29
  -3  -1 -12    2.26    3.84
  -3  -1 -11   38.68    3.93
  -3  -1 -10  208.43   10.40
  -3  -1  -9   69.52    3.77
  -3  -1  -8   64.37    4.58
  -3  -1  -7 5111.66  109.55
  -3  -1  -6   11.01    2.30
  -3  -1  -5  322.84    9.19
  -3  -1  -4   26.25    2.46
  -3  -1  -3 1481.45   33.54
  -3  -1  -2  972.72   25.30
  -3  -1  -1 3607.58   90.23
  -3  -1   0  234.37    7.81
  -3  -1   1  984.93   61.30
  -3  -1   2  496.38   16.07
  -3  -1   3 1913.86   63.11
  -3  -1   4  238.52    7.43
  -3  -1   5 1448.11   35.43
  -3  -1   6    9.48    1.85
  -3  -1   7  680.19   15.66
  -3  -1   8  202.41    5.55
  -3  -1   9 1419.67   37.35
  -3  -1  10  316.41   16.57
  -3  -1  11 1886.37   63.94
  -3  -1  12   53.96   10.59
  -3  -1  13   38.12    8.17
  -3  -1  14   14.90    6.95
  -3  -1  15   30.40    5.80
  -3  -1  16    8.33    6.32
  -3  -1  17   23.41    8.28
  -3  -1  18   52.66   10.02
  -3  -1  19    8.15    6.09
  -3  -1  20   10.83    9.68
  -3  -1  21   50.92    9.23
  -3  -1  22   -0.23    6.84
  -3  -1  23   -3.59   11.26
  -3  -1  24    5.85    8.15
  -3  -1  25   -3.81   12.62
  -3  -1  26   11.94   11.31
  -3  -1  27   -6.30    8.60
  -3   0 -25  116.35   13.93
  -3   0 -23  126.28   10.47
  -3   0 -21  213.67   12.73
  -3   0 -19  529.72   19.37
  -3   0 -17   67.28    6.66
  -3   0 -15    9.48    5.19
  -3   0 -13   67.78    6.68
  -3   0 -11    7.90    3.39
  -3   0  -9  178.37    6.41
  -3   0  -7 1770.75   40.47
  -3   0  -5   57.10    2.73
  -3   0  -3  365.18    8.62
  -3   0  -1  161.53    4.97
  -3   0   1  142.28    3.95
  -3   0   3  245.06    6.59
  -3   0   5    2.73    1.83
  -3   0   7  105.90    3.70
  -3   0   9  264.23    8.80
  -3   0  11 1886.37   48.28
  -3   0  13  111.86    8.26
  -3   0  15   -7.22    5.17
  -3   0  17  144.45   18.06
  -3   0  19  330.45   20.20
  -3   0  21   38.12   27.26
  -3   0  23   61.98   10.40
  -3   0  25  142.64   15.08
  -3   0  27   16.95   18.91
  -3   1 -26    0.45   12.48
  -3   1 -25   45.09   44.19
  -3   1 -24   43.49   33.29
  -3   1 -23   22.98    8.06
  -3   1 -22   21.83   10.81
  -3   1 -21  161.53    9.55
  -3   1 -20   47.55   10.16
  -3   1 -19   15.84    7.18
  -3   1 -18  668.48  310.74
  -3   1 -17  614.47   20.11
  -3   1 -16   18.71    5.85
  -3   1 -15   75.65    9.14
  -3   1 -14   60.56    6.55
  -3   1 -13   15.62    3.79
  -3   1 -12   -4.06    2.91
  -3   1 -11   26.86    3.90
  -3   1 -10  197.74    6.34
  -3   1  -9   61.50    3.07
  -3   1  -8   58.70    3.00
  -3   1  -7 5088.05  105.02
  -3   1  -6   10.83    2.28
  -3   1  -5  311.60   10.61
  -3   1  -4   29.57    2.78
  -3   1  -3 1498.85   44.21
  -3   1  -2  987.77   26.45
  -3   1  -1 3636.51   83.35
  -3   1   0  236.67    6.48
  -3   1   1  952.20   24.10
  -3   1   2  509.85   14.24
  -3   1   3 1929.68   42.23
  -3   1   4  236.19    6.00
  -3   1   5 1474.52   30.00
  -3   1   6    9.95    2.28
  -3   1   7  673.94   14.83
  -3   1   8  200.69    5.96
  -3   1   9 1443.53   30.83
  -3   1  10  306.32   15.78
  -3   1  11 1828.10   64.23
  -3   1  12   39.07    6.39
  -3   1  13   43.29    5.94
  -3   1  14   12.46    8.17
  -3   1  15   31.58    7.27
  -3   1  16    8.58    8.53
  -3   1  17   34.15    8.42
  -3   1  18   61.73    8.51
  -3   1  19   13.99    9.21
  -3   1  20    9.66   12.44
  -3   1  21   52.88   16.39
  -3   1  22   13.32   15.80
  -3   1  23   18.98   32.73
  -3   1  24   16.45   11.47
  -3   1  25    0.00    2.26
  -3   1  26  -16.70    8.60
  -3   1  27  -13.32   20.52
  -3   2 -26   16.70   11.78
  -3   2 -25   29.41   41.05
  -3   2 -24   31.58   13.50
  -3   2 -23   73.08    9.75
  -3   2 -22   30.74   19.66
  -3   2 -21    5.64    7.43
  -3   2 -20   -2.03    6.57
  -3   2 -19  180.38   13.72
  -3   2 -18   27.33    4.09
  -3   2 -17   20.99    4.97
  -3   2 -16  158.87    7.58
  -3   2 -15   61.50    4.72
  -3   2 -14   90.73    7.45
  -3   2 -13   10.83    3.36
  -3   2 -12   91.30    4.31
  -3   2 -11   20.04    2.41
  -3   2 -10  485.73   14.56
  -3   2  -9  197.31    6.34
  -3   2  -8   84.25    3.86
  -3   2  -7 1433.28   33.00
  -3   2  -6    5.64    1.15
  -3   2  -5  153.99    4.85
  -3   2  -4 2842.77   78.50
  -3   2  -3  338.14    8.85
  -3   2  -2  480.45   12.50
  -3   2  -1 2519.32   64.84
  -3   2   0 6982.19  178.26
  -3   2   1  157.74    4.54
  -3   2   2 3523.26   87.39
  -3   2   3  942.02   23.07
  -3   2   4  956.85   22.30
  -3   2   5  228.41    6.82
  -3   2   6  921.85   22.80
  -3   2   7  279.60    7.04
  -3   2   8  157.00    7.15
  -3   2   9  826.83   22.46
  -3   2  10   72.81    8.46
  -3   2  11  288.71   13.79
  -3   2  12    2.48    5.21
  -3   2  13   35.21    5.89
  -3   2  14   81.79    7.34
  -3   2  15   14.22    6.79
  -3   2  16   86.49    8.67
  -3   2  17  644.62   27.47
  -3   2  18   99.22   17.65
  -3   2  19  138.74   12.03
  -3   2  20  -15.37   11.08
  -3   2  21  106.82   13.36
  -3   2  22   20.99    8.80
  -3   2  23  185.25   33.95
  -3   2  25   69.02   19.73
  -3   2  26    6.30   12.37
  -3   3 -25   -8.33   13.27
  -3   3 -24    4.06   36.54
  -3   3 -23  127.63   34.96
  -3   3 -22   27.81   10.45
  -3   3 -21  226.15   17.18
  -3   3 -20   72.56    9.98
  -3   3 -19   93.60   10.77
  -3   3 -18  577.79   43.33
  -3   3 -17  534.57   22.23
  -3   3 -16  226.60   12.21
  -3   3 -15  337.04   17.11
  -3   3 -14   19.37    1.99
  -3   3 -13   42.91    6.68
  -3   3 -12  105.29   32.68
  -3   3 -11   92.74    4.92
  -3   3 -10   69.02    4.99
  -3   3  -9   30.90    3.68
  -3   3  -8  559.87   16.36
  -3   3  -7 2397.18   75.02
  -3   3  -6  249.31    8.53
  -3   3  -5  108.70    4.38
  -3   3  -4  173.59    5.55
  -3   3  -3   43.70    2.78
  -3   3  -2  159.64    4.56
  -3   3  -1  244.59    6.57
  -3   3   0  531.12   13.86
  -3   3   1   63.65    3.36
  -3   3   2  167.69    6.23
  -3   3   3  152.87    4.47
  -3   3   4  238.05    6.95
  -3   3   5   87.59    5.06
  -3   3   6  467.36   13.63
  -3   3   7  232.99    8.26
  -3   3   8    2.26    2.93
  -3   3   9  703.91   32.68
  -3   3  10   34.69    4.78
  -3   3  11   78.30    9.57
  -3   3  12   83.98    9.64
  -3   3  13   58.93    9.46
  -3   3  14   18.33    7.20
  -3   3  15   22.12    6.50
  -3   3  16   71.28   11.17
  -3   3  17  931.01   44.91
  -3   3  18  109.33   13.81
  -3   3  19   -7.00    9.46
  -3   3  20   38.68    7.65
  -3   3  21   22.12    8.62
  -3   3  22    9.66   29.07
  -3   3  23   44.69   33.13
  -3   3  24   13.11   11.10
  -3   3  25   33.45   13.56
  -3   4 -24    5.85    9.89
  -3   4 -23  -13.99    7.43
  -3   4 -22    7.00   14.22
  -3   4 -21   20.04   11.04
  -3   4 -20   -3.59    6.77
  -3   4 -19   11.94    9.23
  -3   4 -18   -2.26   14.44
  -3   4 -17  255.99   12.98
  -3   4 -16    3.59    8.08
  -3   4 -15   54.42    5.98
  -3   4 -14   11.74   15.55
  -3   4 -13   17.56   12.84
  -3   4 -12    9.48    5.19
  -3   4 -11    2.93    3.39
  -3   4 -10   81.79    7.34
  -3   4  -9  143.36    7.56
  -3   4  -8    6.07    3.18
  -3   4  -7 1287.05   39.88
  -3   4  -6   13.54    1.33
  -3   4  -5  100.12    4.20
  -3   4  -4  818.21   22.34
  -3   4  -3  210.17    7.40
  -3   4  -2   10.34    2.51
  -3   4  -1 1738.02   41.35
  -3   4   0  154.74    5.24
  -3   4   1   -1.78    1.81
  -3   4   2  394.45   11.33
  -3   4   3  132.44    6.57
  -3   4   4  438.58   15.73
  -3   4   5  526.96   15.17
  -3   4   6  136.62    6.68
  -3   4   7   24.58    6.12
  -3   4   8  140.50    7.13
  -3   4   9   90.44    8.85
  -3   4  10  227.96   16.34
  -3   4  11   15.84    8.37
  -3   4  12    3.14    8.31
  -3   4  13   -1.33   11.67
  -3   4  14   44.49   14.22
  -3   4  15  134.86    8.73
  -3   4  16    4.94   13.97
  -3   4  17  191.03   14.54
  -3   4  18   -4.94   10.36
  -3   4  19   57.10   14.99
  -3   4  20   60.33   10.50
  -3   4  21  206.27   18.12
  -3   4  23   61.50   24.74
  -3   4  24   12.68   13.59
  -3   5 -22   17.83   14.47
  -3   5 -21   41.93   31.33
  -3   5 -20   36.47   10.34
  -3   5 -19   -4.06   16.45
  -3   5 -18  102.22   10.95
  -3   5 -17   96.53   16.84
  -3   5 -16    3.14   13.75
  -3   5 -15   69.02    7.74
  -3   5 -14   29.09    6.82
  -3   5 -13    4.74    3.41
  -3   5 -12   12.68    5.67
  -3   5 -11   20.58    5.87
  -3   5 -10   11.33    5.15
  -3   5  -9    5.21    5.21
  -3   5  -8  126.28    6.75
  -3   5  -7  446.79   13.34
  -3   5  -6   35.39    2.51
  -3   5  -5    9.66    1.58
  -3   5  -4  161.15    5.73
  -3   5  -3   96.24    3.84
  -3   5  -2   63.87    2.89
  -3   5  -1  875.04   27.56
  -3   5   0    1.13    2.73
  -3   5   1   99.22    5.08
  -3   5   2   57.33    4.33
  -3   5   3  327.17   12.50
  -3   5   4  311.08   11.67
  -3   5   5   20.58    3.14
  -3   5   6  191.44    7.06
  -3   5   7    1.33    2.69
  -3   5   8  138.74   10.97
  -3   5   9  258.88   12.10
  -3   5  10   43.29    5.94
  -3   5  11   -8.76    6.75
  -3   5  12    5.21    7.67
  -3   5  13  263.26   16.57
  -3   5  14    4.29    8.78
  -3   5  15  222.99   15.26
  -3   5  16   14.67    7.47
  -3   5  17   30.40    8.13
  -3   5  18  241.77   17.76
  -3   5  19   58.93   12.23
  -3   5  20   39.99   18.06
  -3   5  21    4.06   11.74
  -3   5  22   17.83    8.76
  -3   5  23   27.81   28.21
  -3   6 -20   12.68    8.78
  -3   6 -19   10.83    6.14
  -3   6 -18   10.83   10.18
  -3   6 -17   37.94    8.89
  -3   6 -16   68.77   24.42
  -3   6 -15   32.07    5.44
  -3   6 -14  116.35    8.42
  -3   6 -13   12.14    4.29
  -3   6 -12   35.93    7.38
  -3   6 -11    7.22    5.17
  -3   6 -10   -5.21    5.89
  -3   6  -9   73.58    9.80
  -3   6  -8   38.87    6.55
  -3   6  -7    1.60    3.63
  -3   6  -6  173.99    9.12
  -3   6  -5   28.44    4.49
  -3   6  -4   41.73    5.06
  -3   6  -3  121.61    6.64
  -3   6  -2   94.48    9.34
  -3   6  -1   77.51    8.19
  -3   6   0   29.75    6.73
  -3   6   1   66.31    9.55
  -3   6   2  226.15   15.37
  -3   6   3   45.91    7.74
  -3   6   4  320.15   16.66
  -3   6   5   92.74    7.52
  -3   6   6  122.60    9.64
  -3   6   7   18.98    7.47
  -3   6   8   49.86    6.36
  -3   6   9    7.00    7.22
  -3   6  10   75.41   34.44
  -3   6  11    6.07    9.48
  -3   6  12   38.12   12.62
  -3   6  13   -6.30   11.92
  -3   6  14   40.58   10.90
  -3   6  15   79.36   10.45
  -3   6  16   -0.45   14.76
  -3   6  17  124.27   13.41
  -3   6  18   22.55   17.54
  -3   6  19   -1.13   12.91
  -3   6  20   36.47   11.44
  -3   7 -17   45.09    8.87
  -3   7 -16   68.52    7.72
  -3   7 -15    4.94    6.27
  -3   7 -14   20.31    7.45
  -3   7 -13   11.01   10.77
  -3   7 -12    4.06    7.67
  -3   7 -11    6.75    5.39
  -3   7 -10    4.94    5.87
  -3   7  -9   41.14    3.86
  -3   7  -8   39.99    5.12
  -3   7  -7  126.96   16.93
  -3   7  -6    5.21    4.04
  -3   7  -5   74.62    6.23
  -3   7  -4   46.31    6.14
  -3   7  -3    2.93    5.39
  -3   7  -2  176.38   11.17
  -3   7  -1  460.88   30.97
  -3   7   0   36.83   12.21
  -3   7   1    3.59    4.27
  -3   7   2  154.36   11.19
  -3   7   3  149.55   12.86
  -3   7   4    4.29    7.92
  -3   7   5  325.55  183.79
  -3   7   6   11.53    7.24
  -3   7   7    1.78    4.27
  -3   7   8   17.56    8.31
  -3   7   9   87.89    8.73
  -3   7  10   25.93    9.48
  -3   7  11   10.34    6.57
  -3   7  12    2.73    7.70
  -3   7  13    5.42    6.30
  -3   7  14   54.19   23.22
  -3   7  15  109.96   16.07
  -3   7  16    4.06    9.93
  -3   7  17   55.07   14.04
  -3   8   1  132.44   10.72
  -3   8   2   21.42    6.95
  -3   8   3   -1.33    6.95
  -3   8   4   46.72    7.20
  -3   8   5   37.01    6.77
  -3   8   6   75.14   11.19
  -3   8   7    1.78    9.89
  -3   8   8    4.29    7.65
  -3   8   9   14.90    8.13
  -3   8  10   52.00   10.61
  -3   8  11    2.48    8.82
  -3   8  12   -9.03    7.40
  -3   8  13   22.82   13.79
  -2  -9  -6   -1.60    7.24
  -2  -9  -5   -0.23    6.84
  -2  -8 -13   -0.23    5.03
  -2  -8 -12    4.94    9.68
  -2  -8 -11    7.47    5.42
  -2  -8 -10    7.22    7.02
  -2  -8  -9    5.21    7.27
  -2  -8  -8   20.99   12.39
  -2  -8  -7   32.07   10.20
  -2  -8  -6   -4.06    7.45
  -2  -8  -5   27.02   11.24
  -2  -8  -4   27.96    9.52
  -2  -8  -3  101.61   11.22
  -2  -8  -2   60.80    9.37
  -2  -8  -1  120.93   10.25
  -2  -8   0    3.59    7.63
  -2  -7 -17   61.25   16.23
  -2  -7 -16   25.48   39.43
  -2  -7 -15   23.25   17.11
  -2  -7 -14   56.20    9.46
  -2  -7 -13  102.22   26.43
  -2  -7 -12   20.99    8.40
  -2  -7 -11    9.21   14.67
  -2  -7 -10   -8.15    9.68
  -2  -7  -9   61.73   12.50
  -2  -7  -8   73.33   11.33
  -2  -7  -7  116.03   12.30
  -2  -7  -6   50.29   13.86
  -2  -7  -5   27.96    9.52
  -2  -7  -4   13.54    9.07
  -2  -7  -3   56.42   14.44
  -2  -7  -2    2.48    4.49
  -2  -7  -1   -2.03    6.77
  -2  -7   0   54.84   10.90
  -2  -7   1   79.90    9.39
  -2  -7   2  167.31   15.93
  -2  -7   3   65.32    6.57
  -2  -7   4   -0.23    4.78
  -2  -6 -20   32.41   10.79
  -2  -6 -19  -16.95   14.22
  -2  -6 -18   29.09   11.51
  -2  -6 -17   43.11   14.40
  -2  -6 -16  176.38   20.36
  -2  -6 -15  177.58   60.85
  -2  -6 -14    2.48    9.05
  -2  -6 -13    0.45   10.22
  -2  -6 -12   68.27    9.93
  -2  -6 -11   82.34   34.62
  -2  -6 -10   19.91    6.30
  -2  -6  -9    4.49   10.38
  -2  -6  -8   49.23    7.81
  -2  -6  -7   43.29   24.13
  -2  -6  -6   81.25    9.75
  -2  -6  -5  229.78   15.03
  -2  -6  -4  162.68    9.21
  -2  -6  -3  164.60   10.79
  -2  -6  -2   76.44   21.53
  -2  -6  -1   44.10   14.17
  -2  -6   0   16.70    7.85
  -2  -6   1    9.03    4.69
  -2  -6   2    6.07    4.97
  -2  -6   3  155.10    8.60
  -2  -6   4   35.21    4.29
  -2  -6   5   36.83    5.46
  -2  -6   6   12.68    4.06
  -2  -6   7  230.69   14.60
  -2  -5 -22   72.31   27.08
  -2  -5 -21   79.11   12.30
  -2  -5 -20    2.48   20.09
  -2  -5 -19  160.38   15.98
  -2  -5 -18    3.81   10.79
  -2  -5 -17   73.85   12.66
  -2  -5 -16  131.74    7.58
  -2  -5 -15    7.00    5.87
  -2  -5 -14   11.94    4.27
  -2  -5 -13   -6.07    6.95
  -2  -5 -12   46.11    5.91
  -2  -5 -11   10.83    3.36
  -2  -5 -10    4.94    3.61
  -2  -5  -9   50.71    4.49
  -2  -5  -8  246.46    9.91
  -2  -5  -7  166.16    6.59
  -2  -5  -6  332.64   11.51
  -2  -5  -5   42.12    3.52
  -2  -5  -4    8.33    2.51
  -2  -5  -3   88.16    7.34
  -2  -5  -2   54.19    2.21
  -2  -5  -1  258.40    7.72
  -2  -5   0    1.13    4.06
  -2  -5   1    5.21    2.96
  -2  -5   2  317.47   15.53
  -2  -5   3   -1.78    2.01
  -2  -5   4    0.23    4.33
  -2  -5   5   10.83    6.14
  -2  -5   6  841.59   27.02
  -2  -5   7  419.30   12.91
  -2  -5   8  717.52   22.52
  -2  -5   9   45.30    3.23
  -2  -5  10   31.73    3.20
  -2  -4 -24   82.88    9.57
  -2  -4 -23    9.03    9.75
  -2  -4 -22   49.86    7.85
  -2  -4 -21   -4.49    7.90
  -2  -4 -20   11.53   11.01
  -2  -4 -19    1.33    5.85
  -2  -4 -18   42.52    7.83
  -2  -4 -17  368.63   12.12
  -2  -4 -16 1041.35   38.78
  -2  -4 -15  663.06   20.90
  -2  -4 -14    5.42    3.63
  -2  -4 -13  151.76    7.76
  -2  -4 -12  310.54   12.19
  -2  -4 -11   97.41    6.23
  -2  -4 -10    4.06    4.72
  -2  -4  -9    1.13    3.41
  -2  -4  -8  723.16   21.01
  -2  -4  -7   53.31    4.18
  -2  -4  -6  615.96   20.88
  -2  -4  -5  216.76    7.97
  -2  -4  -4   41.93    2.91
  -2  -4  -3    1.78    1.81
  -2  -4  -2   10.34    2.03
  -2  -4  -1   27.02    1.40
  -2  -4   0    2.48    0.47
  -2  -4   1   54.19    5.30
  -2  -4   2   63.15    5.26
  -2  -4   3  803.67   37.49
  -2  -4   4  453.18   12.14
  -2  -4   5  503.08   14.15
  -2  -4   6  197.74    6.34
  -2  -4   7  335.39   10.45
  -2  -4   8  240.37    7.92
  -2  -4   9    7.65    1.17
  -2  -4  10   37.94    2.03
  -2  -4  11   22.12    1.83
  -2  -4  12   45.30    3.63
  -2  -4  14   26.41    6.03
  -2  -4  15  316.93   16.05
  -2  -3 -25   10.13   12.44
  -2  -3 -24   13.11   11.10
  -2  -3 -23   12.89   15.10
  -2  -3 -22  135.56    9.43
  -2  -3 -21   26.25    5.69
  -2  -3 -20    7.00    7.00
  -2  -3 -19  282.10   12.62
  -2  -3 -18   -1.33    5.15
  -2  -3 -17   40.20    5.15
  -2  -3 -16  105.60    7.11
  -2  -3 -15   21.83    7.15
  -2  -3 -14   11.33    3.63
  -2  -3 -13   14.44    5.82
  -2  -3 -12   17.83    4.31
  -2  -3 -11  119.94    5.91
  -2  -3 -10   77.23    5.28
  -2  -3  -9  171.22    7.09
  -2  -3  -8  763.29   22.41
  -2  -3  -7 1414.01   38.41
  -2  -3  -6  755.01   22.30
  -2  -3  -5   16.45    2.08
  -2  -3  -4   48.80    2.30
  -2  -3  -3    4.06    1.58
  -2  -3  -2  124.92    3.70
  -2  -3  -1 1092.38   27.81
  -2  -3   0   22.39    0.86
  -2  -3   1   26.25    5.85
  -2  -3   2  134.16    6.95
  -2  -3   3   70.28    2.01
  -2  -3   4  148.44    4.02
  -2  -3   5    8.76    1.33
  -2  -3   6 1404.98   40.54
  -2  -3   7   36.47    2.17
  -2  -3   8 1738.02   47.60
  -2  -3   9   73.33    3.61
  -2  -3  10  401.05   15.03
  -2  -3  11    2.48    1.56
  -2  -3  12   62.20    4.02
  -2  -3  13   43.29    3.16
  -2  -3  14   17.56    2.89
  -2  -3  15  199.00   11.44
  -2  -3  16  202.84   56.06
  -2  -3  17 1072.61   81.68
  -2  -3  18   20.31    8.53
  -2  -3  19  151.40   12.21
  -2  -3  20   -8.76    9.43
  -2  -2 -26    6.30   15.75
  -2  -2 -25   16.70    9.46
  -2  -2 -24  194.37   20.11
  -2  -2 -23    8.15    7.04
  -2  -2 -22   52.88    7.65
  -2  -2 -21    3.81    6.27
  -2  -2 -20    2.26    5.87
  -2  -2 -19    3.14    4.54
  -2  -2 -18  322.84   12.96
  -2  -2 -17   80.71    6.21
  -2  -2 -16   80.44    6.48
  -2  -2 -15   75.65    5.76
  -2  -2 -14  112.49    5.73
  -2  -2 -13   -9.66    3.84
  -2  -2 -12  176.77    7.20
  -2  -2 -11  319.61   10.74
  -2  -2 -10   18.08    3.84
  -2  -2  -9   -3.14    3.14
  -2  -2  -8 1159.94   30.70
  -2  -2  -7  354.91    9.05
  -2  -2  -6   69.27    3.50
  -2  -2  -5   57.78    3.20
  -2  -2  -4   10.34    1.35
  -2  -2  -3  129.69    3.77
  -2  -2  -2  567.00   15.03
  -2  -2  -1 1354.76   33.18
  -2  -2   0    3.14    0.70
  -2  -2   1 3879.61  179.66
  -2  -2   2   64.12    1.92
  -2  -2   3   33.63    1.56
  -2  -2   4   56.20    2.71
  -2  -2   5  433.57   11.89
  -2  -2   6  117.00    4.22
  -2  -2   7  124.27    4.02
  -2  -2   8   13.32    1.53
  -2  -2   9    5.42    2.03
  -2  -2  10  131.74    6.21
  -2  -2  11    5.42    2.93
  -2  -2  12   66.31    3.43
  -2  -2  13   -1.33    2.69
  -2  -2  14   19.91    3.61
  -2  -2  15  302.66   12.03
  -2  -2  16  366.33   18.39
  -2  -2  17  271.11   18.80
  -2  -2  18  128.99   13.99
  -2  -2  19    8.15    7.47
  -2  -2  20   32.77    9.28
  -2  -2  21  153.61   14.15
  -2  -2  22    0.23   10.74
  -2  -2  23   -6.75    7.88
  -2  -2  24    2.48   12.66
  -2  -2  25   -0.90   10.36
  -2  -1 -27   24.13   12.84
  -2  -1 -26   17.56    9.19
  -2  -1 -25    6.07    6.73
  -2  -1 -24   67.03   11.56
  -2  -1 -23   15.84    8.13
  -2  -1 -22   36.83    8.22
  -2  -1 -21   70.01    7.54
  -2  -1 -20    2.93    4.94
  -2  -1 -19   25.77    5.96
  -2  -1 -18  188.55    8.26
  -2  -1 -17   39.81    4.92
  -2  -1 -16   15.62    6.77
  -2  -1 -15  203.69    9.01
  -2  -1 -14   14.90    4.29
  -2  -1 -13    9.95    3.88
  -2  -1 -12   13.54    4.31
  -2  -1 -11  372.67   11.01
  -2  -1 -10  461.53   14.85
  -2  -1  -9   39.43    3.02
  -2  -1  -8 1034.58   22.23
  -2  -1  -7   -0.90    2.01
  -2  -1  -6 1008.65   20.99
  -2  -1  -5    9.03    1.99
  -2  -1  -4 2243.77   49.81
  -2  -1  -3  236.67    6.00
  -2  -1  -2   28.28    1.76
  -2  -1  -1 1236.90   54.96
  -2  -1   0   13.99    2.26
  -2  -1   1    1.60    0.68
  -2  -1   2   54.64    2.44
  -2  -1   3  128.31    3.75
  -2  -1   4 6909.58  164.85
  -2  -1   5    2.93    1.60
  -2  -1   6 1216.90   45.07
  -2  -1   7   16.21    2.41
  -2  -1   8 4053.70   84.16
  -2  -1   9   82.61    6.55
  -2  -1  10 5965.21  218.14
  -2  -1  11  117.66    7.83
  -2  -1  12   73.08    4.63
  -2  -1  13   -0.23    4.11
  -2  -1  14   16.21    7.27
  -2  -1  15   20.99    7.02
  -2  -1  16  373.26   23.22
  -2  -1  17   35.57    7.70
  -2  -1  18  449.34   26.11
  -2  -1  19   85.92   11.15
  -2  -1  20    2.48    6.12
  -2  -1  21   54.19    8.40
  -2  -1  22   -2.48   11.76
  -2  -1  23   16.95    9.28
  -2  -1  24   44.28   12.19
  -2  -1  25   40.20   14.85
  -2  -1  26   53.96   27.38
  -2  -1  27    2.73   10.43
  -2   0 -26   35.93   10.99
  -2   0 -24  140.14   13.52
  -2   0 -22  152.87   24.89
  -2   0 -20    3.36    4.02
  -2   0 -18  984.93   31.12
  -2   0 -16   79.90    5.91
  -2   0 -14   73.33    5.39
  -2   0 -12  214.55    8.35
  -2   0 -10 1169.17   29.79
  -2   0  -8 5094.49  122.24
  -2   0  -6  801.95   17.02
  -2   0  -4 3987.02   91.07
  -2   0   0   -0.23    0.90
  -2   0   2    2.26    1.13
  -2   0   4 1972.14   54.71
  -2   0   6    9.03    2.26
  -2   0   8  253.12    7.18
  -2   0  10  414.38   14.67
  -2   0  12   98.61    9.25
  -2   0  14  105.90    9.28
  -2   0  16   33.81   10.83
  -2   0  18  275.58   16.95
  -2   0  20   13.32    9.77
  -2   0  22   91.86   49.81
  -2   0  24  382.61  213.35
  -2   0  26   28.44   11.22
  -2   1 -27   12.89   11.33
  -2   1 -26    3.59    9.66
  -2   1 -25    3.36   11.01
  -2   1 -24   64.12   10.34
  -2   1 -23   -7.22    7.02
  -2   1 -22   35.39    7.52
  -2   1 -21   85.09    6.66
  -2   1 -20   10.83    4.06
  -2   1 -19   25.93    8.42
  -2   1 -18  197.31   16.05
  -2   1 -17   40.76    4.99
  -2   1 -16   15.62    3.57
  -2   1 -15  214.55    9.68
  -2   1 -14    9.95    4.27
  -2   1 -13   25.93    4.13
  -2   1 -12   12.89    3.68
  -2   1 -11  379.67   12.30
  -2   1 -10  439.84   13.23
  -2   1  -9   41.14    2.89
  -2   1  -8 1057.90   24.42
  -2   1  -7    2.26    1.81
  -2   1  -6  994.39   24.62
  -2   1  -5    5.42    1.60
  -2   1  -4 2195.65   52.09
  -2   1  -3  242.72    7.49
  -2   1  -2   30.40    1.33
  -2   1  -1 1436.69   44.42
  -2   1   0   22.82    1.58
  -2   1   1    2.48    0.90
  -2   1   2   59.63    2.78
  -2   1   3  135.92    4.20
  -2   1   4 7050.15  169.03
  -2   1   5    1.13    2.05
  -2   1   6 1232.68   26.38
  -2   1   7   18.98    2.23
  -2   1   8 4055.61   95.67
  -2   1   9   76.72    3.68
  -2   1  10 5958.24  197.15
  -2   1  11  127.63   21.73
  -2   1  12   94.77    9.37
  -2   1  13    6.30    6.79
  -2   1  14   30.24    9.25
  -2   1  15   41.93    9.73
  -2   1  16  350.96   17.45
  -2   1  17   33.11    7.27
  -2   1  18  476.50   43.94
  -2   1  19   92.15   12.12
  -2   1  20   12.68    6.95
  -2   1  21   65.57   14.60
  -2   1  22   59.63   19.73
  -2   1  23   53.74   40.31
  -2   1  24   25.03   12.17
  -2   1  25   25.32   20.72
  -2   1  26   59.40   10.43
  -2   1  27   36.29   22.07
  -2   2 -26   -8.76   12.19
  -2   2 -25   10.34    9.66
  -2   2 -24  156.23   18.03
  -2   2 -23   18.33   13.11
  -2   2 -22   93.03   22.62
  -2   2 -21    7.47    6.82
  -2   2 -20   17.20    7.22
  -2   2 -19   11.33    4.76
  -2   2 -18  329.90   13.09
  -2   2 -17   92.45    8.08
  -2   2 -16   95.06    5.28
  -2   2 -15   76.20    4.47
  -2   2 -14  109.33    6.59
  -2   2 -13    4.94    4.09
  -2   2 -12  180.79    8.49
  -2   2 -11  311.08    9.01
  -2   2 -10   18.46    1.81
  -2   2  -9    0.00    2.26
  -2   2  -8 1179.46   26.84
  -2   2  -7  313.72    7.99
  -2   2  -6   72.56    3.84
  -2   2  -5   58.00    4.36
  -2   2  -4   13.54    1.11
  -2   2  -3  135.56    4.20
  -2   2  -2  557.75   13.47
  -2   2  -1 1340.43   33.00
  -2   2   0    3.81    3.81
  -2   2   1 3806.96  107.52
  -2   2   2   67.53    2.71
  -2   2   3   26.41    2.01
  -2   2   4   58.48    2.75
  -2   2   5  432.33   12.50
  -2   2   6  112.49    4.47
  -2   2   7  122.60    4.65
  -2   2   8    9.03    3.88
  -2   2   9    4.94    4.74
  -2   2  10  131.74    9.66
  -2   2  11    0.90    4.49
  -2   2  12   59.86    7.90
  -2   2  13   15.37   11.08
  -2   2  14   14.90    9.50
  -2   2  15  309.48   17.45
  -2   2  16  338.14   16.57
  -2   2  17  279.60   14.58
  -2   2  18  145.17   24.26
  -2   2  19   13.32   10.43
  -2   2  20   24.87    7.49
  -2   2  21  127.97   13.25
  -2   2  23    4.29    9.03
  -2   2  24   10.13    9.28
  -2   2  25   11.74   13.79
  -2   2  26  110.91   16.14
  -2   3 -25   17.83   12.68
  -2   3 -24   16.95    9.77
  -2   3 -23   26.70    7.61
  -2   3 -22  117.66   14.33
  -2   3 -21   30.90   12.19
  -2   3 -20   -4.94    6.07
  -2   3 -19  274.59   15.93
  -2   3 -18    2.93    4.94
  -2   3 -17   46.72    7.40
  -2   3 -16  106.21   11.76
  -2   3 -15   21.26    3.18
  -2   3 -14    6.30    1.58
  -2   3 -13    6.52    5.82
  -2   3 -12   16.70    3.57
  -2   3 -11  118.31    6.21
  -2   3 -10   67.03    4.67
  -2   3  -9  168.10    8.17
  -2   3  -8  723.98   23.45
  -2   3  -7 1454.97   43.56
  -2   3  -6  791.78   21.13
  -2   3  -5   21.83    1.53
  -2   3  -4   50.92    2.57
  -2   3  -3    3.14    1.33
  -2   3  -2  124.92    4.04
  -2   3  -1 1095.36   27.85
  -2   3   0   21.83    2.26
  -2   3   1   32.07    2.21
  -2   3   2  129.33    4.45
  -2   3   3   71.55    3.57
  -2   3   4  159.64    4.56
  -2   3   5    7.47    1.81
  -2   3   6 1372.52   38.96
  -2   3   7   31.39    3.54
  -2   3   8 1736.78   58.86
  -2   3   9   71.28    4.56
  -2   3  10  419.30   27.69
  -2   3  11   15.14    6.07
  -2   3  12   64.37    6.75
  -2   3  13   51.35    8.62
  -2   3  14   16.95    8.42
  -2   3  15  200.29   14.04
  -2   3  16  192.27   14.17
  -2   3  17 1045.24   47.60
  -2   3  18   27.81    6.97
  -2   3  19  143.73   11.53
  -2   3  20    7.22   10.59
  -2   3  21   35.03   14.76
  -2   3  22   -7.00    9.05
  -2   3  23   17.31   15.51
  -2   3  24   26.86   18.69
  -2   3  25   11.33   11.53
  -2   4 -24   97.12    9.77
  -2   4 -23   32.93   14.13
  -2   4 -22   70.78   12.64
  -2   4 -21    8.76   23.65
  -2   4 -20    4.74    6.09
  -2   4 -19    8.33    4.51
  -2   4 -18   44.89    6.84
  -2   4 -17  396.85   24.53
  -2   4 -16 1031.67   37.65
  -2   4 -15  648.43   27.54
  -2   4 -14   15.62    4.04
  -2   4 -13  141.22   10.36
  -2   4 -12  308.96   10.56
  -2   4 -11  104.36    6.14
  -2   4 -10   12.89    2.91
  -2   4  -9    1.78    4.27
  -2   4  -8  723.98   23.45
  -2   4  -7   47.35    3.32
  -2   4  -6  626.45   18.80
  -2   4  -5  224.35    7.65
  -2   4  -4   43.49    2.98
  -2   4  -3    0.90    2.26
  -2   4  -2    5.85    1.83
  -2   4  -1   26.25    2.01
  -2   4   0    5.42    2.03
  -2   4   1   50.92    2.78
  -2   4   2   71.28    3.05
  -2   4   3  794.33   24.56
  -2   4   4  432.94   14.38
  -2   4   5  502.43   14.15
  -2   4   6  195.21    7.97
  -2   4   7  310.54   11.13
  -2   4   8  252.15    9.55
  -2   4   9   22.55    9.28
  -2   4  10   39.43    6.05
  -2   4  11   25.32    4.99
  -2   4  12   61.73    6.61
  -2   4  13    7.22    8.55
  -2   4  14    9.66    5.42
  -2   4  15  310.54   16.41
  -2   4  16  226.60   17.65
  -2   4  17  200.69   28.53
  -2   4  18   17.20    6.61
  -2   4  19   82.88   13.68
  -2   4  20   22.98   33.11
  -2   4  21   13.11   14.69
  -2   4  22   70.28   12.35
  -2   4  23   17.56   17.38
  -2   4  24   -3.81   10.34
  -2   5 -22    9.03    7.40
  -2   5 -21   77.78   10.86
  -2   5 -20  204.55  100.12
  -2   5 -19  152.51   12.98
  -2   5 -18   -2.03    5.87
  -2   5 -17  111.86   17.47
  -2   5 -16  125.26    9.41
  -2   5 -15   10.13   12.14
  -2   5 -14   18.08    5.87
  -2   5 -13   18.33   10.68
  -2   5 -12   51.14    7.31
  -2   5 -11    2.26    4.74
  -2   5 -10    8.76    3.39
  -2   5  -9   44.69    4.83
  -2   5  -8  235.27    7.83
  -2   5  -7  164.22    6.93
  -2   5  -6  318.53   12.32
  -2   5  -5   41.35    3.48
  -2   5  -4    4.29    2.05
  -2   5  -3   87.89    4.51
  -2   5  -2   53.96    3.09
  -2   5  -1  247.41    7.56
  -2   5   0   12.89    2.48
  -2   5   1    8.58    3.16
  -2   5   2  307.38    9.48
  -2   5   3   -0.90    2.71
  -2   5   4    3.36    2.91
  -2   5   5   15.84    4.06
  -2   5   6  828.56   25.96
  -2   5   7  392.67   12.50
  -2   5   8  674.71   20.29
  -2   5   9   53.54    4.83
  -2   5  10   47.55   13.05
  -2   5  11   -2.73    6.79
  -2   5  12    7.47    6.97
  -2   5  13   89.02   10.50
  -2   5  14  217.21   22.14
  -2   5  15  178.37   10.83
  -2   5  16  188.55   13.20
  -2   5  17  159.64   13.68
  -2   5  18   20.04   15.60
  -2   5  19   36.29    9.95
  -2   5  20   30.24   13.54
  -2   5  21   13.77   29.09
  -2   5  22   10.83    9.68
  -2   5  23   30.24   21.80
  -2   6 -20   37.94   18.33
  -2   6 -19    3.36    5.17
  -2   6 -18   35.39   10.02
  -2   6 -17   28.44    5.60
  -2   6 -16  201.55   11.94
  -2   6 -15  118.63   12.75
  -2   6 -14   -0.68    3.63
  -2   6 -13   19.25    9.23
  -2   6 -12  376.17  142.19
  -2   6 -11   36.29    6.52
  -2   6 -10    9.48   10.63
  -2   6  -9    1.60    4.97
  -2   6  -8   51.78    6.05
  -2   6  -7    0.68    4.29
  -2   6  -6   85.36    5.55
  -2   6  -5  180.38    9.28
  -2   6  -4  157.36   10.92
  -2   6  -3  169.66    9.39
  -2   6  -2   71.28    7.11
  -2   6  -1   49.43    7.40
  -2   6   0   19.91    4.02
  -2   6   1   15.84    4.78
  -2   6   2    4.74    3.61
  -2   6   3  180.38   12.91
  -2   6   4   41.14    6.93
  -2   6   5   31.73    6.95
  -2   6   6   17.56    7.18
  -2   6   7  224.35   13.05
  -2   6   8   50.06   11.06
  -2   6   9    9.03    6.32
  -2   6  10   40.76    9.39
  -2   6  11  -10.34    7.63
  -2   6  12   26.70    8.53
  -2   6  13   34.51   16.41
  -2   6  14   -7.90    5.82
  -2   6  15  107.77   15.28
  -2   6  16  280.59   33.72
  -2   6  17   23.99   19.27
  -2   6  18   28.28   11.04
  -2   6  19   46.72   13.77
  -2   6  20   25.03   17.58
  -2   7 -17   45.30    9.10
  -2   7 -16   18.33    7.20
  -2   7 -15    7.47    8.78
  -2   7 -14   57.33    9.77
  -2   7 -13   98.90    7.76
  -2   7 -12   26.70    5.12
  -2   7 -11   -4.06    4.97
  -2   7 -10    2.03    4.49
  -2   7  -9  115.38    8.08
  -2   7  -8   91.00    8.03
  -2   7  -7  130.03    7.54
  -2   7  -6   44.28    5.39
  -2   7  -5   21.83    6.03
  -2   7  -4    6.07    6.07
  -2   7  -3   49.02    5.69
  -2   7  -2    2.48    3.18
  -2   7  -1   -1.13    5.89
  -2   7   0   32.77    4.99
  -2   7   1   78.30   11.96
  -2   7   2  149.19   10.65
  -2   7   3   68.03   11.15
  -2   7   4    1.13    4.74
  -2   7   5    9.03    6.14
  -2   7   6   66.06    9.28
  -2   7   7  181.60  144.97
  -2   7   8   77.51    9.25
  -2   7   9  -15.14    7.49
  -2   7  10    4.49    6.75
  -2   7  11   20.04   14.94
  -2   7  12   14.22    6.57
  -2   7  13   29.09    6.48
  -2   7  14   44.49   15.64
  -2   7  15   -1.13   11.80
  -2   7  16   23.25    9.71
  -2   7  18    6.52   14.65
  -2   8   5    2.48    4.31
  -2   8   6    9.21    6.30
  -2   8   7   57.55   10.50
  -2   8   8   91.00   12.03
  -2   8   9   10.13    5.64
  -2   8  10    3.14    7.20
  -2   8  11    3.59   27.87
  -2   8  12   38.12   12.62
  -2   8  13   49.23   10.54
  -2   8  14   51.14   12.68
  -1  -9  -7   26.86   11.06
  -1  -9  -6   40.76   14.20
  -1  -9  -5   14.22   10.20
  -1  -8 -14   16.70   11.06
  -1  -8 -13   -2.73   11.13
  -1  -8 -12    8.33    4.94
  -1  -8 -11   23.70   11.26
  -1  -8 -10    6.75    7.18
  -1  -8  -9   10.83    5.64
  -1  -8  -8    4.06    7.45
  -1  -8  -7   -8.76    8.53
  -1  -8  -6   32.93   17.42
  -1  -8  -5  115.72   70.46
  -1  -8  -4   -6.07    9.03
  -1  -8  -3   13.32   11.96
  -1  -8  -2   40.58   11.28
  -1  -8  -1   19.91    7.52
  -1  -7 -18   52.23   65.14
  -1  -7 -17    7.22   37.49
  -1  -7 -16    8.76    9.68
  -1  -7 -15   -1.33   13.90
  -1  -7 -14   13.99   14.94
  -1  -7 -13   28.93   14.38
  -1  -7 -12   -2.26   10.61
  -1  -7 -11   12.68    6.95
  -1  -7 -10  100.12   14.42
  -1  -7  -9    5.64    7.92
  -1  -7  -8    1.13    5.67
  -1  -7  -7   26.86    6.55
  -1  -7  -6   21.42   11.53
  -1  -7  -5   64.84    9.19
  -1  -7  -4   12.89    9.93
  -1  -7  -3  166.93   13.97
  -1  -7  -2   94.18    7.29
  -1  -7  -1  173.59   10.70
  -1  -7   0  104.36    8.60
  -1  -7   1   73.85   13.68
  -1  -7   2  215.88   29.14
  -1  -7   3   19.91    9.66
  -1  -6 -20   95.36   20.54
  -1  -6 -19   27.33    9.75
  -1  -6 -18    7.90   13.50
  -1  -6 -17   11.01   10.18
  -1  -6 -16    6.30   13.05
  -1  -6 -15  533.87   45.12
  -1  -6 -14  236.19   21.24
  -1  -6 -13  190.63   22.82
  -1  -6 -12    4.49   10.56
  -1  -6 -11   10.34    8.31
  -1  -6 -10    7.22    9.30
  -1  -6  -9   88.16   10.72
  -1  -6  -8   11.33    9.01
  -1  -6  -7   85.65   13.63
  -1  -6  -6   65.32    7.04
  -1  -6  -5   70.53    9.59
  -1  -6  -4   70.01    7.79
  -1  -6  -3    7.00    4.54
  -1  -6  -2    0.68    3.63
  -1  -6  -1   12.89    5.62
  -1  -6   0   16.21    4.97
  -1  -6   1   20.31    5.69
  -1  -6   2  208.43   12.57
  -1  -6   3   -3.14    4.04
  -1  -6   4  171.22    9.05
  -1  -6   5   11.33    4.56
  -1  -6   6   18.98    6.55
  -1  -5 -23   68.27   22.59
  -1  -5 -22   76.44   25.21
  -1  -5 -21   11.94   15.37
  -1  -5 -20   89.87   43.29
  -1  -5 -19   31.73   17.42
  -1  -5 -18    3.81    8.10
  -1  -5 -17   38.30    6.32
  -1  -5 -16   79.11    8.01
  -1  -5 -15   51.78    6.05
  -1  -5 -14    9.95    5.39
  -1  -5 -13   33.45    5.55
  -1  -5 -12   57.78    8.22
  -1  -5 -11   18.46   10.20
  -1  -5 -10  210.17    8.71
  -1  -5  -9   -1.78    4.27
  -1  -5  -8   11.33    6.07
  -1  -5  -7    4.06    4.72
  -1  -5  -6    4.06    3.39
  -1  -5  -5  185.66    6.95
  -1  -5  -4   -2.48    2.46
  -1  -5  -3   13.32    2.30
  -1  -5  -2   14.90    2.10
  -1  -5  -1   27.96    2.55
  -1  -5   0  240.37    7.45
  -1  -5   1  197.74    5.91
  -1  -5   2  323.38    8.10
  -1  -5   3  104.36    3.99
  -1  -5   4   11.74    1.33
  -1  -5   5   59.63    2.55
  -1  -5   6   21.42    1.81
  -1  -5   7  203.69    9.01
  -1  -5   8   37.94    2.03
  -1  -5   9  183.63    8.96
  -1  -4 -24   39.99   16.72
  -1  -4 -23   55.52   10.07
  -1  -4 -22   27.33    8.80
  -1  -4 -21   27.33   11.94
  -1  -4 -20   11.33   10.61
  -1  -4 -19   23.41    6.25
  -1  -4 -18  284.63   20.27
  -1  -4 -17  690.41   20.52
  -1  -4 -16   -0.90    5.17
  -1  -4 -15  810.49   26.52
  -1  -4 -14   11.53    7.85
  -1  -4 -13  547.14   17.56
  -1  -4 -12   19.64    8.53
  -1  -4 -11   47.76    4.56
  -1  -4 -10   27.96    4.45
  -1  -4  -9  696.73   19.03
  -1  -4  -8   30.40    3.63
  -1  -4  -7    3.81    4.29
  -1  -4  -6  680.19   20.38
  -1  -4  -5  125.60    6.07
  -1  -4  -4 1087.42   28.73
  -1  -4  -3  208.86    6.52
  -1  -4  -2  379.08   10.54
  -1  -4  -1   25.77    1.38
  -1  -4   0  109.64    4.40
  -1  -4   1   25.03    1.35
  -1  -4   2    2.03    0.68
  -1  -4   3  174.78    4.76
  -1  -4   4  127.29    4.06
  -1  -4   5  158.12    4.92
  -1  -4   6    1.13    1.35
  -1  -4   7  621.94   19.48
  -1  -4   8  109.64    4.09
  -1  -4   9   12.46    0.95
  -1  -4  10    1.33    0.90
  -1  -4  11    5.42    0.70
  -1  -4  12   -2.73    3.63
  -1  -4  13   51.78    8.64
  -1  -4  14  358.88   19.93
  -1  -4  15  176.38    9.98
  -1  -4  16  398.63   33.00
  -1  -3 -25  122.26   11.96
  -1  -3 -24   -3.59    9.66
  -1  -3 -23   72.81    9.75
  -1  -3 -22  166.54   11.24
  -1  -3 -21   20.72    6.30
  -1  -3 -20   45.30    7.09
  -1  -3 -19   16.45    5.37
  -1  -3 -18   41.73    8.53
  -1  -3 -17  612.23   17.85
  -1  -3 -16   14.90    5.46
  -1  -3 -15   20.58    6.14
  -1  -3 -14   15.62    6.30
  -1  -3 -13   -1.60    4.74
  -1  -3 -12  257.43   11.58
  -1  -3 -11  148.80    6.23
  -1  -3 -10  312.14   10.09
  -1  -3  -9    3.81    2.93
  -1  -3  -8  274.09    9.46
  -1  -3  -7   39.07    4.13
  -1  -3  -6    9.03    1.99
  -1  -3  -5  608.53   15.57
  -1  -3  -4  706.30   16.77
  -1  -3  -3  149.91    4.78
  -1  -3  -2  107.46    3.43
  -1  -3  -1   29.75    1.81
  -1  -3   0  243.64    6.57
  -1  -3   1 1050.09   26.29
  -1  -3   2  102.22    3.05
  -1  -3   3    1.13    0.90
  -1  -3   4  164.22    5.01
  -1  -3   5   32.41    1.53
  -1  -3   6  254.54    7.67
  -1  -3   7 1185.67   28.98
  -1  -3   8  106.21    4.65
  -1  -3   9  204.55    7.74
  -1  -3  10  278.08   13.52
  -1  -3  11  290.25   10.25
  -1  -3  12    8.76    1.78
  -1  -3  13  172.80    7.11
  -1  -3  14    4.06    3.81
  -1  -3  15  125.26    9.07
  -1  -3  16   30.24    8.60
  -1  -3  17 1023.98   61.53
  -1  -3  18  158.49   12.10
  -1  -3  19   -9.03    8.13
  -1  -3  20  115.06    9.03
  -1  -3  21   27.49   18.12
  -1  -2 -26   15.37    8.37
  -1  -2 -25   91.30   15.51
  -1  -2 -24   14.22    9.30
  -1  -2 -23   69.76   10.79
  -1  -2 -22    9.21    5.37
  -1  -2 -21  236.67   12.93
  -1  -2 -20  138.02    9.19
  -1  -2 -19   13.54    6.75
  -1  -2 -18  293.84   13.90
  -1  -2 -17  344.80   13.38
  -1  -2 -16   11.94    4.47
  -1  -2 -15  315.87   11.76
  -1  -2 -14   82.34    4.63
  -1  -2 -13   99.51    5.69
  -1  -2 -12   -0.45    5.91
  -1  -2 -11 2185.79   59.00
  -1  -2 -10  335.39   11.56
  -1  -2  -9  969.90   27.13
  -1  -2  -8   28.44   15.05
  -1  -2  -7   93.30    3.48
  -1  -2  -6   53.31    2.64
  -1  -2  -5  327.72    9.25
  -1  -2  -4    3.59    1.83
  -1  -2  -3   21.42    1.53
  -1  -2  -2  131.74    3.79
  -1  -2  -1   16.45    1.11
  -1  -2   0 6079.46  325.64
  -1  -2   1    3.14    0.70
  -1  -2   2   83.15    2.46
  -1  -2   3 1464.16   40.24
  -1  -2   4    8.33    1.56
  -1  -2   5  133.12    4.51
  -1  -2   6  251.68    7.15
  -1  -2   7  775.80   21.76
  -1  -2   8   61.50    2.82
  -1  -2   9   77.78    3.45
  -1  -2  10   27.02    2.66
  -1  -2  11    9.21    2.01
  -1  -2  12   68.03    3.48
  -1  -2  13   84.52    5.53
  -1  -2  14  326.09   12.48
  -1  -2  15   47.76    7.90
  -1  -2  16  151.02    7.38
  -1  -2  17   98.31   19.37
  -1  -2  18   11.01    8.08
  -1  -2  19   12.46   11.78
  -1  -2  20   -2.73    5.67
  -1  -2  21   63.65   14.15
  -1  -2  22   22.82    9.32
  -1  -2  23   38.12   26.16
  -1  -2  24    3.59   11.71
  -1  -2  25   62.20   11.38
  -1  -1 -27   12.68    9.30
  -1  -1 -26   15.37    8.60
  -1  -1 -25  142.28   14.69
  -1  -1 -24   15.98    9.01
  -1  -1 -23  282.62   15.66
  -1  -1 -22   49.65    9.32
  -1  -1 -21   32.07    7.15
  -1  -1 -20   28.28    5.44
  -1  -1 -19   12.89    6.36
  -1  -1 -18   17.56    4.92
  -1  -1 -17  146.98    8.01
  -1  -1 -16   23.25    5.37
  -1  -1 -15  152.12    5.94
  -1  -1 -14   -2.03    4.97
  -1  -1 -13   29.57    4.24
  -1  -1 -12  255.99    8.64
  -1  -1 -11    3.36    3.79
  -1  -1 -10  110.28    6.32
  -1  -1  -9    9.21    3.66
  -1  -1  -8   73.08    4.36
  -1  -1  -7   11.01    2.30
  -1  -1  -6   18.46    2.46
  -1  -1  -5   30.24    1.99
  -1  -1  -4  747.61   21.35
  -1  -1  -3  318.53    7.52
  -1  -1  -2   30.06    2.48
  -1  -1  -1   10.13   12.82
  -1  -1   0  103.44   10.38
  -1  -1   1    0.90    0.23
  -1  -1   2  231.61   25.62
  -1  -1   3  149.91    4.04
  -1  -1   4  151.76    4.45
  -1  -1   5   79.36    2.69
  -1  -1   6    1.13    1.58
  -1  -1   7 1220.04   31.49
  -1  -1   8   33.45    2.44
  -1  -1   9  212.36    7.45
  -1  -1  10    0.45    2.05
  -1  -1  11   85.36    4.45
  -1  -1  12   30.90    3.00
  -1  -1  13    8.58    2.03
  -1  -1  14  166.54    7.36
  -1  -1  15 1658.78  123.59
  -1  -1  16   21.83    7.45
  -1  -1  17  405.27   33.88
  -1  -1  18   46.31    8.17
  -1  -1  19   62.92   10.50
  -1  -1  20    7.90    5.67
  -1  -1  21  624.19   39.79
  -1  -1  22    8.58    6.77
  -1  -1  23   -3.14    9.91
  -1  -1  24   13.32    9.21
  -1  -1  25  214.12   23.74
  -1  -1  26   15.37   10.13
  -1  -1  27  -17.83   10.79
  -1   0 -27   27.33   16.18
  -1   0 -25   57.10   11.58
  -1   0 -23  201.12   17.47
  -1   0 -21  557.03   21.98
  -1   0 -19   38.87    8.06
  -1   0 -17  143.73    8.28
  -1   0 -15  399.24   13.20
  -1   0 -13   59.40    4.40
  -1   0 -11 7880.59  221.39
  -1   0  -9 3794.01   90.69
  -1   0  -7 1069.66   24.58
  -1   0  -5   22.39    1.85
  -1   0  -3 1061.83  132.17
  -1   0  -1   -0.68    0.68
  -1   0   1    0.45    0.45
  -1   0   3   -0.45    1.13
  -1   0   5   16.21    1.81
  -1   0   7 1310.88   28.28
  -1   0   9  251.68    6.68
  -1   0  11  133.48    5.89
  -1   0  13  158.49   10.97
  -1   0  15   15.84    5.62
  -1   0  17  159.25   12.89
  -1   0  19   85.65   12.50
  -1   0  21   62.45   15.91
  -1   0  23    5.85   13.09
  -1   0  25    1.13    8.40
  -1   0  27   20.04   15.60
  -1   1 -27   28.44   11.69
  -1   1 -26   19.64   16.25
  -1   1 -25  110.28   12.30
  -1   1 -24   48.80   32.32
  -1   1 -23  292.28   20.54
  -1   1 -22   46.72    7.40
  -1   1 -21   13.77    6.14
  -1   1 -20   35.39    5.37
  -1   1 -19    4.49    5.85
  -1   1 -18   30.06    4.78
  -1   1 -17  150.29    8.10
  -1   1 -16   37.38    4.97
  -1   1 -15  151.76    8.89
  -1   1 -14   -0.45    2.96
  -1   1 -13   23.70    3.36
  -1   1 -12  260.34    8.73
  -1   1 -11    4.74    2.28
  -1   1 -10  130.36    4.81
  -1   1  -9    9.03    1.99
  -1   1  -8   67.03    3.45
  -1   1  -7    7.22    1.78
  -1   1  -6   14.90    1.85
  -1   1  -5   27.96    1.58
  -1   1  -4  718.33   20.13
  -1   1  -3  328.80    9.25
  -1   1  -2   42.12    1.94
  -1   1  -1   63.15    2.39
  -1   1   1    5.85    0.88
  -1   1   2  587.22   18.19
  -1   1   3  168.48    5.46
  -1   1   4  158.49    4.54
  -1   1   5   87.89    3.39
  -1   1   6    1.13    1.83
  -1   1   7 1230.56   29.52
  -1   1   8   30.06    3.45
  -1   1   9  193.94    6.27
  -1   1  10    8.58    4.31
  -1   1  11  104.05    9.82
  -1   1  12   38.12    7.24
  -1   1  13   15.84    5.03
  -1   1  14  179.59   12.07
  -1   1  15 1773.27   99.96
  -1   1  16   22.39    8.53
  -1   1  17  414.99   20.81
  -1   1  18   39.81   21.04
  -1   1  19   54.64    8.67
  -1   1  20   -7.47    9.71
  -1   1  21  673.15   41.33
  -1   1  22    7.22   12.84
  -1   1  23   35.21   46.72
  -1   1  24   22.39   13.79
  -1   1  25  256.96   21.67
  -1   1  26    5.64    8.13
  -1   1  27   12.14   12.14
  -1   2 -26   17.31    8.76
  -1   2 -25   90.73   19.46
  -1   2 -24   19.64   19.43
  -1   2 -23   46.72    8.42
  -1   2 -22   22.98   12.39
  -1   2 -21  221.21   16.09
  -1   2 -20  139.44   12.77
  -1   2 -19   -2.73    3.88
  -1   2 -18  285.15   10.65
  -1   2 -17  349.83   11.80
  -1   2 -16   24.87    3.45
  -1   2 -15  303.18   11.51
  -1   2 -14   84.25    5.51
  -1   2 -13   99.80    4.81
  -1   2 -12   11.33    2.73
  -1   2 -11 2157.80   62.81
  -1   2 -10  336.47    9.93
  -1   2  -9  974.59   25.32
  -1   2  -8   23.99    1.63
  -1   2  -7   96.83    4.74
  -1   2  -6   55.75    2.91
  -1   2  -5  314.26   10.65
  -1   2  -4   -0.23    1.60
  -1   2  -3   23.41    1.31
  -1   2  -2  133.48    3.48
  -1   2  -1   15.98    2.28
  -1   2   0 6133.47  188.26
  -1   2   1    1.13    1.35
  -1   2   2  104.68    7.99
  -1   2   3 1446.96   37.71
  -1   2   4    6.75    1.56
  -1   2   5  125.60    4.04
  -1   2   6  251.20    7.63
  -1   2   7  736.95   16.32
  -1   2   8   63.87    6.48
  -1   2   9   70.53    5.06
  -1   2  10   24.87    3.59
  -1   2  11   17.31    4.24
  -1   2  12   72.81    6.41
  -1   2  13   79.36    7.22
  -1   2  14  333.74   20.31
  -1   2  15   49.02   13.25
  -1   2  16  197.74   19.00
  -1   2  17   91.30   12.05
  -1   2  18   12.14   13.09
  -1   2  19   44.10   16.36
  -1   2  20    3.59   16.43
  -1   2  21   24.13   10.63
  -1   2  22   20.31    7.04
  -1   2  23   29.57   13.07
  -1   2  24   20.72   15.60
  -1   2  25   53.74   12.35
  -1   2  26   51.14   24.29
  -1   3 -25  123.59   14.04
  -1   3 -24   -3.14    8.31
  -1   3 -23   76.72   15.01
  -1   3 -22  165.37   13.90
  -1   3 -21    2.48   10.38
  -1   3 -20   56.88    7.24
  -1   3 -19   19.25    5.15
  -1   3 -18   44.10    6.59
  -1   3 -17  598.19   25.73
  -1   3 -16   25.48    2.73
  -1   3 -15   20.58    2.05
  -1   3 -14   10.13    1.33
  -1   3 -13    1.78    3.57
  -1   3 -12  258.40    9.66
  -1   3 -11  147.72    7.31
  -1   3 -10  314.26   12.26
  -1   3  -9   -5.21    2.46
  -1   3  -8  272.10    8.42
  -1   3  -7   50.71    3.43
  -1   3  -6   13.32    2.53
  -1   3  -5  588.67   18.21
  -1   3  -4  714.29   18.46
  -1   3  -3  148.44    4.76
  -1   3  -2  100.41    3.32
  -1   3  -1   32.93    1.72
  -1   3   0  249.31    7.11
  -1   3   1 1022.06   27.85
  -1   3   2  107.77    4.06
  -1   3   3    0.90    2.26
  -1   3   4  162.68    5.76
  -1   3   5   25.48    2.28
  -1   3   6  235.74    8.31
  -1   3   7 1204.35   38.57
  -1   3   8  102.83    4.88
  -1   3   9  204.98    9.03
  -1   3  10  280.59   11.58
  -1   3  11  322.30   14.56
  -1   3  12   16.70    7.24
  -1   3  13  172.41   10.25
  -1   3  14    8.15   10.81
  -1   3  15  108.38    9.07
  -1   3  16   39.07   10.52
  -1   3  17  998.18   37.96
  -1   3  18  145.89   10.52
  -1   3  19   24.13   12.39
  -1   3  20  132.08   16.93
  -1   3  21   11.01    8.78
  -1   3  22    8.33   10.40
  -1   3  23   11.33   25.08
  -1   3  24   11.33    9.50
  -1   3  25  192.70   35.03
  -1   3  26   10.83   10.38
  -1   4 -24   53.74   21.37
  -1   4 -23   67.78   12.86
  -1   4 -22   20.31   10.16
  -1   4 -21   11.74    9.48
  -1   4 -20   -3.59   11.94
  -1   4 -19   33.11    8.82
  -1   4 -18  221.66   15.66
  -1   4 -17  648.43   26.02
  -1   4 -16    6.75    5.15
  -1   4 -15  789.25   44.73
  -1   4 -14   21.26    4.72
  -1   4 -13  531.79   16.63
  -1   4 -12   22.12    4.81
  -1   4 -11   36.11    4.33
  -1   4 -10   25.03    3.00
  -1   4  -9  674.71   21.85
  -1   4  -8   26.41    3.39
  -1   4  -7    4.74    3.61
  -1   4  -6  720.75   23.38
  -1   4  -5  120.93    5.62
  -1   4  -4 1084.46   31.67
  -1   4  -3  224.35    7.20
  -1   4  -2  367.48   10.36
  -1   4  -1   20.31    2.03
  -1   4   0  112.80    3.52
  -1   4   1   30.74    2.32
  -1   4   2   -2.48    1.81
  -1   4   3  172.01    6.70
  -1   4   4  127.97    7.13
  -1   4   5  157.36    7.15
  -1   4   6   16.70    5.39
  -1   4   7  621.94   22.48
  -1   4   8  118.63    6.21
  -1   4   9   14.22    4.09
  -1   4  10    8.76    4.72
  -1   4  11    4.29    7.47
  -1   4  12   10.34   12.37
  -1   4  13   58.00    6.18
  -1   4  14  346.47   15.66
  -1   4  15  211.05   16.16
  -1   4  16  407.68   23.65
  -1   4  17  128.99   20.81
  -1   4  18  101.02   15.71
  -1   4  19   57.55   12.07
  -1   4  20   37.20   13.02
  -1   4  21    6.07    6.73
  -1   4  22   -7.65   12.62
  -1   4  23    7.22   13.56
  -1   4  24   20.31   20.72
  -1   5 -23   25.77   12.66
  -1   5 -22   67.28   13.81
  -1   5 -21   -4.06    7.45
  -1   5 -20   58.00    7.31
  -1   5 -19   11.01    8.58
  -1   5 -18   21.83    7.85
  -1   5 -17   40.58   18.19
  -1   5 -16   72.81    9.48
  -1   5 -15   63.15   10.27
  -1   5 -14   11.53    3.36
  -1   5 -13   37.01    4.58
  -1   5 -12   53.74    7.27
  -1   5 -11    9.21    6.57
  -1   5 -10  240.84   13.52
  -1   5  -9    1.78    2.93
  -1   5  -8   10.63    2.93
  -1   5  -7   10.13    2.69
  -1   5  -6    3.36    2.26
  -1   5  -5  183.63    7.34
  -1   5  -4    1.33    2.26
  -1   5  -3   19.37    2.51
  -1   5  -2    9.03    1.99
  -1   5  -1   35.93    2.71
  -1   5   0  218.09    7.54
  -1   5   1  196.90    7.58
  -1   5   2  320.15   11.83
  -1   5   3  108.09    5.94
  -1   5   4    7.90    2.71
  -1   5   5   66.06    4.15
  -1   5   6   20.72    4.11
  -1   5   7  212.36    7.45
  -1   5   8   48.59    5.87
  -1   5   9  178.78    8.44
  -1   5  10   35.21    6.07
  -1   5  11   35.21   10.16
  -1   5  12   47.35   21.51
  -1   5  13   18.08    9.21
  -1   5  14   78.02    9.55
  -1   5  15    0.23    5.71
  -1   5  16  219.88   16.05
  -1   5  17 1327.25   83.19
  -1   5  18  112.17   16.54
  -1   5  19   30.24    8.76
  -1   5  20    9.03   11.28
  -1   5  21   19.25   10.81
  -1   5  22  -15.84   13.16
  -1   5  23   35.57   19.52
  -1   6 -20   60.33   14.94
  -1   6 -19   46.52   10.65
  -1   6 -18   12.89   22.86
  -1   6 -17    5.64    5.21
  -1   6 -16   11.53    8.58
  -1   6 -15  491.71   25.98
  -1   6 -14  245.06   15.05
  -1   6 -13  143.00    8.98
  -1   6 -12    0.23    5.03
  -1   6 -11   26.86    7.47
  -1   6 -10    5.85    4.06
  -1   6  -9   86.76    7.56
  -1   6  -8    6.07    3.18
  -1   6  -7   70.01    5.53
  -1   6  -6   66.54    9.80
  -1   6  -5  101.61    8.78
  -1   6  -4   73.58    5.94
  -1   6  -3    7.90    3.79
  -1   6  -2    4.49    4.51
  -1   6  -1    4.94    4.47
  -1   6   0   25.77    5.19
  -1   6   1   22.39    3.57
  -1   6   2  189.38   12.82
  -1   6   3   -0.90    3.81
  -1   6   4  175.19   10.74
  -1   6   5   18.98    4.97
  -1   6   6   24.13    7.22
  -1   6   7    4.94    7.67
  -1   6   9   52.88   11.15
  -1   6  10   -3.14    6.55
  -1   6  11   13.99    5.39
  -1   6  12   50.06    7.88
  -1   6  13   15.98    8.53
  -1   6  14   49.43   10.77
  -1   6  15    7.90   12.66
  -1   6  16   49.02   11.15
  -1   6  17   33.11    7.61
  -1   6  18  100.71   11.15
  -1   6  19   16.21   11.49
  -1   6  20   13.99    7.88
  -1   6  21   21.83   11.94
  -1   7 -18  118.63   14.40
  -1   7 -17   13.32    8.55
  -1   7 -16   15.98   10.81
  -1   7 -15    4.94    8.08
  -1   7 -14   57.55   28.73
  -1   7 -13   10.63    4.31
  -1   7 -12   15.62    7.24
  -1   7 -11    9.95    5.21
  -1   7 -10  131.74    8.96
  -1   7  -9   23.41    7.70
  -1   7  -8   24.13    3.54
  -1   7  -7   26.25    3.54
  -1   7  -6   20.31    4.74
  -1   7  -5   62.92   12.64
  -1   7  -4    9.66    8.31
  -1   7  -3  163.45   16.14
  -1   7  -2   98.90   10.45
  -1   7  -1  166.16    8.13
  -1   7   0  103.44    6.73
  -1   7   1   51.35    6.68
  -1   7   2  201.98   12.82
  -1   7   3   20.58    4.90
  -1   7   4   41.93    4.67
  -1   7   5   24.13    5.01
  -1   7   6  122.92   10.00
  -1   7   7    1.33    8.31
  -1   7   8   11.74    8.33
  -1   7   9  117.97   14.35
  -1   7  10   35.93    6.30
  -1   7  11   25.48    8.64
  -1   7  12   71.55   29.23
  -1   7  13   16.70    6.14
  -1   7  14   32.41   11.13
  -1   7  15   29.41   16.79
  -1   7  16   27.49   18.76
  -1   7  17  162.30   15.69
  -1   7  18   11.94    6.95
  -1   8   6   -3.81    4.29
  -1   8   7   17.31    6.50
  -1   8   8   11.74    7.00
  -1   8   9   15.62    7.00
  -1   8  10   13.11    6.32
  -1   8  11    0.00    2.26
  -1   8  13    8.58    8.10
  -1   8  14   32.93   11.74
   0  -9  -7    4.06    7.02
   0  -9  -6   12.14    7.22
   0  -9  -5   -4.49    6.05
   0  -8 -14   -1.13    7.47
   0  -8 -13   -2.73    8.15
   0  -8 -12   -0.45    8.17
   0  -8 -11   22.39    6.97
   0  -8 -10    2.03    4.97
   0  -8  -9    0.23   10.04
   0  -8  -8   38.30   16.75
   0  -8  -7   -2.73    9.73
   0  -8  -6   48.59   11.74
   0  -8  -5   -0.68    8.85
   0  -8  -4   53.74   11.67
   0  -8  -3    7.65    6.97
   0  -8  -2  127.63   14.26
   0  -8  -1    2.73    6.79
   0  -7 -17   21.83    9.98
   0  -7 -16   29.57   18.96
   0  -7 -15   68.27   17.63
   0  -7 -14   78.02   17.24
   0  -7 -13    7.22   11.06
   0  -7 -12   -2.73   10.88
   0  -7 -11   76.99   10.81
   0  -7 -10   66.78   14.49
   0  -7  -9   63.87   13.68
   0  -7  -8   15.62    7.47
   0  -7  -7   11.94    6.55
   0  -7  -6    9.95    7.49
   0  -7  -5    6.75    7.18
   0  -7  -4   56.20   12.17
   0  -7  -3  117.00   10.07
   0  -7  -2   22.55    6.57
   0  -7  -1  189.79   13.65
   0  -7   1  158.49   12.10
   0  -7   2   27.33   17.90
   0  -7   3  100.12    6.91
   0  -6 -20   59.63   21.80
   0  -6 -19   -9.48    9.25
   0  -6 -18  -14.67   12.44
   0  -6 -17   11.94   10.18
   0  -6 -16   12.46   12.93
   0  -6 -15   97.73   15.44
   0  -6 -14    4.29    7.65
   0  -6 -13   58.00   12.12
   0  -6 -12    5.85   36.27
   0  -6 -11  110.59   16.43
   0  -6 -10   -5.85    9.66
   0  -6  -9   30.24    7.61
   0  -6  -8   -0.68   21.76
   0  -6  -7   27.49    9.46
   0  -6  -6   33.11    7.61
   0  -6  -5    4.49    4.51
   0  -6  -4  234.82   13.36
   0  -6  -3   51.14   21.92
   0  -6  -2   57.33   21.15
   0  -6  -1   12.89    6.14
   0  -6   0  178.37   10.43
   0  -6   1   -0.45    4.31
   0  -6   2   45.30    4.45
   0  -6   3   16.70    6.50
   0  -6   4  218.09   11.53
   0  -6   5   17.31   12.12
   0  -6   6   42.52    4.90
   0  -5 -23   67.53   18.76
   0  -5 -22    6.75   12.19
   0  -5 -21   -3.36   11.01
   0  -5 -20  255.99   51.44
   0  -5 -19   -4.29    7.92
   0  -5 -18    0.00    2.26
   0  -5 -17  122.26   10.29
   0  -5 -16   22.82    6.03
   0  -5 -15   80.98    6.50
   0  -5 -14   21.42    4.72
   0  -5 -13    4.29    4.99
   0  -5 -12  130.36    7.90
   0  -5 -11  293.84   20.09
   0  -5 -10   52.43    5.67
   0  -5  -9   12.68    3.63
   0  -5  -8   52.23    6.52
   0  -5  -7   16.70    4.54
   0  -5  -6    3.81    3.59
   0  -5  -5    3.81    2.93
   0  -5  -4   -0.23    2.05
   0  -5  -3   11.74    2.26
   0  -5  -2   39.99    3.43
   0  -5  -1  512.56   13.61
   0  -5   1  495.70   12.71
   0  -5   2   37.20    1.83
   0  -5   3    9.66    1.31
   0  -5   4    3.14    1.33
   0  -5   5    1.60    1.83
   0  -5   6    2.93    1.81
   0  -5   7    1.13    1.35
   0  -5   8   48.80    2.10
   0  -5   9    6.52    4.76
   0  -5  10   60.80    5.15
   0  -4 -24   20.99   10.18
   0  -4 -23  128.31   12.26
   0  -4 -22   10.63    6.95
   0  -4 -21    7.65    8.96
   0  -4 -20   -3.59    5.39
   0  -4 -19   27.81    6.03
   0  -4 -18  256.96   12.53
   0  -4 -17   34.51    7.24
   0  -4 -16   21.83    6.03
   0  -4 -15  181.19    9.30
   0  -4 -14  458.31   16.07
   0  -4 -13   -1.78    4.94
   0  -4 -12   82.88    6.84
   0  -4 -11  209.31    8.26
   0  -4 -10   60.56    5.37
   0  -4  -9  171.62    7.47
   0  -4  -8  170.45    7.06
   0  -4  -7  153.61    7.45
   0  -4  -6   67.78    4.94
   0  -4  -5   79.36    4.56
   0  -4  -4 1027.83   32.75
   0  -4  -3   69.52    3.50
   0  -4  -2  149.91    4.42
   0  -4  -1    9.66    1.58
   0  -4   0 1161.99   28.69
   0  -4   1    7.65    1.58
   0  -4   2  146.25    4.36
   0  -4   3   60.56    2.57
   0  -4   4 1034.58   28.03
   0  -4   5   89.58    3.14
   0  -4   6   69.52    2.75
   0  -4   7  157.74    4.15
   0  -4   8  163.45    8.82
   0  -4   9  183.22   11.80
   0  -4  10   58.25    5.51
   0  -4  11  213.67   14.06
   0  -4  12   91.86   12.10
   0  -4  13    0.00    2.26
   0  -4  14  451.26   21.06
   0  -4  15  171.62    9.05
   0  -4  16   17.31    7.38
   0  -3 -25    2.73    8.85
   0  -3 -24  121.92    9.30
   0  -3 -23   41.73    8.73
   0  -3 -22   19.37    6.09
   0  -3 -21    5.64    8.13
   0  -3 -20   24.87    6.75
   0  -3 -19   94.77    7.02
   0  -3 -18  180.38   10.90
   0  -3 -17  172.01    9.07
   0  -3 -16   72.56    6.66
   0  -3 -15  257.93   10.13
   0  -3 -14  201.12    8.94
   0  -3 -13  268.15   12.30
   0  -3 -12  485.07   13.90
   0  -3 -11   41.35    3.86
   0  -3 -10   73.33    5.15
   0  -3  -9  138.02    6.00
   0  -3  -8   92.45    4.63
   0  -3  -7   19.64    3.86
   0  -3  -6    6.07    3.18
   0  -3  -5  667.71   17.85
   0  -3  -4   -0.90    1.33
   0  -3  -3   -0.23    1.83
   0  -3  -2   92.15    3.18
   0  -3  -1 1124.39   30.22
   0  -3   1 1131.45   27.29
   0  -3   2  101.93    3.02
   0  -3   3   -0.23    1.15
   0  -3   4   -1.60    1.13
   0  -3   5  678.63   19.57
   0  -3   6    4.74    0.93
   0  -3   7   19.64    0.93
   0  -3   8  101.02    5.73
   0  -3   9  148.80   11.35
   0  -3  10   73.08    4.88
   0  -3  11   30.40    1.99
   0  -3  12  489.05   15.96
   0  -3  13  245.06    9.41
   0  -3  14  198.16    9.30
   0  -3  15  261.79   15.08
   0  -3  16   73.33   12.10
   0  -3  17  172.80   13.05
   0  -3  18  186.50   13.14
   0  -3  19  100.71   13.88
   0  -3  20   10.63    9.30
   0  -3  21   19.25    8.31
   0  -2 -26   -1.33    6.50
   0  -2 -25   46.72   14.38
   0  -2 -24   41.73   11.06
   0  -2 -23   65.81    7.56
   0  -2 -22    4.94    7.22
   0  -2 -21    7.22    5.42
   0  -2 -20   -1.13    6.79
   0  -2 -19   13.99    5.17
   0  -2 -18   46.92    8.44
   0  -2 -17   90.14    6.84
   0  -2 -16   11.33    6.07
   0  -2 -15  243.64   11.74
   0  -2 -14  156.61    7.15
   0  -2 -13   22.39    4.69
   0  -2 -12  172.01    7.88
   0  -2 -11  469.32   17.58
   0  -2 -10    3.81    3.41
   0  -2  -9    7.90    2.71
   0  -2  -8   27.33    4.72
   0  -2  -7   18.46    2.71
   0  -2  -6  175.57    5.17
   0  -2  -5   -2.03    1.58
   0  -2  -4   21.42    1.81
   0  -2  -3   12.14    1.99
   0  -2  -2  500.40   12.10
   0  -2  -1 1159.94   32.75
   0  -2   1 1169.17   30.83
   0  -2   2  505.12   13.50
   0  -2   3    8.33    1.13
   0  -2   4   22.82    1.29
   0  -2   5    2.73    0.70
   0  -2   6  184.04    5.30
   0  -2   7   14.67    1.15
   0  -2   8   32.77    2.05
   0  -2   9   15.37    1.76
   0  -2  10   11.01    2.69
   0  -2  11  450.63   14.67
   0  -2  12  200.69    8.08
   0  -2  13   33.63    3.32
   0  -2  14  142.28    7.18
   0  -2  15  220.76    9.37
   0  -2  16   11.74    3.18
   0  -2  17   97.12   17.18
   0  -2  18   40.38    9.16
   0  -2  19   87.59   25.03
   0  -2  20   15.98    6.12
   0  -2  21   21.42    7.65
   0  -2  22   23.99   10.16
   0  -2  23   47.35   10.95
   0  -2  24    8.33    6.77
   0  -2  25   42.12   22.62
   0  -2  26   -0.90    9.89
   0  -1 -27    6.52    9.91
   0  -1 -26   98.02   12.80
   0  -1 -25   15.98    7.92
   0  -1 -24  356.04   20.97
   0  -1 -23   34.69   10.61
   0  -1 -22  451.90   26.84
   0  -1 -21    1.78    5.62
   0  -1 -20   -4.94    9.68
   0  -1 -19   -0.68    4.06
   0  -1 -18   21.42    7.22
   0  -1 -17  156.61    8.28
   0  -1 -16   95.94    5.60
   0  -1 -15   48.59    5.87
   0  -1 -14  192.70    7.52
   0  -1 -13   22.82    4.31
   0  -1 -12  147.72    6.57
   0  -1 -11  399.24   12.01
   0  -1 -10  241.77    8.87
   0  -1  -9  124.92    4.36
   0  -1  -8   37.20    3.30
   0  -1  -7   38.30    2.80
   0  -1  -6  179.59    4.83
   0  -1  -5   81.52    3.25
   0  -1  -4    2.48    1.38
   0  -1  -3   27.96    1.74
   0  -1  -2    2.26    0.90
   0  -1  -1   25.03    3.45
   0  -1   1   17.56    2.26
   0  -1   2    1.60    0.45
   0  -1   3   25.48    1.83
   0  -1   4    2.26    0.90
   0  -1   5   80.44    2.69
   0  -1   6  169.27    4.69
   0  -1   7   40.58    2.69
   0  -1   8   41.35    2.51
   0  -1   9  125.60    5.39
   0  -1  10  261.31    8.73
   0  -1  11  401.05   12.03
   0  -1  12  157.36    7.54
   0  -1  13   36.29    3.61
   0  -1  14  195.21   11.33
   0  -1  15   30.90    4.33
   0  -1  16  106.82    8.69
   0  -1  17  148.80   13.93
   0  -1  18   23.70    6.73
   0  -1  19   -3.14    5.64
   0  -1  20   -1.33    8.51
   0  -1  21    0.45    7.49
   0  -1  22  448.08   29.88
   0  -1  23    9.48    8.33
   0  -1  24  301.60   26.61
   0  -1  25   -9.21   13.05
   0  -1  26   72.04   13.52
   0  -1  27   25.32   20.27
   0   0 -26   -3.59   12.12
   0   0 -24   38.68   11.96
   0   0 -22   24.42   13.07
   0   0 -20  121.27   10.92
   0   0 -18  110.28    6.00
   0   0 -16   -1.33    3.59
   0   0 -14   39.43    8.10
   0   0 -12  236.19    7.85
   0   0 -10  368.05    8.64
   0   0  -8  571.31   13.65
   0   0  -6 2794.93   69.90
   0   0  -4  220.31    6.68
   0   0  -2    0.00    2.26
   0   0   2    0.68    0.45
   0   0   4  224.35    6.30
   0   0   6 2818.80   78.16
   0   0   8  555.63   13.45
   0   0  10  361.16   13.70
   0   0  12  229.78    8.19
   0   0  14   18.71    4.94
   0   0  16   -7.00    6.12
   0   0  18  110.59   10.11
   0   0  20   91.30   13.20
   0   0  22   39.25   15.62
   0   0  24   30.90   18.71
   0   0  26   62.68   32.34
   0   1 -27   43.70   22.25
   0   1 -26   97.12   16.30
   0   1 -25   -2.48   11.76
   0   1 -24  353.22   36.13
   0   1 -23   39.99   17.49
   0   1 -22  410.12   17.65
   0   1 -21   16.70    9.46
   0   1 -20   13.77   21.85
   0   1 -19    9.21    4.02
   0   1 -18   15.84    4.06
   0   1 -17  149.55    8.44
   0   1 -16  119.28    6.23
   0   1 -15   48.59    5.24
   0   1 -14  190.63    8.31
   0   1 -13   30.74    4.49
   0   1 -12  148.44    6.23
   0   1 -11  408.29   10.31
   0   1 -10  239.92    7.92
   0   1  -9  120.28    4.60
   0   1  -8   30.40    3.14
   0   1  -7   40.76    2.69
   0   1  -6  164.22    4.63
   0   1  -5   79.11    3.20
   0   1  -4    2.48    0.90
   0   1  -3   32.41    1.53
   0   1  -2    2.26    1.35
   0   1   2    3.81    1.11
   0   1   3   31.58    1.51
   0   1   4    1.60    1.35
   0   1   5   86.19    3.07
   0   1   6  171.22    5.10
   0   1   7   35.57    3.77
   0   1   8   39.25    4.13
   0   1   9  115.72    4.85
   0   1  10  254.54    7.20
   0   1  11  402.85   20.49
   0   1  12  154.36   10.09
   0   1  13   37.94    6.48
   0   1  14  207.15   11.67
   0   1  15   46.92    9.25
   0   1  16  106.82    8.08
   0   1  17  149.55   10.29
   0   1  18   25.48   10.77
   0   1  19    0.90    6.27
   0   1  20  -14.67    9.66
   0   1  21    3.36    6.73
   0   1  22  427.95   83.92
   0   1  23   24.42    9.21
   0   1  24  316.41   32.07
   0   1  25   -6.30    7.70
   0   1  26   77.78   17.22
   0   1  27    6.75   25.68
   0   2 -26    3.81    6.75
   0   2 -25   49.65   21.80
   0   2 -24   21.26   10.40
   0   2 -23   55.07   10.70
   0   2 -22   -7.65    8.31
   0   2 -21    9.03   16.25
   0   2 -20   12.46   17.40
   0   2 -19   15.37    3.41
   0   2 -18   37.94    4.81
   0   2 -17   83.71    5.78
   0   2 -16    9.21    2.91
   0   2 -15  242.24    9.82
   0   2 -14  154.74    6.36
   0   2 -13   24.58    3.57
   0   2 -12  209.74    6.09
   0   2 -11  451.90   12.77
   0   2 -10    3.14    1.60
   0   2  -9   18.33    1.53
   0   2  -8   32.25    1.87
   0   2  -7   16.70    2.46
   0   2  -6  172.80    7.11
   0   2  -5    2.73    1.58
   0   2  -4   25.48    2.28
   0   2  -3    8.33    2.26
   0   2  -2  493.69   15.35
   0   2  -1 1185.67   39.32
   0   2   1 1155.85   37.80
   0   2   2  495.05   12.71
   0   2   3    9.48    1.85
   0   2   4   18.98    2.10
   0   2   5    8.33    2.69
   0   2   6  179.59    6.05
   0   2   7   12.68    3.20
   0   2   8   35.39    4.65
   0   2   9   15.62    3.79
   0   2  10    7.90    3.63
   0   2  11  470.61   18.26
   0   2  12  190.20   15.75
   0   2  13   43.70    7.15
   0   2  14  158.12   10.95
   0   2  15  241.32   18.67
   0   2  16    5.21   23.95
   0   2  17   86.19    8.94
   0   2  18   54.42   13.07
   0   2  19   15.62    8.55
   0   2  20   25.77   23.95
   0   2  21    9.48    9.91
   0   2  22   77.78   28.62
   0   2  23   39.43    8.49
   0   2  24  -20.31   11.51
   0   2  25   10.63   10.38
   0   2  26    4.06   14.87
   0   3 -25   21.83   10.11
   0   3 -24  107.77   17.47
   0   3 -23   56.20   10.81
   0   3 -22   25.32    9.23
   0   3 -21    4.06    8.10
   0   3 -20   12.14    8.06
   0   3 -19  108.70   10.97
   0   3 -18  182.41   11.76
   0   3 -17  152.87   10.77
   0   3 -16   73.85    4.90
   0   3 -15  270.12   10.36
   0   3 -14  209.74    9.14
   0   3 -13  248.83   11.38
   0   3 -12  494.37   15.37
   0   3 -11   25.03    4.06
   0   3 -10   65.32    5.10
   0   3  -9  143.00    7.90
   0   3  -8   96.24    3.84
   0   3  -7   22.12    3.39
   0   3  -6    4.29    2.05
   0   3  -5  667.71   20.18
   0   3  -4    3.14    3.14
   0   3  -3    1.78    2.01
   0   3  -2   98.90    3.59
   0   3  -1 1138.54   34.46
   0   3   1 1141.59   36.54
   0   3   2   98.02    3.86
   0   3   3   -1.13    2.05
   0   3   4   -2.03    1.58
   0   3   5  677.84   16.43
   0   3   6    8.76    2.48
   0   3   7   21.83    3.66
   0   3   8   89.02    5.39
   0   3   9  124.27    5.35
   0   3  10   76.99    5.53
   0   3  11   35.93    5.21
   0   3  12  497.06   22.77
   0   3  13  240.84   22.84
   0   3  14  218.54   13.32
   0   3  15  275.58   14.96
   0   3  16   79.11   10.95
   0   3  17  179.59   12.48
   0   3  18  202.84   22.68
   0   3  19   86.49   12.30
   0   3  20   38.87   11.42
   0   3  21   23.70   12.44
   0   3  22   14.22   10.65
   0   3  23   85.92   14.76
   0   3  24  149.19   50.29
   0   3  25   -2.48   10.61
   0   4 -24   21.69    8.13
   0   4 -23  135.92   26.27
   0   4 -22   18.46    9.30
   0   4 -21    2.73    4.97
   0   4 -20   13.11   10.88
   0   4 -19   35.03    7.65
   0   4 -18  280.59   15.60
   0   4 -17   23.41    8.15
   0   4 -16   14.67    6.34
   0   4 -15  159.64    9.86
   0   4 -14  451.26   18.51
   0   4 -13    6.30    5.42
   0   4 -12   79.11    5.08
   0   4 -11  205.41    8.62
   0   4 -10   60.10    4.20
   0   4  -9  176.38    7.58
   0   4  -8  170.83    7.85
   0   4  -7  164.22    7.31
   0   4  -6   76.20    3.68
   0   4  -5   95.36    5.57
   0   4  -4 1001.02   46.58
   0   4  -3   68.27    3.23
   0   4  -2  154.36    5.60
   0   4  -1    9.21    1.38
   0   4   0 1112.34   36.07
   0   4   1   11.74    2.98
   0   4   2  152.87    4.83
   0   4   3   61.25    3.30
   0   4   4 1039.41   33.90
   0   4   5   85.65    4.45
   0   4   6   85.92    6.41
   0   4   7  180.38    8.87
   0   4   8  177.58    7.61
   0   4   9  168.48    7.40
   0   4  10   61.50    4.72
   0   4  11  236.19   54.48
   0   4  12   85.65    7.79
   0   4  13    8.58    8.80
   0   4  14  458.31   21.24
   0   4  15  190.63   14.11
   0   4  16   12.89   11.10
   0   4  17   53.74   10.13
   0   4  18  269.15   18.73
   0   4  19    5.21    7.00
   0   4  20   16.95   17.20
   0   4  22   15.62   10.45
   0   4  23   84.82   15.78
   0   4  24   15.62    9.73
   0   5 -23   23.70   12.14
   0   5 -22   22.39   10.81
   0   5 -21   12.46   11.04
   0   5 -20  204.98   18.94
   0   5 -19    7.47    7.22
   0   5 -18    2.03    7.67
   0   5 -17  106.53   10.22
   0   5 -16   20.72    4.92
   0   5 -15   69.02    6.75
   0   5 -14   30.24    6.61
   0   5 -13    2.73    5.91
   0   5 -12  118.63    7.54
   0   5 -11  265.22   14.67
   0   5 -10   62.45    4.04
   0   5  -9   14.44    2.98
   0   5  -8   45.50    3.45
   0   5  -7    3.81    4.29
   0   5  -6   -1.33    2.01
   0   5  -5    7.00    7.22
   0   5  -4    4.74    2.48
   0   5  -3   12.14    2.30
   0   5  -2   39.81    2.84
   0   5  -1  479.79   15.14
   0   5   1  471.26   21.53
   0   5   2   36.83    3.66
   0   5   3   15.98    2.75
   0   5   4    5.85    5.37
   0   5   5   -2.03    2.28
   0   5   6    4.29    4.04
   0   5   7   11.01    4.29
   0   5   8   49.02    3.79
   0   5   9   15.37    3.41
   0   5  10   52.88    7.20
   0   5  11  280.09   19.12
   0   5  12  105.90    7.43
   0   5  13   -0.23    5.26
   0   5  14   30.90    9.86
   0   5  15   86.76    9.23
   0   5  16   17.83    9.25
   0   5  17  159.64   14.81
   0   5  18    6.52    6.97
   0   5  19    0.45   10.90
   0   5  20  199.43   16.97
   0   5  21   -0.90    9.66
   0   5  22   10.63    9.71
   0   5  23   20.58   11.31
   0   6 -21    6.75    9.21
   0   6 -20   13.11    5.21
   0   6 -19   -8.76   11.04
   0   6 -18    8.15    7.72
   0   6 -17   14.67    8.40
   0   6 -16   22.39    7.24
   0   6 -15   83.71    7.97
   0   6 -14   14.22    8.37
   0   6 -13   43.49    3.97
   0   6 -12   10.34    4.74
   0   6 -11   96.53   12.68
   0   6 -10    9.48    9.71
   0   6  -9   25.03    5.71
   0   6  -8    1.13    3.84
   0   6  -7   18.08    2.93
   0   6  -6   50.06    3.84
   0   6  -5    2.93    2.73
   0   6  -4  221.66   13.86
   0   6  -3   12.68    1.83
   0   6  -2   49.86    3.18
   0   6  -1    2.26    1.81
   0   6   0  144.81    6.14
   0   6   1    7.65    2.23
   0   6   2   61.03    6.57
   0   6   3   13.32    3.18
   0   6   4  238.52   12.07
   0   6   5    5.42    3.63
   0   6   6   50.71    4.72
   0   6   7   12.46    7.43
   0   6   8    4.29    6.09
   0   6   9   30.90    6.52
   0   6  10   -5.85    3.86
   0   6  11   82.61    9.28
   0   6  12   12.68   14.87
   0   6  13   89.02   20.70
   0   6  14    2.48   13.56
   0   6  15   93.03   36.81
   0   6  16   18.33    9.91
   0   6  17    4.06    6.52
   0   6  18    9.48    9.07
   0   6  19    4.49    7.20
   0   6  20   13.11   11.10
   0   6  21    8.76    8.35
   0   7   1  153.61   10.43
   0   7   3  114.75    7.40
   0   7   4   40.76    8.82
   0   7   5   -4.29    8.78
   0   7   6   -0.68    4.06
   0   7   7    2.26    4.74
   0   7   8   26.25    8.31
   0   7   9   96.24    8.85
   0   7  10   60.33    8.64
   0   7  11  101.02   17.22
   0   7  12   26.25   14.63
   0   7  13   18.98   10.61
   0   7  14  103.75   14.69
   0   7  15   55.97   12.14
   0   7  16   52.43   20.88
   0   7  17   67.78   23.25
   0   7  18   -5.21   11.74
   0   8   8    0.90   22.28
   0   8   9   14.67    7.24
   0   8  10   -1.33    6.05
   0   8  11   13.99    7.43
   0   8  12    0.23    7.31
   0   8  13   33.11   11.24
   0   8  14   17.20   10.22
   1  -9  -7   -1.13    8.40
   1  -9  -6   35.57    7.70
   1  -8 -14   10.83   17.40
   1  -8 -13    3.59    4.94
   1  -8 -11    8.58    9.23
   1  -8 -10   -1.33    9.21
   1  -8  -9   13.99   15.17
   1  -8  -8   -9.48    9.71
   1  -8  -7   20.58   13.50
   1  -8  -6    9.21    7.20
   1  -8  -5   -3.59    5.62
   1  -8  -4   45.50   11.15
   1  -8  -3   25.77    8.40
   1  -8  -2   68.27    8.69
   1  -8  -1  119.94    9.86
   1  -7 -18    2.48   10.86
   1  -7 -17  104.97   19.09
   1  -7 -16   14.44   12.91
   1  -7 -15   64.60   23.43
   1  -7 -14   34.69   14.51
   1  -7 -13    1.33    9.66
   1  -7 -12   31.58   12.66
   1  -7 -11   41.14   10.79
   1  -7 -10   36.11    9.21
   1  -7  -9  116.03   13.93
   1  -7  -8   10.13    6.12
   1  -7  -7   37.94   13.14
   1  -7  -6  115.06   10.63
   1  -7  -5   32.25    9.55
   1  -7  -4   95.94   15.89
   1  -7  -3   26.41    6.95
   1  -7  -2  200.69    9.80
   1  -7  -1   55.75    6.05
   1  -7   0  118.97   17.69
   1  -7   1  158.87   12.50
   1  -7   2  132.78   13.86
   1  -6 -20   32.25   14.85
   1  -6 -19   12.68   14.02
   1  -6 -18  107.14   12.75
   1  -6 -17   29.57   14.06
   1  -6 -16   53.54   15.39
   1  -6 -15    5.21    6.59
   1  -6 -14   69.52   12.77
   1  -6 -13   12.89    7.45
   1  -6 -12  128.31   30.29
   1  -6 -11   32.77   13.77
   1  -6 -10    6.75    6.95
   1  -6  -9   55.07    7.13
   1  -6  -8   17.20   19.18
   1  -6  -7    0.90    8.33
   1  -6  -6    9.95    7.20
   1  -6  -5    8.76    6.75
   1  -6  -4  154.74    9.73
   1  -6  -3    4.94    5.62
   1  -6  -2  192.27   17.49
   1  -6  -1   29.57    5.39
   1  -6   0   24.13    5.46
   1  -6   1   -2.48    4.31
   1  -6   2    7.00    4.76
   1  -6   3   -3.59    3.81
   1  -6   4   81.52    5.96
   1  -6   5   86.19    5.57
   1  -5 -23   25.32   11.80
   1  -5 -22   -3.14   11.94
   1  -5 -21    6.07    9.03
   1  -5 -20   12.46   18.78
   1  -5 -19   25.32    6.34
   1  -5 -18  112.49    8.28
   1  -5 -17 1284.91   44.17
   1  -5 -16  229.78   13.65
   1  -5 -15    4.29    5.67
   1  -5 -14   92.74    7.22
   1  -5 -13   26.86    6.07
   1  -5 -12   20.04    6.73
   1  -5 -11   33.11    6.05
   1  -5 -10   38.12    5.01
   1  -5  -9  172.01    6.70
   1  -5  -8   42.52    3.93
   1  -5  -7  215.88    8.82
   1  -5  -6   19.37    3.84
   1  -5  -5   55.30    3.79
   1  -5  -4   10.34    4.24
   1  -5  -3  106.53    4.65
   1  -5  -2  318.01   10.72
   1  -5  -1  192.27    6.66
   1  -5   0  249.78    8.55
   1  -5   1   38.87    2.44
   1  -5   2   10.13    2.30
   1  -5   3   16.45    2.44
   1  -5   4   10.13    2.69
   1  -5   5  193.54    7.94
   1  -5   6    3.36    1.33
   1  -5   7    2.73    1.15
   1  -5   8    9.03    3.16
   1  -5   9    4.29    4.54
   1  -5  10  226.15   13.56
   1  -5  11    4.94    4.09
   1  -4 -24   23.25   10.43
   1  -4 -23    9.95   11.76
   1  -4 -22   14.22    8.37
   1  -4 -21   20.72    6.16
   1  -4 -20    6.30    5.89
   1  -4 -19   66.06    7.81
   1  -4 -18   79.11    8.01
   1  -4 -17   97.73    7.13
   1  -4 -16  373.85   16.84
   1  -4 -15  193.94    9.61
   1  -4 -14  357.76   16.48
   1  -4 -13   46.11    4.90
   1  -4 -12   -1.13    4.06
   1  -4 -11   14.90    6.27
   1  -4 -10    2.26    3.39
   1  -4  -9   11.74    6.59
   1  -4  -8  109.01    5.33
   1  -4  -7  636.25   17.42
   1  -4  -6   -1.33    4.94
   1  -4  -5  172.80    6.32
   1  -4  -4  120.61    4.94
   1  -4  -3  170.45    6.27
   1  -4  -2    3.36    1.60
   1  -4  -1   28.28    2.08
   1  -4   0  108.38    3.75
   1  -4   1   24.87    1.81
   1  -4   2  377.91    9.93
   1  -4   3  212.79    5.26
   1  -4   4 1075.57   30.54
   1  -4   5  132.44    4.49
   1  -4   6  719.12   25.77
   1  -4   7    0.23    2.75
   1  -4   8   34.69    3.88
   1  -4   9  707.09   27.17
   1  -4  10   28.60    3.86
   1  -4  11   35.93    5.21
   1  -4  12   21.42    4.45
   1  -4  13  569.15   24.38
   1  -4  14   15.98    7.45
   1  -4  15  834.61   52.95
   1  -4  16   -1.78   13.95
   1  -4  17  630.20   28.66
   1  -3 -26   12.68   14.02
   1  -3 -25  145.17   13.38
   1  -3 -24   50.29   12.77
   1  -3 -23    0.00    2.26
   1  -3 -22    7.22    6.30
   1  -3 -21   11.94    8.31
   1  -3 -20  133.48   10.40
   1  -3 -19   -2.48    6.77
   1  -3 -18  138.02    7.76
   1  -3 -17 1035.55   37.71
   1  -3 -16   22.98    6.05
   1  -3 -15  109.96    8.51
   1  -3 -14    3.14    4.54
   1  -3 -13  156.23    8.26
   1  -3 -12    6.07    3.41
   1  -3 -11  320.15   13.97
   1  -3 -10  257.43    9.64
   1  -3  -9  217.64    7.99
   1  -3  -8  100.12    4.81
   1  -3  -7 1217.94   45.09
   1  -3  -6  238.97    8.35
   1  -3  -5   27.96    2.08
   1  -3  -4  158.87    4.92
   1  -3  -3   -0.45    1.81
   1  -3  -2  104.68    3.68
   1  -3  -1 1045.24   28.17
   1  -3   0  242.24    6.55
   1  -3   1   32.25    1.53
   1  -3   2  102.83    3.36
   1  -3   3  155.87    5.62
   1  -3   4  737.79   18.78
   1  -3   5  610.00   16.32
   1  -3   6    5.42    1.83
   1  -3   7   37.20    3.66
   1  -3   8  275.58   12.98
   1  -3   9    1.78    3.39
   1  -3  10  310.54   13.77
   1  -3  11  164.22   10.79
   1  -3  12  255.99   24.51
   1  -3  13    1.33    0.90
   1  -3  14   12.46    2.23
   1  -3  15    2.93   12.86
   1  -3  16   13.77    7.02
   1  -3  17  607.79   27.40
   1  -3  18   38.87    7.49
   1  -3  19    7.65    6.73
   1  -3  20   49.65    7.00
   1  -3  21   23.25   10.00
   1  -3  22  166.93   14.35
   1  -2 -26   22.39    9.95
   1  -2 -25   35.93    7.92
   1  -2 -24   -9.66    7.47
   1  -2 -23   34.69    9.03
   1  -2 -22    4.29    5.85
   1  -2 -21   70.28    9.57
   1  -2 -20   -0.23    4.33
   1  -2 -19   16.70    6.14
   1  -2 -18   17.31    7.88
   1  -2 -17   89.58    7.40
   1  -2 -16  142.28    6.46
   1  -2 -15   48.39    6.68
   1  -2 -14  322.84   10.79
   1  -2 -13   85.65    6.68
   1  -2 -12   56.20    6.07
   1  -2 -11   13.32    3.41
   1  -2 -10   29.41    4.06
   1  -2  -9   72.81    4.60
   1  -2  -8   62.20    7.58
   1  -2  -7  764.96   19.95
   1  -2  -6  255.04    6.73
   1  -2  -5  125.60    4.04
   1  -2  -4    9.66    2.05
   1  -2  -3 1452.69   38.93
   1  -2  -2   79.63    3.23
   1  -2  -1    2.93    1.33
   1  -2   0 6072.44  166.25
   1  -2   1   17.31    1.63
   1  -2   2  134.16    3.48
   1  -2   3   20.31    1.08
   1  -2   4    2.03    0.47
   1  -2   5  330.99   12.03
   1  -2   6   55.30    3.14
   1  -2   7   97.12    4.45
   1  -2   8   24.58    1.78
   1  -2   9  994.39   32.21
   1  -2  10  345.91   11.74
   1  -2  11 2159.18   62.83
   1  -2  12    4.29    2.73
   1  -2  13  104.36    5.21
   1  -2  14   84.82    5.53
   1  -2  15  304.74   14.15
   1  -2  16   16.70    3.43
   1  -2  17  360.04   18.82
   1  -2  18  321.22   22.07
   1  -2  19    6.75   11.49
   1  -2  20  129.69   13.68
   1  -2  21  231.61   17.83
   1  -2  22   -3.14    7.20
   1  -2  23   79.36   20.34
   1  -2  24   12.46   11.56
   1  -2  25   73.08   11.80
   1  -2  26   -7.65    7.90
   1  -1 -27    2.03    7.24
   1  -1 -26    5.42    9.23
   1  -1 -25  202.84   14.99
   1  -1 -24   18.98    8.13
   1  -1 -23   20.72   12.86
   1  -1 -22    3.59    5.62
   1  -1 -21  683.33   25.14
   1  -1 -20   12.46    6.36
   1  -1 -19   72.81    6.16
   1  -1 -18   51.78    6.05
   1  -1 -17  408.90   13.36
   1  -1 -16   26.70    5.60
   1  -1 -15 1672.27   49.16
   1  -1 -14  162.68    8.82
   1  -1 -13    5.64    3.14
   1  -1 -12   33.11    4.31
   1  -1 -11  101.32    5.15
   1  -1 -10   -3.59    4.94
   1  -1  -9  188.55    6.18
   1  -1  -8   32.07    3.23
   1  -1  -7 1244.30   32.86
   1  -1  -6   -2.93    1.81
   1  -1  -5   83.15    3.02
   1  -1  -4  152.87    4.47
   1  -1  -3  164.22    4.63
   1  -1  -1    0.68    0.68
   1  -1   0  132.08   20.38
   1  -1   3  321.76   11.31
   1  -1   4  742.69   24.56
   1  -1   5   29.75    1.65
   1  -1   6   15.98    1.56
   1  -1   7    8.33    2.26
   1  -1   8   71.79    3.32
   1  -1   9    6.52    1.76
   1  -1  10  131.04    6.18
   1  -1  11    8.76    3.66
   1  -1  12  277.59    9.01
   1  -1  13   14.90    2.66
   1  -1  14    5.42    4.27
   1  -1  15  139.80    6.39
   1  -1  16   32.25    8.19
   1  -1  17  153.99   14.54
   1  -1  18 1161.99  746.66
   1  -1  19   10.13    5.46
   1  -1  20   47.76    8.10
   1  -1  21   -0.90   13.25
   1  -1  22   25.03    7.67
   1  -1  23  255.04   23.99
   1  -1  24  -12.89   11.53
   1  -1  25  109.33   15.39
   1  -1  26   87.89   30.13
   1  -1  27    2.26   11.74
   1   0 -27   11.53    8.17
   1   0 -25   -3.81    8.98
   1   0 -23    5.42    7.49
   1   0 -21   64.60    7.97
   1   0 -19  110.91    9.50
   1   0 -17  150.29   13.27
   1   0 -15   23.70    4.67
   1   0 -13  161.92    6.12
   1   0 -11  143.36    7.56
   1   0  -9  280.09    7.54
   1   0  -7 1283.82   29.07
   1   0  -5   18.46    1.81
   1   0  -3   21.83    4.76
   1   0  -1    0.00    2.26
   1   0   1   -1.13    0.68
   1   0   3  603.34  124.72
   1   0   5   19.25    1.58
   1   0   7 1072.61   26.56
   1   0   9 3823.69  102.20
   1   0  11 7867.25  285.17
   1   0  13   64.37    7.22
   1   0  15  390.28   19.59
   1   0  17  115.06   11.60
   1   0  19   18.98    6.55
   1   0  21  524.21   34.40
   1   0  23  216.76   17.69
   1   0  25  138.74   31.51
   1   1 -27   -0.23   13.02
   1   1 -26  -17.20   12.21
   1   1 -25  211.93   18.80
   1   1 -24   25.03    9.93
   1   1 -23   13.54    9.30
   1   1 -22   16.45    6.95
   1   1 -21  700.71   24.65
   1   1 -20   16.21    6.05
   1   1 -19   89.87    8.82
   1   1 -18   39.81    3.97
   1   1 -17  424.22   17.33
   1   1 -16   19.25    5.94
   1   1 -15 1687.06   69.11
   1   1 -14  166.54    7.76
   1   1 -13   11.94    5.19
   1   1 -12   34.69    3.18
   1   1 -11  101.02    4.54
   1   1 -10    4.49    1.58
   1   1  -9  198.16    5.91
   1   1  -8   30.74    2.66
   1   1  -7 1222.14   30.47
   1   1  -6    2.48    1.38
   1   1  -5   84.52    3.05
   1   1  -4  155.10    4.11
   1   1  -3  165.75    5.80
   1   1   1   54.64    2.89
   1   1   2   36.11    1.99
   1   1   3  326.63    8.15
   1   1   4  742.69   18.01
   1   1   5   35.57    2.69
   1   1   6   13.32    2.30
   1   1   7    8.15    2.23
   1   1   8   72.56    3.84
   1   1   9    9.48    2.51
   1   1  10  130.03    6.16
   1   1  11    1.13    6.79
   1   1  12  274.59   13.45
   1   1  13   24.87    4.94
   1   1  14   17.83    7.49
   1   1  15  167.31   12.82
   1   1  16   20.72    8.35
   1   1  17  153.99   13.05
   1   1  18   21.69    6.30
   1   1  19   23.70   12.14
   1   1  20   21.26    7.49
   1   1  21   22.82    9.75
   1   1  22   78.02   45.66
   1   1  23  277.59   24.53
   1   1  24   -5.64   11.98
   1   1  25  149.91   29.43
   1   1  26   -4.74    8.85
   1   1  27   13.54   10.18
   1   2 -26   13.32   11.31
   1   2 -25   29.75    7.85
   1   2 -24    6.30    7.92
   1   2 -23   34.51   13.77
   1   2 -22   -2.26    8.35
   1   2 -21   71.79   11.96
   1   2 -20   10.13    4.31
   1   2 -19   21.42    7.22
   1   2 -18   33.11    7.61
   1   2 -17  101.02    6.05
   1   2 -16  165.37    6.95
   1   2 -15   49.86    3.39
   1   2 -14  328.26   10.34
   1   2 -13   87.59    3.39
   1   2 -12   71.03    3.79
   1   2 -11   13.77    2.23
   1   2 -10   27.81    2.21
   1   2  -9   76.99    3.16
   1   2  -8   56.88    3.18
   1   2  -7  756.68   26.45
   1   2  -6  246.46    8.01
   1   2  -5  135.92    5.96
   1   2  -4    8.76    2.05
   1   2  -3 1409.49   57.53
   1   2  -2   79.63    3.48
   1   2  -1    4.06    0.43
   1   2   0 6152.29  268.67
   1   2   1   18.46    1.81
   1   2   2  141.22    5.35
   1   2   3   21.69    1.83
   1   2   4    0.23    1.83
   1   2   5  327.72    8.71
   1   2   6   53.54    2.64
   1   2   7   94.48    3.79
   1   2   8   25.77    3.81
   1   2   9  992.49   24.60
   1   2  10  354.91   11.33
   1   2  11 2131.35   88.77
   1   2  12    0.68    5.67
   1   2  13  103.44    9.77
   1   2  14   91.30    8.62
   1   2  15  296.41   13.45
   1   2  16   13.32    5.91
   1   2  17  345.37   18.42
   1   2  18  303.18   15.69
   1   2  19   14.22   10.43
   1   2  20  142.28   14.33
   1   2  21  244.59   20.67
   1   2  22    1.78   14.15
   1   2  23   65.57   12.17
   1   2  24   17.20    8.35
   1   2  25  106.53   18.30
   1   2  26    1.60   10.65
   1   3 -26    5.21    7.47
   1   3 -25  152.51   20.04
   1   3 -24   42.70   18.06
   1   3 -23   -7.00    6.52
   1   3 -22   37.94   15.37
   1   3 -21   28.28    9.43
   1   3 -20  146.61   12.01
   1   3 -19   -3.36    5.85
   1   3 -18  144.81   10.86
   1   3 -17 1004.84   35.23
   1   3 -16   13.54    4.54
   1   3 -15  114.41    5.78
   1   3 -14    0.00    2.26
   1   3 -13  160.77    8.76
   1   3 -12   11.33    4.24
   1   3 -11  300.04    9.89
   1   3 -10  302.66   13.59
   1   3  -9  213.67    7.02
   1   3  -8  104.68    4.60
   1   3  -7 1157.88   39.88
   1   3  -6  243.17    8.89
   1   3  -5   33.11    2.41
   1   3  -4  154.74    7.47
   1   3  -3   -0.68    0.93
   1   3  -2  102.22    3.05
   1   3  -1 1050.09   27.26
   1   3   0  247.41    6.14
   1   3   1   29.09    2.10
   1   3   2  106.21    5.26
   1   3   3  150.65    5.53
   1   3   4  705.49   17.56
   1   3   5  601.13   17.67
   1   3   6    7.00    2.46
   1   3   7   50.29    4.27
   1   3   8  273.10   10.92
   1   3   9    1.60    2.51
   1   3  10  304.22   11.53
   1   3  11  139.44    8.51
   1   3  12  285.65   25.39
   1   3  13   -2.03    4.97
   1   3  14   13.77    9.25
   1   3  15   29.41    8.80
   1   3  16   32.93    9.48
   1   3  17  578.51   23.13
   1   3  18   54.42   13.29
   1   3  19   35.93   11.35
   1   3  20   50.49   12.82
   1   3  21   -0.68    7.02
   1   3  22  156.61   17.67
   1   3  23   67.78   11.62
   1   3  24  -13.77   12.37
   1   3  25   89.02   13.32
   1   4 -24   28.44   10.09
   1   4 -23   -9.66    8.13
   1   4 -22   -3.36   10.79
   1   4 -21   20.99    7.85
   1   4 -20   23.41   14.67
   1   4 -19   35.03    8.53
   1   4 -18   69.76   11.04
   1   4 -17  116.69   12.32
   1   4 -16  380.85   22.86
   1   4 -15  211.05   12.66
   1   4 -14  350.96   15.19
   1   4 -13   61.50    5.89
   1   4 -12    3.59    4.04
   1   4 -11    0.45    4.09
   1   4 -10   -0.90    2.48
   1   4  -9   16.95    3.20
   1   4  -8  111.22    4.76
   1   4  -7  623.43   21.76
   1   4  -6    0.23    1.83
   1   4  -5  153.99    7.09
   1   4  -4  118.31    3.93
   1   4  -3  180.79    6.05
   1   4  -2    0.45    0.90
   1   4  -1   30.90    2.01
   1   4   0  111.86    6.05
   1   4   1   25.48    1.35
   1   4   2  362.88   12.03
   1   4   3  225.25   10.38
   1   4   4 1089.41   33.72
   1   4   5  123.25    5.33
   1   4   6  682.54   18.06
   1   4   7    7.00    3.18
   1   4   8   23.99    3.39
   1   4   9  711.90   21.64
   1   4  10   31.73    5.60
   1   4  11   48.16    5.21
   1   4  12   19.25    7.24
   1   4  13  526.96   21.37
   1   4  14   14.22   11.33
   1   4  15  837.23   33.90
   1   4  16   17.31   18.01
   1   4  17  673.94   28.08
   1   4  18  237.59   29.63
   1   4  19   12.68    9.30
   1   4  20    8.33   10.56
   1   4  21  -14.22    7.02
   1   4  22   29.09   16.52
   1   4  23   39.99   11.60
   1   4  24   21.69   11.47
   1   5 -23   12.14    8.58
   1   5 -22   -9.21    5.85
   1   5 -21    6.30   11.01
   1   5 -20    4.29    8.35
   1   5 -19   41.53    7.74
   1   5 -18   92.45   10.40
   1   5 -17 1144.63   48.80
   1   5 -16  278.58   49.65
   1   5 -15    2.26    4.51
   1   5 -14  108.38    8.76
   1   5 -13   16.21    6.30
   1   5 -12   29.57    4.90
   1   5 -11   48.80    6.93
   1   5 -10   31.73    4.06
   1   5  -9  180.79    6.86
   1   5  -8   40.20    3.61
   1   5  -7  207.15    9.95
   1   5  -6   16.95    2.23
   1   5  -5   61.50    2.82
   1   5  -4   10.13    1.15
   1   5  -3  109.96    5.35
   1   5  -2  311.60    9.55
   1   5  -1  191.03    6.23
   1   5   0  247.89    9.46
   1   5   1   32.25    3.41
   1   5   2    9.66    5.89
   1   5   3    9.21    2.91
   1   5   4   -0.68    3.18
   1   5   5  214.12    9.68
   1   5   6    7.00    2.71
   1   5   7    7.47    3.20
   1   5   8    8.58    5.46
   1   5   9    4.06    5.39
   1   5  10  211.05   10.47
   1   5  11   12.89    6.36
   1   5  12   50.29   10.45
   1   5  13   28.28    7.67
   1   5  14   17.20    9.21
   1   5  15   53.31   10.09
   1   5  16   85.65   18.35
   1   5  17   44.89   11.08
   1   5  18   22.39   10.25
   1   5  19  -12.68    6.32
   1   5  20   52.88   13.99
   1   5  21   10.13    7.47
   1   5  22   54.84   16.68
   1   5  23   12.14   13.09
   1   6 -21   45.91    9.57
   1   6 -20   16.45    9.86
   1   6 -19   55.30   25.48
   1   6 -18  110.28   10.72
   1   6 -17   35.21    7.85
   1   6 -16   60.56    9.82
   1   6 -15   26.70   11.49
   1   6 -14   74.62    7.79
   1   6 -13   10.83    4.94
   1   6 -12   47.13    5.17
   1   6 -11    6.52    3.14
   1   6 -10    6.30    2.93
   1   6  -9   41.14    3.86
   1   6  -8    2.03    2.01
   1   6  -7    7.00    6.52
   1   6  -6   18.08    2.30
   1   6   0   13.11    1.31
   1   6   1    0.23    1.38
   1   6   2    7.00    2.23
   1   6   3    8.76    3.39
   1   6   4   75.41    5.48
   1   6   5   69.02    5.98
   1   6   6   71.55    5.85
   1   6   7   71.03    6.34
   1   6   8    5.21    9.48
   1   6   9   99.22    8.98
   1   6  10    7.90    4.72
   1   6  11   27.02   13.90
   1   6  12   21.83   13.47
   1   6  13  144.09   12.98
   1   6  14  259.85   36.32
   1   6  15  520.78   27.42
   1   6  16  -18.33    8.62
   1   6  17   -2.93    6.32
   1   6  18   -5.64    7.43
   1   6  19   22.55   11.26
   1   6  20   46.31   23.72
   1   7   3  165.75   13.93
   1   7   5   49.65   10.59
   1   7   6   17.83    5.57
   1   7   7   30.90   11.35
   1   7   8   24.13    6.50
   1   7   9   17.20   10.34
   1   7  10  116.35   10.70
   1   7  11   -2.03    5.19
   1   7  12   17.31    9.50
   1   7  13    2.93    9.73
   1   7  14   30.40    7.94
   1   7  15    8.33   12.82
   1   7  16    3.14   13.27
   1   7  17   19.64    5.87
   1   7  18  108.70   14.11
   1   8  10   -1.78    9.01
   1   8  11   37.76    8.49
   1   8  12   29.75   10.00
   1   8  13    4.49    7.90
   1   8  14   77.51   10.59
   2  -9  -6    7.22   11.31
   2  -8 -14    5.64    6.34
   2  -8 -13   20.99   11.98
   2  -8 -12    9.66   11.49
   2  -8 -11   -4.29    5.85
   2  -8 -10   -1.78    4.27
   2  -8  -9   27.33   19.16
   2  -8  -8  105.90   10.52
   2  -8  -7   72.56   13.81
   2  -8  -6    4.29    5.17
   2  -8  -5    4.29    5.85
   2  -8  -4   18.46    9.03
   2  -8  -3   53.31   10.74
   2  -8  -2   66.31    7.34
   2  -7 -18   31.58   12.82
   2  -7 -17   20.04   10.09
   2  -7 -16   18.08   13.29
   2  -7 -15   35.93   52.77
   2  -7 -14   13.99   17.20
   2  -7 -13   18.98   11.78
   2  -7 -12   22.39   12.23
   2  -7 -11    6.75    6.57
   2  -7 -10   10.63    7.65
   2  -7  -9    9.48    7.04
   2  -7  -8   67.53   18.03
   2  -7  -7   28.28   17.42
   2  -7  -6   59.86    9.30
   2  -7  -5   20.72    6.57
   2  -7  -4    7.90    9.28
   2  -7  -3   54.64    9.32
   2  -7  -2  169.27   12.12
   2  -7  -1   74.10    8.01
   2  -7   0   46.11    7.76
   2  -7   1   21.69   16.52
   2  -7   2   14.22    9.52
   2  -6 -20   31.73   11.35
   2  -6 -19   43.70   18.08
   2  -6 -18   41.35   15.26
   2  -6 -17    6.52    9.43
   2  -6 -16  268.15   31.98
   2  -6 -15  126.62   16.23
   2  -6 -14   -2.93    7.47
   2  -6 -13   17.56    6.93
   2  -6 -12  116.35   46.34
   2  -6 -11   19.91   13.14
   2  -6 -10   39.43    7.18
   2  -6  -9   12.14    6.07
   2  -6  -8   47.55    7.45
   2  -6  -7  228.86   15.01
   2  -6  -6   22.55    6.14
   2  -6  -5   48.16    7.09
   2  -6  -4   36.11    7.22
   2  -6  -3  170.04    9.80
   2  -6  -2   -0.68    3.41
   2  -6  -1   13.77    5.01
   2  -6   0    9.66    3.18
   2  -6   1   47.35    5.37
   2  -6   2   79.11    7.74
   2  -6   3  143.36   10.07
   2  -6   4  183.63   17.51
   2  -6   5  201.12   11.08
   2  -5 -23  -56.42   69.29
   2  -5 -22   55.30   39.54
   2  -5 -21   14.90   15.78
   2  -5 -20   14.67    6.57
   2  -5 -19   30.40    8.94
   2  -5 -18   11.53    7.45
   2  -5 -17  145.89    9.80
   2  -5 -16  187.71   10.70
   2  -5 -15  152.87    9.28
   2  -5 -14  219.88   10.25
   2  -5 -13  125.60    9.10
   2  -5 -12    6.52    4.29
   2  -5 -11    0.90    5.17
   2  -5 -10   24.87    5.69
   2  -5  -9   59.63    5.33
   2  -5  -8  703.91   20.72
   2  -5  -7  403.46   14.49
   2  -5  -6  850.32   23.65
   2  -5  -5   17.56    3.14
   2  -5  -4    4.74    3.41
   2  -5  -3    3.36    2.48
   2  -5  -2  310.54   10.07
   2  -5  -1    2.03    2.71
   2  -5   0   10.63    2.46
   2  -5   1  253.60    8.62
   2  -5   2   55.07    3.79
   2  -5   3   84.52    4.97
   2  -5   4    6.30    2.03
   2  -5   5   38.68    2.98
   2  -5   6  338.14   13.27
   2  -5   7  161.53    6.50
   2  -5   8  251.20   11.92
   2  -5   9   44.69    6.23
   2  -5  10   -5.64    4.29
   2  -4 -24    2.03    9.95
   2  -4 -23   14.22    9.75
   2  -4 -22   71.03    9.12
   2  -4 -21   16.70   11.28
   2  -4 -20   11.53    7.45
   2  -4 -19   81.25    7.85
   2  -4 -18   -2.03    5.39
   2  -4 -17  211.93   13.99
   2  -4 -16  213.24   13.61
   2  -4 -15  313.72   11.71
   2  -4 -14   12.14    7.22
   2  -4 -13    3.36    4.29
   2  -4 -12   56.88    4.99
   2  -4 -11   35.93    6.48
   2  -4 -10   44.28    5.19
   2  -4  -9    1.78    4.49
   2  -4  -8  249.31    9.48
   2  -4  -7  336.47   13.23
   2  -4  -6  201.55    8.10
   2  -4  -5  518.03   17.09
   2  -4  -4  453.81   14.72
   2  -4  -3  784.19   21.04
   2  -4  -2   66.54    3.43
   2  -4  -1   52.23    3.48
   2  -4   0    0.23    1.60
   2  -4   1   29.75    1.96
   2  -4   2    7.90    1.35
   2  -4   3    3.81    1.58
   2  -4   4   43.29    2.57
   2  -4   5  229.33    7.74
   2  -4   6  617.45   18.67
   2  -4   7   47.76    3.52
   2  -4   8  718.33   26.56
   2  -4   9   -1.60    3.86
   2  -4  10    6.30    3.61
   2  -4  11  106.53    6.52
   2  -4  12  323.92   18.94
   2  -4  13  122.60    9.98
   2  -4  14    3.14    5.17
   2  -4  15  673.94   42.12
   2  -4  16 1015.33   42.12
   2  -4  17  375.59   24.47
   2  -3 -25   15.84    7.43
   2  -3 -24   19.37    7.67
   2  -3 -23    2.03    7.24
   2  -3 -22    3.81    8.10
   2  -3 -21   37.20    8.06
   2  -3 -20   12.46    8.37
   2  -3 -19  148.80    8.44
   2  -3 -18   24.58    5.37
   2  -3 -17 1066.72   30.42
   2  -3 -16  175.98    7.97
   2  -3 -15  193.94   12.98
   2  -3 -14   27.33    5.19
   2  -3 -13   42.70    5.89
   2  -3 -12   52.43    5.67
   2  -3 -11   -2.73    3.63
   2  -3 -10  398.63   15.60
   2  -3  -9   75.41    4.97
   2  -3  -8 1739.28   45.12
   2  -3  -7   28.93    3.57
   2  -3  -6 1360.29   39.90
   2  -3  -5    2.03    2.48
   2  -3  -4  156.61    4.51
   2  -3  -3   70.01    3.27
   2  -3  -2  137.68    4.58
   2  -3  -1   29.75    2.30
   2  -3   0   23.25    2.32
   2  -3   1 1124.39   28.21
   2  -3   2  122.92    3.99
   2  -3   3   -0.45    1.13
   2  -3   4   50.06    2.12
   2  -3   5   18.46    1.15
   2  -3   6  759.16   27.31
   2  -3   7 1403.85   48.41
   2  -3   8  759.97   36.45
   2  -3   9  179.59    8.46
   2  -3  10   67.28    5.91
   2  -3  11  132.78   10.74
   2  -3  12    2.03    3.18
   2  -3  13   14.22    7.47
   2  -3  14   13.11    4.02
   2  -3  15   23.70    7.90
   2  -3  16  113.46    8.01
   2  -3  17   30.74    7.00
   2  -3  18   11.33    6.97
   2  -3  19  296.41   17.58
   2  -3  20    9.03   11.47
   2  -3  21   17.31    7.00
   2  -3  22  143.00   12.93
   2  -2 -26   95.94    9.71
   2  -2 -25   -3.59   11.71
   2  -2 -24   15.84    6.82
   2  -2 -23   17.56    8.31
   2  -2 -22    4.49    7.00
   2  -2 -21  146.61    9.10
   2  -2 -20   26.86    5.91
   2  -2 -19   32.25    9.21
   2  -2 -18  136.62    7.38
   2  -2 -17  291.78   14.38
   2  -2 -16  352.09   12.98
   2  -2 -15  322.30   13.47
   2  -2 -14   16.95    6.55
   2  -2 -13   -1.33    5.39
   2  -2 -12   68.52    5.96
   2  -2 -11   -0.23    3.18
   2  -2 -10  140.50    6.41
   2  -2  -9   -4.74    4.97
   2  -2  -8   10.13    3.63
   2  -2  -7  121.92    4.65
   2  -2  -6  103.44    3.97
   2  -2  -5  429.82   10.59
   2  -2  -4   59.63    3.02
   2  -2  -3   30.40    2.48
   2  -2  -2   65.09    2.91
   2  -2  -1 3864.65  115.81
   2  -2   0    4.94    2.28
   2  -2   1 1360.29   36.56
   2  -2   2  568.45   13.61
   2  -2   3  129.33    3.77
   2  -2   4    8.15    2.05
   2  -2   5   59.86    7.90
   2  -2   6   65.57    3.66
   2  -2   7  348.71   10.65
   2  -2   8 1171.22   50.38
   2  -2   9   -1.13    3.18
   2  -2  10   15.84    2.28
   2  -2  11  345.91   14.54
   2  -2  12  171.62    7.09
   2  -2  13    8.15    4.29
   2  -2  14  111.54    5.71
   2  -2  15   74.10    4.65
   2  -2  16   95.65    5.28
   2  -2  17   92.45    8.67
   2  -2  18  348.16   27.47
   2  -2  19   25.93    6.27
   2  -2  20    7.47    7.47
   2  -2  21    3.14    9.01
   2  -2  22   32.93   10.86
   2  -2  23   11.94    9.98
   2  -2  24  170.83   15.32
   2  -2  25   -3.81    8.10
   2  -2  26   46.31   21.67
   2  -1 -27   15.62    9.25
   2  -1 -26   32.25    9.05
   2  -1 -25    9.48    7.67
   2  -1 -24   14.44    9.71
   2  -1 -23    0.90    6.27
   2  -1 -22   13.77    8.35
   2  -1 -21   63.87    6.97
   2  -1 -20   14.44    5.82
   2  -1 -19   90.73    6.86
   2  -1 -18  449.98   17.20
   2  -1 -17   18.46    3.61
   2  -1 -16  352.09   12.41
   2  -1 -15   24.58    5.80
   2  -1 -14   14.22    5.21
   2  -1 -13   -5.21    4.54
   2  -1 -12   83.15    7.67
   2  -1 -11  132.78   13.16
   2  -1 -10 5960.56  148.47
   2  -1  -9   72.31    4.33
   2  -1  -8 3973.75  100.39
   2  -1  -7   18.46    2.71
   2  -1  -6 1206.43   25.05
   2  -1  -5    2.73    1.58
   2  -1  -4 6974.67  180.67
   2  -1  -3  130.36    4.11
   2  -1  -2   58.00    2.28
   2  -1  -1    0.23    0.90
   2  -1   0   15.84    1.31
   2  -1   1 1272.02   64.30
   2  -1   2   27.02    1.87
   2  -1   3  248.83    7.58
   2  -1   4 2262.32   68.59
   2  -1   5    5.42    2.23
   2  -1   6 1007.70   28.62
   2  -1   7   -1.60    1.60
   2  -1   8 1073.61   24.60
   2  -1   9   39.99    2.66
   2  -1  10  443.00   12.64
   2  -1  11  378.50   12.86
   2  -1  12    9.95    1.99
   2  -1  13   11.74    3.18
   2  -1  14   12.14    4.92
   2  -1  15  195.64    6.73
   2  -1  16   22.12    8.06
   2  -1  17   37.38   10.11
   2  -1  18  172.01   16.54
   2  -1  19   18.33    8.87
   2  -1  20   13.11    9.68
   2  -1  21   67.03    8.37
   2  -1  22   29.09   12.80
   2  -1  23   -1.78   14.15
   2  -1  24   62.92   10.25
   2  -1  25   19.37   14.42
   2  -1  26   24.58   16.97
   2  -1  27   -8.15    7.90
   2   0 -26   16.45    6.34
   2   0 -24   79.36   12.57
   2   0 -22   45.91    6.73
   2   0 -20   11.94    5.60
   2   0 -18  266.19   11.28
   2   0 -16   29.41    5.21
   2   0 -14  110.28    6.00
   2   0 -12  101.93    5.46
   2   0 -10  422.37   11.10
   2   0  -8  261.79    7.29
   2   0  -6    1.60    2.28
   2   0  -4 1952.19   55.75
   2   0  -2   53.96   11.26
   2   0   0    0.23    0.90
   2   0   4 4047.96   89.85
   2   0   6  806.22   18.78
   2   0   8 5159.04  116.53
   2   0  10 1196.03   36.36
   2   0  12  215.88    7.94
   2   0  14   72.04    7.13
   2   0  16   96.24    8.55
   2   0  18  990.59   54.84
   2   0  20   10.34    6.57
   2   0  22  121.92   12.93
   2   0  24  136.25   16.84
   2   0  26   88.16   16.36
   2   1 -27   11.94    9.46
   2   1 -26   49.65   21.80
   2   1 -25   12.46    8.37
   2   1 -24   37.38   12.30
   2   1 -23    6.07    7.63
   2   1 -22   18.98   10.61
   2   1 -21   47.35    5.78
   2   1 -20    6.52    4.99
   2   1 -19  122.26   13.63
   2   1 -18  438.58   17.00
   2   1 -17   12.89    4.31
   2   1 -16  356.60   13.05
   2   1 -15   25.03    5.42
   2   1 -14   16.95    3.59
   2   1 -13    5.85    3.11
   2   1 -12   75.41    3.66
   2   1 -11  108.70    6.88
   2   1 -10 5972.16  127.70
   2   1  -9   79.11    3.20
   2   1  -8 3998.42   95.00
   2   1  -7   17.31    2.01
   2   1  -6 1207.49   39.68
   2   1  -5    0.45    1.35
   2   1  -4 6847.29  171.55
   2   1  -3  131.74    4.49
   2   1  -2   58.00    3.20
   2   1  -1    2.48    1.38
   2   1   0   25.03    2.26
   2   1   1 1476.84   43.88
   2   1   2   25.03    1.81
   2   1   3  245.52    6.12
   2   1   4 2232.39   56.79
   2   1   5    4.29    2.05
   2   1   6 1002.94   20.94
   2   1   7   -0.90    3.16
   2   1   8 1040.38   22.30
   2   1   9   37.38    2.93
   2   1  10  446.16   14.60
   2   1  11  379.67   15.80
   2   1  12   24.42    8.17
   2   1  13   11.74    6.07
   2   1  14    8.33    4.51
   2   1  15  208.86   12.59
   2   1  16    5.85    8.15
   2   1  17   44.28    7.40
   2   1  18  178.78   10.86
   2   1  19   30.06   10.54
   2   1  20   10.83    8.80
   2   1  21   74.89   10.92
   2   1  22   38.12   11.13
   2   1  23  -10.34    8.31
   2   1  24   99.51   17.69
   2   1  25   36.29   16.30
   2   1  26    9.66   10.18
   2   1  27   -0.45   14.99
   2   2 -26   99.22   18.85
   2   2 -25   21.83    9.68
   2   2 -24   12.14   10.99
   2   2 -23    4.94   13.50
   2   2 -22   -1.60    8.82
   2   2 -21  109.33    9.75
   2   2 -20   20.31    4.74
   2   2 -19   16.70    4.06
   2   2 -18  139.80    9.95
   2   2 -17  266.19    9.80
   2   2 -16  356.60   11.35
   2   2 -15  305.80   12.07
   2   2 -14   29.57    9.48
   2   2 -13    5.64    2.51
   2   2 -12   65.32    3.63
   2   2 -11    1.33    1.81
   2   2 -10  135.22    4.90
   2   2  -9   -0.68    1.58
   2   2  -8   15.84    4.54
   2   2  -7  118.97    4.58
   2   2  -6  119.94    5.26
   2   2  -5  433.57   15.01
   2   2  -4   51.35    3.66
   2   2  -3   31.39    2.19
   2   2  -2   64.84    2.17
   2   2   0    3.81    1.11
   2   2   1 1362.50   44.37
   2   2   2  567.00   17.18
   2   2   3  130.70    4.47
   2   2   4    9.21    1.83
   2   2   5   61.03    3.75
   2   2   6   66.78    4.18
   2   2   7  338.14    8.85
   2   2   8 1194.99   31.17
   2   2   9   -0.23    4.11
   2   2  10   18.71    3.90
   2   2  11  348.16   19.61
   2   2  12  151.02   11.83
   2   2  13    4.94    9.03
   2   2  14  127.63   10.52
   2   2  15   81.79    7.34
   2   2  16   96.24   12.07
   2   2  17  102.83   11.26
   2   2  18  334.28   19.23
   2   2  19   33.63   30.67
   2   2  20   -2.26    8.35
   2   2  21  -16.21   10.65
   2   2  22   64.60   17.88
   2   2  23    9.95    6.82
   2   2  24  156.61   18.42
   2   2  25    7.90   11.74
   2   2  26   -5.64   30.45
   2   3 -25   18.33    8.87
   2   3 -24   18.46   15.10
   2   3 -23   -3.81   11.67
   2   3 -22    2.93    7.88
   2   3 -21   39.99    9.50
   2   3 -20   -1.78   12.14
   2   3 -19  150.29   10.68
   2   3 -18   25.48    7.74
   2   3 -17 1058.89   38.12
   2   3 -16  199.86    8.49
   2   3 -15  188.14    9.07
   2   3 -14   19.91    3.23
   2   3 -13   46.52    5.73
   2   3 -12   56.20    4.51
   2   3 -11    4.94    2.48
   2   3 -10  365.75   11.49
   2   3  -9   74.89    4.15
   2   3  -8 1691.98   53.15
   2   3  -7   32.77    2.75
   2   3  -6 1197.06   40.54
   2   3  -5    7.47    2.30
   2   3  -4  151.40    5.17
   2   3  -3   69.76    2.26
   2   3  -1   25.48    3.63
   2   3   0   23.41    0.88
   2   3   1 1088.41   24.78
   2   3   2  123.59    8.01
   2   3   3    1.33    1.81
   2   3   4   49.23    2.73
   2   3   5   16.70    2.21
   2   3   6  782.50   21.85
   2   3   7 1392.63   45.97
   2   3   8  733.70   19.52
   2   3   9  160.77    7.99
   2   3  10   67.03    5.42
   2   3  11  123.59    6.68
   2   3  12   13.54    7.63
   2   3  13   -3.36    7.88
   2   3  14   17.56    5.91
   2   3  15   22.55    7.85
   2   3  16  116.35   10.04
   2   3  17   31.58    7.61
   2   3  18    0.68    8.40
   2   3  19  267.66   17.69
   2   3  20    0.90   17.54
   2   3  21   32.25   17.06
   2   3  22  128.99   26.61
   2   3  23   14.22   11.78
   2   3  24    9.03    8.85
   2   3  25   36.11   19.14
   2   4 -24   14.67   10.81
   2   4 -23    8.15   25.55
   2   4 -22   61.73    8.51
   2   4 -21   -2.93    4.94
   2   4 -20   18.08   30.02
   2   4 -19   91.00   13.47
   2   4 -18   -5.64    7.92
   2   4 -17  186.90   12.32
   2   4 -16  201.98   12.82
   2   4 -15  315.32   30.94
   2   4 -14   14.44    4.11
   2   4 -13   17.31    7.00
   2   4 -12   66.78    4.67
   2   4 -11   25.93    3.68
   2   4 -10   41.14    3.86
   2   4  -9   10.34    2.51
   2   4  -8  246.94    9.43
   2   4  -7  319.61   12.89
   2   4  -6  186.09    7.79
   2   4  -5  499.72   17.47
   2   4  -4  451.26   14.67
   2   4  -1   69.76    7.54
   2   4   0    1.13    0.45
   2   4   1   28.93    1.63
   2   4   2    0.00    2.26
   2   4   3    0.68    1.58
   2   4   4   48.80    3.99
   2   4   5  224.80   11.71
   2   4   6  659.20   23.13
   2   4   7   52.00    4.11
   2   4   8  712.69   24.06
   2   4   9    4.94    3.41
   2   4  10    8.15    4.29
   2   4  11  106.53    8.37
   2   4  12  297.45   15.03
   2   4  13  120.28    9.23
   2   4  14    3.81    8.98
   2   4  15  624.19   30.02
   2   4  16 1092.38   61.57
   2   4  17  366.33   17.83
   2   4  18   36.11   10.29
   2   4  19    6.52    6.75
   2   4  20   14.22    9.98
   2   4  21   34.69   15.75
   2   4  22   54.64   10.22
   2   4  23   14.44   12.68
   2   4  24   58.25   13.77
   2   5 -23    4.74    7.92
   2   5 -22    0.90    6.75
   2   5 -21   11.94    6.34
   2   5 -20   10.13    8.13
   2   5 -19   27.33   11.78
   2   5 -18    1.33    3.59
   2   5 -17  179.97   12.10
   2   5 -16  213.67   15.37
   2   5 -15  149.19    9.19
   2   5 -14  199.43   12.73
   2   5 -13   95.65    6.75
   2   5 -12    7.90    4.06
   2   5 -11    4.29    3.18
   2   5 -10   32.07    5.62
   2   5  -9   52.43    4.56
   2   5  -8  643.09   19.05
   2   5  -7  413.17   15.89
   2   5  -6  847.68   29.75
   2   5   1  260.82    9.71
   2   5   2   57.33    2.96
   2   5   3   43.29   64.66
   2   5   4    7.65    2.48
   2   5   5   36.29    3.07
   2   5   6  330.99   11.49
   2   5   7  164.22    6.93
   2   5   8  234.82    9.21
   2   5   9   52.23    7.15
   2   5  10    3.36    4.02
   2   5  11    7.22    3.39
   2   5  12   48.80    9.43
   2   5  13   30.74    7.49
   2   5  14    2.03    4.97
   2   5  15    1.33    8.06
   2   5  16  146.61    9.82
   2   5  17   79.11    9.10
   2   5  18   -1.60    9.52
   2   5  19  133.82   12.50
   2   5  20   12.14   13.93
   2   5  21   65.57   10.70
   2   5  22   12.68   10.59
   2   6 -20   19.37    8.33
   2   6 -19   23.25    5.37
   2   6 -18   25.93    7.20
   2   6 -17   18.46    5.42
   2   6 -16  268.15   18.69
   2   6 -15  140.14   10.68
   2   6 -14    1.13    4.06
   2   6 -13   29.57    5.24
   2   6 -12   34.15    3.86
   2   6 -11    9.48    4.54
   2   6 -10   53.74    5.06
   2   6  -9    5.21    3.84
   2   6  -8   58.00    3.88
   2   6   2   69.76    3.27
   2   6   3  153.99    9.71
   2   6   5  182.00   11.35
   2   6   6   78.02    6.91
   2   6   7   12.46    4.04
   2   6   8   53.31    6.36
   2   6   9   -1.33    6.30
   2   6  10   18.46    9.03
   2   6  11   37.20   33.00
   2   6  12   73.33   11.58
   2   6  13    2.48    6.55
   2   6  14   -0.90    8.33
   2   6  15  105.60   14.20
   2   6  16  215.88   20.31
   2   6  17   39.81    8.15
   2   6  18   44.49   10.43
   2   6  19   10.63   12.44
   2   6  20    9.66   10.56
   2   7   4   20.72    8.76
   2   7   5   11.94    4.04
   2   7   6   38.30    5.39
   2   7   7  133.12    9.01
   2   7   8   61.50    8.24
   2   7   9  104.36   17.49
   2   7  10    1.13    6.57
   2   7  11   33.11   19.03
   2   7  12   35.57    7.00
   2   7  13  129.33   12.98
   2   7  14   61.98   11.35
   2   7  15   30.90   11.69
   2   7  16   21.69   11.47
   2   7  17   48.39    9.41
   2   8  12   22.12    9.05
   2   8  13   11.01   11.96
   3  -8 -13    2.26    4.06
   3  -8 -12   -8.58    9.95
   3  -8 -11    7.00   10.18
   3  -8 -10   52.43   11.96
   3  -8  -9   70.53   27.51
   3  -8  -8    9.95   12.62
   3  -8  -7    4.06    8.35
   3  -8  -6   79.11   26.45
   3  -8  -5   42.70    7.85
   3  -8  -4   47.76    8.94
   3  -8  -3   12.14   11.51
   3  -8  -2   24.58    7.15
   3  -7 -17   37.38   11.94
   3  -7 -16   -0.90    9.66
   3  -7 -15  213.67   72.90
   3  -7 -14   73.33   27.78
   3  -7 -13   -1.60    8.37
   3  -7 -12   -6.52    7.67
   3  -7 -11    5.42    6.30
   3  -7 -10   20.31   10.83
   3  -7  -9   57.33   10.47
   3  -7  -8   66.54   20.58
   3  -7  -7   31.06    9.05
   3  -7  -6    0.00    2.26
   3  -7  -5   20.58    6.95
   3  -7  -4   13.77    8.58
   3  -7  -3  174.78   12.71
   3  -7  -2  145.17   10.50
   3  -7  -1    9.03    7.94
   3  -7   0   13.77    7.02
   3  -7   1  468.66   21.46
   3  -7   2  172.01   10.63
   3  -6 -20   94.48   16.36
   3  -6 -19    1.33   12.80
   3  -6 -18    6.75    7.88
   3  -6 -17  127.63   17.99
   3  -6 -16    3.36   13.93
   3  -6 -15   74.62   12.98
   3  -6 -14   25.03    9.77
   3  -6 -13    9.03   11.47
   3  -6 -12   31.06   12.23
   3  -6 -11    5.42    8.33
   3  -6 -10   70.28    9.32
   3  -6  -9   19.64    8.40
   3  -6  -8   42.91    8.67
   3  -6  -7   13.11    9.46
   3  -6  -6  103.75    8.58
   3  -6  -5   89.02    5.39
   3  -6  -4  337.04   10.47
   3  -6  -3   48.39    6.48
   3  -6  -2  221.21   12.07
   3  -6  -1   61.50    3.99
   3  -6   0   31.58    7.27
   3  -6   1   79.11    6.41
   3  -6   2  106.82    7.76
   3  -6   3  121.61    9.93
   3  -6   4   44.28   10.20
   3  -6   5   28.60    3.86
   3  -5 -23  -53.31   60.76
   3  -5 -22   34.33   12.50
   3  -5 -21    4.49    7.00
   3  -5 -20   52.00   10.83
   3  -5 -19   39.07    8.26
   3  -5 -18  245.06   11.28
   3  -5 -17   20.58    6.14
   3  -5 -16   -5.85    4.72
   3  -5 -15  234.37   12.89
   3  -5 -14    8.15    7.04
   3  -5 -13  300.04   13.00
   3  -5 -12    7.00    4.92
   3  -5 -11   11.74    3.39
   3  -5 -10   36.47    7.27
   3  -5  -9  275.08   10.47
   3  -5  -8  156.23    8.64
   3  -5  -7   -0.23    3.43
   3  -5  -6  196.04    7.99
   3  -5  -5   27.33    3.77
   3  -5  -4  326.09   11.94
   3  -5  -3  331.53   10.95
   3  -5  -2   51.35    4.31
   3  -5  -1   92.15    4.60
   3  -5   0    5.21    2.26
   3  -5   1  893.79   24.26
   3  -5   2   70.01    3.77
   3  -5   3  101.32    4.83
   3  -5   4  171.22    6.30
   3  -5   5    9.03    1.99
   3  -5   6   32.07    2.73
   3  -5   7  468.01   22.75
   3  -5   8  140.50    9.98
   3  -5   9   35.57   11.65
   3  -5  10   29.57    8.49
   3  -5  11   16.70    7.85
   3  -4 -24   27.33   10.36
   3  -4 -23   61.03   10.09
   3  -4 -22   23.41   14.83
   3  -4 -21  230.69   13.23
   3  -4 -20   60.80    9.14
   3  -4 -19   22.98    7.92
   3  -4 -18    4.06    5.39
   3  -4 -17  214.12   14.94
   3  -4 -16    0.90    4.94
   3  -4 -15  123.59    8.69
   3  -4 -14   36.83    6.75
   3  -4 -13   17.20   11.33
   3  -4 -12    7.90    4.72
   3  -4 -11   14.22    5.67
   3  -4 -10  225.70    8.13
   3  -4  -9   55.97    4.94
   3  -4  -8  145.89    7.27
   3  -4  -7   39.07    5.82
   3  -4  -6  141.22    6.07
   3  -4  -5  526.96   15.87
   3  -4  -4  446.79   14.60
   3  -4  -3  143.36    5.76
   3  -4  -2  402.24   12.66
   3  -4  -1   -1.13    2.51
   3  -4   0  158.87    5.69
   3  -4   1 1709.33   53.42
   3  -4   2    6.75    1.81
   3  -4   3  220.76    9.37
   3  -4   4  811.34   27.38
   3  -4   5  104.05    4.60
   3  -4   6   13.54    1.33
   3  -4   7 1362.50   83.17
   3  -4   8   -2.03    3.61
   3  -4   9  149.91   12.14
   3  -4  10   83.15    5.48
   3  -4  11    0.68    4.99
   3  -4  12   18.08    7.40
   3  -4  13    4.06    5.62
   3  -4  14    9.66    5.60
   3  -4  15   74.10    9.82
   3  -4  16    8.76    7.65
   3  -4  17  242.24   13.56
   3  -4  18    8.33    7.63
   3  -3 -25   14.90    7.90
   3  -3 -24   30.90    9.03
   3  -3 -23   -3.59    9.66
   3  -3 -22    7.47    7.88
   3  -3 -21   -4.29    4.54
   3  -3 -20   35.57   14.69
   3  -3 -19   19.37    6.34
   3  -3 -18  148.44   10.99
   3  -3 -17  892.89   26.05
   3  -3 -16   70.28    8.31
   3  -3 -15    8.33    4.51
   3  -3 -14    1.13    4.51
   3  -3 -13   43.49    6.14
   3  -3 -12   62.45    6.88
   3  -3 -11   61.50    5.67
   3  -3 -10   36.29    6.70
   3  -3  -9  692.78   22.93
   3  -3  -8    4.74    2.96
   3  -3  -7  239.44    8.82
   3  -3  -6  457.02   12.84
   3  -3  -5   99.22    5.69
   3  -3  -4  245.52    8.01
   3  -3  -3  163.84    5.01
   3  -3  -2  167.31    5.06
   3  -3  -1   57.33    2.51
   3  -3   0  521.46   13.72
   3  -3   1  240.37    7.00
   3  -3   2  167.31    4.67
   3  -3   3   46.72    2.26
   3  -3   4  177.58    4.81
   3  -3   5  102.22    7.61
   3  -3   6  257.93   11.10
   3  -3   7 2453.40   81.86
   3  -3   8  585.04   21.08
   3  -3   9   40.20    6.09
   3  -3  10   77.78    5.57
   3  -3  11   87.89    6.21
   3  -3  12   89.87    5.98
   3  -3  13   40.20   11.42
   3  -3  14   39.07    8.08
   3  -3  15  334.83   24.74
   3  -3  16  214.12   13.18
   3  -3  17  542.94   25.91
   3  -3  18  586.48   45.84
   3  -3  19   66.78    9.82
   3  -3  20   89.29   20.45
   3  -3  21  198.16   16.50
   3  -3  22   35.21   13.54
   3  -2 -26    4.06    7.67
   3  -2 -25   92.74   14.47
   3  -2 -24   28.44   11.22
   3  -2 -23  120.28    8.58
   3  -2 -22   19.25   16.75
   3  -2 -21  128.65    9.55
   3  -2 -20    7.00    8.58
   3  -2 -19  142.28    8.96
   3  -2 -18   96.53    7.09
   3  -2 -17  626.45   21.06
   3  -2 -16   72.04    5.35
   3  -2 -15   30.74    8.82
   3  -2 -14   65.57    4.88
   3  -2 -13   33.81    4.36
   3  -2 -12    8.15    4.72
   3  -2 -11  292.28    9.75
   3  -2 -10   76.44    4.99
   3  -2  -9  801.12   22.12
   3  -2  -8  158.87    6.05
   3  -2  -7  280.59    9.05
   3  -2  -6  911.85   21.78
   3  -2  -5  227.05    6.79
   3  -2  -4  947.58   20.36
   3  -2  -3  951.28   22.23
   3  -2  -2 3575.17   86.24
   3  -2  -1  162.68    4.60
   3  -2   0 7035.03  181.46
   3  -2   1 2576.95   65.59
   3  -2   2  453.81   12.80
   3  -2   3  338.68    9.39
   3  -2   4 2866.86  106.17
   3  -2   5  152.51    6.30
   3  -2   6    3.81    2.23
   3  -2   7 1428.74   67.01
   3  -2   8   81.79    5.71
   3  -2   9  208.86   10.43
   3  -2  10  481.76   21.76
   3  -2  11   25.93    4.74
   3  -2  12   89.58    4.83
   3  -2  13   15.62    3.57
   3  -2  14   84.25    5.51
   3  -2  15   61.50    3.99
   3  -2  16  137.32   10.56
   3  -2  17    4.06    4.54
   3  -2  18   21.26    8.31
   3  -2  19  185.66   13.09
   3  -2  20  -15.98    8.76
   3  -2  21    7.22    6.30
   3  -2  22    7.47    6.82
   3  -2  23   64.37   14.94
   3  -2  24   20.99    9.10
   3  -2  25   21.42   13.77
   3  -2  26   36.83   16.41
   3  -1 -27    8.76   14.40
   3  -1 -26   19.64   11.44
   3  -1 -25   17.20    7.22
   3  -1 -24   -0.23   11.87
   3  -1 -23    6.75    8.13
   3  -1 -22    6.07    6.95
   3  -1 -21   41.93    7.97
   3  -1 -20   12.46    8.37
   3  -1 -19    4.49    4.27
   3  -1 -18   61.73    6.14
   3  -1 -17   39.99    6.84
   3  -1 -16    0.23    3.66
   3  -1 -15   46.11    5.10
   3  -1 -14   22.98    4.76
   3  -1 -13   42.91    4.54
   3  -1 -12   56.88    5.44
   3  -1 -11 1840.96   45.12
   3  -1 -10  305.80   11.04
   3  -1  -9 1403.85   39.41
   3  -1  -8  194.37    5.44
   3  -1  -7  677.84   14.87
   3  -1  -6   10.13    2.48
   3  -1  -5 1437.84   35.32
   3  -1  -4  228.41    5.91
   3  -1  -3 1916.50   44.73
   3  -1  -2  499.72   14.11
   3  -1  -1  949.43   23.16
   3  -1   0  232.06    6.41
   3  -1   1 3667.39   94.61
   3  -1   2  997.23   33.20
   3  -1   3 1503.52   38.44
   3  -1   4   28.93    2.41
   3  -1   5  341.46   12.77
   3  -1   6   11.53    3.16
   3  -1   7 5156.87  146.73
   3  -1   8   57.55    2.96
   3  -1   9   72.56    3.32
   3  -1  10  215.00    7.04
   3  -1  11   38.87    3.36
   3  -1  12    2.26    2.93
   3  -1  13   -2.73    3.39
   3  -1  14   53.54    3.95
   3  -1  15   68.52    4.72
   3  -1  16   25.93    6.73
   3  -1  17  576.35   28.12
   3  -1  18  344.24   23.97
   3  -1  19   14.44    7.88
   3  -1  20   60.80   11.49
   3  -1  21  163.45   13.84
   3  -1  22    8.58    8.53
   3  -1  23   22.82   17.38
   3  -1  24   30.40   12.10
   3  -1  25   19.37    7.94
   3  -1  26   -6.07    9.71
   3   0 -27   47.55   14.51
   3   0 -25  167.31   12.05
   3   0 -23   77.78    6.88
   3   0 -21   50.71    6.84
   3   0 -19  320.70   12.91
   3   0 -17  123.25   13.00
   3   0 -15   -3.36    3.59
   3   0 -13   82.61    5.46
   3   0 -11 1894.20   51.01
   3   0  -9  249.31    7.58
   3   0  -7  108.70    3.77
   3   0  -5    3.59    1.83
   3   0  -3  242.24    6.07
   3   0  -1  139.80    4.97
   3   0   1  163.45    4.99
   3   0   3  364.03   10.90
   3   0   5   55.52    2.46
   3   0   7 1783.41   35.53
   3   0   9  178.37    8.82
   3   0  11    3.36    3.36
   3   0  13   33.81    5.94
   3   0  15    5.85    5.67
   3   0  17   84.52   14.08
   3   0  19  542.94   30.81
   3   0  21  201.98   18.78
   3   0  23  124.27   18.08
   3   0  25  140.50   31.35
   3   1 -27   10.63    8.13
   3   1 -26   36.29   47.60
   3   1 -25   29.75   11.47
   3   1 -24    6.75    8.35
   3   1 -23    6.75    8.13
   3   1 -22   -4.94    4.27
   3   1 -21   54.84    5.35
   3   1 -20    1.13    5.89
   3   1 -19   12.14    4.92
   3   1 -18   71.28    6.09
   3   1 -17   45.50    7.29
   3   1 -16    3.36    3.79
   3   1 -15   24.13    3.09
   3   1 -14    4.29    2.73
   3   1 -13   40.76    4.60
   3   1 -12   44.89    3.23
   3   1 -11 1887.68   40.47
   3   1 -10  288.20    8.67
   3   1  -9 1419.67   32.84
   3   1  -8  183.22    4.88
   3   1  -7  666.15   15.51
   3   1  -6   11.53    1.83
   3   1  -5 1446.96   33.16
   3   1  -4  230.24    8.67
   3   1  -3 1881.16   57.35
   3   1  -2  508.50   17.63
   3   1  -1  925.50   42.05
   3   1   0  232.52    6.88
   3   1   1 3600.36  109.98
   3   1   2  963.38   28.91
   3   1   3 1489.57   33.63
   3   1   4   26.86    2.96
   3   1   5  329.36    7.63
   3   1   6   10.83    2.28
   3   1   7 5252.25  102.35
   3   1   8   63.40    3.34
   3   1   9   63.87    2.64
   3   1  10  199.00   13.14
   3   1  11   24.87    6.30
   3   1  13   31.58   13.50
   3   1  14   55.52    7.83
   3   1  15   86.76   10.36
   3   1  16    8.58    9.68
   3   1  17  570.59   27.99
   3   1  18  338.68   17.15
   3   1  19   17.83   10.16
   3   1  20   50.92   14.58
   3   1  21  162.68   14.56
   3   1  22    4.06    7.20
   3   1  23   24.13   15.05
   3   1  24   19.91    8.58
   3   1  25   48.16   20.85
   3   1  26   39.43   20.76
   3   2 -26   10.34    6.95
   3   2 -25   66.54   25.98
   3   2 -24    4.06   11.74
   3   2 -23  129.33   14.69
   3   2 -22    2.48    6.55
   3   2 -21  112.80   12.77
   3   2 -20   -0.23    4.11
   3   2 -19  161.53   11.47
   3   2 -18   91.30    6.88
   3   2 -17  638.53   18.98
   3   2 -16   92.45    6.36
   3   2 -15   13.77    2.89
   3   2 -14   72.56    5.89
   3   2 -13   32.41    2.91
   3   2 -12   11.01    2.69
   3   2 -11  292.80    8.22
   3   2 -10   78.30    3.72
   3   2  -9  815.63   19.73
   3   2  -8  158.12    7.56
   3   2  -7  259.37    8.22
   3   2  -6  900.09   31.55
   3   2  -5  219.88    7.58
   3   2  -4  930.08   37.58
   3   2  -3  901.89   33.38
   3   2  -2 3466.43  159.21
   3   2  -1  161.15    5.73
   3   2   1 2602.95   75.11
   3   2   2  490.38   11.98
   3   2   3  329.90    8.19
   3   2   4 2810.81   62.14
   3   2   5  142.28    4.65
   3   2   6    1.13    2.51
   3   2   7 1446.96   39.99
   3   2   8   88.72    5.10
   3   2   9  205.84    7.76
   3   2  10  483.74   15.87
   3   2  11   16.21    9.93
   3   2  12  100.71    7.54
   3   2  13    8.15    5.39
   3   2  14   81.79    7.88
   3   2  15   68.03    9.91
   3   2  16  160.77   14.11
   3   2  18   25.32    7.72
   3   2  19  192.70   34.62
   3   2  20   -4.49   10.38
   3   2  21    9.21    6.57
   3   2  22   44.28  117.18
   3   2  23   60.56   13.56
   3   2  24   15.84    9.93
   3   2  25   13.11   14.90
   3   2  26   40.76   11.31
   3   3 -25   12.89    7.88
   3   3 -24   16.21   14.40
   3   3 -23    7.90    7.43
   3   3 -22    8.76   12.80
   3   3 -21    2.48    6.30
   3   3 -20   39.99    9.68
   3   3 -19   22.82    9.32
   3   3 -18  138.38    6.36
   3   3 -17  901.89   34.28
   3   3 -16   93.89    8.15
   3   3 -15   11.33    4.24
   3   3 -14   -7.22    6.55
   3   3 -13   56.42    5.64
   3   3 -12   59.40    4.40
   3   3 -11   64.84    3.39
   3   3 -10   28.60    3.54
   3   3  -9  697.55   19.84
   3   3  -8   -2.48    2.46
   3   3  -7  227.96    7.27
   3   3  -6  464.76   22.03
   3   3  -4  239.44    7.90
   3   3  -3  155.10    6.36
   3   3   0  519.40   16.43
   3   3   1  239.44    6.50
   3   3   2  154.74    5.24
   3   3   3   50.06    4.47
   3   3   4  166.54    5.82
   3   3   5  102.83    5.19
   3   3   6  250.26    9.03
   3   3   7 2408.96   69.31
   3   3   8  560.59   16.36
   3   3   9   22.39    4.27
   3   3  10   64.84    4.60
   3   3  11   80.17    5.91
   3   3  12   89.29    9.37
   3   3  13   42.70    7.65
   3   3  14   32.77    7.40
   3   3  15  311.08   21.19
   3   3  16  213.67   12.73
   3   3  17  542.24   28.69
   3   3  18  563.44   31.37
   3   3  19   94.77   14.04
   3   3  20   86.49    9.77
   3   3  21  242.24   20.58
   3   3  22   -3.81   11.26
   3   3  23   45.91   10.59
   3   3  24   -3.36   13.27
   3   3  25   19.64   12.66
   3   4 -24   -4.74   10.86
   3   4 -23   36.47    7.45
   3   4 -22   13.99    8.53
   3   4 -21  234.37   17.94
   3   4 -20   32.41    8.03
   3   4 -19   51.14   14.60
   3   4 -18    3.59   12.57
   3   4 -17  209.74   13.05
   3   4 -16   -2.03    5.39
   3   4 -15  134.86   18.15
   3   4 -14   41.73    8.35
   3   4 -13    8.15    5.24
   3   4 -12    8.15    2.23
   3   4 -11   15.14    3.16
   3   4 -10  239.44   10.22
   3   4  -9   60.56    3.97
   3   4  -8  132.08    6.57
   3   4  -7   30.40    4.31
   3   4  -6  144.81    5.42
   3   4  -5  532.49   20.81
   3   4   0  145.89   10.16
   3   4   1 1743.03   55.21
   3   4   2    9.95    1.33
   3   4   3  210.17   16.54
   3   4   4  809.63   29.07
   3   4   5   82.61    4.65
   3   4   6   13.32    3.18
   3   4   7 1251.73   35.07
   3   4   8    3.36    3.14
   3   4   9  152.87    8.17
   3   4  10   73.08    6.43
   3   4  11    1.13    4.29
   3   4  12   17.56    7.18
   3   4  13    2.26    5.19
   3   4  14   14.44    9.03
   3   4  15   78.57    9.59
   3   4  16   -6.30    7.47
   3   4  17  276.08   16.48
   3   4  18   10.13    9.66
   3   4  19   -9.48    9.43
   3   4  20   -0.45   13.41
   3   4  21    2.73   13.36
   3   4  22    7.65   11.28
   3   4  23   -0.45   10.45
   3   4  24    2.73    9.52
   3   5 -23   26.86   13.38
   3   5 -22   61.98   11.13
   3   5 -21   14.22   11.78
   3   5 -20   44.89   10.47
   3   5 -19   73.08   34.42
   3   5 -18  246.46   16.97
   3   5 -17    5.42    6.30
   3   5 -16   -2.03    4.06
   3   5 -15  510.53  196.20
   3   5 -14   11.94    7.15
   3   5 -13  267.66   13.77
   3   5 -12   14.44    7.43
   3   5 -11    6.52    6.07
   3   5 -10   37.01    5.12
   3   5  -9  268.65   11.83
   3   5  -8  145.53    5.44
   3   5  -7    0.68    2.26
   3   5   2   61.73    2.60
   3   5   3  106.21    7.13
   3   5   4  169.27   10.56
   3   5   5   11.53    2.75
   3   5   6   36.83    3.84
   3   5   7  501.08   18.82
   3   5   8  130.36   12.68
   3   5   9    0.45    4.76
   3   5  10   10.13    4.69
   3   5  11   13.11    5.01
   3   5  12    4.29    4.29
   3   5  13   -2.03    8.37
   3   5  14   35.57    8.60
   3   5  15   68.03    9.91
   3   5  16   15.84    8.13
   3   5  17  110.59   15.48
   3   5  18  117.00   16.90
   3   5  19    2.03    8.15
   3   5  20   18.08    8.82
   3   5  21  674.71  253.66
   3   5  22   23.70    7.90
   3   6 -20   49.02    8.19
   3   6 -19   27.02    9.21
   3   6 -18    4.29    5.67
   3   6 -17  152.87   13.00
   3   6 -16   10.63    5.19
   3   6 -15   76.72    7.11
   3   6 -14   43.49    6.93
   3   6 -13    0.23    3.66
   3   6 -12   44.28    4.60
   3   6 -11    3.14    3.14
   3   6 -10   74.89    4.67
   3   6  -9    7.90    2.96
   3   6   2   98.31    5.06
   3   6   3  126.62    7.45
   3   6   4   42.52    3.52
   3   6   6  171.22   12.98
   3   6   7    2.48    6.12
   3   6   8   28.60    6.27
   3   6   9   85.65   11.67
   3   6  10    1.13    5.21
   3   6  11    9.66   17.38
   3   6  12   32.93   10.18
   3   6  13   35.93   22.52
   3   6  14  108.70   12.53
   3   6  15   36.29    9.77
   3   6  16   45.09   11.71
   3   6  17   52.66   20.72
   3   6  18   23.25    7.24
   3   6  19   25.03   24.80
   3   6  20    7.47    8.78
   3   7   5   57.55    5.94
   3   7   6    2.73    4.06
   3   7   7   80.98    6.50
   3   7   8   50.92   10.29
   3   7   9   36.83    6.75
   3   7  10    7.65    8.55
   3   7  11   13.54   10.18
   3   7  12    8.15    8.40
   3   7  13   -0.68    7.24
   3   7  14    3.81    8.98
   3   7  15   30.90   17.54
   3   7  16   62.20    9.71
   3   7  17   41.53    8.33
   3   8  13   39.99   13.11
   4  -8 -13    1.33   17.72
   4  -8 -12    5.42   12.17
   4  -8 -11   57.10   20.90
   4  -8 -10    3.81   12.62
   4  -8  -9   53.54   13.86
   4  -8  -8   14.44   11.53
   4  -8  -7   38.12   17.99
   4  -8  -6   -0.45   21.80
   4  -8  -5    3.81    8.58
   4  -8  -4    4.49    8.08
   4  -8  -3   56.65    6.79
   4  -7 -17   36.29   13.77
   4  -7 -16   20.58   12.41
   4  -7 -15   35.93   11.53
   4  -7 -14   -2.48    6.77
   4  -7 -13   64.60   13.29
   4  -7 -12   28.60   11.89
   4  -7 -11   93.30   18.58
   4  -7 -10  -11.01    6.27
   4  -7  -9   23.99    9.57
   4  -7  -8   27.96    9.68
   4  -7  -7   12.68   10.16
   4  -7  -6   49.43   23.25
   4  -7  -5    0.68    6.36
   4  -7  -4   -7.47    7.47
   4  -7  -3   41.14    5.39
   4  -7  -2   70.28    8.82
   4  -7  -1    3.36    6.05
   4  -7   0  168.10   10.13
   4  -7   1   16.95    6.55
   4  -6 -20   16.95   11.26
   4  -6 -19   42.70   17.88
   4  -6 -18  226.15   26.66
   4  -6 -17  186.90   21.78
   4  -6 -16   93.60   18.30
   4  -6 -15  274.09   52.72
   4  -6 -14   18.08   15.32
   4  -6 -13   10.13   10.13
   4  -6 -12   -0.68    7.47
   4  -6 -11   30.24   11.24
   4  -6 -10   65.81   10.47
   4  -6  -9   35.93    8.82
   4  -6  -8   32.93    7.24
   4  -6  -7   49.02   10.52
   4  -6  -6   27.02    3.43
   4  -6  -5   37.38    8.64
   4  -6  -4   19.64    3.59
   4  -6  -3   17.83    4.94
   4  -6  -2  269.15    9.37
   4  -6  -1    9.95    3.14
   4  -6   0  238.05   13.45
   4  -6   1  399.85   20.43
   4  -6   2    0.23    4.11
   4  -6   3   55.75    5.82
   4  -6   4   10.63    7.94
   4  -5 -22   78.84   10.95
   4  -5 -21   24.87    7.49
   4  -5 -20   76.20    7.88
   4  -5 -19  165.37   10.43
   4  -5 -18  348.71   15.71
   4  -5 -17  153.99   10.45
   4  -5 -16   53.54   10.99
   4  -5 -15    2.26    7.45
   4  -5 -14  484.40   20.49
   4  -5 -13    6.75    5.62
   4  -5 -12   11.01    7.67
   4  -5 -11  230.69    9.12
   4  -5 -10   -2.03    3.39
   4  -5  -9   44.10    5.78
   4  -5  -8   12.14    4.09
   4  -5  -7  111.22    7.29
   4  -5  -6   -3.36    2.91
   4  -5  -5    5.85    2.91
   4  -5  -4  481.10   15.17
   4  -5  -3   22.39    2.98
   4  -5  -2   12.46    2.75
   4  -5  -1   50.71    3.86
   4  -5   0  213.67    7.02
   4  -5   1    2.26    2.03
   4  -5   2   -0.45    2.73
   4  -5   3  360.60   11.98
   4  -5   4  180.38    6.46
   4  -5   5  182.00    6.88
   4  -5   6  419.30   16.61
   4  -5   7   -4.49    4.06
   4  -5   8   33.11    8.82
   4  -5   9  117.00    7.15
   4  -5  10   -2.48    9.48
   4  -5  11    6.75    6.09
   4  -4 -24   37.01    9.32
   4  -4 -23   -5.42    8.13
   4  -4 -22   37.01    9.50
   4  -4 -21   22.55   11.56
   4  -4 -20   49.86    8.28
   4  -4 -19   -2.03    9.73
   4  -4 -18    2.48    6.12
   4  -4 -17  161.53    9.16
   4  -4 -16  134.16    9.39
   4  -4 -15   21.69    6.73
   4  -4 -14   43.49    5.55
   4  -4 -13   20.72    6.70
   4  -4 -12   82.34    6.27
   4  -4 -11   34.69    4.97
   4  -4 -10  111.54    5.71
   4  -4  -9   -1.60    3.63
   4  -4  -8   12.68    2.89
   4  -4  -7   60.56    3.75
   4  -4  -6   15.84    4.06
   4  -4  -5    2.26    2.93
   4  -4  -4    6.07    2.21
   4  -4  -3    2.03    3.18
   4  -4  -2  185.66    6.95
   4  -4  -1   13.32    3.41
   4  -4   0 3359.35   95.79
   4  -4   1  696.73   24.58
   4  -4   2   55.75    4.72
   4  -4   3  451.90   15.96
   4  -4   4    4.94    2.66
   4  -4   5  107.77    5.30
   4  -4   6    1.13    2.51
   4  -4   7   24.13    5.01
   4  -4   8   64.60    6.03
   4  -4   9    8.15    3.86
   4  -4  10   76.72    8.15
   4  -4  11   72.04   14.29
   4  -4  12   45.91    5.91
   4  -4  13  114.09   63.87
   4  -4  14  182.41   12.98
   4  -4  15  364.03   21.22
   4  -4  16  436.07   23.83
   4  -4  17    0.45    6.59
   4  -4  18   24.58    7.00
   4  -3 -25    4.29    9.03
   4  -3 -24   44.10   11.78
   4  -3 -23   22.55    5.71
   4  -3 -22  147.36   10.95
   4  -3 -21   68.52    7.97
   4  -3 -20  169.27   13.29
   4  -3 -19   39.07   10.52
   4  -3 -18   44.89    5.85
   4  -3 -17  112.80    6.39
   4  -3 -16  218.54    9.77
   4  -3 -15  124.92    7.38
   4  -3 -14  679.40   18.80
   4  -3 -13    8.15    4.54
   4  -3 -12    0.45    4.31
   4  -3 -11  813.92   24.85
   4  -3 -10   22.39    5.26
   4  -3  -9   14.22    5.44
   4  -3  -8   97.73    8.92
   4  -3  -7  139.08    7.79
   4  -3  -6  429.82   14.94
   4  -3  -5   71.55    3.57
   4  -3  -4   21.69    2.66
   4  -3  -3    4.94    3.14
   4  -3  -2  273.10    9.43
   4  -3  -1  319.07    8.06
   4  -3   0 1085.43   30.70
   4  -3   1  490.38   13.97
   4  -3   2   11.94    2.08
   4  -3   3  101.61    4.85
   4  -3   4  474.53   20.29
   4  -3   5   40.76    5.19
   4  -3   6  768.28   27.49
   4  -3   7   34.33    3.34
   4  -3   8   -2.48    2.71
   4  -3   9   39.99    6.27
   4  -3  10   -2.03    4.29
   4  -3  11   46.11    5.10
   4  -3  12   42.91    6.09
   4  -3  13   77.23    8.98
   4  -3  14  317.47   20.88
   4  -3  15  372.11   24.92
   4  -3  16   70.78    9.34
   4  -3  17    3.14    8.10
   4  -3  18   77.23    7.92
   4  -3  19   41.53   10.45
   4  -3  20    4.06    6.77
   4  -3  21    5.42    9.73
   4  -3  22   13.11   10.88
   4  -3  23    7.90   12.17
   4  -2 -26   42.52   12.73
   4  -2 -25   -3.36    9.19
   4  -2 -24  269.62   16.77
   4  -2 -23   27.33   11.78
   4  -2 -22  157.00   13.93
   4  -2 -21   11.94    7.67
   4  -2 -20  194.37   11.31
   4  -2 -19   36.11    7.04
   4  -2 -18  147.72    8.03
   4  -2 -17   84.52    9.12
   4  -2 -16   -6.07    3.86
   4  -2 -15   61.50    4.94
   4  -2 -14   84.52    8.85
   4  -2 -13   63.15    6.68
   4  -2 -12  382.02   12.32
   4  -2 -11   -0.90    4.94
   4  -2 -10  750.90   22.23
   4  -2  -9   10.13    3.34
   4  -2  -8 1045.24   28.17
   4  -2  -7   86.49    5.30
   4  -2  -6    0.00    2.26
   4  -2  -5  129.69    4.45
   4  -2  -4    3.36    2.03
   4  -2  -3  559.17   14.22
   4  -2  -2   45.09    2.41
   4  -2  -1  542.94   13.29
   4  -2   1  998.18   24.69
   4  -2   2  374.41    9.30
   4  -2   3 1098.34   28.87
   4  -2   4  470.61   13.68
   4  -2   5  107.77    4.36
   4  -2   6  245.52   23.07
   4  -2   7   55.75    6.50
   4  -2   8   28.28    5.60
   4  -2   9    1.13    6.34
   4  -2  10   49.02    7.36
   4  -2  11  239.44   12.55
   4  -2  12   22.12    7.06
   4  -2  13   27.02    4.22
   4  -2  14  262.76   19.97
   4  -2  15  859.98   40.54
   4  -2  16  641.57   36.54
   4  -2  17   65.32    8.98
   4  -2  18  286.16   19.32
   4  -2  19   16.45    9.03
   4  -2  20   69.02   12.98
   4  -2  21   85.92   34.26
   4  -2  22   15.98   12.62
   4  -2  23   13.32   10.63
   4  -2  24   41.35   17.58
   4  -2  25   -6.30    7.92
   4  -2  26    7.00   10.81
   4  -1 -27   15.98    6.97
   4  -1 -26   37.76   17.90
   4  -1 -25    6.30    5.19
   4  -1 -24   26.86    6.39
   4  -1 -23   20.99    7.85
   4  -1 -22    0.00    2.26
   4  -1 -21    6.52    5.82
   4  -1 -20   12.68    5.24
   4  -1 -19   42.70    5.69
   4  -1 -18   83.15    7.13
   4  -1 -17  106.21   11.47
   4  -1 -16  233.44    9.19
   4  -1 -15    1.33    4.27
   4  -1 -14   38.12    4.45
   4  -1 -13   45.50    4.06
   4  -1 -12   14.22    3.41
   4  -1 -11 1086.43   28.73
   4  -1 -10  775.80   21.76
   4  -1  -9  191.87    7.49
   4  -1  -8   38.68    2.80
   4  -1  -7   32.93    3.11
   4  -1  -6   56.20    2.93
   4  -1  -5    3.36    2.26
   4  -1  -4  967.10   22.43
   4  -1  -3  238.97    6.97
   4  -1  -2  315.32    7.47
   4  -1  -1 1389.27   31.35
   4  -1   1   37.20   43.24
   4  -1   2  265.22    8.33
   4  -1   3  108.70    5.33
   4  -1   4  336.47   11.58
   4  -1   5   76.44    3.95
   4  -1   6 1023.00   31.71
   4  -1   7   33.81    2.98
   4  -1   8   90.73    6.59
   4  -1   9  174.38    9.52
   4  -1  10  297.45   10.36
   4  -1  11   32.77    3.09
   4  -1  12   10.13    3.16
   4  -1  13   27.33    4.24
   4  -1  14  354.35   11.87
   4  -1  15   38.12   14.47
   4  -1  16  749.25   38.66
   4  -1  17    2.73    5.91
   4  -1  18  942.02   45.19
   4  -1  19   39.43    7.74
   4  -1  20    0.00    2.26
   4  -1  21   72.56   54.01
   4  -1  22    7.90   11.31
   4  -1  23   41.14   10.99
   4  -1  24   51.78   11.04
   4  -1  25   15.84   11.24
   4  -1  26   12.14   10.79
   4   0 -26  108.70   10.65
   4   0 -24  271.61   12.86
   4   0 -22  365.75   17.81
   4   0 -20  408.90   14.58
   4   0 -18  146.25    9.10
   4   0 -16   90.73    6.59
   4   0 -14    1.33    3.81
   4   0 -12  728.02   22.71
   4   0 -10  304.22   10.47
   4   0  -8  394.45   10.13
   4   0  -6   63.15    2.62
   4   0  -4   25.03    2.55
   4   0  -2   20.58    2.05
   4   0   0 5045.28  162.21
   4   0   2  105.90    4.33
   4   0   4  258.88    8.22
   4   0   6   44.69    3.41
   4   0   8   15.98    2.53
   4   0  10  479.11   12.50
   4   0  12   40.38    6.50
   4   0  14    2.93    7.67
   4   0  16  263.26   15.60
   4   0  18   89.87   11.10
   4   0  20   48.59   15.08
   4   0  22   55.52    9.19
   4   0  24  174.38   17.47
   4   0  26    4.94    9.89
   4   1 -27    1.13   14.74
   4   1 -26   25.03   36.07
   4   1 -25   33.11   16.07
   4   1 -24   27.49   10.88
   4   1 -23   28.28    8.62
   4   1 -22    6.52    6.07
   4   1 -21    9.66    4.76
   4   1 -20   12.14    4.72
   4   1 -19   33.81    7.85
   4   1 -18   85.65    6.68
   4   1 -17   94.48    5.55
   4   1 -16  243.17    9.37
   4   1 -15    6.30    3.84
   4   1 -14   26.41    3.39
   4   1 -13   35.21    3.93
   4   1 -12   11.94    3.63
   4   1 -11 1102.34   25.93
   4   1 -10  781.66   20.15
   4   1  -9  201.12    5.53
   4   1  -8   41.53    2.91
   4   1  -7   35.21    2.32
   4   1  -6   67.53    3.45
   4   1  -5    1.33    1.56
   4   1  -4  946.65   26.81
   4   1  -3  222.11    6.73
   4   1  -2  309.48    8.46
   4   1  -1 1392.63   39.25
   4   1   1   22.82    2.01
   4   1   2  258.88    9.66
   4   1   3  111.54    4.45
   4   1   4  343.13    7.79
   4   1   5   73.58    2.84
   4   1   6 1015.33   23.92
   4   1   7   44.89    3.63
   4   1   8   94.18    3.79
   4   1   9  180.79    8.49
   4   1  10  272.10   17.36
   4   1  11   22.55    5.42
   4   1  12    0.68    4.76
   4   1  13   21.42    5.01
   4   1  14  358.32   19.91
   4   1  15   12.89    7.88
   4   1  16  710.30   29.63
   4   1  17    4.94    6.07
   4   1  18  931.01   38.50
   4   1  19   63.15    9.32
   4   1  20    9.95    7.20
   4   1  21    8.76   10.31
   4   1  22    9.95   11.76
   4   1  23  104.36   38.98
   4   1  24   32.25   13.14
   4   1  25    5.21   17.63
   4   1  26   -0.45   12.71
   4   2 -26   19.64   11.98
   4   2 -25   56.20   29.72
   4   2 -24  242.72   22.93
   4   2 -23   -1.60    5.87
   4   2 -22  157.74   17.74
   4   2 -21   12.89    6.14
   4   2 -20  180.38    8.87
   4   2 -19   36.11    5.78
   4   2 -18  161.53   12.59
   4   2 -17   91.00    6.88
   4   2 -16    4.06    4.06
   4   2 -15   54.19    4.88
   4   2 -14   61.25    4.24
   4   2 -13   63.40    4.06
   4   2 -12  378.50   13.45
   4   2 -11    3.81    2.71
   4   2 -10  791.78   22.82
   4   2  -9   13.77    3.79
   4   2  -8 1053.02   29.25
   4   2  -7   82.34    4.63
   4   2  -6    1.13    1.83
   4   2  -5  131.04    5.51
   4   2  -4    7.47    1.81
   4   2  -3  538.74   21.62
   4   2  -2   52.88    4.81
   4   2  -1  538.74   22.32
   4   2   1 1001.02   36.13
   4   2   2  390.89   12.48
   4   2   3 1083.47   25.71
   4   2   4  467.36   11.69
   4   2   5   97.12    3.54
   4   2   6  238.52    8.35
   4   2   7   47.35    3.52
   4   2   8   17.20    2.98
   4   2   9   -4.29    5.17
   4   2  10   51.35    3.88
   4   2  11  258.40   14.02
   4   2  12   22.82    7.18
   4   2  13   32.07    8.51
   4   2  14  240.84   15.84
   4   2  15  913.65   48.14
   4   2  16  630.97   28.69
   4   2  17   69.76   10.79
   4   2  18  277.09   14.51
   4   2  19   11.33    7.49
   4   2  20   70.53   12.62
   4   2  21   96.53   13.88
   4   2  22   12.14   16.02
   4   2  23    6.07   15.32
   4   2  24   65.81   25.10
   4   2  25  -17.20    9.73
   4   2  26    0.90    9.66
   4   3 -25   29.09   10.86
   4   3 -24   19.25   11.47
   4   3 -23   30.90   10.52
   4   3 -22  130.70   16.50
   4   3 -21   57.55   12.30
   4   3 -20  153.99   11.56
   4   3 -19   42.70    9.23
   4   3 -18   49.65    3.81
   4   3 -17  109.64   10.07
   4   3 -16  222.99   12.12
   4   3 -15  133.12   11.10
   4   3 -14  707.88   22.39
   4   3 -13   -0.45    4.31
   4   3 -12   -7.65    4.31
   4   3 -11  810.49   23.09
   4   3 -10   19.25    2.78
   4   3  -9   17.83    2.66
   4   3  -8   96.24    5.89
   4   3  -7  134.52    6.27
   4   3  -6  416.84   17.79
   4   3  -5   65.09    3.63
   4   3  -4   25.32    1.81
   4   3  -3    5.85    1.17
   4   3  -2  267.66    8.35
   4   3  -1  310.54    9.52
   4   3   0 1099.34   37.85
   4   3   1  490.38   21.96
   4   3   2   17.56    2.26
   4   3   3  105.60    4.63
   4   3   4  468.66   15.62
   4   3   5   40.58    3.63
   4   3   6  778.30   25.98
   4   3   7   22.39    3.84
   4   3   8    7.22    4.29
   4   3   9   39.07    5.44
   4   3  10    4.94    3.61
   4   3  11   63.65   31.17
   4   3  12   70.01   11.56
   4   3  13  103.44   11.31
   4   3  14  307.38   18.44
   4   3  15  353.78   19.77
   4   3  16   75.93    9.16
   4   3  17   23.99   10.16
   4   3  18   94.77   11.40
   4   3  19   45.50   12.57
   4   3  20    5.64    8.55
   4   3  21   13.99   11.01
   4   3  22    4.74   11.33
   4   3  23   23.25   14.20
   4   3  24   71.55   17.02
   4   3  25   61.50   24.26
   4   4 -24   31.06    8.53
   4   4 -23    6.30    9.41
   4   4 -22   31.39    9.93
   4   4 -21   13.11    5.87
   4   4 -20   25.77    9.01
   4   4 -19    6.30   10.56
   4   4 -18   16.45    5.85
   4   4 -17  189.79   11.60
   4   4 -16  135.22    9.07
   4   4 -15   19.37    9.25
   4   4 -14   54.19    6.41
   4   4 -13   25.32    5.15
   4   4 -12   84.25    5.51
   4   4 -11   22.12    3.39
   4   4 -10   95.36    6.46
   4   4  -9    7.90    2.96
   4   4  -8   11.33    2.23
   4   4  -7   59.16    4.63
   4   4  -6   21.83    1.53
   4   4  -5    7.00    0.72
   4   4   1  657.64   20.04
   4   4   2   51.14    2.57
   4   4   4    7.22    2.51
   4   4   5  111.86    5.08
   4   4   6    2.48    3.18
   4   4   7   22.12    4.51
   4   4   8   85.09    6.66
   4   4   9   -0.23    4.33
   4   4  10   90.14    7.13
   4   4  11   68.27    5.71
   4   4  12   33.63    6.27
   4   4  13   93.60    9.01
   4   4  14  206.27   15.53
   4   4  15  349.83   16.86
   4   4  16  418.67   19.68
   4   4  17    7.22    7.67
   4   4  18   16.95    6.07
   4   4  19   16.70   10.43
   4   4  20   -2.48    9.48
   4   4  21   18.33    8.10
   4   4  22   -2.93   12.66
   4   4  23    1.60   11.78
   4   4  24  127.29   26.11
   4   5 -22   68.27   17.13
   4   5 -21   25.03    9.48
   4   5 -20   53.31    7.90
   4   5 -19  172.41   11.44
   4   5 -18  339.25   23.25
   4   5 -17  142.28    8.24
   4   5 -16   58.25    6.18
   4   5 -15   91.59  149.53
   4   5 -14  459.59   22.55
   4   5 -13    3.14    3.84
   4   5 -12    6.07    3.18
   4   5 -11  230.24   15.96
   4   5 -10   16.95    4.69
   4   5  -9   49.23    3.99
   4   5  -8    0.68    1.15
   4   5  -7  115.72    4.20
   4   5   2    1.13    1.13
   4   5   3  372.11   16.23
   4   5   4  188.96    9.10
   4   5   5  173.59    7.52
   4   5   6  431.70   15.60
   4   5   7    6.07    2.96
   4   5   8   33.11   11.76
   4   5   9  111.54    8.89
   4   5  10    2.48    7.24
   4   5  11    4.74   14.67
   4   5  12  191.03   12.86
   4   5  13   11.53    4.69
   4   5  14   23.41    9.46
   4   5  15   24.42    6.97
   4   5  16   18.33    5.67
   4   5  17    7.90   12.41
   4   5  18   68.27   13.90
   4   5  19  103.44   13.45
   4   5  20   42.70   12.57
   4   5  21   15.84   14.72
   4   5  22    4.94    8.08
   4   6 -20   -0.68    4.99
   4   6 -19   14.90    6.27
   4   6 -18  197.74   15.21
   4   6 -17  200.69   14.47
   4   6 -16   83.15    7.94
   4   6 -15  165.37   10.43
   4   6 -14    6.07    6.30
   4   6 -13    1.33    2.91
   4   6 -12    5.21    4.04
   4   6 -11   27.96    8.42
   4   6   3   50.29    4.47
   4   6   4    1.13    2.28
   4   6   5   34.15    3.86
   4   6   6   96.24    7.38
   4   6   7    4.94    6.07
   4   6   8   22.98   11.51
   4   6   9   15.84    9.10
   4   6  10   32.07    6.97
   4   6  11  122.92   10.00
   4   6  12   20.58   13.09
   4   6  13    5.64    8.13
   4   6  14  112.49   11.15
   4   6  15    2.26    9.03
   4   6  16   19.91    7.65
   4   6  17  248.36   71.50
   4   6  18   30.74    8.17
   4   6  19   32.25   14.85
   4   6  20   -0.45    9.30
   4   7   8   10.83    7.22
   4   7   9    7.00    5.17
   4   7  10   12.14    6.27
   4   7  11    4.74    8.13
   4   7  12   84.82   10.52
   4   7  13   13.54    8.85
   4   7  14   97.41   24.92
   4   7  15   53.96   12.57
   4   7  16   32.41    7.88
   4   7  17   12.89   12.19
   5  -8 -13    7.00   13.75
   5  -8 -12   41.14   46.45
   5  -8 -11   27.96   16.68
   5  -8 -10   15.14   10.40
   5  -8  -9   24.58    7.45
   5  -8  -8   17.56   13.09
   5  -8  -7    4.29   10.40
   5  -8  -6   48.59    7.97
   5  -8  -5   -2.26    6.09
   5  -8  -4   14.22   17.11
   5  -8  -3   -5.64   22.32
   5  -7 -17   14.67    8.98
   5  -7 -16   44.89   15.71
   5  -7 -15   10.34   10.81
   5  -7 -14   12.14   12.14
   5  -7 -13   14.22    9.52
   5  -7 -12   19.25    9.48
   5  -7 -11   10.63    9.50
   5  -7 -10   58.00   18.08
   5  -7  -9   34.51   10.40
   5  -7  -8   29.41   10.43
   5  -7  -7    8.33   11.26
   5  -7  -6   19.37    6.34
   5  -7  -5   14.67    7.94
   5  -7  -4  204.98   11.62
   5  -7  -3   36.83    7.65
   5  -7  -2  197.31   10.97
   5  -7  -1   48.16    6.05
   5  -7   0   39.81    7.02
   5  -7   1    0.68    3.18
   5  -6 -20  -35.39   79.02
   5  -6 -19   39.07    9.01
   5  -6 -18   24.58   10.59
   5  -6 -17  302.66   29.79
   5  -6 -16   28.44   12.82
   5  -6 -15   60.10   11.17
   5  -6 -14  159.25   20.09
   5  -6 -13   54.42   12.41
   5  -6 -12    1.33    6.30
   5  -6 -11   64.84    9.19
   5  -6 -10   81.79   12.77
   5  -6  -9  273.59   12.44
   5  -6  -8   28.93    4.69
   5  -6  -7    4.06    6.12
   5  -6  -6   12.89    4.74
   5  -6  -5   38.87    5.24
   5  -6  -4  121.92    7.29
   5  -6  -3   54.84    5.12
   5  -6  -2  107.46    5.30
   5  -6  -1    0.00    2.26
   5  -6   0  120.61    6.59
   5  -6   1  176.77    8.78
   5  -6   2  134.16    7.31
   5  -6   3  170.45    9.80
   5  -6   4   37.38    4.60
   5  -5 -22   31.73   12.86
   5  -5 -21   29.41   10.11
   5  -5 -20    4.06   10.83
   5  -5 -19   14.22    6.79
   5  -5 -18    4.29    7.47
   5  -5 -17    6.52    6.30
   5  -5 -16   24.13    8.85
   5  -5 -15    9.48    5.46
   5  -5 -14  101.93    6.68
   5  -5 -13   18.71    5.19
   5  -5 -12  140.86   34.60
   5  -5 -11   42.91    7.88
   5  -5 -10   25.77    4.27
   5  -5  -9   25.77    4.58
   5  -5  -8  115.72    5.48
   5  -5  -7   15.14    4.56
   5  -5  -6   -2.93    4.94
   5  -5  -5   70.53    4.54
   5  -5  -4    5.85    3.86
   5  -5  -3  112.80    5.10
   5  -5  -2  141.58    6.07
   5  -5  -1    3.59    3.81
   5  -5   0  600.41   17.67
   5  -5   1    2.03    2.96
   5  -5   2   40.20    3.23
   5  -5   3   18.98    2.75
   5  -5   4   40.20    3.61
   5  -5   5    7.22    2.26
   5  -5   6   25.93    2.30
   5  -5   7   -8.76    4.54
   5  -5   8   33.11    4.67
   5  -5   9   79.11    8.01
   5  -5  10   55.07    6.48
   5  -5  11    2.73    4.76
   5  -5  12   28.60   10.45
   5  -4 -24   18.98    9.03
   5  -4 -23    3.14   13.52
   5  -4 -22   -3.36    6.73
   5  -4 -21  -12.89    5.82
   5  -4 -20   15.62    8.19
   5  -4 -19   10.83    7.90
   5  -4 -18  104.36    8.28
   5  -4 -17  791.78   32.97
   5  -4 -16  538.04   23.00
   5  -4 -15   14.67   14.04
   5  -4 -14  201.55   10.65
   5  -4 -13    2.73    5.46
   5  -4 -12    9.03    3.61
   5  -4 -11  207.15   12.55
   5  -4 -10  160.77    6.86
   5  -4  -9  316.93   12.84
   5  -4  -8   53.74    6.84
   5  -4  -7    2.03    2.96
   5  -4  -6  127.63    5.78
   5  -4  -5  109.33    6.27
   5  -4  -4  175.98    6.39
   5  -4  -3  116.35    5.51
   5  -4  -2   -3.36    2.26
   5  -4  -1   82.61    4.65
   5  -4   0   11.01    3.39
   5  -4   1  178.37    6.82
   5  -4   2  138.02    6.36
   5  -4   3   -0.68    2.73
   5  -4   4   35.21    3.57
   5  -4   5   82.88    4.65
   5  -4   6   40.38    3.81
   5  -4   7  139.80    7.11
   5  -4   8    0.68    2.73
   5  -4   9   10.83    4.94
   5  -4  10   18.46    5.42
   5  -4  11  209.31   11.31
   5  -4  12  153.61   11.92
   5  -4  13   37.01    8.78
   5  -4  14  102.83    9.14
   5  -4  15   38.30    6.32
   5  -4  16   15.98   10.34
   5  -4  17   99.22    8.69
   5  -4  18    7.47    9.52
   5  -3 -25  124.92   14.11
   5  -3 -24   16.45    8.78
   5  -3 -23   74.37   23.31
   5  -3 -22   88.16   14.11
   5  -3 -21   20.58    5.60
   5  -3 -20    0.00    2.26
   5  -3 -19   16.45    6.82
   5  -3 -18   30.74    8.67
   5  -3 -17   52.00    6.27
   5  -3 -16   47.76    7.90
   5  -3 -15  -10.34    6.09
   5  -3 -14    1.60    5.19
   5  -3 -13   25.32    4.54
   5  -3 -12  269.15   11.33
   5  -3 -11   14.44    3.20
   5  -3 -10  114.41    8.35
   5  -3  -9   63.40    5.98
   5  -3  -8    8.76    2.93
   5  -3  -7  406.48   12.73
   5  -3  -6  212.79    7.90
   5  -3  -5  652.27   18.42
   5  -3  -4  535.97   16.00
   5  -3  -3  345.37   16.18
   5  -3  -2  267.66   10.81
   5  -3  -1  875.04   35.55
   5  -3   0 3990.82  121.47
   5  -3   1   12.14    2.30
   5  -3   2   50.71    3.00
   5  -3   3   80.17    3.50
   5  -3   4   29.09    2.44
   5  -3   5  117.00    6.50
   5  -3   6  134.16    8.71
   5  -3   7    1.60    4.74
   5  -3   8   27.33    3.77
   5  -3   9   56.20    6.52
   5  -3  10  236.67   12.01
   5  -3  11  238.97   15.32
   5  -3  12    9.21    5.64
   5  -3  13  194.37   12.14
   5  -3  14  225.25   23.45
   5  -3  15 1255.99   66.02
   5  -3  16  246.94   22.19
   5  -3  17  257.93   15.44
   5  -3  18   76.99   10.81
   5  -3  19   -0.23    9.59
   5  -3  20  155.87   12.75
   5  -3  21   -8.15    7.20
   5  -3  22   17.31    7.38
   5  -3  23  160.77   16.39
   5  -2 -26   22.55    8.85
   5  -2 -25  153.61   13.79
   5  -2 -24   64.12   15.17
   5  -2 -23   51.78    8.64
   5  -2 -22    5.42    9.23
   5  -2 -21   64.60    9.19
   5  -2 -20   17.20    7.22
   5  -2 -19  140.50    9.25
   5  -2 -18    2.93    4.27
   5  -2 -17  368.05   12.10
   5  -2 -16  335.39   20.36
   5  -2 -15  252.15   12.41
   5  -2 -14   42.12    5.85
   5  -2 -13   13.77    4.24
   5  -2 -12   35.93    5.39
   5  -2 -11  797.71   21.22
   5  -2 -10   92.15    6.64
   5  -2  -9  591.60   16.81
   5  -2  -8   37.76    4.06
   5  -2  -7  322.84   11.33
   5  -2  -6  410.12   18.26
   5  -2  -5   41.35    3.48
   5  -2  -4    9.48    2.21
   5  -2  -3  100.12    4.51
   5  -2  -2   18.46    2.46
   5  -2  -1 1123.40   26.18
   5  -2   0   41.53    2.91
   5  -2   1  635.50   15.91
   5  -2   2   13.11    2.28
   5  -2   3  231.14    8.69
   5  -2   4 1629.55   49.72
   5  -2   5  300.56   12.50
   5  -2   6  215.88   16.77
   5  -2   7   93.60    8.15
   5  -2   8   87.59    5.91
   5  -2   9  491.71   25.32
   5  -2  10    1.13    6.57
   5  -2  11  585.04   27.63
   5  -2  12  115.06   10.31
   5  -2  13  113.46    7.04
   5  -2  14  265.69   15.19
   5  -2  15  386.74   21.87
   5  -2  16  303.70   23.56
   5  -2  17   27.02    9.68
   5  -2  18   47.76    6.43
   5  -2  19   -1.33    5.60
   5  -2  20    9.21    7.38
   5  -2  21   30.40    9.28
   5  -2  22  129.69   12.66
   5  -2  23  -12.46   12.19
   5  -2  24   15.37    7.90
   5  -2  25   36.11   15.17
   5  -1 -26  -12.68    9.30
   5  -1 -25  135.92   14.35
   5  -1 -24   21.26    6.52
   5  -1 -23   42.91   11.22
   5  -1 -22   27.33    9.28
   5  -1 -21   24.87    7.49
   5  -1 -20   28.60    7.22
   5  -1 -19  134.86    9.07
   5  -1 -18   63.40    9.10
   5  -1 -17  297.97   14.51
   5  -1 -16   88.72    6.79
   5  -1 -15  346.47   12.86
   5  -1 -14   63.65    5.76
   5  -1 -13   -5.21    3.84
   5  -1 -12   77.23   23.50
   5  -1 -11  147.72    6.93
   5  -1 -10    9.21    4.74
   5  -1  -9   55.97    4.04
   5  -1  -8   39.43    4.72
   5  -1  -7  245.99    7.54
   5  -1  -6  486.38   12.59
   5  -1  -5   44.49    3.20
   5  -1  -4  518.72   13.68
   5  -1  -3  114.75    4.18
   5  -1  -2 1710.58   43.49
   5  -1  -1 5744.50  132.08
   5  -1   0 9624.02  483.40
   5  -1   1  293.32   10.81
   5  -1   2   29.09    3.57
   5  -1   3    5.85    3.41
   5  -1   4  138.38    6.00
   5  -1   5  278.58    9.52
   5  -1   6   19.91    3.23
   5  -1   7  155.87    9.75
   5  -1   8   14.44    4.81
   5  -1   9  155.48    9.37
   5  -1  10  232.06   12.37
   5  -1  11  873.25   39.95
   5  -1  12   21.69    7.70
   5  -1  13  351.53   11.26
   5  -1  14  105.90    6.50
   5  -1  15  677.05   41.44
   5  -1  16  182.00   15.80
   5  -1  17  775.80   39.34
   5  -1  18   55.75    8.31
   5  -1  19  370.37   23.13
   5  -1  20   43.11    7.49
   5  -1  21   43.49   10.50
   5  -1  22   -4.06    8.78
   5  -1  23  597.45  237.95
   5  -1  24   34.69   12.39
   5  -1  25  157.00   19.95
   5  -1  26   40.58   25.26
   5   0 -27   23.70   11.69
   5   0 -25   90.14    8.28
   5   0 -23   67.78    9.89
   5   0 -21  417.45   20.27
   5   0 -19    4.06    5.19
   5   0 -17  101.02    7.85
   5   0 -15  592.33   18.28
   5   0 -13    5.64    5.42
   5   0 -11  547.14   14.76
   5   0  -9  110.91    5.06
   5   0  -7  225.25    6.32
   5   0  -5  572.04   12.93
   5   0  -3  691.99   18.96
   5   0  -1   29.57    3.59
   5   0   1  551.38   15.53
   5   0   3 1107.33   27.99
   5   0   5  408.90   12.75
   5   0   7  119.62    6.91
   5   0   9  122.26    6.64
   5   0  11  106.82    7.45
   5   0  13   39.07    7.52
   5   0  15   64.60    9.91
   5   0  17   57.33    7.74
   5   0  19  104.05    9.82
   5   0  21   41.35   18.73
   5   0  23   93.30   13.63
   5   0  25   28.60    9.95
   5   1 -26    1.60    8.82
   5   1 -25  113.78   14.11
   5   1 -24   39.43   13.59
   5   1 -23   39.07    5.82
   5   1 -22   25.77    6.09
   5   1 -21   23.25    5.94
   5   1 -20   34.33    7.40
   5   1 -19  151.40    9.23
   5   1 -18   63.15    6.21
   5   1 -17  281.11   10.07
   5   1 -16   87.32    5.33
   5   1 -15  350.96   11.83
   5   1 -14   63.87    4.81
   5   1 -13    4.29    3.36
   5   1 -12   76.20    5.51
   5   1 -11  139.80    4.27
   5   1 -10    0.68    2.03
   5   1  -9   59.63    3.25
   5   1  -8   29.75    3.11
   5   1  -7  253.60    6.70
   5   1  -6  489.05   15.28
   5   1  -5   47.13    3.93
   5   1  -4  513.94   15.66
   5   1  -3  117.00    5.53
   5   1  -2 1725.52   44.94
   5   1  -1 5705.86  174.76
   5   1   0 9703.76  275.26
   5   1   1  290.75   10.77
   5   1   2   29.75    2.78
   5   1   3   11.01    2.51
   5   1   4  137.32    4.58
   5   1   5  277.59    9.01
   5   1   6   17.83    2.53
   5   1   7  185.25    5.73
   5   1   8   23.41    3.20
   5   1   9  159.64    6.84
   5   1  10  224.35   14.40
   5   1  11  891.11   32.30
   5   1  12    8.33    7.88
   5   1  13  327.17   14.13
   5   1  14  104.36   11.06
   5   1  15  703.10   27.87
   5   1  16  182.82   17.06
   5   1  17  785.03   37.04
   5   1  18   39.43    7.92
   5   1  19  331.53   19.14
   5   1  20   39.07    9.21
   5   1  21   41.93   22.95
   5   1  22   -0.45   12.05
   5   1  23  313.72   24.49
   5   1  24   27.33   10.99
   5   1  25  286.66   78.86
   5   1  26   15.37    9.66
   5   2 -26   10.34   13.72
   5   2 -25  139.80   39.43
   5   2 -24   30.74   12.82
   5   2 -23   46.92    8.85
   5   2 -22    7.22    8.55
   5   2 -21   63.65    7.20
   5   2 -20   24.13    7.38
   5   2 -19  120.61    5.94
   5   2 -18    4.94    6.75
   5   2 -17  381.43   17.60
   5   2 -16  312.66   11.15
   5   2 -15  236.19    8.78
   5   2 -14   48.59    4.20
   5   2 -13   22.12    3.81
   5   2 -12   46.11    2.87
   5   2 -11  802.81   22.98
   5   2 -10   86.19    6.41
   5   2  -9  594.51   16.86
   5   2  -8   41.53    3.09
   5   2  -7  316.93   10.70
   5   2  -6  414.99   12.86
   5   2  -5   36.29    2.17
   5   2  -4    4.49    2.03
   5   2  -3   96.24    4.42
   5   2  -2   18.46    1.81
   5   2  -1 1106.33   38.98
   5   2   0   41.93    2.73
   5   2   1  641.57   21.31
   5   2   2   13.99    2.48
   5   2   3  209.31    7.83
   5   2   4 1595.76   43.20
   5   2   5  315.87   13.34
   5   2   6  201.12    6.82
   5   2   7  100.12    5.42
   5   2   8   83.15    5.48
   5   2   9  469.95   16.93
   5   2  10   15.14    9.01
   5   2  11  590.14   30.65
   5   2  12  122.26    9.30
   5   2  13  122.26   10.29
   5   2  14  218.54   11.98
   5   2  15  401.05   18.64
   5   2  16  295.37   16.52
   5   2  17   -3.59    8.08
   5   2  18   53.54    7.92
   5   2  19   16.45    6.95
   5   2  20   10.13    6.12
   5   2  21   35.93    9.73
   5   2  22  182.82   30.88
   5   2  23   21.42   22.39
   5   2  24   -6.07   11.47
   5   2  25   49.43   13.52
   5   3 -25  116.35   16.86
   5   3 -24   11.94    8.62
   5   3 -23   40.76   11.89
   5   3 -22   72.31   20.45
   5   3 -21   14.44    6.75
   5   3 -20   14.44    9.71
   5   3 -19   20.04    6.05
   5   3 -18   39.43    8.31
   5   3 -17   47.35    6.61
   5   3 -16   27.96    8.42
   5   3 -15   20.58    6.55
   5   3 -14    3.81    2.93
   5   3 -13   16.45    3.41
   5   3 -12  277.59   11.51
   5   3 -11   15.98    3.61
   5   3 -10  131.04    6.55
   5   3  -9   61.50    3.77
   5   3  -8   11.74    2.98
   5   3  -7  404.66   16.93
   5   3  -6  215.00   11.01
   5   3  -5  618.19   26.14
   5   3  -4  526.96   22.75
   5   3  -3  329.36   11.44
   5   3  -2  280.09   10.07
   5   3  -1  887.52   29.54
   5   3   0 3990.82  239.17
   5   3   1    7.90    2.03
   5   3   2   54.84    3.11
   5   3   3   90.14    3.70
   5   3   4   32.25    3.25
   5   3   5  115.06    5.15
   5   3   6  129.69    6.50
   5   3   7    6.75    4.54
   5   3   8   30.90    3.68
   5   3   9   65.57    5.85
   5   3  10  234.82    9.66
   5   3  11  274.09   31.35
   5   3  12   -6.75    7.43
   5   3  13  186.90   10.68
   5   3  14  221.66   17.00
   5   3  15 1227.40   49.47
   5   3  16  231.14   12.80
   5   3  17  260.82   30.58
   5   3  18  117.66   11.74
   5   3  19   -2.73    9.98
   5   3  20  151.40   21.08
   5   3  21   22.39   11.08
   5   3  22    8.58    8.80
   5   3  23  141.92   24.33
   5   3  24   16.45   16.45
   5   4 -24    5.42    7.00
   5   4 -23    7.47    9.52
   5   4 -22    6.52    8.98
   5   4 -21   -7.65    8.55
   5   4 -20   17.31    6.12
   5   4 -19   20.58    8.87
   5   4 -18   83.71    8.53
   5   4 -17  736.95   30.99
   5   4 -16  520.78   27.42
   5   4 -15    1.33    4.72
   5   4 -14  184.04    9.77
   5   4 -13    4.49    7.20
   5   4 -12    4.74    5.44
   5   4 -11  186.09    8.19
   5   4 -10  147.36    6.57
   5   4  -9  301.08    9.91
   5   4  -8   46.92    3.90
   5   4  -7    9.21    3.66
   5   4  -6  127.97    5.10
   5   4  -5  109.33    3.77
   5   4   0    9.48    1.40
   5   4   1  178.37    7.22
   5   4   2  143.36    8.28
   5   4   3    3.36    2.03
   5   4   4   35.93    3.43
   5   4   5   85.92    4.45
   5   4   6   42.70    3.34
   5   4   7  137.68    6.00
   5   4   8   14.22    3.63
   5   4   9    9.03    2.89
   5   4  10   21.42    3.20
   5   4  11  216.31   13.25
   5   4  12  163.45   11.15
   5   4  13   13.32    5.15
   5   4  14   95.65    8.24
   5   4  15   33.81    6.30
   5   4  16    2.93    5.87
   5   4  17   86.49   10.07
   5   4  18   25.77    8.85
   5   4  19   79.90   13.70
   5   4  20   11.33   11.33
   5   4  21   94.48   17.51
   5   4  22   47.76    9.98
   5   4  23    7.47   15.62
   5   5 -22   34.51   10.59
   5   5 -21   48.59   17.81
   5   5 -20   31.06    7.70
   5   5 -19   20.04    7.94
   5   5 -18    7.22    7.92
   5   5 -17   15.37   13.79
   5   5 -16   25.03    7.97
   5   5 -15    7.47    7.72
   5   5 -14  106.53   10.22
   5   5 -13   33.45    5.21
   5   5 -12  148.80    9.52
   5   5 -11   61.73    5.67
   5   5 -10   44.28    9.80
   5   5  -9   20.99    2.89
   5   5  -8  112.17    5.10
   5   5   2   36.47    1.99
   5   5   3   14.67    1.38
   5   5   4   33.45    9.57
   5   5   5    4.06    2.23
   5   5   6   24.58    3.57
   5   5   7   -0.45    3.86
   5   5   8   31.73   12.86
   5   5   9   76.20    7.09
   5   5  10   86.76    9.52
   5   5  11    0.90    4.72
   5   5  12   37.01    8.78
   5   5  13   23.70    7.45
   5   5  14  181.19   14.96
   5   5  15  518.03   26.68
   5   5  16    1.33   11.67
   5   5  17   25.32   17.24
   5   5  18   99.80   29.72
   5   5  19   16.21   11.49
   5   5  20   12.68   12.84
   5   5  21    3.14    6.97
   5   5  22   26.25    9.07
   5   6 -20   28.44    7.38
   5   6 -19   28.93    4.36
   5   6 -18   32.41    8.37
   5   6 -17  333.18   21.94
   5   6 -16   26.70    4.97
   5   6 -15   68.52    7.72
   5   6 -14  164.99   11.19
   5   6 -13   42.91    7.88
   5   6   3  178.78   11.65
   5   6   4   28.93    3.88
   5   6   5   32.77    4.13
   5   6   6   60.56    6.07
   5   6   7   27.49    8.35
   5   6   8   -5.42    5.39
   5   6   9   -3.81    5.87
   5   6  10  367.48  193.54
   5   6  11    1.13    6.79
   5   6  12   75.93   14.13
   5   6  13    3.36    7.43
   5   6  14    6.75    5.15
   5   6  15   -0.23    7.99
   5   6  16   42.12    7.81
   5   6  17   26.70    9.01
   5   6  18    4.29    6.55
   5   6  19   19.91    9.52
   5   7   7   13.54    9.30
   5   7   8   10.34    5.60
   5   7   9   22.55    5.42
   5   7  10   -0.45    5.91
   5   7  11   20.31    7.18
   5   7  12    9.66    7.65
   5   7  13   14.44    8.10
   5   7  14  117.97   13.05
   5   7  15   67.28   16.52
   5   7  16   34.51   14.65
   6  -8 -12  182.41   38.96
   6  -8 -11   21.69   16.09
   6  -8 -10   20.04   20.72
   6  -8  -9   62.68   14.99
   6  -8  -8   74.37   11.15
   6  -8  -7   -0.23   11.87
   6  -8  -6   23.41   11.04
   6  -8  -5    1.60    5.87
   6  -8  -4   10.63   18.51
   6  -7 -16   15.14   11.92
   6  -7 -15   -0.68    6.12
   6  -7 -14   39.07   10.52
   6  -7 -13  159.64   26.56
   6  -7 -12   25.77   11.60
   6  -7 -11    3.59    9.89
   6  -7 -10   21.42   26.00
   6  -7  -9    6.30    9.41
   6  -7  -8    3.59   10.81
   6  -7  -7   17.56    8.55
   6  -7  -6   37.94    7.40
   6  -7  -5   19.64    8.53
   6  -7  -4    9.66    5.89
   6  -7  -3  -15.37    6.36
   6  -7  -2    0.90    6.75
   6  -7  -1   79.11    9.89
   6  -7   0   16.70    7.24
   6  -6 -19  167.31   20.61
   6  -6 -18   59.86   14.42
   6  -6 -17   38.12   20.04
   6  -6 -16    7.00    7.00
   6  -6 -15   37.38    9.73
   6  -6 -14   44.49   10.22
   6  -6 -13 1104.32  483.27
   6  -6 -12   13.77   11.26
   6  -6 -11   15.62    9.73
   6  -6 -10   36.47    5.26
   6  -6  -9    0.23    6.16
   6  -6  -8  222.11   11.19
   6  -6  -7  146.61   10.92
   6  -6  -6   75.93    6.82
   6  -6  -5   41.14    5.78
   6  -6  -4   -1.33    3.81
   6  -6  -3    6.30    4.06
   6  -6  -2  138.74    6.36
   6  -6  -1    3.59    5.17
   6  -6   0   59.86    6.75
   6  -6   1  331.53   10.40
   6  -6   2  637.78   26.56
   6  -6   3   62.68    4.04
   6  -6   4   14.90    6.14
   6  -5 -22   17.83   11.92
   6  -5 -21    2.03    8.58
   6  -5 -20    3.59    8.31
   6  -5 -19    4.49    8.78
   6  -5 -18   14.90    9.50
   6  -5 -17  116.35   10.04
   6  -5 -16    5.64    8.55
   6  -5 -15  231.61   13.27
   6  -5 -14   76.20    7.61
   6  -5 -13   71.55    6.09
   6  -5 -12    3.81    4.51
   6  -5 -11  116.35    8.76
   6  -5 -10  259.37   10.16
   6  -5  -9   29.09    4.04
   6  -5  -8   33.11    7.61
   6  -5  -7   75.14    5.21
   6  -5  -6   13.32    3.61
   6  -5  -5   19.64    4.92
   6  -5  -4   80.98    6.23
   6  -5  -3  196.47   10.95
   6  -5  -2   47.13    4.54
   6  -5  -1  179.18    6.84
   6  -5   0   72.04    4.85
   6  -5   1   88.45    4.24
   6  -5   2    1.13    2.05
   6  -5   3    8.33    2.51
   6  -5   4   67.78    5.69
   6  -5   5   20.58    2.46
   6  -5   6    0.68    3.18
   6  -5   7   81.79    6.52
   6  -5   8  113.78   12.82
   6  -5   9  194.37   13.41
   6  -5  10   26.70   15.37
   6  -5  11  228.86   21.37
   6  -5  12   53.08    7.45
   6  -4 -24   79.11   15.23
   6  -4 -23   32.25   11.44
   6  -4 -22   20.31    9.89
   6  -4 -21   18.33   11.71
   6  -4 -20   56.65   10.40
   6  -4 -19   20.58    6.14
   6  -4 -18    7.90    6.75
   6  -4 -17   82.34    7.63
   6  -4 -16   52.00    6.07
   6  -4 -15    5.64    5.85
   6  -4 -14   89.02    7.09
   6  -4 -13    4.49    6.05
   6  -4 -12   19.64    6.25
   6  -4 -11   18.71    5.46
   6  -4 -10   25.03    7.97
   6  -4  -9   64.12    4.33
   6  -4  -8  315.32   10.68
   6  -4  -7   34.15    5.26
   6  -4  -6  219.88    9.37
   6  -4  -5  185.66    9.41
   6  -4  -4    5.21    2.75
   6  -4  -3    7.65    2.48
   6  -4  -2   70.53    4.54
   6  -4  -1  408.29   12.75
   6  -4   0   45.50    3.66
   6  -4   1  818.21   23.20
   6  -4   2  704.70   20.74
   6  -4   3  218.97    8.44
   6  -4   4   59.63    4.18
   6  -4   5   35.39   13.23
   6  -4   6   31.73   12.37
   6  -4   7   21.83    5.48
   6  -4   8  272.10   13.88
   6  -4   9    9.48   10.83
   6  -4  10   12.46   11.56
   6  -4  11   -2.93    3.39
   6  -4  12   34.33    5.46
   6  -4  13   -2.26    5.42
   6  -4  14   79.90   10.20
   6  -4  15   -6.07    8.58
   6  -4  16  115.06   12.57
   6  -4  17    4.06    9.25
   6  -4  18   -0.23    5.94
   6  -3 -25   19.64   12.26
   6  -3 -24   39.07   14.08
   6  -3 -23   18.98   11.13
   6  -3 -22    7.00    8.35
   6  -3 -21    1.13    6.34
   6  -3 -20    7.00    5.39
   6  -3 -19   12.46    5.62
   6  -3 -18  144.09   10.81
   6  -3 -17  113.78    8.01
   6  -3 -16  299.53   12.48
   6  -3 -15  513.26   15.66
   6  -3 -14  408.29   15.78
   6  -3 -13    2.73    4.76
   6  -3 -12  204.98    8.17
   6  -3 -11   23.41    5.82
   6  -3 -10  846.82   24.49
   6  -3  -9   16.45    3.41
   6  -3  -8    4.06    4.72
   6  -3  -7    6.75    3.11
   6  -3  -6   62.68    4.29
   6  -3  -5    4.49    2.93
   6  -3  -4  531.12   17.31
   6  -3  -3   25.48    3.79
   6  -3  -2   61.50    4.47
   6  -3  -1  311.60   10.61
   6  -3   0    4.29    2.73
   6  -3   1  378.50   11.10
   6  -3   2  222.54    8.96
   6  -3   3    2.48    2.28
   6  -3   4  718.33   27.38
   6  -3   5   -2.73    2.93
   6  -3   6  209.74    9.14
   6  -3   7   60.56    8.89
   6  -3   8   95.36    8.22
   6  -3   9   96.83    9.75
   6  -3  10  141.58   22.16
   6  -3  11  572.04   37.38
   6  -3  12  220.31   19.61
   6  -3  13    2.73    4.51
   6  -3  14   47.55    9.52
   6  -3  15  133.82   10.77
   6  -3  16  215.88   26.05
   6  -3  17   24.42    9.50
   6  -3  18  102.54   10.95
   6  -3  19   15.14    5.62
   6  -3  20   35.57   16.84
   6  -3  21   -5.21   10.83
   6  -3  22   81.79   19.57
   6  -3  23    8.76   12.62
   6  -2 -26   26.25   11.69
   6  -2 -25   11.74    7.20
   6  -2 -24   12.46    7.63
   6  -2 -23   18.46    7.61
   6  -2 -22    9.03    5.60
   6  -2 -21  341.46   15.55
   6  -2 -20   15.98   11.89
   6  -2 -19   35.57    8.78
   6  -2 -18    0.68    5.21
   6  -2 -17   51.35    5.82
   6  -2 -16    1.13    5.21
   6  -2 -15    2.93    4.27
   6  -2 -14   43.11    7.70
   6  -2 -13   25.03    5.42
   6  -2 -12   11.53    4.09
   6  -2 -11  241.77   10.27
   6  -2 -10 1481.45   41.64
   6  -2  -9  238.52    8.35
   6  -2  -8  964.30   27.99
   6  -2  -7   55.52    4.47
   6  -2  -6  606.30   18.48
   6  -2  -5  316.41   10.16
   6  -2  -4   15.14    3.63
   6  -2  -3  497.71   23.47
   6  -2  -2 2124.42   67.87
   6  -2  -1  535.27   15.30
   6  -2   0  304.74    7.88
   6  -2   1   38.87    2.44
   6  -2   2  149.55    8.08
   6  -2   3  356.60   15.89
   6  -2   4  179.18    8.44
   6  -2   5  507.82   41.98
   6  -2   6  282.10   14.63
   6  -2   7  163.45   18.82
   6  -2   8 1012.46   38.23
   6  -2   9   21.83   24.98
   6  -2  10    2.93    5.67
   6  -2  11   83.98    8.26
   6  -2  12  233.89   16.54
   6  -2  13  127.63   11.19
   6  -2  14   86.19    7.54
   6  -2  15  234.82   16.11
   6  -2  16   30.74    7.65
   6  -2  17   20.72    6.16
   6  -2  18   18.71   10.13
   6  -2  19   11.74    9.68
   6  -2  20   28.44   11.22
   6  -2  21    8.58   11.71
   6  -2  22   20.99    8.40
   6  -2  23   14.67    8.76
   6  -2  24   19.25    8.82
   6  -1 -26  213.67   18.44
   6  -1 -25   27.33    9.75
   6  -1 -24   25.03   10.68
   6  -1 -23   -4.29    6.55
   6  -1 -22   88.16    8.46
   6  -1 -21   11.94    5.39
   6  -1 -20   16.21    6.77
   6  -1 -19   30.40    6.79
   6  -1 -18   51.14    6.46
   6  -1 -17  140.86   11.42
   6  -1 -16  287.68   11.71
   6  -1 -15  282.10   10.61
   6  -1 -14  287.68   12.23
   6  -1 -13    2.93    3.86
   6  -1 -12  108.70    5.96
   6  -1 -11   59.63    5.10
   6  -1 -10  557.75   17.04
   6  -1  -9   10.13    5.46
   6  -1  -8   11.33    4.04
   6  -1  -7   22.82    4.02
   6  -1  -6 1011.52   24.85
   6  -1  -5  184.04    6.12
   6  -1  -4  280.09    7.04
   6  -1  -3   45.09    3.43
   6  -1  -2  604.08   13.29
   6  -1  -1  229.78    7.74
   6  -1   0   89.02    4.54
   6  -1   1 1673.49   50.40
   6  -1   2  734.52   19.55
   6  -1   3   28.93    4.04
   6  -1   4  390.89   16.63
   6  -1   5   41.53    4.45
   6  -1   6  300.04   11.96
   6  -1   7  392.06   19.64
   6  -1   8  563.44   23.54
   6  -1   9   26.25    5.85
   6  -1  10    3.14    6.97
   6  -1  11  106.21    8.98
   6  -1  12   68.52    6.73
   6  -1  13    0.68   11.10
   6  -1  14  218.97   27.56
   6  -1  15   38.87    8.06
   6  -1  16  409.51   20.67
   6  -1  17   24.13    8.55
   6  -1  18   53.08   11.17
   6  -1  19   53.31   16.45
   6  -1  20   57.55   17.33
   6  -1  21   13.11   11.31
   6  -1  22  452.55   33.88
   6  -1  23   25.03   13.84
   6  -1  24  224.80   30.18
   6  -1  25   -6.75    8.35
   6   0 -26    2.26    8.58
   6   0 -24   16.45    6.82
   6   0 -22   11.53    4.99
   6   0 -20  113.78   10.90
   6   0 -18   97.73    9.21
   6   0 -16    4.49    5.42
   6   0 -14  130.03    5.82
   6   0 -12   11.01    3.59
   6   0 -10 1721.77   43.63
   6   0  -8 1124.39   28.21
   6   0  -6  153.99    6.70
   6   0  -4  201.12    5.53
   6   0  -2 2857.22   73.87
   6   0   0  574.90   16.57
   6   0   2   81.25    6.23
   6   0   4 1794.85   44.55
   6   0   6    6.30    3.84
   6   0   8   87.89   44.51
   6   0  10  236.19   12.46
   6   0  12  849.44   32.41
   6   0  14   62.20    6.86
   6   0  16   99.22    8.98
   6   0  18   16.70    6.50
   6   0  20   18.98    8.13
   6   0  22    9.48    9.71
   6   0  24   30.06   12.19
   6   0  26   32.41   21.40
   6   1 -26  163.45   20.36
   6   1 -25   15.37    8.37
   6   1 -24   18.08    9.07
   6   1 -23  -25.03   11.13
   6   1 -22  102.22    9.12
   6   1 -21   19.37    6.09
   6   1 -20    4.94    5.21
   6   1 -19   39.07    7.52
   6   1 -18   67.78    6.18
   6   1 -17  142.28    9.32
   6   1 -16  304.74    9.98
   6   1 -15  301.60   11.49
   6   1 -14  253.12   10.04
   6   1 -13   -1.33    4.49
   6   1 -12  109.33    5.35
   6   1 -11   74.37    4.40
   6   1 -10  582.85   14.51
   6   1  -9    1.60    2.05
   6   1  -8    6.30    2.48
   6   1  -7   24.58    2.23
   6   1  -6 1037.47   41.62
   6   1  -5  179.59    6.43
   6   1  -4  283.61   10.63
   6   1  -3   42.91    4.33
   6   1  -2  602.62   19.18
   6   1  -1  242.24    8.42
   6   1   0   97.12    5.62
   6   1   1 1633.18   52.20
   6   1   2  722.35   22.62
   6   1   3   31.58    3.20
   6   1   4  389.69   13.05
   6   1   5   40.58    3.07
   6   1   6  299.01    9.86
   6   1   7  404.66   12.68
   6   1   8  572.73   16.54
   6   1   9   26.25    4.92
   6   1  10   -1.13    4.29
   6   1  11  142.64   11.13
   6   1  12   72.81    7.18
   6   1  13    8.58    8.37
   6   1  14  213.24   12.73
   6   1  15   34.51   17.29
   6   1  16  432.94   20.63
   6   1  17    9.66   11.04
   6   1  18   91.30   21.83
   6   1  19   49.65   19.48
   6   1  20   41.73   12.41
   6   1  21   15.84   14.94
   6   1  22  380.26   21.69
   6   1  23   14.67   10.36
   6   1  24  232.06   22.43
   6   1  25   16.70   26.41
   6   2 -26   32.93   12.23
   6   2 -25    7.22    9.93
   6   2 -24   -0.68    8.62
   6   2 -23   50.92   15.44
   6   2 -22   -1.78    9.64
   6   2 -21  345.91   15.64
   6   2 -20    1.33    4.04
   6   2 -19   31.73    5.26
   6   2 -18   10.63    6.57
   6   2 -17   44.49    4.20
   6   2 -16    9.66    5.60
   6   2 -15   14.67    4.02
   6   2 -14   33.11    5.01
   6   2 -13   25.48    3.63
   6   2 -12   10.13    2.96
   6   2 -11  234.37    8.28
   6   2 -10 1533.94   49.43
   6   2  -9  239.44    8.82
   6   2  -8  910.95   30.83
   6   2  -7   63.40    4.54
   6   2  -6  604.08   20.67
   6   2  -5  334.28    8.78
   6   2  -4   11.01    2.89
   6   2  -3  495.70   13.38
   6   2  -2 2087.20   82.36
   6   2  -1  538.74   13.95
   6   2   0  300.56    8.33
   6   2   1   39.07    2.44
   6   2   2  160.38    7.61
   6   2   3  370.37   15.03
   6   2   4  175.57    6.36
   6   2   5  503.08   13.47
   6   2   6  267.66    8.35
   6   2   7  139.80    6.05
   6   2   8  998.18   37.01
   6   2   9   25.93    4.74
   6   2  10   -5.21    9.25
   6   2  11   82.34    7.36
   6   2  12  206.70   21.60
   6   2  13  124.59   12.75
   6   2  14   83.98    8.53
   6   2  15  224.80   13.52
   6   2  16   46.31   19.43
   6   2  17   14.67   16.23
   6   2  18   30.40    9.77
   6   2  19   20.58   12.28
   6   2  20   18.08    7.67
   6   2  21   18.33    9.01
   6   2  22    4.94    9.48
   6   2  23    2.48   10.38
   6   2  24   27.49   15.12
   6   2  25   21.42   15.84
   6   3 -25   -7.22    9.93
   6   3 -24   14.90   10.56
   6   3 -23    5.21    7.00
   6   3 -22   -2.73   14.31
   6   3 -21   21.69   11.76
   6   3 -20    2.03    5.67
   6   3 -19   21.42    7.65
   6   3 -18  143.36   11.15
   6   3 -17   93.30    8.71
   6   3 -16  292.28   17.47
   6   3 -15  552.78   28.26
   6   3 -14  387.91   18.94
   6   3 -13    7.00    4.92
   6   3 -12  193.54    7.94
   6   3 -11   38.87    4.49
   6   3 -10  851.20   28.05
   6   3  -9   17.83    2.28
   6   3  -8    7.22    3.39
   6   3  -7   11.33    2.53
   6   3  -6   61.25    3.77
   6   3  -5    6.30    2.93
   6   3  -4  530.42   22.14
   6   3  -3   23.99    4.13
   6   3  -2   65.57    3.66
   6   3  -1  304.74   14.69
   6   3   0   -3.36    1.60
   6   3   1  361.75   14.85
   6   3   2  215.00    7.04
   6   3   3    5.21    2.46
   6   3   4  707.09   25.57
   6   3   5   -2.93    3.14
   6   3   6  235.74   11.98
   6   3   7   63.15    5.48
   6   3   8   91.59    7.18
   6   3   9   84.25    6.34
   6   3  10  118.63    6.55
   6   3  11  547.86   29.54
   6   3  12  197.74   22.82
   6   3  13    1.33    7.40
   6   3  14   55.75    8.98
   6   3  15  122.26   12.96
   6   3  16  253.60   15.30
   6   3  17    5.85   18.69
   6   3  18  155.87   18.76
   6   3  19   10.63    6.95
   6   3  20   29.41   17.60
   6   3  21   -0.68   16.32
   6   3  22   73.08   15.42
   6   3  23    9.21    9.03
   6   3  24  166.93   27.56
   6   4 -24    5.64   12.62
   6   4 -23   24.13    8.42
   6   4 -22   20.99   10.88
   6   4 -21   12.46    5.62
   6   4 -20   30.90   10.18
   6   4 -19   11.01    8.08
   6   4 -18   25.48   21.40
   6   4 -17   78.84    9.34
   6   4 -16   59.63   13.45
   6   4 -15    3.14    3.84
   6   4 -14  109.64    7.85
   6   4 -13   11.01    5.19
   6   4 -12   28.93    8.55
   6   4 -11   17.20    4.11
   6   4 -10   30.06    4.13
   6   4  -9   68.77    3.50
   6   4  -7   55.75    8.76
   6   4  -6  217.21    9.30
   6   4  -5  187.31    6.59
   6   4  -4    7.47    0.90
   6   4  -3    4.29    0.68
   6   4  -2   74.37    2.60
   6   4  -1  396.24   13.16
   6   4   0   43.49    1.99
   6   4   1  832.02   27.74
   6   4   2  642.34   31.98
   6   4   3  192.70    7.92
   6   4   4   46.31    3.48
   6   4   5   40.58    3.63
   6   4   6   43.49    3.77
   6   4   7   33.11    4.31
   6   4   8  293.32   12.35
   6   4   9   10.13    3.84
   6   4  10   -0.68    4.99
   6   4  11    7.47    8.37
   6   4  12   28.44    7.04
   6   4  13   12.89    7.02
   6   4  14   57.55   10.02
   6   4  15    9.21   10.11
   6   4  16  109.64   11.65
   6   4  17    1.33   19.95
   6   4  18    3.14    7.67
   6   4  19    3.14    9.21
   6   4  20   37.38    9.55
   6   4  21  114.09   21.83
   6   4  22   13.54   12.17
   6   4  23   24.58   13.11
   6   5 -22   13.32   10.43
   6   5 -21   10.13   11.96
   6   5 -20   18.98   25.01
   6   5 -19    9.95    7.02
   6   5 -18   39.81    8.71
   6   5 -17  165.37   18.55
   6   5 -16   -2.03    4.76
   6   5 -15  200.69   14.04
   6   5 -14   79.36    8.31
   6   5 -13   79.63   10.72
   6   5 -12   27.96   12.71
   6   5 -11  106.21    8.98
   6   5 -10  240.37   11.17
   6   5  -9   35.39    3.39
   6   5  -8   29.75    3.61
   6   5   2    3.14    1.60
   6   5   3    4.29    1.56
   6   5   4   48.59    5.03
   6   5   5   16.70    4.78
   6   5   6    4.06    3.39
   6   5   7  100.12   11.42
   6   5   8  105.60    8.33
   6   5   9  190.63   11.19
   6   5  10   13.77    6.14
   6   5  11  196.90   11.80
   6   5  12   68.77    8.46
   6   5  13   59.63    7.90
   6   5  14    7.90   14.85
   6   5  15   76.20    9.98
   6   5  16  117.00   17.56
   6   5  17   63.87   10.81
   6   5  18   26.86   12.14
   6   5  19    8.15   10.81
   6   5  20   -3.36    8.53
   6   5  21    8.58   15.84
   6   6   3   50.29   10.65
   6   6   4    3.81    4.04
   6   6   5    4.74    3.41
   6   6   6   60.10    4.90
   6   6   7   22.55    4.56
   6   6   8  100.12    7.81
   6   6   9   33.81    6.82
   6   6  10   -2.26    7.00
   6   6  11    8.76    6.32
   6   6  12   69.52    8.01
   6   6  13   50.71    8.98
   6   6  14  172.80   15.39
   6   6  15   19.91   11.26
   6   6  16    9.95   10.61
   6   6  17  112.49   11.47
   6   6  18    3.59    9.43
   6   6  19   -0.90    6.52
   6   7   8   72.81    7.43
   6   7   9   47.13    8.67
   6   7  10   10.13    5.85
   6   7  11   70.28   13.86
   6   7  12    9.21    5.64
   6   7  13   53.54    9.46
   6   7  14   33.45   17.20
   6   7  15   22.12   14.69
   6   7  16   37.38    9.55
   7  -8 -11    4.94    9.21
   7  -8 -10    2.93   19.41
   7  -8  -9   27.96   20.02
   7  -8  -8   50.49    9.39
   7  -8  -7   -8.33   11.01
   7  -8  -6    3.81    9.91
   7  -8  -5   25.48    9.25
   7  -8  -4   46.92   10.09
   7  -7 -16   12.68   12.84
   7  -7 -15    3.59   10.81
   7  -7 -14   -6.07    8.15
   7  -7 -13    9.21    8.58
   7  -7 -12   18.98   15.19
   7  -7 -11    3.14    7.88
   7  -7 -10    7.22    7.20
   7  -7  -9    6.75    7.43
   7  -7  -8    6.75    9.46
   7  -7  -7    8.58    9.23
   7  -7  -6   50.06   10.83
   7  -7  -5   14.44    7.88
   7  -7  -4   96.53   10.34
   7  -7  -3   26.70    5.89
   7  -7  -2  106.82    7.76
   7  -7  -1   24.87    4.78
   7  -7   0    4.49    7.45
   7  -6 -19   19.25   13.97
   7  -6 -18   -0.23   11.19
   7  -6 -17   58.00   15.57
   7  -6 -16   43.11   12.82
   7  -6 -15   83.44   14.83
   7  -6 -14   17.83   13.32
   7  -6 -13 1087.42  476.59
   7  -6 -12   33.63   12.03
   7  -6 -11   18.98    8.64
   7  -6 -10   21.83    6.32
   7  -6  -9  179.18    8.85
   7  -6  -8  143.73    8.64
   7  -6  -7   22.55    4.99
   7  -6  -6   46.11    8.37
   7  -6  -5   83.98    7.72
   7  -6  -4   24.58    4.31
   7  -6  -3   85.65    6.68
   7  -6  -2  146.61    7.27
   7  -6  -1    4.06    2.91
   7  -6   0   19.91    6.57
   7  -6   1  637.01   28.05
   7  -6   2  116.35    8.42
   7  -6   3   55.75    4.49
   7  -5 -21   76.44   14.96
   7  -5 -20    9.48    6.57
   7  -5 -19   22.82    6.32
   7  -5 -18   20.72    7.92
   7  -5 -17   75.65   10.72
   7  -5 -16   61.50   13.68
   7  -5 -15   31.06    6.70
   7  -5 -14   46.11    8.98
   7  -5 -13  190.63    9.55
   7  -5 -12   79.36   12.57
   7  -5 -11   13.32    4.94
   7  -5 -10    9.21    4.47
   7  -5  -9   23.99    6.32
   7  -5  -8   37.38    4.97
   7  -5  -7    4.94    5.87
   7  -5  -6   17.31    4.24
   7  -5  -5   21.69    3.77
   7  -5  -4  274.09    9.95
   7  -5  -3  388.50   14.22
   7  -5  -2  219.42    8.01
   7  -5  -1   23.41    2.91
   7  -5   0    0.45    3.18
   7  -5   1    6.30    3.61
   7  -5   2   14.67    5.87
   7  -5   3   37.20    4.22
   7  -5   4  117.00    5.53
   7  -5   5   21.26    5.26
   7  -5   6  160.38   11.80
   7  -5   7   11.94    5.19
   7  -5   8  196.04   10.52
   7  -5   9   85.09   27.72
   7  -5  10   73.58    7.22
   7  -5  11    6.52    6.97
   7  -5  12    4.94    4.47
   7  -4 -23   17.56   11.08
   7  -4 -22    5.42   10.13
   7  -4 -21    2.48    6.77
   7  -4 -20    1.13    5.21
   7  -4 -19    5.85    6.75
   7  -4 -18   35.21    6.25
   7  -4 -17   61.98    7.09
   7  -4 -16   62.68   11.17
   7  -4 -15    6.30    5.89
   7  -4 -14   43.70    4.76
   7  -4 -13    4.49    4.51
   7  -4 -12   30.06    5.94
   7  -4 -11   60.80    7.27
   7  -4 -10   -4.74    5.44
   7  -4  -9  204.55   10.74
   7  -4  -8   58.00    6.18
   7  -4  -7    7.65    3.81
   7  -4  -6    0.90    5.17
   7  -4  -5    2.03    2.96
   7  -4  -4   13.77    4.02
   7  -4  -3    9.03    2.71
   7  -4  -2   51.14    3.43
   7  -4  -1   20.04    3.63
   7  -4   0  382.61   11.76
   7  -4   1  203.69    7.29
   7  -4   2   81.79    4.90
   7  -4   3   70.53    5.30
   7  -4   4   42.91    3.93
   7  -4   5    0.00    2.26
   7  -4   6    0.23    6.16
   7  -4   7  728.83   36.50
   7  -4   8   15.37    6.12
   7  -4   9   17.20    6.09
   7  -4  10  107.14   10.59
   7  -4  11   36.11    7.04
   7  -4  12   85.36   10.83
   7  -4  13  143.73   16.21
   7  -4  14  170.45   16.09
   7  -4  15    7.65    7.22
   7  -4  16   22.82    9.91
   7  -4  17  -14.22    8.85
   7  -4  18   58.93   19.84
   7  -3 -24    3.36   10.36
   7  -3 -23  -17.20   12.84
   7  -3 -22   -5.85    7.20
   7  -3 -21   85.36    8.06
   7  -3 -20   39.07    6.39
   7  -3 -19    8.58    8.37
   7  -3 -18    9.21    6.12
   7  -3 -17  147.36   10.95
   7  -3 -16  253.12   13.38
   7  -3 -15   -9.21    4.92
   7  -3 -14  125.60    6.39
   7  -3 -13   95.06    6.16
   7  -3 -12   -8.58    5.89
   7  -3 -11   43.70    4.97
   7  -3 -10   14.67    3.57
   7  -3  -9  117.66    6.84
   7  -3  -8    6.75    2.96
   7  -3  -7   63.87    4.56
   7  -3  -6  215.00    7.92
   7  -3  -5  413.77   14.67
   7  -3  -4  561.29   19.23
   7  -3  -3 2192.83   61.91
   7  -3  -2  526.26   17.24
   7  -3  -1  778.30   20.94
   7  -3   0  337.58   11.60
   7  -3   1  905.51   26.23
   7  -3   2    9.66    3.63
   7  -3   3    2.26    5.87
   7  -3   4  168.48   10.13
   7  -3   5  125.94    9.10
   7  -3   6   32.93    6.73
   7  -3   7    8.58    7.49
   7  -3   8   49.65    5.71
   7  -3   9   70.78   12.14
   7  -3  10   69.52    9.03
   7  -3  11   15.98    8.17
   7  -3  12   68.27    9.68
   7  -3  13   26.70   11.01
   7  -3  14   32.25   17.40
   7  -3  15   45.50    6.07
   7  -3  16   58.93    9.91
   7  -3  17    2.26    4.97
   7  -3  18   21.26    9.98
   7  -3  19   53.96    9.50
   7  -3  20   43.49   17.45
   7  -3  21   20.72    8.76
   7  -3  22    4.06    9.93
   7  -3  23   95.36   18.78
   7  -2 -25   -6.52    8.60
   7  -2 -24   18.33    7.85
   7  -2 -23    0.90    6.05
   7  -2 -22    7.47    7.22
   7  -2 -21   22.39    7.24
   7  -2 -20   13.11    7.18
   7  -2 -19    6.52    4.76
   7  -2 -18    5.64    4.29
   7  -2 -17  809.63   23.95
   7  -2 -16  101.93    6.68
   7  -2 -15  130.36    9.61
   7  -2 -14   66.78    5.64
   7  -2 -13    9.95    3.61
   7  -2 -12  163.07    9.59
   7  -2 -11  337.04   12.14
   7  -2 -10  123.25    6.34
   7  -2  -9  390.89   12.48
   7  -2  -8   13.11    4.78
   7  -2  -7  185.66    7.38
   7  -2  -6   50.06    3.84
   7  -2  -5   47.35    4.33
   7  -2  -4  142.28    5.73
   7  -2  -3  371.52   11.01
   7  -2  -2   53.31    3.72
   7  -2  -1  280.09    9.55
   7  -2   0  490.38   15.98
   7  -2   1   26.25    3.86
   7  -2   2  832.88   36.43
   7  -2   3    4.94    4.94
   7  -2   4  145.17    8.69
   7  -2   5  208.86   13.02
   7  -2   6  275.58   12.98
   7  -2   7 5530.20  192.16
   7  -2   8  107.77    7.49
   7  -2   9   36.83    6.39
   7  -2  10  166.54    9.30
   7  -2  11  219.42   11.13
   7  -2  12   53.74   11.24
   7  -2  13   53.08    8.98
   7  -2  14    4.49    6.75
   7  -2  15  558.45  606.39
   7  -2  16   36.11    7.04
   7  -2  17   74.37   12.71
   7  -2  18  281.61   22.19
   7  -2  19  171.62   14.56
   7  -2  20   70.53    9.34
   7  -2  21  153.61   15.26
   7  -2  22  106.82   69.24
   7  -2  23   39.99   11.96
   7  -2  24   55.75   30.74
   7  -1 -26   28.60   11.58
   7  -1 -25   27.02   10.63
   7  -1 -24   11.33    9.01
   7  -1 -23   -2.73    8.85
   7  -1 -22    6.52    6.97
   7  -1 -21   27.81    8.55
   7  -1 -20  111.54    8.26
   7  -1 -19   65.57    7.29
   7  -1 -18   53.74    6.16
   7  -1 -17 1518.69   42.16
   7  -1 -16  349.27   16.30
   7  -1 -15  748.42   22.19
   7  -1 -14   18.08    4.33
   7  -1 -13   -0.45    4.31
   7  -1 -12  118.31    5.89
   7  -1 -11   65.32    5.35
   7  -1 -10  104.97    5.85
   7  -1  -9  357.76   11.94
   7  -1  -8   77.23    5.01
   7  -1  -7  307.38   10.54
   7  -1  -6  507.15   14.90
   7  -1  -5  165.75    6.18
   7  -1  -4  783.36   22.71
   7  -1  -3  249.31    8.06
   7  -1  -2    5.85    2.69
   7  -1  -1  231.61    6.41
   7  -1   0  311.60    9.55
   7  -1   1  222.99    7.63
   7  -1   2  110.91    5.06
   7  -1   3   16.21    2.66
   7  -1   4  138.74   27.60
   7  -1   5   26.86    4.04
   7  -1   6  333.18   14.26
   7  -1   7    7.47    6.32
   7  -1   8  131.40    8.26
   7  -1   9   85.65    8.35
   7  -1  10   17.20    6.97
   7  -1  11   15.14    9.01
   7  -1  12    0.68    4.29
   7  -1  13   10.63    8.13
   7  -1  14   13.54    7.85
   7  -1  15  432.94   21.26
   7  -1  16   13.11    5.67
   7  -1  17  151.02   17.00
   7  -1  18   16.21   10.65
   7  -1  19   65.32    8.51
   7  -1  20   40.58    7.85
   7  -1  21   18.46    8.78
   7  -1  22   -5.42    8.33
   7  -1  23   92.45   26.00
   7  -1  24    4.06   17.79
   7  -1  25    5.85   10.38
   7   0 -25   31.58    7.94
   7   0 -23   14.67   11.51
   7   0 -21   30.74    6.32
   7   0 -19   11.53    4.49
   7   0 -17   45.50    5.87
   7   0 -15   55.97    8.98
   7   0 -13   18.08    4.99
   7   0 -11   17.20    4.74
   7   0  -9   83.71    4.94
   7   0  -7   38.68    3.54
   7   0  -5   37.38    4.04
   7   0  -3   87.89    6.21
   7   0  -1  122.92    4.99
   7   0   1  309.48   11.10
   7   0   3   57.10    4.31
   7   0   5  498.39   14.76
   7   0   7 6657.18  230.44
   7   0   9   37.94    7.04
   7   0  11  446.79   26.05
   7   0  13    4.29    7.92
   7   0  15  934.67   45.93
   7   0  17   87.03    9.82
   7   0  19   39.81    9.30
   7   0  21   30.74   10.83
   7   0  23   44.69   19.68
   7   0  25   42.12   27.49
   7   1 -26   -9.03   12.01
   7   1 -25   16.45   13.52
   7   1 -24    4.49    7.63
   7   1 -23   13.11    7.18
   7   1 -22   -2.48    5.21
   7   1 -21   19.64    4.92
   7   1 -20  122.92   11.33
   7   1 -19   71.03   13.93
   7   1 -18   53.31    5.06
   7   1 -17 1550.46   43.79
   7   1 -16  312.66   15.42
   7   1 -15  737.79   23.68
   7   1 -14   10.63    5.39
   7   1 -13   15.98    5.39
   7   1 -12  118.97    6.23
   7   1 -11   68.27    4.72
   7   1 -10  112.49    4.47
   7   1  -9  372.11   16.23
   7   1  -8   90.14    3.43
   7   1  -7  316.93   10.16
   7   1  -6  487.06   13.27
   7   1  -5  165.75    5.80
   7   1  -4  749.25   25.50
   7   1  -3  228.86    7.27
   7   1  -2   12.46    2.75
   7   1  -1  233.44    8.26
   7   1   0  309.48    8.98
   7   1   1  219.42    7.13
   7   1   2   95.06    7.04
   7   1   3   13.99    2.71
   7   1   4  117.66    4.90
   7   1   5   29.75    3.77
   7   1   6  343.69   12.26
   7   1   7    7.00    3.57
   7   1   8  136.95    9.14
   7   1   9   93.89    9.91
   7   1  10   11.33    5.87
   7   1  11   34.69    6.03
   7   1  12   15.14    4.78
   7   1  13   -4.06    7.02
   7   1  14   15.84   19.50
   7   1  15  423.01   18.53
   7   1  16   14.44   10.86
   7   1  17  148.44   14.65
   7   1  18   33.11   19.55
   7   1  19   80.17   11.83
   7   1  20   26.70   15.37
   7   1  21   21.26   12.62
   7   1  22   15.37   13.07
   7   1  23   54.19   12.82
   7   1  24    7.47   36.41
   7   1  25   44.49   15.44
   7   2 -25   -5.21    7.90
   7   2 -24    8.58    7.65
   7   2 -23    8.58   13.72
   7   2 -22    7.65    8.80
   7   2 -21   26.86    7.63
   7   2 -20   19.37    5.17
   7   2 -19   -1.33    4.49
   7   2 -18    3.59    3.36
   7   2 -17  774.13   25.08
   7   2 -16  104.05    7.04
   7   2 -15  114.41    6.43
   7   2 -14   68.77    7.22
   7   2 -13    4.49    3.81
   7   2 -12  163.07    8.44
   7   2 -11  323.38   13.52
   7   2 -10  119.62    7.22
   7   2  -9  390.89   12.48
   7   2  -8    5.85    3.86
   7   2  -7  191.44    7.90
   7   2  -6   47.55    3.32
   7   2  -5   54.84    3.57
   7   2  -4  145.17    5.80
   7   2  -3  385.54   10.63
   7   2  -2   44.28    3.20
   7   2  -1  308.96    8.44
   7   2   0  484.40   13.88
   7   2   1   34.69    3.36
   7   2   2  829.42   32.03
   7   2   3    6.52    2.69
   7   2   4  147.36    6.93
   7   2   5  192.70    7.92
   7   2   6  283.61   11.13
   7   2   7 5568.25  139.01
   7   2   8  121.92    5.64
   7   2   9   46.92    7.20
   7   2  10  197.31   19.84
   7   2  11  232.99   12.84
   7   2  12   47.76    5.19
   7   2  13   39.07    8.82
   7   2  14    3.81    5.64
   7   2  15    5.42    5.87
   7   2  16   30.74   11.33
   7   2  17   57.55   14.13
   7   2  18  299.53   28.08
   7   2  19  218.54   18.21
   7   2  20   96.24   16.79
   7   2  21  176.38   33.92
   7   2  22   35.39   11.98
   7   2  23   82.88   45.95
   7   2  24    8.15   12.19
   7   3 -24   15.62   11.98
   7   3 -23   22.12   17.67
   7   3 -22    6.52    8.82
   7   3 -21   61.73   11.10
   7   3 -20   38.68   12.53
   7   3 -19   12.89    6.79
   7   3 -18   12.46   10.18
   7   3 -17  173.99   14.67
   7   3 -16  242.72   13.11
   7   3 -15   -3.14    6.55
   7   3 -14  140.50   10.34
   7   3 -13   89.58    5.12
   7   3 -12    3.81    3.59
   7   3 -11   53.54    4.40
   7   3 -10    8.58    3.61
   7   3  -9  108.38    4.69
   7   3  -8    9.21    2.46
   7   3  -7   58.48    3.68
   7   3  -6  225.70    9.03
   7   3  -5  425.47   17.36
   7   3  -4  568.45   23.63
   7   3  -3 1892.90   83.67
   7   3  -2  457.67   16.70
   7   3  -1  766.61   24.96
   7   3   0  348.71   11.78
   7   3   1  927.33   34.78
   7   3   2    1.78    4.06
   7   3   3    1.60    2.73
   7   3   4  172.01    6.70
   7   3   5  145.89    7.27
   7   3   6   30.40    3.97
   7   3   7    8.15    2.75
   7   3   8   44.89    5.03
   7   3   9   67.78    6.93
   7   3  10   80.17   45.21
   7   3  11   27.33    4.24
   7   3  12   49.86    8.06
   7   3  13   29.75    6.55
   7   3  14   15.84   15.44
   7   3  15   27.49    8.98
   7   3  16   68.52   10.45
   7   3  17   -6.30    7.70
   7   3  18   44.28    8.19
   7   3  19   63.15   12.89
   7   3  20   11.01    6.27
   7   3  21   44.28   14.99
   7   3  22    5.85    7.40
   7   3  23   85.65   43.11
   7   3  24    0.45   10.65
   7   4 -23    2.93   13.54
   7   4 -22    4.29   15.14
   7   4 -21   -1.13   12.91
   7   4 -20   -4.29    4.74
   7   4 -19    2.03    7.47
   7   4 -18   27.81   19.16
   7   4 -17   56.20    7.65
   7   4 -16   59.86   37.42
   7   4 -15   -3.14    9.43
   7   4 -14   56.42    6.55
   7   4 -13   -2.93    4.94
   7   4 -12   46.11    6.32
   7   4 -11   48.59    8.58
   7   4 -10   -4.74    3.41
   7   4  -9  199.86    8.08
   7   4  -8   67.03    6.39
   7   4  -7   -1.13    2.05
   7   4  -6    3.59    1.83
   7   4  -5    1.60    3.41
   7   4  -4   13.32    1.53
   7   4  -3    8.76    1.78
   7   4  -2   49.23    2.73
   7   4  -1   22.39    1.85
   7   4   0  374.41   12.80
   7   4   1  174.38    9.52
   7   4   2   83.15    5.76
   7   4   3   75.93    4.45
   7   4   4   39.81    3.79
   7   4   5    4.94    2.48
   7   4   6    4.94    2.93
   7   4   7  682.54   21.19
   7   4   8   29.57    4.90
   7   4   9   15.62    3.79
   7   4  10  137.68   10.59
   7   4  11   41.73    5.24
   7   4  12   96.24    8.26
   7   4  13  138.74   12.73
   7   4  14  174.38   13.88
   7   4  15   12.46   13.59
   7   4  16   34.33    7.74
   7   4  17    0.68    7.94
   7   4  18   64.60    9.41
   7   4  19   41.35    9.66
   7   4  20    8.15    6.77
   7   4  21   52.43   10.00
   7   4  22   75.93   20.43
   7   5 -21   61.50   10.36
   7   5 -20   15.37    7.90
   7   5 -19   25.77    8.08
   7   5 -18    9.21    7.20
   7   5 -17   61.50    8.96
   7   5 -16   82.34    9.28
   7   5 -15   15.37    6.95
   7   5 -14   29.41    5.21
   7   5 -13  199.86   15.30
   7   5 -12   55.75    9.86
   7   5 -11   10.83    4.24
   7   5 -10   18.33    2.32
   7   5  -9    4.49    2.23
   7   5  -8   36.11    3.97
   7   5  -7   10.34    1.35
   7   5   1   11.01    2.30
   7   5   2   10.34    1.83
   7   5   3   40.58    4.22
   7   5   4  101.02    8.46
   7   5   5   23.25    4.78
   7   5   6  159.25    8.71
   7   5   7   21.42    5.01
   7   5   8  200.69   11.92
   7   5   9   38.87    5.80
   7   5  10   84.82    9.14
   7   5  11   16.21    9.68
   7   5  12    6.75    8.35
   7   5  13   15.84   21.53
   7   5  14   -3.59    6.09
   7   5  15  117.00   38.35
   7   5  16   58.70   10.36
   7   5  17  -15.37    8.13
   7   5  18   44.89    9.86
   7   5  19    8.15    7.72
   7   5  20    5.64   13.54
   7   5  21  100.12   82.06
   7   6   3   53.31    4.38
   7   6   4    6.30    3.16
   7   6   5   11.74    3.39
   7   6   6   38.30    4.29
   7   6   7  302.66   18.82
   7   6   8    0.45    4.76
   7   6   9   22.39   10.38
   7   6  10    6.07    9.25
   7   6  11   11.94    6.55
   7   6  12   16.70   12.17
   7   6  13  179.97   20.97
   7   6  14   73.08   10.02
   7   6  15    4.29   10.59
   7   6  16   31.39   16.34
   7   6  17    8.58   11.53
   7   6  18    9.03    6.95
   7   7  10   42.91   26.56
   7   7  11   22.12    8.76
   7   7  12   33.11    7.27
   7   7  13   24.13    7.22
   7   7  14   29.75   11.31
   7   7  15   50.92    8.78
   8  -8 -10   10.13   11.01
   8  -8  -9   58.00   21.06
   8  -8  -8   31.73   15.42
   8  -8  -7   44.28    8.60
   8  -8  -6   72.81   13.34
   8  -8  -5   20.72    9.98
   8  -7 -15   -1.60    6.09
   8  -7 -14    8.33    5.37
   8  -7 -13    1.13    4.74
   8  -7 -12   -1.33    5.60
   8  -7 -11   -0.90    5.87
   8  -7 -10   -1.60    5.87
   8  -7  -9   11.53   14.69
   8  -7  -8   -5.42    5.67
   8  -7  -7   10.34    8.98
   8  -7  -6    0.45    6.59
   8  -7  -5    6.75    6.95
   8  -7  -4   13.99    9.21
   8  -7  -3   15.14    8.76
   8  -7  -2   74.37    6.73
   8  -7  -1   24.42   13.81
   8  -6 -18    2.26    7.00
   8  -6 -17   46.11   12.44
   8  -6 -16   63.65   15.57
   8  -6 -15    8.15    7.47
   8  -6 -14   61.03   13.61
   8  -6 -13   28.28   10.86
   8  -6 -12   15.37    9.07
   8  -6 -11   39.07    7.13
   8  -6 -10    7.47   14.72
   8  -6  -9   46.52    6.34
   8  -6  -8    1.78    5.19
   8  -6  -7  102.83    7.31
   8  -6  -6   92.74    5.78
   8  -6  -5    5.42    4.27
   8  -6  -4   35.03    5.17
   8  -6  -3    9.48    6.30
   8  -6  -2  163.07    8.44
   8  -6  -1   90.14    6.27
   8  -6   0    9.66    4.29
   8  -6   1   74.89    5.98
   8  -6   3  105.90   10.52
   8  -5 -21   13.99    6.97
   8  -5 -20   26.70    7.00
   8  -5 -19   11.94    7.47
   8  -5 -18   70.01    8.55
   8  -5 -17   79.36   10.97
   8  -5 -16   -9.95    5.21
   8  -5 -15   10.34    4.74
   8  -5 -14   33.63    6.61
   8  -5 -13   28.60    8.85
   8  -5 -12   21.69    6.57
   8  -5 -11   73.08    8.49
   8  -5 -10   65.32    6.79
   8  -5  -9   19.25    5.15
   8  -5  -8   10.34    6.09
   8  -5  -7   10.34    3.57
   8  -5  -6   35.57    5.55
   8  -5  -5   51.14    4.94
   8  -5  -4  229.78    8.19
   8  -5  -3   10.34    4.54
   8  -5  -2 1107.33   30.00
   8  -5  -1   20.58    4.90
   8  -5   0  532.49   17.33
   8  -5   1  524.21   15.14
   8  -5   2   36.11    3.43
   8  -5   3   -1.13    2.51
   8  -5   4    2.93    2.26
   8  -5   5  483.74   62.11
   8  -5   6  222.11   80.60
   8  -5   7   94.48   11.10
   8  -5   8  136.62   14.04
   8  -5   9   17.20    9.21
   8  -5  10   32.77    8.42
   8  -5  11   -4.74    4.06
   8  -5  12   -2.26    5.42
   8  -4 -23   29.09   12.14
   8  -4 -22  104.97   10.16
   8  -4 -21   24.87   11.24
   8  -4 -20  131.74   14.13
   8  -4 -19  175.57   11.15
   8  -4 -18    9.95    6.07
   8  -4 -17   15.62    7.24
   8  -4 -16   80.17    8.87
   8  -4 -15   79.11    7.74
   8  -4 -14  337.58   14.90
   8  -4 -13    0.23    4.56
   8  -4 -12   16.21    6.77
   8  -4 -11   31.73    7.29
   8  -4 -10    2.93    4.94
   8  -4  -9   20.72    4.92
   8  -4  -8   32.77    7.40
   8  -4  -7  184.44    7.76
   8  -4  -6    8.76    3.66
   8  -4  -5  201.98    8.96
   8  -4  -4  140.50    8.89
   8  -4  -3   53.31    5.91
   8  -4  -2   33.11    3.63
   8  -4  -1  142.64    6.46
   8  -4   0  231.61    8.24
   8  -4   1  271.11    9.39
   8  -4   2    4.49    3.36
   8  -4   3   33.45    3.30
   8  -4   4  145.53   10.16
   8  -4   5  152.87   11.89
   8  -4   6   62.20    8.76
   8  -4   7    2.03    5.39
   8  -4   8   -8.76    5.87
   8  -4   9   36.47    6.16
   8  -4  10   -5.42    6.57
   8  -4  11   50.92    8.35
   8  -4  12   -4.49    6.05
   8  -4  13   35.03   13.16
   8  -4  14   78.02    9.03
   8  -4  15   15.98    5.89
   8  -4  16   15.62    9.25
   8  -4  17   11.53    8.78
   8  -4  18   20.72   12.17
   8  -3 -24   57.33   11.60
   8  -3 -23    9.48   11.28
   8  -3 -22   43.29   10.29
   8  -3 -21   39.99   10.07
   8  -3 -20    0.90   10.13
   8  -3 -19   -1.13    7.24
   8  -3 -18  145.17    9.41
   8  -3 -17   25.48    7.88
   8  -3 -16   19.91    9.52
   8  -3 -15  210.17   10.88
   8  -3 -14  151.76    8.15
   8  -3 -13   16.21    6.77
   8  -3 -12    4.06    6.30
   8  -3 -11  130.36    7.54
   8  -3 -10  619.68   21.69
   8  -3  -9  183.63    7.74
   8  -3  -8   90.44    5.15
   8  -3  -7   31.58    4.06
   8  -3  -6  126.96    6.77
   8  -3  -5  167.31    7.38
   8  -3  -4  401.65   15.05
   8  -3  -3  695.15   21.40
   8  -3  -2  381.43   10.56
   8  -3  -1  290.25    9.21
   8  -3   0 3751.55  117.79
   8  -3   1    3.81    2.46
   8  -3   2   43.70    7.36
   8  -3   3  438.58   20.13
   8  -3   4  213.24   11.85
   8  -3   5   -2.93    4.54
   8  -3   6  150.65   11.06
   8  -3   7   10.83    6.14
   8  -3   8  110.28   10.40
   8  -3   9   11.94    5.19
   8  -3  10   -4.74    8.13
   8  -3  11   13.77    6.79
   8  -3  12   22.12   10.18
   8  -3  13   10.34    8.98
   8  -3  14   66.54   14.94
   8  -3  15    4.06    8.60
   8  -3  16  200.29   19.14
   8  -3  17   65.32   10.92
   8  -3  18  154.36   19.05
   8  -3  19   13.77   10.16
   8  -3  20    7.00   10.81
   8  -3  21   -9.95    6.82
   8  -3  22   -2.73    6.36
   8  -3  23   18.98   13.09
   8  -2 -25   -1.60    8.60
   8  -2 -24   58.70   17.04
   8  -2 -23    4.74    7.92
   8  -2 -22  131.74    9.32
   8  -2 -21   58.93   11.31
   8  -2 -20  318.53   15.01
   8  -2 -19   30.06    6.59
   8  -2 -18   -2.73    4.31
   8  -2 -17  439.84   15.12
   8  -2 -16  429.82   15.57
   8  -2 -15   69.02    5.98
   8  -2 -14   62.68    6.43
   8  -2 -13   31.06    6.03
   8  -2 -12  109.96    6.30
   8  -2 -11  174.38    7.54
   8  -2 -10   49.86    7.00
   8  -2  -9   11.01    3.59
   8  -2  -8   20.99    4.67
   8  -2  -7   40.76    4.02
   8  -2  -6  497.71   14.08
   8  -2  -5  497.06   16.75
   8  -2  -4  293.32    9.77
   8  -2  -3   22.55    3.14
   8  -2  -2    9.95    2.46
   8  -2  -1   27.81    3.16
   8  -2   0   -3.36    2.71
   8  -2   1    2.48    4.09
   8  -2   2   30.74    6.32
   8  -2   3   13.11    6.32
   8  -2   4  299.01   11.94
   8  -2   5  231.14   11.42
   8  -2   6  966.17   69.11
   8  -2   7   61.25    8.24
   8  -2   8  101.93    9.41
   8  -2   9  106.82   10.88
   8  -2  10    4.29    4.74
   8  -2  11   18.98    6.55
   8  -2  12   50.49    5.76
   8  -2  13    2.73    5.46
   8  -2  14   53.54    8.80
   8  -2  15   27.81    7.29
   8  -2  16  944.80   66.49
   8  -2  17  109.33   10.68
   8  -2  18  429.19   29.88
   8  -2  19   41.14   11.94
   8  -2  20   39.99   21.46
   8  -2  21    2.73    7.24
   8  -2  22   35.21   10.52
   8  -2  23   22.98   11.96
   8  -2  24   73.85   12.39
   8  -1 -25   29.09   11.98
   8  -1 -24   66.78    9.82
   8  -1 -23   12.14   14.67
   8  -1 -22    6.30    9.66
   8  -1 -21   60.80   10.77
   8  -1 -20   38.68    8.22
   8  -1 -19   38.68    8.78
   8  -1 -18  556.33   35.43
   8  -1 -17   41.93    9.34
   8  -1 -16  108.70   10.02
   8  -1 -15  246.46   11.33
   8  -1 -14  633.22   22.68
   8  -1 -13    2.93    3.86
   8  -1 -12    4.74    5.44
   8  -1 -11    9.66    4.29
   8  -1 -10  704.70   19.14
   8  -1  -9   11.74    3.18
   8  -1  -8  581.40   18.10
   8  -1  -7   50.06    3.61
   8  -1  -6 1988.19   49.56
   8  -1  -5   87.03    5.60
   8  -1  -4  520.78   15.08
   8  -1  -3   55.07    4.24
   8  -1  -2   86.76    5.33
   8  -1  -1  166.93   12.03
   8  -1   0  201.98   11.10
   8  -1   1  271.11   13.36
   8  -1   2   21.83    7.72
   8  -1   3   28.44    7.04
   8  -1   4  757.49   28.93
   8  -1   5   46.72    6.36
   8  -1   6  478.46   19.73
   8  -1   7   27.81    6.50
   8  -1   8   42.52    6.27
   8  -1   9   19.91    7.52
   8  -1  10  103.44   11.62
   8  -1  11   16.21    8.35
   8  -1  12    3.36    9.41
   8  -1  13    7.47    5.17
   8  -1  14  315.32   21.35
   8  -1  15  111.54   11.10
   8  -1  16   83.44   12.35
   8  -1  17   11.01    6.59
   8  -1  18    5.21    5.89
   8  -1  19   13.77   12.14
   8  -1  20   20.58   10.90
   8  -1  21   40.20   11.80
   8  -1  22   64.37   14.69
   8  -1  23   17.31   21.37
   8  -1  24    7.47   14.22
   8   0 -26   12.68    8.78
   8   0 -24   52.00   12.14
   8   0 -22    5.64    8.13
   8   0 -20  126.96    9.48
   8   0 -18  115.38   12.26
   8   0 -16 1055.96   29.30
   8   0 -14   24.42    3.86
   8   0 -12   49.43    5.08
   8   0 -10   51.35    5.60
   8   0  -8  241.77    8.42
   8   0  -6  485.73   11.92
   8   0  -4  540.84   16.77
   8   0  -2   38.30    4.09
   8   0   0   29.57    3.59
   8   0   2   14.44    2.98
   8   0   4  101.32    4.83
   8   0   6  769.95   29.18
   8   0   8  411.95   17.09
   8   0  10   -3.14    6.07
   8   0  12    9.48    4.27
   8   0  14   29.75    9.19
   8   0  16 2276.63  120.43
   8   0  18 1938.94   88.65
   8   0  20   17.20    6.73
   8   0  22  107.46   15.89
   8   0  24   17.83   12.19
   8   1 -25   -4.94    6.07
   8   1 -24   25.93    7.49
   8   1 -23    5.85    7.20
   8   1 -22    4.94    5.42
   8   1 -21   55.75    6.73
   8   1 -20   54.84   12.46
   8   1 -19   24.42    6.55
   8   1 -18  511.21   18.35
   8   1 -17   23.41    4.81
   8   1 -16  100.12    7.81
   8   1 -15  245.52   11.78
   8   1 -14  587.95   17.49
   8   1 -13    2.93    4.06
   8   1 -12   11.94    4.47
   8   1 -11   27.96    4.92
   8   1 -10  711.90   16.84
   8   1  -9   15.14    2.69
   8   1  -8  598.19   13.97
   8   1  -7   47.76    3.32
   8   1  -6 2089.93   63.20
   8   1  -5   80.44    5.94
   8   1  -4  531.12   15.23
   8   1  -3   46.52    3.07
   8   1  -2   73.33    3.86
   8   1  -1  168.48    5.46
   8   1   0  200.69    7.65
   8   1   1  274.09   10.45
   8   1   2    9.21    4.29
   8   1   3   33.63    4.54
   8   1   4  720.75   20.18
   8   1   5   30.40    3.81
   8   1   6  522.13   17.18
   8   1   7   -4.29   11.53
   8   1   8   54.42    9.30
   8   1   9   29.57    5.39
   8   1  10  103.44   10.09
   8   1  11   10.34    4.74
   8   1  12   -2.03    6.34
   8   1  13    2.93    4.54
   8   1  14  339.79   18.28
   8   1  15  111.86   10.81
   8   1  16   72.04   10.97
   8   1  17   20.99    9.10
   8   1  18   18.08    7.67
   8   1  19    4.29    5.67
   8   1  20   13.77   13.27
   8   1  21    5.42    7.90
   8   1  22   34.33    7.74
   8   1  23   36.11   11.74
   8   1  24   40.38   33.43
   8   2 -25    0.00    2.26
   8   2 -24  643.09  228.59
   8   2 -23    2.73    8.60
   8   2 -22  124.92    9.75
   8   2 -21   65.32    8.01
   8   2 -20  327.72   19.05
   8   2 -19   33.11    6.39
   8   2 -18   18.33   10.68
   8   2 -17  456.39   18.62
   8   2 -16  427.95   16.16
   8   2 -15   70.78    6.32
   8   2 -14   44.69    6.64
   8   2 -13   37.20    8.44
   8   2 -12   95.06    6.75
   8   2 -11  189.79   12.01
   8   2 -10   49.43    5.28
   8   2  -9    9.95    3.88
   8   2  -8   10.34    2.89
   8   2  -7   50.92    5.37
   8   2  -6  495.70   13.38
   8   2  -5  495.05   15.37
   8   2  -4  297.97   10.90
   8   2  -3   21.42    3.34
   8   2  -2    8.58    3.16
   8   2  -1   27.49    3.00
   8   2   0    3.14    2.46
   8   2   1    1.33    2.91
   8   2   2   18.08    2.69
   8   2   3   17.56    3.41
   8   2   4  306.86   10.52
   8   2   5  245.99    9.43
   8   2   6  867.05   30.97
   8   2   7   51.35    5.37
   8   2   8   91.30    4.60
   8   2   9  117.00    8.44
   8   2  10   -0.90    5.17
   8   2  11   26.41    6.95
   8   2  12   58.70    8.76
   8   2  13    9.21    5.37
   8   2  14   51.35    9.91
   8   2  15   32.41    7.18
   8   2  16  842.45   36.63
   8   2  17  124.92   17.47
   8   2  18  447.45   28.60
   8   2  19   15.37    7.43
   8   2  20   24.13    8.42
   8   2  21    1.78   10.13
   8   2  22   14.44    9.71
   8   2  23   32.77   15.64
   8   2  24   93.03   16.81
   8   3 -24   42.91   13.77
   8   3 -23   21.26   12.48
   8   3 -22   30.90    7.18
   8   3 -21   46.72    7.40
   8   3 -20   -1.78    4.94
   8   3 -18  130.70   17.85
   8   3 -17   23.25    8.40
   8   3 -16    8.15    6.34
   8   3 -15  195.64   12.19
   8   3 -14  185.66   12.28
   8   3 -13    6.07    7.92
   8   3 -12    7.90    4.06
   8   3 -11  145.17    7.61
   8   3 -10  616.70   18.67
   8   3  -9  178.78    6.84
   8   3  -8   88.72    5.10
   8   3  -7   30.40    3.63
   8   3  -6  112.17    5.73
   8   3  -5  163.07    6.14
   8   3  -4  419.91   14.15
   8   3  -3  706.30   20.76
   8   3  -2  408.90   14.58
   8   3  -1  309.48   11.10
   8   3   0 3797.71  111.09
   8   3   1   12.68    4.92
   8   3   2   52.23    4.33
   8   3   3  466.70   14.29
   8   3   4  203.69    6.86
   8   3   5    2.26    2.48
   8   3   6  153.61    8.94
   8   3   7   20.99    4.13
   8   3   8  104.97    6.77
   8   3   9    0.90    5.17
   8   3  10    6.75    6.57
   8   3  11   19.64    8.13
   8   3  12   -4.29   12.46
   8   3  13   18.71    9.23
   8   3  14   63.15    7.40
   8   3  15   25.48   21.85
   8   3  16  206.70   12.10
   8   3  17   86.49    9.77
   8   3  18  152.87   12.26
   8   3  19   25.03   13.97
   8   3  20   11.33    8.40
   8   3  21    6.30    7.24
   8   3  22   -1.60    8.37
   8   3  23   -3.59    7.00
   8   4 -23   10.83   20.56
   8   4 -22   98.31   12.82
   8   4 -21   20.58   13.36
   8   4 -20  141.58   13.23
   8   4 -19  193.11   11.69
   8   4 -18   22.12    7.06
   8   4 -17   28.44    7.20
   8   4 -16   82.88   12.30
   8   4 -15   77.78    6.88
   8   4 -14  342.57   15.01
   8   4 -13    1.33    7.85
   8   4 -12   -1.78    8.31
   8   4 -11   53.08    5.46
   8   4 -10    4.94    2.48
   8   4  -9   19.64    3.86
   8   4  -8   30.74    4.49
   8   4  -7  185.66    9.82
   8   4  -6   19.91    2.69
   8   4  -5  186.09    9.84
   8   4  -4  126.96    5.08
   8   4  -3   43.70    2.98
   8   4  -2   42.52    8.82
   8   4  -1  138.74   11.67
   8   4   0  226.15   11.76
   8   4   1  263.75   15.12
   8   4   2    5.85    3.11
   8   4   3   28.44    3.84
   8   4   4  151.40    5.91
   8   4   5  144.81    6.14
   8   4   6   73.33    5.67
   8   4   7   13.77    9.03
   8   4   8   12.14   11.74
   8   4   9   45.09    7.67
   8   4  10    8.76    5.60
   8   4  11   64.37   13.02
   8   4  12    6.07    7.18
   8   4  13    9.21    6.12
   8   4  14   61.98    9.71
   8   4  15   15.37   16.72
   8   4  16   15.62    5.46
   8   4  17   -4.29    5.67
   8   4  18    9.21    6.75
   8   4  19   23.70   14.20
   8   4  20  116.69   17.85
   8   4  21   39.99   17.11
   8   4  22    4.49   13.95
   8   5 -21   18.46   10.20
   8   5 -20   32.93    7.24
   8   5 -19    1.13    7.47
   8   5 -18   71.03    8.60
   8   5 -17   98.31   10.13
   8   5 -16    8.33    5.64
   8   5 -15   32.77    9.64
   8   5 -14   30.74    5.67
   8   5 -13   20.58    3.81
   8   5 -12   21.83   14.04
   8   5 -11   78.57    5.87
   8   5 -10   67.28    6.16
   8   5  -9   15.37    4.24
   8   5  -8    5.85    3.11
   8   5  -7   15.98    4.56
   8   5  -6   27.81    2.21
   8   5   0  523.51   20.63
   8   5   1  520.08   18.51
   8   5   2   45.30    4.45
   8   5   3    2.73    4.76
   8   5   4    2.03    3.86
   8   5   5  354.35   19.23
   8   5   6  119.28    6.88
   8   5   7   82.88    5.76
   8   5   8  141.92   10.74
   8   5   9    7.90    4.99
   8   5  10   13.11    5.67
   8   5  11    2.93    4.94
   8   5  12   -1.33   13.70
   8   5  13   20.72    6.97
   8   5  14   54.64   16.88
   8   5  15   46.92    9.89
   8   5  16   42.70    9.03
   8   5  17   67.53   13.59
   8   5  18  220.76   22.32
   8   5  19   54.42    9.30
   8   5  20   19.91   21.85
   8   6   3   98.31    6.86
   8   6   4   15.98    3.36
   8   6   5   78.57    7.72
   8   6   6   85.92   10.02
   8   6   7    2.26    4.74
   8   6   8   11.01    4.99
   8   6   9   14.67    9.91
   8   6  10   16.95    5.69
   8   6  11   24.42    8.62
   8   6  12   78.57    9.86
   8   6  13   25.32   13.32
   8   6  14   92.15   11.53
   8   6  15   14.22    8.85
   8   6  16   22.55   11.69
   8   6  17   20.04    8.08
   8   6  18   25.03    8.87
   8   7  10   47.35    9.50
   8   7  11   -2.48    7.45
   8   7  12   13.99    8.53
   8   7  13    8.76    7.47
   8   7  14   28.44   12.19
   9  -8  -9   73.08   12.59
   9  -8  -8   27.96   13.02
   9  -8  -7   24.42   12.91
   9  -8  -6    7.00   11.04
   9  -7 -14   21.42   15.98
   9  -7 -13   -0.68    5.67
   9  -7 -12   18.08    7.02
   9  -7 -11    3.59    4.49
   9  -7 -10   -8.58    8.10
   9  -7  -9   76.44   13.41
   9  -7  -8    5.64    7.92
   9  -7  -7   36.83   17.88
   9  -7  -6   64.37   76.17
   9  -7  -5   14.67    7.94
   9  -7  -4   23.70   14.04
   9  -7  -3   -8.33   11.96
   9  -7  -2   13.77    7.24
   9  -7  -1   14.90    9.98
   9  -6 -18  175.19   18.69
   9  -6 -17   11.94    9.23
   9  -6 -16   21.69   12.59
   9  -6 -15   37.94   16.30
   9  -6 -14   11.53   13.36
   9  -6 -13    4.74    6.34
   9  -6 -12    1.33    7.40
   9  -6 -11   73.08    9.50
   9  -6 -10   69.52    8.76
   9  -6  -9   39.81    6.64
   9  -6  -8   71.03    7.09
   9  -6  -7   60.56    6.32
   9  -6  -6   14.44    4.81
   9  -6  -5   28.44    3.99
   9  -6  -4   35.39    6.61
   9  -6  -3    4.49    3.36
   9  -6  -2   82.06    6.52
   9  -6  -1  477.81   16.43
   9  -6   0   12.14    3.88
   9  -6   1   44.89   12.48
   9  -6   2   84.25    7.72
   9  -5 -20   81.79   11.15
   9  -5 -19    0.45    6.36
   9  -5 -18    2.73    5.21
   9  -5 -17   29.41    7.00
   9  -5 -16   -6.07    7.18
   9  -5 -15   12.46    6.36
   9  -5 -14   53.08    5.91
   9  -5 -13    8.76    4.72
   9  -5 -12   27.96    6.36
   9  -5 -11   64.60    7.49
   9  -5 -10   58.00    7.31
   9  -5  -9  177.58   11.22
   9  -5  -8    6.07    6.07
   9  -5  -7    3.36    4.74
   9  -5  -6   -3.59    4.94
   9  -5  -5   20.99    3.86
   9  -5  -4   76.44    5.51
   9  -5  -3   29.41    5.37
   9  -5  -2  211.05    8.28
   9  -5  -1  567.00   15.73
   9  -5   0  272.60    9.43
   9  -5   1   29.75    3.61
   9  -5   2   47.13    4.33
   9  -5   3   64.12    4.58
   9  -5   4   43.49    8.33
   9  -5   5   35.93    8.82
   9  -5   6   82.61    8.73
   9  -5   7   15.14   10.40
   9  -5   8   16.95    7.92
   9  -5   9   64.12    6.25
   9  -5  10   -0.68    6.36
   9  -5  11   32.41    6.84
   9  -5  12   29.57    6.36
   9  -4 -22   -4.06    9.50
   9  -4 -21  -14.44   10.38
   9  -4 -20    8.33    9.71
   9  -4 -19   43.49   10.90
   9  -4 -18   35.03   11.38
   9  -4 -17    6.75    8.82
   9  -4 -16   32.41    7.88
   9  -4 -15   15.98    5.64
   9  -4 -14   22.39    9.95
   9  -4 -13  185.25   10.63
   9  -4 -12  148.44    9.14
   9  -4 -11  231.61   11.89
   9  -4 -10   34.33    4.92
   9  -4  -9   58.48    5.06
   9  -4  -8  116.03    7.76
   9  -4  -7   89.58    7.11
   9  -4  -6   14.67    4.94
   9  -4  -5  169.66    7.83
   9  -4  -4  101.32    5.76
   9  -4  -3   12.89    3.68
   9  -4  -2  117.00    6.50
   9  -4  -1  441.11   13.25
   9  -4   0  112.49    5.10
   9  -4   1  228.41    8.62
   9  -4   2  251.68   10.50
   9  -4   3  362.88   14.31
   9  -4   4  136.25    9.82
   9  -4   5   70.53    8.33
   9  -4   6    2.26    5.87
   9  -4   7   34.15   11.76
   9  -4   8    7.47   15.87
   9  -4   9   11.74    9.68
   9  -4  10   15.14    7.02
   9  -4  11    7.90   12.66
   9  -4  12   24.42    9.50
   9  -4  13  -10.34    6.09
   9  -4  14    8.58    6.52
   9  -4  15  151.02   17.00
   9  -4  16   37.94    8.33
   9  -4  17    8.15    7.47
   9  -4  18   14.22    7.02
   9  -3 -24   90.14   17.11
   9  -3 -23    8.15    9.95
   9  -3 -22   -0.23    9.37
   9  -3 -21    4.06   10.83
   9  -3 -20  104.97   11.40
   9  -3 -19   10.63    8.33
   9  -3 -18   -5.21    7.47
   9  -3 -17   60.80    7.27
   9  -3 -16   93.30    7.54
   9  -3 -15   72.56    8.19
   9  -3 -14   53.08    7.88
   9  -3 -13   13.11    4.02
   9  -3 -12    3.59    6.32
   9  -3 -11  104.05    6.75
   9  -3 -10    7.47    4.27
   9  -3  -9  215.00   11.89
   9  -3  -8   28.93    6.79
   9  -3  -7    7.90    3.63
   9  -3  -6   27.33    4.56
   9  -3  -5   74.37    4.92
   9  -3  -4   69.52    4.51
   9  -3  -3    6.30    3.16
   9  -3  -2  387.32   11.24
   9  -3  -1 1627.11   42.43
   9  -3   0 1631.96   50.99
   9  -3   1  341.46   13.88
   9  -3   2   22.98   11.67
   9  -3   3  104.36   15.03
   9  -3   4   14.44    9.71
   9  -3   5  139.44   10.99
   9  -3   6    4.49    5.85
   9  -3   7   37.76   10.34
   9  -3   8  135.56   11.19
   9  -3   9    7.47    4.27
   9  -3  10   13.54    8.85
   9  -3  11  235.27   14.74
   9  -3  12    8.15    5.24
   9  -3  13   -4.74    4.97
   9  -3  14   16.45    9.03
   9  -3  15  227.96   19.95
   9  -3  16    5.64    5.85
   9  -3  17    0.00    2.26
   9  -3  18   46.92   14.20
   9  -3  19   64.12   13.72
   9  -3  20  -10.13   10.63
   9  -3  21   26.86   15.10
   9  -3  22    3.81    8.58
   9  -2 -24    1.13    7.24
   9  -2 -23   60.33    7.70
   9  -2 -22   79.36    9.91
   9  -2 -21   11.53    8.17
   9  -2 -20   47.76    7.90
   9  -2 -19  125.94    8.42
   9  -2 -18   39.99    8.35
   9  -2 -17   77.78    9.55
   9  -2 -16  311.60   13.27
   9  -2 -15   -2.93    5.39
   9  -2 -14  425.47   14.26
   9  -2 -13   42.70    5.89
   9  -2 -12  240.37   10.25
   9  -2 -11  106.21    7.13
   9  -2 -10   -3.81    5.17
   9  -2  -9   11.74    4.02
   9  -2  -8   60.80    4.45
   9  -2  -7  128.99    6.14
   9  -2  -6   16.21    4.11
   9  -2  -5  172.01    6.70
   9  -2  -4  428.58   13.07
   9  -2  -3  167.31    7.38
   9  -2  -2  421.15   12.32
   9  -2  -1 1133.48   29.34
   9  -2   0  769.95   30.85
   9  -2   1   39.99    7.99
   9  -2   2  169.66    9.39
   9  -2   3   14.67    4.72
   9  -2   4   25.77    9.30
   9  -2   5    8.58    8.37
   9  -2   6   12.14    4.51
   9  -2   7   26.41    5.26
   9  -2   8   -3.36    4.51
   9  -2   9    0.00    2.26
   9  -2  10  208.00   23.41
   9  -2  11   16.95   13.97
   9  -2  12    3.14    7.88
   9  -2  13  171.62   12.59
   9  -2  14   47.35    7.65
   9  -2  15  564.86   42.84
   9  -2  16  412.56   27.47
   9  -2  17   26.41   10.81
   9  -2  18  134.16   14.26
   9  -2  19   76.99   16.07
   9  -2  20   14.90   14.26
   9  -2  21   56.42   15.57
   9  -2  22    1.33   13.45
   9  -2  23   78.30   11.69
   9  -1 -25    9.03    8.40
   9  -1 -24   37.20   10.45
   9  -1 -23   21.42   16.27
   9  -1 -22   12.68   13.36
   9  -1 -21    9.66    9.43
   9  -1 -20    8.58    7.92
   9  -1 -19   92.45   11.56
   9  -1 -18   55.30    8.26
   9  -1 -17   53.31    7.02
   9  -1 -16   50.29    7.67
   9  -1 -15    6.52    5.21
   9  -1 -14   17.20   11.08
   9  -1 -13  191.03    8.71
   9  -1 -12   -6.30    4.29
   9  -1 -11  222.99    8.98
   9  -1 -10  146.98   11.65
   9  -1  -9  363.47   13.18
   9  -1  -8   15.98    3.36
   9  -1  -7    5.21    3.16
   9  -1  -6   83.98    5.51
   9  -1  -5  401.05   12.64
   9  -1  -4   62.45    4.74
   9  -1  -3  580.68   20.99
   9  -1  -2   56.42    7.90
   9  -1  -1   65.09    8.49
   9  -1   0   11.74    5.67
   9  -1   1  166.93   12.03
   9  -1   2   79.11    8.28
   9  -1   3 1145.65   40.67
   9  -1   4  190.20    9.52
   9  -1   5  141.58    8.22
   9  -1   6   44.49   11.01
   9  -1   7    9.48    4.27
   9  -1   8   54.84   10.25
   9  -1   9   11.74    8.33
   9  -1  10    9.66    6.55
   9  -1  11   22.39   11.94
   9  -1  12   13.54    9.30
   9  -1  13  162.68   13.41
   9  -1  14   32.41    7.70
   9  -1  15 1019.17   55.63
   9  -1  16  -12.46    5.85
   9  -1  17  116.69   11.35
   9  -1  18   -0.68   14.94
   9  -1  19   20.31    8.53
   9  -1  20    0.00    2.26
   9  -1  21   21.83    9.98
   9  -1  22    0.45    9.07
   9  -1  23    9.95   17.15
   9  -1  24   33.45   19.82
   9   0 -25  115.06   16.11
   9   0 -23   18.98    6.16
   9   0 -21   24.13    7.38
   9   0 -19  762.46   34.01
   9   0 -17  287.18   13.75
   9   0 -15  144.09    7.22
   9   0 -13  106.82    6.21
   9   0 -11  394.45   14.33
   9   0  -9  392.67   13.09
   9   0  -7   15.37    4.13
   9   0  -5  159.64    6.46
   9   0  -3  152.51    6.30
   9   0  -1  102.83    5.48
   9   0   1    9.48    3.61
   9   0   3    1.33    5.60
   9   0   5  915.48   43.63
   9   0   7   11.33    4.97
   9   0   9   26.70   11.96
   9   0  11   20.58    7.22
   9   0  13   67.03    9.59
   9   0  15   94.77    8.49
   9   0  17    6.30    8.37
   9   0  19  186.50   14.35
   9   0  21  197.31   21.94
   9   0  23   23.70   16.52
   9   1 -25   39.99   13.29
   9   1 -24   18.08    7.29
   9   1 -23    0.45    7.94
   9   1 -22    6.30    6.57
   9   1 -21   12.14   10.99
   9   1 -20    7.00    5.64
   9   1 -19   83.44    6.86
   9   1 -18   51.35    6.03
   9   1 -17   69.02    7.74
   9   1 -16   61.50    7.54
   9   1 -15   10.34    6.09
   9   1 -14   14.90    5.69
   9   1 -13  208.43   10.40
   9   1 -12    5.21    4.33
   9   1 -11  212.79    9.64
   9   1 -10  141.22    7.49
   9   1  -9  372.67   11.01
   9   1  -8    7.65    3.57
   9   1  -7   12.46    4.99
   9   1  -6   83.15    4.38
   9   1  -5  380.26   11.13
   9   1  -4   61.98    4.97
   9   1  -3  633.22   18.15
   9   1  -2   59.86    3.72
   9   1  -1   55.52    3.59
   9   1   0    4.29    2.48
   9   1   1  158.49    7.56
   9   1   2   74.10    4.13
   9   1   3 1222.14   32.57
   9   1   4  191.87    7.06
   9   1   5  140.50    7.83
   9   1   6   58.25    6.66
   9   1   7    0.23    6.41
   9   1   8   36.83    8.58
   9   1   9    3.14    6.07
   9   1  10   11.53    5.21
   9   1  11   20.04    7.00
   9   1  12   15.84    9.10
   9   1  13  183.22   10.18
   9   1  15 1022.06   41.30
   9   1  16   41.73   30.67
   9   1  17  123.59   11.01
   9   1  18   20.58    7.49
   9   1  19   23.99   13.38
   9   1  20  231.61  157.76
   9   1  21   42.52   17.24
   9   1  22    0.00    2.26
   9   1  23   59.40   15.98
   9   1  24    7.22   17.13
   9   2 -24    7.00    7.85
   9   2 -23   82.34   24.80
   9   2 -22   60.33   10.50
   9   2 -21   -3.14    9.71
   9   2 -20   46.31    4.90
   9   2 -19  128.99    7.52
   9   2 -18   35.21    5.89
   9   2 -17   97.41   11.56
   9   2 -16  302.12   17.76
   9   2 -15   17.83    7.49
   9   2 -14  399.85   16.81
   9   2 -13   31.73    5.42
   9   2 -12  224.35   12.59
   9   2 -11  101.93    6.68
   9   2 -10    1.13    2.51
   9   2  -9    4.49    3.81
   9   2  -8   65.57    4.63
   9   2  -7  114.09    4.81
   9   2  -6   29.41    4.56
   9   2  -5  186.09    8.19
   9   2  -4  443.63   13.29
   9   2  -3  167.31    6.61
   9   2  -2  424.86   14.24
   9   2  -1 1126.42   33.27
   9   2   0  807.08   26.45
   9   2   1   25.03    3.45
   9   2   2  174.78    7.15
   9   2   3   23.25    3.63
   9   2   4   30.74    4.49
   9   2   5   12.14    3.88
   9   2   6   -1.33    3.59
   9   2   7   19.64    3.34
   9   2   8   -0.90    6.05
   9   2   9    5.85    7.63
   9   2  10  173.99   12.68
   9   2  11   32.41    5.82
   9   2  12    0.00    2.26
   9   2  13  160.38   11.04
   9   2  14   72.56   15.35
   9   2  15  547.86   27.42
   9   2  16  382.61   25.28
   9   2  17   10.83    9.89
   9   2  18  190.20   14.51
   9   2  19  113.46   20.15
   9   2  20   27.49   11.35
   9   2  21   44.10    9.19
   9   2  22   14.67    9.21
   9   2  23  145.89   19.95
   9   3 -24   34.69    9.03
   9   3 -23    6.52   10.13
   9   3 -22   13.54    9.07
   9   3 -21   24.58    9.52
   9   3 -20   54.64    7.11
   9   3 -19   -1.33    8.06
   9   3 -18    2.48    6.77
   9   3 -17   73.33    7.20
   9   3 -16   89.87    9.39
   9   3 -15   88.16   25.39
   9   3 -14   32.07    8.85
   9   3 -13   27.02    8.28
   9   3 -12    0.90    4.04
   9   3 -11  108.70    9.39
   9   3 -10   15.84    4.31
   9   3  -9  213.24    8.78
   9   3  -8   32.25    4.45
   9   3  -7    3.59    2.66
   9   3  -6   26.41    3.39
   9   3  -5   76.44    3.95
   9   3  -4   73.85    4.13
   9   3  -3    4.49    3.81
   9   3  -2  401.05   15.03
   9   3  -1 1631.96   44.91
   9   3   0 1630.75   44.89
   9   3   1  360.60   11.42
   9   3   2    7.47    3.61
   9   3   3   81.52    5.69
   9   3   4   18.71    3.11
   9   3   5  159.64    5.30
   9   3   6   17.31    6.75
   9   3   7   30.90    9.86
   9   3   8  139.08    6.73
   9   3   9    9.21    6.75
   9   3  10   11.53    7.45
   9   3  11  235.27   14.29
   9   3  12   17.56   10.20
   9   3  13   -3.36    8.53
   9   3  14   11.74    5.67
   9   3  15  249.31   15.66
   9   3  16    4.94    7.43
   9   3  17    1.78    6.30
   9   3  18   50.71   19.25
   9   3  19   50.29   15.35
   9   3  20    8.15   10.81
   9   3  21   39.99   27.74
   9   3  22    5.21    9.75
   9   4 -22   10.13   10.34
   9   4 -21   12.68    7.49
   9   4 -20   13.77    9.71
   9   4 -19   74.37   12.96
   9   4 -18   32.93   16.21
   9   4 -17    1.13    5.01
   9   4 -16   39.81    9.48
   9   4 -15   18.46    9.03
   9   4 -14   18.46    5.69
   9   4 -13  185.25    9.01
   9   4 -12  139.80   14.56
   9   4 -11  219.42   12.46
   9   4 -10   32.25    5.46
   9   4  -9   54.64    4.88
   9   4  -8  111.54    7.29
   9   4  -7   98.02    5.96
   9   4  -6    5.42    2.03
   9   4  -5  179.59    8.85
   9   4  -4   93.03    5.21
   9   4  -3   14.90    3.14
   9   4  -2   98.31    6.25
   9   4  -1  408.29   21.24
   9   4   0  118.63    7.54
   9   4   1  234.82    8.28
   9   4   2  240.37    9.32
   9   4   3  361.75   12.01
   9   4   4  116.35    5.19
   9   4   5   79.11    4.54
   9   4   6    8.76    6.32
   9   4   7   33.81    7.00
   9   4   8    4.06    5.19
   9   4   9   16.45    9.03
   9   4  10   13.99    7.65
   9   4  11    9.03    6.95
   9   4  12    6.07    4.51
   9   4  13   -5.21    7.67
   9   4  14   24.87    6.75
   9   4  15  146.25   12.73
   9   4  16   31.39    8.08
   9   4  17    7.00   10.40
   9   4  18    9.03   10.11
   9   4  19   49.86   25.46
   9   4  20 1354.76  307.45
   9   4  21   26.70   13.52
   9   5 -20   54.84   10.02
   9   5 -19   -1.13    4.74
   9   5 -18   11.33    8.08
   9   5 -17   44.28    5.80
   9   5 -16    3.81    5.64
   9   5 -15   34.15    9.30
   9   5 -14   71.28    7.11
   9   5 -13   22.12   13.70
   9   5 -12   17.56    3.77
   9   5 -11   55.75    5.82
   9   5 -10   61.50    8.01
   9   5  -9  175.19    8.76
   9   5  -8    4.29    3.36
   9   5  -7    6.52    3.61
   9   5  -6   -0.45    3.18
   9   5  -5   20.31    2.98
   9   5  -4   79.11    4.81
   9   5  -3   28.28    3.20
   9   5  -2  216.31   11.94
   9   5  -1  577.79   26.00
   9   5   0  275.58   12.98
   9   5   1   26.25    3.39
   9   5   2   52.88   10.70
   9   5   3   56.20    8.33
   9   5   4   42.91    4.72
   9   5   5   50.71    8.98
   9   5   6   79.36    5.89
   9   5   7   20.99    9.91
   9   5   8    4.94    4.47
   9   5   9   95.65   17.04
   9   5  10   41.73   33.76
   9   5  11   16.95    8.17
   9   5  12   33.11   10.38
   9   5  13   17.56    4.92
   9   5  14   58.48    9.41
   9   5  15   19.91    9.25
   9   5  16   40.20   20.00
   9   5  17   14.44    7.20
   9   5  18    1.13    7.24
   9   5  19   66.54   15.69
   9   6   4  297.97   17.63
   9   6   5   94.18    6.41
   9   6   6   -1.33    3.36
   9   6   7  110.91   11.08
   9   6   8    7.65    7.22
   9   6   9   15.98   11.04
   9   6  10   11.01    5.19
   9   6  11    4.29    7.92
   9   6  12   39.81    9.66
   9   6  13    9.21    6.57
   9   6  14  121.61   15.23
   9   6  15    8.15   14.92
   9   6  16   11.94    9.98
   9   6  17    8.33    7.02
   9   7  11   30.06   11.69
   9   7  12    9.95    7.20
   9   7  13    7.90    8.10
  10  -8  -7   30.90   15.19
  10  -8  -6   22.82    8.76
  10  -7 -13   13.32   16.45
  10  -7 -12   11.74    6.79
  10  -7 -11   54.64   14.22
  10  -7 -10   22.12   14.83
  10  -7  -9   66.54   12.75
  10  -7  -8   88.72   12.17
  10  -7  -7   32.25   14.85
  10  -7  -6   20.72    8.62
  10  -7  -5    5.42    8.33
  10  -7  -4   14.44   13.36
  10  -7  -3   31.58    9.61
  10  -7  -2   64.12   18.76
  10  -6 -17    8.15    7.04
  10  -6 -16    1.33    7.20
  10  -6 -15   18.08    6.25
  10  -6 -14   36.47   12.71
  10  -6 -13   28.93   10.18
  10  -6 -12    3.14   11.04
  10  -6 -11   -0.45    4.09
  10  -6 -10   17.56    5.67
  10  -6  -9   41.53    7.94
  10  -6  -8    3.36    5.17
  10  -6  -7    5.42    6.30
  10  -6  -6    7.00    6.52
  10  -6  -5    0.23    6.84
  10  -6  -4   18.71    5.60
  10  -6  -3    2.03    4.06
  10  -6  -2  -10.34    4.54
  10  -6  -1    4.49    3.36
  10  -6   0   32.25    5.12
  10  -6   1  257.43   13.50
  10  -6   2   81.79    8.15
  10  -5 -20    6.75    7.88
  10  -5 -19    8.58    7.04
  10  -5 -18    6.75    7.88
  10  -5 -17    6.30    5.64
  10  -5 -16   18.33    6.30
  10  -5 -15    4.94    5.87
  10  -5 -14    5.21    8.17
  10  -5 -13  102.54    9.43
  10  -5 -12  109.64    8.80
  10  -5 -11    2.73    4.76
  10  -5 -10   14.90    7.20
  10  -5  -9    0.23    4.33
  10  -5  -8   31.39    6.73
  10  -5  -7    9.95    4.27
  10  -5  -6    6.52    3.61
  10  -5  -5   25.48    4.69
  10  -5  -4    2.48    4.97
  10  -5  -3    6.75    3.84
  10  -5  -2  153.25    8.19
  10  -5  -1   20.99    3.59
  10  -5   0  291.27   10.77
  10  -5   1  295.89   10.34
  10  -5   2  361.16   11.98
  10  -5   3   51.14    8.17
  10  -5   4  179.97   12.50
  10  -5   5    7.47    5.67
  10  -5   6   38.87   10.86
  10  -5   7   22.82    7.61
  10  -5   8   99.22   10.77
  10  -5   9    7.22    7.02
  10  -5  10   37.20    9.16
  10  -5  11   86.76   11.47
  10  -5  12   24.42    9.50
  10  -4 -22   -4.49    6.75
  10  -4 -21   72.31   12.53
  10  -4 -20   -3.59    9.89
  10  -4 -19   12.14    5.67
  10  -4 -18    6.07    6.95
  10  -4 -17   10.63    7.45
  10  -4 -16  -12.89    8.10
  10  -4 -15    4.94    5.87
  10  -4 -14  120.28   12.53
  10  -4 -13   90.44   10.56
  10  -4 -12   -1.78    5.39
  10  -4 -11   11.53    4.49
  10  -4 -10  609.25   28.19
  10  -4  -9   85.65    6.68
  10  -4  -8    6.30    6.57
  10  -4  -7    6.07    4.74
  10  -4  -6   28.60    4.49
  10  -4  -5   72.81    5.12
  10  -4  -4    6.52    3.84
  10  -4  -3   -0.23    3.18
  10  -4  -2   46.92    5.15
  10  -4  -1  322.30   15.10
  10  -4   0  293.84   10.81
  10  -4   1  193.11    7.52
  10  -4   2   62.92    4.06
  10  -4   3  174.38   13.50
  10  -4   4   70.53    7.31
  10  -4   5   19.91   12.46
  10  -4   6   18.33   11.06
  10  -4   7   83.15   10.13
  10  -4   8   24.87    5.69
  10  -4   9   83.15   14.24
  10  -4  10   22.98   15.12
  10  -4  11   97.41   10.97
  10  -4  12   19.91    6.84
  10  -4  13  180.79   16.97
  10  -4  14   22.12    9.75
  10  -4  15   18.46    9.30
  10  -4  16   37.76    8.87
  10  -4  17    2.03   10.63
  10  -4  18   -7.47    8.13
  10  -3 -23   37.20   11.56
  10  -3 -22   91.00   13.18
  10  -3 -21   40.58   11.28
  10  -3 -20   19.91   11.80
  10  -3 -19    3.14    8.58
  10  -3 -18   12.14    7.65
  10  -3 -17    2.03    8.37
  10  -3 -16   43.70    7.94
  10  -3 -15   23.25    7.24
  10  -3 -14   22.82    6.03
  10  -3 -13   83.15    6.57
  10  -3 -12   13.11    5.87
  10  -3 -11   81.25    8.13
  10  -3 -10   25.48    7.88
  10  -3  -9   11.94    3.84
  10  -3  -8   96.83    9.16
  10  -3  -7   11.53    4.29
  10  -3  -6    7.65    4.31
  10  -3  -5   25.03    4.06
  10  -3  -4   97.73    6.23
  10  -3  -3  227.05    9.05
  10  -3  -2  419.30   15.39
  10  -3  -1    6.75    3.36
  10  -3   0  139.44    6.39
  10  -3   1  131.04    8.26
  10  -3   2   14.22    5.21
  10  -3   3   17.56    5.67
  10  -3   4  105.90    8.96
  10  -3   5    1.78    6.07
  10  -3   6   65.09    8.24
  10  -3   7   42.70    5.10
  10  -3   8  273.10   22.84
  10  -3   9   88.16   12.98
  10  -3  10   33.81    7.70
  10  -3  11   22.55    7.43
  10  -3  12   40.76    9.98
  10  -3  13    1.60    9.75
  10  -3  14   30.90    7.67
  10  -3  15   17.56    7.67
  10  -3  16   16.70   25.55
  10  -3  17   18.33   10.16
  10  -3  18   -7.00   10.81
  10  -3  19  117.00   18.19
  10  -3  20   -5.64    6.34
  10  -3  21   15.14   25.03
  10  -3  22   24.13   11.06
  10  -2 -24   63.15   13.36
  10  -2 -23   11.33    7.29
  10  -2 -22    2.93    6.07
  10  -2 -21    8.76    6.75
  10  -2 -20    0.45    7.04
  10  -2 -19   21.69    6.57
  10  -2 -18  112.49    9.57
  10  -2 -17   10.83    5.82
  10  -2 -16   30.24    6.12
  10  -2 -15    8.58    5.64
  10  -2 -14  251.20   11.92
  10  -2 -13    5.42    4.27
  10  -2 -12   94.77    7.02
  10  -2 -11   20.99    4.13
  10  -2 -10  342.57   15.57
  10  -2  -9    5.21    3.63
  10  -2  -8   32.07    4.24
  10  -2  -7   21.26    4.58
  10  -2  -6   53.31    5.91
  10  -2  -5  255.99    9.61
  10  -2  -4    1.60    3.41
  10  -2  -3    4.49    3.63
  10  -2  -2    4.74    3.86
  10  -2  -1  582.85   23.20
  10  -2   0   33.81    5.42
  10  -2   1    5.64    4.72
  10  -2   2  170.04    8.62
  10  -2   3   43.29    5.35
  10  -2   4   26.86    4.51
  10  -2   5   31.39    9.10
  10  -2   6   72.04    7.65
  10  -2   7   -5.85    6.32
  10  -2   8  142.28   10.74
  10  -2   9   88.72    8.22
  10  -2  10   14.67    5.64
  10  -2  11    8.33    7.20
  10  -2  12    6.30    6.79
  10  -2  13   11.53   10.61
  10  -2  14  141.58   15.01
  10  -2  15   58.48    7.58
  10  -2  16  179.97   44.35
  10  -2  17   14.67    7.02
  10  -2  18   37.94   10.92
  10  -2  19  586.48  328.17
  10  -2  20    2.03   10.16
  10  -2  21    2.73   14.31
  10  -2  22   16.95   11.76
  10  -2  23   22.82   11.78
  10  -1 -24   40.38    9.93
  10  -1 -23   11.74   11.53
  10  -1 -22   24.87    8.10
  10  -1 -21   65.09    9.21
  10  -1 -20   61.98    7.56
  10  -1 -19   18.46    5.42
  10  -1 -18    9.03    5.15
  10  -1 -17    2.48    6.30
  10  -1 -16  468.01   18.19
  10  -1 -15   25.03    6.61
  10  -1 -14   33.63    5.91
  10  -1 -13   46.52    9.43
  10  -1 -12   72.81    8.46
  10  -1 -11   13.54    6.30
  10  -1 -10  145.17    9.05
  10  -1  -9   40.58    9.95
  10  -1  -8  236.67    8.78
  10  -1  -7   57.33    5.01
  10  -1  -6   83.15    4.38
  10  -1  -5  113.46    5.76
  10  -1  -4  592.33   21.94
  10  -1  -3  195.21   11.33
  10  -1  -2 1848.70   63.31
  10  -1  -1   38.87    4.49
  10  -1   0  262.29   18.48
  10  -1   1   22.12    6.36
  10  -1   2   87.03    6.46
  10  -1   3   31.39    5.73
  10  -1   4 1284.91   51.71
  10  -1   5  142.28   18.28
  10  -1   6  731.27   26.81
  10  -1   7    1.78    6.75
  10  -1   8   32.25    7.00
  10  -1   9   16.21    6.05
  10  -1  10   60.80   11.01
  10  -1  11   -9.03    5.42
  10  -1  12  406.48   32.12
  10  -1  13   98.31   12.50
  10  -1  14  369.79   21.96
  10  -1  15   48.59    9.21
  10  -1  16  345.37   29.59
  10  -1  17    8.15   11.76
  10  -1  18  106.21   11.15
  10  -1  19   47.76   27.40
  10  -1  20    8.58   11.26
  10  -1  21   12.46   10.18
  10  -1  22   32.41   10.61
  10  -1  23   19.25    9.89
  10   0 -24   46.92   13.18
  10   0 -22   37.38   11.58
  10   0 -20  251.20   14.29
  10   0 -18   -4.06    4.97
  10   0 -16  357.19   13.63
  10   0 -14   81.25    7.04
  10   0 -12  150.65    7.38
  10   0 -10  559.17   17.76
  10   0  -8   49.65    5.51
  10   0  -6  592.33   22.66
  10   0  -4   41.35    6.95
  10   0  -2  511.21   27.17
  10   0   0   38.30    5.57
  10   0   2  145.89    7.99
  10   0   4  487.06   19.88
  10   0   6  179.97   10.47
  10   0   8   17.56    7.43
  10   0  10   47.13    9.71
  10   0  12    3.36   14.38
  10   0  14  144.09   18.39
  10   0  16  649.97   36.00
  10   0  18   98.31   13.99
  10   0  20   43.11   47.15
  10   0  22   46.11    9.39
  10   1 -24   32.25    6.48
  10   1 -23   25.03    8.42
  10   1 -22   10.13    7.18
  10   1 -21   85.09    7.76
  10   1 -20   55.75   10.09
  10   1 -19   19.37    5.03
  10   1 -18   10.63   12.64
  10   1 -17   22.39    7.67
  10   1 -16  449.34   14.65
  10   1 -15   41.73    7.97
  10   1 -14   32.25    4.78
  10   1 -13   37.01    9.32
  10   1 -12   66.54    5.64
  10   1 -11   -0.68    4.06
  10   1 -10  139.44   10.99
  10   1  -9   23.25    5.21
  10   1  -8  211.05    9.16
  10   1  -7   49.02    5.06
  10   1  -6   71.03    4.81
  10   1  -5  101.93    5.76
  10   1  -4  621.94   16.48
  10   1  -3  206.70    9.07
  10   1  -2 1864.25   53.20
  10   1  -1   44.89    4.02
  10   1   0  237.12    8.33
  10   1   1   18.08    5.24
  10   1   2   92.15    4.90
  10   1   3   53.31    5.91
  10   1   4 1305.45   46.67
  10   1   5  122.92    8.67
  10   1   6  688.04   28.37
  10   1   7    6.75    6.09
  10   1   8   31.73    5.60
  10   1   9   14.90    5.69
  10   1  10   75.14    6.50
  10   1  11    2.73    5.67
  10   1  12  430.45   19.95
  10   1  13   90.44   17.15
  10   1  14  393.85   26.84
  10   1  15   43.49   11.49
  10   1  16  365.75   20.11
  10   1  17   14.90    7.90
  10   1  18  103.14   13.43
  10   1  19   52.00   20.15
  10   1  20   11.33    7.49
  10   1  21   -3.81    6.97
  10   1  22   49.86   10.61
  10   1  23   28.28   13.59
  10   2 -24   36.29   14.67
  10   2 -23   20.72    8.76
  10   2 -22   25.32    9.98
  10   2 -21    9.95    6.55
  10   2 -20    7.00    5.39
  10   2 -19    4.74    4.06
  10   2 -18  102.83   10.07
  10   2 -17   -4.49    8.08
  10   2 -16   35.03    8.89
  10   2 -15    0.45    8.85
  10   2 -14  255.04   12.48
  10   2 -13   14.90    7.20
  10   2 -12   82.06    8.44
  10   2 -11   21.69    5.03
  10   2 -10  345.37   11.74
  10   2  -9    6.75    8.82
  10   2  -8   38.12    4.27
  10   2  -7   20.04    4.31
  10   2  -6   69.52    4.27
  10   2  -5  250.73    8.55
  10   2  -4   -0.23    3.88
  10   2  -3    2.03    3.86
  10   2  -2    4.49    4.06
  10   2  -1  601.13   18.42
  10   2   0   52.66    5.67
  10   2   1    9.95    3.61
  10   2   2  166.16    6.97
  10   2   3   53.31    4.60
  10   2   4   28.28    4.78
  10   2   5   21.42    3.20
  10   2   6   87.89    7.31
  10   2   7    4.74    4.97
  10   2   8  150.65   10.34
  10   2   9   87.03    7.56
  10   2  10   17.31    9.50
  10   2  11    1.60   12.71
  10   2  12   13.77    9.03
  10   2  13   -1.13    5.01
  10   2  14  148.44   13.90
  10   2  15   67.28    7.88
  10   2  16  155.87   13.50
  10   2  17   36.29    7.97
  10   2  18   45.30    8.69
  10   2  19  -11.53    9.48
  10   2  20    9.66   11.04
  10   2  21   30.90   19.70
  10   2  22  267.66  145.51
  10   2  23   48.39   19.23
  10   3 -23   84.52   44.49
  10   3 -22  121.27   33.74
  10   3 -21   49.02   12.21
  10   3 -20    8.58    8.10
  10   3 -19  -11.33    7.49
  10   3 -18   19.64   26.90
  10   3 -17   16.45    7.67
  10   3 -16   63.87   14.90
  10   3 -15   17.20    7.22
  10   3 -14   13.99    4.72
  10   3 -13   90.44    9.14
  10   3 -12   13.32   14.49
  10   3 -11   70.01    7.29
  10   3 -10   14.22    7.02
  10   3  -9   20.99    5.37
  10   3  -8   94.48    6.73
  10   3  -7   11.33    2.23
  10   3  -6    3.14    5.37
  10   3  -5   36.29    4.33
  10   3  -4  106.21    6.18
  10   3  -3  227.96    8.62
  10   3  -2  422.37   16.68
  10   3  -1   16.45    2.69
  10   3   0  137.68    6.70
  10   3   1  129.69    6.84
  10   3   2   10.13    3.63
  10   3   3   21.26    4.99
  10   3   4   86.76    5.60
  10   3   5   11.74    3.81
  10   3   6   66.06    5.62
  10   3   7   61.73    5.19
  10   3   8  294.85   14.44
  10   3   9   83.71    7.43
  10   3  10   35.03    5.17
  10   3  11   14.44    5.60
  10   3  12   41.14    6.36
  10   3  13    3.81    7.45
  10   3  14   47.55    7.24
  10   3  15   13.99    8.53
  10   3  16   11.01    6.79
  10   3  17   14.90   10.20
  10   3  18    9.95   11.28
  10   3  19   40.58    8.80
  10   3  20   16.45    7.20
  10   3  21  -12.68    6.09
  10   3  22    2.93    7.47
  10   4 -22    4.06   14.47
  10   4 -21   80.98   14.06
  10   4 -20    1.60    6.34
  10   4 -19    8.33    7.88
  10   4 -18    7.90    9.28
  10   4 -17   29.41   12.71
  10   4 -16   -1.13    6.34
  10   4 -15   10.63    6.36
  10   4 -14  117.66   11.08
  10   4 -13   87.89    8.44
  10   4 -11   41.14    7.90
  10   4 -10  582.12   30.45
  10   4  -9   85.92    6.12
  10   4  -8    4.74    3.61
  10   4  -7   -1.60    3.18
  10   4  -6   37.01    4.76
  10   4  -5   62.68    7.38
  10   4  -4   10.13    2.69
  10   4  -3    6.30    2.03
  10   4  -2   52.00    3.90
  10   4  -1  296.93   10.36
  10   4   0  315.87   13.88
  10   4   1  193.94    7.11
  10   4   2   66.31    3.68
  10   4   3  144.81    9.41
  10   4   4   71.79    6.61
  10   4   5    2.48    3.61
  10   4   6    8.33    5.37
  10   4   7   89.02    6.79
  10   4   8   39.25   24.29
  10   4   9   89.87    6.55
  10   4  10   18.33   29.21
  10   4  11  111.86    9.84
  10   4  12   20.99    8.40
  10   4  13  186.09   14.35
  10   4  14    5.42    7.20
  10   4  15   14.22   12.01
  10   4  16   15.14    9.48
  10   4  17   11.01   11.67
  10   4  18    4.49   14.38
  10   4  19    0.90   13.25
  10   4  20    4.49    8.98
  10   5 -20   13.11   10.65
  10   5 -19    8.15   11.76
  10   5 -18    2.73    6.79
  10   5 -17    0.23    6.41
  10   5 -16   27.81   11.08
  10   5 -15    9.03    6.77
  10   5 -14   13.77    6.14
  10   5 -13  124.27    8.37
  10   5 -12  122.60    7.99
  10   5 -11    2.48    4.09
  10   5 -10    3.14    5.64
  10   5  -9    0.00    2.26
  10   5  -8   40.38    4.97
  10   5  -7    6.52    3.61
  10   5  -6   14.22    3.18
  10   5  -5   19.64    4.27
  10   5  -4    1.60    3.63
  10   5  -3   11.01    3.59
  10   5  -2  153.61    9.30
  10   5  -1   21.26    3.32
  10   5   0  270.61   16.81
  10   5   1  274.09   14.92
  10   5   2  350.40   18.55
  10   5   3   51.78    4.97
  10   5   4  183.63   15.89
  10   5   5    5.64    4.99
  10   5   6   45.50    6.88
  10   5   7   22.82    7.47
  10   5   8  101.02    9.05
  10   5   9   19.64    9.32
  10   5  10   27.96   11.13
  10   5  11  105.60   10.50
  10   5  12   55.52   35.14
  10   5  13    1.60    5.42
  10   5  14   19.37    9.66
  10   5  15    2.26    6.55
  10   5  16   61.73   10.38
  10   5  17   -3.36   16.41
  10   5  18    7.22    6.79
  10   6   4   44.89    4.22
  10   6   5   11.94    4.78
  10   6   6   -3.59    6.77
  10   6   7   13.54    5.64
  10   6   8   89.58    9.39
  10   6   9   55.30    8.49
  10   6  10   41.14   11.76
  10   6  11   53.08    7.22
  10   6  12    6.30    5.64
  10   6  13  103.44   18.94
  10   6  14   38.87   18.35
  10   6  15    2.48    6.30
  10   6  16   -6.30    9.41
  11  -7 -12   36.11   20.94
  11  -7 -11    7.47   45.19
  11  -7 -10   15.14   12.17
  11  -7  -9  128.99   14.67
  11  -7  -8   28.93   11.47
  11  -7  -7   20.72    9.71
  11  -7  -6   28.44    7.38
  11  -7  -5   11.53    9.89
  11  -7  -4   43.49    9.71
  11  -7  -3   30.06   18.28
  11  -7  -2   35.39   17.15
  11  -6 -16    0.00    2.26
  11  -6 -15  -14.22    8.37
  11  -6 -14   -4.29    5.67
  11  -6 -13    0.45    6.36
  11  -6 -12    1.60    4.97
  11  -6 -11    4.49    6.30
  11  -6 -10    5.21    4.54
  11  -6  -9    7.65    6.32
  11  -6  -8   -0.23    6.64
  11  -6  -7    1.33    5.15
  11  -6  -6   -0.23    4.33
  11  -6  -5   17.20    5.48
  11  -6  -4    2.26    4.74
  11  -6  -3    5.21    5.42
  11  -6  -2   93.30    6.09
  11  -6  -1   32.07    5.62
  11  -6   0   -0.23    5.71
  11  -6   1    7.22    4.76
  11  -5 -19   -0.23    8.22
  11  -5 -18    5.85    5.17
  11  -5 -17   -2.93    4.54
  11  -5 -16   58.93   12.23
  11  -5 -15  126.96   11.17
  11  -5 -14   46.31    8.17
  11  -5 -13   38.68   12.71
  11  -5 -12 1134.50  441.24
  11  -5 -11   32.77    5.67
  11  -5 -10    8.33    7.20
  11  -5  -9  150.65    9.95
  11  -5  -8   -7.90    4.72
  11  -5  -7   13.32    6.36
  11  -5  -6   83.15    6.30
  11  -5  -5   10.13    7.00
  11  -5  -4   19.25    5.94
  11  -5  -3   30.74    5.51
  11  -5  -2  110.28    6.00
  11  -5  -1  297.45   10.88
  11  -5   0   12.89    3.88
  11  -5   1   15.84    6.09
  11  -5   2    2.26    3.16
  11  -5   3  151.40   11.47
  11  -5   4   48.39    6.07
  11  -5   5   -5.42    7.49
  11  -5   6   -5.42    5.39
  11  -5   7  128.99    9.89
  11  -5   8   -9.21    8.13
  11  -5   9    7.47    8.62
  11  -5  10   18.33    9.52
  11  -5  11    7.65    8.15
  11  -5  12    4.29   11.28
  11  -4 -21   13.99    8.76
  11  -4 -20   -9.66    7.20
  11  -4 -19   86.76   11.19
  11  -4 -18   14.22    8.62
  11  -4 -17   54.19    7.52
  11  -4 -16    0.90    6.75
  11  -4 -15   10.63    6.75
  11  -4 -14   12.46    5.42
  11  -4 -13  211.05   20.52
  11  -4 -12   43.11   10.07
  11  -4 -11  106.82    9.32
  11  -4 -10   23.70    6.73
  11  -4  -9    9.48    4.72
  11  -4  -8   -0.68    4.29
  11  -4  -7    2.93    4.06
  11  -4  -6   12.89    4.97
  11  -4  -5   15.84    4.31
  11  -4  -4    4.49    4.27
  11  -4  -3  471.91   14.35
  11  -4  -2  340.35   11.08
  11  -4  -1   77.78    9.28
  11  -4   0   13.77    3.57
  11  -4   1   11.33    3.43
  11  -4   2   50.29   10.65
  11  -4   3   28.44    5.94
  11  -4   4   31.06    8.71
  11  -4   5   87.03   17.94
  11  -4   6   42.52   17.45
  11  -4   7  361.75   25.71
  11  -4   8   27.33    7.70
  11  -4   9   16.95    8.42
  11  -4  10   87.32    9.55
  11  -4  11   20.72    5.46
  11  -4  12   35.39    7.52
  11  -4  13   13.77    6.79
  11  -4  14   27.81   16.63
  11  -4  15   31.73   26.41
  11  -4  16   -1.13    8.62
  11  -4  17   76.72   22.10
  11  -4  18    4.06   15.78
  11  -3 -22    2.93    6.79
  11  -3 -21    7.22    7.67
  11  -3 -20    9.48    6.75
  11  -3 -19    4.94    8.55
  11  -3 -18   58.93   28.14
  11  -3 -17   -0.90    7.20
  11  -3 -16   81.79    8.42
  11  -3 -15   47.35    5.78
  11  -3 -14   19.25    7.00
  11  -3 -13   76.20    7.34
  11  -3 -12  394.45   17.31
  11  -3 -11  191.87   12.07
  11  -3 -10   29.75    6.55
  11  -3  -9  151.76   13.32
  11  -3  -8   12.68    5.24
  11  -3  -7   12.68    5.24
  11  -3  -6    0.90    4.49
  11  -3  -5    3.14    4.94
  11  -3  -4    1.60    4.56
  11  -3  -3   35.57    4.65
  11  -3  -2  407.68   16.39
  11  -3  -1   19.64    3.86
  11  -3   0   28.60    7.72
  11  -3   1   78.84    6.66
  11  -3   2  184.04   13.86
  11  -3   3    0.23    5.71
  11  -3   4   83.44    8.24
  11  -3   5   -0.68    7.70
  11  -3   6   13.11    6.32
  11  -3   7  349.83   20.79
  11  -3   8 1260.26  617.60
  11  -3   9    1.60    8.15
  11  -3  10   10.34    7.92
  11  -3  11   16.70    8.60
  11  -3  12   50.06   11.06
  11  -3  13   58.93    8.53
  11  -3  14   18.98    6.82
  11  -3  15   23.70   10.09
  11  -3  16    7.00    7.00
  11  -3  17   23.25   11.31
  11  -3  18   34.33   13.02
  11  -3  19   39.25   20.52
  11  -3  20    4.74    8.13
  11  -3  21   24.13    7.67
  11  -2 -23   36.47   13.79
  11  -2 -22   15.14    8.19
  11  -2 -21    3.59    7.00
  11  -2 -20    6.07    7.63
  11  -2 -19    0.68    7.02
  11  -2 -18    5.64    7.70
  11  -2 -17  564.16   24.98
  11  -2 -16  234.82   17.04
  11  -2 -15  332.09   12.59
  11  -2 -14    4.29    6.79
  11  -2 -13  223.44   11.67
  11  -2 -12   -0.90    6.27
  11  -2 -11   65.09    5.10
  11  -2 -10   15.14    5.15
  11  -2  -9    8.15    3.86
  11  -2  -8    9.48    4.99
  11  -2  -7   16.45    6.09
  11  -2  -6    3.59    4.72
  11  -2  -5    2.93    4.27
  11  -2  -4   25.32    4.99
  11  -2  -3  204.12    7.72
  11  -2  -2  215.43    7.94
  11  -2  -1   79.11    7.49
  11  -2   0   28.60    6.59
  11  -2   1   83.15    9.59
  11  -2   2   47.35    9.10
  11  -2   3    4.49    5.42
  11  -2   4    6.07    5.62
  11  -2   5   60.56   13.34
  11  -2   6   15.84    6.59
  11  -2   7  226.60   29.86
  11  -2   8    2.26    7.45
  11  -2   9   47.35    8.89
  11  -2  10   44.89   22.55
  11  -2  11   43.70   26.02
  11  -2  12   14.44    8.10
  11  -2  13    0.23    8.44
  11  -2  14   10.34   10.34
  11  -2  15  101.93   13.05
  11  -2  16    3.14    9.43
  11  -2  17   32.41   11.13
  11  -2  18   24.42    9.05
  11  -2  19   -1.78   11.69
  11  -2  20  103.75   24.49
  11  -2  21   18.33   10.81
  11  -2  22   41.93   15.75
  11  -1 -24    1.60   11.10
  11  -1 -23   11.94   14.02
  11  -1 -22   11.94    9.46
  11  -1 -21    0.00    2.26
  11  -1 -20   43.29    9.68
  11  -1 -19   10.63   11.56
  11  -1 -18   -0.23    5.94
  11  -1 -17   41.14    7.72
  11  -1 -16   -3.14    4.94
  11  -1 -15   26.25    9.23
  11  -1 -14   18.46    5.42
  11  -1 -13  283.61   11.13
  11  -1 -12   11.33    6.07
  11  -1 -11  122.26   12.96
  11  -1 -10   13.77    4.24
  11  -1  -9  155.10    8.60
  11  -1  -8   18.46    4.27
  11  -1  -7   68.03    7.92
  11  -1  -6   44.10    6.39
  11  -1  -5  481.10   18.46
  11  -1  -4   19.25   10.68
  11  -1  -3    1.13    8.40
  11  -1  -2   63.40    6.93
  11  -1  -1  170.45    9.41
  11  -1   0   18.33    5.01
  11  -1   1  111.22    7.92
  11  -1   2   17.83    4.94
  11  -1   3  285.15   11.67
  11  -1   4   20.58    8.17
  11  -1   5  112.80    8.31
  11  -1   6  238.05   13.45
  11  -1   7  855.58   34.28
  11  -1   8   39.07    9.21
  11  -1   9    9.21    9.03
  11  -1  10   -0.45    7.72
  11  -1  11  273.59   18.89
  11  -1  12   51.14   11.83
  11  -1  13  197.74   12.26
  11  -1  14    6.30    8.15
  11  -1  15  278.58   21.55
  11  -1  16   37.01    8.42
  11  -1  17  218.09   19.97
  11  -1  18   73.85   51.12
  11  -1  19    2.48    7.92
  11  -1  20   -5.21    8.17
  11  -1  21   17.31   17.76
  11  -1  22    4.94   13.97
  11   0 -23    9.21   11.67
  11   0 -21   11.74    6.59
  11   0 -19   19.37    7.02
  11   0 -17 2807.63   82.79
  11   0 -15 1277.37   37.58
  11   0 -13  303.18   11.51
  11   0 -11  377.91   15.19
  11   0  -9  127.63    8.15
  11   0  -7  158.12   10.20
  11   0  -5   61.50    8.24
  11   0  -3   86.19    7.81
  11   0  -1  144.45   10.11
  11   0   1    2.03    3.61
  11   0   3  121.27    8.94
  11   0   5   -8.58    6.34
  11   0   7  813.06   50.56
  11   0   9  103.75   10.09
  11   0  11   90.14   11.69
  11   0  13   57.55   12.30
  11   0  15   24.58   12.21
  11   0  17  264.72   31.28
  11   0  19   45.91    8.15
  11   0  21    2.26   11.51
  11   0  23   -0.68    8.40
  11   1 -24   -0.90    6.05
  11   1 -23   12.46    5.62
  11   1 -22   32.25   12.80
  11   1 -21   20.58    6.14
  11   1 -20   37.94    6.30
  11   1 -19    1.78    5.82
  11   1 -18   19.37    7.67
  11   1 -17   28.93    8.89
  11   1 -16    4.74    4.51
  11   1 -15   35.21    5.17
  11   1 -14   25.03    7.67
  11   1 -13  275.08   13.45
  11   1 -12    2.73    5.67
  11   1 -11  119.28   11.15
  11   1 -10   -0.23    6.41
  11   1  -9  146.25    8.71
  11   1  -8   18.33    6.05
  11   1  -7   66.54    7.85
  11   1  -6   42.91    7.09
  11   1  -5  473.88   17.65
  11   1  -4   14.90    4.29
  11   1  -3   10.34    3.18
  11   1  -2   74.89    4.42
  11   1  -1  192.27    7.09
  11   1   0   23.99    3.68
  11   1   1  104.36   10.43
  11   1   2   27.81    5.87
  11   1   3  280.09   11.56
  11   1   4   33.11   12.62
  11   1   5   92.45    9.82
  11   1   6  243.17   12.66
  11   1   7  811.34   32.52
  11   1   8   24.13    9.75
  11   1   9    9.95    6.55
  11   1  10    9.03    6.32
  11   1  11  291.27   15.39
  11   1  12   51.14    7.94
  11   1  13  199.00   15.26
  11   1  14   -3.36    5.62
  11   1  15  262.29   15.57
  11   1  16   47.35   10.13
  11   1  17  242.24   21.04
  11   1  18   -4.74    6.82
  11   1  19   19.25   21.22
  11   1  20   33.45   23.11
  11   1  21   50.92   17.58
  11   1  22   24.87   14.24
  11   2 -23   35.93   15.12
  11   2 -22   11.94   10.79
  11   2 -21   -0.23    8.92
  11   2 -20   20.72    9.98
  11   2 -18    0.68    9.50
  11   2 -17  530.42   39.45
  11   2 -16  246.46   14.63
  11   2 -15  307.90   16.34
  11   2 -14   38.12   11.31
  11   2 -13  193.54   10.02
  11   2 -12    8.33   15.51
  11   2 -11   60.10    8.15
  11   2 -10    9.48    4.27
  11   2  -9   13.54    3.88
  11   2  -8    3.14   10.11
  11   2  -7   22.82   11.06
  11   2  -6   -0.68    3.41
  11   2  -5   17.83    5.19
  11   2  -4   18.46    3.36
  11   2  -3  211.48    9.19
  11   2  -2  230.24   10.02
  11   2  -1   96.24    5.30
  11   2   0   20.31    3.11
  11   2   1   79.36    5.08
  11   2   2   36.29    4.33
  11   2   3    6.52    3.61
  11   2   4   11.01    3.79
  11   2   5   56.42    7.00
  11   2   6   13.77    6.79
  11   2   7  211.05   12.23
  11   2   8   22.98    7.49
  11   2   9   55.30    6.93
  11   2  10   43.49    6.55
  11   2  11   31.58    8.60
  11   2  12    1.78    9.01
  11   2  13   10.83    8.80
  11   2  14    7.65    5.89
  11   2  15  133.48   13.18
  11   2  16   20.31    8.40
  11   2  17   36.29   28.23
  11   2  18   36.47   16.88
  11   2  19    1.13    8.17
  11   2  20   87.59   21.37
  11   2  21   22.39   25.03
  11   2  22   41.35   13.52
  11   3 -22    4.94   12.37
  11   3 -21    1.33   20.20
  11   3 -20   28.28   10.38
  11   3 -19    8.33   18.89
  11   3 -18    7.90    7.67
  11   3 -17   15.37   10.13
  11   3 -16   91.00   18.91
  11   3 -15   56.88    7.24
  11   3 -14    8.76    7.20
  11   3 -13   85.09    7.76
  11   3 -12  393.26   24.42
  11   3 -11  217.64   23.04
  11   3 -10   30.40    4.47
  11   3  -9  136.25    7.72
  11   3  -8    9.21    6.30
  11   3  -7    9.03    4.69
  11   3  -6    2.73    3.18
  11   3  -5    3.14    4.54
  11   3  -4    6.07    3.41
  11   3  -3   35.57    5.19
  11   3  -2  366.90   14.96
  11   3  -1   20.72    5.46
  11   3   0   37.94    4.06
  11   3   1   71.55    5.85
  11   3   2  204.55    8.17
  11   3   3    4.49    5.15
  11   3   4   78.84    5.08
  11   3   5    2.03    3.39
  11   3   6   16.45    7.67
  11   3   7  390.89   29.70
  11   3   8   25.48    5.62
  11   3   9    4.29   15.57
  11   3  10   -1.60    4.74
  11   3  11    6.75    6.57
  11   3  12   83.15   13.70
  11   3  13   44.49   11.01
  11   3  14   19.37   10.18
  11   3  15   34.69    7.61
  11   3  16   51.35   17.88
  11   3  17   16.21    9.93
  11   3  18   19.37   13.50
  11   3  19   31.06   21.26
  11   3  20    2.26   10.83
  11   3  21  110.28   24.92
  11   4 -21    2.93    9.73
  11   4 -20   -2.26   12.19
  11   4 -19   93.30   12.77
  11   4 -18   -0.68    5.67
  11   4 -17   22.98    6.77
  11   4 -16   11.94    5.82
  11   4 -15   -2.26    6.55
  11   4 -14   30.24    7.27
  11   4 -13  183.22   13.43
  11   4 -12   62.45    9.73
  11   4 -11  105.29    9.86
  11   4 -10   32.25    6.48
  11   4  -9    0.90    5.17
  11   4  -8   -2.03    3.86
  11   4  -7    9.03    7.67
  11   4  -6   16.45    4.02
  11   4  -5   11.53    3.88
  11   4  -4    8.76    2.93
  11   4  -3  459.59   20.61
  11   4  -2  329.36   15.26
  11   4  -1   92.74    6.66
  11   4   0    9.21    5.64
  11   4   1    7.65    6.57
  11   4   2   45.91   10.38
  11   4   3   32.77    6.03
  11   4   4   31.06    7.88
  11   4   5   69.02    5.48
  11   4   6    4.94    5.62
  11   4   7  360.04   17.67
  11   4   8   58.00    8.24
  11   4   9   22.98   28.21
  11   4  10  106.21    8.67
  11   4  11   24.58    9.10
  11   4  12   67.78   13.61
  11   4  13   31.58    8.60
  11   4  14   26.41   11.74
  11   4  15   59.16   24.26
  11   4  16   -1.13   10.86
  11   4  17   79.11   21.10
  11   4  18   -2.03    8.15
  11   4  19    8.33    7.88
  11   4  20    4.49    7.45
  11   5 -19   14.90   10.45
  11   5 -18   -8.33    7.63
  11   5 -17    5.21    6.59
  11   5 -16   87.89    8.44
  11   5 -15  126.96   13.88
  11   5 -14   35.93    5.57
  11   5 -13   48.39    7.52
  11   5 -12   81.52    6.50
  11   5 -11   53.08    7.45
  11   5 -10    7.90    3.79
  11   5  -9  132.08    8.64
  11   5  -8   -1.13    2.73
  11   5  -7    5.64    3.14
  11   5  -6   81.79    5.98
  11   5  -5   11.94    4.04
  11   5  -4   19.91    3.88
  11   5  -3   36.47    4.54
  11   5  -2  111.54    6.66
  11   5  -1  272.60   13.38
  11   5   0    8.76    2.93
  11   5   1   18.08    4.47
  11   5   2   17.83   13.56
  11   5   3  167.31   10.50
  11   5   4   43.70    5.37
  11   5   5    7.22   11.56
  11   5   6    5.21    6.12
  11   5   7  126.28   10.81
  11   5   8   16.45    9.03
  11   5   9   10.13    9.28
  11   5  10    6.75    4.99
  11   5  11    2.73    6.36
  11   5  12   25.77    7.02
  11   5  13  112.80   10.86
  11   5  14  -12.46    9.98
  11   5  15  202.84   73.60
  11   5  16    8.33   10.40
  11   5  17    3.81    8.10
  11   5  18   21.26   26.47
  11   6   4    4.29    7.47
  11   6   5   57.33    9.55
  11   6   6    5.42    5.39
  11   6   7   34.33    6.34
  11   6   8   42.70    9.03
  11   6   9    9.21    7.02
  11   6  10   31.58    8.94
  11   6  11   32.93    9.32
  11   6  12  127.63   13.93
  11   6  13   27.96   14.47
  11   6  14   37.01   16.09
  11   6  15   65.57   19.23
  12  -7 -11   13.11   13.27
  12  -7 -10   24.42   15.60
  12  -7  -9   30.24   18.01
  12  -7  -8   22.98   48.66
  12  -7  -7   41.93   10.11
  12  -7  -6   24.58   12.82
  12  -7  -5    1.13   10.63
  12  -7  -4  117.32   11.40
  12  -7  -3   -2.93    7.47
  12  -6 -15   -1.78    5.39
  12  -6 -14    6.52    8.82
  12  -6 -13    2.26    6.32
  12  -6 -12   -2.03    5.19
  12  -6 -11    5.64   10.13
  12  -6 -10    6.75    8.82
  12  -6  -9   13.77    6.14
  12  -6  -8    0.90    4.94
  12  -6  -7   22.39    5.82
  12  -6  -6    9.48    5.82
  12  -6  -5    8.33    5.64
  12  -6  -4    4.74    6.09
  12  -6  -3   25.48    5.91
  12  -6  -2   55.30    7.15
  12  -6  -1    5.21    8.17
  12  -6   0   49.02    7.36
  12  -6   1   38.68   15.32
  12  -5 -18   49.02   13.45
  12  -5 -17   44.89   10.47
  12  -5 -16   24.58    8.19
  12  -5 -15   -2.03    7.24
  12  -5 -14   10.13    5.85
  12  -5 -13    2.03    5.87
  12  -5 -12   18.33   10.68
  12  -5 -11   11.33    6.77
  12  -5 -10    6.75    4.06
  12  -5  -9   12.14    5.44
  12  -5  -8    5.64    5.42
  12  -5  -7   84.52    6.64
  12  -5  -6    0.00    2.26
  12  -5  -5   51.35    6.25
  12  -5  -4  163.45    8.44
  12  -5  -3   61.73    6.14
  12  -5  -2    1.60    5.19
  12  -5  -1  408.90   12.75
  12  -5   0  151.02    7.76
  12  -5   1   88.45    6.21
  12  -5   2  150.29   10.31
  12  -5   3   27.96    8.42
  12  -5   4   62.92    8.10
  12  -5   5   45.91    7.34
  12  -5   6   16.21   15.37
  12  -5   7   22.12   23.02
  12  -5   8   15.62    9.03
  12  -5   9    4.94   15.10
  12  -5  10   20.31   14.90
  12  -5  11   61.98   13.00
  12  -4 -20   11.94    7.15
  12  -4 -19    1.60    8.37
  12  -4 -18   22.82    9.05
  12  -4 -17   -4.74    5.89
  12  -4 -16   84.25   18.48
  12  -4 -15   20.04    8.60
  12  -4 -14    0.23    6.41
  12  -4 -13    8.33    5.89
  12  -4 -12   24.58    6.70
  12  -4 -11  104.36    9.21
  12  -4 -10   63.65    7.90
  12  -4  -9   44.69    7.43
  12  -4  -8    0.68    5.89
  12  -4  -7   25.32    5.60
  12  -4  -6   16.95    4.33
  12  -4  -5   -6.75    6.09
  12  -4  -4  437.95   15.73
  12  -4  -3   13.32    4.72
  12  -4  -2  734.52   21.98
  12  -4  -1   53.54    6.36
  12  -4   0   12.46    3.81
  12  -4   1  345.37   17.31
  12  -4   2    3.14    4.94
  12  -4   3    4.49    7.45
  12  -4   4   76.44    7.36
  12  -4   5   55.30   14.51
  12  -4   6  145.53   13.41
  12  -4   7   21.42    5.42
  12  -4   8  173.59   17.02
  12  -4   9   27.49    8.51
  12  -4  10   17.83    6.34
  12  -4  11   12.46    7.94
  12  -4  12   13.99    6.07
  12  -4  13    3.36    7.00
  12  -4  14   48.39   26.75
  12  -4  15   -5.85    7.92
  12  -4  16    5.21    6.59
  12  -4  17    7.65    9.73
  12  -4  18  107.46   13.38
  12  -3 -22    4.29    6.55
  12  -3 -21    4.94    7.88
  12  -3 -20   42.52    7.65
  12  -3 -19   -1.60    7.02
  12  -3 -18   37.38   10.83
  12  -3 -17   40.38   11.47
  12  -3 -16   39.99   20.52
  12  -3 -15   19.64    8.13
  12  -3 -14   -6.07    4.97
  12  -3 -13    3.81    7.45
  12  -3 -12    4.74    4.72
  12  -3 -11   57.78    7.09
  12  -3 -10    6.75    5.87
  12  -3  -9    2.93    6.32
  12  -3  -8   25.03    6.77
  12  -3  -7   -2.03    5.19
  12  -3  -6   28.28    6.07
  12  -3  -5  198.57   10.16
  12  -3  -4  115.06   10.97
  12  -3  -3  145.89    7.99
  12  -3  -2  134.52    8.71
  12  -3  -1  178.78   12.86
  12  -3   0   16.70   11.06
  12  -3   1   44.10   14.35
  12  -3   2   59.40    8.10
  12  -3   3  103.44    9.16
  12  -3   4    1.13    5.67
  12  -3   5  469.95   29.97
  12  -3   6   -0.45    4.99
  12  -3   7   79.63    9.93
  12  -3   8   11.33    7.88
  12  -3   9    1.60    7.70
  12  -3  10   -2.26   10.61
  12  -3  11   18.71   11.06
  12  -3  12   53.96    7.72
  12  -3  13   25.03    6.32
  12  -3  14   11.94    9.03
  12  -3  15    9.48   11.94
  12  -3  16   17.56   12.84
  12  -3  17  101.93   68.86
  12  -3  18    9.03    6.95
  12  -3  19   13.32   19.86
  12  -3  20   55.30   17.88
  12  -2 -23    9.66    9.91
  12  -2 -22   12.14    9.43
  12  -2 -21  101.02   14.81
  12  -2 -20   18.46    9.03
  12  -2 -19   -0.45    6.79
  12  -2 -18   99.22    9.57
  12  -2 -17   39.07    6.95
  12  -2 -16   50.92    8.35
  12  -2 -15  271.11   13.36
  12  -2 -14  342.57   18.35
  12  -2 -13   21.83    6.32
  12  -2 -12   69.52    7.76
  12  -2 -11   54.84    5.12
  12  -2 -10  206.27    9.07
  12  -2  -9   25.93    7.20
  12  -2  -8   12.14    4.51
  12  -2  -7    4.29    4.54
  12  -2  -6  484.40   15.87
  12  -2  -5   55.52    5.15
  12  -2  -4  248.36    9.48
  12  -2  -3   13.99    5.39
  12  -2  -2  252.15   13.36
  12  -2  -1   -5.21    6.12
  12  -2   0   19.91    8.31
  12  -2   1  109.33    8.49
  12  -2   2    5.42    6.09
  12  -2   3   32.77   36.97
  12  -2   4  254.07   29.70
  12  -2   5    1.60   32.41
  12  -2   6  132.78    9.71
  12  -2   7    1.60    4.74
  12  -2   8  241.32   14.94
  12  -2   9  -10.13    7.47
  12  -2  10   68.27    9.68
  12  -2  11   18.46   13.81
  12  -2  12   14.22    7.47
  12  -2  13    2.48    5.39
  12  -2  14   26.70   10.40
  12  -2  15   27.96    7.15
  12  -2  16    3.36    9.68
  12  -2  17   22.39    8.82
  12  -2  18  168.10   19.09
  12  -2  19   19.64   10.65
  12  -2  20   23.70   20.76
  12  -2  21   48.59   17.60
  12  -1 -23    6.75    6.32
  12  -1 -22   20.04   13.72
  12  -1 -21   24.13    6.50
  12  -1 -20   33.63    7.83
  12  -1 -19   45.30   13.34
  12  -1 -18   42.12    5.67
  12  -1 -17   89.87    8.55
  12  -1 -16  160.38   10.27
  12  -1 -15    6.30    7.02
  12  -1 -14   47.35    7.02
  12  -1 -13   25.03    5.42
  12  -1 -12   58.70    6.21
  12  -1 -11    0.45    5.21
  12  -1 -10   27.33    5.35
  12  -1  -9   25.48    6.07
  12  -1  -8   36.47    6.34
  12  -1  -7   24.42    5.64
  12  -1  -6   81.52    5.96
  12  -1  -5   32.07    6.82
  12  -1  -4    9.21    4.92
  12  -1  -3    9.03   10.56
  12  -1  -2  109.33   16.02
  12  -1  -1   -0.23   12.57
  12  -1   0   54.64    8.44
  12  -1   1  211.48   11.80
  12  -1   2   21.42    6.25
  12  -1   3    8.33    5.64
  12  -1   4   64.60   12.55
  12  -1   5  136.62    9.14
  12  -1   6  741.04   31.08
  12  -1   7   -0.23    5.71
  12  -1   8   13.11    5.44
  12  -1   9   10.34    7.63
  12  -1  10   62.68    8.80
  12  -1  11   31.73    9.48
  12  -1  12   55.75    9.86
  12  -1  13   15.84    9.93
  12  -1  14   27.02    6.25
  12  -1  15  118.31   13.41
  12  -1  16  564.16   35.68
  12  -1  17   42.91   10.63
  12  -1  18   74.89   10.13
  12  -1  19   35.93   18.91
  12  -1  20   35.93   13.34
  12  -1  21   -0.23   11.87
  12  -1  22  118.97   20.97
  12   0 -22   26.25    9.07
  12   0 -20  191.44   12.89
  12   0 -18  709.49   27.22
  12   0 -16    7.65    8.96
  12   0 -14  623.43   18.01
  12   0 -12  674.71   19.52
  12   0 -10  213.67   11.85
  12   0  -8  241.32   14.47
  12   0  -6 1895.51   68.03
  12   0  -4  566.30   22.16
  12   0  -2  404.66   16.32
  12   0   0  154.74   12.32
  12   0   2    4.29    7.22
  12   0   4  387.32   15.96
  12   0   6  583.59   23.95
  12   0   8  303.18   21.98
  12   0  10  350.96   20.27
  12   0  12  133.12   11.10
  12   0  14  248.36   24.62
  12   0  16   23.70   19.88
  12   0  18   59.86   12.80
  12   0  20   44.10   10.59
  12   0  22    0.90   18.19
  12   1 -23   13.77   11.71
  12   1 -22   22.82    8.76
  12   1 -21   15.14    9.48
  12   1 -20   34.69    7.43
  12   1 -19   34.33    8.80
  12   1 -18   68.77   12.46
  12   1 -17   84.25    9.93
  12   1 -16  156.23    9.39
  12   1 -15    9.21    4.74
  12   1 -14   64.37   23.63
  12   1 -13    6.52    8.98
  12   1 -12   65.32    7.29
  12   1 -11   -6.30    6.79
  12   1 -10   34.15    5.80
  12   1  -9   14.44    5.82
  12   1  -8   23.41    4.81
  12   1  -7   18.08    4.99
  12   1  -6   70.53    7.31
  12   1  -5   41.14    9.05
  12   1  -4   13.11    8.37
  12   1  -3    2.93    4.54
  12   1  -2  127.97    8.51
  12   1  -1   -5.85    5.89
  12   1   0   71.03    9.37
  12   1   1  204.55   12.89
  12   1   2   25.77    7.94
  12   1   3    6.07    6.52
  12   1   4   61.50    8.49
  12   1   5  140.86    9.64
  12   1   6  721.54   30.67
  12   1   7    7.90    4.31
  12   1   8   27.33    9.89
  12   1   9    2.48    9.71
  12   1  10   81.25   10.02
  12   1  11   39.43   12.64
  12   1  12   66.31   15.91
  12   1  13   18.33    6.95
  12   1  14   44.10   14.96
  12   1  15  117.00   12.68
  12   1  16  566.30   32.18
  12   1  17   49.65    9.95
  12   1  18  108.09   14.38
  12   1  19   62.20   38.17
  12   1  20   31.58   44.73
  12   1  21   21.26    9.98
  12   1  22  161.53   17.56
  12   2 -23    0.23    5.71
  12   2 -22    0.00    2.26
  12   2 -21   93.30   17.99
  12   2 -20   17.31    9.25
  12   2 -19    9.66   10.56
  12   2 -16   46.31    6.95
  12   2 -15  254.54   15.35
  12   2 -14  372.67   19.14
  12   2 -13   29.75    8.53
  12   2 -12   70.01    6.30
  12   2 -11   71.55   21.85
  12   2 -10  191.87   14.56
  12   2  -9   16.21   11.24
  12   2  -8    9.95    5.87
  12   2  -7    0.45    3.18
  12   2  -6  468.01   13.65
  12   2  -5   47.35    6.41
  12   2  -4  275.08   14.94
  12   2  -3   30.74    8.33
  12   2  -2  251.20   11.42
  12   2  -1    4.29    6.09
  12   2   0   13.54    4.97
  12   2   1  132.44   10.38
  12   2   2   13.77    5.69
  12   2   3   97.73   48.71
  12   2   4  236.19   11.53
  12   2   5   -0.45    5.44
  12   2   6  135.56   20.29
  12   2   7   22.98   17.13
  12   2   8  240.84   13.52
  12   2   9   -0.68    4.54
  12   2  10   76.44   14.44
  12   2  11   10.34    6.77
  12   2  12   20.04    7.40
  12   2  13   14.67   11.06
  12   2  14   46.72   14.38
  12   2  15   28.44    7.70
  12   2  16    3.59   17.29
  12   2  17    7.90   12.66
  12   2  18  159.64   14.04
  12   2  19   28.44   12.19
  12   2  20   21.42   39.47
  12   2  21    9.95   11.28
  12   3 -22   19.37   13.36
  12   3 -21    0.00    2.26
  12   3 -20   32.25   11.94
  12   3 -19   43.11   82.65
  12   3 -18   53.96    7.29
  12   3 -17   15.37    5.42
  12   3 -16   35.93   10.45
  12   3 -15   33.63   13.59
  12   3 -14   14.22    6.12
  12   3 -13    1.78    7.88
  12   3 -12   14.67    4.72
  12   3 -11   59.16    7.63
  12   3 -10   -0.90    6.05
  12   3  -9    7.47    6.57
  12   3  -8   18.98    9.03
  12   3  -7   33.81    8.40
  12   3  -6   31.39    4.04
  12   3  -5  168.87   10.54
  12   3  -4  114.41    9.01
  12   3  -3  132.78    7.61
  12   3  -2  123.59    6.68
  12   3  -1  179.18    8.44
  12   3   0    6.07    4.97
  12   3   1   47.55    5.19
  12   3   2   55.52    4.47
  12   3   3   91.59    4.60
  12   3   4   -5.85    5.89
  12   3   5  441.74   19.57
  12   3   6    3.14    4.54
  12   3   7   96.53    9.46
  12   3   8   17.83    5.57
  12   3   9    3.36    7.00
  12   3  10    3.81    7.85
  12   3  11   19.64    5.46
  12   3  12   61.25    9.64
  12   3  13   28.44    6.73
  12   3  14   45.09   25.21
  12   3  15   22.12   12.14
  12   3  16   39.81   12.71
  12   3  17    7.22    7.92
  12   3  18   66.54   25.26
  12   3  19    9.66   10.83
  12   3  20   76.20   17.31
  12   4 -20   15.62   17.56
  12   4 -19   -0.68    8.85
  12   4 -18    3.81    9.91
  12   4 -17    6.75    8.13
  12   4 -16   94.18   13.99
  12   4 -15   34.15    8.08
  12   4 -14   -0.90    4.27
  12   4 -13   14.44    6.27
  12   4 -12   27.81    6.34
  12   4 -11  410.12  181.94
  12   4 -10   67.53    8.15
  12   4  -9   63.65    9.34
  12   4  -8   11.53    6.73
  12   4  -7   29.09    5.35
  12   4  -6    9.66    2.89
  12   4  -5   -2.48    3.61
  12   4  -4  456.39   20.54
  12   4  -3   14.90    4.29
  12   4  -2  749.25   32.07
  12   4  -1   66.06    6.84
  12   4   0   14.90    5.21
  12   4   1  353.22   21.46
  12   4   2    5.42    5.17
  12   4   3   13.99    6.52
  12   4   4   78.30    6.64
  12   4   5   61.03    7.52
  12   4   6  143.00   12.57
  12   4   7   17.83    4.94
  12   4   8  193.54   15.89
  12   4   9   27.96    7.94
  12   4  10   15.84    6.09
  12   4  11   33.81    5.94
  12   4  12    8.33    5.89
  12   4  13    6.52   12.35
  12   4  14    9.95    9.95
  12   4  15    1.78    7.88
  12   4  16   21.69   13.16
  12   4  17   22.55    8.13
  12   4  18   73.85   15.23
  12   4  19   17.31   13.75
  12   5 -18   34.33   11.26
  12   5 -17   68.03   10.16
  12   5 -16   27.96   10.34
  12   5 -15    0.90    6.97
  12   5 -14   28.60    6.59
  12   5 -13   16.95    7.04
  12   5 -12   12.68    5.89
  12   5 -11   13.32    4.49
  12   5  -9   15.62    6.30
  12   5  -8   13.54    3.66
  12   5  -7   85.65    6.68
  12   5  -6    6.52    4.29
  12   5  -5   61.50    7.54
  12   5  -4  146.61   10.18
  12   5  -3   53.31   10.31
  12   5  -2    0.00    2.26
  12   5  -1  376.76   19.84
  12   5   0  168.10   19.48
  12   5   1   71.79   11.71
  12   5   2  183.22   15.46
  12   5   3   13.11    4.78
  12   5   4   49.86    7.43
  12   5   5   46.72    9.66
  12   5   6    9.48    6.75
  12   5   7   11.01    8.98
  12   5   8   23.70    7.61
  12   5   9   -3.14    6.77
  12   5  10   31.58   12.82
  12   5  11   67.28    6.66
  12   5  12    9.48    6.30
  12   5  13   30.06   11.69
  12   5  14   63.15   13.36
  12   5  15   59.86   24.65
  12   5  17   13.32   11.51
  12   6   5   23.41    4.81
  12   6   6    1.13    5.21
  12   6   7    1.78    4.94
  12   6   8   42.52   13.52
  12   6   9   64.60   10.38
  12   6  10   -1.78    8.31
  12   6  11   20.31    8.13
  12   6  12   20.72   10.81
  12   6  13    7.00    9.21
  12   6  14   32.25   11.08
  13  -7  -9  101.61   51.80
  13  -7  -8   31.58    8.94
  13  -7  -7   44.28   13.59
  13  -7  -6   43.70   38.32
  13  -7  -5   47.35   17.58
  13  -7  -4   56.20   11.94
  13  -6 -14    1.13    5.89
  13  -6 -13   15.84    8.85
  13  -6 -12   11.01    7.67
  13  -6 -11   18.33    7.85
  13  -6 -10    2.26    3.16
  13  -6  -9    9.03    5.60
  13  -6  -8    0.90   10.36
  13  -6  -7    8.33    7.45
  13  -6  -6   21.83    7.15
  13  -6  -5   29.41    8.80
  13  -6  -4    3.81    6.75
  13  -6  -3   89.87    5.69
  13  -6  -2   10.34    8.31
  13  -6  -1  148.80   13.20
  13  -6   0   18.33    5.39
  13  -5 -17   12.46    9.01
  13  -5 -16   25.93   12.71
  13  -5 -15    4.74    8.37
  13  -5 -14   11.53   12.44
  13  -5 -13   10.83    7.02
  13  -5 -12   -3.14    6.27
  13  -5 -11   74.89    8.33
  13  -5 -10   14.22    5.44
  13  -5  -9   53.54    6.82
  13  -5  -8   24.87    5.39
  13  -5  -7   84.82    8.31
  13  -5  -6   32.93    6.55
  13  -5  -5   10.34    4.92
  13  -5  -4   14.90    5.91
  13  -5  -3    7.22    6.30
  13  -5  -2   12.14    6.27
  13  -5  -1  163.07    9.98
  13  -5   0  168.48   11.69
  13  -5   1   16.45   11.33
  13  -5   2   -4.94    6.75
  13  -5   3  145.17   10.50
  13  -5   4   42.91    9.25
  13  -5   5   66.06    9.03
  13  -5   6    2.73    7.24
  13  -5   7   51.14   10.74
  13  -5   8   19.64    7.45
  13  -5   9   18.71    8.85
  13  -5  10   81.79    9.50
  13  -5  11   -7.00    7.85
  13  -4 -19   77.23   12.68
  13  -4 -18   55.07   10.92
  13  -4 -17   14.44   11.08
  13  -4 -16    7.47    5.17
  13  -4 -15   50.49    7.04
  13  -4 -14   35.39    8.40
  13  -4 -13   18.71    9.23
  13  -4 -12    7.47    4.76
  13  -4 -11   27.33    5.67
  13  -4 -10   37.38    6.97
  13  -4  -9   17.20    5.60
  13  -4  -8   24.13    5.46
  13  -4  -7    8.76    6.32
  13  -4  -6   32.77    6.36
  13  -4  -5   39.25    7.90
  13  -4  -4    0.45    5.44
  13  -4  -3  510.53   19.68
  13  -4  -2  156.23    9.01
  13  -4  -1 1304.36   43.40
  13  -4   0  392.67   19.05
  13  -4   1   -2.26    7.45
  13  -4   2  161.92   11.85
  13  -4   3   85.92    7.81
  13  -4   4   44.69    9.84
  13  -4   5  161.92   13.00
  13  -4   6   21.83    7.15
  13  -4   7   -0.68    5.67
  13  -4   8   12.46    6.57
  13  -4   9   55.30   11.85
  13  -4  10    4.94    5.87
  13  -4  12   10.63    7.24
  13  -4  13   11.53    9.68
  13  -4  14   33.45   11.83
  13  -4  15   33.63   10.81
  13  -4  16    0.00    2.26
  13  -4  17   18.33   11.96
  13  -4  18   75.65   38.93
  13  -3 -21   49.43   10.99
  13  -3 -20   22.98    9.07
  13  -3 -19   95.65   12.05
  13  -3 -18    3.59    8.76
  13  -3 -17    9.21    8.13
  13  -3 -16   -2.48    5.21
  13  -3 -15   22.98   10.09
  13  -3 -14   68.52    8.46
  13  -3 -13   10.63    5.39
  13  -3 -12    4.94    9.89
  13  -3 -11   79.36    7.49
  13  -3 -10   27.33    5.67
  13  -3  -9   59.40    8.80
  13  -3  -8   34.69    7.43
  13  -3  -7   92.15    8.64
  13  -3  -6  103.44    8.26
  13  -3  -5   36.29   10.13
  13  -3  -4  173.59   11.49
  13  -3  -3   17.56    7.18
  13  -3  -2   13.99   11.24
  13  -3  -1  407.68   21.85
  13  -3   0    9.66    8.96
  13  -3   1   -3.59    5.62
  13  -3   2   15.84    7.90
  13  -3   3   24.13    6.79
  13  -3   4   -3.59    7.85
  13  -3   5  228.41   15.89
  13  -3   6  106.53   11.47
  13  -3   7    3.14    6.77
  13  -3   8   21.42    8.76
  13  -3   9   23.70   10.83
  13  -3  10    1.60    9.30
  13  -3  11   12.46    7.63
  13  -3  12    5.64    7.20
  13  -3  13   -1.78    6.95
  13  -3  14   54.64   19.55
  13  -3  15   -6.07    7.18
  13  -3  16  245.99   28.75
  13  -3  17    4.06    9.93
  13  -3  18   97.41   20.18
  13  -3  19   -2.93    7.47
  13  -2 -22  -10.63   13.14
  13  -2 -21   33.11    8.31
  13  -2 -20   13.11    8.17
  13  -2 -19   18.46    7.88
  13  -2 -18   -0.68    8.40
  13  -2 -17    2.26    8.35
  13  -2 -16   17.31    5.62
  13  -2 -15    9.48    6.75
  13  -2 -14   72.56    8.96
  13  -2 -13   72.31    6.91
  13  -2 -12   61.98    7.09
  13  -2 -11   22.98    5.62
  13  -2 -10    0.00    2.26
  13  -2  -9    1.13    4.51
  13  -2  -8   -4.29    4.74
  13  -2  -7   45.09    8.28
  13  -2  -6   66.31    5.62
  13  -2  -5    0.00    2.26
  13  -2  -4   39.43    6.97
  13  -2  -3   17.56    6.79
  13  -2  -2    5.21    8.37
  13  -2  -1  300.04   15.10
  13  -2   0   73.33    8.24
  13  -2   1   53.96    8.60
  13  -2   2   63.65    9.34
  13  -2   3   12.46    7.22
  13  -2   4    2.73    8.60
  13  -2   5  120.28   17.79
  13  -2   6   35.57    6.27
  13  -2   7    9.03    6.77
  13  -2   8    2.26    6.77
  13  -2   9  113.78   10.25
  13  -2  10   44.49    7.81
  13  -2  11    1.60    5.87
  13  -2  12   -2.48    5.87
  13  -2  13   31.06   12.57
  13  -2  14  103.44   12.84
  13  -2  15  118.97   13.43
  13  -2  16   74.37   12.19
  13  -2  17   28.28   13.11
  13  -2  18   27.96   33.36
  13  -2  19  106.21   21.67
  13  -2  20   12.14   10.59
  13  -1 -22    3.14    6.77
  13  -1 -21  119.94   15.46
  13  -1 -20    6.52    6.97
  13  -1 -19   98.61    8.64
  13  -1 -18   36.29   11.04
  13  -1 -17    7.47    5.42
  13  -1 -16    1.78    7.63
  13  -1 -15   -0.90    5.62
  13  -1 -14   54.19    8.85
  13  -1 -13   87.89    8.44
  13  -1 -12   17.56    6.55
  13  -1 -11   64.84    7.02
  13  -1 -10   37.38    5.33
  13  -1  -9  217.21   10.18
  13  -1  -8   10.63    4.99
  13  -1  -7   32.07    5.62
  13  -1  -6   64.12   25.50
  13  -1  -5   78.84   21.35
  13  -1  -4   54.19    9.95
  13  -1  -3   16.21    9.43
  13  -1  -2   18.98    8.37
  13  -1  -1   27.49    7.24
  13  -1   0    7.22    5.42
  13  -1   1  109.33    8.80
  13  -1   2    6.52    7.90
  13  -1   3   21.42    6.12
  13  -1   4   50.49    8.53
  13  -1   5   -3.14    6.55
  13  -1   6   12.89    6.36
  13  -1   7   36.47   11.98
  13  -1   8   -3.81    9.21
  13  -1   9    2.03    5.67
  13  -1  10   19.91    6.16
  13  -1  11    3.81   10.79
  13  -1  12   11.74   15.75
  13  -1  13   -3.59    9.21
  13  -1  14   59.63    7.65
  13  -1  15   17.20   10.59
  13  -1  16  154.74   14.94
  13  -1  17  119.28   17.06
  13  -1  18  127.63   13.59
  13  -1  19   -0.68   13.14
  13  -1  20   -2.48   12.66
  13  -1  21   21.26   16.07
  13   0 -23   22.12   12.14
  13   0 -21  134.86   15.01
  13   0 -19  105.29   14.17
  13   0 -17   32.93    8.62
  13   0 -15  328.26   14.69
  13   0 -13  246.94   10.86
  13   0 -11   10.83    5.44
  13   0  -9  101.93   10.61
  13   0  -7  109.96   13.23
  13   0  -5   38.12    9.64
  13   0  -3   42.91   10.83
  13   0  -1   -3.36    4.29
  13   0   1    9.95    7.49
  13   0   3   18.71    6.36
  13   0   5  172.01   10.25
  13   0   9   64.60   10.38
  13   0  11   54.84    7.56
  13   0  13  234.37   20.25
  13   0  15  673.94   36.65
  13   0  17   11.74   10.81
  13   0  19   85.36   13.61
  13   0  21   54.42   13.07
  13   1 -22   27.33   13.36
  13   1 -21  117.32   13.02
  13   1 -20   -0.45   11.58
  13   1 -19   85.09    7.76
  13   1 -18   20.04    6.32
  13   1 -17   26.70   16.30
  13   1 -16    3.14    6.77
  13   1 -15    6.07    6.73
  13   1 -14   65.09   10.43
  13   1 -13   74.89   20.29
  13   1 -12   19.64    9.05
  13   1 -11   73.58   10.31
  13   1 -10   37.20    6.77
  13   1  -9  251.20   13.34
  13   1  -8    4.49    5.85
  13   1  -7   17.31    7.63
  13   1  -6   32.93    7.24
  13   1  -5   76.72    8.69
  13   1  -4   31.73    6.95
  13   1  -3    4.49    6.05
  13   1  -2    2.26    5.42
  13   1  -1   30.74    6.50
  13   1   0   14.44    6.50
  13   1   1  109.01    9.73
  13   1   2   -2.26    5.64
  13   1   3   17.20    5.85
  13   1   4   63.87    6.25
  13   1   5   -4.74    6.55
  13   1   6    9.03    5.60
  13   1   7   13.77    9.93
  13   1   8    1.13    5.44
  13   1   9   20.04    6.05
  13   1  10   20.04    4.99
  13   1  11   -1.33    5.39
  13   1  12   25.03   14.29
  13   1  13    5.64   12.62
  13   1  14   48.59   12.14
  13   1  15    0.23   12.35
  13   1  16  158.87   14.40
  13   1  17  188.96   35.53
  13   1  18  132.78   12.82
  13   1  19   20.31   44.28
  13   1  20   -0.90   12.14
  13   1  21   22.82   16.23
  13   2 -22   95.36   72.77
  13   2 -21   17.83    9.25
  13   2 -20   -0.23    6.84
  13   2 -19    7.47    6.57
  13   2 -16   23.25    7.67
  13   2 -15   13.11    9.25
  13   2 -14   74.37   10.36
  13   2 -13   72.04    8.17
  13   2 -12   41.93    6.23
  13   2 -11   10.13    6.79
  13   2 -10    5.85    5.17
  13   2  -9   -2.48   14.44
  13   2  -8   11.74    4.94
  13   2  -7   44.49    9.61
  13   2  -6   70.28    6.79
  13   2  -5    0.45    5.69
  13   2  -4   47.55    7.24
  13   2  -3   13.11    4.56
  13   2  -2   12.68    4.49
  13   2  -1  266.69   13.25
  13   2   0   69.76    8.03
  13   2   1   44.28    7.61
  13   2   2   41.73    6.59
  13   2   3   11.53    7.04
  13   2   4    4.74    7.00
  13   2   5  109.01    8.46
  13   2   6   31.58    7.94
  13   2   7   11.33    8.60
  13   2   8   14.67    7.02
  13   2   9  116.03   11.01
  13   2  10   76.99   22.66
  13   2  11    9.48   13.14
  13   2  12   32.25   18.08
  13   2  13   30.06   10.54
  13   2  14  134.86   15.01
  13   2  15  146.61   16.36
  13   2  16   71.28   12.19
  13   2  17   23.99   13.54
  13   2  18   -5.42   15.82
  13   2  19   89.58   14.51
  13   2  20    3.36    7.88
  13   3 -21   30.90   12.19
  13   3 -19  100.12   16.84
  13   3 -18  105.29   71.52
  13   3 -17    0.00    2.26
  13   3 -14   79.90    8.60
  13   3 -13   -4.06    8.35
  13   3 -12   18.33   11.71
  13   3 -11   84.82   10.25
  13   3 -10   10.83    5.64
  13   3  -9   54.84    6.91
  13   3  -8   32.07    9.71
  13   3  -7  110.28   10.72
  13   3  -6   94.18    7.00
  13   3  -5   22.82    5.46
  13   3  -4  175.98    9.57
  13   3  -3   10.13    3.34
  13   3  -2   12.89    5.62
  13   3  -1  402.85   17.49
  13   3   0    4.74    5.62
  13   3   1   27.81    9.66
  13   3   2    3.36    4.51
  13   3   3   46.11    5.71
  13   3   4    6.52    4.76
  13   3   5  222.99   17.04
  13   3   6  114.09    9.64
  13   3   7    0.23    5.03
  13   3   8    1.60    6.09
  13   3   9   19.37    8.98
  13   3  10   22.39    9.95
  13   3  11   34.51   17.83
  13   3  12   16.21    9.43
  13   3  13    4.49    8.78
  13   3  14   46.92   17.90
  13   3  15   -2.48    8.82
  13   3  16  237.59   24.56
  13   3  17   -0.23   10.74
  13   3  18  145.89   34.85
  13   3  19   -2.03   10.16
  13   4 -19   99.22   15.87
  13   4 -18   46.72   18.08
  13   4 -17   29.09    9.23
  13   4 -16   20.72    7.38
  13   4 -15   35.57    6.09
  13   4 -14   23.99    9.28
  13   4 -13   15.98    4.92
  13   4 -12    1.60    5.64
  13   4 -11   32.25    7.67
  13   4 -10   39.25    8.10
  13   4  -9  352.09  149.41
  13   4  -8   23.41    6.09
  13   4  -7   21.26    7.49
  13   4  -6   28.28    7.83
  13   4  -5   63.65    9.12
  13   4  -4   13.32    7.67
  13   4  -3  447.45   21.60
  13   4  -2  165.75   10.45
  13   4  -1 1250.67   63.76
  13   4   0  426.10   21.71
  13   4   1   10.63    5.19
  13   4   2  175.98   10.36
  13   4   3   70.78   11.13
  13   4   4   39.99    7.40
  13   4   5  207.15   17.74
  13   4   6   27.96    8.42
  13   4   7   21.26   13.16
  13   4   8   17.83    9.25
  13   4   9   76.72   10.79
  13   4  10   32.77   13.25
  13   4  11   20.58   31.21
  13   4  12   18.98    6.93
  13   4  13   -6.52    6.75
  13   4  14   43.70   11.92
  13   4  15   31.06    9.21
  13   4  16    0.45   10.45
  13   4  17   -3.81    8.10
  13   4  18   57.55   74.77
  13   5 -17    3.81    6.52
  13   5 -16    2.73    4.97
  13   5 -15    8.33    6.32
  13   5 -14   -2.48    6.12
  13   5 -13   18.08    8.31
  13   5 -12    2.48   24.40
  13   5 -10   19.64    4.54
  13   5  -9   61.98    7.34
  13   5  -8   26.41    5.39
  13   5  -7   96.24   10.90
  13   5  -6   42.12    6.64
  13   5  -5    7.47    5.01
  13   5  -4    8.15    3.61
  13   5  -3    0.23    4.56
  13   5  -2    8.33    4.06
  13   5  -1  144.45    9.39
  13   5   0  208.00   11.26
  13   5   1   17.20    4.11
  13   5   2    0.23    5.26
  13   5   3  142.28    8.60
  13   5   4   65.09    9.21
  13   5   5   56.42    6.32
  13   5   6    0.00    2.26
  13   5   7   45.50    7.70
  13   5   8   46.72   16.02
  13   5   9   32.07   19.41
  13   5  10   91.59   32.50
  13   5  11   26.86   13.70
  13   5  12    5.42    8.60
  13   5  13    1.33   10.31
  13   5  14    3.81   12.14
  13   5  15   11.94   11.01
  13   6   6   53.08   34.15
  13   6   7   25.93    7.65
  13   6   8   10.13    9.48
  13   6   9   95.65    9.41
  13   6  10   19.91    8.58
  13   6  11   39.99   11.60
  13   6  12   11.94   12.35
  14  -7  -6   16.70    8.85
  14  -7  -5    6.52   10.13
  14  -6 -12   11.33    7.88
  14  -6 -11    8.33   14.90
  14  -6 -10    7.65    4.49
  14  -6  -9   23.25   12.62
  14  -6  -8   48.39   10.45
  14  -6  -7   14.90    8.58
  14  -6  -6  -12.68    7.27
  14  -6  -5   11.74    7.72
  14  -6  -4    3.36   23.41
  14  -6  -3   35.03    7.29
  14  -6  -2  113.46   11.19
  14  -6  -1  106.21   17.04
  14  -5 -16   20.58    8.17
  14  -5 -15   -1.13    6.12
  14  -5 -14    0.00    2.26
  14  -5 -13   29.57   10.79
  14  -5 -12    8.15   12.44
  14  -5 -11    0.90    4.04
  14  -5 -10   17.31    6.75
  14  -5  -9   21.69    5.46
  14  -5  -8   10.63    8.62
  14  -5  -7    5.64    5.21
  14  -5  -6   28.44    6.25
  14  -5  -5    6.30    5.89
  14  -5  -4    8.58    4.92
  14  -5  -3   12.89    4.74
  14  -5  -2    3.81    4.29
  14  -5  -1   65.09    5.10
  14  -5   0   92.15    8.94
  14  -5   1   45.50    8.92
  14  -5   2   22.55   10.13
  14  -5   3   77.78   16.70
  14  -5   4  115.72   14.22
  14  -5   5    4.49   22.28
  14  -5   6    4.06   21.64
  14  -5   7   67.78   10.63
  14  -5   8   42.70   12.96
  14  -5   9   22.98    8.35
  14  -5  10   13.32    7.45
  14  -5  11    9.66   10.18
  14  -4 -18   29.75   10.31
  14  -4 -17   -6.75   13.27
  14  -4 -16   63.15   19.34
  14  -4 -15   43.49    8.33
  14  -4 -14   17.31    6.25
  14  -4 -13   21.83    6.75
  14  -4 -12   15.37   12.84
  14  -4 -11    2.93    6.32
  14  -4 -10    8.76    8.10
  14  -4  -9    4.49    5.85
  14  -4  -8   43.49   16.25
  14  -4  -7   30.24    5.96
  14  -4  -6   37.94    6.84
  14  -4  -5    9.48    4.27
  14  -4  -4   65.81    5.60
  14  -4  -3  115.06    8.71
  14  -4  -2  145.53    8.69
  14  -4  -1   13.54   11.94
  14  -4   0   95.94    9.41
  14  -4   1   -1.60    5.64
  14  -4   2   35.39    8.58
  14  -4   3    8.58    5.46
  14  -4   4   25.32    5.89
  14  -4   5    9.03    6.14
  14  -4   6   21.26    9.01
  14  -4   7    8.58    9.95
  14  -4   8  105.29   37.31
  14  -4   9   33.63   12.73
  14  -4  10   33.63   12.73
  14  -4  11   40.58    9.75
  14  -4  12   -5.21    7.00
  14  -4  13   24.42    9.05
  14  -4  14    9.21   13.77
  14  -4  15   -4.74    6.82
  14  -4  16    6.75   12.89
  14  -3 -20    6.07   10.81
  14  -3 -19    3.81   11.04
  14  -3 -18   15.14   10.40
  14  -3 -17   11.74   10.61
  14  -3 -16   21.83    8.28
  14  -3 -15   32.07    6.12
  14  -3 -14    0.68    7.47
  14  -3 -13    8.33   11.69
  14  -3 -12   11.94    6.95
  14  -3 -11   25.03    8.13
  14  -3 -10  152.87   11.51
  14  -3  -9   24.58    9.52
  14  -3  -8    3.81    4.76
  14  -3  -7   39.07    5.64
  14  -3  -6   49.65    6.34
  14  -3  -5   61.25    8.24
  14  -3  -4   44.69    7.02
  14  -3  -3   18.33    8.87
  14  -3  -2   91.30   11.19
  14  -3  -1   13.99    6.30
  14  -3   0  307.38   17.92
  14  -3   1  280.59   14.60
  14  -3   2  203.26   14.56
  14  -3   3  129.33   12.30
  14  -3   4  417.45   19.64
  14  -3   5    0.68    6.36
  14  -3   6   49.65    8.03
  14  -3   7   49.86   11.24
  14  -3   8   76.44   33.63
  14  -3   9   52.43   49.18
  14  -3  10   80.98   52.72
  14  -3  11    3.81    7.45
  14  -3  12   25.77    8.85
  14  -3  13   48.39   15.89
  14  -3  14    4.06   11.74
  14  -3  15    7.00   11.76
  14  -3  16   -8.15   12.68
  14  -3  17    5.21    9.48
  14  -3  18   86.76   19.59
  14  -2 -21   19.91    9.93
  14  -2 -20   52.66   10.90
  14  -2 -19    7.47   10.18
  14  -2 -18  105.29   48.10
  14  -2 -17   -4.94    6.55
  14  -2 -16   32.41   11.80
  14  -2 -15   23.70    5.85
  14  -2 -14   17.31    6.75
  14  -2 -13  109.64    8.17
  14  -2 -12   65.57   10.47
  14  -2 -11    0.23    5.71
  14  -2 -10   15.62    5.82
  14  -2  -9   17.31    7.63
  14  -2  -8   55.07    5.80
  14  -2  -7    5.42    4.76
  14  -2  -6    1.33    4.27
  14  -2  -5   25.03    9.48
  14  -2  -4    5.42    7.49
  14  -2  -3  176.77   11.19
  14  -2  -2  -12.68    9.30
  14  -2  -1   42.70    8.06
  14  -2   0  163.07   13.81
  14  -2   1   37.76    7.20
  14  -2   2   31.73    9.98
  14  -2   3   16.70    7.61
  14  -2   4   18.71   10.40
  14  -2   5   -2.26    9.25
  14  -2   6  192.70   12.93
  14  -2   7   36.47    7.63
  14  -2   8   26.70    7.92
  14  -2   9    6.30    8.60
  14  -2  10    5.64   11.98
  14  -2  11    1.33    6.30
  14  -2  12   24.13   17.13
  14  -2  13   89.02   11.92
  14  -2  14   51.14   11.83
  14  -2  15   39.43   13.59
  14  -2  16   12.68    8.55
  14  -2  17   86.76   37.22
  14  -2  18    3.81   12.39
  14  -2  19   38.87   21.17
  14  -1 -21   31.58   16.72
  14  -1 -20   64.84    8.96
  14  -1 -19   23.25    8.40
  14  -1 -18    2.26    7.00
  14  -1 -17    8.15    6.34
  14  -1 -16  597.45   25.71
  14  -1 -15   44.10    8.98
  14  -1 -14    0.90    5.17
  14  -1 -13   12.89    9.50
  14  -1 -12   33.81    5.94
  14  -1 -11    6.52    7.67
  14  -1 -10  180.79    8.89
  14  -1  -9   27.02   10.00
  14  -1  -8   69.02   11.98
  14  -1  -7   58.93    9.23
  14  -1  -6    4.94   10.56
  14  -1  -5    0.68    6.12
  14  -1  -4   81.52    8.96
  14  -1  -3    7.90   10.13
  14  -1  -2  262.29   15.57
  14  -1  -1   50.29   11.51
  14  -1   0  109.33   18.21
  14  -1   1   97.73   15.73
  14  -1   2   19.64   11.06
  14  -1   3   13.77    6.14
  14  -1   4  564.16   32.84
  14  -1   5  104.05   11.65
  14  -1   6   51.78   14.06
  14  -1   7   30.40   18.89
  14  -1   8   -5.64    9.28
  14  -1   9   15.98   14.65
  14  -1  10   -0.45    8.42
  14  -1  11   10.34   22.32
  14  -1  12   34.33    8.28
  14  -1  13   38.12    8.17
  14  -1  14   46.72   11.71
  14  -1  15   41.93   11.49
  14  -1  16   28.93   13.25
  14  -1  17   -4.29    8.35
  14  -1  18   19.25   24.26
  14  -1  19   16.95   16.07
  14  -1  20   21.26   12.62
  14   0 -22    3.14    9.43
  14   0 -20    5.21    5.42
  14   0 -18   21.83    7.02
  14   0 -16    4.06    9.68
  14   0 -14  222.54   12.10
  14   0 -12  170.83   14.54
  14   0 -10   11.53    7.45
  14   0  -8   34.33    6.52
  14   0  -6   36.29   10.31
  14   0  -4   26.86    8.10
  14   0  -2  153.99   13.43
  14   0   0  181.60   10.52
  14   0   2   94.48    9.64
  14   0   4  104.05   11.65
  14   0   6  686.46   28.35
  14   0   8   42.91   15.35
  14   0  10   21.26   24.40
  14   0  12   87.89   11.83
  14   0  14  472.57   26.14
  14   0  16    6.75    8.60
  14   0  18   15.37   17.79
  14   0  20    5.85    9.66
  14   1 -21    2.93   11.94
  14   1 -20   30.90   13.52
  14   1 -19   13.11    8.80
  14   1 -18   11.01    8.37
  14   1 -17   14.67    8.98
  14   1 -16  607.79   39.25
  14   1 -15   45.09    8.87
  14   1 -14   -9.95    9.66
  14   1 -13    2.48    6.77
  14   1 -12   37.76    9.23
  14   1 -11    3.36    6.05
  14   1 -10  211.93   14.87
  14   1  -9   18.98   10.20
  14   1  -8   42.52    8.24
  14   1  -7   36.29    6.70
  14   1  -6    7.90    5.82
  14   1  -5   -0.90    6.52
  14   1  -4   89.29    9.10
  14   1  -3   11.33    7.88
  14   1  -2  284.13   18.73
  14   1  -1   38.68   11.58
  14   1   0   64.84   12.10
  14   1   1   88.72   13.29
  14   1   2    9.21    6.57
  14   1   3   11.94    8.10
  14   1   4  525.59   26.86
  14   1   5  104.36   12.28
  14   1   6   37.01    6.95
  14   1   7   13.11   10.88
  14   1   8   -0.23   13.02
  14   1   9   40.20    9.52
  14   1  10   -4.29    7.92
  14   1  11   11.01   10.77
  14   1  12   41.14   17.54
  14   1  13   26.70   12.41
  14   1  14   21.26   18.01
  14   1  15   33.63    9.23
  14   1  16   55.75   14.81
  14   1  17   11.33    6.77
  14   1  18    5.85   11.92
  14   1  19   19.64   11.71
  14   1  20   38.68   11.58
  14   2 -21    1.13    5.67
  14   2 -20   38.68    8.22
  14   2 -19    4.94    7.43
  14   2 -18   68.03   10.90
  14   2 -17   60.33   27.06
  14   2 -16   53.08   19.70
  14   2 -15   24.13    6.79
  14   2 -14   19.91    9.93
  14   2 -13   72.81    9.23
  14   2 -12   70.53    8.82
  14   2 -11    8.33    9.01
  14   2 -10   22.39    5.69
  14   2  -9    3.81    6.97
  14   2  -8   43.29    7.31
  14   2  -7   22.55    7.43
  14   2  -6   -7.00   21.85
  14   2  -5   15.14   16.48
  14   2  -4   18.98    6.93
  14   2  -3  143.73    9.37
  14   2  -2   -6.07    6.73
  14   2  -1   59.40    5.80
  14   2   0  145.17    9.05
  14   2   1   28.93    6.79
  14   2   2   28.44    6.73
  14   2   3   16.21   10.16
  14   2   4   20.58    7.90
  14   2   5    8.76    8.35
  14   2   6  191.03   11.62
  14   2   7   18.33    9.91
  14   2   8   10.34    7.92
  14   2   9   25.03    7.97
  14   2  10    2.26    5.42
  14   2  11   10.63    9.01
  14   2  12   18.71    9.23
  14   2  13   79.11   14.96
  14   2  14   57.33   11.60
  14   2  15   66.54   18.62
  14   2  16    2.48    8.35
  14   2  17   44.89   19.12
  14   2  18   33.11   10.90
  14   2  19   14.67    7.47
  14   3 -20   14.67    8.98
  14   3 -19   -2.93    9.73
  14   3 -18    2.26    6.77
  14   3 -17   15.62   19.95
  14   3 -14   11.33    6.07
  14   3 -13    0.00    2.26
  14   3 -12   11.33    4.97
  14   3 -11   32.07    7.83
  14   3 -10  208.00   20.81
  14   3  -9   23.25    8.85
  14   3  -8   19.37    5.82
  14   3  -7   21.83    5.62
  14   3  -6   40.20    7.63
  14   3  -5   49.86    6.57
  14   3  -4   25.03    6.32
  14   3  -3    4.74    4.06
  14   3  -2  112.49    9.23
  14   3  -1   21.83    7.72
  14   3   0  292.28   15.93
  14   3   1  234.82   13.81
  14   3   2  175.19   10.34
  14   3   3  122.92   10.34
  14   3   4  446.16   23.47
  14   3   5   18.46    8.13
  14   3   6   52.23    6.07
  14   3   7   66.31    9.80
  14   3   8   77.78   10.61
  14   3   9   39.43    9.25
  14   3  10    3.81    6.09
  14   3  11   -8.33    5.64
  14   3  12   20.58    8.31
  14   3  13   51.78   16.00
  14   3  14    7.47    6.97
  14   3  15   20.31   15.98
  14   3  16   14.44    8.33
  14   3  17   14.67   15.08
  14   3  18   38.30   14.13
  14   4 -18   -9.48   10.18
  14   4 -17   39.81   15.73
  14   4 -16  114.09   16.05
  14   4 -15   54.84    8.89
  14   4 -14   -0.90    6.52
  14   4 -13   39.25    7.90
  14   4 -12    3.81    7.45
  14   4 -11    8.33    7.45
  14   4 -10   -0.68    4.99
  14   4  -9   19.37   10.31
  14   4  -8   51.14   10.31
  14   4  -7   20.72    6.57
  14   4  -6  186.50  112.85
  14   4  -5  269.62  181.08
  14   4  -4  338.14  197.80
  14   4  -3  103.44   10.09
  14   4  -2  146.98   10.20
  14   4  -1   12.89    6.14
  14   4   0   64.12    7.94
  14   4   1   -4.06    3.14
  14   4   2   53.08    7.65
  14   4   3   44.28   41.60
  14   4   4   28.60    9.01
  14   4   5   13.11    8.17
  14   4   6   35.39    5.89
  14   4   7   16.70   19.16
  14   4   8  101.93   13.34
  14   4   9   62.68   16.66
  14   4  10   15.98    8.53
  14   4  11   54.64   13.77
  14   4  12   -0.45   10.22
  14   4  13   45.30   11.94
  14   4  14    7.47    6.32
  14   4  15   33.81   10.83
  14   4  16   14.22   22.10
  14   5 -16   40.58   17.99
  14   5 -15    0.68    8.85
  14   5 -14   24.58   16.54
  14   5 -13   16.45    4.27
  14   5 -12    2.93    5.39
  14   5 -11   43.70   20.27
  14   5 -10   15.84    5.15
  14   5  -9   12.89    4.97
  14   5  -8    7.22    6.30
  14   5  -7   14.90    4.99
  14   5  -6   25.77    5.19
  14   5  -5   -1.33    4.49
  14   5  -4   17.31    6.75
  14   5  -3    9.66    5.42
  14   5  -2   10.63    6.07
  14   5  -1   84.52    7.74
  14   5   0  102.83    9.14
  14   5   1   59.40    6.48
  14   5   2   67.53   15.55
  14   5   3   81.52   11.67
  14   5   4   95.36    9.39
  14   5   5   27.02   19.21
  14   5   6   -1.33    7.20
  14   5   7   91.30   10.90
  14   5   8   28.28    9.28
  14   5   9    3.14    5.87
  14   5  10    7.90   11.74
  14   5  11   -7.65   11.71
  14   5  12    0.68   10.65
  14   5  13   34.51   11.47
  14   5  14   19.91   14.74
  14   6   7   29.09   14.92
  14   6   8    0.23    8.22
  14   6   9    0.45    9.30
  14   6  10    8.76    8.80
  14   6  11   35.93   13.52
  15  -6 -10   11.94   16.72
  15  -6  -9   66.78   12.53
  15  -6  -8   22.82   16.66
  15  -6  -7    9.21   11.67
  15  -6  -6   40.20   21.92
  15  -6  -5   13.11   11.10
  15  -6  -4   40.20   12.57
  15  -6  -3    4.94   13.77
  15  -6  -2   38.30   12.64
  15  -5 -14    5.64    5.42
  15  -5 -13    4.06    7.20
  15  -5 -12   30.06    6.59
  15  -5 -11   77.78   10.07
  15  -5 -10   13.99    5.17
  15  -5  -9   16.70    8.10
  15  -5  -8    3.36    5.39
  15  -5  -7    6.52    4.54
  15  -5  -6   11.74    5.67
  15  -5  -5    9.21   11.49
  15  -5  -4    8.33    5.37
  15  -5  -3   28.93    5.17
  15  -5  -2    4.06    7.45
  15  -5  -1   -1.13    8.17
  15  -5   0   10.34    6.77
  15  -5   1    9.03    7.40
  15  -5   2   19.64    7.85
  15  -5   3   41.93   16.54
  15  -5   5   16.95    9.28
  15  -5   6   10.63    8.33
  15  -5   7   19.91    9.52
  15  -5   8    2.73    8.85
  15  -5   9   20.31   21.40
  15  -5  10    6.75   17.81
  15  -4 -17   56.65   14.24
  15  -4 -16   -5.21    6.59
  15  -4 -15   72.56   12.28
  15  -4 -14   37.01   10.25
  15  -4 -13   65.57   14.60
  15  -4 -12   99.51   10.50
  15  -4 -11    7.22    8.17
  15  -4 -10    4.74    5.44
  15  -4  -9   51.78    9.07
  15  -4  -8    1.13    5.67
  15  -4  -7    4.49    4.06
  15  -4  -6   -1.78    8.08
  15  -4  -5    3.36    5.39
  15  -4  -4   -1.78    5.62
  15  -4  -3   41.93    9.73
  15  -4  -2   45.30    8.28
  15  -4  -1   15.62   11.51
  15  -4   0   30.90   17.54
  15  -4   1   16.21   12.21
  15  -4   2    3.36    5.17
  15  -4   3    9.21    6.12
  15  -4   7   62.92   11.19
  15  -4   8   17.83   11.53
  15  -4   9   -5.21    9.95
  15  -4  10   13.99   16.07
  15  -4  11    8.33   14.90
  15  -4  12   25.93   11.78
  15  -4  13    0.90    6.27
  15  -4  14    9.48   11.28
  15  -4  15    1.33    8.51
  15  -3 -19   13.99   11.92
  15  -3 -18   17.31   12.37
  15  -3 -17    7.22    7.02
  15  -3 -16   13.99    8.98
  15  -3 -15   16.21   10.77
  15  -3 -14    0.23    7.31
  15  -3 -13    4.06    6.52
  15  -3 -12   28.60   14.63
  15  -3 -11  197.74   12.68
  15  -3 -10   10.83    7.02
  15  -3  -9   25.32    6.79
  15  -3  -8   18.46   32.41
  15  -3  -7   10.63    6.36
  15  -3  -6   18.08    8.17
  15  -3  -5   61.03    5.87
  15  -3  -4   11.01    9.28
  15  -3  -3   46.11    6.93
  15  -3  -2   92.74    8.96
  15  -3  -1   10.83    9.01
  15  -3   0  222.11   15.66
  15  -3   1   84.52   10.50
  15  -3   2   22.55    9.71
  15  -3   3   42.91    8.85
  15  -3   4    7.65    8.55
  15  -3   5   59.86    7.67
  15  -3   6   24.58   10.43
  15  -3   7   37.94   14.99
  15  -3   8   39.25   15.44
  15  -3   9   -3.81   13.02
  15  -3  10   -1.13   11.08
  15  -3  11   39.99   10.65
  15  -3  12  344.80  229.87
  15  -3  13   64.60   15.93
  15  -3  14   31.73   14.74
  15  -3  15  207.15   28.55
  15  -3  16    3.14   11.51
  15  -3  17   69.02   10.99
  15  -2 -20   83.15    9.86
  15  -2 -19   22.39   10.68
  15  -2 -18   -4.49    7.00
  15  -2 -17  257.43   14.47
  15  -2 -16  136.25   14.38
  15  -2 -15   38.30    6.50
  15  -2 -14    5.42    6.57
  15  -2 -13  260.34   16.00
  15  -2 -12   36.11   10.11
  15  -2 -11    3.81    6.52
  15  -2 -10    5.21    6.79
  15  -2  -9   78.02    9.03
  15  -2  -8    2.03    5.19
  15  -2  -7   52.23   10.20
  15  -2  -6   17.83    9.01
  15  -2  -5   10.63    9.50
  15  -2  -4   15.37    6.84
  15  -2  -3    4.06   10.59
  15  -2  -2  235.74   13.84
  15  -2  -1   90.14   13.41
  15  -2   0    8.33    8.15
  15  -2   1  200.29   16.59
  15  -2   2   27.33    6.59
  15  -2   3   -4.29    6.79
  15  -2   4    2.73    8.60
  15  -2   5   37.38    6.79
  15  -2   6  152.12   14.08
  15  -2   7   23.99    7.52
  15  -2   8   11.33    6.57
  15  -2   9   -7.00    5.87
  15  -2  10   18.98   13.09
  15  -2  11    5.21    9.05
  15  -2  12   22.12   36.18
  15  -2  13   16.70    9.10
  15  -2  14    9.21    8.76
  15  -2  15   -9.21   12.86
  15  -2  16   -8.58    7.92
  15  -2  17   21.83   13.47
  15  -2  18   17.83    8.76
  15  -1 -20   40.20   16.00
  15  -1 -19    6.30   11.47
  15  -1 -18    2.48    8.35
  15  -1 -17  163.84   11.92
  15  -1 -16   22.82   14.49
  15  -1 -15   78.57    9.32
  15  -1 -14   16.70    7.49
  15  -1 -13   84.52    8.85
  15  -1 -12   -1.78    6.95
  15  -1 -11  202.84   11.98
  15  -1 -10   27.81   11.56
  15  -1  -9   26.86   11.06
  15  -1  -8   37.01   11.69
  15  -1  -7   10.83    6.14
  15  -1  -6   -0.90   10.59
  15  -1  -5  117.66   10.77
  15  -1  -4    6.30    9.89
  15  -1  -3   83.15   12.05
  15  -1  -2   -2.93    7.47
  15  -1  -1   11.74   11.53
  15  -1   0  114.75   10.29
  15  -1   1  421.76   25.91
  15  -1   2    7.65    6.97
  15  -1   3  163.45   14.22
  15  -1   4   34.69   11.51
  15  -1   5   25.77   10.68
  15  -1   6   50.71   13.05
  15  -1   7   66.54    8.58
  15  -1   9   17.56   10.20
  15  -1  10    9.95    9.01
  15  -1  11    5.21    7.67
  15  -1  12    4.29    6.97
  15  -1  13   32.93   16.21
  15  -1  14   70.53   43.40
  15  -1  15  155.87   18.01
  15  -1  16   -4.29   15.82
  15  -1  17   18.71    8.58
  15  -1  18    5.42   12.46
  15  -1  19  -13.99   14.94
  15   0 -21    2.48    8.58
  15   0 -19    7.00    6.52
  15   0 -17  306.32   17.88
  15   0 -15   30.74   14.83
  15   0 -13  446.79   26.68
  15   0 -11   13.99    9.66
  15   0  -9  140.14   13.88
  15   0  -7  122.26   10.29
  15   0  -5  103.75    9.48
  15   0  -3   92.45   11.26
  15   0  -1   55.30    8.03
  15   0   1   94.18   16.61
  15   0   3   83.44    8.24
  15   0   5  130.36   10.63
  15   0   7   34.69    7.97
  15   0   9   30.24   11.74
  15   0  11   18.46    8.13
  15   0  13  263.75   17.09
  15   0  15   21.83    8.98
  15   0  17   -4.29   10.59
  15   0  19    5.21   15.37
  15   1 -20   16.95   13.11
  15   1 -19    7.47   11.08
  15   1 -18   -7.47    8.13
  15   1 -17  134.16   18.10
  15   1 -16   18.98    6.82
  15   1 -15   70.28   15.87
  15   1 -14    0.90    6.97
  15   1 -13   40.38   11.26
  15   1 -12    2.93    6.32
  15   1 -11  248.83   18.01
  15   1 -10   16.45    7.20
  15   1  -9    5.85    9.23
  15   1  -8    1.60    7.92
  15   1  -7   29.57    7.02
  15   1  -6   -3.36    6.27
  15   1  -5  109.64    9.75
  15   1  -4    7.90   12.66
  15   1  -3   79.90    8.06
  15   1  -2   -0.68    5.44
  15   1  -1   14.22    6.34
  15   1   0  123.59   16.36
  15   1   1  380.26   19.34
  15   1   2   18.98    9.30
  15   1   3  146.98   13.47
  15   1   4   26.86    7.47
  15   1   5   35.03    9.77
  15   1   6   56.88    9.30
  15   1   7   67.03    9.59
  15   1   8   -3.59    6.32
  15   1   9   26.25    7.70
  15   1  10    6.75    7.65
  15   1  11    9.21    8.31
  15   1  12    2.48    9.23
  15   1  13   35.39   13.77
  15   1  14    0.23    7.31
  15   1  15  163.84   18.08
  15   1  16   -5.42    7.20
  15   1  17    7.22   14.72
  15   1  18   -8.58    8.80
  15   1  19  -35.03   15.12
  15   2 -20   22.12   10.18
  15   2 -19   -7.47    5.67
  15   2 -18   -2.93    7.20
  15   2 -17  232.52   28.42
  15   2 -16  132.44   22.82
  15   2 -15   52.88   19.46
  15   2 -14   -3.59   14.40
  15   2 -13  223.44   17.97
  15   2 -12   45.91   11.80
  15   2 -11    5.42    5.17
  15   2 -10   19.37    8.33
  15   2  -9   69.52   11.01
  15   2  -8    3.14    5.37
  15   2  -7   46.31    6.34
  15   2  -6   16.45    7.92
  15   2  -5   -0.68    7.47
  15   2  -4   25.32    6.95
  15   2  -3    2.26    6.77
  15   2  -2  218.09   13.75
  15   2  -1   65.09    8.73
  15   2   0   33.11    5.35
  15   2   1  163.84   11.15
  15   2   2   13.54    7.40
  15   2   3    7.90    9.03
  15   2   4    5.85    5.89
  15   2   5   51.35    8.19
  15   2   6  125.60   12.80
  15   2   7   21.26    5.39
  15   2   8   14.22    6.34
  15   2   9    9.03    9.21
  15   2  10   19.37   10.59
  15   2  11    8.76    7.47
  15   2  12   -7.65    6.97
  15   2  13    5.64    8.55
  15   2  14    2.26   12.64
  15   2  15    6.52   13.50
  15   2  16   -2.93   20.54
  15   2  17    9.03    9.03
  15   2  18   -4.06   10.34
  15   3 -19    0.00    2.26
  15   3 -18   10.34    8.78
  15   3 -17   37.20   14.85
  15   3 -16   17.31    8.13
  15   3 -15   19.37    8.98
  15   3 -14    4.49    6.30
  15   3 -13    1.33    7.40
  15   3 -12   -2.73    6.12
  15   3 -11  223.44   38.62
  15   3 -10   27.96   20.49
  15   3  -9   10.63    5.69
  15   3  -8    2.03   11.06
  15   3  -7   42.70   16.09
  15   3  -6   28.60   11.74
  15   3  -5   62.45   10.20
  15   3  -4   13.99    4.72
  15   3  -3   58.25    6.88
  15   3  -2   85.65    8.35
  15   3  -1   -1.78    5.82
  15   3   0  209.31   13.90
  15   3   1   72.04    8.17
  15   3   2   22.98    4.76
  15   3   3   52.43    8.71
  15   3   4   22.55   10.99
  15   3   5   64.37   13.50
  15   3   6   13.32   11.08
  15   3   7   15.98    6.73
  15   3   8   30.90    9.68
  15   3   9   16.95    8.17
  15   3  10   37.01   13.16
  15   3  11   41.14   11.94
  15   3  12   66.54   12.50
  15   3  13   52.23   10.20
  15   3  14    7.90   17.81
  15   3  15  252.15   30.54
  15   3  16   -6.07   10.81
  15   3  17   80.44   17.24
  15   4 -17   52.66   10.90
  15   4 -16    4.94    5.62
  15   4 -15  129.33   11.96
  15   4 -14   60.80   28.35
  15   4 -13   81.79   11.96
  15   4 -12  107.14   12.75
  15   4 -11   20.72    9.43
  15   4 -10    2.93    4.54
  15   4  -9   54.19    9.07
  15   4  -8   16.70    8.10
  15   4  -7    6.75    6.57
  15   4  -6   -4.06    7.67
  15   4  -5    2.73    7.49
  15   4  -4   -7.47    5.42
  15   4  -3   47.55    6.64
  15   4  -2   56.42    6.55
  15   4  -1   14.44    5.15
  15   4   0   17.56    9.07
  15   4   1   29.75    9.66
  15   4   2   17.83   14.72
  15   4   3   -2.03    7.47
  15   4   4   18.98    7.47
  15   4   5    9.66   23.92
  15   4   6   38.68   17.56
  15   4   7   60.80    7.49
  15   4   8   12.46    8.17
  15   4   9   -4.94   10.16
  15   4  10   27.81    9.66
  15   4  11   -6.75    9.68
  15   4  12   -1.13    8.85
  15   4  13   13.32   30.27
  15   4  14   -2.26    4.97
  15   4  15    2.93    8.13
  15   5 -11  121.61   11.92
  15   5 -10   35.93    6.30
  15   5  -9   53.08   18.82
  15   5  -8   -0.68   20.40
  15   5  -7    3.14    4.27
  15   5  -6    7.65    4.99
  15   5  -5    2.26    4.29
  15   5  -4   16.95    6.07
  15   5  -3   13.32    6.59
  15   5  -2    5.42    4.97
  15   5  -1   15.84    7.06
  15   5   0    2.93    4.06
  15   5   1   10.83    9.68
  15   5   2    9.48    4.99
  15   5   3    0.90    5.87
  15   5   4    6.52    8.13
  15   5   5   45.50    8.31
  15   5   6    8.76    6.05
  15   5   7   33.45    7.65
  15   5   8   -4.29    4.54
  15   5   9   12.14    8.80
  15   5  10    4.94    9.48
  15   5  11   39.25   11.28
  15   5  12   85.09   13.02
  16  -6  -8    8.33   12.14
  16  -6  -7   37.01   17.38
  16  -6  -6    0.68   10.20
  16  -6  -5   14.22   12.01
  16  -6  -4  119.28   38.39
  16  -6  -3  124.92   18.15
  16  -5 -13   19.25    6.07
  16  -5 -12    6.30    6.57
  16  -5 -11    3.81    4.29
  16  -5 -10    1.78    6.30
  16  -5  -9   -3.36    3.59
  16  -5  -8    0.00    2.26
  16  -5  -7   -0.90    2.93
  16  -5  -6   27.49    8.35
  16  -5  -5   -8.58    6.52
  16  -5  -4   -5.42    5.87
  16  -5  -3   32.93    7.58
  16  -5  -2   -0.23    6.64
  16  -5   1   -2.73    6.12
  16  -5   2    5.42    6.79
  16  -5   3   -1.13    6.34
  16  -5   4   12.68    5.67
  16  -5   5   12.68    6.09
  16  -5   6    3.81    6.09
  16  -5   7   31.39   10.61
  16  -5   8   -2.48    5.64
  16  -5   9   14.44   10.86
  16  -4 -15    4.94    8.08
  16  -4 -14   -3.81    8.33
  16  -4 -13   -1.60    6.09
  16  -4 -12   12.89    9.07
  16  -4 -11    3.14    5.87
  16  -4 -10   14.44    8.80
  16  -4  -9    1.78    4.27
  16  -4  -8   -3.36    7.43
  16  -4  -7    4.74    7.00
  16  -4  -6   33.45    7.65
  16  -4  -5    8.15    4.54
  16  -4  -4   53.08   11.17
  16  -4  -3   28.44   11.22
  16  -4  -2   12.14    7.65
  16  -4  -1  115.38   10.97
  16  -4   0   11.53    7.65
  16  -4   3   63.40   10.52
  16  -4   4   10.13    7.65
  16  -4   5   22.82    7.47
  16  -4   6    4.74    6.82
  16  -4   7    7.22   43.56
  16  -4   8   66.06   57.64
  16  -4   9   29.09    9.23
  16  -4  10   42.12   14.42
  16  -4  11    7.65   11.71
  16  -4  12   10.34   17.79
  16  -4  13    5.85   12.64
  16  -3 -17   59.40   11.58
  16  -3 -16   52.88    9.39
  16  -3 -15   69.76   11.56
  16  -3 -14    7.22    6.55
  16  -3 -13   28.60    7.72
  16  -3 -12   -4.06    5.87
  16  -3 -11   28.93    8.55
  16  -3 -10   62.20   12.80
  16  -3  -9   13.77   16.05
  16  -3  -8    0.68    6.12
  16  -3  -7   26.70    7.92
  16  -3  -6   21.42   17.38
  16  -3  -5   11.74    7.00
  16  -3  -4   19.25    7.52
  16  -3  -3   74.37   10.11
  16  -3  -2  124.92    9.75
  16  -3  -1   32.25    7.85
  16  -3   0   26.70   10.25
  16  -3   1  209.74   13.05
  16  -3   2   17.31    8.37
  16  -3   3    4.49    5.85
  16  -3   7    5.64   11.06
  16  -3  10    8.33   22.10
  16  -3  11   36.29   10.86
  16  -3  12   22.12    9.05
  16  -3  13   69.76   26.09
  16  -3  14   10.63    8.62
  16  -3  15    6.52   13.27
  16  -2 -19   23.70   20.04
  16  -2 -18  161.15   44.62
  16  -2 -17   15.37    9.30
  16  -2 -16   11.74    8.33
  16  -2 -15   13.32    5.91
  16  -2 -14    5.42    7.70
  16  -2 -13   12.89    8.10
  16  -2 -12  283.12   17.20
  16  -2 -11    6.07    6.73
  16  -2 -10   38.12   15.03
  16  -2  -9   -0.23    7.76
  16  -2  -8   18.71   12.35
  16  -2  -7   62.20   10.43
  16  -2  -6  116.35   10.70
  16  -2  -5   18.33   10.16
  16  -2  -4  113.46   10.25
  16  -2  -3  102.83   17.67
  16  -2  -2  250.26   17.58
  16  -2  -1   -2.73   13.16
  16  -2   0  104.36   17.49
  16  -2   1  114.41   13.50
  16  -2   2   21.42   11.26
  16  -2   3   27.33   10.20
  16  -2   4  115.72   10.68
  16  -2   5  166.54   13.18
  16  -2   6   19.64    9.32
  16  -2   7   30.24   43.13
  16  -2   8  151.76   15.17
  16  -2   9   40.38    8.98
  16  -2  10   16.70    9.71
  16  -2  11    7.22   10.83
  16  -2  12   54.84   21.58
  16  -2  13    9.21    7.65
  16  -2  14   15.84   10.40
  16  -2  15   -1.78   12.14
  16  -2  16   25.32   11.04
  16  -2  17   24.42   13.07
  16  -1 -19   -2.48    6.77
  16  -1 -18  103.44   11.31
  16  -1 -17  133.48   18.39
  16  -1 -16   83.98   40.47
  16  -1 -15   38.87    7.31
  16  -1 -14   12.14    7.22
  16  -1 -13   63.15   10.27
  16  -1 -12   38.30   10.22
  16  -1 -11    0.00    2.26
  16  -1 -10  147.72   12.77
  16  -1  -9   18.46    8.78
  16  -1  -8   21.69   10.36
  16  -1  -7    8.58    7.22
  16  -1  -6   95.94   15.89
  16  -1  -5    1.13    9.30
  16  -1  -4   45.50   32.23
  16  -1  -3    3.14   19.12
  16  -1  -2  169.27   35.95
  16  -1  -1   18.98    6.82
  16  -1   0   45.09    9.68
  16  -1   1   90.44    7.99
  16  -1   2    7.00   14.22
  16  -1   3   82.61   22.39
  16  -1   4   33.45   16.50
  16  -1   5    5.85   17.81
  16  -1   6   29.09    9.73
  16  -1   7   26.70    7.45
  16  -1   8   79.11   12.03
  16  -1   9    8.33   21.40
  16  -1  10  116.35   16.86
  16  -1  11    0.23    8.44
  16  -1  13   16.95   14.22
  16  -1  14    9.48    9.25
  16  -1  15   -9.48   11.76
  16  -1  16   76.20   83.15
  16  -1  17   83.15   15.62
  16   0 -20    2.73    5.21
  16   0 -18   34.33   18.30
  16   0 -16   16.21   10.40
  16   0 -14   23.70   11.26
  16   0 -12   92.74   12.73
  16   0 -10    6.07    6.73
  16   0  -8   19.91   10.45
  16   0  -6  161.92   14.92
  16   0  -4   37.94    9.07
  16   0  -2  114.75    9.01
  16   0   0  227.96   12.26
  16   0   2    1.78   14.38
  16   0   4  163.45   15.75
  16   0   6  334.28   18.69
  16   0   8  175.98   13.16
  16   0  10   53.54   10.99
  16   0  12  228.86   18.19
  16   0  14   13.32   16.45
  16   0  16  219.88   29.41
  16   1 -19   12.14    7.22
  16   1 -18   58.25   13.52
  16   1 -17   68.03   13.88
  16   1 -16   11.94   10.79
  16   1 -15   30.40    9.93
  16   1 -14    9.03    9.93
  16   1 -13   68.27   13.41
  16   1 -12   38.87   10.31
  16   1 -11    4.29    7.92
  16   1 -10  100.41   12.96
  16   1  -9   -7.90    6.07
  16   1  -8    7.47    9.28
  16   1  -7   14.44    6.50
  16   1  -6   89.02    9.34
  16   1  -5   -1.33   10.09
  16   1  -4    8.33   17.76
  16   1  -3   14.67   14.85
  16   1  -2  137.68   25.73
  16   1  -1    5.42   16.93
  16   1   0   52.00   20.81
  16   1   1  111.54   13.65
  16   1   2    9.66    7.02
  16   1   3    1.78   10.77
  16   1   4   20.72    6.30
  16   1   5   -5.42    5.87
  16   1   6   20.99   10.18
  16   1   7   46.92   21.62
  16   1   8   96.24   13.56
  16   1   9   20.99   11.56
  16   1  10  161.92   20.65
  16   1  11   50.92   31.94
  16   1  12  231.61   25.14
  16   1  13    2.48    8.82
  16   1  14   25.03   13.07
  16   1  15   23.70   17.40
  16   1  16    9.48    9.71
  16   1  17   93.30   13.36
  16   2 -18   72.04   14.29
  16   2 -17   16.21    7.38
  16   2 -16   15.84    6.82
  16   2 -15   26.25   12.01
  16   2 -14   -6.52    5.60
  16   2 -13   10.63   23.02
  16   2 -12  297.45   22.80
  16   2 -11   16.45   12.68
  16   2 -10   -3.36    5.85
  16   2  -9   -3.81   10.34
  16   2  -8    6.52    7.67
  16   2  -7   54.42    6.66
  16   2  -6   95.36    9.39
  16   2  -5   31.73   10.34
  16   2  -4  151.76   14.06
  16   2  -3   74.37    9.32
  16   2  -2  206.70   14.26
  16   2  -1   -8.58    8.80
  16   2   0   74.37    9.59
  16   2   1  126.96    9.14
  16   2   2   33.45    6.77
  16   2   3   12.46   11.56
  16   2   4  128.31   10.20
  16   2   5  175.98   11.15
  16   2   6    2.73    8.40
  16   2   7   26.41   23.31
  16   2   8  141.22   14.29
  16   2   9   36.29    8.15
  16   2  10   -3.81    7.85
  16   2  11   -2.03    8.15
  16   2  12   26.25   12.17
  16   2  13   20.04   16.68
  16   2  14   10.13   23.63
  16   2  15   26.25   13.86
  16   2  16    3.36   16.86
  16   2  17   30.40   20.54
  16   3 -16   53.74    9.48
  16   3 -15   38.87    9.55
  16   3 -14    8.58   11.71
  16   3 -13   39.07    8.08
  16   3 -12   15.62   10.56
  16   3 -11   29.41    6.36
  16   3 -10   51.14    7.52
  16   3  -9   12.68   22.14
  16   3  -8   23.70   31.60
  16   3  -7   34.15   20.36
  16   3  -6   -3.59    4.49
  16   3  -5   -2.73    5.21
  16   3  -4   12.46    8.37
  16   3  -3   79.11   10.16
  16   3  -2  168.87   14.06
  16   3  -1   30.06   14.49
  16   3   0   18.98   14.26
  16   3   1  223.89   15.73
  16   3   2   24.87   10.63
  16   3   3   23.25   14.92
  16   3   4   17.56   11.33
  16   3   6   49.02    8.19
  16   3   7    9.66   13.09
  16   3   8   74.10   12.93
  16   3   9    7.22   21.64
  16   3  10   61.25   18.82
  16   3  11   15.62   10.20
  16   3  12   78.30   21.01
  16   3  13   -2.03   14.44
  16   3  14   27.02    8.60
  16   3  15   31.73   12.86
  16   4 -15   -0.90    4.72
  16   4 -14   22.98   14.26
  16   4 -13    8.58    5.64
  16   4 -12   25.03   29.32
  16   4 -11   12.46    5.42
  16   4 -10   16.95    5.82
  16   4  -9    9.66    7.20
  16   4  -8   -4.06    8.60
  16   4  -7  -10.83    6.73
  16   4  -6   13.99    6.07
  16   4  -5   12.68    6.09
  16   4  -4   44.49    7.22
  16   4  -3   18.98    6.27
  16   4  -2    1.78    6.07
  16   4  -1  120.61    9.23
  16   4   1    1.60    6.09
  16   4   2   97.41   10.09
  16   4   3   50.49    8.53
  16   4   4   11.33    5.46
  16   4   5   40.38    9.16
  16   4   6   11.53   11.74
  16   4   7   15.98   11.04
  16   4   8   20.31    7.18
  16   4   9   29.09   21.24
  16   4  10  160.77   91.43
  16   4  11   34.15    7.72
  16   4  12    0.68    5.67
  16   4  13   20.58   28.21
  16   5  -7    3.81    5.39
  16   5  -6   -1.78    6.07
  16   5  -5   -1.33    6.30
  16   5  -4   -0.23    5.71
  16   5  -3   44.10    8.78
  16   5  -2   -0.23    3.43
  16   5  -1   54.19   12.82
  16   5   0   39.99   11.78
  16   5   1   19.64    9.32
  16   5   2   15.62    6.52
  16   5   3   12.14    7.65
  16   5   4    5.64    5.64
  16   5   5   13.32    5.15
  16   5   6   21.83   11.08
  16   5   7   71.03   30.13
  16   5   8    8.15   15.19
  16   5   9    2.48   11.51
  16   5  10   15.98   17.76
  16   5  11   20.31   13.81
  17  -5 -10   -4.94    4.47
  17  -5  -9    2.48    6.12
  17  -5  -8    1.60    3.41
  17  -5  -7   16.70   10.43
  17  -5  -6  117.00   20.81
  17  -5  -5    0.45    9.77
  17  -5  -4   38.12   11.13
  17  -5  -3    1.60    5.19
  17  -5  -2    2.93    7.67
  17  -5  -1   85.36   17.49
  17  -5   0    0.23    5.26
  17  -5   8   27.49   19.39
  17  -4 -14   11.01    9.89
  17  -4 -13    0.45    4.56
  17  -4 -12    3.59    6.32
  17  -4 -11    6.52    6.07
  17  -4 -10    4.94    4.94
  17  -4  -9   12.68    7.49
  17  -4  -8   -2.93    3.86
  17  -4  -7   30.74   11.49
  17  -4  -5   10.63    7.94
  17  -4  -4    4.29    7.92
  17  -4  -3  334.83  167.69
  17  -4  -2  653.81  256.60
  17  -4  -1  372.11  216.20
  17  -4   0   20.58    8.31
  17  -4   1   10.13    7.65
  17  -4   2   32.93    8.28
  17  -4   3   -2.26    8.35
  17  -4   4    6.75    7.18
  17  -4   5   11.74   10.18
  17  -4   6    7.65    6.07
  17  -4   7   16.45    6.59
  17  -4   8    9.48   10.18
  17  -4   9   33.81   11.35
  17  -4  10    0.00    2.26
  17  -4  11   15.84   12.21
  17  -4  12    8.76   12.62
  17  -3 -16   37.94   10.92
  17  -3 -15   11.94   13.70
  17  -3 -14    3.81    9.68
  17  -3 -13   -1.13    8.17
  17  -3 -12   18.08    7.92
  17  -3 -11    4.06    6.12
  17  -3 -10   29.75   14.42
  17  -3  -9   44.10    6.79
  17  -3  -8    8.76    7.47
  17  -3  -7    6.75   10.16
  17  -3  -6  114.41   52.38
  17  -3  -5   25.03   35.93
  17  -3  -4   26.41    9.73
  17  -3  -3   43.70   11.51
  17  -3  -1  277.59   20.02
  17  -3   0    4.49    7.90
  17  -3   1   13.11    7.52
  17  -3   4   22.39    9.66
  17  -3   5  160.77   14.11
  17  -3   6   35.93    7.02
  17  -3   7   -7.00    7.47
  17  -3   8    7.47   15.12
  17  -3   9   37.76   26.59
  17  -3  10   47.35   35.77
  17  -3  11    3.14    8.78
  17  -3  12    6.75    9.21
  17  -3  13   -2.48   15.35
  17  -3  14    3.81    8.58
  17  -2 -17    0.68   10.43
  17  -2 -16   11.74   11.94
  17  -2 -15   -0.23   10.04
  17  -2 -14   -0.45    7.04
  17  -2 -13   18.33    7.47
  17  -2 -12   19.91    6.16
  17  -2 -11   -5.21    7.47
  17  -2 -10    6.30   13.05
  17  -2  -9    7.65    8.15
  17  -2  -8   27.81   21.24
  17  -2  -7   60.56   18.01
  17  -2  -6   44.69   21.69
  17  -2  -5   69.02   30.94
  17  -2  -4  199.00   12.71
  17  -2  -3  135.56   11.19
  17  -2  -2   41.35   10.63
  17  -2  -1   64.37    9.16
  17  -2   0   40.38    9.16
  17  -2   3    7.22    6.05
  17  -2   4    4.06    6.30
  17  -2   5   -7.22    7.43
  17  -2   6   66.54   10.79
  17  -2   7   14.44   10.63
  17  -2   8   -2.73    8.40
  17  -2   9   44.89   11.08
  17  -2  10   17.56   10.59
  17  -2  11   47.35   26.88
  17  -2  12   24.58   20.70
  17  -2  13   32.07    9.52
  17  -2  14   42.70   12.96
  17  -2  15   50.06   21.69
  17  -1 -18   55.52   10.29
  17  -1 -17   40.58   20.47
  17  -1 -16   12.14    7.43
  17  -1 -15  105.90   11.44
  17  -1 -14    0.90   11.24
  17  -1 -13   53.31   13.61
  17  -1 -12   61.50    8.24
  17  -1 -11  111.22   15.21
  17  -1 -10   27.81   11.24
  17  -1  -9   -9.66    6.73
  17  -1  -8    2.26   10.61
  17  -1  -7   13.54    6.52
  17  -1  -6   37.94   11.47
  17  -1  -5    1.60    8.15
  17  -1  -4   10.34   11.01
  17  -1  -3   54.19   11.51
  17  -1  -2   25.48    8.80
  17  -1  -1  401.65   24.69
  17  -1   0   -5.64    7.43
  17  -1   1   45.91    8.76
  17  -1   2   11.01   10.59
  17  -1   3   36.83   14.22
  17  -1   4   16.70   13.99
  17  -1   5  413.17   21.37
  17  -1   6   11.33   11.13
  17  -1   7   20.04   13.72
  17  -1   8   -3.59   10.36
  17  -1   9   74.10   15.53
  17  -1  10   34.15    8.42
  17  -1  11   19.91    8.98
  17  -1  12   18.33   12.48
  17  -1  13   12.14    7.65
  17  -1  14   37.20   35.37
  17  -1  15   19.37   26.32
  17  -1  16    2.03   11.33
  17   0 -17   15.84    8.13
  17   0 -15   -2.93    9.01
  17   0 -13   20.72    7.38
  17   0 -11   11.74   17.20
  17   0  -9    5.64    6.77
  17   0  -7   25.93    7.20
  17   0  -5   26.86    7.63
  17   0  -3   87.59    8.71
  17   0  -1   20.58    6.27
  17   0   1  149.91   13.61
  17   0   3    0.45    7.27
  17   0   5   22.39   10.25
  17   0   7   11.53   10.40
  17   0   9   72.56   12.80
  17   0  11   -3.14   13.95
  17   0  13   23.99    9.57
  17   0  15  -19.25    9.23
  17   1 -18    6.07    7.40
  17   1 -17   25.32    8.78
  17   1 -16   11.94    7.90
  17   1 -15  144.09   22.01
  17   1 -14    4.74   10.13
  17   1 -13   27.33   11.94
  17   1 -12   71.28   13.70
  17   1 -11  116.69   12.98
  17   1 -10   20.58   12.68
  17   1  -9    4.94    7.02
  17   1  -8   15.62   11.51
  17   1  -7   -4.94   10.56
  17   1  -6   30.24    7.43
  17   1  -5    6.07   10.13
  17   1  -4   -3.59    7.18
  17   1  -3   48.80   10.70
  17   1  -2   25.77    7.47
  17   1  -1  322.30   17.81
  17   1   0   -3.36    6.05
  17   1   1   59.16   11.10
  17   1   2   40.76   21.67
  17   1   3   40.38   23.86
  17   1   4    9.03    6.77
  17   1   5  385.54   24.78
  17   1   6   16.21    9.68
  17   1   7   18.46    9.68
  17   1   8   45.50   17.83
  17   1   9   61.98   18.44
  17   1  10   28.93   12.59
  17   1  11   26.25   12.62
  17   1  12   30.06   13.34
  17   1  13    5.64   13.77
  17   1  14   25.93   17.00
  17   1  15    4.49    8.98
  17   1  16   11.74   13.27
  17   2 -17    5.64   12.62
  17   2 -16    0.68    6.36
  17   2 -15    3.36   19.12
  17   2 -14   -7.47    7.72
  17   2 -13    6.07    7.40
  17   2 -12   27.02   10.63
  17   2 -11  -14.90    6.73
  17   2 -10   20.58   14.04
  17   2  -9   23.25   10.59
  17   2  -8    4.94   13.09
  17   2  -7   39.43    8.10
  17   2  -6   13.32    7.67
  17   2  -5   33.11   12.46
  17   2  -4  208.43   13.45
  17   2  -3  135.56    9.10
  17   2  -2   44.69   10.45
  17   2  -1   48.59    7.74
  17   2   0   56.42   15.57
  17   2   1   30.74   17.33
  17   2   2  119.94   10.86
  17   2   3   28.44    9.93
  17   2   4    8.58    9.68
  17   2   5   -0.90    8.10
  17   2   6   62.20   24.87
  17   2   7    0.90   11.47
  17   2   8   17.83   13.56
  17   2   9   57.78   12.80
  17   2  10   -5.64   12.41
  17   2  11   21.83   11.51
  17   2  12   20.58   23.04
  17   2  13   18.98    7.47
  17   2  14   75.65   14.38
  17   2  15   26.70    9.77
  17   3 -16    9.95   11.56
  17   3 -15   18.33   12.48
  17   3 -14   20.99    8.53
  17   3 -13   15.14   12.39
  17   3 -12   34.51    9.01
  17   3 -11   18.98   15.19
  17   3 -10   24.58   10.43
  17   3  -9   45.30    9.71
  17   3  -8   12.46    8.37
  17   3  -7   11.01    8.98
  17   3  -6   80.98   10.54
  17   3  -5   -7.22    4.51
  17   3  -4   24.42    7.27
  17   3  -3   63.15   11.47
  17   3  -2   28.44   15.55
  17   3  -1  320.70   25.82
  17   3   0   20.72   15.60
  17   3   1   23.99   18.98
  17   3   2  111.22    8.24
  17   3   3   50.71   32.73
  17   3   4   22.39   10.38
  17   3   5  196.04   15.98
  17   3   6   59.63    8.82
  17   3   7   11.01    7.18
  17   3   8    9.21   10.59
  17   3   9   18.98   11.13
  17   3  10    3.59   11.04
  17   3  11   28.60   14.63
  17   3  12   20.04    7.40
  17   3  13    6.52   11.06
  17   3  14   27.96   16.84
  17   4 -14   -2.26    6.55
  17   4 -13   23.25   10.43
  17   4 -12   19.64   11.33
  17   4 -11  -10.13    7.65
  17   4 -10   17.20   19.93
  17   4  -9   16.45    9.25
  17   4  -8   -2.03    8.58
  17   4  -7   65.57    9.98
  17   4  -6    9.03    6.95
  17   4  -5    0.23    8.44
  17   4  -4   20.99    9.10
  17   4  -3   17.31    9.25
  17   4  -2   27.81    9.19
  17   4  -1   86.49   14.81
  17   4   0   10.63   12.84
  17   4   1   29.75   25.89
  17   4   2   50.71   29.52
  17   4   3   22.82    8.33
  17   4   4    1.13    7.24
  17   4   5   27.49   10.40
  17   4   6   29.09    8.42
  17   4   7   23.25   16.09
  17   4   8   -2.93   13.54
  17   4   9   77.23   22.98
  17   4  10   20.72   13.27
  17   4  11   26.41   10.81
  17   4  12   21.69   13.16
  17   5  -5   18.98   10.34
  17   5  -4  100.41   11.44
  17   5  -3   30.24    8.42
  17   5  -2   22.98    5.62
  17   5  -1  118.63   13.43
  17   5   0    9.48    5.19
  17   5   1   -4.94    5.42
  17   5   2   15.62    7.94
  17   5   3    2.26    6.09
  17   5   4   25.03   11.13
  17   5   5   56.65   23.29
  17   5   6   21.83   13.47
  17   5   7   12.68    9.10
  17   5   8    6.75   14.67
  18  -5  -7    2.73    3.88
  18  -5  -4   -2.03    7.00
  18  -5  -3   -3.36    7.88
  18  -5  -2   -0.23    7.54
  18  -5  -1    7.00   11.28
  18  -5   0    5.85    8.80
  18  -5   1    5.42    7.90
  18  -5   2   -1.13    6.12
  18  -5   3   -7.65    4.74
  18  -5   4   15.37    7.18
  18  -5   5    3.59    5.62
  18  -4 -12    6.75    6.95
  18  -4 -11   -1.60    5.64
  18  -4 -10   -5.42    6.09
  18  -4  -9   -2.93    4.74
  18  -4  -8    0.23    5.26
  18  -4  -5   26.70    7.61
  18  -4  -4    2.03    6.34
  18  -4  -3   -2.03    6.34
  18  -4  -2   -9.03    5.60
  18  -4  -1    6.07    7.40
  18  -4   3    2.26   10.83
  18  -4   4   29.57   10.45
  18  -4   9    8.76    6.75
  18  -3 -14   25.03    9.03
  18  -3 -13    8.33    7.45
  18  -3 -12   14.44    9.71
  18  -3 -11    9.95    5.69
  18  -3 -10   38.12   25.41
  18  -3  -9   22.39    8.82
  18  -3  -8   30.06    8.73
  18  -3  -7    7.22    9.46
  18  -3  -6    8.58   11.96
  18  -3  -5    0.23    7.31
  18  -3  -4  -11.53    6.73
  18  -3  -3   34.69    7.24
  18  -3  -2  -13.11    6.52
  18  -3  -1   68.27   13.16
  18  -3   0   23.70    8.62
  18  -3   1   12.14    7.43
  18  -3   2    8.15    8.15
  18  -3   3    2.26    7.00
  18  -3   4   47.35    9.73
  18  -3   5   -0.45    7.27
  18  -3   6   10.13    7.65
  18  -3   7    6.07    7.92
  18  -3   8   48.80   24.98
  18  -3   9    5.21   15.37
  18  -3  10   17.20   15.57
  18  -3  11   14.67   10.13
  18  -3  12   12.68   12.84
  18  -2 -16   -7.65   16.70
  18  -2 -15   15.37    9.89
  18  -2 -14   26.70    7.92
  18  -2 -13   16.95    8.78
  18  -2 -10  157.36   20.74
  18  -2  -9   -6.30    9.05
  18  -2  -8    1.33   11.89
  18  -2  -7   12.89    9.50
  18  -2  -6   68.77   13.95
  18  -2  -5   20.72   12.86
  18  -2  -4   45.09   15.73
  18  -2  -3   -2.26    8.13
  18  -2  -2   -7.00    7.22
  18  -2   1   -4.94    6.27
  18  -2   2    2.93    8.60
  18  -2   3   17.31   12.12
  18  -2   4   85.09   17.18
  18  -2   5    2.48    8.82
  18  -2   6  104.36   13.81
  18  -2   7   -3.36   11.67
  18  -2   8   14.44    8.80
  18  -2   9    9.95   14.51
  18  -2  10   35.93   23.95
  18  -2  11   10.63   13.52
  18  -2  12    1.13   10.20
  18  -2  13   30.40   13.25
  18  -1 -16  104.97   16.00
  18  -1 -15  172.41  103.37
  18  -1 -14    1.13    9.52
  18  -1 -13    3.59   10.59
  18  -1 -12   39.81    8.71
  18  -1 -11   11.94   12.86
  18  -1 -10   -3.36   23.13
  18  -1  -9   17.56    9.19
  18  -1  -8   27.33   13.05
  18  -1  -7   12.14   10.36
  18  -1  -6   46.31   13.50
  18  -1  -5   -4.74   13.75
  18  -1  -4   21.69   10.63
  18  -1  -3   10.34   14.02
  18  -1  -2   33.45   10.09
  18  -1  -1   31.06    9.71
  18  -1   0  427.95   21.76
  18  -1   1   22.39   12.23
  18  -1   2  108.38   10.63
  18  -1   3    9.48   11.28
  18  -1   4   12.89    8.10
  18  -1   5   18.98    9.95
  18  -1   6  211.93  103.23
  18  -1   7    1.33    7.61
  18  -1   8  -12.14    7.02
  18  -1   9   37.94   14.63
  18  -1  10   14.44    9.03
  18  -1  11   25.48   14.87
  18  -1  12   38.87   17.81
  18  -1  13   76.72   13.16
  18  -1  14   38.12   14.47
  18   0 -16    0.45    7.04
  18   0 -14    9.48   14.44
  18   0 -12   -4.29    7.65
  18   0 -10   30.40   11.42
  18   0  -8   35.03   25.62
  18   0  -6   56.20   10.81
  18   0  -4   19.25   11.74
  18   0  -2   16.21   10.40
  18   0   0   49.86   12.30
  18   0   2  161.15   12.98
  18   0   4   14.44    8.58
  18   0   6   85.92   16.16
  18   0   8   48.39   21.53
  18   0  10    7.00   11.28
  18   0  12   17.20    7.47
  18   0  14   22.12   13.99
  18   1 -16   55.97   14.15
  18   1 -15  643.09  250.68
  18   1 -14   -0.90    9.89
  18   1 -13    5.21   12.68
  18   1 -12   56.20   12.17
  18   1 -11   17.20   13.84
  18   1 -10    8.33    7.45
  18   1  -9   28.28   12.93
  18   1  -8   31.73   12.86
  18   1  -7    0.68   10.20
  18   1  -6   76.44   14.44
  18   1  -5   -7.65    7.22
  18   1  -4   -5.42    9.73
  18   1  -3    4.29    8.35
  18   1  -2   40.38    9.93
  18   1  -1   34.69    7.97
  18   1   0  427.95   26.11
  18   1   1   15.84    7.90
  18   1   2   75.93   13.09
  18   1   3   -0.23   12.77
  18   1   4   11.01   10.38
  18   1   5   29.57   12.26
  18   1   6   62.68   13.09
  18   1   7   22.55   13.11
  18   1   8   27.33   12.89
  18   1   9   23.25    8.85
  18   1  10    7.00    7.85
  18   1  11   14.22    7.92
  18   1  12   -7.65   11.71
  18   1  13   65.32   34.96
  18   1  14   33.63   11.33
  18   2 -16    1.33    8.06
  18   2 -15   29.41   14.99
  18   2 -14   -0.90    6.52
  18   2 -13    0.90   18.67
  18   2 -12   12.68    9.95
  18   2 -11    2.26    6.55
  18   2 -10  143.00   19.05
  18   2  -9   -0.68    7.70
  18   2  -8    6.75   17.56
  18   2  -7   15.37   17.45
  18   2  -6   44.69   18.69
  18   2  -5   43.49   15.84
  18   2  -4    7.47    6.32
  18   2  -3   -6.52    8.37
  18   2  -2   19.25    9.10
  18   2  -1   42.12   14.04
  18   2   0    8.76    8.10
  18   2   1   -2.93    8.80
  18   2   2   -1.78    6.75
  18   2   3   -7.47    9.03
  18   2   4   91.00   12.89
  18   2   5   16.45   10.61
  18   2   6   78.02   10.09
  18   2   7   -4.94   11.49
  18   2   8   15.84   14.47
  18   2   9   10.63   13.32
  18   2  10   -0.23   11.42
  18   2  11   -1.13    6.79
  18   2  12    6.30    7.92
  18   2  13   40.20   20.76
  18   3 -14   10.63   12.44
  18   3 -13   15.84   12.68
  18   3 -12   11.94   11.01
  18   3 -11   24.42   11.28
  18   3 -10   20.99   13.50
  18   3  -9    8.33    7.45
  18   3  -8   21.26   16.50
  18   3  -7   28.44    9.46
  18   3  -6    4.29    6.55
  18   3  -5   -1.60    9.75
  18   3  -4    9.03    8.85
  18   3  -3   27.49    6.93
  18   3  -2    9.48    6.57
  18   3  -1   67.03    9.84
  18   3   0   38.87    8.98
  18   3   1   27.33   12.57
  18   3   2    5.21   11.33
  18   3   3    9.21   18.42
  18   3   4   49.65    8.69
  18   3   5   19.91   11.13
  18   3   6   -2.03    9.95
  18   3   7   -4.06    5.39
  18   3   8   20.99   19.68
  18   3   9   15.37    9.07
  18   3  10   -1.78    7.40
  18   3  11    3.81    9.91
  18   3  12   81.79   72.56
  18   4 -12   15.98   10.81
  18   4 -11   -8.15    9.25
  18   4 -10   25.32    9.68
  18   4  -9   28.28   14.54
  18   4  -8   -7.90    6.07
  18   4  -7   -4.49    5.15
  18   4  -6    3.14   22.25
  18   4  -5   83.44   31.28
  18   4  -4   18.71   22.10
  18   4  -3    7.22    6.05
  18   4  -2    1.13    6.12
  18   4  -1   16.70    7.61
  18   4   0   -1.13    7.47
  18   4   1    5.85    7.40
  18   4   2   27.49   12.59
  18   4   3   -4.06    9.50
  18   4   4   16.45    6.95
  18   4   5   35.93   11.89
  18   4   6   69.27   15.01
  18   4   7    7.22    8.33
  18   4   8   15.98   15.98
  18   4   9    7.65   12.62
  18   5  -3   28.28   10.38
  18   5  -2    3.59    8.53
  18   5  -1   40.20   10.09
  18   5   0   16.45    8.78
  18   5   1    3.59    7.40
  18   5   2   11.53    9.28
  18   5   3   27.81    9.98
  18   5   4   50.06   11.26
  18   5   5   22.55   10.56
  19  -4  -9   11.94    9.98
  19  -4  -8    3.14   11.94
  19  -4  -7   24.42   10.09
  19  -4  -4   -0.45    7.27
  19  -4  -3    6.52    6.52
  19  -4  -2   12.14    7.85
  19  -4  -1    4.49    7.63
  19  -4   0    6.75    6.79
  19  -4   1    0.68    6.12
  19  -4   2    3.36    6.05
  19  -4   3   22.12    7.06
  19  -4   4    8.33    5.89
  19  -4   5   11.94    9.98
  19  -4   6    6.30    9.05
  19  -3 -12    9.21   11.22
  19  -3  -9   25.93    9.48
  19  -3  -8    2.26    7.22
  19  -3  -7    1.13   16.54
  19  -3  -6   14.67   14.85
  19  -3  -5   25.03   25.71
  19  -3  -4    5.42   16.93
  19  -3  -3    3.36   18.01
  19  -3  -2    2.03   10.63
  19  -3  -1   27.96   13.02
  19  -3   0   -2.26    6.55
  19  -3   1   14.90    7.65
  19  -3   2   13.99    6.97
  19  -3   7    9.48    7.67
  19  -3   8    0.45    7.27
  19  -3   9   25.03   11.71
  19  -2 -14   -2.26   12.64
  19  -2 -13   38.30   13.77
  19  -2 -12   38.68   24.85
  19  -2 -11  105.29   15.10
  19  -2 -10   52.43   10.45
  19  -2  -9    2.93    8.80
  19  -2  -6    0.45    7.27
  19  -2  -5   96.24   12.07
  19  -2  -4   -1.60    9.52
  19  -2  -3   33.45   13.56
  19  -2  -2   14.22    9.75
  19  -2  -1    5.21    9.48
  19  -2   0  211.05   13.97
  19  -2   1  201.55   14.08
  19  -2   2   70.01   11.06
  19  -2   8   37.38   11.76
  19  -2   9   19.64   13.97
  19  -2  10   29.75   10.65
  19  -2  11   -0.23   13.02
  19  -1 -15   13.11   11.31
  19  -1 -14   -2.48   12.89
  19  -1 -13  179.18   94.93
  19  -1 -12   32.77   15.64
  19  -1 -11   43.29    9.30
  19  -1 -10  -13.11    8.37
  19  -1  -9   41.53   11.04
  19  -1  -8   12.89   13.05
  19  -1  -7   -4.94   10.16
  19  -1  -6   49.86   22.07
  19  -1  -5   94.18   28.87
  19  -1  -4    6.52    8.98
  19  -1  -3   42.70    9.23
  19  -1  -2   25.48    8.64
  19  -1  -1   -2.73   10.68
  19  -1   0    7.22    7.67
  19  -1   1   -7.22    7.43
  19  -1   2    4.29   18.30
  19  -1   3   24.87   18.28
  19  -1   4   40.76   10.36
  19  -1   5   76.44   17.33
  19  -1   6   52.43   27.85
  19  -1   7    8.33   11.26
  19  -1   8    5.85    8.58
  19  -1   9   -8.58    9.50
  19  -1  10   -6.30    8.15
  19  -1  11   38.12   19.86
  19  -1  12   35.21   11.94
  19   0 -15   33.45   18.24
  19   0 -13   -3.81    9.21
  19   0 -11   47.13   11.35
  19   0  -9   22.55    8.98
  19   0  -7    7.22   12.21
  19   0  -5   -5.64   11.06
  19   0  -3   44.49   12.03
  19   0  -1  -12.46    7.94
  19   0   1  487.06   31.82
  19   0   3   25.77   13.11
  19   0   5    3.14    8.78
  19   0   7    9.66    8.31
  19   0   9   22.82   13.50
  19   0  11   21.26   16.07
  19   1 -15    7.47    6.32
  19   1 -14   14.90   10.56
  19   1 -13   20.31    8.13
  19   1 -12  605.55  290.59
  19   1 -11   16.21   10.40
  19   1 -10   15.37   10.36
  19   1  -9   41.93   16.54
  19   1  -8   17.20   15.57
  19   1  -7   27.02    9.05
  19   1  -6    2.26   10.16
  19   1  -5   50.49    8.10
  19   1  -4   15.37   12.37
  19   1  -3   58.48   11.04
  19   1  -2    3.81    8.58
  19   1  -1   11.33   12.84
  19   1   0    2.03   11.33
  19   1   1    4.74   10.13
  19   1   2    9.03   10.11
  19   1   3    2.73    8.60
  19   1   4   -1.78    8.08
  19   1   5   81.25   12.19
  19   1   6    4.94    6.27
  19   1   7   17.56    8.31
  19   1   8   15.37    9.55
  19   1   9   19.64   21.85
  19   1  10   12.46   11.98
  19   1  11   18.71   11.31
  19   1  12   18.33   11.71
  19   2 -14    0.68    5.21
  19   2 -13    4.49   12.86
  19   2 -12    7.90    6.34
  19   2 -11   79.36   13.93
  19   2 -10   53.74   22.25
  19   2  -9    0.00    2.26
  19   2  -8   -4.49    9.93
  19   2  -7   24.13    9.30
  19   2  -6    6.52    9.91
  19   2  -5   83.98   10.18
  19   2  -4    1.13   21.98
  19   2  -3   61.73   17.00
  19   2  -2   45.30   27.90
  19   2  -1   31.39   23.22
  19   2   0  234.82   21.64
  19   2   1  183.63   20.36
  19   2   2   58.70   11.28
  19   2   3  155.10   19.46
  19   2   4   13.54    9.30
  19   2   5   11.74   10.18
  19   2   6   10.34    8.78
  19   2   7   16.21   15.12
  19   2   8   17.20    8.35
  19   2   9  666.94  207.17
  19   2  10   -2.73    7.49
  19   2  11    2.03   10.86
  19   3 -12   12.68    8.13
  19   3 -11   18.46   19.12
  19   3 -10   -1.33    6.95
  19   3  -9   37.20   15.03
  19   3  -8  -11.01   10.59
  19   3  -7    6.07   11.26
  19   3  -6   -4.06    6.52
  19   3  -5   -1.60   12.71
  19   3  -4   33.11   26.79
  19   3  -3   36.83   19.70
  19   3  -2    1.60   23.13
  19   3  -1  123.25   80.73
  19   3   0  202.41   98.74
  19   3   1   -2.93    7.47
  19   3   2   11.53    9.48
  19   3   3    8.58    7.65
  19   3   4    8.76    6.93
  19   3   5    9.48    9.07
  19   3   6   91.86   35.14
  19   3   7   -4.49    8.33
  19   3   8    2.73    8.15
  19   3   9    9.66   19.61
  19   4  -9   49.86   11.47
  19   4  -8   12.46    9.01
  19   4  -7   34.15    6.84
  19   4  -6   -3.14    7.88
  19   4  -5   13.32   13.27
  19   4  -4    9.03   10.83
  19   4  -3   25.77   15.10
  19   4  -2   35.57   21.33
  19   4  -1   13.32   11.74
  19   4   0  -11.01    8.37
  19   4   1   -1.60    9.07
  19   4   2    0.45    5.91
  19   4   3   64.84   11.38
  19   4   4   25.77    7.94
  19   4   6    8.15   10.38
  20  -4   0    1.13    6.34
  20  -3  -9  -13.77    8.58
  20  -3  -8    2.03   11.06
  20  -3  -7    3.59   13.93
  20  -3  -6   13.77   14.04
  20  -3  -5   16.21   10.65
  20  -3  -4    2.48    8.35
  20  -3  -1   -0.90    6.05
  20  -3   0   16.21    7.38
  20  -3   1   18.98    8.78
  20  -3   2   10.13    8.33
  20  -3   3    8.76    7.47
  20  -3   4   -1.78    5.82
  20  -2 -11    3.59   16.84
  20  -2 -10   58.25   12.39
  20  -2  -9   23.41   16.86
  20  -2  -8    1.78    9.64
  20  -2  -7    1.13   13.36
  20  -2  -6   -2.48    9.23
  20  -2  -5   13.54   10.61
  20  -2  -4   18.08   12.39
  20  -2  -3    4.06    9.25
  20  -2  -2   12.68   11.33
  20  -2   1   97.41   11.56
  20  -2   2   14.22   11.33
  20  -2   3   54.64   12.44
  20  -2   4   37.76   14.22
  20  -2   9   16.95    9.52
  20  -1 -12   14.22   16.21
  20  -1 -11   80.44  101.05
  20  -1 -10  131.74  104.84
  20  -1  -9    0.00    2.26
  20  -1  -7    4.49    8.98
  20  -1  -6   13.77   10.59
  20  -1  -5   13.32    8.33
  20  -1  -4   15.98    7.92
  20  -1  -2  149.55   14.33
  20  -1  -1  -14.44    9.03
  20  -1   0   64.12   13.00
  20  -1   1   31.58   24.65
  20  -1   2   10.83   11.26
  20  -1   7   45.91   34.60
  20  -1   8   58.00   12.12
  20  -1   9   24.42   11.74
  20  -1  10   12.89   11.76
  20   0 -12    2.26   15.12
  20   0 -10  166.93   27.56
  20   0  -8    0.90    8.76
  20   0  -6   14.44    9.03
  20   0  -4    3.14   16.88
  20   0  -2   32.41   14.87
  20   0   2  -14.22    7.92
  20   0   4   26.41    7.88
  20   0   6   14.44   14.04
  20   0   8   73.08  101.97
  20   0  10   28.93   17.45
  20   1 -12    7.47    6.57
  20   1 -11    2.93   11.06
  20   1 -10  643.09  249.92
  20   1  -9  659.20  215.99
  20   1  -8   18.08   11.49
  20   1  -7    9.66    8.96
  20   1  -6   19.25   12.91
  20   1  -5   31.39   13.14
  20   1  -4   23.25    8.85
  20   1  -3   25.77   12.66
  20   1  -2  187.71   16.88
  20   1  -1    7.00    8.82
  20   1   0   24.87    8.98
  20   1   1   39.81   25.59
  20   1   2   23.70   24.87
  20   1   3   18.33   23.29
  20   1   4   23.41   18.76
  20   1   5    5.42   11.26
  20   1   6   25.77    8.40
  20   1   7   13.77   10.36
  20   1   8   43.29    9.30
  20   1   9    4.06    6.77
  20   1  10   -2.03    8.37
  20   2 -11    4.74    9.68
  20   2 -10   37.94   14.06
  20   2  -9   -1.33    6.95
  20   2  -8   15.37   10.36
  20   2  -7   -3.14    7.67
  20   2  -6   39.99   29.27
  20   2  -5   21.42   18.21
  20   2  -4    9.66    6.55
  20   2  -3  -13.11    9.68
  20   2  -2   16.95    9.89
  20   2  -1   10.13   12.14
  20   2   0   22.98   10.09
  20   2   1  103.75   19.59
  20   2   4   18.08   10.34
  20   2   5   13.32    9.43
  20   2   6   38.87   10.86
  20   2   7   13.11    7.94
  20   2   8   -3.36    5.17
  20   2   9    7.65    7.90
  20   3  -9   -7.90   14.44
  20   3  -8   22.12   12.86
  20   3  -7   23.41   18.46
  20   3  -6   36.29   14.31
  20   3  -5    8.76   14.85
  20   3  -4    8.76   12.37
  20   3  -3   22.12   20.76
  20   3  -2   15.84    8.85
  20   3  -1    8.58   10.38
  20   3   0   22.98    9.07
  20   3   1   10.83    6.52
  20   3   2   18.71    9.75
  20   3   3   19.25   11.33
  20   3   4    9.03   10.38
  20   3   5   18.71   27.04
  20   3   6   14.90   11.49
  20   4  -3   -3.14    9.01
  20   4  -2    3.59    6.77
  20   4  -1   10.34    9.95
  20   4   0   22.82   16.07
  21  -3  -2   29.57    9.32
  21  -3  -1    0.23   10.97
  21  -2  -8    0.68   14.49
  21  -2  -7  -15.37   13.54
  21  -2  -4   19.25   15.17
  21  -2  -3    7.47   15.37
  21  -2  -2   31.73   32.84
  21  -2  -1   79.90   30.36
  21  -2   0   15.84   29.79
  21  -2   1   47.55   27.56
  21  -2   2   -2.03   10.63
  21  -2   3    0.00    2.26
  21  -2   4  -10.34    9.46
  21  -2   5  146.98   70.31
  21  -1  -9   65.09   14.06
  21  -1  -8   27.33   11.47
  21  -1  -5   49.65   15.87
  21  -1  -4   14.67   12.44
  21  -1  -3  103.44   14.35
  21  -1  -2   23.70    8.62
  21  -1   2   39.07   10.13
  21  -1   3   -3.59    9.66
  21   0  -9   24.87   25.48
  21   0  -7    2.26    7.00
  21   0  -5   27.96   12.39
  21   0  -3   27.96    9.84
  21   0   1  125.60   15.14
  21   0   3   81.52   37.44
  21   0   5    7.47   10.18
  21   0   7   41.14   18.30
  21   1  -9   30.40   10.11
  21   1  -8   15.62   10.20
  21   1  -7   -1.13    9.07
  21   1  -6   16.95    9.77
  21   1  -5   39.81   12.14
  21   1  -3  114.75   17.06
  21   1  -2    8.58    7.92
  21   1   1   37.76   33.43
  21   1   2   27.49   31.35
  21   1   3    0.90   12.37
  21   1   4   22.55   13.70
  21   1   5   62.45   13.07
  21   1   6   10.13   10.63
  21   1   7   14.67   11.06
  21   2  -8    7.00    8.58
  21   2  -7   -0.68    5.21
  21   2  -6    8.58    9.95
  21   2  -5    8.58   10.83
  21   2  -4   14.90    8.35
  21   2  -3   -2.48    4.97
  21   2  -2    1.13    9.52
  21   2  -1   34.15   10.18
  21   2   0    4.49    7.20
  21   2   3   -8.76   10.31
  21   2   5   43.70   13.32
  21   3  -2  -15.84   11.71
  21   3  -1    9.66   10.83
  22  -1  -3   21.83   19.79
  22  -1  -2   13.11   10.65
  22  -1  -1    9.48   11.76
  22  -1   0   56.65   15.82
  22   0  -2   85.92   18.37
  22   0   0   -2.03    6.77
  22   0   2   51.14   17.20
  22   1  -1    2.26    7.90
  22   1   0   25.32    8.62

_computing_structure_solution     'SHELXT 2014/4 (Sheldrick, 2014)'
;
_shelx_hkl_checksum              10917
_olex2_submission_special_instructions 'No special instructions were received'
loop_
_space_group_symop_operation_xyz
'x, y, z'
'-x+1/2, y+1/2, -z+1/2'
'-x, -y, -z'
'x-1/2, -y-1/2, z-1/2'
loop_
_atom_site_label
_atom_site_type_symbol
_atom_site_fract_x
_atom_site_fract_y
_atom_site_fract_z
_atom_site_U_iso_or_equiv
_atom_site_adp_type
_atom_site_occupancy
_atom_site_site_symmetry_order
_atom_site_calc_flag
_atom_site_refinement_flags_posn
Cl2 Cl 0.68512(4) 0.23694(10) 0.03012(3) 0.0480(2) Uani 1 1 d .
Cl1 Cl 0.51619(5) 0.79179(10) 0.04895(3) 0.0539(3) Uani 1 1 d .
O2 O 0.69889(11) 0.2565(3) 0.15690(8) 0.0395(5) Uani 1 1 d .
O1 O 0.55024(11) 0.7542(2) 0.17288(8) 0.0404(5) Uani 1 1 d .
N2 N 0.56985(12) 0.7285(3) 0.29028(9) 0.0355(6) Uani 1 1 d .
N4 N 0.64746(12) 0.1499(3) 0.75813(9) 0.0385(6) Uani 1 1 d .
N3 N 0.71799(13) 0.2610(3) 0.27514(9) 0.0398(6) Uani 1 1 d .
N1 N 0.48602(13) 0.8316(3) 0.78655(10) 0.0418(6) Uani 1 1 d .
C14 C 0.56556(14) 0.6982(3) 0.41216(10) 0.0266(6) Uani 1 1 d .
C30 C 0.72151(14) 0.1905(3) 0.46075(10) 0.0272(6) Uani 1 1 d .
C35 C 0.71003(14) 0.1672(3) 0.58261(11) 0.0306(7) Uani 1 1 d .
C23 C 0.65624(14) 0.3812(3) 0.13335(11) 0.0290(6) Uani 1 1 d .
C36 C 0.69656(15) 0.1598(3) 0.64452(11) 0.0326(7) Uani 1 1 d .
H36 H 0.6574 0.0912 0.6545 0.039 Uiso 1 1 calc R
C24 C 0.62365(14) 0.5032(3) 0.16679(10) 0.0287(6) Uani 1 1 d .
H24 H 0.6309 0.4993 0.2078 0.034 Uiso 1 1 calc R
C38 C 0.71184(14) 0.2196(3) 0.74907(11) 0.0307(7) Uani 1 1 d .
C28 C 0.76645(15) 0.3291(3) 0.37075(11) 0.0347(7) Uani 1 1 d .
H28 H 0.7989 0.3961 0.3940 0.042 Uiso 1 1 calc R
C13 C 0.56326(14) 0.6828(3) 0.47604(11) 0.0281(6) Uani 1 1 d .
C29 C 0.72213(14) 0.2124(3) 0.39685(11) 0.0286(6) Uani 1 1 d .
C32 C 0.76607(14) 0.2850(3) 0.49925(11) 0.0331(7) Uani 1 1 d .
H32 H 0.8008 0.3582 0.4842 0.040 Uiso 1 1 calc R
C34 C 0.76062(15) 0.2741(3) 0.55856(11) 0.0346(7) Uani 1 1 d .
H34 H 0.7916 0.3400 0.5835 0.042 Uiso 1 1 calc R
C19 C 0.58077(14) 0.6307(3) 0.14188(11) 0.0297(7) Uani 1 1 d .
C33 C 0.66841(15) 0.0661(4) 0.54447(11) 0.0347(7) Uani 1 1 d .
H33 H 0.6354 -0.0118 0.5596 0.042 Uiso 1 1 calc R
C17 C 0.62568(15) 0.6728(4) 0.32308(11) 0.0386(7) Uani 1 1 d .
H17 H 0.6674 0.6419 0.3041 0.046 Uiso 1 1 calc R
C22 C 0.64447(14) 0.3876(3) 0.07351(11) 0.0304(7) Uani 1 1 d .
C31 C 0.67422(15) 0.0770(3) 0.48514(11) 0.0344(7) Uani 1 1 d .
H31 H 0.6454 0.0057 0.4603 0.041 Uiso 1 1 calc R
C41 C 0.67116(17) 0.1869(4) 0.86039(12) 0.0398(8) Uani 1 1 d .
H41 H 0.6555 0.1750 0.8987 0.048 Uiso 1 1 calc R
C15 C 0.62665(15) 0.6574(4) 0.38266(11) 0.0365(7) Uani 1 1 d .
H15 H 0.6684 0.6193 0.4036 0.044 Uiso 1 1 calc R
C21 C 0.60129(15) 0.5117(3) 0.04778(11) 0.0323(7) Uani 1 1 d .
H21 H 0.5932 0.5136 0.0068 0.039 Uiso 1 1 calc R
C1 C 0.48901(16) 0.8372(4) 0.84436(12) 0.0406(8) Uani 1 1 d .
H1 H 0.4589 0.9160 0.8625 0.049 Uiso 1 1 calc R
C37 C 0.73180(15) 0.2363(4) 0.68857(11) 0.0345(7) Uani 1 1 d .
H37 H 0.7717 0.3050 0.6806 0.041 Uiso 1 1 calc R
C27 C 0.67537(15) 0.1222(4) 0.35897(11) 0.0368(7) Uani 1 1 d .
H27 H 0.6441 0.0402 0.3741 0.044 Uiso 1 1 calc R
C11 C 0.61221(16) 0.5827(4) 0.50841(11) 0.0388(7) Uani 1 1 d .
H11 H 0.6474 0.5216 0.4889 0.047 Uiso 1 1 calc R
C16 C 0.50751(14) 0.7578(4) 0.37757(11) 0.0347(7) Uani 1 1 d .
H16 H 0.4650 0.7897 0.3952 0.042 Uiso 1 1 calc R
C26 C 0.76309(16) 0.3469(4) 0.31121(12) 0.0403(8) Uani 1 1 d .
H26 H 0.7948 0.4252 0.2947 0.048 Uiso 1 1 calc R
C10 C 0.61097(17) 0.5701(4) 0.56773(12) 0.0426(8) Uani 1 1 d .
H10 H 0.6453 0.5012 0.5883 0.051 Uiso 1 1 calc R
C8 C 0.56036(16) 0.6563(4) 0.59825(11) 0.0364(7) Uani 1 1 d .
C42 C 0.62828(16) 0.1368(4) 0.81302(12) 0.0432(8) Uani 1 1 d .
H42 H 0.5828 0.0907 0.8197 0.052 Uiso 1 1 calc R
C18 C 0.51133(15) 0.7709(4) 0.31831(11) 0.0368(7) Uani 1 1 d .
H18 H 0.4709 0.8115 0.2962 0.044 Uiso 1 1 calc R
C20 C 0.56978(15) 0.6333(3) 0.08152(11) 0.0327(7) Uani 1 1 d .
C12 C 0.51164(15) 0.7672(4) 0.50655(11) 0.0375(7) Uani 1 1 d .
H12 H 0.4769 0.8347 0.4859 0.045 Uiso 1 1 calc R
C39 C 0.75784(15) 0.2724(4) 0.79464(12) 0.0382(7) Uani 1 1 d .
H39 H 0.8028 0.3202 0.7872 0.046 Uiso 1 1 calc R
C5 C 0.52915(16) 0.7204(4) 0.76181(11) 0.0390(7) Uani 1 1 d .
C40 C 0.73718(17) 0.2544(4) 0.85089(12) 0.0430(8) Uani 1 1 d .
H40 H 0.7681 0.2882 0.8827 0.052 Uiso 1 1 calc R
C25 C 0.67420(16) 0.1510(4) 0.30010(12) 0.0418(8) Uani 1 1 d .
H25 H 0.6407 0.0899 0.2759 0.050 Uiso 1 1 calc R
C9 C 0.51014(15) 0.7544(4) 0.56641(11) 0.0402(7) Uani 1 1 d .
H9 H 0.4744 0.8132 0.5861 0.048 Uiso 1 1 calc R
C2 C 0.53280(16) 0.7364(4) 0.87961(12) 0.0410(8) Uani 1 1 d .
H2 H 0.5330 0.7471 0.9206 0.049 Uiso 1 1 calc R
C4 C 0.57417(17) 0.6112(4) 0.79375(13) 0.0468(8) Uani 1 1 d .
H4 H 0.6031 0.5318 0.7747 0.056 Uiso 1 1 calc R
C7 C 0.56287(17) 0.6415(4) 0.66227(12) 0.0444(8) Uani 1 1 d .
H7 H 0.5953 0.5608 0.6794 0.053 Uiso 1 1 calc R
C6 C 0.52490(16) 0.7286(4) 0.69725(12) 0.0454(8) Uani 1 1 d .
H6 H 0.4910 0.8053 0.6799 0.054 Uiso 1 1 calc R
C3 C 0.57620(17) 0.6202(4) 0.85437(13) 0.0496(9) Uani 1 1 d .
H3 H 0.6067 0.5478 0.8774 0.060 Uiso 1 1 calc R
H2A H 0.7051(16) 0.271(4) 0.1943(13) 0.059(10) Uiso 1 1 d .
H1A H 0.5612(17) 0.744(4) 0.2139(15) 0.078(11) Uiso 1 1 d .
loop_
_atom_site_aniso_label
_atom_site_aniso_U_11
_atom_site_aniso_U_22
_atom_site_aniso_U_33
_atom_site_aniso_U_23
_atom_site_aniso_U_13
_atom_site_aniso_U_12
Cl2 0.0680(6) 0.0475(5) 0.0287(4) -0.0088(4) 0.0057(4) 0.0145(4)
Cl1 0.0795(6) 0.0528(5) 0.0285(4) 0.0003(4) -0.0072(4) 0.0258(5)
O2 0.0532(14) 0.0392(12) 0.0261(11) -0.0003(10) 0.0010(10) 0.0132(10)
O1 0.0571(14) 0.0416(13) 0.0225(10) -0.0042(10) 0.0028(10) 0.0150(11)
N2 0.0418(15) 0.0389(15) 0.0258(12) -0.0036(11) 0.0021(11) 0.0004(12)
N4 0.0343(15) 0.0526(16) 0.0284(13) -0.0003(12) -0.0015(11) -0.0032(12)
N3 0.0523(17) 0.0413(16) 0.0260(13) 0.0027(12) 0.0040(12) 0.0119(13)
N1 0.0543(17) 0.0417(16) 0.0294(14) -0.0020(12) 0.0020(12) -0.0063(13)
C14 0.0285(16) 0.0246(15) 0.0267(14) -0.0021(12) 0.0012(12) -0.0020(12)
C30 0.0319(16) 0.0247(15) 0.0252(14) 0.0000(12) 0.0040(12) 0.0064(13)
C35 0.0323(17) 0.0321(17) 0.0275(15) 0.0038(13) 0.0028(12) 0.0048(13)
C23 0.0323(17) 0.0276(16) 0.0272(15) 0.0028(13) 0.0028(12) -0.0030(13)
C36 0.0351(17) 0.0354(17) 0.0272(15) 0.0041(13) 0.0012(13) 0.0046(14)
C24 0.0356(17) 0.0336(16) 0.0170(13) 0.0011(12) 0.0019(12) -0.0023(13)
C38 0.0334(17) 0.0299(16) 0.0287(15) -0.0008(12) 0.0013(12) 0.0023(13)
C28 0.0453(19) 0.0312(17) 0.0276(15) 0.0012(12) 0.0037(13) 0.0031(14)
C13 0.0307(16) 0.0285(16) 0.0250(14) -0.0035(12) -0.0006(12) -0.0020(13)
C29 0.0338(16) 0.0265(16) 0.0257(14) 0.0000(12) 0.0044(12) 0.0078(13)
C32 0.0363(17) 0.0309(16) 0.0324(16) 0.0004(13) 0.0053(13) -0.0046(13)
C34 0.0400(18) 0.0336(17) 0.0300(15) -0.0054(13) -0.0018(13) 0.0006(14)
C19 0.0370(17) 0.0290(16) 0.0233(14) -0.0020(12) 0.0038(12) -0.0001(13)
C33 0.0371(18) 0.0371(18) 0.0301(16) 0.0056(13) 0.0039(13) -0.0050(14)
C17 0.0371(19) 0.051(2) 0.0288(16) -0.0057(14) 0.0077(14) 0.0074(15)
C22 0.0386(18) 0.0296(16) 0.0234(15) -0.0042(12) 0.0062(12) 0.0001(13)
C31 0.0395(18) 0.0357(17) 0.0274(15) 0.0008(13) -0.0029(13) -0.0023(14)
C41 0.056(2) 0.0367(18) 0.0266(16) 0.0003(13) 0.0053(14) 0.0026(16)
C15 0.0347(18) 0.0455(19) 0.0289(16) -0.0034(13) -0.0028(13) 0.0095(14)
C21 0.0445(18) 0.0360(17) 0.0163(13) -0.0016(12) 0.0001(12) -0.0041(14)
C1 0.049(2) 0.0379(18) 0.0347(17) -0.0039(14) 0.0052(15) -0.0081(15)
C37 0.0372(17) 0.0339(17) 0.0329(16) 0.0031(14) 0.0060(13) 0.0010(14)
C27 0.0404(19) 0.0432(18) 0.0274(16) -0.0017(14) 0.0065(13) -0.0029(15)
C11 0.049(2) 0.0370(18) 0.0302(16) -0.0006(13) 0.0006(14) 0.0097(15)
C16 0.0302(16) 0.0451(19) 0.0288(15) -0.0039(14) 0.0027(12) 0.0052(14)
C26 0.057(2) 0.0314(18) 0.0336(17) 0.0074(14) 0.0082(15) 0.0036(15)
C10 0.057(2) 0.0402(19) 0.0299(17) 0.0009(14) -0.0032(15) 0.0101(16)
C8 0.0442(19) 0.0387(18) 0.0256(15) 0.0028(13) -0.0030(14) -0.0107(15)
C42 0.0370(19) 0.059(2) 0.0343(18) 0.0016(15) 0.0055(14) -0.0042(16)
C18 0.0372(18) 0.0475(19) 0.0254(15) -0.0022(14) -0.0012(13) 0.0076(15)
C20 0.0419(18) 0.0316(17) 0.0242(15) 0.0025(12) -0.0002(13) -0.0001(14)
C12 0.0359(18) 0.0498(19) 0.0268(15) -0.0035(14) 0.0016(13) 0.0029(15)
C39 0.0385(18) 0.0385(18) 0.0373(17) -0.0014(14) -0.0018(13) -0.0058(14)
C5 0.050(2) 0.0425(19) 0.0244(15) 0.0004(14) 0.0021(14) -0.0122(16)
C40 0.059(2) 0.0401(19) 0.0287(16) -0.0062(14) -0.0114(15) -0.0038(16)
C25 0.0414(19) 0.053(2) 0.0311(17) -0.0067(15) 0.0034(14) 0.0029(16)
C9 0.0334(18) 0.055(2) 0.0334(16) -0.0110(15) 0.0093(13) 0.0022(15)
C2 0.055(2) 0.0437(19) 0.0244(15) -0.0022(14) 0.0024(14) -0.0120(17)
C4 0.051(2) 0.049(2) 0.0417(19) -0.0104(16) 0.0114(16) 0.0008(17)
C7 0.054(2) 0.0413(19) 0.0375(18) -0.0017(15) 0.0017(16) -0.0051(16)
C6 0.049(2) 0.047(2) 0.0393(17) -0.0029(16) 0.0010(15) -0.0014(17)
C3 0.054(2) 0.055(2) 0.0393(19) 0.0070(16) -0.0011(16) 0.0007(18)
loop_
_atom_type_symbol
_atom_type_description
_atom_type_scat_dispersion_real
_atom_type_scat_dispersion_imag
_atom_type_scat_source
C C 0.0033 0.0016 'International Tables Vol C Tables 4.2.6.8 and 6.1.1.4'
H H 0.0000 0.0000 'International Tables Vol C Tables 4.2.6.8 and 6.1.1.4'
Cl Cl 0.1484 0.1585 'International Tables Vol C Tables 4.2.6.8 and 6.1.1.4'
N N 0.0061 0.0033 'International Tables Vol C Tables 4.2.6.8 and 6.1.1.4'
O O 0.0106 0.0060 'International Tables Vol C Tables 4.2.6.8 and 6.1.1.4'
loop_
_geom_angle_atom_site_label_1
_geom_angle_atom_site_label_2
_geom_angle_atom_site_label_3
_geom_angle
C23 O2 H2A 110(2)
C19 O1 H1A 113(2)
C17 N2 C18 116.6(2)
C42 N4 C38 117.7(2)
C26 N3 C25 116.1(2)
C1 N1 C5 116.9(3)
C15 C14 C13 122.1(2)
C16 C14 C13 122.1(2)
C16 C14 C15 115.8(2)
C32 C30 C29 122.2(2)
C31 C30 C29 120.8(2)
C31 C30 C32 117.0(2)
C34 C35 C36 124.4(3)
C33 C35 C36 118.2(3)
C33 C35 C34 117.4(2)
O2 C23 C24 122.7(2)
O2 C23 C22 118.9(2)
C22 C23 C24 118.4(2)
C35 C36 H36 115.7
C37 C36 C35 128.6(3)
C37 C36 H36 115.7
C23 C24 H24 119.1
C19 C24 C23 121.9(2)
C19 C24 H24 119.1
N4 C38 C37 117.2(2)
N4 C38 C39 122.0(2)
C39 C38 C37 120.8(3)
C29 C28 H28 120.0
C26 C28 H28 120.0
C26 C28 C29 119.9(3)
C11 C13 C14 121.7(2)
C11 C13 C12 117.0(2)
C12 C13 C14 121.3(2)
C28 C29 C30 122.7(2)
C28 C29 C27 115.6(2)
C27 C29 C30 121.6(2)
C30 C32 H32 119.2
C34 C32 C30 121.5(3)
C34 C32 H32 119.2
C35 C34 H34 119.5
C32 C34 C35 121.0(3)
C32 C34 H34 119.5
O1 C19 C24 123.4(2)
O1 C19 C20 118.2(2)
C24 C19 C20 118.4(2)
C35 C33 H33 119.4
C31 C33 C35 121.3(3)
C31 C33 H33 119.4
N2 C17 H17 117.9
N2 C17 C15 124.2(3)
C15 C17 H17 117.9
C23 C22 Cl2 119.5(2)
C21 C22 Cl2 119.61(19)
C21 C22 C23 120.8(2)
C30 C31 H31 119.2
C33 C31 C30 121.6(3)
C33 C31 H31 119.2
C42 C41 H41 120.7
C40 C41 H41 120.7
C40 C41 C42 118.5(3)
C14 C15 H15 120.2
C17 C15 C14 119.7(3)
C17 C15 H15 120.2
C22 C21 H21 119.9
C22 C21 C20 120.2(2)
C20 C21 H21 119.9
N1 C1 H1 117.8
N1 C1 C2 124.4(3)
C2 C1 H1 117.8
C36 C37 C38 123.0(3)
C36 C37 H37 118.5
C38 C37 H37 118.5
C29 C27 H27 119.6
C25 C27 C29 120.7(3)
C25 C27 H27 119.6
C13 C11 H11 119.1
C10 C11 C13 121.9(3)
C10 C11 H11 119.1
C14 C16 H16 119.6
C18 C16 C14 120.7(3)
C18 C16 H16 119.6
N3 C26 C28 124.2(3)
N3 C26 H26 117.9
C28 C26 H26 117.9
C11 C10 H10 119.4
C11 C10 C8 121.2(3)
C8 C10 H10 119.4
C10 C8 C9 117.7(2)
C10 C8 C7 118.8(3)
C9 C8 C7 123.6(3)
N4 C42 C41 123.5(3)
N4 C42 H42 118.3
C41 C42 H42 118.3
N2 C18 C16 123.0(3)
N2 C18 H18 118.5
C16 C18 H18 118.5
C19 C20 Cl1 119.4(2)
C21 C20 Cl1 120.2(2)
C21 C20 C19 120.4(2)
C13 C12 H12 119.4
C9 C12 C13 121.3(3)
C9 C12 H12 119.4
C38 C39 H39 120.5
C40 C39 C38 119.0(3)
C40 C39 H39 120.5
N1 C5 C4 122.8(3)
N1 C5 C6 113.3(3)
C4 C5 C6 123.9(3)
C41 C40 C39 119.3(3)
C41 C40 H40 120.4
C39 C40 H40 120.4
N3 C25 C27 123.4(3)
N3 C25 H25 118.3
C27 C25 H25 118.3
C8 C9 H9 119.5
C12 C9 C8 121.0(3)
C12 C9 H9 119.5
C1 C2 H2 120.6
C3 C2 C1 118.8(3)
C3 C2 H2 120.6
C5 C4 H4 120.5
C5 C4 C3 118.9(3)
C3 C4 H4 120.5
C8 C7 H7 117.0
C6 C7 C8 126.1(3)
C6 C7 H7 117.0
C5 C6 H6 116.7
C7 C6 C5 126.6(3)
C7 C6 H6 116.7
C2 C3 C4 118.1(3)
C2 C3 H3 120.9
C4 C3 H3 120.9
loop_
_geom_bond_atom_site_label_1
_geom_bond_atom_site_label_2
_geom_bond_distance
Cl2 C22 1.750(3)
Cl1 C20 1.745(3)
O2 C23 1.360(3)
O2 H2A 0.87(3)
O1 C19 1.349(3)
O1 H1A 0.96(3)
N2 C17 1.336(3)
N2 C18 1.348(3)
N4 C38 1.356(3)
N4 C42 1.339(3)
N3 C26 1.339(4)
N3 C25 1.343(4)
N1 C1 1.333(3)
N1 C5 1.339(4)
C14 C13 1.482(3)
C14 C15 1.404(3)
C14 C16 1.400(3)
C30 C29 1.485(3)
C30 C32 1.401(4)
C30 C31 1.397(4)
C35 C36 1.465(3)
C35 C34 1.405(4)
C35 C33 1.394(4)
C23 C24 1.391(3)
C23 C22 1.388(3)
C36 H36 0.9500
C36 C37 1.327(4)
C24 H24 0.9500
C24 C19 1.390(4)
C38 C37 1.471(3)
C38 C39 1.390(4)
C28 H28 0.9500
C28 C29 1.395(4)
C28 C26 1.379(4)
C13 C11 1.396(4)
C13 C12 1.397(4)
C29 C27 1.399(4)
C32 H32 0.9500
C32 C34 1.380(3)
C34 H34 0.9500
C19 C20 1.398(3)
C33 H33 0.9500
C33 C31 1.382(3)
C17 H17 0.9500
C17 C15 1.379(4)
C22 C21 1.382(4)
C31 H31 0.9500
C41 H41 0.9500
C41 C42 1.381(4)
C41 C40 1.380(4)
C15 H15 0.9500
C21 H21 0.9500
C21 C20 1.383(4)
C1 H1 0.9500
C1 C2 1.376(4)
C37 H37 0.9500
C27 H27 0.9500
C27 C25 1.376(4)
C11 H11 0.9500
C11 C10 1.374(4)
C16 H16 0.9500
C16 C18 1.377(3)
C26 H26 0.9500
C10 H10 0.9500
C10 C8 1.390(4)
C8 C9 1.397(4)
C8 C7 1.480(4)
C42 H42 0.9500
C18 H18 0.9500
C12 H12 0.9500
C12 C9 1.387(4)
C39 H39 0.9500
C39 C40 1.382(4)
C5 C4 1.388(4)
C5 C6 1.489(4)
C40 H40 0.9500
C25 H25 0.9500
C9 H9 0.9500
C2 H2 0.9500
C2 C3 1.374(4)
C4 H4 0.9500
C4 C3 1.399(4)
C7 H7 0.9500
C7 C6 1.300(4)
C6 H6 0.9500
C3 H3 0.9500
loop_
_geom_hbond_atom_site_label_D
_geom_hbond_atom_site_label_H
_geom_hbond_atom_site_label_A
_geom_hbond_distance_DH
_geom_hbond_distance_HA
_geom_hbond_distance_DA
_geom_hbond_angle_DHA
_geom_hbond_site_symmetry_A
C18 H18 N4 0.95 2.52 3.448(4) 166.5 3_666
O2 H2A N3 0.87(3) 1.87(3) 2.733(3) 170(3) .
O1 H1A N2 0.96(3) 1.77(3) 2.722(3) 173(3) .
loop_
_geom_torsion_atom_site_label_1
_geom_torsion_atom_site_label_2
_geom_torsion_atom_site_label_3
_geom_torsion_atom_site_label_4
_geom_torsion
Cl2 C22 C21 C20 -178.9(2)
O2 C23 C24 C19 179.4(2)
O2 C23 C22 Cl2 -0.5(4)
O2 C23 C22 C21 179.7(2)
O1 C19 C20 Cl1 -1.2(4)
O1 C19 C20 C21 178.5(2)
N2 C17 C15 C14 1.4(5)
N4 C38 C37 C36 -12.7(4)
N4 C38 C39 C40 -0.4(4)
N1 C1 C2 C3 -0.7(5)
N1 C5 C4 C3 -1.7(5)
N1 C5 C6 C7 176.7(3)
C14 C13 C11 C10 179.0(3)
C14 C13 C12 C9 -179.2(3)
C14 C16 C18 N2 -0.2(4)
C30 C29 C27 C25 176.6(3)
C30 C32 C34 C35 0.1(4)
C35 C36 C37 C38 179.2(3)
C35 C33 C31 C30 -0.5(4)
C23 C24 C19 O1 -177.8(2)
C23 C24 C19 C20 0.9(4)
C23 C22 C21 C20 0.8(4)
C36 C35 C34 C32 -174.3(3)
C36 C35 C33 C31 174.6(3)
C24 C23 C22 Cl2 179.6(2)
C24 C23 C22 C21 -0.2(4)
C24 C19 C20 Cl1 -180.0(2)
C24 C19 C20 C21 -0.3(4)
C38 N4 C42 C41 -1.5(4)
C38 C39 C40 C41 -0.9(4)
C28 C29 C27 C25 -0.5(4)
C13 C14 C15 C17 179.5(3)
C13 C14 C16 C18 179.9(3)
C13 C11 C10 C8 0.3(5)
C13 C12 C9 C8 0.0(4)
C29 C30 C32 C34 174.3(2)
C29 C30 C31 C33 -174.1(2)
C29 C28 C26 N3 1.6(4)
C29 C27 C25 N3 1.9(4)
C32 C30 C29 C28 -0.5(4)
C32 C30 C29 C27 -177.4(3)
C32 C30 C31 C33 4.0(4)
C34 C35 C36 C37 -6.6(5)
C34 C35 C33 C31 -3.2(4)
C33 C35 C36 C37 175.8(3)
C33 C35 C34 C32 3.4(4)
C17 N2 C18 C16 -0.4(4)
C22 C23 C24 C19 -0.7(4)
C22 C21 C20 Cl1 179.1(2)
C22 C21 C20 C19 -0.6(4)
C31 C30 C29 C28 177.4(2)
C31 C30 C29 C27 0.5(4)
C31 C30 C32 C34 -3.7(4)
C15 C14 C13 C11 -18.9(4)
C15 C14 C13 C12 161.4(3)
C15 C14 C16 C18 1.3(4)
C1 N1 C5 C4 1.6(4)
C1 N1 C5 C6 -177.2(2)
C1 C2 C3 C4 0.6(4)
C37 C38 C39 C40 -179.9(3)
C11 C13 C12 C9 1.2(4)
C11 C10 C8 C9 0.9(4)
C11 C10 C8 C7 -178.4(3)
C16 C14 C13 C11 162.5(3)
C16 C14 C13 C12 -17.2(4)
C16 C14 C15 C17 -1.8(4)
C26 N3 C25 C27 -1.5(4)
C26 C28 C29 C30 -178.2(2)
C26 C28 C29 C27 -1.1(4)
C10 C8 C9 C12 -1.0(4)
C10 C8 C7 C6 171.6(3)
C8 C7 C6 C5 -177.1(3)
C42 N4 C38 C37 -178.9(3)
C42 N4 C38 C39 1.6(4)
C42 C41 C40 C39 1.0(4)
C18 N2 C17 C15 -0.3(4)
C12 C13 C11 C10 -1.4(4)
C39 C38 C37 C36 166.9(3)
C5 N1 C1 C2 -0.4(4)
C5 C4 C3 C2 0.5(5)
C40 C41 C42 N4 0.2(5)
C25 N3 C26 C28 -0.3(4)
C9 C8 C7 C6 -7.6(5)
C4 C5 C6 C7 -2.1(5)
C7 C8 C9 C12 178.2(3)
C6 C5 C4 C3 177.0(3)
