#------------------------------------------------------------------------------
#$Date: 2019-11-26 00:30:21 +0200 (Tue, 26 Nov 2019) $
#$Revision: 242172 $
#$URL: file:///home/coder/svn-repositories/cod/cif/4/13/21/4132130.cif $
#------------------------------------------------------------------------------
#
# This file is available in the Crystallography Open Database (COD),
# http://www.crystallography.net/
#
# All data on this site have been placed in the public domain by the
# contributors.
#
data_4132130
loop_
_publ_author_name
'Chu, Qianli'
'Duncan, Andrew J. E.'
'Papaefstathiou, Giannis S.'
'Hamilton, Tamara D.'
'Atkinson, Manza B. J.'
'Mariappan, S. V. Santhana'
'MacGillivray, Leonard R.'
_publ_section_title
;
 Putting Cocrystal Stoichiometry to Work: A Reactive Hydrogen-Bonded
 &quot;Superassembly&quot; Enables Nanoscale Enlargement of a
 Metal-Organic Rhomboid via a Solid-State Photocycloaddition.
;
_journal_issue                   14
_journal_name_full               'Journal of the American Chemical Society'
_journal_page_first              4940
_journal_page_last               4944
_journal_paper_doi               10.1021/jacs.8b01775
_journal_volume                  140
_journal_year                    2018
_chemical_formula_moiety         'C56 H32 Cu2 F24 N4 O8, 4(C H Cl3)'
_chemical_formula_sum            'C60 H36 Cl12 Cu2 F24 N4 O8'
_chemical_formula_weight         1949.41
_chemical_name_common
;
 [Cu4(2-pyr-4-ppyr-cb)2(hfacac)8].8CHCl3       
;
_chemical_name_systematic
;
 [Cu4(K2,K1-2-pyr-4-ppyr-cb)]2[hfacac]8.8CHCl3 
;
_space_group_crystal_system      triclinic
_space_group_IT_number           2
_space_group_name_Hall           '-P 1'
_space_group_name_H-M_alt        'P -1'
_atom_sites_solution_hydrogens   geom
_atom_sites_solution_primary     dual
_audit_creation_date             2017-06-13
_audit_creation_method
;
Olex2 1.2
(compiled 2017.03.28 svn.r3405 for OlexSys, GUI svn.r5337)
;
_cell_angle_alpha                74.866(5)
_cell_angle_beta                 84.001(5)
_cell_angle_gamma                78.978(5)
_cell_formula_units_Z            2
_cell_length_a                   14.240(3)
_cell_length_b                   16.400(3)
_cell_length_c                   17.079(3)
_cell_measurement_reflns_used    12132
_cell_measurement_temperature    190(2)
_cell_measurement_theta_max      25.03
_cell_measurement_theta_min      1.00
_cell_volume                     3772.9(12)
_computing_cell_refinement       'HKL Scalepack (Otwinowski & Minor, 1997)'
_computing_data_collection       'Collect (Nonius BV, 1997-2000)'
_computing_data_reduction
;
 HKL Denzo, Scalepack (Otwinowski & Minor, 1997)
;
_computing_molecular_graphics    'Olex2 (Dolomanov et al., 2009)'
_computing_publication_material  'Olex2 (Dolomanov et al., 2009)'
_computing_structure_refinement  'ShelXL (Sheldrick, 2015)'
_computing_structure_solution    'ShelXT (Sheldrick, 2015)'
_diffrn_ambient_temperature      190.15
_diffrn_measured_fraction_theta_full 0.962
_diffrn_measured_fraction_theta_max 0.987
_diffrn_measurement_device_type  'Nonius KappaCCD'
_diffrn_measurement_method       'CCD phi and omega scans'
_diffrn_radiation_type           MoK\a
_diffrn_radiation_wavelength     0.7107
_diffrn_reflns_av_R_equivalents  0.0299
_diffrn_reflns_av_unetI/netI     0.0528
_diffrn_reflns_Laue_measured_fraction_full 0.962
_diffrn_reflns_Laue_measured_fraction_max 0.987
_diffrn_reflns_limit_h_max       16
_diffrn_reflns_limit_h_min       -16
_diffrn_reflns_limit_k_max       19
_diffrn_reflns_limit_k_min       -19
_diffrn_reflns_limit_l_max       20
_diffrn_reflns_limit_l_min       -20
_diffrn_reflns_number            24698
_diffrn_reflns_point_group_measured_fraction_full 0.962
_diffrn_reflns_point_group_measured_fraction_max 0.987
_diffrn_reflns_theta_full        25.241
_diffrn_reflns_theta_max         25.000
_diffrn_reflns_theta_min         2.716
_exptl_absorpt_coefficient_mu    1.102
_exptl_absorpt_correction_type   multi-scan
_exptl_absorpt_process_details   'HKL Scalepack (Otwinowski & Minor, 1997)'
_exptl_crystal_colour            'clear pale blue'
_exptl_crystal_density_diffrn    1.716
_exptl_crystal_description       plate
_exptl_crystal_F_000             1932
_exptl_crystal_size_max          0.35
_exptl_crystal_size_mid          0.2
_exptl_crystal_size_min          0.12
_exptl_transmission_factor_max   0.9850
_exptl_transmission_factor_min   0.8850
_refine_diff_density_max         1.118
_refine_diff_density_min         -0.627
_refine_diff_density_rms         0.076
_refine_ls_extinction_method     none
_refine_ls_goodness_of_fit_ref   1.062
_refine_ls_hydrogen_treatment    constr
_refine_ls_matrix_type           full
_refine_ls_number_parameters     1396
_refine_ls_number_reflns         13133
_refine_ls_number_restraints     1610
_refine_ls_restrained_S_all      1.063
_refine_ls_R_factor_all          0.0849
_refine_ls_R_factor_gt           0.0581
_refine_ls_shift/su_max          0.001
_refine_ls_shift/su_mean         0.000
_refine_ls_structure_factor_coef Fsqd
_refine_ls_weighting_details
'w=1/[\s^2^(Fo^2^)+(0.0610P)^2^+7.9360P] where P=(Fo^2^+2Fc^2^)/3'
_refine_ls_weighting_scheme      calc
_refine_ls_wR_factor_gt          0.1403
_refine_ls_wR_factor_ref         0.1530
_reflns_Friedel_coverage         0.000
_reflns_number_gt                9744
_reflns_number_total             13133
_reflns_threshold_expression     'I > 2\s(I)'
_cod_data_source_file            ja8b01775_si_002.cif
_cod_data_source_block           rhomboid
_cod_database_code               4132130
_shelxl_version_number           2014/6
_shelx_space_group_comment
;
The symmetry employed for this shelxl refinement is uniquely defined
by the following loop, which should always be used as a source of
symmetry information in preference to the above space-group names.
They are only intended as comments.
;
_shelx_estimated_absorpt_t_max   0.879
_shelx_estimated_absorpt_t_min   0.699
_olex2_refinement_description
;
1. Fixed Uiso
 At 1.2 times of:
  All C(H) groups
2. Restrained distances
 F1-F2 \\sim F1-F3 \\sim F2-F3
 with sigma of 0.02
 F4-F5 \\sim F4-F6 \\sim F5-F6
 with sigma of 0.02
 C39-C41 \\sim C39-C41' \\sim C39-C41"
 with sigma of 0.02
 C41-F4 \\sim C41-F5 \\sim C41-F6 \\sim C41'-F4' \\sim C41-F5' \\sim C41-F6'
\\sim C41"-F4" \\sim C41"-F5"
 \\sim C41"-F6"
 with sigma of 0.02
 C45-F7 \\sim C45-F8 \\sim C45-F9 \\sim C45'-F7' \\sim C45'-F8' \\sim C45'-F9'
 with sigma of 0.02
 C42-C45 \\sim C42-C45'
 with sigma of 0.02
 F7-F8 \\sim F7-F9 \\sim F8-F9
 with sigma of 0.02
 C44-C46 \\sim C44-C46'
 with sigma of 0.02
 C46-F10 \\sim C46-F11 \\sim C46-F12 \\sim C46'-F10' \\sim C46'-F11' \\sim
C46'-F12'
 with sigma of 0.02
 C49-C51 \\sim C49-C51'
 with sigma of 0.02
 F16-F17 \\sim F16-F18 \\sim F17-F18
 with sigma of 0.02
 C51-F16 \\sim C51-F17 \\sim C51-F18 \\sim C51'-F16' \\sim C51'-F17' \\sim
C51'-F18'
 with sigma of 0.02
 C52-C55 \\sim C52-C55'
 with sigma of 0.02
 F19-F20 \\sim F19-F21 \\sim F20-F21
 with sigma of 0.02
 C55-F19 \\sim C55-F20 \\sim C55-F21 \\sim C55'-F19' \\sim C55'-F20' \\sim
C55'-F21'
 with sigma of 0.02
 C54-C56 \\sim C54-C56' \\sim C54-C56"
 with sigma of 0.02
 F22-F23 \\sim F22-F24 \\sim F23-F24
 with sigma of 0.02
 C56-F22 \\sim C56-F23 \\sim C56-F24 \\sim C56'-F22' \\sim C56'-F23' \\sim
C56'-F24' \\sim C56"-F22" ~
 C56"-F23" \\sim C56"-F24"
 with sigma of 0.02
 Cl1-Cl2 \\sim Cl1-Cl3 \\sim Cl2-Cl3
 with sigma of 0.02
 C57-Cl1 \\sim C57-Cl2 \\sim C57-Cl3 \\sim C57'-Cl1' \\sim C57'-Cl2' \\sim
C57'-Cl3'
 with sigma of 0.02
 Cl10-Cl11 \\sim Cl10-Cl12 \\sim Cl11-Cl12 \\sim Cl13-Cl14 \\sim Cl13-Cl15
\\sim Cl14-Cl15 \\sim Cl16-
 Cl17 \\sim Cl16-Cl18 \\sim Cl17-Cl18
 with sigma of 0.02
 C60-Cl10 \\sim C60-Cl11 \\sim C60-Cl12 \\sim C60'-Cl13 \\sim C60'-Cl14 \\sim
C60'-Cl15 \\sim C60"-
 Cl16 \\sim C60"-Cl17 \\sim C60"-Cl18
 with sigma of 0.02
 C59-Cl7 \\sim C59-Cl8 \\sim C59-Cl9 \\sim C59'-Cl7' \\sim C59'-Cl9' \\sim
C59'-Cl9'
 with sigma of 0.02
3. Uiso/Uaniso restraints and constraints
Uanis(C41) = Uanis(C41')
Uanis(C45) = Uanis(C45')
Uanis(C51) = Uanis(C51')
Uanis(C56) = Uanis(C56') = Uanis(C56")
Uanis(C60) = Uanis(C60') = Uanis(C60")
4. Rigid body (RIGU) restrains
 All non-hydrogen atoms
 with sigma for 1-2 distances of 0.004 and sigma for 1-3 distances of 0.004
5. Same fragment restrains
{C41, F4, F5, F6} sigma for 1-2: 0.02, 1-3: 0.04
as
{C41', F4', F5', F6'}
{C41, F4, F5, F6} sigma for 1-2: 0.02, 1-3: 0.04
as
{C41", F4", F5", F6"}
{C45, F7, F8, F9} sigma for 1-2: 0.02, 1-3: 0.04
as
{C45', F7', F8', F9'}
{C46, F10, F11, F12} sigma for 1-2: 0.02, 1-3: 0.04
as
{C46', F10', F11', F12'}
{C51, F16, F17, F18} sigma for 1-2: 0.02, 1-3: 0.04
as
{C51', F16', F17', F18'}
{C55, F19, F20, F21} sigma for 1-2: 0.02, 1-3: 0.04
as
{C55', F19', F20', F21'}
{C56, F22, F23, F24} sigma for 1-2: 0.02, 1-3: 0.04
as
{C56', F22', F23', F24'}
{C56, F22, F23, F24} sigma for 1-2: 0.02, 1-3: 0.04
as
{C56", F22", F23", F24"}
{C57, Cl1, Cl2, Cl3} sigma for 1-2: 0.02, 1-3: 0.04
as
{C57', Cl1', Cl2', Cl3'}
{C60, Cl10, Cl11, Cl12} sigma for 1-2: 0.02, 1-3: 0.04
as
{C60', Cl13, Cl14, Cl15}
{C60, Cl10, Cl11, Cl12} sigma for 1-2: 0.02, 1-3: 0.04
as
{C60", Cl16, Cl17, Cl18}
{C59, Cl7, Cl8, Cl9} sigma for 1-2: 0.02, 1-3: 0.04
as
{C59', Cl7', Cl8', Cl9'}
6. Others
 1*[Sof(C56)+Sof(F22)+Sof(F23)+Sof(F24)]+1*[Sof(C56')+Sof(F22')+Sof(F23')+
 Sof(F24')]+1*[Sof(C56")+Sof(F22")+Sof(F23")+Sof(F24")]=1 with esd of 0.001
 1*[Sof(C60)+Sof(H60)+Sof(Cl10)+Sof(Cl11)+Sof(Cl12)]+1*[Sof(C60')+Sof(H60')+
 Sof(Cl13)+Sof(Cl14)+Sof(Cl15)]+1*[Sof(C60")+Sof(H60")+Sof(Cl16)+Sof(Cl17)+
 Sof(Cl18)]=1 with esd of 0.001
 1*[Sof(C41)+Sof(F4)+Sof(F5)+Sof(F6)]+1*[Sof(C41')+Sof(F4')+Sof(F5')+Sof(F6')]+
 1*[Sof(C41")+Sof(F4")+Sof(F5")+Sof(F6")]=1 with esd of 0.001
 Sof(C57')=Sof(H57')=Sof(Cl1')=Sof(Cl2')=Sof(Cl3')=1-FVAR(1)
 Sof(C57)=Sof(H57)=Sof(Cl1)=Sof(Cl2)=Sof(Cl3)=FVAR(1)
 Sof(C59')=Sof(H59')=Sof(Cl7')=Sof(Cl8')=Sof(Cl9')=1-FVAR(2)
 Sof(C59)=Sof(H59)=Sof(Cl7)=Sof(Cl8)=Sof(Cl9)=FVAR(2)
 Sof(C46')=Sof(F10')=Sof(F11')=Sof(F12')=1-FVAR(3)
 Sof(C46)=Sof(F10)=Sof(F11)=Sof(F12)=FVAR(3)
 Sof(C55')=Sof(F19')=Sof(F20')=Sof(F21')=1-FVAR(4)
 Sof(C55)=Sof(F19)=Sof(F20)=Sof(F21)=FVAR(4)
 Sof(C51')=Sof(F16')=Sof(F17')=Sof(F18')=1-FVAR(5)
 Sof(C51)=Sof(F16)=Sof(F17)=Sof(F18)=FVAR(5)
 Sof(C56)=Sof(F22)=Sof(F23)=Sof(F24)=FVAR(6)
 Sof(C56')=Sof(F22')=Sof(F23')=Sof(F24')=FVAR(7)
 Sof(C56")=Sof(F22")=Sof(F23")=Sof(F24")=FVAR(8)
 Sof(C45')=Sof(F7')=Sof(F8')=Sof(F9')=1-FVAR(9)
 Sof(C45)=Sof(F7)=Sof(F8)=Sof(F9)=FVAR(9)
 Sof(C60)=Sof(H60)=Sof(Cl10)=Sof(Cl11)=Sof(Cl12)=FVAR(10)
 Sof(C60')=Sof(H60')=Sof(Cl13)=Sof(Cl14)=Sof(Cl15)=FVAR(11)
 Sof(C60")=Sof(H60")=Sof(Cl16)=Sof(Cl17)=Sof(Cl18)=FVAR(12)
 Sof(C41)=Sof(F4)=Sof(F5)=Sof(F6)=FVAR(13)
 Sof(C41')=Sof(F4')=Sof(F5')=Sof(F6')=FVAR(14)
 Sof(C41")=Sof(F4")=Sof(F5")=Sof(F6")=FVAR(15)
7.a Ternary CH refined with riding coordinates:
 C12(H12), C13(H13), C14(H14), C15(H15), C57(H57), C57'(H57'), C58(H58),
 C60(H60), C60'(H60'), C60"(H60"), C59(H59), C59'(H59')
7.b Aromatic/amide H refined with riding coordinates:
 C1(H1), C2(H2), C4(H4), C5(H5), C7(H7), C8(H8), C10(H10), C11(H11), C17(H17),
 C18(H18), C20(H20), C21(H21), C23(H23), C24(H24), C25(H25), C26(H26), C28(H28),
  C29(H29), C30(H30), C31(H31), C33(H33), C34(H34), C35(H35), C36(H36),
 C38(H38), C43(H43), C48(H48), C53(H53)
;
_shelx_res_file
;
TITL Mcg03_21 sample #03033 M022403
rem same C40 > F3
rem C40' 1 -0.218383 -0.368299 0.904717 -81.00000 0.04853 0.0622
rem 0.03960 -0.01217 -0.01362 -0.00169
rem F1' 5 -0.158158 -0.349163 0.948857 -81.00000 0.00846
rem F2' 5 -0.185107 -0.352886 0.827754 -81.00000 0.08463
rem F3' 5 -0.216100 -0.452066 0.927670 -81.00000 0.26853
rem eadp Cl1 Cl1'
rem eadp Cl2 Cl2'
rem eadp Cl3 Cl3'
CELL 0.7107 14.24 16.4 17.079 74.866 84.001 78.978
ZERR 2 0.003 0.003 0.003 0.005 0.005 0.005
LATT 1
SFAC C H Cl Cu F N O
UNIT 120 72 24 4 48 8 16
EQIV $1 1-X,-Y,2-Z
EQIV $2 1-X,-Y,1-Z
EQIV $3 2-X,1-Y,1-Z
EQIV $4 2-X,-Y,2-Z
EQIV $5 +X,+Y,1+Z
EQIV $6 -X,1-Y,2-Z
EQIV $7 -X,1-Y,1-Z
EQIV $8 -1+X,+Y,+Z
SADI F1 F2 F1 F3 F2 F3
SADI F4 F5 F4 F6 F5 F6
SADI C39 C41 C39 C41' C39 C41"
SADI C41 F4 C41 F5 C41 F6 C41' F4' C41 F5' C41 F6' C41" F4" C41" F5" C41" F6"
SADI C45 F7 C45 F8 C45 F9 C45' F7' C45' F8' C45' F9'
SADI C42 C45 C42 C45'
SADI F7 F8 F7 F9 F8 F9
SADI C44 C46 C44 C46'
SADI C46 F10 C46 F11 C46 F12 C46' F10' C46' F11' C46' F12'
SADI C49 C51 C49 C51'
SADI F16 F17 F16 F18 F17 F18
SADI C51 F16 C51 F17 C51 F18 C51' F16' C51' F17' C51' F18'
SADI C52 C55 C52 C55'
SADI F19 F20 F19 F21 F20 F21
SADI C55 F19 C55 F20 C55 F21 C55' F19' C55' F20' C55' F21'
SADI C54 C56 C54 C56' C54 C56"
SADI F22 F23 F22 F24 F23 F24
SADI C56 F22 C56 F23 C56 F24 C56' F22' C56' F23' C56' F24' C56" F22" C56" =
 F23" C56" F24"
SADI Cl1 Cl2 Cl1 Cl3 Cl2 Cl3
SADI C57 Cl1 C57 Cl2 C57 Cl3 C57' Cl1' C57' Cl2' C57' Cl3'
SADI Cl10 Cl11 Cl10 Cl12 Cl11 Cl12 Cl13 Cl14 Cl13 Cl15 Cl14 Cl15 Cl16 Cl17 =
 CL16 CL18 CL17 CL18
SADI C60 Cl10 C60 Cl11 C60 Cl12 C60' Cl13 C60' Cl14 C60' Cl15 C60" Cl16 C60" =
 CL17 C60" CL18
SADI C59 Cl7 C59 Cl8 C59 Cl9 C59' Cl7' C59' Cl9' C59' Cl9'
RIGU
EADP C41 C41'
EADP C45 C45'
EADP C51 C51'
EADP C56 C56' C56"
EADP C60 C60' C60"
SUMP 1 0.001 1 7 1 8 1 9
SUMP 1 0.001 1 11 1 12 1 13
SUMP 1 0.001 1 14 1 15 1 16

L.S. 4
PLAN  -40
SIZE 0.12 0.2 0.35
TEMP -83
HTAB C4 F6'_$1
HTAB C14 O6
HTAB C23 Cl9'_$2
HTAB C24 O4_$2
HTAB C26 O2_$2
HTAB C28 F15_$3
HTAB C31 O8
HTAB C33 F11_$1
HTAB C35 F4'_$4
HTAB C36 O8
HTAB C57' Cl13_$5
HTAB C58 F3_$1
HTAB C58 Cl2
HTAB C58 Cl2_$6
HTAB C60 Cl5_$7
HTAB C59 O7_$8
HTAB C59' O6_$8
HTAB C59' F17'_$8
LIST 4
fmap 2
acta
MORE -1
CONF
HTAB
BOND $H
SHEL 7.5 0
OMIT -2 50
OMIT 0 -1 2
REM <olex2.extras>
REM <HklSrc "%./mcg321.hkl">
REM </olex2.extras>

WGHT    0.061000    7.936000
FVAR       0.24376   0.58109   0.50161   0.79003   0.59892   0.59725   0.54366
FVAR       0.23939   0.21736   0.88753   0.36321   0.30182   0.33482   0.59325
FVAR       0.13032   0.27664
CU1   4    0.472259   -0.212191    0.893304    11.00000    0.03307    0.04061 =
         0.03151   -0.00679   -0.00539   -0.01695
CU2   4    1.200306    0.298704    0.574706    11.00000    0.02255    0.03450 =
         0.03026   -0.01076    0.00065   -0.00786
O1    7    0.538008   -0.193986    0.981961    11.00000    0.03744    0.05042 =
         0.04333   -0.01486   -0.00890   -0.01038
O2    7    0.616442   -0.293151    0.862287    11.00000    0.04164    0.05267 =
         0.03975   -0.00938   -0.01124   -0.00620
O3    7    0.437320   -0.316182    0.973118    11.00000    0.05343    0.04712 =
         0.04272   -0.00423   -0.00859   -0.02102
O4    7    0.336037   -0.139004    0.940088    11.00000    0.03956    0.05808 =
         0.03703   -0.00731   -0.00001   -0.01098
O5    7    1.255139    0.380465    0.481323    11.00000    0.03515    0.04246 =
         0.03456   -0.01509    0.00826   -0.01544
O6    7    1.142506    0.253416    0.472053    11.00000    0.02961    0.04223 =
         0.03949   -0.01266    0.00070   -0.00823
O7    7    1.308311    0.204180    0.558216    11.00000    0.03388    0.04318 =
         0.04683   -0.01845   -0.00486   -0.00129
O8    7    1.315540    0.325935    0.647996    11.00000    0.03027    0.04982 =
         0.04263   -0.01548   -0.00367   -0.01027
N1    6    0.511918   -0.103403    0.820901    11.00000    0.03318    0.03817 =
         0.03519   -0.00947    0.00152   -0.01592
N2    6    0.593222    0.237141    0.192823    11.00000    0.03421    0.03565 =
         0.03684   -0.00794   -0.00789   -0.01174
N3    6    1.107821    0.399853    0.597957    11.00000    0.02583    0.02958 =
         0.02717   -0.00756    0.00101   -0.00982
N4    6    1.146558    0.218951    0.673720    11.00000    0.02690    0.03244 =
         0.03278   -0.00880   -0.00268   -0.00721
C1    1    0.562637   -0.102246    0.750583    11.00000    0.04380    0.04483 =
         0.03564   -0.01250    0.00195   -0.01965
AFIX  43
H1    2    0.563910   -0.147783    0.725468    11.00000   -1.20000
AFIX   0
C2    1    0.613716   -0.037046    0.712580    11.00000    0.04232    0.04748 =
         0.03459   -0.00925    0.00566   -0.01914
AFIX  43
H2    2    0.648275   -0.037983    0.662048    11.00000   -1.20000
AFIX   0
C3    1    0.614033    0.029283    0.748666    11.00000    0.02836    0.03766 =
         0.03938   -0.00761   -0.00115   -0.01078
C4    1    0.556384    0.030010    0.818755    11.00000    0.04307    0.04274 =
         0.04693   -0.01651    0.00847   -0.01870
AFIX  43
H4    2    0.550565    0.076523    0.843419    11.00000   -1.20000
AFIX   0
C5    1    0.507487   -0.036319    0.852845    11.00000    0.04688    0.04729 =
         0.04454   -0.01552    0.01420   -0.02041
AFIX  43
H5    2    0.468706   -0.034569    0.901339    11.00000   -1.20000
AFIX   0
C6    1    0.678066    0.094457    0.716618    11.00000    0.03413    0.03653 =
         0.03393   -0.00851    0.00155   -0.01230
C7    1    0.767788    0.071479    0.680354    11.00000    0.03981    0.03908 =
         0.05214   -0.02027    0.00981   -0.01666
AFIX  43
H7    2    0.785583    0.015974    0.670620    11.00000   -1.20000
AFIX   0
C8    1    0.831794    0.129025    0.658173    11.00000    0.03482    0.04335 =
         0.04527   -0.01971    0.01207   -0.01680
AFIX  43
H8    2    0.892464    0.112347    0.632784    11.00000   -1.20000
AFIX   0
C9    1    0.809101    0.209692    0.672231    11.00000    0.02964    0.03474 =
         0.02464   -0.00732    0.00088   -0.00801
C10   1    0.717915    0.232882    0.706422    11.00000    0.03083    0.03353 =
         0.04438   -0.00939    0.00760   -0.00713
AFIX  43
H10   2    0.699489    0.288729    0.715260    11.00000   -1.20000
AFIX   0
C11   1    0.653601    0.176104    0.727779    11.00000    0.02767    0.03397 =
         0.05277   -0.00627    0.00749   -0.00698
AFIX  43
H11   2    0.591643    0.193817    0.750485    11.00000   -1.20000
AFIX   0
C12   1    0.875490    0.273442    0.651869    11.00000    0.02385    0.03225 =
         0.02812   -0.01206    0.00075   -0.00815
AFIX  13
H12   2    0.871521    0.300545    0.698472    11.00000   -1.20000
AFIX   0
C13   1    0.865696    0.347157    0.571310    11.00000    0.02082    0.03055 =
         0.03158   -0.01238   -0.00052   -0.00620
AFIX  13
H13   2    0.830761    0.402568    0.581887    11.00000   -1.20000
AFIX   0
C14   1    0.976454    0.342085    0.567884    11.00000    0.02140    0.02784 =
         0.02618   -0.00826   -0.00076   -0.00397
AFIX  13
H14   2    1.006306    0.340410    0.512540    11.00000   -1.20000
AFIX   0
C15   1    0.982869    0.249252    0.626319    11.00000    0.02438    0.02788 =
         0.02807   -0.00765    0.00031   -0.00813
AFIX  13
H15   2    0.987810    0.207722    0.591764    11.00000   -1.20000
AFIX   0
C16   1    0.824967    0.325705    0.503334    11.00000    0.02507    0.02618 =
         0.03157   -0.00697   -0.00246   -0.01040
C17   1    0.874480    0.272259    0.455736    11.00000    0.02378    0.03043 =
         0.03388   -0.01033   -0.00700   -0.00227
AFIX  43
H17   2    0.939470    0.247340    0.465341    11.00000   -1.20000
AFIX   0
C18   1    0.830668    0.254805    0.394681    11.00000    0.03249    0.02767 =
         0.03476   -0.01331   -0.00017   -0.00541
AFIX  43
H18   2    0.866057    0.218068    0.363197    11.00000   -1.20000
AFIX   0
C19   1    0.735781    0.290169    0.378744    11.00000    0.02651    0.03074 =
         0.03511   -0.00612   -0.00559   -0.00984
C20   1    0.685716    0.343406    0.426635    11.00000    0.02492    0.04680 =
         0.04162   -0.01582   -0.00589   -0.00585
AFIX  43
H20   2    0.620560    0.367983    0.417418    11.00000   -1.20000
AFIX   0
C21   1    0.729914    0.360582    0.487050    11.00000    0.02610    0.03612 =
         0.04172   -0.01616   -0.00263   -0.00443
AFIX  43
H21   2    0.694493    0.397307    0.518531    11.00000   -1.20000
AFIX   0
C22   1    0.687877    0.272569    0.312994    11.00000    0.03045    0.03436 =
         0.03267   -0.00837   -0.00233   -0.01276
C23   1    0.716677    0.199132    0.286119    11.00000    0.05012    0.03932 =
         0.06122   -0.01810   -0.02889    0.00574
AFIX  43
H23   2    0.770288    0.158721    0.308408    11.00000   -1.20000
AFIX   0
C24   1    0.668465    0.183744    0.227224    11.00000    0.05727    0.03778 =
         0.06276   -0.02134   -0.02444   -0.00100
AFIX  43
H24   2    0.690095    0.132230    0.210243    11.00000   -1.20000
AFIX   0
C25   1    0.610075    0.330432    0.275152    11.00000    0.03141    0.04682 =
         0.04422   -0.01994   -0.00631   -0.00530
AFIX  43
H25   2    0.588136    0.383056    0.290076    11.00000   -1.20000
AFIX   0
C26   1    0.565874    0.310621    0.216514    11.00000    0.02755    0.04630 =
         0.04089   -0.01389   -0.00760   -0.00392
AFIX  43
H26   2    0.513526    0.350673    0.191496    11.00000   -1.20000
AFIX   0
C27   1    1.010653    0.407318    0.600409    11.00000    0.02648    0.02371 =
         0.02488   -0.00302   -0.00391   -0.00735
C28   1    0.952534    0.472270    0.627599    11.00000    0.02764    0.03230 =
         0.04513   -0.01389   -0.00472   -0.00374
AFIX  43
H28   2    0.884896    0.476696    0.629208    11.00000   -1.20000
AFIX   0
C29   1    0.991994    0.531809    0.652878    11.00000    0.04035    0.02937 =
         0.04775   -0.01696   -0.00530   -0.00132
AFIX  43
H29   2    0.951901    0.575769    0.673473    11.00000   -1.20000
AFIX   0
C30   1    1.089614    0.526001    0.647583    11.00000    0.04092    0.03041 =
         0.03443   -0.00476   -0.00752   -0.01315
AFIX  43
H30   2    1.118423    0.566858    0.662761    11.00000   -1.20000
AFIX   0
C31   1    1.145078    0.459598    0.619760    11.00000    0.03037    0.03683 =
         0.03957   -0.01019   -0.00142   -0.01602
AFIX  43
H31   2    1.212740    0.455819    0.615786    11.00000   -1.20000
AFIX   0
C32   1    1.053541    0.211651    0.691115    11.00000    0.02491    0.02592 =
         0.02928   -0.01082   -0.00331   -0.00349
C33   1    1.023644    0.162334    0.765182    11.00000    0.03479    0.04025 =
         0.03148   -0.00552   -0.00155   -0.01116
AFIX  43
H33   2    0.957560    0.159158    0.776987    11.00000   -1.20000
AFIX   0
C34   1    1.089140    0.117922    0.821750    11.00000    0.05350    0.04439 =
         0.03835   -0.00085   -0.00913   -0.01185
AFIX  43
H34   2    1.069095    0.083636    0.872433    11.00000   -1.20000
AFIX   0
C35   1    1.184330    0.124281    0.803263    11.00000    0.04705    0.04839 =
         0.03966   -0.00112   -0.01717   -0.00941
AFIX  43
H35   2    1.231444    0.093521    0.840560    11.00000   -1.20000
AFIX   0
C36   1    1.209849    0.175590    0.730359    11.00000    0.03263    0.04121 =
         0.04047   -0.00447   -0.01153   -0.00719
AFIX  43
H36   2    1.275381    0.181123    0.718820    11.00000   -1.20000
AFIX   0
C37   1    0.678488   -0.319594    0.912318    11.00000    0.04095    0.04648 =
         0.03462   -0.00512   -0.00690   -0.00870
C38   1    0.681375   -0.296743    0.986171    11.00000    0.04440    0.07659 =
         0.04491   -0.01935   -0.01742    0.00071
AFIX  43
H38   2    0.733598   -0.324324    1.019246    11.00000   -1.20000
AFIX   0
C39   1    0.613644   -0.237398    1.012933    11.00000    0.03995    0.05581 =
         0.04357   -0.01688   -0.01038   -0.01069
PART 1
C40   1    0.764351   -0.383533    0.890708    11.00000    0.05087    0.06513 =
         0.04217   -0.01116   -0.01245    0.00050
F1    5    0.752472   -0.411668    0.828327    11.00000    0.09231    0.09425 =
         0.05956   -0.03657   -0.02479    0.02309
F2    5    0.843261   -0.348857    0.874628    11.00000    0.04990    0.12207 =
         0.15696   -0.05674    0.01927   -0.01152
F3    5    0.784594   -0.451942    0.951222    11.00000    0.13309    0.08141 =
         0.05476   -0.00863   -0.02376    0.04146
C41   1    0.625450   -0.218531    1.095262   141.00000    0.04495    0.08738 =
         0.05285   -0.03370   -0.01328   -0.00188
F4    5    0.548178   -0.233054    1.145292   141.00000    0.06599    0.10368 =
         0.04403   -0.03619   -0.00362   -0.01006
F5    5    0.703048   -0.263493    1.132721   141.00000    0.05516    0.11769 =
         0.05915   -0.04265   -0.02799    0.00506
F6    5    0.630321   -0.135425    1.086282   141.00000    0.06433    0.08910 =
         0.07390   -0.05064   -0.02325   -0.00899
SAME 0.02 0.04 C41 > F6
PART 0
PART 2
C41'  1    0.625227   -0.220016    1.095442   151.00000    0.04495    0.08738 =
         0.05285   -0.03370   -0.01328   -0.00188
F4'   5    0.673535   -0.154913    1.079494   151.00000    0.05293    0.08899 =
         0.06874   -0.04161   -0.01223   -0.00491
F5'   5    0.672620   -0.290611    1.142860   151.00000    0.05352    0.09179 =
         0.04598   -0.03753   -0.01397    0.00053
F6'   5    0.546504   -0.199109    1.140504   151.00000    0.05147    0.09437 =
         0.06135   -0.03664   -0.01040    0.00258
SAME 0.02 0.04 C41 > F6
PART 0
PART 3
C41"  1    0.640512   -0.202364    1.081098   161.00000    0.06287    0.08695 =
         0.06789   -0.03884   -0.02513   -0.00644
F4"   5    0.728853   -0.232567    1.106001   161.00000    0.06713    0.11960 =
         0.08977   -0.05339   -0.03601   -0.00098
F5"   5    0.630603   -0.117121    1.057887   161.00000    0.09247    0.08742 =
         0.06510   -0.04212   -0.03115   -0.01213
F6"   5    0.582303   -0.219946    1.146564   161.00000    0.07591    0.12383 =
         0.07074   -0.03429   -0.02418   -0.00820
PART 0
C42   1    0.387581   -0.316155    1.038107    11.00000    0.04610    0.05547 =
         0.04041    0.00161   -0.01150   -0.02707
C43   1    0.322628   -0.250204    1.059765    11.00000    0.04384    0.07347 =
         0.04072   -0.00018    0.00408   -0.02243
AFIX  43
H43   2    0.290298   -0.261871    1.111976    11.00000   -1.20000
AFIX   0
C44   1    0.301707   -0.167716    1.009709    11.00000    0.03554    0.06940 =
         0.03852   -0.00996   -0.00281   -0.01616
PART 1
C45   1    0.405758   -0.402119    1.100744   101.00000    0.07891    0.06257 =
         0.05915    0.01165   -0.01031   -0.02478
F7    5    0.401358   -0.466529    1.069762   101.00000    0.15810    0.06243 =
         0.09602    0.00752   -0.01029   -0.04043
F8    5    0.493143   -0.416437    1.126760   101.00000    0.09755    0.10563 =
         0.10056    0.02753   -0.04425   -0.02022
F9    5    0.345497   -0.408583    1.165357   101.00000    0.13058    0.09235 =
         0.07380    0.03375    0.01968   -0.01887
SAME 0.02 0.04 C45 > F9
PART 0
PART 2
C45'  1    0.408576   -0.402525    1.100518  -101.00000    0.07891    0.06257 =
         0.05915    0.01165   -0.01031   -0.02478
F7'   5    0.493808   -0.451096    1.096666  -101.00000    0.08655    0.07120 =
         0.06712    0.00783   -0.01237   -0.02251
F8'   5    0.397521   -0.391509    1.175221  -101.00000    0.12026    0.06946 =
         0.05487    0.01197   -0.01306   -0.02365
F9'   5    0.344945   -0.449990    1.095986  -101.00000    0.09092    0.06868 =
         0.07164    0.00508   -0.00660   -0.03382
PART 0
PART 1
C46   1    0.230169   -0.102024    1.044096    41.00000    0.06606    0.09212 =
         0.04224   -0.01258    0.00900    0.00082
F10   5    0.183101   -0.040671    0.987764    41.00000    0.08621    0.09086 =
         0.07338   -0.00896   -0.00014    0.02573
F11   5    0.164707   -0.137104    1.095647    41.00000    0.09598    0.12442 =
         0.11090   -0.00756    0.05803    0.00200
F12   5    0.276600   -0.061181    1.081193    41.00000    0.13387    0.11319 =
         0.12232   -0.07104   -0.03904    0.01961
SAME 0.02 0.04 C46 > F12
PART 0
PART 2
C46'  1    0.235647   -0.094698    1.038451   -41.00000    0.07700    0.09181 =
         0.05218   -0.01765    0.00511    0.00360
F10'  5    0.159445   -0.076381    0.994774   -41.00000    0.09089    0.11120 =
         0.09163   -0.02454   -0.01845    0.01060
F11'  5    0.204115   -0.114323    1.115592   -41.00000    0.08105    0.11231 =
         0.05234   -0.02203    0.00803    0.00801
F12'  5    0.265141   -0.020831    1.031340   -41.00000    0.13190    0.10676 =
         0.08781   -0.03936    0.02401   -0.02012
PART 0
C47   1    1.280481    0.370481    0.411278    11.00000    0.02937    0.03423 =
         0.03192   -0.00753    0.00101   -0.00307
C48   1    1.253801    0.316628    0.371092    11.00000    0.03694    0.03960 =
         0.03114   -0.01199   -0.00010   -0.00432
AFIX  43
H48   2    1.283258    0.314739    0.318910    11.00000   -1.20000
AFIX   0
C49   1    1.184818    0.264383    0.404105    11.00000    0.03014    0.03110 =
         0.03815   -0.01189   -0.00806    0.00368
C50   1    1.348304    0.431958    0.364960    11.00000    0.03220    0.04341 =
         0.04433   -0.01190    0.01010   -0.00965
F13   5    1.421072    0.427599    0.408294    11.00000    0.06181    0.12377 =
         0.06818   -0.00348   -0.00103   -0.05794
F14   5    1.384868    0.417283    0.295032    11.00000    0.06047    0.06779 =
         0.05595   -0.01798    0.02908   -0.02266
F15   5    1.302802    0.512636    0.349016    11.00000    0.06751    0.04101 =
         0.10549   -0.00864    0.04005   -0.01178
PART 1
C51   1    1.157034    0.217036    0.345377    61.00000    0.04328    0.04534 =
         0.04967   -0.01992   -0.00662   -0.00301
F16   5    1.215286    0.216302    0.279022    61.00000    0.08118    0.09068 =
         0.05830   -0.04657    0.01395   -0.02883
F17   5    1.069559    0.251742    0.320409    61.00000    0.04605    0.09557 =
         0.07394   -0.04388   -0.01689   -0.00429
F18   5    1.154321    0.135933    0.381667    61.00000    0.12610    0.04537 =
         0.08117   -0.02530   -0.01483   -0.01877
SAME 0.02 0.04 C51 > F18
PART 0
PART 2
C51'  1    1.148196    0.215391    0.351454   -61.00000    0.04328    0.04534 =
         0.04967   -0.01992   -0.00662   -0.00301
F16'  5    1.085953    0.268795    0.300936   -61.00000    0.07312    0.05677 =
         0.07057   -0.01750   -0.03069   -0.00983
F17'  5    1.106833    0.150329    0.392857   -61.00000    0.08492    0.05581 =
         0.08044   -0.03513    0.00581   -0.03121
F18'  5    1.218453    0.182559    0.305890   -61.00000    0.05734    0.08508 =
         0.08910   -0.06171   -0.00288   -0.00400
PART 0
C52   1    1.397004    0.208528    0.549355    11.00000    0.02771    0.05105 =
         0.05776   -0.01916   -0.00245    0.00640
C53   1    1.446012    0.259860    0.575821    11.00000    0.03045    0.06020 =
         0.06301   -0.02003   -0.00238   -0.00329
AFIX  43
H53   2    1.513177    0.255583    0.563832    11.00000   -1.20000
AFIX   0
C54   1    1.399211    0.318407    0.620109    11.00000    0.03050    0.04634 =
         0.04694   -0.00714   -0.00907   -0.00717
PART 1
C55   1    1.458405    0.155770    0.492486    51.00000    0.03939    0.05836 =
         0.07852   -0.02736    0.00873    0.00129
F19   5    1.522588    0.095831    0.537039    51.00000    0.08731    0.08622 =
         0.10880   -0.03919   -0.01382    0.04602
F20   5    1.404942    0.114645    0.462345    51.00000    0.06461    0.07188 =
         0.07897   -0.04326    0.02477   -0.01419
F21   5    1.504852    0.200692    0.430902    51.00000    0.11135    0.10403 =
         0.09735   -0.04776    0.06091   -0.04216
SAME 0.02 0.04 C55 > F21
PART 0
PART 2
C55'  1    1.449967    0.129647    0.517134   -51.00000    0.04801    0.07878 =
         0.09400   -0.04526   -0.00512    0.02024
F19'  5    1.442094    0.053033    0.561979   -51.00000    0.09429    0.06701 =
         0.12303   -0.04182   -0.00832    0.02315
F20'  5    1.419503    0.136591    0.445014   -51.00000    0.08989    0.10450 =
         0.09247   -0.05124   -0.01045    0.01308
F21'  5    1.543067    0.135069    0.505205   -51.00000    0.04736    0.11372 =
         0.15898   -0.07386    0.01447    0.01705
PART 0
PART 1
C56   1    1.458792    0.380036    0.635440    71.00000    0.03291    0.05266 =
         0.06923   -0.01538   -0.01017   -0.00989
F22   5    1.540003    0.381723    0.590599    71.00000    0.04191    0.10145 =
         0.10339   -0.03359    0.00623   -0.03456
F23   5    1.407254    0.458221    0.619052    71.00000    0.04966    0.04356 =
         0.12259   -0.01517   -0.01444   -0.01308
F24   5    1.477778    0.358952    0.712659    71.00000    0.06855    0.07968 =
         0.07456   -0.02855   -0.02011   -0.02192
SAME 0.02 0.04 C56 > F24
PART 0
PART 2
C56'  1    1.453858    0.384631    0.635652    81.00000    0.03291    0.05266 =
         0.06923   -0.01538   -0.01017   -0.00989
F22'  5    1.435191    0.457353    0.577879    81.00000    0.05988    0.04698 =
         0.07464   -0.01663   -0.00888   -0.00929
F23'  5    1.426689    0.407517    0.705128    81.00000    0.06398    0.08512 =
         0.07643   -0.03282   -0.01104   -0.02857
F24'  5    1.548869    0.363277    0.633918    81.00000    0.03150    0.06696 =
         0.08324   -0.01650   -0.01459   -0.01862
SAME 0.02 0.04 C56 > F24
PART 0
PART 3
C56"  1    1.451351    0.387808    0.634223    91.00000    0.03291    0.05266 =
         0.06923   -0.01538   -0.01017   -0.00989
F22"  5    1.490892    0.430388    0.564378    91.00000    0.06858    0.07140 =
         0.07865   -0.01092   -0.00263   -0.03385
F23"  5    1.399837    0.447702    0.669693    91.00000    0.04581    0.04519 =
         0.07287   -0.01652   -0.01611   -0.00227
F24"  5    1.523990    0.353409    0.682898    91.00000    0.04279    0.05657 =
         0.08059   -0.02423   -0.02387   -0.00875

PART 0
PART 1
C57   1   -0.008174    0.402797    0.864601    21.00000    0.07246    0.07950 =
         0.07235   -0.03266   -0.01331   -0.00138
AFIX  13
H57   2   -0.021075    0.462245    0.828945    21.00000   -1.20000
AFIX   0
CL1   3    0.086412    0.343676    0.823150    21.00000    0.10691    0.12552 =
         0.12091   -0.05717    0.01952   -0.01029
CL2   3    0.015820    0.406831    0.961132    21.00000    0.07906    0.11795 =
         0.07243   -0.04979    0.01316   -0.04169
CL3   3   -0.109682    0.352728    0.871478    21.00000    0.08260    0.25610 =
         0.15506   -0.12729    0.01984   -0.07979

SAME 0.02 0.04 C57 > Cl3
PART 0
PART 2
C57'  1   -0.000849    0.336628    0.894233   -21.00000    0.07213    0.08937 =
         0.04705   -0.01949    0.01019   -0.02471
AFIX  13
H57'  2   -0.001279    0.274116    0.917910   -21.00000   -1.20000
AFIX   0
CL1'  3    0.089290    0.348234    0.816877   -21.00000    0.04339    0.05971 =
         0.03275   -0.01665   -0.00228   -0.01037
CL2'  3    0.023133    0.381959    0.970406   -21.00000    0.15037    0.18930 =
         0.06093   -0.06279   -0.00891   -0.04431
CL3'  3   -0.111788    0.384345    0.852958   -21.00000    0.05517    0.14552 =
         0.08218   -0.04685    0.00061   -0.00869

PART 0
C58   1    0.169974    0.575423    0.878840    11.00000    0.07027    0.07666 =
         0.06393    0.00411   -0.01343   -0.03241
AFIX  13
H58   2    0.141283    0.538069    0.927881    11.00000   -1.20000
AFIX   0
CL4   3    0.249032    0.509585    0.827123    11.00000    0.07706    0.08042 =
         0.12536   -0.00430   -0.01722   -0.01857
CL5   3    0.077618    0.633609    0.817043    11.00000    0.08550    0.11426 =
         0.06196   -0.02889   -0.02072   -0.00117
CL6   3    0.228272    0.643729    0.911091    11.00000    0.11937    0.16063 =
         0.07026   -0.02624   -0.00002   -0.09356

PART 1
C60   1    0.041271    0.161861    0.126164   111.00000    0.16512    0.11619 =
         0.10503   -0.03670   -0.00116   -0.02918
AFIX  13
H60   2    0.018875    0.224707    0.120055   111.00000   -1.20000
AFIX   0
CL10  3    0.019504    0.108846    0.226635   111.00000    0.11034    0.11924 =
         0.09239   -0.03844   -0.01445   -0.02623
CL11  3    0.163309    0.144830    0.099493   111.00000    0.18207    0.16310 =
         0.21391   -0.05993    0.04643   -0.07081
CL12  3   -0.018579    0.128393    0.060031   111.00000    0.23322    0.31403 =
         0.10804   -0.06384    0.00488   -0.15664

SAME 0.02 0.04 C60 > Cl12
PART 0
PART 2
C60'  1    0.034656    0.154925    0.118854   121.00000    0.16512    0.11619 =
         0.10503   -0.03670   -0.00116   -0.02918
AFIX  13
H60'  2    0.034083    0.209989    0.133929   121.00000   -1.20000
AFIX   0
CL13  3    0.097795    0.158477    0.025204   121.00000    0.21105    0.12259 =
         0.13601   -0.04130    0.02660   -0.02591
CL14  3    0.093376    0.070840    0.192158   121.00000    0.21446    0.17787 =
         0.14337   -0.00924   -0.02837    0.00268
CL15  3   -0.083142    0.140293    0.118322   121.00000    0.16131    0.20087 =
         0.22104   -0.05318   -0.01589   -0.01601

SAME 0.02 0.04 C60 > Cl12
PART 0
PART 3
C60"  1    0.068819    0.157143    0.123661   131.00000    0.16512    0.11619 =
         0.10503   -0.03670   -0.00116   -0.02918
AFIX  13
H60"  2    0.057167    0.219252    0.123610   131.00000   -1.20000
AFIX   0
CL16  3    0.031415    0.147936    0.032512   131.00000    0.20880    0.28311 =
         0.11683   -0.07267   -0.02183   -0.05769
CL17  3   -0.000130    0.104004    0.204116   131.00000    0.19030    0.19867 =
         0.14249   -0.01541    0.02479   -0.07359
CL18  3    0.189679    0.117464    0.134991   131.00000    0.17259    0.09172 =
         0.10079   -0.02436   -0.01242   -0.02608

PART 0
PART 1
C59   1    0.236928    0.029320    0.579376    31.00000    0.06106    0.03710 =
         0.05440   -0.01138   -0.00089   -0.01444
AFIX  13
H59   2    0.235877    0.089529    0.546225    31.00000   -1.20000
AFIX   0
CL7   3    0.335413    0.001095    0.641881    31.00000    0.08300    0.05267 =
         0.07731    0.00237   -0.02295   -0.01904
CL8   3    0.250184   -0.038375    0.512765    31.00000    0.06760    0.05696 =
         0.06186   -0.02289    0.00512   -0.01080
CL9   3    0.126206    0.023948    0.636836    31.00000    0.06922    0.05075 =
         0.08892   -0.02493    0.00763   -0.00480

SAME 0.02 0.04 C59 > Cl9
PART 0
PART 2
C59'  1    0.135080    0.036476    0.547710   -31.00000    0.09801    0.03737 =
         0.06769   -0.00384    0.01257   -0.00335
AFIX  13
H59'  2    0.140334    0.098416    0.526485   -31.00000   -1.20000
AFIX   0
CL7'  3    0.033558    0.018326    0.510870   -31.00000    0.08573    0.15095 =
         0.16779   -0.03107    0.00669   -0.03324
CL8'  3    0.238870   -0.025834    0.514338   -31.00000    0.10049    0.08772 =
         0.06643   -0.02264    0.01271    0.00903
CL9'  3    0.130794    0.011334    0.654666   -31.00000    0.21133    0.04675 =
         0.05876   -0.00882    0.02131    0.03494
HKLF 4

REM  Mcg03_21 sample #03033 M022403
REM R1 =  0.0581 for    9744 Fo > 4sig(Fo)  and  0.0849 for all   13133 data
REM   1396 parameters refined using   1610 restraints

END

WGHT      0.0609      7.9417

REM Instructions for potential hydrogen bonds
HTAB C4 F6'_$1
HTAB C14 O6
HTAB C23 Cl9'_$2
HTAB C24 O4_$2
HTAB C26 O2_$2
HTAB C28 F15_$3
HTAB C31 O8
HTAB C33 F11_$1
HTAB C35 F4'_$4
HTAB C36 O8
HTAB C57' Cl13_$5
HTAB C58 F3_$1
HTAB C58 Cl2
HTAB C58 Cl2_$6
HTAB C60 Cl5_$7
HTAB C59 O7_$8
HTAB C59' O6_$8
HTAB C59' F17'_$8

REM Highest difference peak  1.118,  deepest hole -0.627,  1-sigma level  0.076
Q1    1   0.8458 -0.3536  0.9553  11.00000  0.05    1.12
Q2    1   0.5912  0.1420  0.6362  11.00000  0.05    0.89
Q3    1   0.8130  0.4545  0.5157  11.00000  0.05    0.80
Q4    1   0.2914  0.5721  0.9008  11.00000  0.05    0.46
Q5    1  -0.0095  0.4608  0.8972  11.00000  0.05    0.42
Q6    1   0.2833  0.4990  0.7767  11.00000  0.05    0.42
Q7    1   0.2871  0.5098  0.8738  11.00000  0.05    0.39
Q8    1   1.3627  0.4754  0.4017  11.00000  0.05    0.39
Q9    1   0.1121  0.0852  1.1150  11.00000  0.05    0.39
Q10   1  -0.0736  0.0548  1.1727  11.00000  0.05    0.37
Q11   1   0.9337  0.2497  0.6439  11.00000  0.05    0.37
Q12   1   0.2581  0.0035  0.6655  11.00000  0.05    0.37
Q13   1   1.2224  0.1369  0.3588  11.00000  0.05    0.36
Q14   1   0.0145  0.0708  1.1501  11.00000  0.05    0.36
Q15   1   0.0637  0.0261  0.5639  11.00000  0.05    0.35
Q16   1   0.8131 -0.3633  0.8133  11.00000  0.05    0.34
Q17   1   0.6070  0.0227  0.7975  11.00000  0.05    0.33
Q18   1   0.0741  0.1574  0.2671  11.00000  0.05    0.32
Q19   1   1.3788  0.4180  0.7153  11.00000  0.05    0.32
Q20   1   0.1388 -0.1420  1.0331  11.00000  0.05    0.31
Q21   1   0.1446  0.5973  0.8177  11.00000  0.05    0.31
Q22   1   0.5596  0.0483  0.7615  11.00000  0.05    0.31
Q23   1   0.0615  0.4002  0.8132  11.00000  0.05    0.30
Q24   1   1.2764  0.4956  0.3112  11.00000  0.05    0.29
Q25   1   1.0673  0.2013  0.3701  11.00000  0.05    0.29
Q26   1   0.4186  0.0253  0.8056  11.00000  0.05    0.29
Q27   1   1.0054  0.3617  0.5140  11.00000  0.05    0.29
Q28   1   1.4065  0.0450  0.5894  11.00000  0.05    0.29
Q29   1   0.8652  0.3077  0.6277  11.00000  0.05    0.28
Q30   1   0.6254  0.2639  0.3236  11.00000  0.05    0.28
Q31   1   0.9781  0.4546  0.5839  11.00000  0.05    0.28
Q32   1   0.8518  0.2376  0.6634  11.00000  0.05    0.28
Q33   1   1.4478  0.1877  0.4313  11.00000  0.05    0.28
Q34   1   1.4229  0.3528  0.7371  11.00000  0.05    0.27
Q35   1   0.1624 -0.0377  1.1173  11.00000  0.05    0.27
Q36   1   0.1378 -0.1125  0.5383  11.00000  0.05    0.27
Q37   1   1.4834  0.0684  0.5570  11.00000  0.05    0.27
Q38   1   0.7366 -0.2630  0.9930  11.00000  0.05    0.27
Q39   1   1.5247  0.1543  0.4568  11.00000  0.05    0.27
Q40   1   1.1557  0.2690  0.2756  11.00000  0.05    0.27
;
_shelx_res_checksum              18538
_shelx_hkl_file
;
 -16  -8  -2    3.50    3.70   1
 -16  -8  -1    0.00    1.00   1
 -16  -8   0   -3.31    5.02   1
 -16  -7  -3   21.34    4.44   1
 -16  -7  -2   23.52    5.43   1
 -16  -7  -1   34.11    5.37   1
 -16  -7   0    8.01    4.19   1
 -16  -7   1    1.69    4.68   1
 -16  -6  -3   -0.79    3.58   1
 -16  -6  -2   15.37    4.23   1
 -16  -6  -1    0.30    3.62   1
 -16  -6   0   -0.30    3.92   1
 -16  -6   1   94.48    7.78   1
 -16  -6   2    3.80    4.91   1
 -16  -6   3    6.00    2.60   1
 -16  -5  -4   13.47    6.02   1
 -16  -5  -3   31.70    6.31   1
 -16  -5  -2   10.11    4.58   1
 -16  -5  -1    8.29    4.20   1
 -16  -5   0   77.26    7.56   1
 -16  -5   1   -1.00    4.50   1
 -16  -5   2   18.84    4.51   1
 -16  -5   3   12.67    2.49   1
 -16  -4  -4    0.10    3.44   1
 -16  -4  -3   -0.20    5.13   1
 -16  -4  -2   80.28    8.24   1
 -16  -4  -1    8.01    4.19   1
 -16  -4   0    2.19    3.70   1
 -16  -4   1   33.87    2.91   1
 -16  -4   2   22.56    4.94   1
 -16  -4   3    9.67    2.18   1
 -16  -4   4   14.52    3.12   1
 -16  -3  -5   11.29    3.83   1
 -16  -3  -4   11.97    4.91   1
 -16  -3  -3    3.80    3.39   1
 -16  -3  -2    2.19    5.09   1
 -16  -3  -1   14.98    5.11   1
 -16  -3   0   85.01    4.98   1
 -16  -3   1    2.10    3.80   1
 -16  -3   2   22.94    2.68   1
 -16  -3   3    3.61    2.81   1
 -16  -3   4    4.08    3.27   1
 -16  -2  -5   41.22    6.29   1
 -16  -2  -4    8.41    4.41   1
 -16  -2  -3    8.18    3.20   1
 -16  -2  -2    3.80    4.60   1
 -16  -2  -1   19.36    2.02   1
 -16  -2   0    6.92    2.00   1
 -16  -2   1    6.50    3.88   1
 -16  -2   2   27.25    3.13   1
 -16  -2   3   35.28    3.45   1
 -16  -2   4   28.84    3.33   1
 -16  -1  -5    1.21    2.82   1
 -16  -1  -4   14.21    3.47   1
 -16  -1  -3   15.60    2.13   1
 -16  -1  -2    0.90    1.50   1
 -16  -1  -1    1.49    1.78   1
 -16  -1   0   64.64    7.72   1
 -16  -1   1    9.00    2.28   1
 -16  -1   2   35.76    3.47   1
 -16  -1   3    3.80    2.61   1
 -16  -1   4    7.62    2.82   1
 -16   0  -5   10.82    4.61   1
 -16   0  -4    4.08    1.90   1
 -16   0  -3    6.81    1.72   1
 -16   0  -2    2.10    4.00   1
 -16   0  -1   -0.30    1.71   1
 -16   0   0    0.90    1.99   1
 -16   0   1   32.38    3.53   1
 -16   0   2   21.16    3.31   1
 -16   0   3    1.90    3.31   1
 -16   0   4   26.32    3.49   1
 -16   1  -5    2.10    2.20   1
 -16   1  -4    1.21    2.11   1
 -16   1  -3   26.32    2.67   1
 -16   1  -2    0.59    2.09   1
 -16   1  -1   21.44    2.50   1
 -16   1   0   19.10    2.88   1
 -16   1   1   -0.79    2.08   1
 -16   1   2   10.50    3.18   1
 -16   1   3   20.79    3.28   1
 -16   2  -3    7.40    2.12   1
 -16   2  -2    6.60    2.52   1
 -16   2  -1   11.09    2.93   1
 -16   2   0   -2.40    2.51   1
 -16   2   1   24.80    2.69   1
 -16   2   2    7.40    2.77   1
 -15 -10   0   52.56    6.82   1
 -15 -10   1   -4.00    3.52   1
 -15  -9  -1    6.81    6.52   1
 -15  -9   0  -14.59    5.73   1
 -15  -9   1    8.82    4.40   1
 -15  -9   2   38.44    2.85   1
 -15  -9   3    7.51    2.30   1
 -15  -8  -2    0.30    5.72   1
 -15  -8  -1   -5.81    6.51   1
 -15  -8   0   17.39    7.01   1
 -15  -8   1   -1.30    6.00   1
 -15  -8   2    9.42    1.72   1
 -15  -8   3   13.62    2.44   1
 -15  -8   4   14.67    2.68   1
 -15  -7  -3   13.18    4.21   1
 -15  -7  -2    8.18    4.58   1
 -15  -7  -1    5.11    5.79   1
 -15  -7   0   -7.18    6.11   1
 -15  -7   1   12.11    1.53   1
 -15  -7   2   31.92    2.94   1
 -15  -7   3    2.10    1.71   1
 -15  -7   4    1.90    2.59   1
 -15  -7   5    2.19    2.90   1
 -15  -6  -3    7.02    3.60   1
 -15  -6  -2    4.20    4.10   1
 -15  -6  -1   20.61    5.72   1
 -15  -6   0    4.58    5.99   1
 -15  -6   1    3.61    1.41   1
 -15  -6   2    4.88    6.50   1
 -15  -6   3   23.91    2.93   1
 -15  -6   4   22.56    2.66   1
 -15  -6   5    8.12    2.51   1
 -15  -6   6   39.44    5.02   1
 -15  -5  -4   -1.10    4.41   1
 -15  -5  -3    8.41    3.83   1
 -15  -5  -2    9.30    5.31   1
 -15  -5  -1  131.10    9.39   1
 -15  -5   0    0.00    1.00   1
 -15  -5   1   43.30    3.16   1
 -15  -5   2   37.95    3.45   1
 -15  -5   3   -2.40    2.20   1
 -15  -5   4   -2.40    1.89   1
 -15  -5   5   16.56    2.93   1
 -15  -5   6    1.80    3.19   1
 -15  -4  -4   63.68    6.22   1
 -15  -4  -3  128.37    8.61   1
 -15  -4  -2    2.19    2.99   1
 -15  -4  -1   12.18    5.10   1
 -15  -4   0    9.80    1.63   1
 -15  -4   1    6.50    1.78   1
 -15  -4   2    2.69    2.00   1
 -15  -4   3    6.81    2.61   1
 -15  -4   4    8.41    2.38   1
 -15  -4   5   -0.10    2.23   1
 -15  -4   6    8.01    3.11   1
 -15  -4   7   13.47    3.67   1
 -15  -3  -5    6.20    4.18   1
 -15  -3  -4    3.10    2.71   1
 -15  -3  -3    1.10    4.09   1
 -15  -3  -2   72.76    5.63   1
 -15  -3  -1   51.98    2.88   1
 -15  -3   0   15.92    2.00   1
 -15  -3   1   91.58    8.80   1
 -15  -3   2   52.56    3.34   1
 -15  -3   3   32.38    3.19   1
 -15  -3   4   -0.90    2.11   1
 -15  -3   5    8.88    2.98   1
 -15  -3   6   -3.10    2.82   1
 -15  -3   7   -2.10    3.19   1
 -15  -2  -5   -0.40    2.89   1
 -15  -2  -4    0.79    4.27   1
 -15  -2  -3   29.59    2.18   1
 -15  -2  -2   52.42    3.04   1
 -15  -2  -1    2.89    1.60   1
 -15  -2   0   45.29    3.23   1
 -15  -2   1   19.80    2.49   1
 -15  -2   2    7.90    2.47   1
 -15  -2   3   81.54    4.51   1
 -15  -2   4    3.88    2.29   1
 -15  -2   5   -2.10    2.29   1
 -15  -2   6    6.40    3.09   1
 -15  -2   7    9.18    3.70   1
 -15  -1  -8   51.41    5.16   1
 -15  -1  -7    0.50    1.31   1
 -15  -1  -6    3.50    1.61   1
 -15  -1  -5    1.10    1.20   1
 -15  -1  -4   27.98    2.33   1
 -15  -1  -3    1.00    1.40   1
 -15  -1  -2   46.24    3.26   1
 -15  -1  -1   23.91    3.91   1
 -15  -1   0   -0.20    2.02   1
 -15  -1   1   12.18    2.51   1
 -15  -1   2   61.94    3.78   1
 -15  -1   3   -0.71    2.30   1
 -15  -1   4    1.10    2.50   1
 -15  -1   5   21.53    3.25   1
 -15  -1   6    3.69    3.00   1
 -15  -1   7    1.10    3.51   1
 -15   0  -9   11.22    2.48   1
 -15   0  -8    3.80    2.11   1
 -15   0  -7    1.90    1.90   1
 -15   0  -6    9.42    1.78   1
 -15   0  -5    4.20    1.68   1
 -15   0  -4    0.50    2.71   1
 -15   0  -3    2.40    3.91   1
 -15   0  -2   65.45    3.72   1
 -15   0  -1   10.69    2.03   1
 -15   0   0   64.64    3.86   1
 -15   0   1   31.25    3.24   1
 -15   0   2   -1.30    2.19   1
 -15   0   3   -0.71    2.20   1
 -15   0   4   15.37    3.29   1
 -15   0   5   -1.69    2.50   1
 -15   0   6   26.11    3.47   1
 -15   0   7    7.18    4.29   1
 -15   1  -8   11.63    2.52   1
 -15   1  -7    5.29    2.90   1
 -15   1  -6   -0.30    2.11   1
 -15   1  -5    7.29    2.11   1
 -15   1  -4   27.14    2.29   1
 -15   1  -3    1.59    1.99   1
 -15   1  -2   14.29    2.42   1
 -15   1  -1    0.59    1.99   1
 -15   1   0    5.90    2.09   1
 -15   1   1    3.61    2.70   1
 -15   1   2   66.10    4.88   1
 -15   1   3    3.31    3.02   1
 -15   1   4    5.90    2.72   1
 -15   1   5   -0.90    2.39   1
 -15   1   6    9.12    3.20   1
 -15   1   7    1.99    3.58   1
 -15   2  -7   30.25    3.85   1
 -15   2  -6   12.89    2.23   1
 -15   2  -5   18.23    2.39   1
 -15   2  -4    3.80    1.91   1
 -15   2  -3   17.22    2.24   1
 -15   2  -2   65.12    4.84   1
 -15   2  -1   17.64    2.60   1
 -15   2   0   76.91    4.74   1
 -15   2   1    5.81    2.31   1
 -15   2   2   -1.99    2.40   1
 -15   2   3    6.20    2.49   1
 -15   2   4   11.70    2.80   1
 -15   2   5    7.62    2.93   1
 -15   2   6   19.62    3.63   1
 -15   3  -6   -1.10    2.20   1
 -15   3  -5   39.69    3.65   1
 -15   3  -4   32.04    3.06   1
 -15   3  -3   -0.71    2.30   1
 -15   3  -2   -2.89    2.48   1
 -15   3  -1    6.50    2.40   1
 -15   3   0   19.27    3.34   1
 -15   3   1   19.01    3.14   1
 -15   3   2    3.39    2.61   1
 -15   3   3   11.90    2.83   1
 -15   3   4    2.79    3.11   1
 -15   3   5   31.25    4.36   1
 -15   3   6   24.90    3.49   1
 -15   4  -5   23.52    2.91   1
 -15   4  -4    8.82    2.73   1
 -15   4  -3   21.34    3.05   1
 -15   4  -2   -1.80    2.30   1
 -15   4  -1    3.50    2.69   1
 -15   4   0   20.61    3.09   1
 -15   4   1   18.40    3.26   1
 -15   4   2    4.00    3.00   1
 -15   4   3    3.39    2.80   1
 -15   4   4    5.20    3.42   1
 -15   4   5    4.80    2.50   1
 -15   5  -3    1.59    2.39   1
 -15   5  -2    2.31    2.31   1
 -15   5  -1    8.41    2.90   1
 -15   5   0    1.21    2.90   1
 -15   5   1    9.30    2.99   1
 -15   5   2   20.61    3.63   1
 -15   5   3    2.99    2.39   1
 -14 -12   1   14.82    2.39   1
 -14 -12   2    6.71    2.80   1
 -14 -11   1   23.43    2.52   1
 -14 -11   2    8.58    1.99   1
 -14 -11   3   49.42    4.64   1
 -14 -10   0   10.82    1.38   1
 -14 -10   1    2.79    1.40   1
 -14 -10   2   20.88    2.29   1
 -14 -10   3    9.92    2.39   1
 -14 -10   4   -2.40    2.70   1
 -14  -9  -1   -0.50    5.03   1
 -14  -9   0   -9.30    5.18   1
 -14  -9   1   14.52    1.90   1
 -14  -9   2    2.31    1.61   1
 -14  -9   3   14.67    2.37   1
 -14  -9   4    6.20    2.29   1
 -14  -9   5   -1.90    2.70   1
 -14  -8  -2    7.62    5.63   1
 -14  -8  -1   25.50    5.76   1
 -14  -8   0    3.31    4.91   1
 -14  -8   1    0.20    4.93   1
 -14  -8   2   20.70    2.09   1
 -14  -8   3   18.06    2.46   1
 -14  -8   4    0.40    1.99   1
 -14  -8   5   36.48    3.74   1
 -14  -8   6    9.92    2.90   1
 -14  -7  -3    9.67    4.60   1
 -14  -7  -2   78.32    7.08   1
 -14  -7  -1    3.10    5.21   1
 -14  -7   0   76.74    5.96   1
 -14  -7   1    4.08    3.68   1
 -14  -7   2    3.10    1.51   1
 -14  -7   3    0.00    1.00   1
 -14  -7   4   27.04    3.02   1
 -14  -7   5    9.61    2.23   1
 -14  -7   6    2.19    2.69   1
 -14  -7   7   26.63    3.72   1
 -14  -6  -4   64.64    5.63   1
 -14  -6  -3    9.80    3.13   1
 -14  -6  -2    9.99    4.68   1
 -14  -6  -1   14.82    3.70   1
 -14  -6   0   95.84    3.13   1
 -14  -6   1   18.40    4.38   1
 -14  -6   2   82.63    4.00   1
 -14  -6   3   49.42    3.23   1
 -14  -6   4    8.41    2.38   1
 -14  -6   5   -2.31    2.40   1
 -14  -6   6    8.82    2.49   1
 -14  -6   7    3.39    3.09   1
 -14  -6   8   34.34    5.51   1
 -14  -5  -4   31.47    5.16   1
 -14  -5  -3   98.21    6.14   1
 -14  -5  -2  115.99    7.75   1
 -14  -5  -1    6.60    4.01   1
 -14  -5   0    4.88    0.88   1
 -14  -5   1   30.25    2.75   1
 -14  -5   2    8.88    3.99   1
 -14  -5   3    6.40    1.92   1
 -14  -5   4   12.39    2.82   1
 -14  -5   5   -0.79    2.19   1
 -14  -5   6   16.08    3.13   1
 -14  -5   7   -0.20    2.92   1
 -14  -5   8   13.69    3.11   1
 -14  -4  -5    5.20    3.01   1
 -14  -4  -4   10.82    3.82   1
 -14  -4  -3    3.61    2.89   1
 -14  -4  -2   44.22    5.05   1
 -14  -4  -1  146.65    4.84   1
 -14  -4   0   83.72    3.11   1
 -14  -4   1   11.63    5.12   1
 -14  -4   2   79.39    3.56   1
 -14  -4   3   10.89    2.18   1
 -14  -4   4   -2.31    1.79   1
 -14  -4   5    9.99    2.28   1
 -14  -4   6   15.76    3.10   1
 -14  -4   7    1.80    2.71   1
 -14  -4   8   23.81    3.81   1
 -14  -4   9   10.50    3.89   1
 -14  -3  -5    0.40    3.78   1
 -14  -3  -4    2.10    4.00   1
 -14  -3  -3  113.42    8.31   1
 -14  -3  -2   24.80    1.20   1
 -14  -3  -1    5.20    0.91   1
 -14  -3   0    2.10    1.19   1
 -14  -3   1  115.13    4.94   1
 -14  -3   2   29.81    1.86   1
 -14  -3   3    0.20    2.11   1
 -14  -3   4   77.26    4.22   1
 -14  -3   5   -1.80    2.01   1
 -14  -3   6   -1.21    2.82   1
 -14  -3   7   48.44    3.90   1
 -14  -3   8    4.58    2.61   1
 -14  -3   9   20.34    4.96   1
 -14  -2 -12    0.59    1.79   1
 -14  -2 -11   23.52    2.81   1
 -14  -2 -10    4.80    1.71   1
 -14  -2  -9   -0.71    1.41   1
 -14  -2  -8   18.92    1.91   1
 -14  -2  -5    0.59    3.19   1
 -14  -2  -4   38.81    1.87   1
 -14  -2  -3  105.47    4.11   1
 -14  -2  -2   15.76    1.27   1
 -14  -2  -1   85.56    3.51   1
 -14  -2   0    2.50    3.98   1
 -14  -2   1   34.11    1.99   1
 -14  -2   2    4.00    1.40   1
 -14  -2   3   61.15    3.60   1
 -14  -2   4    6.50    2.40   1
 -14  -2   5    1.00    2.10   1
 -14  -2   6   38.69    3.48   1
 -14  -2   7    1.10    4.09   1
 -14  -2   8   10.50    3.63   1
 -14  -2   9    1.99    3.89   1
 -14  -1 -12   15.60    3.40   1
 -14  -1 -11    4.00    2.00   1
 -14  -1 -10    7.62    2.32   1
 -14  -1  -9   56.25    4.65   1
 -14  -1  -8    7.67    1.77   1
 -14  -1  -7    1.00    1.50   1
 -14  -1  -5   68.72    2.98   1
 -14  -1  -4    3.80    1.09   1
 -14  -1  -3   36.36    2.05   1
 -14  -1  -2    7.02    1.70   1
 -14  -1  -1   51.84    2.74   1
 -14  -1   0   10.11    1.53   1
 -14  -1   1   10.69    1.70   1
 -14  -1   2   -2.19    1.98   1
 -14  -1   3    3.88    2.29   1
 -14  -1   4    4.41    2.18   1
 -14  -1   5    9.92    2.39   1
 -14  -1   6   23.72    3.41   1
 -14  -1   7   51.70    4.31   1
 -14  -1   8   18.06    3.40   1
 -14  -1   9    5.29    3.08   1
 -14   0 -11    8.70    2.48   1
 -14   0 -10   24.21    2.95   1
 -14   0  -9    0.79    2.30   1
 -14   0  -8   15.52    2.29   1
 -14   0  -6    4.00    1.40   1
 -14   0  -5   -0.59    1.59   1
 -14   0  -4    0.90    1.31   1
 -14   0  -3    5.81    1.30   1
 -14   0  -2    2.79    1.20   1
 -14   0  -1   27.77    2.00   1
 -14   0   0   52.42    2.46   1
 -14   0   1   -0.10    1.72   1
 -14   0   2   27.14    2.71   1
 -14   0   3   41.34    2.96   1
 -14   0   4   -0.59    2.39   1
 -14   0   5   36.36    3.38   1
 -14   0   6   16.00    2.80   1
 -14   0   7   10.69    3.27   1
 -14   0   8   20.07    3.76   1
 -14   0   9    5.38    3.20   1
 -14   1 -10   14.06    3.00   1
 -14   1  -9    5.52    2.40   1
 -14   1  -8   13.99    2.99   1
 -14   1  -7    1.30    2.60   1
 -14   1  -6   18.40    2.23   1
 -14   1  -5   18.58    2.07   1
 -14   1  -4   40.45    2.54   1
 -14   1  -3   27.67    2.31   1
 -14   1  -2   38.69    2.49   1
 -14   1  -1   18.66    2.68   1
 -14   1   0    3.10    1.80   1
 -14   1   1  117.07    5.63   1
 -14   1   2   11.42    2.43   1
 -14   1   3    0.71    2.40   1
 -14   1   4    2.69    1.80   1
 -14   1   5   25.81    3.25   1
 -14   1   6   15.37    2.51   1
 -14   1   7   25.70    3.75   1
 -14   1   8   11.49    2.98   1
 -14   1   9    4.88    4.20   1
 -14   2 -10    3.39    2.98   1
 -14   2  -9    0.40    2.68   1
 -14   2  -8    2.69    2.49   1
 -14   2  -7    4.49    2.59   1
 -14   2  -6  122.10    5.75   1
 -14   2  -5   25.60    2.43   1
 -14   2  -4   69.72    4.01   1
 -14   2  -3   15.13    2.49   1
 -14   2  -2   12.39    2.11   1
 -14   2  -1    6.81    2.30   1
 -14   2   0    8.18    2.40   1
 -14   2   1    2.50    1.99   1
 -14   2   2   25.00    2.80   1
 -14   2   3    8.82    2.38   1
 -14   2   4    0.59    2.39   1
 -14   2   5    4.71    2.60   1
 -14   2   6    7.51    3.40   1
 -14   2   7    1.30    2.19   1
 -14   2   8   -0.90    3.10   1
 -14   2   9   37.95    5.54   1
 -14   3  -9    1.69    3.09   1
 -14   3  -8   24.01    4.12   1
 -14   3  -6    5.02    2.11   1
 -14   3  -5    0.00    1.00   1
 -14   3  -4    8.41    1.80   1
 -14   3  -3    8.82    2.38   1
 -14   3  -2   44.36    3.46   1
 -14   3  -1    9.61    2.29   1
 -14   3   0    3.31    2.29   1
 -14   3   1   12.60    2.27   1
 -14   3   2    3.39    2.39   1
 -14   3   3    8.58    2.52   1
 -14   3   4   17.47    2.59   1
 -14   3   5   63.84    4.63   1
 -14   3   6   27.77    3.69   1
 -14   3   7   31.25    3.58   1
 -14   3   8    7.08    3.78   1
 -14   4  -8   -0.90    3.10   1
 -14   4  -7    7.08    3.19   1
 -14   4  -6   32.95    2.98   1
 -14   4  -5    6.10    2.72   1
 -14   4  -4   43.56    3.43   1
 -14   4  -3    4.71    2.30   1
 -14   4  -2    5.29    1.89   1
 -14   4  -1    9.67    2.67   1
 -14   4   0   45.70    4.87   1
 -14   4   1    0.00    1.00   1
 -14   4   2   42.77    3.40   1
 -14   4   3   24.01    3.23   1
 -14   4   4   11.49    2.71   1
 -14   4   5    2.99    3.08   1
 -14   4   6   40.83    4.35   1
 -14   4   7    5.71    3.11   1
 -14   4   8   15.13    3.97   1
 -14   5  -6    5.20    3.42   1
 -14   5  -5   30.25    2.97   1
 -14   5  -4    9.80    2.38   1
 -14   5  -3   16.56    2.69   1
 -14   5  -2   34.11    3.62   1
 -14   5  -1    2.31    2.10   1
 -14   5   0    7.29    2.48   1
 -14   5   1    2.69    2.79   1
 -14   5   2   11.42    3.11   1
 -14   5   3   -0.10    2.73   1
 -14   5   4    8.70    3.13   1
 -14   5   5   36.00    3.96   1
 -14   5   6    2.40    3.19   1
 -14   5   7    1.69    3.69   1
 -14   6  -5    0.79    3.99   1
 -14   6  -4   28.94    5.06   1
 -14   6  -3    0.90    2.20   1
 -14   6  -2    0.50    2.51   1
 -14   6  -1    0.30    2.61   1
 -14   6   0   14.06    3.08   1
 -14   6   1   -0.90    1.99   1
 -14   6   2    1.80    2.20   1
 -14   6   3    0.79    2.58   1
 -14   6   4   -2.31    2.22   1
 -14   6   5    2.31    2.80   1
 -14   6   6   24.21    4.33   1
 -14   7  -3    8.53    4.32   1
 -14   7  -2    6.10    2.82   1
 -14   7  -1    2.19    1.98   1
 -14   7   0    1.99    2.59   1
 -14   7   1    2.89    2.38   1
 -14   7   2    0.71    2.40   1
 -14   7   3    5.81    2.70   1
 -14   7   4   41.99    4.54   1
 -13 -14  -2   12.18    2.02   1
 -13 -14  -1   22.18    3.20   1
 -13 -14   0    1.49    1.78   1
 -13 -13  -2    4.80    1.40   1
 -13 -13  -1    0.71    1.71   1
 -13 -13   0   27.35    3.56   1
 -13 -13   1   -0.10    2.33   1
 -13 -13   2   25.81    3.45   1
 -13 -12  -1    9.49    1.79   1
 -13 -12   0   -1.80    1.69   1
 -13 -12   1   28.84    3.65   1
 -13 -12   2   50.55    4.69   1
 -13 -12   3   10.30    4.17   1
 -13 -12   4   88.92    5.66   1
 -13 -11   0    2.79    1.60   1
 -13 -11   1   26.52    2.58   1
 -13 -11   2    4.58    2.01   1
 -13 -11   3   21.16    3.13   1
 -13 -11   4   14.82    2.93   1
 -13 -11   5    6.92    2.89   1
 -13 -10   0    4.28    1.20   1
 -13 -10   1   26.52    2.47   1
 -13 -10   2    1.90    1.41   1
 -13 -10   3    5.90    1.99   1
 -13 -10   4    8.53    2.51   1
 -13 -10   5   19.54    3.01   1
 -13 -10   6    0.90    1.80   1
 -13  -9  -1   13.40    4.32   1
 -13  -9   0   13.18    1.60   1
 -13  -9   1    2.69    1.61   1
 -13  -9   2    1.59    1.69   1
 -13  -9   3   13.76    2.08   1
 -13  -9   4    2.89    2.31   1
 -13  -9   5    2.50    2.69   1
 -13  -9   6   12.82    2.94   1
 -13  -9   7   -1.00    2.80   1
 -13  -8  -2   21.72    5.03   1
 -13  -8  -1   38.94    6.24   1
 -13  -8   0    1.59    1.08   1
 -13  -8   1   97.61    3.56   1
 -13  -8   2    5.20    1.69   1
 -13  -8   3    3.39    1.99   1
 -13  -8   4   -1.10    1.91   1
 -13  -8   5   15.29    2.58   1
 -13  -8   6    8.18    2.69   1
 -13  -8   7    6.00    4.21   1
 -13  -8   8   19.10    3.50   1
 -13  -7  -3  155.00   11.45   1
 -13  -7  -2    0.10    4.15   1
 -13  -7  -1   45.16    4.44   1
 -13  -7   0  144.48    4.81   1
 -13  -7   1   19.01    1.31   1
 -13  -7   2    5.81    1.30   1
 -13  -7   3   21.62    2.33   1
 -13  -7   4   11.09    2.33   1
 -13  -7   5    0.30    2.61   1
 -13  -7   6    3.80    2.42   1
 -13  -7   7   -1.90    1.90   1
 -13  -7   8    0.50    3.11   1
 -13  -7   9   74.65    5.18   1
 -13  -6  -3    8.88    3.99   1
 -13  -6  -2  107.54    6.64   1
 -13  -6  -1   28.94    3.66   1
 -13  -6   0    2.79    0.80   1
 -13  -6   1   35.88    1.80   1
 -13  -6   2   36.24    2.29   1
 -13  -6   3    1.80    1.39   1
 -13  -6   4   20.16    1.80   1
 -13  -6   5    5.52    2.21   1
 -13  -6   6   -1.10    2.50   1
 -13  -6   7   54.32    4.42   1
 -13  -6   8    0.20    2.92   1
 -13  -6   9   22.18    3.86   1
 -13  -5  -4   81.72    7.41   1
 -13  -5  -3   15.52    4.49   1
 -13  -5  -2   64.64    5.31   1
 -13  -5  -1   11.90    3.52   1
 -13  -5   0  132.94    4.61   1
 -13  -5   1   10.37    1.42   1
 -13  -5   2    7.90    1.52   1
 -13  -5   3  145.20    4.58   1
 -13  -5   4    4.80    2.10   1
 -13  -5   5   10.63    2.09   1
 -13  -5   6   10.18    2.30   1
 -13  -5   7   25.70    3.55   1
 -13  -5   8    5.38    2.51   1
 -13  -5   9   48.30    4.17   1
 -13  -5  10   -4.58    2.61   1
 -13  -4 -14    9.12    2.72   1
 -13  -4 -13   20.70    2.73   1
 -13  -4 -12   15.37    2.20   1
 -13  -4 -11    1.00    1.00   1
 -13  -4  -5   63.84    5.43   1
 -13  -4  -4  208.51   10.97   1
 -13  -4  -3   32.95    6.66   1
 -13  -4  -2  164.61   10.01   1
 -13  -4  -1    5.29    0.69   1
 -13  -4   0    8.88    1.01   1
 -13  -4   1   85.38    3.51   1
 -13  -4   2   21.81    1.59   1
 -13  -4   3   23.23    1.74   1
 -13  -4   4    1.21    1.61   1
 -13  -4   5   52.71    2.61   1
 -13  -4   6    3.31    2.40   1
 -13  -4   7    0.20    2.82   1
 -13  -4   8   41.34    3.86   1
 -13  -4   9   20.79    3.92   1
 -13  -4  10    3.50    3.70   1
 -13  -3 -14   -0.20    2.02   1
 -13  -3 -13   33.52    3.59   1
 -13  -3 -12   18.06    2.46   1
 -13  -3 -11   -0.10    1.41   1
 -13  -3 -10   27.88    2.43   1
 -13  -3  -9   36.60    1.69   1
 -13  -3  -5   32.15    4.65   1
 -13  -3  -4   99.00    6.37   1
 -13  -3  -3   19.71    3.91   1
 -13  -3  -2  252.81    7.63   1
 -13  -3  -1   24.21    1.38   1
 -13  -3   0  109.41    3.35   1
 -13  -3   1   11.97    1.31   1
 -13  -3   2    4.71    1.30   1
 -13  -3   3   25.50    1.82   1
 -13  -3   4   14.90    1.70   1
 -13  -3   5    0.71    1.71   1
 -13  -3   6    1.80    1.80   1
 -13  -3   7   10.30    2.50   1
 -13  -3   8    1.90    2.90   1
 -13  -3   9    9.92    2.52   1
 -13  -3  10    0.30    2.92   1
 -13  -2 -13    0.79    2.30   1
 -13  -2 -12    3.10    2.39   1
 -13  -2 -11   54.32    4.86   1
 -13  -2 -10    5.71    1.82   1
 -13  -2  -9   50.55    4.12   1
 -13  -2  -8   28.20    1.59   1
 -13  -2  -7    1.30    0.80   1
 -13  -2  -6   25.30    1.61   1
 -13  -2  -5   25.00    1.30   1
 -13  -2  -4   10.11    0.89   1
 -13  -2  -3   74.82    2.94   1
 -13  -2  -2   18.49    1.20   1
 -13  -2  -1    3.20    0.89   1
 -13  -2   0    0.20    1.11   1
 -13  -2   1   42.77    2.09   1
 -13  -2   2    4.88    1.41   1
 -13  -2   3   -2.50    1.49   1
 -13  -2   4   40.07    2.15   1
 -13  -2   5   13.76    1.78   1
 -13  -2   6   -1.10    1.91   1
 -13  -2   7   24.60    3.17   1
 -13  -2   8   52.27    4.05   1
 -13  -2   9    2.50    2.81   1
 -13  -2  10   17.47    3.18   1
 -13  -2  11   46.10    5.98   1
 -13  -1 -13   18.06    3.48   1
 -13  -1 -12    3.20    2.68   1
 -13  -1 -11   16.81    2.71   1
 -13  -1 -10    2.69    2.30   1
 -13  -1  -9   89.68    5.49   1
 -13  -1  -8    2.89    1.29   1
 -13  -1  -7   63.36    3.34   1
 -13  -1  -6   10.37    1.29   1
 -13  -1  -5   12.67    1.57   1
 -13  -1  -4   23.81    1.46   1
 -13  -1  -3   21.62    1.49   1
 -13  -1  -2   28.52    2.88   1
 -13  -1  -1  122.54    4.21   1
 -13  -1   0   57.76    2.28   1
 -13  -1   1    6.81    1.41   1
 -13  -1   2   24.01    1.76   1
 -13  -1   3    0.71    1.71   1
 -13  -1   4    0.79    1.69   1
 -13  -1   5   38.94    2.25   1
 -13  -1   6  149.33    5.62   1
 -13  -1   7    2.79    2.30   1
 -13  -1   8    6.30    2.81   1
 -13  -1   9    0.40    2.60   1
 -13  -1  10   33.41    4.39   1
 -13  -1  11   24.50    3.96   1
 -13   0 -13   13.18    3.78   1
 -13   0 -11   60.22    5.28   1
 -13   0 -10    4.20    2.42   1
 -13   0  -9   10.37    2.13   1
 -13   0  -8    0.40    1.59   1
 -13   0  -7    6.81    1.62   1
 -13   0  -6   57.46    2.43   1
 -13   0  -5   98.01    3.76   1
 -13   0  -4    3.88    0.99   1
 -13   0  -3    2.31    1.09   1
 -13   0  -2    6.40    1.11   1
 -13   0  -1  104.45    3.47   1
 -13   0   0   29.70    1.85   1
 -13   0   1   33.18    2.07   1
 -13   0   2   29.81    1.97   1
 -13   0   3   15.60    1.90   1
 -13   0   4    5.38    1.81   1
 -13   0   5   18.06    2.04   1
 -13   0   6    0.79    1.58   1
 -13   0   7   -0.10    2.73   1
 -13   0   8    7.78    2.68   1
 -13   0   9    0.00    1.00   1
 -13   0  10   23.52    3.78   1
 -13   0  11   -3.39    5.00   1
 -13   1 -12   11.42    3.58   1
 -13   1 -11   -1.21    2.82   1
 -13   1 -10   22.28    3.30   1
 -13   1  -9   31.47    3.59   1
 -13   1  -8    4.00    2.20   1
 -13   1  -7   14.06    2.62   1
 -13   1  -6   21.07    1.56   1
 -13   1  -5   41.09    2.44   1
 -13   1  -4   34.46    2.00   1
 -13   1  -3   19.98    1.61   1
 -13   1  -2   29.27    1.84   1
 -13   1  -1    8.29    1.38   1
 -13   1   0   33.06    1.96   1
 -13   1   1   13.32    1.68   1
 -13   1   2   11.42    1.89   1
 -13   1   3    8.01    1.81   1
 -13   1   4   32.15    2.27   1
 -13   1   5    0.30    1.80   1
 -13   1   6  131.10    4.81   1
 -13   1   7    6.92    2.00   1
 -13   1   8    1.49    2.20   1
 -13   1   9    5.11    2.71   1
 -13   1  10   25.50    3.74   1
 -13   1  11    2.50    5.18   1
 -13   2 -11    6.92    3.00   1
 -13   2 -10    9.80    3.13   1
 -13   2  -9    0.30    2.82   1
 -13   2  -8   18.49    3.01   1
 -13   2  -7   20.52    3.17   1
 -13   2  -6    0.40    1.69   1
 -13   2  -5   36.12    1.92   1
 -13   2  -4    8.82    1.60   1
 -13   2  -3    2.31    1.61   1
 -13   2  -2   42.90    2.36   1
 -13   2  -1   86.86    3.36   1
 -13   2   0   49.84    2.54   1
 -13   2   1   38.19    2.47   1
 -13   2   2   16.73    1.96   1
 -13   2   3    3.80    1.91   1
 -13   2   4    9.18    2.12   1
 -13   2   5   28.09    2.65   1
 -13   2   6  101.00    4.42   1
 -13   2   7   23.52    2.91   1
 -13   2   8   32.72    3.09   1
 -13   2   9    6.50    3.62   1
 -13   2  10   -5.38    3.80   1
 -13   2  11    2.59    3.90   1
 -13   3 -11    4.58    3.30   1
 -13   3 -10    9.42    3.50   1
 -13   3  -9    3.20    3.69   1
 -13   3  -8    1.59    3.18   1
 -13   3  -7    7.29    2.48   1
 -13   3  -6    2.69    2.00   1
 -13   3  -5    7.78    1.67   1
 -13   3  -4    2.10    1.51   1
 -13   3  -3   82.45    3.45   1
 -13   3  -2   31.92    2.15   1
 -13   3  -1    1.80    1.29   1
 -13   3   0    5.90    1.80   1
 -13   3   1   72.08    3.06   1
 -13   3   2   35.40    2.62   1
 -13   3   3   18.23    2.22   1
 -13   3   4    1.99    1.61   1
 -13   3   5    5.71    2.10   1
 -13   3   6    7.62    2.21   1
 -13   3   7    6.20    2.29   1
 -13   3   8   17.14    3.39   1
 -13   3   9   15.37    3.29   1
 -13   3  10   35.64    4.42   1
 -13   4 -10   -1.49    3.88   1
 -13   4  -9   -0.20    2.21   1
 -13   4  -8    4.20    3.32   1
 -13   4  -7   -0.10    3.14   1
 -13   4  -6    6.60    1.90   1
 -13   4  -5   24.60    2.58   1
 -13   4  -4   30.69    2.77   1
 -13   4  -3    2.59    1.61   1
 -13   4  -2   12.67    1.99   1
 -13   4  -1   63.84    3.04   1
 -13   4   0    4.28    1.90   1
 -13   4   1   60.68    2.96   1
 -13   4   2    3.61    2.32   1
 -13   4   3   19.80    2.40   1
 -13   4   4    0.71    1.61   1
 -13   4   5   38.44    2.73   1
 -13   4   6   32.38    3.76   1
 -13   4   7   20.07    3.67   1
 -13   4   8   20.07    3.67   1
 -13   4   9    3.39    2.50   1
 -13   4  10    3.80    2.89   1
 -13   5  -9    2.89    3.71   1
 -13   5  -8   26.94    4.88   1
 -13   5  -7    6.71    2.18   1
 -13   5  -6   33.76    3.25   1
 -13   5  -5   23.33    2.80   1
 -13   5  -4    0.90    2.20   1
 -13   5  -3   27.04    2.60   1
 -13   5  -2    0.90    2.11   1
 -13   5  -1   -2.99    1.49   1
 -13   5   0    2.59    1.61   1
 -13   5   1   13.03    2.02   1
 -13   5   2   18.23    2.22   1
 -13   5   3   48.44    3.06   1
 -13   5   4   -0.59    2.09   1
 -13   5   5    4.80    2.01   1
 -13   5   6   19.62    3.37   1
 -13   5   7   23.04    3.36   1
 -13   5   8    0.59    2.99   1
 -13   5   9   34.69    4.24   1
 -13   5  10    1.69    4.89   1
 -13   6  -8   23.14    4.81   1
 -13   6  -7    6.00    3.38   1
 -13   6  -6    5.71    4.30   1
 -13   6  -5    1.90    1.71   1
 -13   6  -4    6.00    2.11   1
 -13   6  -3    7.51    2.41   1
 -13   6  -2   40.45    3.56   1
 -13   6  -1   -3.50    1.68   1
 -13   6   0    2.79    2.40   1
 -13   6   1   13.10    2.61   1
 -13   6   2   17.72    3.20   1
 -13   6   3    2.79    3.01   1
 -13   6   4    7.18    3.11   1
 -13   6   5   59.14    4.46   1
 -13   6   6   -1.80    2.39   1
 -13   6   7   -3.20    3.51   1
 -13   6   8    0.79    2.79   1
 -13   6   9   19.80    5.78   1
 -13   7  -6   11.22    4.62   1
 -13   7  -5    1.99    2.90   1
 -13   7  -4   17.98    3.48   1
 -13   7  -3    3.80    2.50   1
 -13   7  -2   24.60    3.17   1
 -13   7  -1    3.69    2.69   1
 -13   7   0   36.84    3.52   1
 -13   7   1   19.18    2.80   1
 -13   7   2    0.90    1.99   1
 -13   7   3    7.40    2.50   1
 -13   7   4    5.20    2.19   1
 -13   7   5   14.82    3.08   1
 -13   7   6    5.29    5.01   1
 -13   7   7   31.02    5.57   1
 -13   7   8   -1.30    3.60   1
 -13   8  -4   17.81    4.22   1
 -13   8  -3    4.08    2.79   1
 -13   8  -2   14.90    2.47   1
 -13   8  -1    4.49    2.20   1
 -13   8   0    8.18    2.57   1
 -13   8   1    6.60    2.52   1
 -13   8   2    5.11    2.71   1
 -13   8   3   -1.59    3.28   1
 -13   8   4   14.90    4.71   1
 -13   8   5    8.70    3.60   1
 -13   8   6    2.99    3.29   1
 -13   8   7    4.28    5.80   1
 -13   9  -1   -3.69    2.19   1
 -13   9   0    8.41    2.61   1
 -13   9   1    2.19    3.49   1
 -13   9   2    2.79    2.20   1
 -13   9   3    4.20    3.40   1
 -13   9   4   -1.39    3.59   1
 -12 -16  -4    6.40    2.48   1
 -12 -16  -3   18.06    2.97   1
 -12 -15  -5   18.84    2.34   1
 -12 -15  -4   13.91    2.31   1
 -12 -15  -1   36.36    3.86   1
 -12 -15   0    3.69    3.30   1
 -12 -14  -5    1.10    1.01   1
 -12 -14  -4    2.59    1.51   1
 -12 -14  -3    7.40    2.01   1
 -12 -14  -2   50.55    5.12   1
 -12 -14  -1   -1.21    2.11   1
 -12 -14   0    9.12    2.48   1
 -12 -14   1   49.14    4.77   1
 -12 -14   2    2.79    3.11   1
 -12 -14   3   58.52    5.66   1
 -12 -13  -4   22.37    1.99   1
 -12 -13  -3   13.91    2.01   1
 -12 -13  -1    7.08    2.29   1
 -12 -13   1    8.01    2.89   1
 -12 -13   2   18.32    3.42   1
 -12 -13   3   12.11    3.13   1
 -12 -13   4    0.90    2.39   1
 -12 -12  -3    1.39    0.59   1
 -12 -12  -2   29.59    2.83   1
 -12 -12  -1    2.10    1.60   1
 -12 -12   0   66.75    4.58   1
 -12 -12   1   16.40    3.00   1
 -12 -12   2    0.30    2.31   1
 -12 -12   3   22.00    2.91   1
 -12 -12   4   77.44    5.46   1
 -12 -12   5    1.90    2.70   1
 -12 -12   6    9.00    5.88   1
 -12 -11  -2    3.80    0.82   1
 -12 -11  -1    9.61    1.18   1
 -12 -11   0   12.67    1.99   1
 -12 -11   1   13.76    2.23   1
 -12 -11   2  141.13    7.13   1
 -12 -11   3   30.47    3.09   1
 -12 -11   4   -0.10    2.33   1
 -12 -11   5   13.32    2.92   1
 -12 -11   6   31.58    3.48   1
 -12 -11   7    1.30    3.10   1
 -12 -10  -1    8.58    1.52   1
 -12 -10   0   17.98    1.78   1
 -12 -10   1   56.10    2.55   1
 -12 -10   2    3.69    1.69   1
 -12 -10   3    1.99    2.00   1
 -12 -10   4   32.15    2.84   1
 -12 -10   5    9.12    2.42   1
 -12 -10   6    6.00    2.50   1
 -12 -10   7    3.88    4.69   1
 -12 -10   8   28.73    4.18   1
 -12  -9  -1  281.57   11.07   1
 -12  -9   0   29.27    1.62   1
 -12  -9   1    1.59    1.29   1
 -12  -9   2   17.31    1.58   1
 -12  -9   3   20.16    1.89   1
 -12  -9   4    4.00    2.00   1
 -12  -9   5    0.59    2.39   1
 -12  -9   6   13.32    3.14   1
 -12  -9   7    3.50    2.58   1
 -12  -9   8   11.02    3.78   1
 -12  -9   9   11.63    3.21   1
 -12  -8  -2   15.21    4.29   1
 -12  -8  -1   61.94    2.52   1
 -12  -8   0   14.21    1.13   1
 -12  -8   1  150.31    7.11   1
 -12  -8   2    1.39    1.20   1
 -12  -8   3    5.02    1.39   1
 -12  -8   4   13.99    1.87   1
 -12  -8   5    1.99    2.59   1
 -12  -8   6    9.00    2.52   1
 -12  -8   7    3.10    2.60   1
 -12  -8   8    0.50    2.51   1
 -12  -8   9    6.10    3.11   1
 -12  -7 -15    3.61    2.32   1
 -12  -7 -14    5.20    1.69   1
 -12  -7 -13   30.47    2.21   1
 -12  -7  -3  264.39   13.01   1
 -12  -7  -2   47.75    5.25   1
 -12  -7  -1  129.73    6.83   1
 -12  -7   0   24.11    1.47   1
 -12  -7   1   -2.69    1.31   1
 -12  -7   2   41.60    2.06   1
 -12  -7   3    0.10    1.41   1
 -12  -7   4   21.44    1.67   1
 -12  -7   5   19.80    1.96   1
 -12  -7   6    7.78    2.62   1
 -12  -7   7   -3.20    3.40   1
 -12  -7   8   26.52    3.30   1
 -12  -7   9   13.03    3.39   1
 -12  -7  10    1.69    2.89   1
 -12  -6 -15    4.88    2.39   1
 -12  -6 -14   62.25    4.89   1
 -12  -6 -13    3.88    1.62   1
 -12  -6 -12   30.80    1.44   1
 -12  -6  -3   27.77    3.79   1
 -12  -6  -2   22.56    4.56   1
 -12  -6  -1   13.18    3.19   1
 -12  -6   0    3.50    1.20   1
 -12  -6   1   39.19    2.25   1
 -12  -6   2   17.22    1.49   1
 -12  -6   3   13.32    1.61   1
 -12  -6   4   20.43    1.90   1
 -12  -6   5    2.79    1.90   1
 -12  -6   6    3.88    1.81   1
 -12  -6   7   44.36    3.46   1
 -12  -6   8   35.05    3.67   1
 -12  -6   9    2.40    3.41   1
 -12  -6  10   84.27    5.88   1
 -12  -6  11   -0.50    4.02   1
 -12  -5 -15    0.79    2.30   1
 -12  -5 -14   10.11    2.67   1
 -12  -5 -13    1.90    1.71   1
 -12  -5 -12    4.41    1.60   1
 -12  -5 -11   11.97    0.83   1
 -12  -5  -4   44.49    4.94   1
 -12  -5  -3   43.16    4.34   1
 -12  -5  -2   25.40    2.92   1
 -12  -5  -1  272.58    6.93   1
 -12  -5   0    3.80    1.01   1
 -12  -5   1    0.90    1.10   1
 -12  -5   2    9.18    1.21   1
 -12  -5   3   21.07    1.56   1
 -12  -5   4    9.12    1.39   1
 -12  -5   5   15.52    1.89   1
 -12  -5   6   20.43    2.17   1
 -12  -5   7   29.05    2.37   1
 -12  -5   8   35.88    3.35   1
 -12  -5   9    3.61    2.39   1
 -12  -5  10   -1.90    2.29   1
 -12  -5  11   13.47    3.67   1
 -12  -4 -15    9.12    2.90   1
 -12  -4 -14    1.69    2.60   1
 -12  -4 -13   -0.71    1.61   1
 -12  -4 -12   44.36    4.53   1
 -12  -4 -11   36.00    2.40   1
 -12  -4 -10    8.29    0.81   1
 -12  -4  -4   31.02    3.90   1
 -12  -4  -3   69.22    6.16   1
 -12  -4  -2    4.80    2.80   1
 -12  -4  -1   10.50    0.78   1
 -12  -4   0   47.75    2.76   1
 -12  -4   1  127.69    5.20   1
 -12  -4   2    9.67    1.31   1
 -12  -4   3   52.56    3.04   1
 -12  -4   4   11.22    2.21   1
 -12  -4   5   22.09    1.97   1
 -12  -4   6    1.49    1.68   1
 -12  -4   7   33.52    2.55   1
 -12  -4   8   66.75    3.59   1
 -12  -4   9   30.47    3.31   1
 -12  -4  10   26.21    3.58   1
 -12  -4  11    4.41    3.91   1
 -12  -3 -15    5.81    2.89   1
 -12  -3 -14   10.37    2.70   1
 -12  -3 -13   -0.50    1.90   1
 -12  -3 -11   15.92    2.23   1
 -12  -3 -10  366.72   18.77   1
 -12  -3  -9   17.39    1.08   1
 -12  -3  -8   84.27    3.49   1
 -12  -3  -5   11.70    3.42   1
 -12  -3  -4    5.62    3.51   1
 -12  -3  -3   12.89    3.73   1
 -12  -3  -2   17.47    0.92   1
 -12  -3  -1  144.96    4.33   1
 -12  -3   0   16.56    3.58   1
 -12  -3   1   60.37    2.95   1
 -12  -3   2   38.94    1.87   1
 -12  -3   3   82.81    2.91   1
 -12  -3   4    1.30    1.39   1
 -12  -3   5  127.92    4.52   1
 -12  -3   6   32.83    2.29   1
 -12  -3   7   -1.99    1.80   1
 -12  -3   8    0.10    2.02   1
 -12  -3   9   41.73    2.97   1
 -12  -3  10   -0.10    2.94   1
 -12  -3  11   -0.20    2.52   1
 -12  -3  12   12.11    3.69   1
 -12  -2 -15   10.89    3.83   1
 -12  -2 -14    6.92    2.58   1
 -12  -2 -13   19.36    3.52   1
 -12  -2 -12  129.50    9.56   1
 -12  -2 -11   14.90    2.01   1
 -12  -2 -10    8.88    1.79   1
 -12  -2  -9    0.59    1.79   1
 -12  -2  -8  119.68    6.13   1
 -12  -2  -7   71.91    4.58   1
 -12  -2  -6   76.21    3.67   1
 -12  -2  -5    2.31    0.70   1
 -12  -2  -4    0.40    3.19   1
 -12  -2  -3   22.47    1.33   1
 -12  -2  -2   20.16    1.17   1
 -12  -2  -1    3.10    0.99   1
 -12  -2   0  113.64    3.41   1
 -12  -2   1  194.88    5.30   1
 -12  -2   2   87.98    3.19   1
 -12  -2   3   32.38    2.62   1
 -12  -2   4   50.98    2.57   1
 -12  -2   5   72.59    3.07   1
 -12  -2   6   -0.10    1.82   1
 -12  -2   7  197.96    6.47   1
 -12  -2   8   19.71    2.49   1
 -12  -2   9   13.10    2.53   1
 -12  -2  10    7.02    2.28   1
 -12  -2  11   12.82    3.51   1
 -12  -2  12    5.11    5.92   1
 -12  -1 -14   34.34    4.10   1
 -12  -1 -13   27.46    3.67   1
 -12  -1 -12   20.16    3.32   1
 -12  -1 -11    4.49    2.42   1
 -12  -1 -10  193.77    7.24   1
 -12  -1  -9    9.00    1.50   1
 -12  -1  -8    4.49    1.99   1
 -12  -1  -7   -0.79    1.58   1
 -12  -1  -6   39.94    3.03   1
 -12  -1  -5   28.30    1.49   1
 -12  -1  -4   90.82    3.43   1
 -12  -1  -3    1.00    1.20   1
 -12  -1  -2   21.81    3.74   1
 -12  -1  -1  113.42    3.41   1
 -12  -1   0   30.91    1.56   1
 -12  -1   1    1.80    1.21   1
 -12  -1   2   49.00    2.24   1
 -12  -1   3  200.51    5.38   1
 -12  -1   4    6.10    1.48   1
 -12  -1   5    7.02    1.80   1
 -12  -1   6   78.15    3.18   1
 -12  -1   7   -0.59    2.48   1
 -12  -1   8    8.58    2.11   1
 -12  -1   9   17.72    2.53   1
 -12  -1  10    0.40    2.49   1
 -12  -1  11   14.98    5.80   1
 -12  -1  12    8.18    4.18   1
 -12   0 -14   26.42    4.42   1
 -12   0 -13   -1.00    2.90   1
 -12   0 -12    0.30    2.71   1
 -12   0 -11    1.21    2.71   1
 -12   0 -10   11.09    2.33   1
 -12   0  -9   36.72    2.42   1
 -12   0  -8   23.62    1.94   1
 -12   0  -7   27.04    1.77   1
 -12   0  -6  179.29    5.89   1
 -12   0  -5  113.00    3.61   1
 -12   0  -4    8.88    1.31   1
 -12   0  -3   30.91    1.56   1
 -12   0  -2   36.48    1.69   1
 -12   0  -1    3.80    1.09   1
 -12   0   0    6.30    1.10   1
 -12   0   1   41.34    1.93   1
 -12   0   2    9.12    1.51   1
 -12   0   3   19.01    2.01   1
 -12   0   4    4.80    1.71   1
 -12   0   5   19.62    2.13   1
 -12   0   6   13.69    2.00   1
 -12   0   7  187.42    6.30   1
 -12   0   8   15.52    2.52   1
 -12   0   9   35.64    3.10   1
 -12   0  10    3.10    2.29   1
 -12   0  11   10.89    2.90   1
 -12   0  12    9.99    3.73   1
 -12   1 -13   48.02    5.27   1
 -12   1 -12    1.49    2.88   1
 -12   1 -11   59.44    3.86   1
 -12   1 -10    5.02    2.51   1
 -12   1  -9    0.30    1.71   1
 -12   1  -8    2.79    1.70   1
 -12   1  -7   30.03    1.97   1
 -12   1  -6   85.01    3.13   1
 -12   1  -5   13.47    1.69   1
 -12   1  -4   64.48    2.41   1
 -12   1  -3    1.00    1.20   1
 -12   1  -2   17.89    1.27   1
 -12   1  -1   27.77    1.69   1
 -12   1   0    2.89    1.19   1
 -12   1   1   37.33    1.96   1
 -12   1   2  139.71    4.49   1
 -12   1   3   16.89    1.73   1
 -12   1   4    1.59    1.79   1
 -12   1   5    5.38    1.48   1
 -12   1   6  167.44    5.69   1
 -12   1   7    4.28    1.99   1
 -12   1   8   48.44    2.92   1
 -12   1   9   11.97    2.77   1
 -12   1  10    2.10    2.20   1
 -12   1  11    5.90    3.21   1
 -12   1  12   20.07    3.49   1
 -12   2 -13   -0.10    3.85   1
 -12   2 -12   -0.59    3.19   1
 -12   2 -11   12.32    2.39   1
 -12   2 -10   -0.40    2.49   1
 -12   2  -9   53.29    4.53   1
 -12   2  -8    2.19    1.89   1
 -12   2  -7    1.10    1.81   1
 -12   2  -6    6.81    1.30   1
 -12   2  -5   41.86    2.07   1
 -12   2  -4   16.56    1.63   1
 -12   2  -3   88.17    3.19   1
 -12   2  -2   44.62    2.00   1
 -12   2  -1   30.25    1.76   1
 -12   2   0   94.09    3.10   1
 -12   2   1   13.03    1.73   1
 -12   2   2    4.00    1.72   1
 -12   2   3    0.30    1.61   1
 -12   2   4   65.93    2.76   1
 -12   2   5   20.52    1.99   1
 -12   2   6   10.30    2.12   1
 -12   2   7    8.12    1.88   1
 -12   2   8   39.31    3.13   1
 -12   2   9   29.38    2.60   1
 -12   2  10    7.51    2.03   1
 -12   2  11   27.35    3.97   1
 -12   2  12    2.69    3.51   1
 -12   3 -11   23.23    3.57   1
 -12   3 -10    8.82    2.49   1
 -12   3  -9    4.88    2.70   1
 -12   3  -8   -0.40    2.60   1
 -12   3  -7   35.64    2.51   1
 -12   3  -6   22.37    1.70   1
 -12   3  -5    2.89    1.50   1
 -12   3  -4   40.32    2.29   1
 -12   3  -3   68.06    2.64   1
 -12   3  -2   25.10    2.00   1
 -12   3  -1    2.99    1.49   1
 -12   3   0    6.30    1.51   1
 -12   3   1    1.99    1.69   1
 -12   3   2   36.84    2.19   1
 -12   3   3    1.49    1.49   1
 -12   3   4   48.16    2.36   1
 -12   3   5   24.60    2.68   1
 -12   3   6  135.26    4.88   1
 -12   3   7   31.58    2.70   1
 -12   3   8   76.21    4.02   1
 -12   3   9   52.85    3.78   1
 -12   3  10    6.92    2.42   1
 -12   3  11    6.20    2.89   1
 -12   3  12    1.59    4.38   1
 -12   4 -11   35.52    4.65   1
 -12   4 -10    1.21    3.21   1
 -12   4  -9   14.98    3.56   1
 -12   4  -8   -1.90    3.20   1
 -12   4  -7    2.50    3.00   1
 -12   4  -6    3.31    1.49   1
 -12   4  -5   47.33    2.34   1
 -12   4  -4   -0.30    1.31   1
 -12   4  -3   83.36    3.29   1
 -12   4  -2   29.70    1.96   1
 -12   4  -1   79.03    3.20   1
 -12   4   0   35.40    2.38   1
 -12   4   1   72.93    3.25   1
 -12   4   2    8.01    1.81   1
 -12   4   3    3.39    1.69   1
 -12   4   4   72.42    3.06   1
 -12   4   5    4.71    2.21   1
 -12   4   6   -0.90    2.11   1
 -12   4   7   49.98    3.39   1
 -12   4   8   54.76    3.26   1
 -12   4   9    3.61    3.12   1
 -12   4  10   27.88    5.39   1
 -12   4  11    4.08    5.49   1
 -12   4  12   -4.80    4.29   1
 -12   5 -10   23.33    3.48   1
 -12   5  -9   19.80    3.20   1
 -12   5  -8    5.20    4.01   1
 -12   5  -7   -4.20    3.12   1
 -12   5  -6   -0.90    1.60   1
 -12   5  -5   17.98    1.87   1
 -12   5  -4   -1.10    1.51   1
 -12   5  -3  114.49    4.28   1
 -12   5  -2   -0.30    1.71   1
 -12   5  -1   42.12    2.47   1
 -12   5   0    1.69    1.51   1
 -12   5   1    5.38    1.58   1
 -12   5   2   67.40    3.12   1
 -12   5   3    4.58    1.71   1
 -12   5   4   14.67    2.22   1
 -12   5   5   35.64    2.75   1
 -12   5   6   89.11    4.15   1
 -12   5   7    5.81    2.22   1
 -12   5   8    0.00    1.00   1
 -12   5   9   -6.00    3.09   1
 -12   5  10    9.49    3.88   1
 -12   5  11   18.23    5.47   1
 -12   6  -9    5.81    4.10   1
 -12   6  -8    5.29    3.82   1
 -12   6  -7   14.59    2.67   1
 -12   6  -6   10.63    2.02   1
 -12   6  -5   16.40    2.11   1
 -12   6  -4    5.90    1.60   1
 -12   6  -3   83.17    3.65   1
 -12   6  -2   13.40    1.90   1
 -12   6  -1   32.04    2.38   1
 -12   6   0    5.02    2.20   1
 -12   6   1   56.70    2.71   1
 -12   6   2   22.94    2.39   1
 -12   6   3    5.29    2.12   1
 -12   6   4   13.18    2.61   1
 -12   6   5    1.30    2.10   1
 -12   6   6   -1.59    1.89   1
 -12   6   7   32.95    4.02   1
 -12   6   8   50.27    4.40   1
 -12   6   9   35.16    5.10   1
 -12   6  10   22.47    5.59   1
 -12   6  11   -3.61    5.40   1
 -12   7  -8    2.10    2.81   1
 -12   7  -7    5.71    2.92   1
 -12   7  -6   10.30    4.43   1
 -12   7  -5    4.58    3.60   1
 -12   7  -4   21.44    2.50   1
 -12   7  -3   73.10    3.59   1
 -12   7  -2    4.49    2.08   1
 -12   7  -1   56.25    3.15   1
 -12   7   0    9.00    1.80   1
 -12   7   1    6.00    2.11   1
 -12   7   2    2.69    1.71   1
 -12   7   3   16.73    2.13   1
 -12   7   4    4.28    1.99   1
 -12   7   5   65.93    4.87   1
 -12   7   6   -0.50    3.21   1
 -12   7   7    1.90    2.70   1
 -12   7   8   11.83    5.64   1
 -12   7   9   35.88    5.99   1
 -12   7  10   16.48    5.77   1
 -12   8  -7    9.99    4.68   1
 -12   8  -6    5.11    4.52   1
 -12   8  -5   15.92    4.31   1
 -12   8  -4    0.59    4.08   1
 -12   8  -3   12.11    2.58   1
 -12   8  -2    1.21    2.42   1
 -12   8  -1   15.37    2.67   1
 -12   8   0   19.71    2.58   1
 -12   8   1   45.02    2.95   1
 -12   8   2    5.71    2.29   1
 -12   8   3    2.59    2.51   1
 -12   8   4    2.89    2.48   1
 -12   8   5    5.62    2.99   1
 -12   8   6   -1.59    2.60   1
 -12   8   7   22.94    5.75   1
 -12   8   8    8.88    4.71   1
 -12   8   9   -7.29    3.51   1
 -12   9  -5    2.59    3.09   1
 -12   9  -4    8.29    3.40   1
 -12   9  -3    9.42    3.38   1
 -12   9  -2    1.10    2.20   1
 -12   9  -1    8.01    2.60   1
 -12   9   0    1.90    2.40   1
 -12   9   1   -5.62    2.42   1
 -12   9   2   37.58    3.19   1
 -12   9   3   18.92    2.87   1
 -12   9   4    4.88    4.69   1
 -12   9   5   37.58    5.64   1
 -12   9   6    0.71    5.22   1
 -12   9   7   20.43    4.52   1
 -12   9   8    3.20    5.51   1
 -12  10  -3    4.49    6.28   1
 -12  10  -2    9.99    4.87   1
 -12  10  -1   13.18    5.08   1
 -12  10   0   16.08    3.21   1
 -12  10   1   13.32    2.92   1
 -12  10   2    6.50    3.82   1
 -12  10   3   15.52    5.99   1
 -12  10   4   13.69    3.92   1
 -12  10   5   22.66    6.09   1
 -12  10   6    3.61    6.12   1
 -11 -17  -5   35.05    4.14   1
 -11 -16  -9   10.69    2.29   1
 -11 -16  -8    3.69    2.19   1
 -11 -16  -5   -1.59    1.89   1
 -11 -16  -4    2.19    2.31   1
 -11 -16  -2   18.23    3.25   1
 -11 -16  -1   30.14    4.06   1
 -11 -16   0   67.57    6.74   1
 -11 -15 -10    2.19    1.60   1
 -11 -15  -9   27.25    3.13   1
 -11 -15  -6   -0.59    1.69   1
 -11 -15  -5   28.41    2.77   1
 -11 -15  -4   -0.71    2.10   1
 -11 -15  -3   12.53    2.34   1
 -11 -15  -2    9.80    2.69   1
 -11 -15  -1   25.91    3.46   1
 -11 -15   0    6.92    3.31   1
 -11 -15   1   49.00    5.04   1
 -11 -15   2   23.81    4.00   1
 -11 -14 -10   33.18    3.00   1
 -11 -14  -6    0.59    1.29   1
 -11 -14  -4    1.69    1.40   1
 -11 -14  -3   20.98    2.56   1
 -11 -14  -2    0.10    2.02   1
 -11 -14  -1   36.24    3.97   1
 -11 -14   0    6.20    2.79   1
 -11 -14   1    9.49    2.90   1
 -11 -14   2    6.00    3.38   1
 -11 -14   3   43.30    5.13   1
 -11 -14   4   -3.39    3.50   1
 -11 -13 -12   10.63    1.70   1
 -11 -13  -6  102.41    6.48   1
 -11 -13  -5   28.73    2.36   1
 -11 -13  -4   22.75    2.00   1
 -11 -13  -3    3.10    1.58   1
 -11 -13  -2   19.98    2.50   1
 -11 -13  -1   43.30    3.16   1
 -11 -13   0    6.10    2.32   1
 -11 -13   1   72.25    5.44   1
 -11 -13   2   17.47    3.68   1
 -11 -13   3   -1.90    2.90   1
 -11 -13   5    2.40    3.41   1
 -11 -13   6    0.71    3.81   1
 -11 -12 -14    3.88    1.89   1
 -11 -12 -13   10.18    1.91   1
 -11 -12 -12   53.58    3.95   1
 -11 -12  -5    7.02    0.80   1
 -11 -12  -4   28.84    1.50   1
 -11 -12  -3   47.75    3.32   1
 -11 -12  -2   10.11    1.53   1
 -11 -12  -1   20.34    1.80   1
 -11 -12   0    2.10    1.60   1
 -11 -12   1    5.62    2.32   1
 -11 -12   2    2.69    2.59   1
 -11 -12   3   58.06    5.94   1
 -11 -12   4    5.02    2.42   1
 -11 -12   5   34.57    3.29   1
 -11 -12   6   24.50    3.86   1
 -11 -12   7    5.71    3.01   1
 -11 -11 -15   11.49    2.51   1
 -11 -11 -14   58.68    5.06   1
 -11 -11 -13    0.30    1.21   1
 -11 -11  -3   63.36    3.66   1
 -11 -11  -2   27.04    2.08   1
 -11 -11  -1    8.88    2.03   1
 -11 -11   0   41.34    2.44   1
 -11 -11   1   72.59    3.75   1
 -11 -11   2   13.18    2.18   1
 -11 -11   3   62.73    3.64   1
 -11 -11   4   -1.30    2.19   1
 -11 -11   5   84.46    5.88   1
 -11 -11   6    7.67    2.99   1
 -11 -11   7   73.79    5.84   1
 -11 -11   8    0.79    2.88   1
 -11 -10 -16   25.00    3.40   1
 -11 -10 -15    2.40    2.11   1
 -11 -10 -14   49.14    4.35   1
 -11 -10 -13    3.69    1.61   1
 -11 -10  -2   26.83    1.45   1
 -11 -10  -1   83.17    3.65   1
 -11 -10   0   35.88    2.40   1
 -11 -10   1   -0.40    1.20   1
 -11 -10   2   11.22    1.67   1
 -11 -10   3   72.42    3.23   1
 -11 -10   4    1.10    1.81   1
 -11 -10   5   13.69    2.22   1
 -11 -10   6   60.84    4.06   1
 -11 -10   7   27.35    4.60   1
 -11 -10   8    5.29    2.71   1
 -11 -10   9   48.02    4.71   1
 -11  -9 -16    4.80    2.72   1
 -11  -9 -15   13.91    2.61   1
 -11  -9 -14   22.94    2.78   1
 -11  -9 -13    2.19    1.60   1
 -11  -9  -2  174.50    8.98   1
 -11  -9  -1   23.52    1.16   1
 -11  -9   0    2.69    1.51   1
 -11  -9   1   22.75    1.53   1
 -11  -9   2  154.26    5.22   1
 -11  -9   3    8.88    1.61   1
 -11  -9   4    2.69    1.71   1
 -11  -9   5   28.62    2.25   1
 -11  -9   6   12.32    2.18   1
 -11  -9   7   41.73    3.36   1
 -11  -9   8   13.40    3.29   1
 -11  -9   9    4.28    3.39   1
 -11  -9  10    6.50    2.50   1
 -11  -8 -16   14.06    3.00   1
 -11  -8 -15   13.62    2.44   1
 -11  -8 -14    4.20    2.01   1
 -11  -8 -13   46.38    3.40   1
 -11  -8 -12   14.59    0.99   1
 -11  -8  -2   45.16    3.90   1
 -11  -8  -1   45.29    1.75   1
 -11  -8   0  141.37    4.52   1
 -11  -8   1    3.88    1.10   1
 -11  -8   2   17.64    1.43   1
 -11  -8   3   26.32    1.85   1
 -11  -8   4    6.30    1.61   1
 -11  -8   5   24.60    2.28   1
 -11  -8   6   37.45    2.45   1
 -11  -8   7   29.05    2.69   1
 -11  -8   8   -0.20    2.31   1
 -11  -8   9   40.96    3.84   1
 -11  -8  10   10.82    3.62   1
 -11  -7 -16   -0.50    3.31   1
 -11  -7 -15   26.83    3.00   1
 -11  -7 -14    7.40    2.39   1
 -11  -7 -13   13.10    2.03   1
 -11  -7 -12   40.45    2.04   1
 -11  -7  -3    8.01    2.89   1
 -11  -7  -2    8.82    4.28   1
 -11  -7  -1    3.88    0.59   1
 -11  -7   0   33.52    1.39   1
 -11  -7   1   45.97    4.47   1
 -11  -7   2    6.50    1.22   1
 -11  -7   3   66.42    2.77   1
 -11  -7   4   23.14    2.02   1
 -11  -7   5    6.30    1.51   1
 -11  -7   6   14.29    2.12   1
 -11  -7   7    1.59    2.60   1
 -11  -7   8   85.93    4.26   1
 -11  -7   9   35.05    3.20   1
 -11  -7  10    7.40    3.37   1
 -11  -7  11   54.32    4.86   1
 -11  -6 -16    7.67    2.99   1
 -11  -6 -15   -0.59    2.68   1
 -11  -6 -14    4.49    2.42   1
 -11  -6 -13  227.71   11.77   1
 -11  -6 -12   -0.50    1.11   1
 -11  -6 -11   39.94    1.77   1
 -11  -6  -3  183.87    9.49   1
 -11  -6  -2   22.00    3.85   1
 -11  -6  -1   26.52    1.03   1
 -11  -6   0  129.05    4.09   1
 -11  -6   1    1.30    1.00   1
 -11  -6   2   27.77    1.58   1
 -11  -6   3   15.29    1.41   1
 -11  -6   4   37.45    2.08   1
 -11  -6   5    2.19    1.81   1
 -11  -6   6   11.83    2.13   1
 -11  -6   7  101.00    4.02   1
 -11  -6   8   34.69    2.59   1
 -11  -6   9   20.16    2.51   1
 -11  -6  10   35.64    3.46   1
 -11  -6  11   -3.39    3.28   1
 -11  -6  12    7.90    3.88   1
 -11  -5 -16   14.36    3.49   1
 -11  -5 -15   10.18    3.13   1
 -11  -5 -14   38.94    3.74   1
 -11  -5 -13   28.09    2.86   1
 -11  -5 -12    5.02    1.30   1
 -11  -5 -11  149.08    6.11   1
 -11  -5 -10    1.39    0.71   1
 -11  -5  -4   27.77    3.90   1
 -11  -5  -3   55.65    3.73   1
 -11  -5  -2   66.42    5.05   1
 -11  -5  -1   -0.30    0.51   1
 -11  -5   0    9.80    3.13   1
 -11  -5   2  170.30    5.22   1
 -11  -5   3   54.17    2.36   1
 -11  -5   4    0.90    1.20   1
 -11  -5   5    2.19    1.60   1
 -11  -5   6    7.08    1.49   1
 -11  -5   7   35.05    2.60   1
 -11  -5   8   10.18    1.98   1
 -11  -5   9   19.54    2.83   1
 -11  -5  10    7.51    2.52   1
 -11  -5  11   12.67    3.42   1
 -11  -5  12    3.50    2.69   1
 -11  -4 -16   28.52    4.27   1
 -11  -4 -15    0.59    2.59   1
 -11  -4 -14    3.31    3.02   1
 -11  -4 -13   26.42    3.29   1
 -11  -4 -12   28.94    2.91   1
 -11  -4 -11    2.89    1.09   1
 -11  -4 -10    1.49    0.90   1
 -11  -4  -9   40.83    1.79   1
 -11  -4  -4    6.30    3.11   1
 -11  -4  -3  318.27   14.63   1
 -11  -4  -2   56.70    4.37   1
 -11  -4  -1   77.62    2.64   1
 -11  -4   0  211.99    7.57   1
 -11  -4   1   68.72    3.32   1
 -11  -4   2  222.01    7.45   1
 -11  -4   3    1.69    1.20   1
 -11  -4   4   88.92    3.02   1
 -11  -4   5   19.62    1.59   1
 -11  -4   6    4.58    1.88   1
 -11  -4   7    3.61    1.79   1
 -11  -4   8    9.49    1.91   1
 -11  -4   9   16.56    2.36   1
 -11  -4  10   46.92    3.56   1
 -11  -4  11   -6.40    3.09   1
 -11  -4  12   55.65    4.77   1
 -11  -4  13   12.32    4.21   1
 -11  -3 -16   24.60    4.36   1
 -11  -3 -14   16.40    3.40   1
 -11  -3 -13    5.38    2.41   1
 -11  -3 -12    2.50    1.39   1
 -11  -3 -11   76.21    3.32   1
 -11  -3 -10   16.89    1.81   1
 -11  -3  -9  133.17    5.08   1
 -11  -3  -8   18.66    1.81   1
 -11  -3  -7  107.95    5.61   1
 -11  -3  -5  268.30   13.43   1
 -11  -3  -4    3.69    2.80   1
 -11  -3  -3   12.82    3.22   1
 -11  -3  -2    6.50    0.61   1
 -11  -3  -1  104.65    3.07   1
 -11  -3   0   22.09    1.50   1
 -11  -3   1   58.37    2.14   1
 -11  -3   2   45.02    2.01   1
 -11  -3   3  122.10    4.20   1
 -11  -3   4   53.14    2.62   1
 -11  -3   5  248.06    7.25   1
 -11  -3   6   76.74    2.98   1
 -11  -3   7    9.49    1.97   1
 -11  -3   8   43.56    2.51   1
 -11  -3   9   -0.79    1.89   1
 -11  -3  10   10.37    2.19   1
 -11  -3  11   -0.30    1.61   1
 -11  -3  12   12.39    3.31   1
 -11  -3  13   -1.49    2.88   1
 -11  -2 -16   19.10    3.67   1
 -11  -2 -15   -2.79    3.01   1
 -11  -2 -14   -0.20    2.82   1
 -11  -2 -13   12.53    2.48   1
 -11  -2 -12   49.56    2.96   1
 -11  -2 -11    2.40    1.30   1
 -11  -2 -10   21.34    1.66   1
 -11  -2  -9  114.06    6.19   1
 -11  -2  -8   26.52    2.16   1
 -11  -2  -7   38.94    2.00   1
 -11  -2  -6  143.28    5.27   1
 -11  -2  -5   15.21    0.94   1
 -11  -2  -4   20.34    0.99   1
 -11  -2  -3   55.06    1.93   1
 -11  -2  -2    5.02    0.99   1
 -11  -2  -1   85.01    6.09   1
 -11  -2   0   26.73    1.55   1
 -11  -2   1   76.91    2.46   1
 -11  -2   2   11.29    1.21   1
 -11  -2   3  154.01    4.72   1
 -11  -2   4    4.08    1.21   1
 -11  -2   5   98.01    4.36   1
 -11  -2   6  136.19    4.90   1
 -11  -2   7   10.18    1.72   1
 -11  -2   8   33.18    2.65   1
 -11  -2   9   -1.21    1.91   1
 -11  -2  10   17.81    2.19   1
 -11  -2  11    0.20    2.21   1
 -11  -2  12   44.09    4.52   1
 -11  -2  13   -0.79    3.77   1
 -11  -1 -15   11.63    3.68   1
 -11  -1 -14   42.25    5.20   1
 -11  -1 -13    7.40    2.72   1
 -11  -1 -12   -4.28    2.48   1
 -11  -1 -11   11.97    1.59   1
 -11  -1 -10    6.71    1.29   1
 -11  -1  -9    1.59    1.29   1
 -11  -1  -8   12.39    1.41   1
 -11  -1  -7    2.59    1.19   1
 -11  -1  -6    4.20    1.31   1
 -11  -1  -5  283.92    9.44   1
 -11  -1  -4  148.60    7.31   1
 -11  -1  -3    2.31    2.71   1
 -11  -1  -2   45.16    2.15   1
 -11  -1  -1  187.42    4.93   1
 -11  -1   0   16.32    1.29   1
 -11  -1   1   48.16    1.94   1
 -11  -1   2  106.50    3.30   1
 -11  -1   3   18.66    1.56   1
 -11  -1   4   23.52    1.94   1
 -11  -1   5   96.63    3.15   1
 -11  -1   6   17.22    1.99   1
 -11  -1   7   48.72    2.93   1
 -11  -1   8   63.84    2.88   1
 -11  -1   9  111.94    4.66   1
 -11  -1  10   10.82    2.11   1
 -11  -1  11   45.43    3.64   1
 -11  -1  12   25.91    3.05   1
 -11  -1  13    4.41    3.11   1
 -11   0 -15    1.80    3.99   1
 -11   0 -14    5.38    3.48   1
 -11   0 -13    6.00    2.99   1
 -11   0 -12   94.48    6.61   1
 -11   0 -11   -0.50    1.51   1
 -11   0 -10   93.32    3.86   1
 -11   0  -9   47.06    2.47   1
 -11   0  -8    0.79    1.39   1
 -11   0  -7   76.56    2.98   1
 -11   0  -6   58.68    2.14   1
 -11   0  -5  108.58    3.33   1
 -11   0  -4    8.53    1.11   1
 -11   0  -3   27.88    1.27   1
 -11   0  -2   17.39    1.17   1
 -11   0  -1   22.75    1.43   1
 -11   0   0    1.90    1.10   1
 -11   0   1    1.10    1.20   1
 -11   0   2   13.91    1.49   1
 -11   0   3  262.44    7.13   1
 -11   0   4    0.10    1.11   1
 -11   0   5    8.29    1.73   1
 -11   0   6   29.05    2.05   1
 -11   0   7   85.01    3.87   1
 -11   0   8   39.44    3.01   1
 -11   0   9    3.61    2.32   1
 -11   0  10    3.88    2.21   1
 -11   0  11    4.08    1.98   1
 -11   0  12    8.88    2.80   1
 -11   0  13   43.56    4.49   1
 -11   1 -14   33.76    4.88   1
 -11   1 -13   -0.59    3.19   1
 -11   1 -12   19.89    3.12   1
 -11   1 -11   -0.59    2.19   1
 -11   1 -10    3.31    1.60   1
 -11   1  -9    2.19    1.30   1
 -11   1  -8   12.39    1.90   1
 -11   1  -7    5.81    1.40   1
 -11   1  -6   61.15    2.35   1
 -11   1  -5   25.60    1.72   1
 -11   1  -4  110.04    3.15   1
 -11   1  -3    3.88    1.10   1
 -11   1  -2   37.21    1.71   1
 -11   1  -1    0.10    1.22   1
 -11   1   0    1.39    1.09   1
 -11   1   1    2.69    1.41   1
 -11   1   2    0.59    1.29   1
 -11   1   3   21.07    1.56   1
 -11   1   4    7.18    1.39   1
 -11   1   5  280.56    7.37   1
 -11   1   6   73.79    4.12   1
 -11   1   7   36.48    2.66   1
 -11   1   8    4.28    1.90   1
 -11   1   9   20.61    2.54   1
 -11   1  10   -0.40    1.89   1
 -11   1  11    4.49    2.08   1
 -11   1  12    0.20    2.82   1
 -11   1  13    3.31    3.02   1
 -11   1  14  -13.18    5.30   1
 -11   2 -14    8.82    3.98   1
 -11   2 -13   14.52    3.73   1
 -11   2 -12   34.34    3.52   1
 -11   2 -11    9.61    3.10   1
 -11   2 -10   33.76    2.67   1
 -11   2  -9    3.80    1.91   1
 -11   2  -8    9.12    1.81   1
 -11   2  -7    6.30    1.51   1
 -11   2  -6  119.25    3.49   1
 -11   2  -5   10.63    1.50   1
 -11   2  -4  106.09    3.30   1
 -11   2  -3   34.81    1.65   1
 -11   2  -2   13.32    1.39   1
 -11   2  -1   19.98    1.52   1
 -11   2   0   14.06    1.42   1
 -11   2   1   80.10    2.68   1
 -11   2   2   13.62    1.62   1
 -11   2   3   20.52    1.72   1
 -11   2   4    9.12    1.39   1
 -11   2   5   11.83    1.72   1
 -11   2   6    1.59    1.99   1
 -11   2   7   24.80    2.29   1
 -11   2   8   43.30    3.03   1
 -11   2   9   -0.20    2.02   1
 -11   2  10   43.03    3.15   1
 -11   2  11    6.71    3.32   1
 -11   2  12    7.18    2.68   1
 -11   2  13   13.99    5.31   1
 -11   3 -13   -0.71    3.91   1
 -11   3 -12   11.63    3.14   1
 -11   3 -11   12.67    2.78   1
 -11   3 -10   22.47    2.84   1
 -11   3  -9   25.91    2.75   1
 -11   3  -8   -1.00    1.90   1
 -11   3  -7    1.49    1.90   1
 -11   3  -6   17.47    1.59   1
 -11   3  -5   -0.59    1.09   1
 -11   3  -4    8.12    1.42   1
 -11   3  -3    9.80    1.50   1
 -11   3  -2  142.09    4.29   1
 -11   3  -1    1.59    1.39   1
 -11   3   0   18.32    1.71   1
 -11   3   1    4.20    1.19   1
 -11   3   2   27.25    1.77   1
 -11   3   3    4.00    1.80   1
 -11   3   4    7.40    1.80   1
 -11   3   5    3.69    1.69   1
 -11   3   6   16.97    2.22   1
 -11   3   7   50.55    3.27   1
 -11   3   8   49.14    3.65   1
 -11   3   9    9.67    2.67   1
 -11   3  10    6.50    3.11   1
 -11   3  11    8.58    3.57   1
 -11   3  12   -1.39    4.98   1
 -11   3  13   11.63    3.82   1
 -11   4 -13   15.76    4.61   1
 -11   4 -12    1.69    3.80   1
 -11   4 -11    4.88    2.78   1
 -11   4 -10   51.27    3.87   1
 -11   4  -9   11.83    2.20   1
 -11   4  -8    0.00    1.00   1
 -11   4  -7   49.98    3.25   1
 -11   4  -6   41.09    2.31   1
 -11   4  -5    2.89    1.50   1
 -11   4  -4   78.32    3.19   1
 -11   4  -3    0.90    1.41   1
 -11   4  -2   30.36    1.98   1
 -11   4  -1    5.20    1.60   1
 -11   4   0    2.19    2.10   1
 -11   4   1   17.98    1.70   1
 -11   4   2    3.69    1.80   1
 -11   4   3    0.79    1.80   1
 -11   4   4   53.29    2.63   1
 -11   4   5    1.30    1.80   1
 -11   4   6   34.22    3.28   1
 -11   4   7   24.80    2.89   1
 -11   4   8   -0.20    2.62   1
 -11   4   9   63.20    4.29   1
 -11   4  10    4.88    2.92   1
 -11   4  11    2.99    2.60   1
 -11   4  12   -0.90    5.02   1
 -11   4  13    3.61    5.81   1
 -11   5 -12   -0.10    3.95   1
 -11   5 -11   28.20    4.67   1
 -11   5 -10   -0.90    2.51   1
 -11   5  -9    1.49    3.59   1
 -11   5  -8    2.69    2.39   1
 -11   5  -7    3.31    2.51   1
 -11   5  -6   14.21    1.73   1
 -11   5  -5   29.27    1.95   1
 -11   5  -4   23.52    1.94   1
 -11   5  -3   21.72    1.68   1
 -11   5  -2  109.62    3.98   1
 -11   5  -1   74.65    3.11   1
 -11   5   0    0.00    1.00   1
 -11   5   1    0.79    1.50   1
 -11   5   2   10.30    2.31   1
 -11   5   3   13.10    2.03   1
 -11   5   4   22.28    2.83   1
 -11   5   5   28.73    3.00   1
 -11   5   6    4.58    2.70   1
 -11   5   7   34.69    3.89   1
 -11   5   8   67.24    3.61   1
 -11   5   9   45.70    4.06   1
 -11   5  10   26.01    3.26   1
 -11   5  11    8.41    3.60   1
 -11   5  12   29.59    5.11   1
 -11   5  13   -0.71    5.63   1
 -11   6 -11    3.10    3.59   1
 -11   6 -10    2.69    2.98   1
 -11   6  -9   58.06    5.49   1
 -11   6  -8    2.31    2.40   1
 -11   6  -7    9.92    2.20   1
 -11   6  -6    4.08    1.49   1
 -11   6  -5   32.15    2.04   1
 -11   6  -4   62.25    2.68   1
 -11   6  -3    1.30    1.39   1
 -11   6  -2   14.59    1.68   1
 -11   6  -1    4.58    1.58   1
 -11   6   0   73.96    2.92   1
 -11   6   1    4.88    1.90   1
 -11   6   2    0.40    1.50   1
 -11   6   3    2.31    2.31   1
 -11   6   4  159.52    7.07   1
 -11   6   5   54.17    3.97   1
 -11   6   6  288.66   11.89   1
 -11   6   7   20.61    3.63   1
 -11   6   8    5.62    2.61   1
 -11   6   9    6.50    2.70   1
 -11   6  10    0.40    3.59   1
 -11   6  11   12.53    5.10   1
 -11   6  12   27.67    6.00   1
 -11   6  13   10.18    4.21   1
 -11   7 -10   12.32    4.77   1
 -11   7  -9    4.41    3.61   1
 -11   7  -8   -1.99    3.78   1
 -11   7  -7   54.76    6.07   1
 -11   7  -6    0.30    2.82   1
 -11   7  -5    1.10    1.30   1
 -11   7  -4   24.60    2.08   1
 -11   7  -3   -0.90    1.80   1
 -11   7  -2   89.30    3.78   1
 -11   7  -1   13.91    1.72   1
 -11   7   0   22.66    2.19   1
 -11   7   1  180.90    6.72   1
 -11   7   2  135.02    5.35   1
 -11   7   3   26.42    2.78   1
 -11   7   4   60.53    3.89   1
 -11   7   5    6.92    2.79   1
 -11   7   6   31.70    3.94   1
 -11   7   7    6.81    2.82   1
 -11   7   8   14.36    2.88   1
 -11   7   9   -1.00    3.60   1
 -11   7  10    8.18    4.29   1
 -11   7  11    4.20    3.89   1
 -11   7  12   -9.49    5.42   1
 -11   8  -9    1.90    5.11   1
 -11   8  -8    2.79    4.28   1
 -11   8  -7    8.53    4.61   1
 -11   8  -6    9.61    3.72   1
 -11   8  -5   -0.10    2.53   1
 -11   8  -4    3.20    2.00   1
 -11   8  -3   33.87    2.33   1
 -11   8  -2   36.00    2.40   1
 -11   8  -1   82.99    4.19   1
 -11   8   0  102.82    4.87   1
 -11   8   1    7.18    1.88   1
 -11   8   2   58.98    3.99   1
 -11   8   3   45.16    3.63   1
 -11   8   4   90.82    5.34   1
 -11   8   5    8.88    2.98   1
 -11   8   6   35.40    3.45   1
 -11   8   7    2.79    3.01   1
 -11   8   8   10.89    2.77   1
 -11   8   9    5.20    3.60   1
 -11   8  10   37.33    6.60   1
 -11   8  11   46.38    6.54   1
 -11   9  -7   54.17    7.07   1
 -11   9  -6   50.69    6.84   1
 -11   9  -5   84.82    8.10   1
 -11   9  -4    3.61    3.42   1
 -11   9  -3   -2.99    3.49   1
 -11   9  -2    6.50    1.89   1
 -11   9  -1   71.57    3.72   1
 -11   9   0   22.18    2.26   1
 -11   9   1   61.31    3.29   1
 -11   9   2    7.90    3.32   1
 -11   9   3   27.67    3.79   1
 -11   9   4    2.69    2.79   1
 -11   9   5    9.80    2.88   1
 -11   9   6   13.91    3.51   1
 -11   9   7    6.71    3.68   1
 -11   9   8   20.61    5.81   1
 -11   9   9   10.63    5.41   1
 -11   9  10    7.08    5.48   1
 -11  10  -5   25.60    3.95   1
 -11  10  -4    0.90    4.10   1
 -11  10  -3   36.97    5.35   1
 -11  10  -2   -1.49    1.90   1
 -11  10  -1    0.79    2.19   1
 -11  10   0    5.38    2.60   1
 -11  10   1    7.51    2.41   1
 -11  10   2   57.15    4.84   1
 -11  10   3   35.28    4.16   1
 -11  10   4   12.89    3.09   1
 -11  10   5   14.29    4.91   1
 -11  10   6    5.62    4.22   1
 -11  10   7   21.72    5.50   1
 -11  10   8    8.41    3.89   1
 -11  10   9   18.58    4.48   1
 -11  11  -3   21.62    6.23   1
 -11  11  -2    8.12    5.13   1
 -11  11  -1   20.52    3.71   1
 -11  11   0    3.61    2.39   1
 -11  11   1   29.92    5.03   1
 -11  11   2   -3.88    4.49   1
 -11  11   3   10.89    3.63   1
 -11  11   4   17.72    6.06   1
 -11  11   7   -2.19    3.88   1
 -11  12   1    5.90    5.88   1
 -11  12   2    8.29    5.70   1
 -11  12   3   17.89    4.74   1
 -11  12   4    0.59    5.87   1
 -10 -17  -9    3.50    2.99   1
 -10 -17  -8   -0.30    2.82   1
 -10 -17  -7    3.39    2.39   1
 -10 -17  -6   29.38    3.79   1
 -10 -17  -5    2.31    2.61   1
 -10 -17  -3    2.69    3.08   1
 -10 -17  -1   25.20    4.52   1
 -10 -16 -11    5.20    2.60   1
 -10 -16 -10    3.39    2.91   1
 -10 -16  -9   19.71    2.93   1
 -10 -16  -8   61.94    5.51   1
 -10 -16  -7    0.50    2.22   1
 -10 -16  -6   -0.40    2.49   1
 -10 -16  -5   -0.50    2.10   1
 -10 -16  -2   26.52    3.50   1
 -10 -16  -1    0.30    3.31   1
 -10 -16   0   23.43    3.87   1
 -10 -16   1    1.10    4.01   1
 -10 -16   2   29.05    4.96   1
 -10 -15 -13    5.62    2.89   1
 -10 -15 -12    2.50    2.09   1
 -10 -15 -11    1.80    1.90   1
 -10 -15 -10   11.09    2.40   1
 -10 -15  -9   19.36    2.64   1
 -10 -15  -8   -0.79    1.69   1
 -10 -15  -7    5.81    2.31   1
 -10 -15  -6   26.01    3.16   1
 -10 -15  -3    1.90    2.29   1
 -10 -15  -2    3.69    2.69   1
 -10 -15  -1   12.32    3.02   1
 -10 -15   0   13.47    3.38   1
 -10 -15   1   -0.20    2.31   1
 -10 -15   2    3.61    3.42   1
 -10 -15   3    0.00    1.00   1
 -10 -15   4   20.07    4.48   1
 -10 -14 -14    2.31    2.22   1
 -10 -14 -13   42.51    3.78   1
 -10 -14 -12   15.37    2.82   1
 -10 -14 -11  102.21    7.08   1
 -10 -14 -10    4.49    1.91   1
 -10 -14  -9   -0.59    1.39   1
 -10 -14  -8    4.08    1.49   1
 -10 -14  -6    8.88    1.79   1
 -10 -14  -4    5.90    1.99   1
 -10 -14  -3   13.76    2.37   1
 -10 -14  -2   18.84    3.04   1
 -10 -14  -1   30.36    3.53   1
 -10 -14   0    9.80    2.88   1
 -10 -14   2   80.64    5.93   1
 -10 -14   3    5.90    2.72   1
 -10 -14   4    6.00    3.09   1
 -10 -14   5    4.80    2.72   1
 -10 -13 -15   24.30    3.85   1
 -10 -13 -14    4.20    2.99   1
 -10 -13 -13   16.08    2.81   1
 -10 -13 -12    3.61    2.20   1
 -10 -13 -11   21.90    2.81   1
 -10 -13 -10    4.41    1.60   1
 -10 -13  -9   86.68    3.91   1
 -10 -13  -8    1.90    0.99   1
 -10 -13  -7   29.27    1.84   1
 -10 -13  -6    8.53    1.99   1
 -10 -13  -4    3.80    1.09   1
 -10 -13  -3   32.60    2.17   1
 -10 -13  -2   16.56    1.71   1
 -10 -13  -1    5.02    1.61   1
 -10 -13   0    3.88    2.80   1
 -10 -13   1    3.50    1.68   1
 -10 -13   2   11.49    2.17   1
 -10 -13   4    8.12    2.51   1
 -10 -13   5    2.89    2.89   1
 -10 -13   6   31.81    4.85   1
 -10 -13   7   13.40    5.27   1
 -10 -12 -16   19.98    3.31   1
 -10 -12 -15   16.32    3.23   1
 -10 -12 -14   12.53    2.69   1
 -10 -12 -13   10.63    2.28   1
 -10 -12 -12    2.40    1.80   1
 -10 -12 -11   64.16    4.65   1
 -10 -12 -10   15.60    1.26   1
 -10 -12  -9    4.00    0.88   1
 -10 -12  -8   27.46    1.57   1
 -10 -12  -7   65.45    3.07   1
 -10 -12  -6    0.00    1.00   1
 -10 -12  -5  117.72    4.34   1
 -10 -12  -4   11.42    1.22   1
 -10 -12  -3    4.08    1.70   1
 -10 -12  -2   60.53    2.96   1
 -10 -12  -1   27.25    2.09   1
 -10 -12   0   19.01    1.92   1
 -10 -12   1   18.58    1.90   1
 -10 -12   2   40.07    2.79   1
 -10 -12   3   51.41    3.44   1
 -10 -12   5    3.50    2.21   1
 -10 -12   6    1.30    2.51   1
 -10 -12   7   -4.58    3.08   1
 -10 -12   8   46.24    3.94   1
 -10 -11 -16    0.20    2.52   1
 -10 -11 -15   34.46    3.64   1
 -10 -11 -14   20.52    2.99   1
 -10 -11 -13   95.65    7.04   1
 -10 -11 -12   35.52    2.98   1
 -10 -11 -11   37.21    3.05   1
 -10 -11 -10   14.06    1.50   1
 -10 -11  -9  235.01   12.26   1
 -10 -11  -6   11.29    1.08   1
 -10 -11  -5   89.87    3.79   1
 -10 -11  -4    3.80    1.21   1
 -10 -11  -3   42.38    3.26   1
 -10 -11  -2    8.12    1.88   1
 -10 -11  -1    3.20    2.00   1
 -10 -11   0   96.24    4.51   1
 -10 -11   1   -0.59    1.49   1
 -10 -11   2   17.39    2.00   1
 -10 -11   3  117.07    4.33   1
 -10 -11   4  124.10    4.90   1
 -10 -11   5    8.01    1.98   1
 -10 -11   6  127.46    6.55   1
 -10 -11   7   17.39    3.50   1
 -10 -11   8   -1.99    2.79   1
 -10 -11   9    1.90    2.10   1
 -10 -10 -16    9.99    3.60   1
 -10 -10 -15   -0.79    2.69   1
 -10 -10 -14   17.31    2.58   1
 -10 -10 -13   11.70    2.19   1
 -10 -10 -12   10.82    1.78   1
 -10 -10 -11   16.00    1.60   1
 -10 -10 -10    5.11    0.90   1
 -10 -10  -4    1.49    0.49   1
 -10 -10  -3    1.59    0.81   1
 -10 -10  -2   12.18    1.19   1
 -10 -10   0    5.02    1.21   1
 -10 -10   1   38.44    1.98   1
 -10 -10   2  191.82    6.93   1
 -10 -10   3   16.08    2.01   1
 -10 -10   4   29.05    2.26   1
 -10 -10   5   69.06    3.49   1
 -10 -10   6  138.30    5.41   1
 -10 -10   7    3.39    1.91   1
 -10 -10   8   79.21    5.16   1
 -10 -10   9   23.91    3.33   1
 -10 -10  10   -0.40    3.19   1
 -10  -9 -17    4.28    2.98   1
 -10  -9 -16   25.50    3.64   1
 -10  -9 -15   -0.30    2.61   1
 -10  -9 -14   20.07    2.69   1
 -10  -9 -13    8.58    2.11   1
 -10  -9 -12   84.27    6.06   1
 -10  -9 -11   50.69    2.28   1
 -10  -9 -10   26.73    1.14   1
 -10  -9  -3  466.56   22.03   1
 -10  -9  -2   33.76    1.63   1
 -10  -9  -1   19.36    1.67   1
 -10  -9   0   57.76    2.28   1
 -10  -9   1  171.09    5.49   1
 -10  -9   2    0.30    1.10   1
 -10  -9   3   17.72    1.68   1
 -10  -9   4   69.56    3.84   1
 -10  -9   5   22.00    2.16   1
 -10  -9   6   30.25    2.53   1
 -10  -9   7   72.93    3.42   1
 -10  -9   8    2.89    2.31   1
 -10  -9   9   47.47    3.86   1
 -10  -9  10   81.54    5.24   1
 -10  -9  11   -1.21    3.32   1
 -10  -8 -17    6.71    3.11   1
 -10  -8 -16    7.02    3.13   1
 -10  -8 -15    4.28    2.28   1
 -10  -8 -14   52.56    5.37   1
 -10  -8 -13   11.29    2.08   1
 -10  -8 -12   53.14    3.35   1
 -10  -8 -11    0.90    0.80   1
 -10  -8 -10   53.14    1.75   1
 -10  -8  -2  311.52   10.94   1
 -10  -8  -1  116.86    4.54   1
 -10  -8   0   43.96    2.25   1
 -10  -8   1   60.84    2.34   1
 -10  -8   2   -0.30    1.21   1
 -10  -8   3   62.73    2.53   1
 -10  -8   4   -1.59    1.59   1
 -10  -8   5  167.96    5.70   1
 -10  -8   6   69.06    3.32   1
 -10  -8   7   -0.10    1.52   1
 -10  -8   8   27.56    2.84   1
 -10  -8   9   35.40    3.09   1
 -10  -8  10    6.10    2.22   1
 -10  -8  11    9.42    3.68   1
 -10  -7 -17   -1.21    3.01   1
 -10  -7 -16   61.62    6.75   1
 -10  -7 -15   26.73    3.31   1
 -10  -7 -14    2.10    1.91   1
 -10  -7 -13    2.19    1.30   1
 -10  -7 -12  111.09    6.53   1
 -10  -7 -11   37.45    1.96   1
 -10  -7 -10   72.42    2.38   1
 -10  -7  -2   58.83    4.60   1
 -10  -7  -1  118.81    4.80   1
 -10  -7   0    3.80    1.09   1
 -10  -7   1  138.30    4.00   1
 -10  -7   2    0.10    1.11   1
 -10  -7   3   54.02    2.21   1
 -10  -7   4    0.40    1.50   1
 -10  -7   5    4.58    1.58   1
 -10  -7   6    8.41    1.68   1
 -10  -7   7   68.72    3.15   1
 -10  -7   8    2.79    1.60   1
 -10  -7   9   22.37    2.55   1
 -10  -7  10    0.71    2.30   1
 -10  -7  11   31.25    3.47   1
 -10  -7  12   -1.49    3.29   1
 -10  -6 -17   21.81    4.30   1
 -10  -6 -16    0.59    2.99   1
 -10  -6 -15    4.20    2.09   1
 -10  -6 -13   56.10    2.85   1
 -10  -6 -12   10.82    2.17   1
 -10  -6 -11   23.14    1.35   1
 -10  -6 -10   87.42    3.18   1
 -10  -6  -3   68.89    5.48   1
 -10  -6  -2  102.62    6.08   1
 -10  -6  -1  124.99    4.70   1
 -10  -6   0   59.60    2.93   1
 -10  -6   1   76.21    2.62   1
 -10  -6   2   47.47    1.79   1
 -10  -6   3    6.30    1.20   1
 -10  -6   4   46.24    2.58   1
 -10  -6   5   45.02    2.28   1
 -10  -6   6   -3.61    1.79   1
 -10  -6   7   21.90    2.25   1
 -10  -6   8   71.91    3.39   1
 -10  -6   9   82.08    4.17   1
 -10  -6  10    6.50    1.99   1
 -10  -6  11   21.34    3.60   1
 -10  -6  12   36.00    4.20   1
 -10  -6  13    7.51    2.79   1
 -10  -5 -17   -0.40    3.29   1
 -10  -5 -16    9.61    3.22   1
 -10  -5 -15   91.58    6.51   1
 -10  -5 -14   25.91    3.26   1
 -10  -5 -13   42.25    2.34   1
 -10  -5 -12   87.98    3.75   1
 -10  -5 -11   32.38    2.16   1
 -10  -5 -10   19.62    1.33   1
 -10  -5  -9    1.39    0.59   1
 -10  -5  -4  126.34    6.29   1
 -10  -5  -3   -0.30    1.80   1
 -10  -5  -2  688.01   30.43   1
 -10  -5  -1    3.31    0.51   1
 -10  -5   0  264.39    7.80   1
 -10  -5   1   69.06    2.49   1
 -10  -5   2   60.06    2.33   1
 -10  -5   3   74.48    2.76   1
 -10  -5   4   67.24    2.62   1
 -10  -5   5   81.54    3.43   1
 -10  -5   6    1.99    2.48   1
 -10  -5   7   13.47    1.98   1
 -10  -5   8    0.59    1.99   1
 -10  -5   9   42.64    3.13   1
 -10  -5  10   -0.10    2.23   1
 -10  -5  11    1.39    2.69   1
 -10  -5  12    4.00    2.60   1
 -10  -5  13   43.16    4.47   1
 -10  -4 -17   80.28    7.17   1
 -10  -4 -16    1.30    3.10   1
 -10  -4 -15    9.18    3.09   1
 -10  -4 -14    1.10    2.39   1
 -10  -4 -13  106.50    4.54   1
 -10  -4 -12    8.70    1.48   1
 -10  -4 -11   71.40    3.21   1
 -10  -4 -10   -0.20    1.11   1
 -10  -4  -9    5.20    0.91   1
 -10  -4  -8   13.99    1.20   1
 -10  -4  -4  417.38   19.20   1
 -10  -4  -3    8.41    2.38   1
 -10  -4  -2  114.70    6.64   1
 -10  -4  -1   29.27    1.08   1
 -10  -4   0  125.44    4.70   1
 -10  -4   1   18.84    1.22   1
 -10  -4   2  132.25    6.21   1
 -10  -4   3   65.77    2.60   1
 -10  -4   4    8.18    1.37   1
 -10  -4   5   51.27    2.43   1
 -10  -4   6   48.44    2.51   1
 -10  -4   7   -1.59    1.39   1
 -10  -4   8   49.98    2.97   1
 -10  -4   9   83.36    3.83   1
 -10  -4  10   -0.59    2.09   1
 -10  -4  11    8.12    2.28   1
 -10  -4  12    2.79    2.50   1
 -10  -4  13   -2.79    3.61   1
 -10  -4  14   -9.49    5.48   1
 -10  -3 -17   15.21    4.13   1
 -10  -3 -16    2.89    3.40   1
 -10  -3 -15   18.23    3.33   1
 -10  -3 -14    1.21    2.71   1
 -10  -3 -13    3.50    1.68   1
 -10  -3 -12   -1.49    1.39   1
 -10  -3 -11   49.56    2.25   1
 -10  -3 -10   22.00    1.41   1
 -10  -3  -9    1.49    1.20   1
 -10  -3  -8   76.56    3.15   1
 -10  -3  -7   23.62    2.43   1
 -10  -3  -6  148.35    7.06   1
 -10  -3  -4   14.59    2.83   1
 -10  -3  -3   25.91    3.66   1
 -10  -3  -2   21.53    1.11   1
 -10  -3  -1  136.19    3.97   1
 -10  -3   0   36.97    1.82   1
 -10  -3   1   17.72    1.77   1
 -10  -3   2  146.89    4.12   1
 -10  -3   3   61.94    2.36   1
 -10  -3   4  227.41    6.94   1
 -10  -3   5   10.82    1.51   1
 -10  -3   6   27.56    1.78   1
 -10  -3   7  243.36    7.49   1
 -10  -3   8    3.80    2.11   1
 -10  -3   9   13.40    2.71   1
 -10  -3  10   29.38    2.60   1
 -10  -3  11   13.10    2.10   1
 -10  -3  12    9.61    2.42   1
 -10  -3  13   19.54    3.09   1
 -10  -3  14   11.70    3.21   1
 -10  -2 -16   21.34    4.34   1
 -10  -2 -15   12.53    4.11   1
 -10  -2 -14    3.80    2.89   1
 -10  -2 -13   17.81    2.11   1
 -10  -2 -12   14.67    1.69   1
 -10  -2 -11    5.29    1.29   1
 -10  -2 -10   36.36    2.05   1
 -10  -2  -9   26.32    1.54   1
 -10  -2  -8    7.08    1.38   1
 -10  -2  -7  417.38   22.47   1
 -10  -2  -6   55.35    2.23   1
 -10  -2  -5    5.52    0.80   1
 -10  -2  -4  134.79    3.72   1
 -10  -2  -3   82.81    2.55   1
 -10  -2  -2    0.71    0.71   1
 -10  -2  -1   11.97    2.08   1
 -10  -2   0  122.99    3.55   1
 -10  -2   1  141.61    4.05   1
 -10  -2   2    8.01    1.30   1
 -10  -2   3  113.21    3.19   1
 -10  -2   4   14.52    1.30   1
 -10  -2   5    1.10    1.51   1
 -10  -2   6   55.35    2.83   1
 -10  -2   7   -0.20    1.71   1
 -10  -2   8   60.53    2.96   1
 -10  -2   9   54.32    2.80   1
 -10  -2  10   15.37    1.96   1
 -10  -2  11   34.46    3.05   1
 -10  -2  12   36.60    3.51   1
 -10  -2  13    4.49    3.48   1
 -10  -2  14   18.40    4.38   1
 -10  -1 -16   -1.69    3.38   1
 -10  -1 -15   10.11    3.37   1
 -10  -1 -14   10.82    3.42   1
 -10  -1 -13   47.33    2.75   1
 -10  -1 -12   16.00    1.76   1
 -10  -1 -11    3.69    1.50   1
 -10  -1 -10    8.53    1.28   1
 -10  -1  -9    8.18    1.32   1
 -10  -1  -8   72.76    2.56   1
 -10  -1  -7   25.50    2.93   1
 -10  -1  -6   57.76    3.65   1
 -10  -1  -5  107.95    3.53   1
 -10  -1  -4   62.57    2.53   1
 -10  -1  -3  157.50    7.03   1
 -10  -1  -2   93.51    3.29   1
 -10  -1  -1  211.70    5.82   1
 -10  -1   0   87.42    2.43   1
 -10  -1   1   13.69    1.33   1
 -10  -1   2   12.60    1.21   1
 -10  -1   3  231.04    6.08   1
 -10  -1   4  163.33    4.86   1
 -10  -1   5   74.13    2.58   1
 -10  -1   6    9.42    1.72   1
 -10  -1   7    9.80    1.82   1
 -10  -1   8    4.88    2.21   1
 -10  -1   9   79.39    3.92   1
 -10  -1  10   22.56    2.28   1
 -10  -1  11   27.25    3.03   1
 -10  -1  12   43.96    3.45   1
 -10  -1  13   48.16    4.30   1
 -10  -1  14   17.22    3.07   1
 -10   0 -16   15.60    4.58   1
 -10   0 -15   32.26    4.88   1
 -10   0 -14   14.67    2.99   1
 -10   0 -13   57.76    5.93   1
 -10   0 -12   51.84    2.88   1
 -10   0 -11   53.29    2.63   1
 -10   0 -10    9.49    1.48   1
 -10   0  -9   53.58    2.20   1
 -10   0  -8   28.20    1.70   1
 -10   0  -7  460.53   13.73   1
 -10   0  -6   23.43    1.65   1
 -10   0  -5  146.41    4.60   1
 -10   0  -4    9.99    1.01   1
 -10   0  -3    9.92    0.88   1
 -10   0  -2  207.07    5.18   1
 -10   0  -1   25.20    1.41   1
 -10   0   0   60.53    2.02   1
 -10   0   1    3.20    1.22   1
 -10   0   2   89.11    2.64   1
 -10   0   3   36.72    1.94   1
 -10   0   4   19.54    1.77   1
 -10   0   5   22.94    1.72   1
 -10   0   6  137.59    4.46   1
 -10   0   7   75.34    2.95   1
 -10   0   8  126.34    4.50   1
 -10   0   9    1.39    1.79   1
 -10   0  10    3.10    1.80   1
 -10   0  11    2.69    2.30   1
 -10   0  12   53.44    3.36   1
 -10   0  13    4.71    2.69   1
 -10   0  14    8.70    3.42   1
 -10   0  15   17.31    5.91   1
 -10   1 -15   16.32    4.77   1
 -10   1 -14   54.61    5.17   1
 -10   1 -13    8.82    3.62   1
 -10   1 -12   12.67    1.78   1
 -10   1 -11   11.90    1.79   1
 -10   1 -10    5.11    1.49   1
 -10   1  -9    1.49    2.00   1
 -10   1  -8   22.28    1.79   1
 -10   1  -7    5.81    1.49   1
 -10   1  -6   -0.40    0.89   1
 -10   1  -5  101.40    3.02   1
 -10   1  -4    6.40    1.21   1
 -10   1  -3  342.25    9.25   1
 -10   1  -2    3.10    1.09   1
 -10   1  -1    0.71    0.91   1
 -10   1   0   17.81    1.43   1
 -10   1   1   45.97    1.76   1
 -10   1   2   15.13    1.40   1
 -10   1   3   65.45    2.75   1
 -10   1   4   14.67    1.61   1
 -10   1   5   20.88    1.83   1
 -10   1   6    7.08    1.60   1
 -10   1   7    9.00    2.10   1
 -10   1   8  100.00    3.60   1
 -10   1   9   -1.30    1.60   1
 -10   1  10   60.06    3.25   1
 -10   1  11   53.14    3.94   1
 -10   1  12   -1.80    3.19   1
 -10   1  13    3.50    4.41   1
 -10   1  14   23.14    5.58   1
 -10   1  15    1.49    2.88   1
 -10   2 -14    6.20    4.08   1
 -10   2 -13   35.05    4.97   1
 -10   2 -12    0.30    1.90   1
 -10   2 -11   12.11    1.67   1
 -10   2 -10   20.61    2.00   1
 -10   2  -9   33.99    2.10   1
 -10   2  -8   20.98    1.92   1
 -10   2  -7   66.91    2.94   1
 -10   2  -6   50.55    1.99   1
 -10   2  -5  185.23    5.17   1
 -10   2  -4   12.39    1.27   1
 -10   2  -3  272.25    6.93   1
 -10   2  -2    4.08    1.09   1
 -10   2  -1  216.68    5.59   1
 -10   2   0   31.25    1.45   1
 -10   2   1   30.03    1.75   1
 -10   2   2   93.90    3.29   1
 -10   2   3  108.99    3.55   1
 -10   2   4    2.19    1.98   1
 -10   2   5   68.39    2.81   1
 -10   2   6    5.02    1.52   1
 -10   2   7   14.59    2.06   1
 -10   2   8   35.64    3.10   1
 -10   2   9   51.12    3.72   1
 -10   2  10    1.69    2.60   1
 -10   2  11    4.41    2.90   1
 -10   2  12   27.25    3.76   1
 -10   2  13    1.80    3.59   1
 -10   2  14    6.92    5.21   1
 -10   2  15   11.63    6.82   1
 -10   3 -14   -0.59    2.88   1
 -10   3 -13    7.67    3.77   1
 -10   3 -12   54.02    3.82   1
 -10   3 -11   15.76    1.99   1
 -10   3 -10    1.49    1.68   1
 -10   3  -9    0.10    1.72   1
 -10   3  -8   45.56    2.43   1
 -10   3  -7    1.90    1.71   1
 -10   3  -6   12.82    1.22   1
 -10   3  -5  153.76    4.22   1
 -10   3  -4    4.41    1.39   1
 -10   3  -3  156.75    4.76   1
 -10   3  -2   34.57    1.76   1
 -10   3  -1    2.89    1.29   1
 -10   3   0   58.68    2.30   1
 -10   3   1   30.69    1.88   1
 -10   3   2   81.72    2.71   1
 -10   3   3   71.23    2.87   1
 -10   3   4   12.60    1.42   1
 -10   3   5   44.62    2.94   1
 -10   3   6    4.20    1.80   1
 -10   3   7   51.41    3.44   1
 -10   3   8    2.10    1.60   1
 -10   3   9    6.30    2.91   1
 -10   3  10   25.10    3.11   1
 -10   3  11   19.01    2.96   1
 -10   3  12    4.88    3.09   1
 -10   3  13    6.92    5.10   1
 -10   3  14   -5.71    5.78   1
 -10   3  15    5.02    4.79   1
 -10   4 -13    9.12    4.53   1
 -10   4 -12   11.29    2.69   1
 -10   4 -11    0.59    1.89   1
 -10   4 -10   37.33    2.69   1
 -10   4  -9   -0.59    1.69   1
 -10   4  -8    5.71    1.48   1
 -10   4  -7    6.60    2.11   1
 -10   4  -6    1.69    1.20   1
 -10   4  -5    0.50    1.11   1
 -10   4  -4   15.13    1.63   1
 -10   4  -3    1.30    1.21   1
 -10   4  -2   72.08    2.55   1
 -10   4  -1    3.31    1.31   1
 -10   4   0   69.72    2.67   1
 -10   4   1    8.12    1.60   1
 -10   4   2    0.40    1.20   1
 -10   4   3  231.95    6.40   1
 -10   4   4   98.01    3.96   1
 -10   4   5   14.59    2.52   1
 -10   4   6    7.29    2.00   1
 -10   4   7  125.44    5.15   1
 -10   4   8    5.38    2.00   1
 -10   4   9   12.60    3.19   1
 -10   4  10    2.50    3.19   1
 -10   4  11    1.59    3.58   1
 -10   4  12   20.79    3.74   1
 -10   4  13   -2.89    4.90   1
 -10   4  14   19.36    4.66   1
 -10   5 -13   -2.99    4.29   1
 -10   5 -12   24.01    3.63   1
 -10   5 -11    3.80    2.69   1
 -10   5 -10   -0.90    1.99   1
 -10   5  -9    1.80    1.61   1
 -10   5  -8   39.44    2.39   1
 -10   5  -7   21.53    2.51   1
 -10   5  -6   15.37    1.57   1
 -10   5  -5    2.19    1.18   1
 -10   5  -4    7.90    1.52   1
 -10   5  -3   27.56    1.78   1
 -10   5  -2   22.56    1.80   1
 -10   5  -1   80.82    2.88   1
 -10   5   0   23.72    1.66   1
 -10   5   1   33.76    2.09   1
 -10   5   2   48.44    2.37   1
 -10   5   3   23.23    2.60   1
 -10   5   4   -1.99    1.69   1
 -10   5   5    8.82    2.49   1
 -10   5   6  146.65    6.30   1
 -10   5   7   12.82    2.51   1
 -10   5   8    7.67    2.38   1
 -10   5   9   13.32    2.70   1
 -10   5  10    2.99    3.08   1
 -10   5  11    3.31    3.02   1
 -10   5  12    5.62    5.31   1
 -10   5  13   31.25    4.36   1
 -10   5  14    3.39    5.78   1
 -10   6 -12    3.10    4.40   1
 -10   6 -11    1.59    3.00   1
 -10   6 -10   12.53    2.12   1
 -10   6  -9    8.18    1.77   1
 -10   6  -8    0.20    1.91   1
 -10   6  -7    2.10    2.29   1
 -10   6  -6    8.58    1.17   1
 -10   6  -5   10.82    1.51   1
 -10   6  -4    7.40    1.52   1
 -10   6  -3    2.19    1.51   1
 -10   6  -2   24.80    1.79   1
 -10   6  -1   27.77    2.00   1
 -10   6   0   29.27    1.95   1
 -10   6   1    9.00    1.68   1
 -10   6   2    5.02    1.88   1
 -10   6   3    8.70    2.12   1
 -10   6   4    6.10    1.98   1
 -10   6   5    7.02    2.12   1
 -10   6   6   34.93    3.19   1
 -10   6   7   24.80    2.69   1
 -10   6   8   15.76    3.10   1
 -10   6   9   32.95    3.67   1
 -10   6  10   19.89    3.57   1
 -10   6  11   63.52    7.01   1
 -10   6  12   -0.30    4.42   1
 -10   6  13   -4.49    5.22   1
 -10   6  14   -2.19    4.00   1
 -10   7 -11    2.59    4.60   1
 -10   7 -10    7.62    4.20   1
 -10   7  -9   -0.71    4.22   1
 -10   7  -8    5.11    2.98   1
 -10   7  -7    0.20    2.62   1
 -10   7  -6   34.46    3.40   1
 -10   7  -5   11.83    1.38   1
 -10   7  -4    3.39    1.80   1
 -10   7  -3   19.71    1.78   1
 -10   7  -2   48.44    2.51   1
 -10   7  -1   31.58    2.25   1
 -10   7   0   75.86    3.14   1
 -10   7   1   34.57    3.18   1
 -10   7   2   25.10    2.71   1
 -10   7   3   16.32    2.83   1
 -10   7   4   66.26    3.74   1
 -10   7   5    6.92    2.68   1
 -10   7   6    9.30    2.99   1
 -10   7   7   50.55    4.12   1
 -10   7   8    2.10    3.10   1
 -10   7   9   -0.30    2.51   1
 -10   7  10    9.42    3.38   1
 -10   7  11   50.84    5.56   1
 -10   7  12   -0.71    3.81   1
 -10   7  13   -2.10    5.80   1
 -10   8 -10    0.59    3.57   1
 -10   8  -9    4.20    4.59   1
 -10   8  -8   -1.99    2.90   1
 -10   8  -7    1.59    2.90   1
 -10   8  -6    0.10    2.73   1
 -10   8  -5   25.91    1.93   1
 -10   8  -4   43.16    2.37   1
 -10   8  -3    1.59    1.59   1
 -10   8  -2    2.59    1.71   1
 -10   8  -1    5.71    1.63   1
 -10   8   0   53.29    2.63   1
 -10   8   1   39.44    3.14   1
 -10   8   2   34.22    3.63   1
 -10   8   3   33.87    3.49   1
 -10   8   4   29.16    3.35   1
 -10   8   5  117.72    6.73   1
 -10   8   6   24.80    3.29   1
 -10   8   7    3.69    3.00   1
 -10   8   8    7.08    2.50   1
 -10   8   9    6.20    3.49   1
 -10   8  10    5.29    5.01   1
 -10   8  11    3.80    5.19   1
 -10   8  12    9.61    5.08   1
 -10   8  13    1.90    4.20   1
 -10   9  -9    0.10    3.34   1
 -10   9  -8    1.00    5.80   1
 -10   9  -7    6.10    4.50   1
 -10   9  -6   71.23    5.06   1
 -10   9  -5    0.71    2.91   1
 -10   9  -4   -0.20    1.31   1
 -10   9  -3    6.81    1.83   1
 -10   9  -2  161.29    6.35   1
 -10   9  -1   -0.20    1.61   1
 -10   9   0    7.62    1.71   1
 -10   9   1    5.38    2.41   1
 -10   9   2   47.75    4.01   1
 -10   9   3   64.64    4.18   1
 -10   9   4   92.93    5.78   1
 -10   9   5   11.97    3.53   1
 -10   9   6    0.30    3.11   1
 -10   9   7   17.81    3.04   1
 -10   9   8   12.89    5.53   1
 -10   9   9    5.20    4.61   1
 -10   9  10   27.88    6.55   1
 -10   9  11   56.25    6.90   1
 -10   9  12   28.84    6.44   1
 -10  10  -7   51.41    6.45   1
 -10  10  -6   21.16    5.52   1
 -10  10  -5    5.02    4.79   1
 -10  10  -4   42.77    4.19   1
 -10  10  -3    5.90    3.40   1
 -10  10  -2   24.11    2.26   1
 -10  10  -1   81.54    4.33   1
 -10  10   0   45.02    4.03   1
 -10  10   1   34.93    3.55   1
 -10  10   2   26.01    3.26   1
 -10  10   3    4.08    2.38   1
 -10  10   4    2.59    2.70   1
 -10  10   5   17.22    3.57   1
 -10  10   6   29.81    4.15   1
 -10  10   7   -5.20    4.61   1
 -10  10   8    4.49    4.79   1
 -10  10   9   17.98    4.83   1
 -10  10  10   -3.10    3.10   1
 -10  10  11    6.50    3.98   1
 -10  11  -6   -2.89    3.40   1
 -10  11  -5   29.59    5.11   1
 -10  11  -4    1.59    4.99   1
 -10  11  -3    5.02    4.61   1
 -10  11  -2   11.49    5.29   1
 -10  11  -1    2.40    2.91   1
 -10  11   0   17.39    3.59   1
 -10  11   1   15.76    4.29   1
 -10  11   2   18.49    4.13   1
 -10  11   3   -1.99    4.79   1
 -10  11   4   38.69    6.72   1
 -10  11   5    9.18    4.12   1
 -10  11   6    0.10    4.96   1
 -10  11   7   -0.10    3.24   1
 -10  11   8    0.50    5.62   1
 -10  11   9   -4.71    4.90   1
 -10  11  10   29.16    6.70   1
 -10  12  -3   18.49    4.99   1
 -10  12  -2   -2.99    3.60   1
 -10  12  -1   29.70    5.99   1
 -10  12   0    9.99    5.31   1
 -10  12   1    0.90    3.61   1
 -10  12   2    6.81    3.29   1
 -10  12   3    1.49    5.27   1
 -10  12   4    7.67    4.27   1
 -10  12   5   12.39    5.77   1
 -10  12   6   16.56    4.07   1
 -10  12   7   15.52    5.44   1
 -10  12   8   30.80    7.66   1
 -10  13   0   -1.49    6.17   1
 -10  13   1   21.90    7.11   1
 -10  13   2   16.40    5.10   1
 -10  13   3   14.36    5.99   1
 -10  13   4   12.39    4.08   1
 -10  13   5    2.19    6.10   1
  -9 -18  -8    4.80    3.29   1
  -9 -18  -7    3.20    3.29   1
  -9 -18  -6   -0.50    2.81   1
  -9 -18  -5   18.92    3.48   1
  -9 -18  -4   -1.30    2.19   1
  -9 -18  -3   22.94    4.69   1
  -9 -17 -11    9.12    3.50   1
  -9 -17 -10   20.07    3.49   1
  -9 -17  -9   16.81    3.20   1
  -9 -17  -8   14.59    3.59   1
  -9 -17  -7   19.01    3.58   1
  -9 -17  -6   -0.71    2.60   1
  -9 -17  -5    0.90    2.81   1
  -9 -17  -4    2.89    3.71   1
  -9 -17  -3    3.10    3.10   1
  -9 -17  -1   55.95    6.13   1
  -9 -17   0    6.60    3.29   1
  -9 -17   1    8.12    3.99   1
  -9 -16 -13    0.30    3.21   1
  -9 -16 -12   33.52    4.05   1
  -9 -16 -11   13.40    3.00   1
  -9 -16 -10    3.61    3.19   1
  -9 -16  -9    6.50    2.50   1
  -9 -16  -8   19.80    3.47   1
  -9 -16  -7   -3.20    2.51   1
  -9 -16  -6   16.89    2.96   1
  -9 -16  -5   30.69    3.88   1
  -9 -16  -4    1.80    2.89   1
  -9 -16  -3    2.40    2.79   1
  -9 -16  -1    4.88    3.58   1
  -9 -16   0   -3.61    3.61   1
  -9 -16   1   81.90    6.88   1
  -9 -16   2    4.49    3.01   1
  -9 -16   3   12.53    4.60   1
  -9 -15 -14   34.57    4.35   1
  -9 -15 -13   11.09    2.93   1
  -9 -15 -12   -4.71    3.08   1
  -9 -15 -11    5.29    2.58   1
  -9 -15 -10   72.93    6.32   1
  -9 -15  -9    3.88    2.09   1
  -9 -15  -8    2.40    2.11   1
  -9 -15  -7    1.10    2.10   1
  -9 -15  -6   -1.90    2.01   1
  -9 -15  -5   -1.10    2.10   1
  -9 -15  -4   19.89    3.12   1
  -9 -15  -3    5.29    3.08   1
  -9 -15  -1   19.98    3.13   1
  -9 -15   0   23.23    3.66   1
  -9 -15   1    7.40    2.50   1
  -9 -15   2    4.49    3.39   1
  -9 -15   3   49.98    5.94   1
  -9 -15   4   -3.39    2.50   1
  -9 -15   5    3.69    3.19   1
  -9 -14 -15    3.69    2.88   1
  -9 -14 -14   13.91    3.21   1
  -9 -14 -13    0.79    2.39   1
  -9 -14 -12   42.25    4.16   1
  -9 -14 -11   -0.71    1.92   1
  -9 -14 -10    2.31    2.10   1
  -9 -14  -9   -0.10    1.82   1
  -9 -14  -8   80.82    3.78   1
  -9 -14  -7    3.80    1.60   1
  -9 -14  -6   43.03    2.76   1
  -9 -14  -5   16.16    1.93   1
  -9 -14  -4   -0.10    1.41   1
  -9 -14  -3   57.15    4.23   1
  -9 -14  -2   82.63    6.00   1
  -9 -14  -1    4.88    2.08   1
  -9 -14   0    5.81    2.12   1
  -9 -14   1   43.82    3.44   1
  -9 -14   2    1.99    2.28   1
  -9 -14   3   -1.59    3.28   1
  -9 -14   4   -2.89    3.50   1
  -9 -14   5   28.09    4.66   1
  -9 -14   6    4.28    3.68   1
  -9 -13 -16    0.71    3.91   1
  -9 -13 -15    5.38    3.29   1
  -9 -13 -14   23.04    3.17   1
  -9 -13 -13   21.44    3.33   1
  -9 -13 -12    3.10    2.01   1
  -9 -13 -11    0.79    1.80   1
  -9 -13 -10   83.54    3.84   1
  -9 -13  -9   74.30    3.45   1
  -9 -13  -8    3.39    1.21   1
  -9 -13  -7   13.18    1.38   1
  -9 -13  -6   52.71    2.47   1
  -9 -13  -5    4.20    1.19   1
  -9 -13  -4  102.41    4.25   1
  -9 -13  -3    5.11    1.90   1
  -9 -13  -2   21.16    2.67   1
  -9 -13  -1   -0.20    1.61   1
  -9 -13   0   67.40    3.78   1
  -9 -13   1    8.18    2.17   1
  -9 -13   2   88.36    4.89   1
  -9 -13   3   45.02    3.49   1
  -9 -13   4    8.29    2.71   1
  -9 -13   5   14.82    3.93   1
  -9 -13   6   17.39    4.50   1
  -9 -13   7    7.62    4.42   1
  -9 -13   8   -3.39    4.89   1
  -9 -12 -16    5.52    2.91   1
  -9 -12 -15   32.95    4.36   1
  -9 -12 -14   25.81    3.35   1
  -9 -12 -13    2.31    1.92   1
  -9 -12 -12    2.89    2.11   1
  -9 -12 -11   16.73    1.80   1
  -9 -12 -10    0.30    1.71   1
  -9 -12  -9   19.10    2.18   1
  -9 -12  -8  113.85    7.04   1
  -9 -12  -7    2.10    1.31   1
  -9 -12  -6   59.91    3.56   1
  -9 -12  -5   -0.10    1.01   1
  -9 -12  -4   51.84    3.31   1
  -9 -12  -3    6.40    1.21   1
  -9 -12  -2   61.31    3.13   1
  -9 -12  -1    3.50    1.38   1
  -9 -12   0   16.73    1.88   1
  -9 -12   1    9.49    1.91   1
  -9 -12   2    4.28    1.70   1
  -9 -12   3   15.52    2.36   1
  -9 -12   4   11.02    2.72   1
  -9 -12   5    5.90    2.62   1
  -9 -12   6   -1.10    2.39   1
  -9 -12   7   70.73    4.88   1
  -9 -12   8   13.18    3.12   1
  -9 -12   9   -2.40    2.70   1
  -9 -11 -17    6.60    3.70   1
  -9 -11 -16   -6.00    2.89   1
  -9 -11 -15   -4.58    3.00   1
  -9 -11 -14   21.81    3.46   1
  -9 -11 -13   97.02    6.50   1
  -9 -11 -12    4.49    1.48   1
  -9 -11 -11    3.10    1.51   1
  -9 -11 -10    2.89    1.50   1
  -9 -11  -9   68.89    2.99   1
  -9 -11  -8   67.24    2.79   1
  -9 -11  -7   29.92    1.42   1
  -9 -11  -6   36.00    1.68   1
  -9 -11  -5   35.05    1.89   1
  -9 -11  -3   17.64    2.44   1
  -9 -11  -2   23.43    2.32   1
  -9 -11  -1   14.21    1.51   1
  -9 -11   0  149.82    7.59   1
  -9 -11   1   25.20    2.01   1
  -9 -11   2   33.06    2.53   1
  -9 -11   3   33.76    2.09   1
  -9 -11   4   36.84    2.43   1
  -9 -11   5   33.76    2.56   1
  -9 -11   6   55.06    3.41   1
  -9 -11   7   22.00    2.72   1
  -9 -11   8   10.50    2.79   1
  -9 -11   9   29.27    3.46   1
  -9 -11  10    5.20    3.01   1
  -9 -10 -17    3.39    3.28   1
  -9 -10 -16    8.18    3.09   1
  -9 -10 -15   67.57    5.59   1
  -9 -10 -14    4.41    2.18   1
  -9 -10 -13    8.18    1.49   1
  -9 -10 -12   21.62    1.77   1
  -9 -10 -11   47.61    3.73   1
  -9 -10 -10    2.31    0.91   1
  -9 -10  -9   31.92    2.15   1
  -9 -10  -8    3.88    0.79   1
  -9 -10  -7    3.10    0.70   1
  -9 -10  -6    6.00    0.69   1
  -9 -10  -5  127.01    6.76   1
  -9 -10  -4   44.76    2.01   1
  -9 -10  -3    2.10    1.19   1
  -9 -10  -2  130.19    7.53   1
  -9 -10  -1   14.82    1.31   1
  -9 -10   0   54.76    2.66   1
  -9 -10   1    0.10    1.22   1
  -9 -10   2   32.15    1.81   1
  -9 -10   3   -1.00    1.40   1
  -9 -10   4   16.81    1.80   1
  -9 -10   5  106.50    4.13   1
  -9 -10   6    0.10    2.02   1
  -9 -10   7    2.59    2.00   1
  -9 -10   8   77.26    5.98   1
  -9 -10   9    0.00    1.00   1
  -9 -10  10   32.15    3.52   1
  -9 -10  11    7.02    3.82   1
  -9  -9 -17   12.11    3.48   1
  -9  -9 -16    9.61    3.10   1
  -9  -9 -15   -2.89    2.48   1
  -9  -9 -14    6.92    2.42   1
  -9  -9 -13  116.21    5.61   1
  -9  -9 -12   10.89    1.52   1
  -9  -9 -11   27.04    1.87   1
  -9  -9 -10    4.08    0.89   1
  -9  -9  -9   40.07    2.53   1
  -9  -9  -8   -0.79    0.50   1
  -9  -9  -4   42.38    2.34   1
  -9  -9  -3   18.49    1.12   1
  -9  -9  -2    2.19    1.18   1
  -9  -9  -1   78.68    3.02   1
  -9  -9   0  200.79    5.95   1
  -9  -9   1   84.64    2.94   1
  -9  -9   2   73.27    2.74   1
  -9  -9   3   13.32    2.41   1
  -9  -9   4    1.99    1.38   1
  -9  -9   5    1.00    1.70   1
  -9  -9   6  104.86    4.92   1
  -9  -9   7    1.21    1.72   1
  -9  -9   8   22.09    2.63   1
  -9  -9   9   13.03    2.24   1
  -9  -9  10   10.18    2.42   1
  -9  -9  11    8.18    3.49   1
  -9  -9  12   -3.88    6.07   1
  -9  -8 -18   13.76    4.30   1
  -9  -8 -17    1.49    2.98   1
  -9  -8 -16   -1.80    2.79   1
  -9  -8 -15  130.19    8.90   1
  -9  -8 -14  213.74   10.53   1
  -9  -8 -13    3.50    1.31   1
  -9  -8 -12    5.90    1.41   1
  -9  -8 -11  129.50    5.69   1
  -9  -8 -10    5.11    1.31   1
  -9  -8  -9  103.43    5.09   1
  -9  -8  -3  223.20   11.06   1
  -9  -8  -2  219.93   10.68   1
  -9  -8  -1   -0.90    0.80   1
  -9  -8   0   20.79    1.28   1
  -9  -8   1  347.08   12.30   1
  -9  -8   2  106.30    4.12   1
  -9  -8   3    2.79    1.30   1
  -9  -8   4    7.02    1.38   1
  -9  -8   5    0.71    1.61   1
  -9  -8   6    0.50    1.60   1
  -9  -8   7    0.79    1.58   1
  -9  -8   8   53.14    2.77   1
  -9  -8   9   17.72    2.61   1
  -9  -8  10   63.36    3.98   1
  -9  -8  11    5.81    2.41   1
  -9  -8  12    4.28    3.19   1
  -9  -7 -18   33.87    5.01   1
  -9  -7 -17   30.69    4.65   1
  -9  -7 -16   20.34    3.07   1
  -9  -7 -15   29.48    3.15   1
  -9  -7 -14    0.00    1.00   1
  -9  -7 -13  151.78    6.16   1
  -9  -7 -12   26.21    1.74   1
  -9  -7 -11   19.80    1.96   1
  -9  -7 -10    4.88    1.19   1
  -9  -7  -9    4.28    0.70   1
  -9  -7  -2    9.67    0.81   1
  -9  -7  -1  395.61   10.74   1
  -9  -7   0  103.02    4.87   1
  -9  -7   1    0.30    1.10   1
  -9  -7   2   52.56    2.03   1
  -9  -7   3   64.32    2.89   1
  -9  -7   4   84.27    3.49   1
  -9  -7   5    0.40    1.50   1
  -9  -7   6    3.50    1.61   1
  -9  -7   7   -0.30    1.41   1
  -9  -7   8   68.56    3.48   1
  -9  -7   9   14.36    2.20   1
  -9  -7  10   11.70    2.33   1
  -9  -7  11    2.79    2.81   1
  -9  -7  12    5.02    3.32   1
  -9  -7  13   -3.88    2.88   1
  -9  -6 -18   55.50    5.96   1
  -9  -6 -17    5.62    3.60   1
  -9  -6 -16   -1.69    2.78   1
  -9  -6 -15    5.52    2.73   1
  -9  -6 -14   22.75    2.00   1
  -9  -6 -13    1.21    1.41   1
  -9  -6 -12   61.47    2.67   1
  -9  -6 -11   88.17    4.88   1
  -9  -6 -10    2.99    1.21   1
  -9  -6  -9  392.04   10.69   1
  -9  -6  -3   62.88    4.44   1
  -9  -6  -2    2.31    2.22   1
  -9  -6  -1  237.16    6.47   1
  -9  -6   0    0.20    1.01   1
  -9  -6   1   49.70    1.83   1
  -9  -6   2   45.83    1.76   1
  -9  -6   3   -0.79    1.00   1
  -9  -6   4   19.80    1.51   1
  -9  -6   5   22.56    1.80   1
  -9  -6   6   56.40    2.55   1
  -9  -6   7  102.41    3.85   1
  -9  -6   8   86.30    4.27   1
  -9  -6   9    2.50    2.21   1
  -9  -6  10  115.78    4.73   1
  -9  -6  11   16.08    2.73   1
  -9  -6  12   -2.19    2.49   1
  -9  -6  13    0.90    2.81   1
  -9  -5 -18   19.62    4.43   1
  -9  -5 -17   -1.10    3.11   1
  -9  -5 -16   48.44    4.87   1
  -9  -5 -15    1.00    2.60   1
  -9  -5 -14   13.32    1.97   1
  -9  -5 -13   14.06    1.73   1
  -9  -5 -12    2.59    1.38   1
  -9  -5 -11   15.29    1.72   1
  -9  -5 -10  279.56   10.37   1
  -9  -5  -9  272.25    8.58   1
  -9  -5  -8   96.24    2.94   1
  -9  -5  -3  235.93   10.75   1
  -9  -5  -2   -0.59    2.88   1
  -9  -5  -1  171.09    6.02   1
  -9  -5   0    2.10    1.01   1
  -9  -5   1   28.30    1.49   1
  -9  -5   2   23.52    1.36   1
  -9  -5   3  395.21    9.94   1
  -9  -5   4   93.90    2.91   1
  -9  -5   5   -0.71    1.31   1
  -9  -5   6    2.19    1.51   1
  -9  -5   7    3.20    1.50   1
  -9  -5   8  188.51    6.32   1
  -9  -5   9   16.08    2.09   1
  -9  -5  10   41.09    2.95   1
  -9  -5  11    1.21    2.00   1
  -9  -5  12   15.60    2.53   1
  -9  -5  13    0.30    3.41   1
  -9  -5  14    6.40    3.39   1
  -9  -4 -18   21.53    4.73   1
  -9  -4 -17    2.89    2.38   1
  -9  -4 -16   18.84    3.91   1
  -9  -4 -15   48.86    5.17   1
  -9  -4 -14   35.05    2.96   1
  -9  -4 -13    0.00    1.00   1
  -9  -4 -12  167.18    5.43   1
  -9  -4 -11    3.61    1.10   1
  -9  -4 -10   60.37    2.33   1
  -9  -4  -9   12.67    1.42   1
  -9  -4  -8  141.85    3.81   1
  -9  -4  -7   15.76    0.71   1
  -9  -4  -4    9.61    2.73   1
  -9  -4  -3   93.70    6.20   1
  -9  -4  -2   63.84    4.15   1
  -9  -4  -1   14.36    0.68   1
  -9  -4   0    6.40    1.11   1
  -9  -4   1  922.94   21.87   1
  -9  -4   2    6.81    0.99   1
  -9  -4   3    1.59    1.18   1
  -9  -4   4   40.96    1.92   1
  -9  -4   5  410.87   10.54   1
  -9  -4   6   68.23    2.64   1
  -9  -4   7   32.60    2.28   1
  -9  -4   8   18.66    1.90   1
  -9  -4   9   35.28    2.49   1
  -9  -4  10   -0.59    2.79   1
  -9  -4  11    1.00    1.90   1
  -9  -4  12    1.99    2.20   1
  -9  -4  13   24.11    2.95   1
  -9  -4  14   38.94    3.99   1
  -9  -3 -17   31.36    5.38   1
  -9  -3 -15   41.99    4.41   1
  -9  -3 -14   18.23    2.22   1
  -9  -3 -13   13.69    1.63   1
  -9  -3 -12   10.18    1.60   1
  -9  -3 -11  124.10    4.23   1
  -9  -3 -10   36.97    1.95   1
  -9  -3  -9  178.49    5.61   1
  -9  -3  -8    7.78    1.17   1
  -9  -3  -7    5.62    0.90   1
  -9  -3  -6   43.03    1.57   1
  -9  -3  -4   41.86    3.75   1
  -9  -3  -3  179.02    7.49   1
  -9  -3  -2   12.39    0.70   1
  -9  -3  -1  214.62    5.86   1
  -9  -3   0   32.83    1.83   1
  -9  -3   1   90.06    2.66   1
  -9  -3   2    4.88    1.11   1
  -9  -3   3  265.04    6.84   1
  -9  -3   4  115.78    3.23   1
  -9  -3   5    6.50    1.38   1
  -9  -3   6   70.22    3.35   1
  -9  -3   7  131.33    3.90   1
  -9  -3   8  148.84    4.88   1
  -9  -3   9    3.61    1.41   1
  -9  -3  10   43.96    2.65   1
  -9  -3  11   70.73    3.53   1
  -9  -3  12   73.62    3.78   1
  -9  -3  13   12.82    2.94   1
  -9  -3  14   11.29    3.90   1
  -9  -3  15    1.30    5.20   1
  -9  -2 -17   29.59    5.00   1
  -9  -2 -16    1.69    3.48   1
  -9  -2 -15   27.46    4.40   1
  -9  -2 -14   67.40    4.27   1
  -9  -2 -13   65.45    3.24   1
  -9  -2 -12   16.40    1.70   1
  -9  -2 -11    1.39    1.30   1
  -9  -2 -10   -1.21    1.10   1
  -9  -2  -9   13.62    1.18   1
  -9  -2  -8  108.78    3.13   1
  -9  -2  -7    6.20    1.29   1
  -9  -2  -6  254.72   12.45   1
  -9  -2  -5   12.89    0.93   1
  -9  -2  -4  204.20    5.43   1
  -9  -2  -3    6.00    0.69   1
  -9  -2  -2  169.52    4.69   1
  -9  -2  -1    7.62    2.10   1
  -9  -2   0    0.71    0.91   1
  -9  -2   1   21.34    1.48   1
  -9  -2   2   95.45    2.93   1
  -9  -2   3   21.81    1.40   1
  -9  -2   4  145.93    4.11   1
  -9  -2   5  231.34    6.39   1
  -9  -2   6   25.70    2.54   1
  -9  -2   7  258.24    8.36   1
  -9  -2   8   10.63    2.09   1
  -9  -2   9    9.49    1.97   1
  -9  -2  10   28.41    2.03   1
  -9  -2  11   28.84    2.26   1
  -9  -2  12  108.58    5.00   1
  -9  -2  13   11.90    2.62   1
  -9  -2  14   46.51    4.36   1
  -9  -2  15    2.79    2.91   1
  -9  -1 -17   18.58    4.40   1
  -9  -1 -16   11.42    4.12   1
  -9  -1 -15    7.62    4.08   1
  -9  -1 -14   39.94    3.03   1
  -9  -1 -13   94.87    3.70   1
  -9  -1 -12    3.69    1.61   1
  -9  -1 -11   16.73    1.64   1
  -9  -1 -10    1.80    1.21   1
  -9  -1  -9   27.14    1.56   1
  -9  -1  -8   11.97    1.31   1
  -9  -1  -7   14.90    1.31   1
  -9  -1  -6  457.10   15.82   1
  -9  -1  -5  165.38    5.14   1
  -9  -1  -4  566.92   16.67   1
  -9  -1  -3   24.70    2.58   1
  -9  -1  -2   47.61    2.07   1
  -9  -1  -1    0.59    1.00   1
  -9  -1   0  126.79    3.15   1
  -9  -1   1  674.96   16.63   1
  -9  -1   2  201.92    7.39   1
  -9  -1   3  273.24    9.26   1
  -9  -1   4   52.13    2.45   1
  -9  -1   5   36.12    2.04   1
  -9  -1   6   31.36    1.90   1
  -9  -1   7   72.08    2.89   1
  -9  -1   8   29.27    2.06   1
  -9  -1   9    5.20    1.92   1
  -9  -1  10    9.80    1.69   1
  -9  -1  11   16.89    2.30   1
  -9  -1  12    0.30    2.11   1
  -9  -1  13   16.40    2.59   1
  -9  -1  14   39.31    4.01   1
  -9  -1  15   45.56    5.13   1
  -9   0 -17   40.96    5.89   1
  -9   0 -16   -3.10    4.29   1
  -9   0 -15   22.94    4.31   1
  -9   0 -14   35.16    2.85   1
  -9   0 -13   16.40    2.11   1
  -9   0 -12    2.69    1.61   1
  -9   0 -11   60.68    2.80   1
  -9   0 -10   76.39    2.80   1
  -9   0  -9   16.89    1.48   1
  -9   0  -8  140.19    3.79   1
  -9   0  -7  141.37    4.28   1
  -9   0  -6   98.80    3.58   1
  -9   0  -5   76.74    2.45   1
  -9   0  -4  433.47   11.24   1
  -9   0  -3   14.52    0.99   1
  -9   0  -2  216.09    5.29   1
  -9   0  -1   56.85    1.96   1
  -9   0   0   43.96    1.86   1
  -9   0   1   44.76    1.74   1
  -9   0   2   51.41    1.86   1
  -9   0   3    2.31    1.09   1
  -9   0   4  533.61   14.32   1
  -9   0   5   90.25    3.42   1
  -9   0   6    2.40    1.39   1
  -9   0   7   31.25    2.35   1
  -9   0   8   47.06    2.47   1
  -9   0   9   22.09    1.97   1
  -9   0  10   21.90    2.53   1
  -9   0  11   73.27    4.62   1
  -9   0  12   41.34    3.86   1
  -9   0  13   59.75    4.64   1
  -9   0  14   -1.59    3.28   1
  -9   0  15    2.10    2.41   1
  -9   1 -16   -4.28    4.10   1
  -9   1 -15    6.40    4.00   1
  -9   1 -14   11.02    3.32   1
  -9   1 -13   47.75    3.04   1
  -9   1 -12    2.50    1.49   1
  -9   1 -11    2.19    1.81   1
  -9   1 -10    5.52    1.60   1
  -9   1  -9   72.42    2.55   1
  -9   1  -8   49.56    2.82   1
  -9   1  -7  118.81    3.92   1
  -9   1  -6  186.60    6.01   1
  -9   1  -5    9.80    1.13   1
  -9   1  -4  505.80   12.59   1
  -9   1  -3   30.47    1.44   1
  -9   1  -2   55.06    2.08   1
  -9   1  -1   16.16    1.29   1
  -9   1   0  162.05    4.07   1
  -9   1   1   35.76    1.91   1
  -9   1   2  108.78    3.55   1
  -9   1   3   38.44    1.86   1
  -9   1   4   75.86    3.31   1
  -9   1   5   99.60    3.39   1
  -9   1   6  320.77   11.82   1
  -9   1   7  167.70    5.96   1
  -9   1   8  287.30    9.15   1
  -9   1   9   64.16    4.01   1
  -9   1  10   -0.20    1.71   1
  -9   1  11   24.90    3.29   1
  -9   1  12   47.33    3.99   1
  -9   1  13   14.90    3.40   1
  -9   1  14    3.61    4.41   1
  -9   1  15    5.20    5.20   1
  -9   2 -16    8.58    5.22   1
  -9   2 -15   15.60    3.87   1
  -9   2 -14    0.90    4.10   1
  -9   2 -13    6.60    2.11   1
  -9   2 -12    0.71    1.61   1
  -9   2 -11  122.10    4.42   1
  -9   2 -10   -2.89    1.60   1
  -9   2  -9    4.41    1.51   1
  -9   2  -8   28.62    1.50   1
  -9   2  -7   49.98    2.12   1
  -9   2  -6   33.18    2.07   1
  -9   2  -5  131.79    3.90   1
  -9   2  -4  607.13   14.78   1
  -9   2  -3  277.56    7.66   1
  -9   2  -2  198.25    4.79   1
  -9   2  -1    4.71    1.22   1
  -9   2   0    7.67    1.27   1
  -9   2   1  338.93    8.47   1
  -9   2   2  132.48    3.91   1
  -9   2   3   -0.10    1.22   1
  -9   2   4  104.45    3.88   1
  -9   2   5   29.38    2.28   1
  -9   2   6    1.99    1.69   1
  -9   2   7   11.90    2.28   1
  -9   2   8  108.16    4.58   1
  -9   2   9    4.00    2.00   1
  -9   2  10    0.20    1.71   1
  -9   2  11   18.58    3.19   1
  -9   2  12   47.75    3.73   1
  -9   2  13    7.18    4.50   1
  -9   2  14   35.88    5.99   1
  -9   2  15   15.92    4.23   1
  -9   2  16   19.89    4.28   1
  -9   3 -15   29.05    5.28   1
  -9   3 -14    2.99    3.08   1
  -9   3 -13   50.27    4.54   1
  -9   3 -12    9.12    2.17   1
  -9   3 -11   30.14    2.20   1
  -9   3 -10   15.21    1.72   1
  -9   3  -9  300.33    9.01   1
  -9   3  -8   39.94    2.02   1
  -9   3  -7    1.80    1.21   1
  -9   3  -6   -0.50    1.21   1
  -9   3  -5   13.47    1.17   1
  -9   3  -4  111.51    3.80   1
  -9   3  -3   12.60    1.21   1
  -9   3  -2    1.69    0.99   1
  -9   3  -1  228.61    5.44   1
  -9   3   0  192.38    4.72   1
  -9   3   1  144.96    4.09   1
  -9   3   2   77.44    2.64   1
  -9   3   3   75.34    4.69   1
  -9   3   4  560.74   16.58   1
  -9   3   5    8.88    2.62   1
  -9   3   6  211.41    7.85   1
  -9   3   7   45.43    2.97   1
  -9   3   8   20.16    2.78   1
  -9   3   9   17.39    2.00   1
  -9   3  10   56.40    3.76   1
  -9   3  11   62.25    3.94   1
  -9   3  12   10.18    3.13   1
  -9   3  13   17.22    5.23   1
  -9   3  14    7.29    3.78   1
  -9   3  15   65.29    7.27   1
  -9   4 -14    5.38    3.11   1
  -9   4 -13    9.00    2.88   1
  -9   4 -12    3.61    2.20   1
  -9   4 -11   45.56    3.11   1
  -9   4 -10   13.10    2.03   1
  -9   4  -9    4.08    2.18   1
  -9   4  -8    1.21    1.61   1
  -9   4  -7    3.39    1.21   1
  -9   4  -6   -2.31    1.92   1
  -9   4  -5   77.09    2.81   1
  -9   4  -4   10.30    1.41   1
  -9   4  -3   72.93    2.73   1
  -9   4  -2   65.45    2.59   1
  -9   4  -1   76.74    2.63   1
  -9   4   0  142.80    4.06   1
  -9   4   1   18.23    1.79   1
  -9   4   2  168.48    5.71   1
  -9   4   3   11.22    1.67   1
  -9   4   4   -1.21    1.91   1
  -9   4   5   33.99    2.57   1
  -9   4   6   -1.69    3.59   1
  -9   4   7    9.49    1.91   1
  -9   4   8   36.84    3.28   1
  -9   4   9   15.37    2.98   1
  -9   4  10   36.72    2.67   1
  -9   4  11    0.10    3.74   1
  -9   4  12   22.09    3.48   1
  -9   4  13   28.94    4.63   1
  -9   4  14    5.02    5.42   1
  -9   4  15   16.81    5.99   1
  -9   5 -14   -0.40    3.69   1
  -9   5 -13    7.90    3.09   1
  -9   5 -12   13.62    3.03   1
  -9   5 -11    3.88    2.29   1
  -9   5 -10    6.81    1.83   1
  -9   5  -9   36.72    2.55   1
  -9   5  -8    8.58    1.58   1
  -9   5  -7   80.64    3.23   1
  -9   5  -6    1.21    1.91   1
  -9   5  -5   27.14    1.56   1
  -9   5  -4   14.67    1.38   1
  -9   5  -3  103.84    3.46   1
  -9   5  -2   50.27    2.27   1
  -9   5  -1   22.28    1.89   1
  -9   5   0    4.20    1.39   1
  -9   5   1   70.22    3.18   1
  -9   5   2    2.99    1.90   1
  -9   5   3   63.84    3.36   1
  -9   5   4   19.62    2.30   1
  -9   5   5   31.81    3.05   1
  -9   5   6   98.60    4.37   1
  -9   5   7    3.50    1.61   1
  -9   5   8   25.00    2.90   1
  -9   5   9   25.10    3.21   1
  -9   5  10  119.03    6.11   1
  -9   5  11   19.54    3.62   1
  -9   5  12   38.19    6.43   1
  -9   5  13   -4.41    3.11   1
  -9   5  14    5.52    5.31   1
  -9   5  15    9.42    4.11   1
  -9   6 -13   -1.00    4.20   1
  -9   6 -12    0.30    2.11   1
  -9   6 -11    1.10    1.91   1
  -9   6 -10    4.00    1.88   1
  -9   6  -9    8.58    1.82   1
  -9   6  -8   96.63    3.93   1
  -9   6  -7   23.91    1.66   1
  -9   6  -6    5.52    2.40   1
  -9   6  -5   41.34    2.19   1
  -9   6  -4    0.00    1.00   1
  -9   6  -3    0.50    1.31   1
  -9   6  -2   19.01    1.22   1
  -9   6  -1   82.99    2.92   1
  -9   6   0   87.98    3.19   1
  -9   6   1    2.79    1.50   1
  -9   6   2    5.20    2.10   1
  -9   6   3   89.68    3.98   1
  -9   6   4    6.50    2.09   1
  -9   6   5   65.77    3.57   1
  -9   6   6   45.56    2.83   1
  -9   6   7    7.02    2.01   1
  -9   6   8    9.67    2.49   1
  -9   6   9    1.30    2.30   1
  -9   6  10    2.10    2.29   1
  -9   6  11   -1.30    2.30   1
  -9   6  12   33.76    5.46   1
  -9   6  13    2.89    4.79   1
  -9   6  14    7.40    4.19   1
  -9   6  15    1.80    5.68   1
  -9   7 -12   17.39    3.67   1
  -9   7 -11    3.50    4.19   1
  -9   7 -10   21.34    2.59   1
  -9   7  -9   13.03    2.24   1
  -9   7  -8   10.37    1.87   1
  -9   7  -7    5.29    1.61   1
  -9   7  -6  204.78    9.16   1
  -9   7  -5   20.70    1.46   1
  -9   7  -4   -0.50    1.31   1
  -9   7  -3   56.10    2.55   1
  -9   7  -2   12.18    1.68   1
  -9   7  -1   13.10    1.52   1
  -9   7   0    2.10    1.91   1
  -9   7   1   -2.50    1.39   1
  -9   7   2   38.81    2.87   1
  -9   7   3   31.25    2.80   1
  -9   7   4   13.62    2.58   1
  -9   7   5    4.00    2.48   1
  -9   7   6   38.07    3.33   1
  -9   7   7   99.20    4.98   1
  -9   7   8    2.50    2.91   1
  -9   7   9   12.11    2.51   1
  -9   7  10   11.49    2.58   1
  -9   7  11   16.40    3.81   1
  -9   7  12   19.89    4.91   1
  -9   7  13   16.08    5.77   1
  -9   7  14    0.40    5.18   1
  -9   7  15    8.41    4.00   1
  -9   8 -11    1.39    5.38   1
  -9   8  -9   -0.71    2.50   1
  -9   8  -8   31.58    3.37   1
  -9   8  -7    5.38    3.02   1
  -9   8  -6   -0.71    2.60   1
  -9   8  -5    6.40    1.11   1
  -9   8  -4   38.44    1.98   1
  -9   8  -3    7.02    1.59   1
  -9   8  -2    2.31    1.49   1
  -9   8  -1   32.15    2.15   1
  -9   8   0    7.08    2.50   1
  -9   8   1   64.48    3.85   1
  -9   8   2    7.02    2.12   1
  -9   8   3   16.97    2.72   1
  -9   8   4    2.89    2.21   1
  -9   8   5   56.70    3.77   1
  -9   8   6    6.60    2.98   1
  -9   8   7   13.32    2.99   1
  -9   8   8   11.02    2.52   1
  -9   8   9    1.69    2.11   1
  -9   8  10   20.52    4.98   1
  -9   8  11   78.85    8.52   1
  -9   8  12   31.36    9.41   1
  -9   8  13   26.73    5.17   1
  -9   8  14   -0.40    5.68   1
  -9   9 -10    7.78    3.57   1
  -9   9  -9    1.00    3.50   1
  -9   9  -8   -0.59    3.48   1
  -9   9  -7   11.42    2.97   1
  -9   9  -6  119.25    6.55   1
  -9   9  -5    0.50    1.11   1
  -9   9  -4   14.82    1.77   1
  -9   9  -3    2.40    1.30   1
  -9   9  -2   33.76    2.32   1
  -9   9  -1   -2.99    2.80   1
  -9   9   0    0.90    1.90   1
  -9   9   1   -1.30    2.01   1
  -9   9   2   12.32    2.32   1
  -9   9   3    1.39    2.78   1
  -9   9   4  151.78    7.15   1
  -9   9   5   -1.10    2.60   1
  -9   9   6   -0.71    2.40   1
  -9   9   7   41.09    4.10   1
  -9   9   8    0.20    2.31   1
  -9   9   9   45.02    6.04   1
  -9   9  10    8.01    6.11   1
  -9   9  11   -6.50    7.90   1
  -9   9  12    5.29    5.01   1
  -9   9  13   21.72    5.59   1
  -9  10  -9    3.10    4.08   1
  -9  10  -8    3.50    5.09   1
  -9  10  -7    2.40    4.09   1
  -9  10  -6   -5.38    4.87   1
  -9  10  -5    5.71    2.92   1
  -9  10  -4   15.60    1.90   1
  -9  10  -3   14.82    1.77   1
  -9  10  -2    0.71    1.81   1
  -9  10  -1   -3.80    2.50   1
  -9  10   0    2.79    3.31   1
  -9  10   1   35.88    3.83   1
  -9  10   2   36.36    3.62   1
  -9  10   3   27.77    4.01   1
  -9  10   4   23.52    3.20   1
  -9  10   5   74.65    5.53   1
  -9  10   6    0.59    3.28   1
  -9  10   7   15.68    3.17   1
  -9  10   8   14.06    5.70   1
  -9  10   9    1.80    5.68   1
  -9  10  10  -13.18    5.81   1
  -9  10  11   24.90    4.89   1
  -9  10  12   -3.80    3.78   1
  -9  10  13   11.63    4.91   1
  -9  11  -7    5.29    5.61   1
  -9  11  -6   54.17    6.04   1
  -9  11  -5    7.51    3.51   1
  -9  11  -4    2.31    3.40   1
  -9  11  -3   21.44    2.96   1
  -9  11  -2   83.17    4.56   1
  -9  11  -1   -3.10    2.71   1
  -9  11   0   -0.20    3.32   1
  -9  11   1    6.30    3.41   1
  -9  11   2   18.58    3.28   1
  -9  11   3  147.14    8.01   1
  -9  11   4    3.31    2.62   1
  -9  11   5   16.40    4.62   1
  -9  11   6   13.47    3.23   1
  -9  11   7    3.61    5.32   1
  -9  11   8    0.90    3.40   1
  -9  11   9    5.90    6.80   1
  -9  11  10   18.92    6.44   1
  -9  11  11   -0.40    5.38   1
  -9  11  12   -1.39    5.69   1
  -9  12  -5   14.59    5.27   1
  -9  12  -4   53.88    6.75   1
  -9  12  -3    8.18    4.92   1
  -9  12  -2   13.32    3.72   1
  -9  12  -1   -0.71    3.51   1
  -9  12   0    2.50    4.20   1
  -9  12   1    9.67    4.48   1
  -9  12   2   -0.90    5.02   1
  -9  12   3    1.69    3.80   1
  -9  12   4   -8.12    4.73   1
  -9  12   5    3.69    2.88   1
  -9  12   6    3.31    6.92   1
  -9  12   7    5.11    4.02   1
  -9  12   8   18.66    5.79   1
  -9  12   9    6.92    5.79   1
  -9  12  10   26.63    5.47   1
  -9  13  -3   19.10    6.38   1
  -9  13  -2   22.94    6.13   1
  -9  13  -1    5.71    4.40   1
  -9  13   0   23.43    4.55   1
  -9  13   1   -7.08    5.21   1
  -9  13   2   -3.20    3.51   1
  -9  13   3   -2.50    4.11   1
  -9  13   4    8.41    5.80   1
  -9  13   5   -0.79    3.58   1
  -9  13   6   16.89    6.08   1
  -9  13   7   -3.20    5.69   1
  -9  13   8    3.69    4.19   1
  -9  13   9   -1.69    6.19   1
  -9  14   0   -2.10    3.80   1
  -9  14   1   12.39    6.12   1
  -9  14   2    8.58    4.92   1
  -9  14   3    0.90    5.61   1
  -9  14   4   13.47    4.99   1
  -9  14   6    8.53    4.73   1
  -8 -18 -10   -2.59    3.09   1
  -8 -18  -9   19.62    4.34   1
  -8 -18  -8   23.91    3.91   1
  -8 -18  -7   32.38    4.44   1
  -8 -18  -6   20.07    2.96   1
  -8 -18  -5    0.59    3.57   1
  -8 -18  -4    2.69    3.90   1
  -8 -18  -3    6.92    3.10   1
  -8 -18  -2   -2.69    4.00   1
  -8 -18  -1   10.30    3.02   1
  -8 -17 -12    8.18    3.60   1
  -8 -17 -11   38.44    5.46   1
  -8 -17 -10    4.20    3.32   1
  -8 -17  -9   18.58    3.88   1
  -8 -17  -8    0.00    1.00   1
  -8 -17  -7   12.89    3.30   1
  -8 -17  -6    5.71    3.68   1
  -8 -17  -5   20.61    3.90   1
  -8 -17  -4    4.00    2.28   1
  -8 -17  -3    0.79    3.28   1
  -8 -17  -2   35.16    4.51   1
  -8 -17  -1   -0.10    2.43   1
  -8 -17   1   11.90    4.00   1
  -8 -17   2   46.79    6.84   1
  -8 -16 -13   49.28    5.19   1
  -8 -16 -12   12.60    3.98   1
  -8 -16 -11   -0.71    3.41   1
  -8 -16 -10   -0.30    2.92   1
  -8 -16  -9   74.82    6.23   1
  -8 -16  -8    2.69    2.69   1
  -8 -16  -7   17.98    3.56   1
  -8 -16  -6   -0.30    3.21   1
  -8 -16  -5    6.30    2.91   1
  -8 -16  -4   37.33    4.52   1
  -8 -16  -3   48.02    5.13   1
  -8 -16  -2   -1.49    3.20   1
  -8 -16  -1   32.72    3.89   1
  -8 -16   1    1.39    2.60   1
  -8 -16   2   21.44    4.63   1
  -8 -16   3    5.11    2.89   1
  -8 -16   4   15.76    5.08   1
  -8 -15 -15   14.90    3.94   1
  -8 -15 -14    9.30    3.17   1
  -8 -15 -13   -0.20    3.01   1
  -8 -15 -12   -3.69    2.69   1
  -8 -15 -11   13.03    3.10   1
  -8 -15 -10   -0.71    2.50   1
  -8 -15  -9   24.01    3.04   1
  -8 -15  -8    0.30    2.71   1
  -8 -15  -7   38.69    2.61   1
  -8 -15  -6   85.01    4.06   1
  -8 -15  -5  219.34    8.89   1
  -8 -15  -4    5.52    2.21   1
  -8 -15  -3   -0.90    1.90   1
  -8 -15  -2   18.58    2.33   1
  -8 -15  -1   61.31    5.64   1
  -8 -15   0   18.58    4.14   1
  -8 -15   1   12.39    2.82   1
  -8 -15   2   40.20    4.31   1
  -8 -15   3   -1.21    3.41   1
  -8 -15   4   13.76    4.82   1
  -8 -15   5    6.92    3.68   1
  -8 -15   6    1.59    3.88   1
  -8 -14 -16   12.11    3.83   1
  -8 -14 -15   11.97    3.81   1
  -8 -14 -14    3.80    3.71   1
  -8 -14 -13   12.39    3.31   1
  -8 -14 -12   27.25    3.76   1
  -8 -14 -11   -1.30    2.51   1
  -8 -14 -10   18.66    2.16   1
  -8 -14  -9  160.78    7.35   1
  -8 -14  -8   15.37    1.88   1
  -8 -14  -7   61.47    3.14   1
  -8 -14  -6   -0.20    1.51   1
  -8 -14  -5   10.89    1.78   1
  -8 -14  -4    0.40    2.49   1
  -8 -14  -3  207.07    8.92   1
  -8 -14  -2    6.71    1.92   1
  -8 -14  -1    6.10    3.31   1
  -8 -14   0    2.19    2.10   1
  -8 -14   1   43.16    4.99   1
  -8 -14   2    7.08    2.71   1
  -8 -14   3   82.99    4.74   1
  -8 -14   4    4.49    2.42   1
  -8 -14   5   -3.50    4.11   1
  -8 -14   6   23.62    4.76   1
  -8 -14   7   22.28    4.81   1
  -8 -13 -16    7.90    3.37   1
  -8 -13 -15    2.59    3.09   1
  -8 -13 -14  102.01    8.28   1
  -8 -13 -13   24.90    3.49   1
  -8 -13 -12    9.61    2.79   1
  -8 -13 -11   -0.10    1.41   1
  -8 -13 -10  157.50    6.02   1
  -8 -13  -9    3.69    1.61   1
  -8 -13  -8   12.67    1.78   1
  -8 -13  -7   66.10    2.93   1
  -8 -13  -6    2.50    1.39   1
  -8 -13  -5    1.69    1.40   1
  -8 -13  -4  182.79    6.49   1
  -8 -13  -3   27.46    2.10   1
  -8 -13  -2   13.18    1.67   1
  -8 -13  -1  116.42    8.20   1
  -8 -13   0    0.71    2.60   1
  -8 -13   1   19.71    2.31   1
  -8 -13   2    0.40    1.50   1
  -8 -13   3    9.30    2.32   1
  -8 -13   4   12.11    2.71   1
  -8 -13   5   57.76    4.10   1
  -8 -13   6    2.59    2.90   1
  -8 -13   7    5.20    4.38   1
  -8 -13   8   14.36    5.46   1
  -8 -12 -17   16.97    4.12   1
  -8 -12 -16   28.62    4.49   1
  -8 -12 -15   10.30    3.21   1
  -8 -12 -14   57.76    4.86   1
  -8 -12 -13    0.79    2.39   1
  -8 -12 -12   31.14    2.46   1
  -8 -12 -11    7.90    1.57   1
  -8 -12 -10   36.12    2.28   1
  -8 -12  -9    7.08    1.49   1
  -8 -12  -8   99.40    3.99   1
  -8 -12  -7    4.00    1.28   1
  -8 -12  -6    2.99    1.21   1
  -8 -12  -5   39.44    1.88   1
  -8 -12  -4    3.61    1.52   1
  -8 -12  -3  115.13    4.72   1
  -8 -12  -2   17.81    1.60   1
  -8 -12  -1   73.79    4.64   1
  -8 -12   0    2.10    1.60   1
  -8 -12   1   63.68    3.67   1
  -8 -12   2    3.10    1.51   1
  -8 -12   3   31.81    2.82   1
  -8 -12   4    1.21    1.91   1
  -8 -12   5   39.94    5.94   1
  -8 -12   6   21.62    2.60   1
  -8 -12   7   82.08    4.35   1
  -8 -12   8    2.99    2.39   1
  -8 -12   9   15.92    2.39   1
  -8 -12  10   21.34    3.79   1
  -8 -11 -17   28.52    4.27   1
  -8 -11 -16    7.62    3.31   1
  -8 -11 -15    2.19    2.60   1
  -8 -11 -14  100.00    6.20   1
  -8 -11 -13    1.49    1.68   1
  -8 -11 -12    0.30    1.41   1
  -8 -11 -11    1.21    1.30   1
  -8 -11 -10   97.02    4.14   1
  -8 -11  -9  118.37    4.35   1
  -8 -11  -8   39.44    2.64   1
  -8 -11  -7   10.37    1.22   1
  -8 -11  -6    3.31    1.02   1
  -8 -11  -5   11.09    1.33   1
  -8 -11  -4  253.76    8.60   1
  -8 -11  -3    5.11    0.99   1
  -8 -11  -2   61.15    3.75   1
  -8 -11  -1   67.90    3.96   1
  -8 -11   0   28.20    3.08   1
  -8 -11   1    6.00    1.72   1
  -8 -11   2    0.30    1.61   1
  -8 -11   3   36.84    2.79   1
  -8 -11   4   56.25    2.70   1
  -8 -11   5   11.02    2.72   1
  -8 -11   6   -1.10    1.41   1
  -8 -11   7    1.49    1.78   1
  -8 -11   8    7.78    1.90   1
  -8 -11   9    3.20    2.29   1
  -8 -11  10   -2.40    2.60   1
  -8 -11  11   17.39    3.42   1
  -8 -10 -18   -5.52    3.62   1
  -8 -10 -17   14.90    4.01   1
  -8 -10 -16   15.37    4.08   1
  -8 -10 -15   45.43    4.45   1
  -8 -10 -14   -0.79    1.58   1
  -8 -10 -13    0.90    1.31   1
  -8 -10 -12    2.10    1.31   1
  -8 -10 -11   -0.20    1.01   1
  -8 -10 -10  122.99    4.66   1
  -8 -10  -9   67.57    4.11   1
  -8 -10  -8    3.88    1.50   1
  -8 -10  -7   -1.10    1.20   1
  -8 -10  -6  122.54    6.42   1
  -8 -10  -5  320.41   16.11   1
  -8 -10  -4   -1.99    1.30   1
  -8 -10  -2   28.94    1.72   1
  -8 -10  -1   14.36    1.29   1
  -8 -10   0   45.02    2.15   1
  -8 -10   1   61.94    2.68   1
  -8 -10   2   84.27    3.12   1
  -8 -10   3   31.58    2.59   1
  -8 -10   4    1.39    1.39   1
  -8 -10   5   -0.71    1.31   1
  -8 -10   6    5.20    1.50   1
  -8 -10   7   32.95    2.30   1
  -8 -10   8   12.89    2.01   1
  -8 -10   9   67.57    4.11   1
  -8 -10  10    5.11    3.30   1
  -8 -10  11    1.21    2.42   1
  -8  -9 -18   11.42    4.33   1
  -8  -9 -17   49.84    5.08   1
  -8  -9 -16    7.08    2.98   1
  -8  -9 -15    3.20    2.79   1
  -8  -9 -14   22.37    2.08   1
  -8  -9 -13   44.22    2.39   1
  -8  -9 -12    0.71    1.41   1
  -8  -9 -11   67.24    2.62   1
  -8  -9 -10   28.52    1.60   1
  -8  -9  -9    9.30    1.59   1
  -8  -9  -8   46.38    3.00   1
  -8  -9  -7    1.21    0.70   1
  -8  -9  -6   59.60    2.16   1
  -8  -9  -5    2.40    0.71   1
  -8  -9  -4   57.15    2.27   1
  -8  -9  -2  456.25   21.36   1
  -8  -9  -1    9.00    1.20   1
  -8  -9   0   20.34    1.53   1
  -8  -9   1   17.89    1.44   1
  -8  -9   2  105.88    3.50   1
  -8  -9   3   34.57    1.88   1
  -8  -9   4    1.99    1.30   1
  -8  -9   5    6.92    1.58   1
  -8  -9   6    0.50    1.60   1
  -8  -9   7    0.40    1.99   1
  -8  -9   8   26.11    2.25   1
  -8  -9   9   37.45    2.82   1
  -8  -9  10   -0.10    1.82   1
  -8  -9  11   47.06    4.53   1
  -8  -9  12    3.10    3.59   1
  -8  -8 -18    5.71    3.59   1
  -8  -8 -17   14.90    3.47   1
  -8  -8 -16    8.12    3.19   1
  -8  -8 -15   37.45    2.94   1
  -8  -8 -14    9.99    2.28   1
  -8  -8 -13    1.80    1.50   1
  -8  -8 -12   50.98    2.14   1
  -8  -8 -11    3.69    1.00   1
  -8  -8 -10  189.06    6.33   1
  -8  -8  -9  311.52   11.65   1
  -8  -8  -8   15.92    1.44   1
  -8  -8  -7    5.71    0.91   1
  -8  -8  -6   56.25    2.85   1
  -8  -8  -5   42.38    2.60   1
  -8  -8  -4   72.76    3.75   1
  -8  -8  -3    4.00    0.60   1
  -8  -8  -2  309.06   13.36   1
  -8  -8   0  263.09    6.81   1
  -8  -8   1   -1.30    1.30   1
  -8  -8   2   67.24    2.95   1
  -8  -8   3    4.28    1.20   1
  -8  -8   4   78.85    2.84   1
  -8  -8   5   -2.79    1.20   1
  -8  -8   6   85.56    3.14   1
  -8  -8   7   28.84    2.26   1
  -8  -8   8   12.82    2.08   1
  -8  -8   9  181.98    6.74   1
  -8  -8  10    4.28    1.90   1
  -8  -8  11    1.00    2.70   1
  -8  -8  12   15.60    3.63   1
  -8  -8  13   23.52    3.69   1
  -8  -7 -18    3.39    3.28   1
  -8  -7 -17   42.38    5.08   1
  -8  -7 -16   25.10    3.71   1
  -8  -7 -15    8.70    3.01   1
  -8  -7 -14   19.98    1.97   1
  -8  -7 -13   31.70    2.48   1
  -8  -7 -12    5.20    1.19   1
  -8  -7 -11   90.63    4.57   1
  -8  -7 -10  237.47    8.32   1
  -8  -7  -9   45.29    2.42   1
  -8  -7  -8  214.33    7.03   1
  -8  -7  -7   52.56    1.74   1
  -8  -7  -3   43.96    1.72   1
  -8  -7  -2  605.16   20.66   1
  -8  -7  -1    7.67    1.61   1
  -8  -7   0    4.49    0.89   1
  -8  -7   1    6.50    1.02   1
  -8  -7   2  331.97   10.57   1
  -8  -7   3   45.56    2.03   1
  -8  -7   4    6.60    1.80   1
  -8  -7   5    2.99    1.49   1
  -8  -7   6   20.61    1.54   1
  -8  -7   7   23.81    1.85   1
  -8  -7   8   69.72    3.67   1
  -8  -7   9   13.03    2.09   1
  -8  -7  10    6.20    2.39   1
  -8  -7  11   41.86    3.11   1
  -8  -7  12   30.36    3.31   1
  -8  -7  13    3.61    2.62   1
  -8  -7  14    8.18    3.20   1
  -8  -6 -18    3.50    2.81   1
  -8  -6 -17   -0.50    2.71   1
  -8  -6 -16   -0.50    2.00   1
  -8  -6 -15   87.05    5.78   1
  -8  -6 -14   14.90    3.32   1
  -8  -6 -13   35.05    2.84   1
  -8  -6 -12   17.47    2.09   1
  -8  -6 -11   35.05    2.37   1
  -8  -6 -10   -0.40    1.10   1
  -8  -6  -9  171.61    5.76   1
  -8  -6  -8   81.36    2.53   1
  -8  -6  -7   19.01    0.70   1
  -8  -6  -2  518.47   14.12   1
  -8  -6  -1   77.62    2.47   1
  -8  -6   0  443.52   16.43   1
  -8  -6   1    2.19    1.30   1
  -8  -6   2    1.99    0.99   1
  -8  -6   3   25.60    1.42   1
  -8  -6   4  312.23    8.48   1
  -8  -6   5    1.49    1.49   1
  -8  -6   6    2.19    1.30   1
  -8  -6   7   37.45    1.96   1
  -8  -6   8   -0.20    1.41   1
  -8  -6   9   64.80    3.06   1
  -8  -6  10   42.90    2.88   1
  -8  -6  11   -1.39    2.01   1
  -8  -6  12   17.81    2.62   1
  -8  -6  13   50.98    4.43   1
  -8  -6  14    4.49    3.10   1
  -8  -5 -18   26.01    4.69   1
  -8  -5 -17   12.11    3.69   1
  -8  -5 -16    8.58    2.23   1
  -8  -5 -15   -0.30    1.61   1
  -8  -5 -14   16.97    3.38   1
  -8  -5 -13    4.20    1.39   1
  -8  -5 -12    0.90    1.20   1
  -8  -5 -11  172.92    5.26   1
  -8  -5 -10   44.22    1.86   1
  -8  -5  -9   13.69    1.78   1
  -8  -5  -8   39.94    1.39   1
  -8  -5  -7  155.75    3.99   1
  -8  -5  -3    3.88    2.21   1
  -8  -5  -2  125.66    6.95   1
  -8  -5  -1    0.30    0.51   1
  -8  -5   0  197.12    7.02   1
  -8  -5   1   -0.40    0.79   1
  -8  -5   2  407.23   10.09   1
  -8  -5   3    3.39    0.99   1
  -8  -5   4    2.79    1.20   1
  -8  -5   5   -1.00    1.40   1
  -8  -5   6  427.25   11.16   1
  -8  -5   7    8.41    1.51   1
  -8  -5   8    4.20    1.80   1
  -8  -5   9    4.20    1.60   1
  -8  -5  10   10.11    2.23   1
  -8  -5  11   -1.10    1.81   1
  -8  -5  12    3.88    2.80   1
  -8  -5  13    8.29    2.82   1
  -8  -5  14   26.83    3.83   1
  -8  -5  15   13.32    3.87   1
  -8  -4 -18   32.95    5.51   1
  -8  -4 -17    0.71    4.12   1
  -8  -4 -16   36.84    4.86   1
  -8  -4 -15  109.20    5.43   1
  -8  -4 -14    3.88    1.89   1
  -8  -4 -13   25.50    2.02   1
  -8  -4 -12   11.29    1.48   1
  -8  -4 -11   82.08    2.90   1
  -8  -4 -10   16.08    1.12   1
  -8  -4  -9    8.58    1.29   1
  -8  -4  -8    0.90    1.01   1
  -8  -4  -7   60.37    2.18   1
  -8  -4  -3  327.25   13.75   1
  -8  -4  -2    3.88    3.31   1
  -8  -4  -1    7.90    0.90   1
  -8  -4   0  132.25    4.83   1
  -8  -4   1   32.15    1.25   1
  -8  -4   2   24.11    1.28   1
  -8  -4   3    1.00    1.00   1
  -8  -4   4  111.30    4.85   1
  -8  -4   5    2.59    1.38   1
  -8  -4   6   44.36    2.53   1
  -8  -4   7   68.72    2.32   1
  -8  -4   8   18.40    1.80   1
  -8  -4   9   77.26    3.16   1
  -8  -4  10    1.69    1.79   1
  -8  -4  11   16.56    2.52   1
  -8  -4  12    8.12    2.28   1
  -8  -4  13   45.29    3.63   1
  -8  -4  14   16.00    3.44   1
  -8  -4  15   -0.71    2.91   1
  -8  -3 -18    6.00    3.18   1
  -8  -3 -17   11.09    4.40   1
  -8  -3 -16    0.20    3.62   1
  -8  -3 -15    0.10    2.23   1
  -8  -3 -14   48.86    3.36   1
  -8  -3 -13    0.30    1.31   1
  -8  -3 -12   72.08    3.23   1
  -8  -3 -11    2.89    1.19   1
  -8  -3 -10   27.88    1.48   1
  -8  -3  -9  245.86    6.27   1
  -8  -3  -8  181.17    5.11   1
  -8  -3  -7  416.98   13.07   1
  -8  -3  -6   24.01    0.98   1
  -8  -3  -5  581.29   26.52   1
  -8  -3  -4    3.31    1.49   1
  -8  -3  -3  187.42    8.76   1
  -8  -3  -2  105.06    3.69   1
  -8  -3  -1   23.14    0.87   1
  -8  -3   0   15.37    1.18   1
  -8  -3   1   89.49    2.65   1
  -8  -3   2   38.19    1.73   1
  -8  -3   3  315.06    8.16   1
  -8  -3   4   36.97    1.82   1
  -8  -3   5  411.68   10.96   1
  -8  -3   6   84.27    3.49   1
  -8  -3   7   -1.21    1.30   1
  -8  -3   8  317.20    9.26   1
  -8  -3   9   -0.40    1.20   1
  -8  -3  10   59.44    2.78   1
  -8  -3  11   39.94    2.65   1
  -8  -3  12    4.20    2.09   1
  -8  -3  13    5.38    2.78   1
  -8  -3  14    8.29    2.82   1
  -8  -3  15   36.60    4.36   1
  -8  -2 -18   93.32    7.53   1
  -8  -2 -17    4.28    4.10   1
  -8  -2 -16   74.48    6.90   1
  -8  -2 -15    7.67    2.27   1
  -8  -2 -14   13.76    2.30   1
  -8  -2 -13    1.99    1.30   1
  -8  -2 -12  162.31    5.10   1
  -8  -2 -11  117.07    3.68   1
  -8  -2 -10    4.88    1.11   1
  -8  -2  -9   56.40    1.95   1
  -8  -2  -8  261.79    6.80   1
  -8  -2  -7    5.38    0.88   1
  -8  -2  -6    1.49    0.81   1
  -8  -2  -5  119.46    5.90   1
  -8  -2  -4   25.40    0.91   1
  -8  -2  -3  225.30    6.00   1
  -8  -2  -2    2.79    0.70   1
  -8  -2  -1   11.49    2.31   1
  -8  -2   0  247.75    9.13   1
  -8  -2   1    8.70    0.89   1
  -8  -2   2   37.82    1.35   1
  -8  -2   3  114.06    3.63   1
  -8  -2   4   -0.30    1.21   1
  -8  -2   5   16.56    1.79   1
  -8  -2   6  200.79    5.95   1
  -8  -2   7  199.09    5.36   1
  -8  -2   8   -0.79    1.58   1
  -8  -2   9   33.06    2.30   1
  -8  -2  10    1.59    1.49   1
  -8  -2  11   18.06    2.04   1
  -8  -2  12    3.88    1.81   1
  -8  -2  13    3.80    2.30   1
  -8  -2  14    2.50    3.19   1
  -8  -2  15   -4.41    2.69   1
  -8  -2  16   38.69    6.34   1
  -8  -1 -18    6.81    4.59   1
  -8  -1 -17    1.49    3.98   1
  -8  -1 -16   52.85    5.82   1
  -8  -1 -15    3.31    1.89   1
  -8  -1 -14  144.96    6.74   1
  -8  -1 -13    5.90    1.80   1
  -8  -1 -12   23.33    1.84   1
  -8  -1 -11    4.58    1.41   1
  -8  -1 -10   12.67    1.42   1
  -8  -1  -9  205.92    5.74   1
  -8  -1  -8   23.23    1.45   1
  -8  -1  -7   28.41    1.39   1
  -8  -1  -6   43.56    1.85   1
  -8  -1  -5  278.56    9.35   1
  -8  -1  -4  234.40    7.35   1
  -8  -1  -3    5.38    0.79   1
  -8  -1  -2    1.21    0.90   1
  -8  -1  -1  473.50   15.23   1
  -8  -1   0   86.86    2.61   1
  -8  -1   1  253.45    6.37   1
  -8  -1   2    9.30    1.10   1
  -8  -1   3  271.26    6.92   1
  -8  -1   4   16.00    2.08   1
  -8  -1   5  235.62    6.14   1
  -8  -1   6   54.91    2.52   1
  -8  -1   7    7.78    1.51   1
  -8  -1   8  104.86    3.89   1
  -8  -1   9    6.00    1.42   1
  -8  -1  10    9.49    1.60   1
  -8  -1  11    5.02    1.70   1
  -8  -1  12   47.47    3.31   1
  -8  -1  13   59.14    3.38   1
  -8  -1  14   57.76    4.71   1
  -8  -1  15   -1.80    3.19   1
  -8  -1  16   -3.80    5.30   1
  -8   0 -17   -2.40    4.40   1
  -8   0 -16   19.01    4.62   1
  -8   0 -15    6.20    2.49   1
  -8   0 -14   11.09    2.20   1
  -8   0 -13    3.88    1.62   1
  -8   0 -12  206.78    7.19   1
  -8   0 -11   95.06    3.51   1
  -8   0 -10   10.18    1.47   1
  -8   0  -9    1.10    1.30   1
  -8   0  -8  369.02    9.60   1
  -8   0  -7    5.52    0.99   1
  -8   0  -6   95.26    2.73   1
  -8   0  -5  205.64    4.88   1
  -8   0  -4    2.19    0.71   1
  -8   0  -3  717.17   18.21   1
  -8   0  -2   31.25    1.23   1
  -8   0  -1   25.30    1.11   1
  -8   0   0    8.18    0.92   1
  -8   0   1  249.96    6.32   1
  -8   0   2   29.92    1.42   1
  -8   0   3  123.43    3.78   1
  -8   0   4   74.30    2.76   1
  -8   0   5  113.64    3.62   1
  -8   0   6    2.79    1.30   1
  -8   0   7  263.74    8.77   1
  -8   0   8    1.21    1.61   1
  -8   0   9  235.32    7.67   1
  -8   0  10   -1.10    1.81   1
  -8   0  11    1.90    2.29   1
  -8   0  12   -2.69    2.89   1
  -8   0  13   35.28    4.40   1
  -8   0  14   17.89    4.99   1
  -8   0  15    3.39    5.08   1
  -8   1 -17   33.06    4.72   1
  -8   1 -16   14.36    4.09   1
  -8   1 -15   -1.10    2.31   1
  -8   1 -14   80.64    4.49   1
  -8   1 -13    6.81    1.62   1
  -8   1 -12    5.90    1.60   1
  -8   1 -11   66.91    2.94   1
  -8   1 -10    7.29    1.30   1
  -8   1  -9   11.22    1.47   1
  -8   1  -8   43.30    2.11   1
  -8   1  -7   31.25    1.79   1
  -8   1  -6  249.32    6.00   1
  -8   1  -5  146.89    4.12   1
  -8   1  -4  599.76   14.20   1
  -8   1  -3    0.90    0.70   1
  -8   1  -2   36.84    1.46   1
  -8   1  -1   32.60    1.37   1
  -8   1   0    4.71    0.91   1
  -8   1   1   21.62    1.30   1
  -8   1   2  305.20    7.34   1
  -8   1   3   27.14    1.46   1
  -8   1   4   56.25    2.40   1
  -8   1   5  141.61    4.76   1
  -8   1   6   46.24    2.45   1
  -8   1   7  273.57    9.92   1
  -8   1   8   29.38    2.38   1
  -8   1   9  278.89   10.35   1
  -8   1  10    2.79    2.10   1
  -8   1  11   14.06    2.62   1
  -8   1  12   27.98    4.02   1
  -8   1  13    5.38    3.29   1
  -8   1  14    1.00    3.60   1
  -8   1  15    9.49    3.82   1
  -8   1  16   12.60    4.40   1
  -8   2 -16   -2.19    4.20   1
  -8   2 -15   63.68    5.75   1
  -8   2 -14    1.21    1.91   1
  -8   2 -13   11.90    2.28   1
  -8   2 -12   68.23    4.30   1
  -8   2 -11    7.18    1.82   1
  -8   2 -10   58.98    2.61   1
  -8   2  -9    1.59    1.39   1
  -8   2  -8   35.88    2.04   1
  -8   2  -7    8.82    1.43   1
  -8   2  -6   97.42    2.96   1
  -8   2  -5    3.39    0.99   1
  -8   2  -4   22.18    1.41   1
  -8   2  -3   25.40    1.41   1
  -8   2  -2  299.29    7.27   1
  -8   2  -1   60.53    2.02   1
  -8   2   0  587.58   13.57   1
  -8   2   1  283.59    6.74   1
  -8   2   2  141.85    3.81   1
  -8   2   3  306.95    9.11   1
  -8   2   4  145.20    4.82   1
  -8   2   5    6.60    1.39   1
  -8   2   6    2.19    1.60   1
  -8   2   7   42.90    2.75   1
  -8   2   8  123.21    4.88   1
  -8   2   9   40.83    3.19   1
  -8   2  10   42.90    3.54   1
  -8   2  11   74.65    3.63   1
  -8   2  12    4.28    3.39   1
  -8   2  13   52.27    4.34   1
  -8   2  14   18.49    5.07   1
  -8   2  16   31.02    6.35   1
  -8   3 -16    2.59    3.90   1
  -8   3 -15   12.60    4.61   1
  -8   3 -14   37.95    3.94   1
  -8   3 -13   58.68    3.37   1
  -8   3 -12   27.25    2.19   1
  -8   3 -11   13.03    2.02   1
  -8   3 -10  102.82    3.65   1
  -8   3  -9   26.01    2.04   1
  -8   3  -8   60.06    2.33   1
  -8   3  -7    5.11    1.08   1
  -8   3  -6   40.96    1.92   1
  -8   3  -5  113.64    2.98   1
  -8   3  -4  489.29   11.06   1
  -8   3  -3   17.64    1.18   1
  -8   3  -2   10.30    1.22   1
  -8   3  -1  302.76    6.96   1
  -8   3   0   38.56    1.61   1
  -8   3   1   93.32    3.09   1
  -8   3   2   60.68    2.49   1
  -8   3   3  245.24    7.83   1
  -8   3   4   41.86    2.20   1
  -8   3   5   46.92    2.60   1
  -8   3   6    5.11    1.58   1
  -8   3   7   14.98    1.93   1
  -8   3   8  292.07    9.23   1
  -8   3   9  200.79    7.09   1
  -8   3  10   41.34    3.60   1
  -8   3  11  195.16    8.66   1
  -8   3  12   12.89    3.52   1
  -8   3  13    1.39    2.01   1
  -8   3  14   -4.58    5.09   1
  -8   3  15    9.42    6.02   1
  -8   4 -15   19.54    5.48   1
  -8   4 -14    0.59    3.08   1
  -8   4 -13    6.60    2.98   1
  -8   4 -12   43.56    2.90   1
  -8   4 -11   15.68    1.90   1
  -8   4 -10   26.01    1.84   1
  -8   4  -9  157.25    5.27   1
  -8   4  -8  109.62    3.77   1
  -8   4  -7   64.32    2.73   1
  -8   4  -6  170.56    5.22   1
  -8   4  -5   -0.59    1.09   1
  -8   4  -4    9.18    1.21   1
  -8   4  -3   22.09    1.41   1
  -8   4  -2   24.50    1.29   1
  -8   4  -1   39.94    1.64   1
  -8   4   0  154.26    3.97   1
  -8   4   1   -1.30    1.30   1
  -8   4   2   15.60    1.42   1
  -8   4   3   13.62    1.77   1
  -8   4   4  364.05   10.68   1
  -8   4   5   34.46    2.35   1
  -8   4   6  105.47    3.90   1
  -8   4   7  118.59    5.23   1
  -8   4   8   18.40    2.32   1
  -8   4   9    2.40    1.80   1
  -8   4  10    0.90    1.90   1
  -8   4  11   90.82    4.38   1
  -8   4  12    8.29    3.40   1
  -8   4  13   16.48    4.71   1
  -8   4  14    7.40    4.68   1
  -8   4  15   15.60    4.66   1
  -8   4  16    4.41    4.41   1
  -8   5 -15    8.18    5.09   1
  -8   5 -14    7.40    3.32   1
  -8   5 -13   91.78    5.17   1
  -8   5 -12   15.21    2.18   1
  -8   5 -11   85.56    3.88   1
  -8   5 -10   55.65    2.69   1
  -8   5  -9    9.67    1.68   1
  -8   5  -8   90.82    3.43   1
  -8   5  -7  221.71    7.45   1
  -8   5  -6   31.58    1.46   1
  -8   5  -5    3.61    0.99   1
  -8   5  -4  111.09    3.58   1
  -8   5  -3    2.31    1.09   1
  -8   5  -2   53.44    2.05   1
  -8   5  -1   52.42    2.17   1
  -8   5   0  187.96    6.03   1
  -8   5   1  120.12    3.95   1
  -8   5   2   47.20    2.75   1
  -8   5   3   16.08    2.01   1
  -8   5   4  115.78    4.95   1
  -8   5   5  141.61    5.00   1
  -8   5   6   20.98    2.38   1
  -8   5   7   75.00    3.81   1
  -8   5   8   47.20    3.16   1
  -8   5   9   24.01    2.84   1
  -8   5  10   -1.90    1.90   1
  -8   5  11   54.76    4.00   1
  -8   5  12   54.02    3.97   1
  -8   5  13    5.52    4.42   1
  -8   5  14    8.18    4.00   1
  -8   5  15   45.02    6.31   1
  -8   5  16    1.90    5.91   1
  -8   6 -14   -3.39    5.00   1
  -8   6 -13    3.31    4.62   1
  -8   6 -12    8.01    2.32   1
  -8   6 -11   14.29    2.19   1
  -8   6 -10   -0.79    1.80   1
  -8   6  -9   23.43    2.32   1
  -8   6  -8   56.85    2.71   1
  -8   6  -7   -0.40    1.10   1
  -8   6  -6  114.49    4.07   1
  -8   6  -5    5.20    1.09   1
  -8   6  -4    5.62    1.09   1
  -8   6  -3   75.17    2.95   1
  -8   6  -2    9.00    1.32   1
  -8   6  -1   95.65    2.93   1
  -8   6   0   24.50    2.08   1
  -8   6   1  104.24    4.08   1
  -8   6   2    1.99    1.69   1
  -8   6   3   24.90    2.00   1
  -8   6   4  324.36   10.09   1
  -8   6   5   60.37    3.26   1
  -8   6   6    1.30    2.30   1
  -8   6   7   33.52    2.66   1
  -8   6   8   17.22    2.74   1
  -8   6   9    3.31    2.40   1
  -8   6  10   48.02    3.46   1
  -8   6  11  117.07    5.63   1
  -8   6  12  124.10    8.69   1
  -8   6  13   48.16    6.25   1
  -8   6  14   12.60    4.40   1
  -8   6  15    5.52    5.73   1
  -8   6  16    0.71    4.12   1
  -8   7 -13   41.99    5.31   1
  -8   7 -12    7.08    4.68   1
  -8   7 -11   19.62    2.66   1
  -8   7 -10    4.80    1.71   1
  -8   7  -9    6.20    1.59   1
  -8   7  -8   22.47    1.90   1
  -8   7  -7  160.28    6.33   1
  -8   7  -6   14.21    1.73   1
  -8   7  -5   88.74    3.01   1
  -8   7  -4   33.87    2.21   1
  -8   7  -3   73.10    3.08   1
  -8   7  -2   55.35    2.53   1
  -8   7  -1   22.09    2.16   1
  -8   7   0   48.86    2.94   1
  -8   7   1   57.76    3.04   1
  -8   7   2  231.95    7.61   1
  -8   7   3    2.69    2.10   1
  -8   7   4   40.96    3.58   1
  -8   7   5   76.91    4.21   1
  -8   7   6   27.56    2.73   1
  -8   7   7    9.92    2.02   1
  -8   7   8   34.81    3.07   1
  -8   7   9    5.90    2.09   1
  -8   7  10    1.10    2.71   1
  -8   7  11   13.91    2.61   1
  -8   7  12   57.46    5.15   1
  -8   7  13    2.69    3.28   1
  -8   7  14    2.99    5.09   1
  -8   7  15   20.16    4.94   1
  -8   7  16    5.38    5.71   1
  -8   8 -12   10.69    3.79   1
  -8   8 -11   10.11    3.82   1
  -8   8 -10    6.71    2.90   1
  -8   8  -9   52.71    3.19   1
  -8   8  -8    6.20    1.69   1
  -8   8  -7    0.20    1.61   1
  -8   8  -6    9.99    1.71   1
  -8   8  -5  129.96    4.56   1
  -8   8  -4    8.29    1.21   1
  -8   8  -3    0.30    1.31   1
  -8   8  -2   37.09    2.07   1
  -8   8  -1   39.94    3.16   1
  -8   8   0   -1.39    2.19   1
  -8   8   1   20.79    2.01   1
  -8   8   2    5.02    1.79   1
  -8   8   3   70.56    4.03   1
  -8   8   4  497.29   16.50   1
  -8   8   5   10.37    3.03   1
  -8   8   6  160.02    6.58   1
  -8   8   7    9.99    2.91   1
  -8   8   8   62.88    4.12   1
  -8   8   9    2.69    2.49   1
  -8   8  10   72.25    4.59   1
  -8   8  11   -2.50    4.20   1
  -8   8  12    2.40    4.90   1
  -8   8  13    2.50    3.29   1
  -8   8  14   43.69    6.74   1
  -8   8  15    3.88    5.87   1
  -8   9 -11    2.99    3.70   1
  -8   9 -10    3.50    2.92   1
  -8   9  -9   10.11    3.18   1
  -8   9  -8    1.69    3.09   1
  -8   9  -7   41.34    2.96   1
  -8   9  -6    2.19    3.11   1
  -8   9  -5   39.94    2.15   1
  -8   9  -4    2.99    1.21   1
  -8   9  -3    1.59    1.29   1
  -8   9  -2   16.40    2.51   1
  -8   9  -1   43.56    3.56   1
  -8   9   0    4.28    2.61   1
  -8   9   1    4.28    1.99   1
  -8   9   2   22.75    2.67   1
  -8   9   3   65.12    3.55   1
  -8   9   4    3.69    2.30   1
  -8   9   5    8.88    2.32   1
  -8   9   6   82.08    4.17   1
  -8   9   7    2.89    2.69   1
  -8   9   8    4.08    2.18   1
  -8   9   9    4.28    2.90   1
  -8   9  10   26.01    5.41   1
  -8   9  11    3.20    4.30   1
  -8   9  12   73.27    7.36   1
  -8   9  13   12.18    5.51   1
  -8   9  14   36.48    5.56   1
  -8   9  15   -3.80    5.81   1
  -8  10 -10    1.80    3.81   1
  -8  10  -9   11.29    4.10   1
  -8  10  -8   21.34    4.99   1
  -8  10  -7   15.68    3.48   1
  -8  10  -6    0.10    2.73   1
  -8  10  -5    9.18    3.51   1
  -8  10  -4   16.32    1.70   1
  -8  10  -3   62.25    3.16   1
  -8  10  -2    7.51    2.52   1
  -8  10  -1   30.25    3.30   1
  -8  10   0    6.50    2.81   1
  -8  10   1   35.05    3.55   1
  -8  10   2    3.31    2.00   1
  -8  10   3   43.69    3.17   1
  -8  10   4   30.36    3.09   1
  -8  10   5    2.89    2.31   1
  -8  10   6   15.92    3.03   1
  -8  10   7  111.09    6.32   1
  -8  10   8    7.40    5.11   1
  -8  10   9   11.42    4.80   1
  -8  10  10   67.24    6.72   1
  -8  10  11    1.21    3.32   1
  -8  10  12   -4.08    3.27   1
  -8  10  13    8.01    4.92   1
  -8  10  14   44.09    7.44   1
  -8  11  -9    7.18    4.02   1
  -8  11  -8    0.59    4.97   1
  -8  11  -7   30.36    5.73   1
  -8  11  -6   13.18    3.63   1
  -8  11  -5    7.02    3.29   1
  -8  11  -4    0.40    2.89   1
  -8  11  -3   43.16    2.89   1
  -8  11  -2    2.31    2.10   1
  -8  11  -1   24.21    3.44   1
  -8  11   0    4.28    2.90   1
  -8  11   1   37.58    3.80   1
  -8  11   2   38.81    3.74   1
  -8  11   3  110.25    5.88   1
  -8  11   4    4.00    3.20   1
  -8  11   5   24.60    3.17   1
  -8  11   6   74.65    6.57   1
  -8  11   7   23.23    4.53   1
  -8  11   8    1.10    3.70   1
  -8  11   9   74.82    6.23   1
  -8  11  10   27.98    4.87   1
  -8  11  11    6.71    3.42   1
  -8  11  12   -2.31    3.10   1
  -8  11  13    5.02    4.21   1
  -8  12  -7    7.51    4.11   1
  -8  12  -6    7.78    4.02   1
  -8  12  -5   41.22    6.16   1
  -8  12  -4   -4.80    4.51   1
  -8  12  -3   -1.49    5.17   1
  -8  12  -2   44.36    5.59   1
  -8  12  -1    8.01    3.11   1
  -8  12   0    2.40    3.01   1
  -8  12   1    2.19    4.80   1
  -8  12   2   37.45    5.14   1
  -8  12   4   -2.99    3.39   1
  -8  12   5   -0.40    4.59   1
  -8  12   6    5.52    3.38   1
  -8  12   8   21.90    4.12   1
  -8  12   9   14.36    5.46   1
  -8  12  10   -6.71    4.51   1
  -8  12  11   10.18    5.81   1
  -8  12  12   -0.30    5.93   1
  -8  13  -5   -2.89    5.00   1
  -8  13  -4    4.20    4.02   1
  -8  13  -3   10.30    5.39   1
  -8  13  -2   14.06    5.10   1
  -8  13  -1    6.40    5.52   1
  -8  13   0   17.64    4.12   1
  -8  13   1   -1.80    6.41   1
  -8  13   2   36.24    7.10   1
  -8  13   3   68.72    6.63   1
  -8  13   4   -0.79    4.98   1
  -8  13   5   12.60    5.89   1
  -8  13   6   -0.50    4.02   1
  -8  13   7   30.03    5.81   1
  -8  13   8    8.41    5.22   1
  -8  13   9    1.10    3.51   1
  -8  13  10    7.02    4.61   1
  -8  13  11    7.78    4.30   1
  -8  14  -3   -1.39    4.48   1
  -8  14  -2   32.72    5.83   1
  -8  14  -1    4.20    5.90   1
  -8  14   0    1.30    3.69   1
  -8  14   1   36.24    5.42   1
  -8  14   2   11.22    5.70   1
  -8  14   3    0.71    3.41   1
  -8  14   4   -3.61    5.32   1
  -8  14   5    4.08    4.69   1
  -8  14   6   10.18    5.61   1
  -8  14   7    5.71    4.30   1
  -8  14   8   -1.49    3.78   1
  -8  14   9  -11.97    6.02   1
  -8  15   1    4.58    4.28   1
  -8  15   2    1.21    6.23   1
  -8  15   3   15.92    4.63   1
  -8  15   4    5.20    6.11   1
  -8  15   5    5.81    4.48   1
  -7 -19  -6   13.69    4.29   1
  -7 -18 -11   -1.10    3.80   1
  -7 -18 -10   45.16    5.78   1
  -7 -18  -9   28.20    4.57   1
  -7 -18  -8   68.23    6.44   1
  -7 -18  -7    1.90    3.81   1
  -7 -18  -6   11.83    4.40   1
  -7 -18  -5    2.79    4.01   1
  -7 -18  -2    1.00    4.10   1
  -7 -18  -1    5.81    3.42   1
  -7 -18   0   12.18    4.33   1
  -7 -17 -13   -0.30    3.62   1
  -7 -17 -12   31.25    4.58   1
  -7 -17 -11   57.61    5.92   1
  -7 -17 -10   18.84    3.82   1
  -7 -17  -9    9.12    3.81   1
  -7 -17  -8   27.35    4.18   1
  -7 -17  -7    8.53    2.51   1
  -7 -17  -6   10.82    3.49   1
  -7 -17  -5    8.58    3.57   1
  -7 -17  -4    0.79    3.77   1
  -7 -17  -3    5.38    3.39   1
  -7 -17  -2   16.32    3.07   1
  -7 -17  -1    3.69    3.61   1
  -7 -17   0   21.90    4.87   1
  -7 -17   2    1.00    4.60   1
  -7 -17   3   26.01    4.69   1
  -7 -16 -14   38.19    5.07   1
  -7 -16 -13   20.52    3.90   1
  -7 -16 -12    6.00    3.28   1
  -7 -16 -11   16.40    4.13   1
  -7 -16 -10   45.29    4.85   1
  -7 -16  -9    3.61    3.19   1
  -7 -16  -8   10.18    3.19   1
  -7 -16  -7   -1.59    2.90   1
  -7 -16  -6    4.49    2.29   1
  -7 -16  -5    2.59    1.80   1
  -7 -16  -4  103.63    4.89   1
  -7 -16  -3    5.52    2.02   1
  -7 -16  -2   17.72    2.53   1
  -7 -16  -1    1.59    2.49   1
  -7 -16   0   16.73    3.03   1
  -7 -16   2   76.21    5.94   1
  -7 -16   3   51.27    4.58   1
  -7 -16   4   26.21    5.32   1
  -7 -16   5    5.62    4.60   1
  -7 -15 -15   22.28    4.44   1
  -7 -15 -14    4.80    3.59   1
  -7 -15 -13   16.73    3.52   1
  -7 -15 -12   15.29    3.60   1
  -7 -15 -11   44.76    4.15   1
  -7 -15 -10   10.18    3.13   1
  -7 -15  -9   26.52    2.47   1
  -7 -15  -8   70.39    3.86   1
  -7 -15  -7   85.38    4.25   1
  -7 -15  -6   23.43    2.52   1
  -7 -15  -5   -0.20    2.02   1
  -7 -15  -4    1.00    1.90   1
  -7 -15  -3   -1.49    1.90   1
  -7 -15  -2   70.90    4.55   1
  -7 -15  -1   17.89    2.28   1
  -7 -15   0   21.62    2.70   1
  -7 -15   1    1.21    2.71   1
  -7 -15   2    7.02    2.81   1
  -7 -15   3    3.39    2.50   1
  -7 -15   4   57.15    6.65   1
  -7 -15   5    0.40    2.78   1
  -7 -15   6   18.23    4.27   1
  -7 -14 -16   12.53    4.18   1
  -7 -14 -15    4.00    3.80   1
  -7 -14 -14   -2.31    3.22   1
  -7 -14 -13    7.18    3.00   1
  -7 -14 -12    9.42    2.89   1
  -7 -14 -11   31.92    2.60   1
  -7 -14 -10   57.00    3.78   1
  -7 -14  -9    9.30    2.01   1
  -7 -14  -8    4.41    1.81   1
  -7 -14  -7    1.90    1.60   1
  -7 -14  -6    2.10    1.31   1
  -7 -14  -5   39.94    2.65   1
  -7 -14  -4   47.06    2.88   1
  -7 -14  -3    4.20    1.89   1
  -7 -14  -2   15.21    2.42   1
  -7 -14  -1   18.66    2.59   1
  -7 -14   0   68.56    3.81   1
  -7 -14   1    2.59    3.28   1
  -7 -14   2   31.25    2.91   1
  -7 -14   3    0.10    2.43   1
  -7 -14   4   -1.59    2.09   1
  -7 -14   5   16.97    3.46   1
  -7 -14   6   38.94    4.62   1
  -7 -14   7    0.00    1.00   1
  -7 -14   8    6.81    4.02   1
  -7 -13 -17   -0.40    3.88   1
  -7 -13 -16    4.08    2.91   1
  -7 -13 -15   12.32    3.79   1
  -7 -13 -14   17.39    3.59   1
  -7 -13 -13   82.45    6.36   1
  -7 -13 -12   11.83    2.27   1
  -7 -13 -11    6.81    1.62   1
  -7 -13 -10   23.23    2.22   1
  -7 -13  -9  118.59    4.79   1
  -7 -13  -8   13.10    2.03   1
  -7 -13  -7    9.99    1.71   1
  -7 -13  -6   86.12    4.08   1
  -7 -13  -5   40.07    2.28   1
  -7 -13  -4    6.30    1.61   1
  -7 -13  -3  155.75    6.24   1
  -7 -13  -2   98.80    4.17   1
  -7 -13  -1   -0.20    1.61   1
  -7 -13   0    5.71    2.10   1
  -7 -13   1   44.36    4.80   1
  -7 -13   2   -0.71    2.02   1
  -7 -13   3    8.18    2.17   1
  -7 -13   4   61.62    4.24   1
  -7 -13   5   24.11    4.03   1
  -7 -13   6    4.00    2.00   1
  -7 -13   7    3.88    2.60   1
  -7 -13   8   -0.20    4.72   1
  -7 -13   9   17.22    5.39   1
  -7 -12 -17   25.81    4.47   1
  -7 -12 -16    2.40    3.81   1
  -7 -12 -15   -0.40    2.99   1
  -7 -12 -14   27.14    3.75   1
  -7 -12 -13   28.73    2.47   1
  -7 -12 -12    1.69    1.59   1
  -7 -12 -11   44.76    2.14   1
  -7 -12 -10   -1.59    1.59   1
  -7 -12  -9   21.16    1.84   1
  -7 -12  -8  171.87    5.77   1
  -7 -12  -7  157.75    5.28   1
  -7 -12  -6   53.88    2.50   1
  -7 -12  -5    7.08    1.38   1
  -7 -12  -4   19.98    1.79   1
  -7 -12  -3   24.30    1.77   1
  -7 -12  -2   83.72    3.11   1
  -7 -12  -1    9.18    1.58   1
  -7 -12   0   36.97    3.16   1
  -7 -12   1   15.76    3.10   1
  -7 -12   2   59.60    3.40   1
  -7 -12   3    1.99    1.69   1
  -7 -12   4    0.50    1.90   1
  -7 -12   5   28.84    3.33   1
  -7 -12   6  115.13    9.01   1
  -7 -12   7   -0.90    2.11   1
  -7 -12   8   26.63    3.82   1
  -7 -12   9    0.30    3.11   1
  -7 -12  10   -3.88    3.19   1
  -7 -11 -18   39.69    5.54   1
  -7 -11 -17   -0.90    2.81   1
  -7 -11 -16    0.00    1.00   1
  -7 -11 -15    2.69    1.90   1
  -7 -11 -14   30.36    2.64   1
  -7 -11 -13    3.50    1.80   1
  -7 -11 -12   35.28    2.26   1
  -7 -11 -11   16.81    1.80   1
  -7 -11 -10   10.89    1.39   1
  -7 -11  -9  193.49   10.85   1
  -7 -11  -8   32.83    1.95   1
  -7 -11  -7    5.11    1.22   1
  -7 -11  -6   50.84    2.28   1
  -7 -11  -5  584.19   17.40   1
  -7 -11  -4  106.50    4.13   1
  -7 -11  -3   88.36    3.20   1
  -7 -11  -2   29.27    1.84   1
  -7 -11  -1    1.69    1.30   1
  -7 -11   0   20.79    2.28   1
  -7 -11   1    8.70    1.59   1
  -7 -11   2   13.32    1.53   1
  -7 -11   3   -1.30    1.50   1
  -7 -11   4   22.37    2.37   1
  -7 -11   5    2.59    1.80   1
  -7 -11   6    5.38    1.90   1
  -7 -11   7   14.21    2.19   1
  -7 -11   8   55.06    3.26   1
  -7 -11   9    0.79    1.89   1
  -7 -11  10   22.47    3.03   1
  -7 -11  11    0.40    2.99   1
  -7 -10 -18   19.54    4.69   1
  -7 -10 -17   -2.10    3.51   1
  -7 -10 -16  105.27    7.39   1
  -7 -10 -15    3.31    3.20   1
  -7 -10 -14   81.54    4.33   1
  -7 -10 -13    5.71    2.58   1
  -7 -10 -12   32.60    1.83   1
  -7 -10 -11   70.06    2.68   1
  -7 -10 -10    8.29    1.21   1
  -7 -10  -9   -1.00    1.10   1
  -7 -10  -8   35.05    1.78   1
  -7 -10  -7   67.40    2.46   1
  -7 -10  -6   62.73    2.38   1
  -7 -10  -5   18.58    1.38   1
  -7 -10  -4    1.69    0.99   1
  -7 -10  -3  197.12    6.18   1
  -7 -10  -2   11.02    1.33   1
  -7 -10  -1  375.97   17.06   1
  -7 -10   0    6.81    1.51   1
  -7 -10   1   55.80    2.69   1
  -7 -10   2   16.16    2.33   1
  -7 -10   3   37.09    1.95   1
  -7 -10   4   23.91    1.76   1
  -7 -10   5   25.81    2.13   1
  -7 -10   6  123.88    4.45   1
  -7 -10   7    5.90    1.80   1
  -7 -10   8   24.21    2.66   1
  -7 -10   9    5.62    1.71   1
  -7 -10  10    0.00    1.00   1
  -7 -10  11   -1.69    2.60   1
  -7 -10  12   23.23    3.47   1
  -7  -9 -18   14.59    3.90   1
  -7  -9 -17   -0.30    3.31   1
  -7  -9 -16    2.50    2.91   1
  -7  -9 -15   -1.59    1.89   1
  -7  -9 -14   34.69    2.71   1
  -7  -9 -13    1.30    1.39   1
  -7  -9 -12  133.40    5.31   1
  -7  -9 -11   29.27    1.84   1
  -7  -9 -10    2.10    1.01   1
  -7  -9  -9    6.81    0.99   1
  -7  -9  -8   82.45    3.09   1
  -7  -9  -7    3.39    0.88   1
  -7  -9  -6   36.72    2.79   1
  -7  -9  -4    4.08    0.89   1
  -7  -9  -3  817.96   25.17   1
  -7  -9  -2    7.51    1.42   1
  -7  -9  -1   26.94    2.39   1
  -7  -9   0    4.49    1.19   1
  -7  -9   1  288.66    7.48   1
  -7  -9   2   15.21    1.48   1
  -7  -9   3    0.71    1.51   1
  -7  -9   4   10.63    1.50   1
  -7  -9   5  147.38    7.53   1
  -7  -9   6   12.89    1.72   1
  -7  -9   7   69.56    2.84   1
  -7  -9   8   58.98    3.07   1
  -7  -9   9    4.80    2.10   1
  -7  -9  10   62.57    3.32   1
  -7  -9  11    1.21    2.00   1
  -7  -9  12   -1.21    2.42   1
  -7  -9  13   -5.02    3.09   1
  -7  -8 -19    2.69    4.49   1
  -7  -8 -18    0.79    4.18   1
  -7  -8 -17    3.80    2.50   1
  -7  -8 -16   25.40    4.13   1
  -7  -8 -15   41.22    2.82   1
  -7  -8 -14   45.56    2.97   1
  -7  -8 -13    3.61    1.41   1
  -7  -8 -12  136.19    4.67   1
  -7  -8 -11    1.59    1.08   1
  -7  -8 -10  159.01    4.79   1
  -7  -8  -9  126.79    3.60   1
  -7  -8  -8    9.49    1.11   1
  -7  -8  -7  324.72   16.58   1
  -7  -8  -6   60.37    3.11   1
  -7  -8  -5   17.31    1.41   1
  -7  -8  -4  117.72    7.38   1
  -7  -8  -3  113.85    5.12   1
  -7  -8  -1  272.58    8.26   1
  -7  -8   0   12.18    1.12   1
  -7  -8   1   14.82    1.31   1
  -7  -8   2   73.96    3.27   1
  -7  -8   3  313.29   12.74   1
  -7  -8   4   55.35    2.38   1
  -7  -8   5   10.82    1.58   1
  -7  -8   6   10.18    1.79   1
  -7  -8   7   -3.80    1.60   1
  -7  -8   8   14.98    2.01   1
  -7  -8   9  125.89    4.71   1
  -7  -8  10   -0.71    1.61   1
  -7  -8  11   27.77    2.63   1
  -7  -8  12   29.81    3.60   1
  -7  -8  13    4.58    4.11   1
  -7  -8  14   14.59    4.81   1
  -7  -7 -19   19.89    4.91   1
  -7  -7 -18   22.18    4.52   1
  -7  -7 -17    9.92    4.22   1
  -7  -7 -16    4.00    2.28   1
  -7  -7 -15   -0.40    1.69   1
  -7  -7 -14  114.92    6.86   1
  -7  -7 -13    5.20    1.50   1
  -7  -7 -12  192.10    6.10   1
  -7  -7 -11    1.90    1.21   1
  -7  -7 -10    5.71    1.39   1
  -7  -7  -9   -0.20    1.01   1
  -7  -7  -8   17.81    1.52   1
  -7  -7  -7   11.09    0.73   1
  -7  -7  -6  278.89    8.35   1
  -7  -7  -5  111.09    3.79   1
  -7  -7  -4  264.06    8.45   1
  -7  -7  -2  312.58   18.03   1
  -7  -7  -1  276.56    8.98   1
  -7  -7   0   40.58    1.91   1
  -7  -7   1   70.06    2.18   1
  -7  -7   2   21.07    1.29   1
  -7  -7   3    8.41    1.22   1
  -7  -7   4   22.18    1.60   1
  -7  -7   5    0.00    1.00   1
  -7  -7   6   11.09    1.80   1
  -7  -7   7  237.78    6.78   1
  -7  -7   8    7.90    1.69   1
  -7  -7   9    0.20    1.81   1
  -7  -7  10   75.17    3.64   1
  -7  -7  11   95.26    4.29   1
  -7  -7  12   -1.21    1.61   1
  -7  -7  13   10.18    2.81   1
  -7  -7  14   35.05    3.91   1
  -7  -6 -19   32.60    4.11   1
  -7  -6 -18   13.40    4.10   1
  -7  -6 -17   37.33    5.01   1
  -7  -6 -16    9.49    2.22   1
  -7  -6 -15   20.16    2.51   1
  -7  -6 -14    1.59    1.49   1
  -7  -6 -13  119.68    4.38   1
  -7  -6 -12   38.81    1.99   1
  -7  -6 -11    8.82    1.31   1
  -7  -6 -10  231.04    6.08   1
  -7  -6  -9  141.61    3.81   1
  -7  -6  -8    3.69    1.11   1
  -7  -6  -7    4.49    0.81   1
  -7  -6  -6    6.60    0.82   1
  -7  -6  -3  179.83    6.44   1
  -7  -6  -2    7.02    0.48   1
  -7  -6  -1   99.00    3.78   1
  -7  -6   0    4.08    1.29   1
  -7  -6   1    1.90    0.80   1
  -7  -6   2   58.06    2.90   1
  -7  -6   3  109.83    3.56   1
  -7  -6   4    6.81    1.51   1
  -7  -6   5  106.09    3.50   1
  -7  -6   6   19.98    1.70   1
  -7  -6   7   53.58    2.34   1
  -7  -6   8    1.39    1.49   1
  -7  -6   9  154.01    5.21   1
  -7  -6  10    9.00    1.92   1
  -7  -6  11   28.30    2.55   1
  -7  -6  12    2.59    1.80   1
  -7  -6  13    5.62    2.51   1
  -7  -6  14    6.20    2.89   1
  -7  -6  15   27.25    3.65   1
  -7  -5 -19    3.88    4.49   1
  -7  -5 -18    5.38    3.90   1
  -7  -5 -17   39.06    5.50   1
  -7  -5 -16   39.06    4.00   1
  -7  -5 -15   58.83    5.06   1
  -7  -5 -14   34.22    2.34   1
  -7  -5 -13    7.40    1.52   1
  -7  -5 -12    2.40    1.39   1
  -7  -5 -11   45.97    1.90   1
  -7  -5 -10   27.98    1.27   1
  -7  -5  -9   42.64    1.83   1
  -7  -5  -8   10.11    1.08   1
  -7  -5  -7   39.94    1.64   1
  -7  -5  -6  173.71    4.22   1
  -7  -5  -2  246.80    8.48   1
  -7  -5  -1  782.88   21.82   1
  -7  -5   0   18.66    1.21   1
  -7  -5   1  176.36    4.78   1
  -7  -5   2   56.55    1.96   1
  -7  -5   3   52.42    2.17   1
  -7  -5   4  299.98   14.55   1
  -7  -5   5  143.04    3.83   1
  -7  -5   6   -1.49    1.29   1
  -7  -5   7  242.11    7.78   1
  -7  -5   8    2.69    1.61   1
  -7  -5   9   10.89    1.78   1
  -7  -5  10   81.90    3.26   1
  -7  -5  11  105.68    4.32   1
  -7  -5  12   11.29    2.49   1
  -7  -5  13    7.78    2.62   1
  -7  -5  14   -3.69    3.00   1
  -7  -5  15    0.71    2.50   1
  -7  -4 -19   84.64    8.83   1
  -7  -4 -18    1.59    3.98   1
  -7  -4 -17   21.72    4.85   1
  -7  -4 -16   44.76    2.94   1
  -7  -4 -15   32.95    2.98   1
  -7  -4 -14    0.59    1.89   1
  -7  -4 -13   79.92    3.22   1
  -7  -4 -12   17.22    1.83   1
  -7  -4 -11   65.45    2.59   1
  -7  -4 -10  116.86    3.46   1
  -7  -4  -9  364.05    9.16   1
  -7  -4  -8  251.86    7.30   1
  -7  -4  -7  482.68   13.18   1
  -7  -4  -6   47.89    1.38   1
  -7  -4  -3   67.24    3.94   1
  -7  -4  -2   21.44    2.50   1
  -7  -4  -1   11.09    0.60   1
  -7  -4   0  199.37    6.78   1
  -7  -4   1  121.88    4.42   1
  -7  -4   2  663.06   17.51   1
  -7  -4   3   55.20    1.93   1
  -7  -4   4    0.50    1.11   1
  -7  -4   5  283.25    7.07   1
  -7  -4   6  877.94   29.04   1
  -7  -4   7   11.90    2.83   1
  -7  -4   8   14.82    1.77   1
  -7  -4   9   20.07    1.79   1
  -7  -4  10    0.90    1.41   1
  -7  -4  11   57.15    3.18   1
  -7  -4  12   39.44    3.14   1
  -7  -4  13    3.31    2.29   1
  -7  -4  14   -1.21    4.03   1
  -7  -4  15    9.99    2.97   1
  -7  -4  16   -4.80    4.20   1
  -7  -3 -19    1.49    3.49   1
  -7  -3 -18   -3.20    4.12   1
  -7  -3 -17   54.17    5.74   1
  -7  -3 -16   11.22    2.28   1
  -7  -3 -15  115.35    5.58   1
  -7  -3 -14   14.52    1.90   1
  -7  -3 -13    9.67    1.68   1
  -7  -3 -12   17.47    1.67   1
  -7  -3 -11   51.55    2.15   1
  -7  -3 -10    1.59    1.01   1
  -7  -3  -9    6.30    1.31   1
  -7  -3  -8   62.09    2.21   1
  -7  -3  -7  463.11   15.92   1
  -7  -3  -6  157.00    4.76   1
  -7  -3  -5   13.18    0.73   1
  -7  -3  -3  137.36    6.09   1
  -7  -3  -2  104.65    5.73   1
  -7  -3  -1   19.18    0.79   1
  -7  -3   0    1.49    0.71   1
  -7  -3   1  289.00    8.16   1
  -7  -3   2  247.75    6.93   1
  -7  -3   3   -2.10    0.90   1
  -7  -3   4   33.76    1.86   1
  -7  -3   5   50.27    2.13   1
  -7  -3   6   73.62    2.57   1
  -7  -3   7   14.29    1.51   1
  -7  -3   8   76.91    2.98   1
  -7  -3   9   71.40    2.70   1
  -7  -3  10   13.03    1.88   1
  -7  -3  11   24.21    2.46   1
  -7  -3  12   52.27    3.47   1
  -7  -3  13    3.69    2.00   1
  -7  -3  14    7.51    3.18   1
  -7  -3  15   11.22    2.68   1
  -7  -3  16    7.18    2.79   1
  -7  -2 -18   18.23    4.70   1
  -7  -2 -17    3.10    3.70   1
  -7  -2 -16   -5.52    2.49   1
  -7  -2 -15   -0.10    1.72   1
  -7  -2 -14    2.79    1.40   1
  -7  -2 -13   32.60    2.28   1
  -7  -2 -12   12.67    1.28   1
  -7  -2 -11   46.92    2.19   1
  -7  -2 -10   22.18    1.51   1
  -7  -2  -9   49.98    2.12   1
  -7  -2  -8    5.52    0.89   1
  -7  -2  -7  119.68    5.47   1
  -7  -2  -6  286.96    9.15   1
  -7  -2  -5    4.08    0.81   1
  -7  -2  -4  141.61    4.05   1
  -7  -2  -3   17.47    0.67   1
  -7  -2  -2   48.86    1.54   1
  -7  -2  -1    4.00    1.52   1
  -7  -2   0   80.28    3.05   1
  -7  -2   1  649.23   16.82   1
  -7  -2   2   33.41    1.50   1
  -7  -2   3  201.64    5.40   1
  -7  -2   4   66.26    2.60   1
  -7  -2   5  182.25    5.13   1
  -7  -2   6  404.41   10.86   1
  -7  -2   7    4.08    1.41   1
  -7  -2   8  151.29    4.43   1
  -7  -2   9   85.56    3.14   1
  -7  -2  10    1.69    1.59   1
  -7  -2  11   20.16    2.42   1
  -7  -2  12   51.55    3.16   1
  -7  -2  13   60.68    4.05   1
  -7  -2  14    0.30    2.31   1
  -7  -2  15    9.00    3.00   1
  -7  -2  16   52.71    4.65   1
  -7  -1 -18   51.12    6.43   1
  -7  -1 -17   -2.19    4.20   1
  -7  -1 -16   27.04    3.54   1
  -7  -1 -15   73.79    4.98   1
  -7  -1 -14    5.29    1.79   1
  -7  -1 -13    4.49    1.61   1
  -7  -1 -12    0.30    1.61   1
  -7  -1 -11   83.17    2.92   1
  -7  -1 -10    8.29    1.21   1
  -7  -1  -9    6.71    1.29   1
  -7  -1  -8   41.73    1.68   1
  -7  -1  -7  117.51    3.69   1
  -7  -1  -6   21.62    1.12   1
  -7  -1  -5  604.18   16.71   1
  -7  -1  -4   65.12    2.42   1
  -7  -1  -3   66.91    2.29   1
  -7  -1  -2   13.69    2.37   1
  -7  -1  -1  158.26    5.54   1
  -7  -1   0   11.22    1.07   1
  -7  -1   1    6.40    0.91   1
  -7  -1   2   55.35    1.64   1
  -7  -1   3   47.47    2.07   1
  -7  -1   4  190.99    5.53   1
  -7  -1   5   23.23    1.64   1
  -7  -1   6   25.81    1.73   1
  -7  -1   7    1.59    1.49   1
  -7  -1   8   35.40    2.26   1
  -7  -1   9    3.10    1.90   1
  -7  -1  10  108.58    4.58   1
  -7  -1  11   62.41    3.95   1
  -7  -1  12   11.90    2.21   1
  -7  -1  13    6.40    2.18   1
  -7  -1  14   84.46    6.80   1
  -7  -1  15   10.69    5.10   1
  -7  -1  16    1.49    2.98   1
  -7  -1  17   45.56    4.46   1
  -7   0 -18   13.10    3.98   1
  -7   0 -17    7.62    3.48   1
  -7   0 -16  108.37    6.87   1
  -7   0 -15    7.67    2.77   1
  -7   0 -14    1.90    1.79   1
  -7   0 -13    1.10    1.81   1
  -7   0 -12   12.67    1.57   1
  -7   0 -11   17.64    1.60   1
  -7   0 -10  122.99    3.99   1
  -7   0  -9    2.19    1.01   1
  -7   0  -8  190.72    4.70   1
  -7   0  -7  227.71    5.73   1
  -7   0  -6  111.94    3.17   1
  -7   0  -5  197.68    4.78   1
  -7   0  -4   63.84    1.92   1
  -7   0  -3  373.65   10.44   1
  -7   0  -2  255.68    7.04   1
  -7   0  -1  148.84    3.90   1
  -7   0   0   31.81    1.35   1
  -7   0   1  389.27    9.47   1
  -7   0   2   25.40    1.31   1
  -7   0   3   -0.79    1.09   1
  -7   0   4   13.18    1.09   1
  -7   0   5   16.81    1.48   1
  -7   0   6  301.37    9.03   1
  -7   0   7    7.62    1.71   1
  -7   0   8   89.68    3.60   1
  -7   0   9   21.72    2.33   1
  -7   0  10  342.25   11.84   1
  -7   0  11   24.60    2.88   1
  -7   0  12   18.40    3.00   1
  -7   0  13   72.08    4.58   1
  -7   0  14    5.81    3.33   1
  -7   0  15   21.07    4.22   1
  -7   0  16   11.97    5.81   1
  -7   0  17    1.49    6.37   1
  -7   1 -17   -5.38    4.50   1
  -7   1 -16   -1.21    2.20   1
  -7   1 -15   -1.00    2.00   1
  -7   1 -14   31.25    2.57   1
  -7   1 -13    5.90    1.80   1
  -7   1 -12   27.98    2.33   1
  -7   1 -11    0.00    1.00   1
  -7   1 -10  123.21    4.00   1
  -7   1  -9   19.54    1.68   1
  -7   1  -8   60.68    2.34   1
  -7   1  -7    9.12    1.21   1
  -7   1  -6   91.97    2.49   1
  -7   1  -5  436.81    9.61   1
  -7   1  -4   12.18    0.98   1
  -7   1  -3   56.55    2.26   1
  -7   1  -2  196.56    5.33   1
  -7   1  -1    1.21    0.81   1
  -7   1   0   82.81    2.37   1
  -7   1   1    1.99    0.99   1
  -7   1   2   22.66    1.24   1
  -7   1   3    2.19    1.30   1
  -7   1   4  338.19    9.93   1
  -7   1   5    7.62    1.38   1
  -7   1   6   39.82    2.15   1
  -7   1   7    4.28    1.49   1
  -7   1   8   76.21    3.32   1
  -7   1   9   18.84    2.34   1
  -7   1  10   63.36    3.66   1
  -7   1  11   31.25    3.35   1
  -7   1  12   10.11    2.29   1
  -7   1  13   11.09    2.93   1
  -7   1  14   49.14    4.91   1
  -7   1  15    1.49    2.98   1
  -7   1  16    0.40    3.19   1
  -7   1  17    0.50    3.72   1
  -7   2 -17    1.80    3.30   1
  -7   2 -16  129.05   12.27   1
  -7   2 -15    7.78    3.07   1
  -7   2 -14    1.49    1.90   1
  -7   2 -13   -0.30    1.80   1
  -7   2 -12   25.70    2.13   1
  -7   2 -11   14.90    1.93   1
  -7   2 -10   40.83    2.30   1
  -7   2  -9   -1.00    1.30   1
  -7   2  -8    1.99    0.99   1
  -7   2  -7   55.06    2.08   1
  -7   2  -6   68.39    2.15   1
  -7   2  -5  221.12    4.76   1
  -7   2  -4  190.16    3.86   1
  -7   2  -3  331.24    8.37   1
  -7   2  -2   19.98    1.07   1
  -7   2  -1  396.01    8.76   1
  -7   2   0   52.85    1.74   1
  -7   2   1    0.40    1.00   1
  -7   2   2   63.04    2.22   1
  -7   2   3   99.60    3.59   1
  -7   2   4  191.27    5.26   1
  -7   2   5    7.18    3.27   1
  -7   2   6  197.40    6.18   1
  -7   2   7    2.59    1.29   1
  -7   2   8   46.79    2.87   1
  -7   2   9   44.36    3.73   1
  -7   2  10  227.10    8.44   1
  -7   2  11   81.72    4.16   1
  -7   2  12   58.06    4.27   1
  -7   2  13   -1.39    3.19   1
  -7   2  14   14.52    4.80   1
  -7   2  15    5.81    5.11   1
  -7   2  16   34.69    6.83   1
  -7   2  17   -2.10    5.39   1
  -7   3 -16    2.50    4.90   1
  -7   3 -15   -0.79    2.39   1
  -7   3 -14   29.05    2.69   1
  -7   3 -13   -0.90    1.90   1
  -7   3 -12   27.88    2.32   1
  -7   3 -11   25.91    2.14   1
  -7   3 -10   70.90    2.53   1
  -7   3  -9   80.82    2.88   1
  -7   3  -8  249.96    7.27   1
  -7   3  -7  124.10    3.79   1
  -7   3  -6   54.91    2.37   1
  -7   3  -5  662.03   14.41   1
  -7   3  -4    7.40    0.92   1
  -7   3  -3   11.90    2.28   1
  -7   3  -2   13.03    1.08   1
  -7   3  -1  499.97   11.18   1
  -7   3   0   32.83    2.06   1
  -7   3   1  154.50    4.72   1
  -7   3   2   62.73    2.53   1
  -7   3   3   39.44    2.26   1
  -7   3   4   29.16    1.94   1
  -7   3   5   45.97    2.71   1
  -7   3   6   11.22    1.41   1
  -7   3   7  118.37    5.44   1
  -7   3   8   95.84    3.52   1
  -7   3   9   20.43    2.08   1
  -7   3  10   59.44    3.55   1
  -7   3  11    1.80    2.39   1
  -7   3  12   66.26    4.23   1
  -7   3  13    0.20    2.52   1
  -7   3  14   36.24    5.06   1
  -7   3  15   10.50    3.37   1
  -7   3  16    1.49    3.39   1
  -7   3  17   16.40    4.70   1
  -7   4 -16   17.64    5.21   1
  -7   4 -15    2.99    2.91   1
  -7   4 -14    6.71    2.12   1
  -7   4 -13    1.49    1.90   1
  -7   4 -12    8.12    2.39   1
  -7   4 -11   39.94    2.65   1
  -7   4 -10  161.29    5.59   1
  -7   4  -9   12.60    1.63   1
  -7   4  -8    3.61    1.29   1
  -7   4  -7  102.01    3.23   1
  -7   4  -6   53.14    2.04   1
  -7   4  -5    2.99    0.69   1
  -7   4  -4  126.56    3.15   1
  -7   4  -3    2.59    1.00   1
  -7   4  -2   29.70    1.53   1
  -7   4  -1  109.83    3.56   1
  -7   4   0  328.70    9.06   1
  -7   4   1    9.42    1.72   1
  -7   4   2   14.98    1.70   1
  -7   4   3  227.71    6.34   1
  -7   4   4   67.40    2.96   1
  -7   4   5  248.38    7.25   1
  -7   4   6   79.39    3.21   1
  -7   4   7   15.21    1.79   1
  -7   4   8   59.14    3.38   1
  -7   4   9  139.48    6.38   1
  -7   4  10  100.60    5.22   1
  -7   4  11   45.97    3.93   1
  -7   4  12    7.02    2.28   1
  -7   4  13   21.44    3.52   1
  -7   4  14   17.47    4.01   1
  -7   4  15    5.38    3.48   1
  -7   4  16    1.10    5.00   1
  -7   4  17    4.71    6.12   1
  -7   5 -15    6.60    3.91   1
  -7   5 -14   64.64    4.98   1
  -7   5 -13   -1.59    2.29   1
  -7   5 -12   78.32    4.25   1
  -7   5 -11    4.41    1.81   1
  -7   5 -10   56.55    3.01   1
  -7   5  -9   11.90    1.73   1
  -7   5  -8  345.22    8.92   1
  -7   5  -7    2.59    1.29   1
  -7   5  -6   47.20    2.34   1
  -7   5  -5   38.94    1.50   1
  -7   5  -4    4.00    1.12   1
  -7   5  -3   65.45    2.27   1
  -7   5  -2  514.38   11.79   1
  -7   5  -1  158.51    5.29   1
  -7   5   0    4.58    1.71   1
  -7   5   1  298.94    8.65   1
  -7   5   2    1.99    1.49   1
  -7   5   3   15.13    2.10   1
  -7   5   4    2.50    1.71   1
  -7   5   5  149.82    4.90   1
  -7   5   6   28.94    2.37   1
  -7   5   7   61.47    3.14   1
  -7   5   8   17.64    2.18   1
  -7   5   9   17.89    2.79   1
  -7   5  10    0.79    2.49   1
  -7   5  11  154.01    7.20   1
  -7   5  12   25.70    2.74   1
  -7   5  13   86.49    7.44   1
  -7   5  14    0.20    3.42   1
  -7   5  15    9.30    5.12   1
  -7   5  16    5.20    5.88   1
  -7   5  17   16.40    4.78   1
  -7   6 -14   -4.08    4.28   1
  -7   6 -13    1.21    2.20   1
  -7   6 -12   49.84    3.39   1
  -7   6 -11   17.72    2.19   1
  -7   6 -10   31.92    2.49   1
  -7   6  -9    0.50    1.41   1
  -7   6  -8    6.50    1.68   1
  -7   6  -7   33.41    2.20   1
  -7   6  -6  249.01    7.57   1
  -7   6  -5    6.30    0.80   1
  -7   6  -4  173.71    5.54   1
  -7   6  -3   23.72    1.36   1
  -7   6  -2   25.40    1.41   1
  -7   6  -1  131.10    4.58   1
  -7   6   0   99.00    3.78   1
  -7   6   1  119.25    3.93   1
  -7   6   2   11.97    1.80   1
  -7   6   3  194.88    6.42   1
  -7   6   4    0.30    1.21   1
  -7   6   5   26.11    2.35   1
  -7   6   6   27.77    2.63   1
  -7   6   7   11.29    1.68   1
  -7   6   8   24.50    2.67   1
  -7   6   9   67.73    3.95   1
  -7   6  10    8.12    2.39   1
  -7   6  11   10.30    2.50   1
  -7   6  12   11.83    2.27   1
  -7   6  13   60.68    5.76   1
  -7   6  14   19.71    5.24   1
  -7   6  15   13.76    4.38   1
  -7   6  16    5.11    4.29   1
  -7   6  17    5.38    5.57   1
  -7   7 -14   27.77    5.27   1
  -7   7 -13    4.20    3.12   1
  -7   7 -12    8.53    2.28   1
  -7   7 -11    5.71    2.10   1
  -7   7 -10    9.49    1.79   1
  -7   7  -9   30.80    2.11   1
  -7   7  -8   87.98    4.13   1
  -7   7  -7    6.50    1.48   1
  -7   7  -6   26.94    1.87   1
  -7   7  -5   30.47    1.32   1
  -7   7  -4    5.02    0.99   1
  -7   7  -3   52.13    2.17   1
  -7   7  -2   13.18    1.82   1
  -7   7  -1   58.06    2.74   1
  -7   7   0    8.12    1.48   1
  -7   7   1   14.67    1.99   1
  -7   7   2   21.62    2.42   1
  -7   7   3    4.08    1.70   1
  -7   7   4  114.28    4.28   1
  -7   7   5   71.23    3.88   1
  -7   7   6   -2.89    1.70   1
  -7   7   7  135.72    5.13   1
  -7   7   8  117.29    5.20   1
  -7   7   9   16.89    2.63   1
  -7   7  10    6.60    2.21   1
  -7   7  11  105.27    4.72   1
  -7   7  12   -4.28    2.82   1
  -7   7  13   31.02    4.23   1
  -7   7  14   18.23    5.64   1
  -7   7  15   -1.21    3.41   1
  -7   7  16    2.59    6.28   1
  -7   8 -13   31.36    6.61   1
  -7   8 -12    2.40    3.41   1
  -7   8 -11   -1.69    1.79   1
  -7   8 -10    3.80    2.11   1
  -7   8  -9   17.39    2.09   1
  -7   8  -8   14.90    1.93   1
  -7   8  -7    0.71    1.21   1
  -7   8  -6  129.96    5.70   1
  -7   8  -5    0.71    0.60   1
  -7   8  -4    8.70    1.18   1
  -7   8  -3    5.71    1.20   1
  -7   8  -2   41.22    2.95   1
  -7   8  -1  329.06   11.25   1
  -7   8   0  151.04    6.39   1
  -7   8   1   41.09    3.08   1
  -7   8   2  181.71    7.01   1
  -7   8   3   42.25    2.47   1
  -7   8   4    9.92    2.77   1
  -7   8   5   87.98    4.31   1
  -7   8   6   12.18    2.37   1
  -7   8   7   28.20    2.76   1
  -7   8   8   -0.79    2.19   1
  -7   8   9   50.55    3.41   1
  -7   8  10   -2.10    2.09   1
  -7   8  11    5.11    4.70   1
  -7   8  12   11.90    4.83   1
  -7   8  13   35.16    4.27   1
  -7   8  14   -0.30    5.32   1
  -7   8  15   18.23    5.72   1
  -7   8  16    7.08    5.80   1
  -7   9 -12   -0.30    5.52   1
  -7   9 -11   18.92    4.70   1
  -7   9 -10   -0.40    4.78   1
  -7   9  -9    2.69    2.00   1
  -7   9  -8    2.40    2.01   1
  -7   9  -7    5.62    1.71   1
  -7   9  -6    0.10    1.52   1
  -7   9  -5   52.13    3.75   1
  -7   9  -4    7.08    1.22   1
  -7   9  -3   55.35    2.83   1
  -7   9  -2    2.99    1.70   1
  -7   9  -1  104.45    4.91   1
  -7   9   0    0.90    1.71   1
  -7   9   1   28.62    2.57   1
  -7   9   2  180.63    6.99   1
  -7   9   3   63.36    3.98   1
  -7   9   4    0.90    2.51   1
  -7   9   5   21.53    2.97   1
  -7   9   6   16.16    3.14   1
  -7   9   7   44.89    3.08   1
  -7   9   8   58.37    3.97   1
  -7   9   9    0.71    2.81   1
  -7   9  10   24.40    4.54   1
  -7   9  11  127.01    9.69   1
  -7   9  12    1.21    4.03   1
  -7   9  13    8.12    4.22   1
  -7   9  14   -1.10    3.51   1
  -7   9  15   26.73    6.20   1
  -7   9  16    0.20    4.12   1
  -7  10 -11   -3.69    3.38   1
  -7  10 -10   -0.40    3.29   1
  -7  10  -9   44.49    6.54   1
  -7  10  -8    5.90    4.33   1
  -7  10  -7   31.81    3.84   1
  -7  10  -6   19.98    1.79   1
  -7  10  -5    4.00    2.60   1
  -7  10  -4   15.92    1.52   1
  -7  10  -3   67.08    4.42   1
  -7  10  -2    1.10    2.39   1
  -7  10  -1   38.32    3.22   1
  -7  10   0  108.78    5.01   1
  -7  10   1    5.90    1.70   1
  -7  10   2  158.00    6.79   1
  -7  10   3    1.10    1.70   1
  -7  10   4  154.26    6.71   1
  -7  10   5    2.79    2.00   1
  -7  10   6   30.25    3.41   1
  -7  10   7   37.21    3.66   1
  -7  10   8   19.36    2.82   1
  -7  10   9    9.67    3.92   1
  -7  10  10   24.80    4.58   1
  -7  10  11    6.10    4.50   1
  -7  10  12   40.96    5.76   1
  -7  10  14   -0.20    5.13   1
  -7  10  15   36.36    6.15   1
  -7  11 -10    3.61    4.10   1
  -7  11  -9   16.81    5.74   1
  -7  11  -8    2.19    5.09   1
  -7  11  -7    7.40    3.32   1
  -7  11  -6    3.50    2.92   1
  -7  11  -5   43.30    4.08   1
  -7  11  -4    0.30    1.00   1
  -7  11  -3    0.71    2.20   1
  -7  11  -2   -1.00    2.40   1
  -7  11  -1   15.37    2.59   1
  -7  11   0   -1.80    1.90   1
  -7  11   1    5.38    2.09   1
  -7  11   2  102.01    4.85   1
  -7  11   3    4.58    2.40   1
  -7  11   4   19.89    3.48   1
  -7  11   5    4.00    3.00   1
  -7  11   6    4.80    2.19   1
  -7  11   7   32.49    4.67   1
  -7  11   8    4.41    3.19   1
  -7  11   9   13.91    4.40   1
  -7  11  10   34.11    5.61   1
  -7  11  11    3.88    3.19   1
  -7  11  12   48.16    6.66   1
  -7  11  13    5.02    3.49   1
  -7  11  14   15.60    5.69   1
  -7  12  -8    0.79    6.27   1
  -7  12  -7    4.49    3.90   1
  -7  12  -6   -0.79    5.18   1
  -7  12  -5   -1.90    4.20   1
  -7  12  -4   -2.99    5.50   1
  -7  12  -3   41.34    5.40   1
  -7  12  -2   13.99    2.99   1
  -7  12  -1    6.71    3.32   1
  -7  12   0   13.62    2.51   1
  -7  12   1   25.60    3.04   1
  -7  12   2   53.29    4.09   1
  -7  12   3    4.41    3.99   1
  -7  12   4   25.50    4.75   1
  -7  12   5    5.20    2.42   1
  -7  12   6   30.03    5.15   1
  -7  12   7   -1.59    3.18   1
  -7  12   8   12.67    4.63   1
  -7  12   9    7.90    4.10   1
  -7  12  10   36.12    5.05   1
  -7  12  11   18.66    5.79   1
  -7  12  12   47.75    7.46   1
  -7  12  13   11.83    4.40   1
  -7  13  -6    5.81    5.78   1
  -7  13  -5   13.76    4.01   1
  -7  13  -4    2.31    3.80   1
  -7  13  -3  -16.32    8.08   1
  -7  13  -2    1.80    4.69   1
  -7  13  -1   85.01    7.56   1
  -7  13   0    4.00    2.92   1
  -7  13   1   70.56    5.54   1
  -7  13   2  108.78    7.51   1
  -7  13   3    6.10    4.40   1
  -7  13   4   -1.59    2.70   1
  -7  13   5   52.85    5.09   1
  -7  13   6   15.92    3.99   1
  -7  13   7   32.95    6.20   1
  -7  13   8    9.18    4.18   1
  -7  13   9    4.00    5.40   1
  -7  13  10   24.30    6.41   1
  -7  13  11    2.19    5.18   1
  -7  13  12    3.10    5.81   1
  -7  14  -4   -3.61    4.90   1
  -7  14  -3   24.70    4.87   1
  -7  14  -2    2.40    3.69   1
  -7  14  -1   -3.88    5.20   1
  -7  14   0   -1.30    3.49   1
  -7  14   1   10.18    4.02   1
  -7  14   3   54.46    6.20   1
  -7  14   4   18.40    4.20   1
  -7  14   5   16.89    5.43   1
  -7  14   6   18.84    4.51   1
  -7  14   7   24.90    6.59   1
  -7  14   8    9.12    5.92   1
  -7  14   9   17.98    4.58   1
  -7  14  10   39.31    6.27   1
  -7  14  11   -4.20    4.80   1
  -7  15  -2   11.83    4.20   1
  -7  15  -1   30.36    6.50   1
  -7  15   0    9.42    5.83   1
  -7  15   1   20.88    4.39   1
  -7  15   2   -1.00    6.40   1
  -7  15   3   -4.41    3.99   1
  -7  15   4   12.11    5.92   1
  -7  15   5   30.25    5.17   1
  -7  15   6    8.01    5.72   1
  -7  15   7    7.08    4.47   1
  -7  15   8    1.39    4.18   1
  -7  15   9    1.00    6.10   1
  -6 -19  -8    7.62    4.42   1
  -6 -19  -7   11.90    3.73   1
  -6 -19  -6    2.19    4.50   1
  -6 -19  -5   15.92    5.51   1
  -6 -19  -4    6.81    3.39   1
  -6 -19  -3   20.16    5.30   1
  -6 -18 -11   10.69    4.32   1
  -6 -18 -10    2.31    4.20   1
  -6 -18  -9   19.89    5.26   1
  -6 -18  -8    2.69    4.00   1
  -6 -18  -7   47.47    4.96   1
  -6 -18  -6    9.18    3.70   1
  -6 -18  -5   64.96    7.25   1
  -6 -18  -4    9.67    4.48   1
  -6 -18  -3    4.88    3.18   1
  -6 -18  -2    4.00    4.08   1
  -6 -18  -1   15.92    4.07   1
  -6 -18   1    7.78    5.41   1
  -6 -17 -13   -1.00    4.30   1
  -6 -17 -12   42.64    5.09   1
  -6 -17 -11    7.40    3.81   1
  -6 -17 -10   19.89    4.64   1
  -6 -17  -9   18.66    4.92   1
  -6 -17  -8    0.71    2.30   1
  -6 -17  -7    0.79    2.39   1
  -6 -17  -6    7.78    3.57   1
  -6 -17  -5    2.89    3.40   1
  -6 -17  -4    1.30    2.69   1
  -6 -17  -3   55.06    4.60   1
  -6 -17  -2    3.50    2.81   1
  -6 -17  -1   21.16    4.69   1
  -6 -17   0   -6.10    4.00   1
  -6 -17   1   20.07    4.30   1
  -6 -17   3   13.62    4.13   1
  -6 -17   4    1.49    5.37   1
  -6 -16 -15    7.67    4.71   1
  -6 -16 -14   68.23    7.43   1
  -6 -16 -13   -1.21    4.03   1
  -6 -16 -12   32.38    4.55   1
  -6 -16 -11   -1.10    2.20   1
  -6 -16 -10   11.90    3.93   1
  -6 -16  -9   -2.50    3.29   1
  -6 -16  -8    7.40    2.50   1
  -6 -16  -7   -1.49    2.10   1
  -6 -16  -6   16.32    2.50   1
  -6 -16  -5   17.98    2.29   1
  -6 -16  -4    4.88    2.48   1
  -6 -16  -3   21.34    2.86   1
  -6 -16  -2    5.71    2.29   1
  -6 -16  -1   84.09    5.32   1
  -6 -16   0   13.10    2.39   1
  -6 -16   1   34.22    3.74   1
  -6 -16   2   -0.20    4.83   1
  -6 -16   3    2.89    3.40   1
  -6 -16   4   -3.10    4.40   1
  -6 -16   5   13.32    4.38   1
  -6 -15 -16   41.22    5.65   1
  -6 -15 -15   21.81    5.42   1
  -6 -15 -14   10.63    4.24   1
  -6 -15 -13    0.50    3.31   1
  -6 -15 -12   27.98    4.55   1
  -6 -15 -11    8.41    3.60   1
  -6 -15 -10   47.33    3.30   1
  -6 -15  -9    1.30    1.60   1
  -6 -15  -8   -1.90    3.01   1
  -6 -15  -7   22.56    2.57   1
  -6 -15  -6   76.04    3.84   1
  -6 -15  -5   -0.59    1.29   1
  -6 -15  -4   20.16    2.51   1
  -6 -15  -3   50.84    3.57   1
  -6 -15  -2    0.40    2.19   1
  -6 -15  -1   33.06    2.53   1
  -6 -15   0   -1.99    1.61   1
  -6 -15   1   16.08    2.33   1
  -6 -15   2   -5.52    4.42   1
  -6 -15   3   35.52    2.86   1
  -6 -15   4   -2.89    3.09   1
  -6 -15   5   28.94    3.77   1
  -6 -15   6   -1.99    4.48   1
  -6 -14 -17   45.02    5.37   1
  -6 -14 -16    6.81    4.49   1
  -6 -14 -15   11.02    3.92   1
  -6 -14 -14   23.91    4.40   1
  -6 -14 -13    4.28    3.39   1
  -6 -14 -12   26.83    2.69   1
  -6 -14 -11    5.11    2.31   1
  -6 -14 -10   -2.79    1.60   1
  -6 -14  -9   -3.39    1.91   1
  -6 -14  -8   30.25    2.42   1
  -6 -14  -7   73.79    3.95   1
  -6 -14  -6   50.98    3.00   1
  -6 -14  -5   21.53    2.32   1
  -6 -14  -4   74.13    3.96   1
  -6 -14  -3   68.56    3.64   1
  -6 -14  -2   61.15    3.28   1
  -6 -14  -1    5.52    1.79   1
  -6 -14   0    2.10    1.60   1
  -6 -14   1    1.00    1.80   1
  -6 -14   2   29.05    4.64   1
  -6 -14   3    0.71    2.70   1
  -6 -14   4   -0.20    2.02   1
  -6 -14   5   73.96    4.64   1
  -6 -14   6    3.88    4.18   1
  -6 -14   7    9.18    4.00   1
  -6 -14   8    2.89    5.10   1
  -6 -13 -17   10.37    3.09   1
  -6 -13 -16   13.91    2.98   1
  -6 -13 -15   34.69    4.36   1
  -6 -13 -14   -2.59    2.99   1
  -6 -13 -13   88.36    4.89   1
  -6 -13 -12   39.94    2.40   1
  -6 -13 -11   35.64    2.75   1
  -6 -13 -10   22.00    2.35   1
  -6 -13  -9   -2.79    1.70   1
  -6 -13  -8   16.32    1.94   1
  -6 -13  -7    5.38    1.90   1
  -6 -13  -6  139.95    6.15   1
  -6 -13  -5    9.00    1.80   1
  -6 -13  -4   38.44    2.36   1
  -6 -13  -3   18.84    1.82   1
  -6 -13  -2    5.38    1.48   1
  -6 -13  -1    9.12    1.81   1
  -6 -13   0   70.22    3.35   1
  -6 -13   1   43.16    2.89   1
  -6 -13   2   18.49    3.87   1
  -6 -13   3   23.62    2.53   1
  -6 -13   4    9.67    2.67   1
  -6 -13   5   32.04    5.43   1
  -6 -13   6    8.18    2.92   1
  -6 -13   7    4.20    2.99   1
  -6 -13   8    4.28    2.48   1
  -6 -13   9    3.10    4.29   1
  -6 -13  10   -1.39    3.68   1
  -6 -12 -18    6.20    3.09   1
  -6 -12 -17   43.16    5.78   1
  -6 -12 -16    3.20    3.62   1
  -6 -12 -15   46.10    5.30   1
  -6 -12 -14   22.37    2.46   1
  -6 -12 -13   -2.89    2.21   1
  -6 -12 -12    0.50    1.80   1
  -6 -12 -11  124.32    4.91   1
  -6 -12 -10   76.74    3.33   1
  -6 -12  -9    6.20    1.69   1
  -6 -12  -8   10.37    1.61   1
  -6 -12  -7  126.34    4.50   1
  -6 -12  -6  274.23    7.95   1
  -6 -12  -5    8.82    1.43   1
  -6 -12  -4  348.57   11.20   1
  -6 -12  -3    4.08    1.90   1
  -6 -12  -2  172.92    7.10   1
  -6 -12  -1    7.40    1.69   1
  -6 -12   0   26.52    2.37   1
  -6 -12   1    2.79    1.90   1
  -6 -12   2    5.90    3.21   1
  -6 -12   3    6.20    1.79   1
  -6 -12   4   94.87    6.62   1
  -6 -12   5    1.30    2.60   1
  -6 -12   6   11.29    3.09   1
  -6 -12   7   30.91    3.34   1
  -6 -12   8   65.93    4.87   1
  -6 -12   9   17.81    4.81   1
  -6 -12  10    5.52    5.12   1
  -6 -12  11   17.47    4.68   1
  -6 -11 -18    2.40    3.91   1
  -6 -11 -17    0.10    3.85   1
  -6 -11 -16   -2.59    3.38   1
  -6 -11 -15   32.38    2.96   1
  -6 -11 -14   14.82    2.31   1
  -6 -11 -13  175.83    6.10   1
  -6 -11 -12   -1.69    1.30   1
  -6 -11 -11   16.08    1.60   1
  -6 -11 -10   14.06    1.57   1
  -6 -11  -9    2.69    1.61   1
  -6 -11  -8    5.38    1.21   1
  -6 -11  -7    2.40    1.39   1
  -6 -11  -6   38.69    1.87   1
  -6 -11  -5   65.93    2.60   1
  -6 -11  -4  120.78    4.18   1
  -6 -11  -3   70.06    2.68   1
  -6 -11  -2   84.82    3.13   1
  -6 -11  -1   -2.69    1.41   1
  -6 -11   0  168.48    5.19   1
  -6 -11   1   13.40    1.83   1
  -6 -11   2   50.55    2.84   1
  -6 -11   3   58.68    3.37   1
  -6 -11   4  114.70    5.36   1
  -6 -11   5   63.20    3.66   1
  -6 -11   6   68.23    3.80   1
  -6 -11   7    9.12    1.87   1
  -6 -11   8    8.88    2.03   1
  -6 -11   9   60.68    3.74   1
  -6 -11  10    8.53    2.63   1
  -6 -11  11    3.20    3.01   1
  -6 -11  12    6.50    3.42   1
  -6 -10 -19    2.50    3.29   1
  -6 -10 -18   14.59    4.28   1
  -6 -10 -17   19.54    4.69   1
  -6 -10 -16    1.21    3.32   1
  -6 -10 -15   44.76    3.48   1
  -6 -10 -14    0.20    1.71   1
  -6 -10 -13   95.84    3.72   1
  -6 -10 -12   22.75    1.91   1
  -6 -10 -11  155.50    4.49   1
  -6 -10 -10    3.50    1.31   1
  -6 -10  -9   11.09    1.20   1
  -6 -10  -8   18.40    1.46   1
  -6 -10  -7   65.12    2.58   1
  -6 -10  -6  134.56    4.18   1
  -6 -10  -5  149.33    5.13   1
  -6 -10  -4   88.92    3.58   1
  -6 -10  -3   -0.90    1.10   1
  -6 -10  -2  591.46   16.05   1
  -6 -10  -1  131.56    4.13   1
  -6 -10   0   15.37    1.57   1
  -6 -10   1    1.80    2.20   1
  -6 -10   2  256.64    8.65   1
  -6 -10   3    0.71    1.41   1
  -6 -10   4   45.16    2.28   1
  -6 -10   5    4.41    1.39   1
  -6 -10   6   -0.59    1.49   1
  -6 -10   7   31.36    2.35   1
  -6 -10   8   45.97    2.85   1
  -6 -10   9   22.28    2.17   1
  -6 -10  10   48.30    2.92   1
  -6 -10  11   38.44    5.70   1
  -6 -10  12   38.07    3.58   1
  -6 -10  13    4.49    4.20   1
  -6  -9 -19   23.14    5.48   1
  -6  -9 -18   19.01    4.62   1
  -6  -9 -17   21.07    4.50   1
  -6  -9 -16   21.34    2.77   1
  -6  -9 -15  111.94    8.25   1
  -6  -9 -14   41.60    3.35   1
  -6  -9 -13   32.72    2.40   1
  -6  -9 -12    9.99    1.58   1
  -6  -9 -11  116.42    3.67   1
  -6  -9 -10   15.29    1.41   1
  -6  -9  -9    2.31    1.22   1
  -6  -9  -8   97.81    3.76   1
  -6  -9  -7    5.52    1.08   1
  -6  -9  -6  183.87    5.42   1
  -6  -9  -5  185.78    5.72   1
  -6  -9  -4  190.44    5.24   1
  -6  -9  -3  352.69    9.77   1
  -6  -9  -2   38.81    2.24   1
  -6  -9  -1  220.82    6.84   1
  -6  -9   0  543.82   14.92   1
  -6  -9   1    3.50    1.31   1
  -6  -9   2    1.99    1.18   1
  -6  -9   3   16.00    1.52   1
  -6  -9   4  279.56    8.03   1
  -6  -9   5   17.89    1.78   1
  -6  -9   6   23.81    2.24   1
  -6  -9   7    2.59    1.71   1
  -6  -9   8   61.47    3.14   1
  -6  -9   9   35.88    2.52   1
  -6  -9  10   98.80    4.37   1
  -6  -9  11    0.30    2.41   1
  -6  -9  12    3.50    2.58   1
  -6  -9  13   10.37    3.09   1
  -6  -8 -19    2.31    4.92   1
  -6  -8 -18   21.90    5.43   1
  -6  -8 -17   13.91    4.18   1
  -6  -8 -16   42.64    3.53   1
  -6  -8 -15   -0.30    1.80   1
  -6  -8 -14   17.64    2.02   1
  -6  -8 -13   46.10    2.44   1
  -6  -8 -12  155.25    5.48   1
  -6  -8 -11   46.10    2.17   1
  -6  -8 -10   -0.79    1.09   1
  -6  -8  -9    1.90    0.91   1
  -6  -8  -8   99.00    2.79   1
  -6  -8  -7   36.60    1.45   1
  -6  -8  -6   42.77    2.75   1
  -6  -8  -5   84.82    2.95   1
  -6  -8  -4    9.49    1.60   1
  -6  -8  -3  427.25   12.40   1
  -6  -8  -2  189.89    6.34   1
  -6  -8  -1  151.04    4.92   1
  -6  -8   0   81.54    4.51   1
  -6  -8   1   56.10    1.95   1
  -6  -8   2  156.50    4.00   1
  -6  -8   3   28.30    2.13   1
  -6  -8   4   70.39    2.85   1
  -6  -8   5    4.80    1.31   1
  -6  -8   6    0.79    1.30   1
  -6  -8   7   87.42    3.37   1
  -6  -8   8  110.25    3.99   1
  -6  -8   9    3.69    1.80   1
  -6  -8  10   13.91    2.24   1
  -6  -8  11   33.18    2.65   1
  -6  -8  12   35.05    3.91   1
  -6  -8  13   -2.79    2.50   1
  -6  -8  14   11.97    3.18   1
  -6  -7 -19    2.79    2.91   1
  -6  -7 -18   63.68    5.59   1
  -6  -7 -17    8.12    3.19   1
  -6  -7 -16   62.25    3.94   1
  -6  -7 -15   46.10    2.99   1
  -6  -7 -14   11.83    1.93   1
  -6  -7 -13   15.76    1.43   1
  -6  -7 -12   43.30    2.24   1
  -6  -7 -11   15.68    1.43   1
  -6  -7 -10    1.00    1.00   1
  -6  -7  -9  201.92    5.97   1
  -6  -7  -8   11.83    1.10   1
  -6  -7  -7  378.30    8.95   1
  -6  -7  -6   24.11    1.67   1
  -6  -7  -5   47.06    2.61   1
  -6  -7  -4   14.52    1.07   1
  -6  -7  -3   33.52    1.97   1
  -6  -7  -2   97.22    4.34   1
  -6  -7  -1  141.61    7.14   1
  -6  -7   0   92.35    2.69   1
  -6  -7   1  121.66    3.31   1
  -6  -7   2   31.92    1.70   1
  -6  -7   3   45.16    1.75   1
  -6  -7   4   90.82    3.43   1
  -6  -7   5   30.36    1.76   1
  -6  -7   6  159.52    4.80   1
  -6  -7   7    0.30    1.41   1
  -6  -7   8    0.20    1.81   1
  -6  -7   9    2.19    1.69   1
  -6  -7  10   64.64    3.54   1
  -6  -7  11    1.49    2.10   1
  -6  -7  12   26.73    2.90   1
  -6  -7  13   -1.21    2.00   1
  -6  -7  14    7.29    2.32   1
  -6  -7  15    2.59    3.70   1
  -6  -6 -19   14.82    3.77   1
  -6  -6 -18   26.21    4.71   1
  -6  -6 -17    1.39    2.69   1
  -6  -6 -16   10.89    2.57   1
  -6  -6 -15    3.39    2.21   1
  -6  -6 -14  147.62    5.10   1
  -6  -6 -13   11.83    1.72   1
  -6  -6 -12   51.12    2.29   1
  -6  -6 -11   36.00    1.92   1
  -6  -6 -10  294.47    8.24   1
  -6  -6  -9   25.20    1.41   1
  -6  -6  -8  122.32    3.54   1
  -6  -6  -7   27.77    1.37   1
  -6  -6  -6   19.18    1.49   1
  -6  -6  -5  188.24    5.76   1
  -6  -6  -4   33.76    1.16   1
  -6  -6  -3  180.90    6.19   1
  -6  -6  -1  409.25   12.54   1
  -6  -6   0   20.16    0.99   1
  -6  -6   1  577.92   16.35   1
  -6  -6   2   18.06    1.28   1
  -6  -6   3   71.23    2.53   1
  -6  -6   4    5.81    1.21   1
  -6  -6   5   24.11    1.37   1
  -6  -6   6   13.76    1.78   1
  -6  -6   7    1.80    1.39   1
  -6  -6   8   56.10    3.00   1
  -6  -6   9  181.71    6.74   1
  -6  -6  10    7.51    1.48   1
  -6  -6  11   28.73    2.68   1
  -6  -6  12  143.52    6.71   1
  -6  -6  13   13.62    2.73   1
  -6  -6  14   68.89    6.14   1
  -6  -6  15    0.79    3.19   1
  -6  -5 -19   -0.30    3.21   1
  -6  -5 -18   17.81    4.47   1
  -6  -5 -17    9.42    2.52   1
  -6  -5 -16   87.05    5.04   1
  -6  -5 -15   10.50    1.68   1
  -6  -5 -14   10.69    1.70   1
  -6  -5 -13    5.71    1.29   1
  -6  -5 -12  535.92   15.28   1
  -6  -5 -11    2.89    1.09   1
  -6  -5 -10  233.48    6.42   1
  -6  -5  -9  519.84   12.77   1
  -6  -5  -8  631.52   21.11   1
  -6  -5  -7  295.15    8.93   1
  -6  -5  -6  538.24   14.85   1
  -6  -5  -5   97.22    4.73   1
  -6  -5  -4  157.00    6.26   1
  -6  -5  -2  274.90    7.96   1
  -6  -5  -1  143.76    4.80   1
  -6  -5   0    6.10    1.19   1
  -6  -5   1  457.10   11.55   1
  -6  -5   2  176.36    5.31   1
  -6  -5   3   75.86    2.44   1
  -6  -5   4   -1.00    1.20   1
  -6  -5   5  131.10    3.44   1
  -6  -5   6  108.16    4.99   1
  -6  -5   7  152.03    4.44   1
  -6  -5   8   -0.90    1.60   1
  -6  -5   9   12.82    1.93   1
  -6  -5  10   20.61    2.09   1
  -6  -5  11   19.54    2.21   1
  -6  -5  12   46.24    3.26   1
  -6  -5  13   35.16    3.44   1
  -6  -5  14   16.97    2.97   1
  -6  -5  15    2.10    2.90   1
  -6  -5  16   13.18    3.48   1
  -6  -4 -19    4.28    3.11   1
  -6  -4 -18   15.21    5.23   1
  -6  -4 -17   45.43    4.58   1
  -6  -4 -16  114.92    9.43   1
  -6  -4 -15   16.16    2.01   1
  -6  -4 -14  220.23    7.72   1
  -6  -4 -13   31.47    1.91   1
  -6  -4 -12    4.28    1.41   1
  -6  -4 -11  258.89    6.76   1
  -6  -4 -10   58.68    2.76   1
  -6  -4  -9   16.97    1.98   1
  -6  -4  -8   11.49    1.63   1
  -6  -4  -7   22.47    1.42   1
  -6  -4  -6    4.41    2.02   1
  -6  -4  -5  213.74    4.97   1
  -6  -4  -2  482.24   23.28   1
  -6  -4  -1   48.16    1.94   1
  -6  -4   0   17.98    1.70   1
  -6  -4   1  642.62   18.25   1
  -6  -4   2  117.72    3.47   1
  -6  -4   3  128.82    3.86   1
  -6  -4   4    6.92    1.00   1
  -6  -4   5  542.89   15.38   1
  -6  -4   6   15.37    1.72   1
  -6  -4   7  117.29    3.68   1
  -6  -4   8  278.56    8.35   1
  -6  -4   9    2.89    1.60   1
  -6  -4  10   22.75    2.48   1
  -6  -4  11   50.55    2.70   1
  -6  -4  12   21.53    2.69   1
  -6  -4  13   25.50    2.53   1
  -6  -4  14   54.46    4.13   1
  -6  -4  15   21.16    3.22   1
  -6  -4  16    5.81    3.52   1
  -6  -3 -19   13.18    4.57   1
  -6  -3 -18   24.90    5.29   1
  -6  -3 -17    6.30    2.71   1
  -6  -3 -16   47.47    3.86   1
  -6  -3 -15    9.80    2.19   1
  -6  -3 -14   -0.30    1.80   1
  -6  -3 -13   32.04    2.49   1
  -6  -3 -12  134.79    5.34   1
  -6  -3 -11   57.61    3.04   1
  -6  -3 -10   22.94    2.30   1
  -6  -3  -9   -0.50    1.41   1
  -6  -3  -8    7.08    0.90   1
  -6  -3  -7   54.76    1.78   1
  -6  -3  -6 1214.52   38.33   1
  -6  -3  -5  144.72    4.57   1
  -6  -3  -4  498.63   14.29   1
  -6  -3  -3 1090.32   51.51   1
  -6  -3  -2  108.37    5.62   1
  -6  -3  -1   28.41    1.39   1
  -6  -3   0   36.24    1.57   1
  -6  -3   1  337.09   10.28   1
  -6  -3   2    3.80    1.01   1
  -6  -3   3  286.29   10.49   1
  -6  -3   4    2.89    0.99   1
  -6  -3   5   15.37    1.80   1
  -6  -3   6  100.00    3.20   1
  -6  -3   7  524.41   12.37   1
  -6  -3   8    2.69    1.51   1
  -6  -3   9  152.03    4.44   1
  -6  -3  10    5.81    1.40   1
  -6  -3  11   30.25    2.64   1
  -6  -3  12    1.90    1.60   1
  -6  -3  13   60.06    3.57   1
  -6  -3  14   23.33    2.70   1
  -6  -3  15   33.52    3.36   1
  -6  -3  16   39.31    4.14   1
  -6  -3  17   14.29    3.63   1
  -6  -2 -19   13.91    5.67   1
  -6  -2 -18    7.90    4.72   1
  -6  -2 -17   89.68    6.06   1
  -6  -2 -16   93.51    5.03   1
  -6  -2 -15   22.47    2.65   1
  -6  -2 -14   13.69    1.70   1
  -6  -2 -13    0.50    1.51   1
  -6  -2 -12   82.45    3.27   1
  -6  -2 -11    0.79    1.00   1
  -6  -2 -10   98.41    3.37   1
  -6  -2  -9   25.10    1.50   1
  -6  -2  -8   72.42    2.38   1
  -6  -2  -7    3.20    0.72   1
  -6  -2  -6    6.92    0.89   1
  -6  -2  -5   19.54    4.86   1
  -6  -2  -4   38.94    1.62   1
  -6  -2  -3    1.99    0.51   1
  -6  -2  -2   49.14    1.96   1
  -6  -2  -1  171.87    5.24   1
  -6  -2   0  271.92    9.23   1
  -6  -2   1  107.33    3.11   1
  -6  -2   2  276.89    8.99   1
  -6  -2   3  388.09   10.24   1
  -6  -2   4    6.40    1.32   1
  -6  -2   5  782.88   18.47   1
  -6  -2   6  580.81   13.98   1
  -6  -2   7  158.00    5.28   1
  -6  -2   8   57.00    2.27   1
  -6  -2   9   44.09    1.86   1
  -6  -2  10   96.83    4.13   1
  -6  -2  11   85.75    4.44   1
  -6  -2  12   23.23    3.08   1
  -6  -2  13    1.30    2.39   1
  -6  -2  14   11.63    2.73   1
  -6  -2  15   25.00    3.10   1
  -6  -2  16   10.82    2.83   1
  -6  -2  17    1.00    2.90   1
  -6  -1 -18   -1.10    5.10   1
  -6  -1 -17   26.01    3.16   1
  -6  -1 -16    1.39    2.29   1
  -6  -1 -15   63.20    3.66   1
  -6  -1 -14   10.30    1.48   1
  -6  -1 -13   13.47    1.61   1
  -6  -1 -12    7.78    1.51   1
  -6  -1 -11   76.21    2.79   1
  -6  -1 -10  180.90    5.38   1
  -6  -1  -9  205.06    5.73   1
  -6  -1  -8    0.20    1.01   1
  -6  -1  -7   15.29    1.17   1
  -6  -1  -6  567.87   14.30   1
  -6  -1  -5  548.03   14.51   1
  -6  -1  -4    2.40    0.81   1
  -6  -1  -3   91.01    3.05   1
  -6  -1  -2  411.68   13.39   1
  -6  -1  -1  205.35    8.31   1
  -6  -1   0   83.72    3.11   1
  -6  -1   1   27.35    1.15   1
  -6  -1   2    5.38    0.79   1
  -6  -1   3   49.56    1.83   1
  -6  -1   4    8.41    0.99   1
  -6  -1   5   15.92    1.20   1
  -6  -1   6   61.00    3.12   1
  -6  -1   7  604.67   19.18   1
  -6  -1   8    8.12    1.88   1
  -6  -1   9  107.33    4.77   1
  -6  -1  10   34.22    3.16   1
  -6  -1  11   26.63    2.99   1
  -6  -1  12   17.72    3.12   1
  -6  -1  13   53.44    4.24   1
  -6  -1  14   18.49    3.61   1
  -6  -1  15   20.70    3.09   1
  -6  -1  16    6.60    4.68   1
  -6  -1  17   21.90    4.77   1
  -6   0 -18   19.71    4.62   1
  -6   0 -17   45.16    5.24   1
  -6   0 -16   -0.30    1.90   1
  -6   0 -15   59.60    4.32   1
  -6   0 -14   19.54    2.03   1
  -6   0 -13    2.89    1.39   1
  -6   0 -12    2.40    1.71   1
  -6   0 -11  185.78    5.45   1
  -6   0 -10   50.27    2.41   1
  -6   0  -9   70.90    2.36   1
  -6   0  -8  292.41    7.18   1
  -6   0  -7   27.77    1.48   1
  -6   0  -6   42.25    1.56   1
  -6   0  -5   94.28    3.11   1
  -6   0  -4  521.21   10.96   1
  -6   0  -3  506.70   15.76   1
  -6   0  -2  110.25    2.94   1
  -6   0  -1   38.44    1.24   1
  -6   0   0   20.52    0.91   1
  -6   0   1  158.00    4.27   1
  -6   0   2  146.41    4.11   1
  -6   0   3  160.78    3.80   1
  -6   0   4    6.00    1.18   1
  -6   0   5  412.90   12.19   1
  -6   0   6  385.34   11.39   1
  -6   0   7   35.52    2.86   1
  -6   0   8   31.92    3.84   1
  -6   0   9  423.54   13.17   1
  -6   0  10   53.29    3.80   1
  -6   0  11   21.34    2.68   1
  -6   0  12   -0.79    2.30   1
  -6   0  13   41.22    3.72   1
  -6   0  14   31.14    4.69   1
  -6   0  15   55.80    5.08   1
  -6   0  16    5.38    3.29   1
  -6   0  17   48.16    8.05   1
  -6   1 -18    7.02    5.51   1
  -6   1 -17    3.39    3.20   1
  -6   1 -16   -5.81    2.99   1
  -6   1 -15   88.55    5.27   1
  -6   1 -14    4.71    1.82   1
  -6   1 -13    6.30    1.71   1
  -6   1 -12    4.41    1.60   1
  -6   1 -11   86.49    3.16   1
  -6   1 -10    9.80    1.38   1
  -6   1  -9   44.89    2.01   1
  -6   1  -8   64.16    2.72   1
  -6   1  -7    9.18    1.09   1
  -6   1  -6    2.50    0.79   1
  -6   1  -5    2.89    0.78   1
  -6   1  -4   52.42    1.45   1
  -6   1  -3    2.19    0.80   1
  -6   1  -2  106.09    2.68   1
  -6   1  -1    2.19    0.80   1
  -6   1   0 1512.43   36.56   1
  -6   1   1  374.42    8.90   1
  -6   1   2  580.33   15.90   1
  -6   1   3   16.73    1.39   1
  -6   1   4  112.57    4.03   1
  -6   1   5    2.59    1.00   1
  -6   1   6  249.96    9.49   1
  -6   1   7  110.67    3.58   1
  -6   1   8   82.63    3.64   1
  -6   1   9   35.16    2.49   1
  -6   1  10  211.70    7.57   1
  -6   1  11    6.30    2.41   1
  -6   1  12   14.52    2.59   1
  -6   1  13   18.49    2.84   1
  -6   1  14    0.00    1.00   1
  -6   1  15    3.31    4.40   1
  -6   1  16    6.40    4.91   1
  -6   1  17   25.30    5.13   1
  -6   1  18    1.80    3.59   1
  -6   2 -17   24.11    5.70   1
  -6   2 -16   12.89    2.87   1
  -6   2 -15    8.12    3.02   1
  -6   2 -14   -0.59    1.79   1
  -6   2 -13   68.56    3.31   1
  -6   2 -12   73.27    3.60   1
  -6   2 -11  274.56    8.95   1
  -6   2 -10   35.52    2.15   1
  -6   2  -9    0.50    1.01   1
  -6   2  -8   39.44    1.88   1
  -6   2  -7   17.72    1.43   1
  -6   2  -6    2.31    1.09   1
  -6   2  -5  287.30    7.12   1
  -6   2  -4    0.30    0.61   1
  -6   2  -3  124.32    3.35   1
  -6   2  -2   64.32    1.92   1
  -6   2  -1  692.22   16.84   1
  -6   2   0  335.62    8.43   1
  -6   2   1   43.56    2.64   1
  -6   2   2 1166.22   32.10   1
  -6   2   3   33.99    1.75   1
  -6   2   4   20.61    1.63   1
  -6   2   5    7.08    1.81   1
  -6   2   6   23.04    2.30   1
  -6   2   7   69.06    2.83   1
  -6   2   8   42.25    3.25   1
  -6   2   9    8.53    2.10   1
  -6   2  10    4.00    2.08   1
  -6   2  11   28.84    2.58   1
  -6   2  12   39.31    3.76   1
  -6   2  13   -0.10    2.53   1
  -6   2  14    8.88    3.10   1
  -6   2  15   45.16    4.97   1
  -6   2  16    5.20    3.60   1
  -6   2  17   26.83    6.42   1
  -6   2  18   15.92    5.67   1
  -6   3 -17   -1.39    3.49   1
  -6   3 -16    5.62    4.50   1
  -6   3 -15   -1.21    2.51   1
  -6   3 -14   28.30    2.66   1
  -6   3 -13    5.29    2.21   1
  -6   3 -12    0.10    1.32   1
  -6   3 -11  124.10    4.68   1
  -6   3 -10   23.23    1.93   1
  -6   3  -9  173.98    5.28   1
  -6   3  -8    1.21    1.41   1
  -6   3  -7    4.41    1.30   1
  -6   3  -6  103.02    3.05   1
  -6   3  -5    3.10    0.70   1
  -6   3  -4   30.03    1.10   1
  -6   3  -3  117.07    3.03   1
  -6   3  -2   38.56    1.49   1
  -6   3  -1   15.29    1.56   1
  -6   3   0  442.68   12.62   1
  -6   3   1   11.29    1.01   1
  -6   3   2    4.49    1.10   1
  -6   3   3   40.83    2.81   1
  -6   3   4   64.32    3.21   1
  -6   3   5   22.28    1.70   1
  -6   3   6  172.92    5.26   1
  -6   3   7  150.31    5.15   1
  -6   3   8   34.81    2.60   1
  -6   3   9   45.97    2.85   1
  -6   3  10  350.06   10.85   1
  -6   3  11    0.59    1.79   1
  -6   3  12   32.26    3.64   1
  -6   3  13   95.26    8.20   1
  -6   3  14   47.47    4.55   1
  -6   3  15   19.54    4.24   1
  -6   3  16   -0.90    3.50   1
  -6   3  17   24.40    5.24   1
  -6   3  18    2.19    4.08   1
  -6   4 -16    7.78    4.91   1
  -6   4 -15    0.10    3.34   1
  -6   4 -14    1.69    2.39   1
  -6   4 -13    0.90    1.90   1
  -6   4 -12   13.99    1.80   1
  -6   4 -11   19.18    2.10   1
  -6   4 -10    0.59    1.19   1
  -6   4  -9    3.10    1.30   1
  -6   4  -8   20.07    1.52   1
  -6   4  -7  270.93    6.91   1
  -6   4  -6    8.88    1.19   1
  -6   4  -5  224.70    6.00   1
  -6   4  -4  189.89    4.13   1
  -6   4  -3  247.75    5.67   1
  -6   4  -2  173.19    5.00   1
  -6   4  -1  900.00   24.60   1
  -6   4   0    0.00    1.00   1
  -6   4   1  171.09    6.54   1
  -6   4   2   85.93    3.15   1
  -6   4   3   12.39    1.69   1
  -6   4   4   12.82    1.72   1
  -6   4   5  305.90    9.79   1
  -6   4   6   41.09    2.56   1
  -6   4   7   95.26    3.71   1
  -6   4   8  210.54    6.96   1
  -6   4   9   27.98    2.43   1
  -6   4  10    4.00    2.08   1
  -6   4  11    3.50    2.28   1
  -6   4  12   80.64    4.49   1
  -6   4  13   12.11    2.51   1
  -6   4  14    1.10    2.60   1
  -6   4  15    6.71    4.61   1
  -6   4  16   -0.10    4.65   1
  -6   4  17   -3.31    5.10   1
  -6   4  18   24.21    6.99   1
  -6   5 -16    1.69    5.28   1
  -6   5 -15    3.69    4.80   1
  -6   5 -14   -0.71    2.02   1
  -6   5 -13    4.08    2.30   1
  -6   5 -12   76.56    3.85   1
  -6   5 -11   35.28    2.38   1
  -6   5 -10   -1.69    1.90   1
  -6   5  -9   96.63    3.34   1
  -6   5  -8    7.67    1.22   1
  -6   5  -7    0.50    1.21   1
  -6   5  -6   13.62    1.18   1
  -6   5  -5    7.51    0.82   1
  -6   5  -4   27.77    1.05   1
  -6   5  -3   42.77    1.44   1
  -6   5  -2    0.10    0.91   1
  -6   5  -1    4.00    1.12   1
  -6   5   0   30.69    1.88   1
  -6   5   1  404.41   10.86   1
  -6   5   2   56.25    2.70   1
  -6   5   3  225.90    6.91   1
  -6   5   4   82.99    2.92   1
  -6   5   5   71.74    3.22   1
  -6   5   6   90.44    3.61   1
  -6   5   7   52.13    3.03   1
  -6   5   8    2.50    1.80   1
  -6   5   9   78.32    4.07   1
  -6   5  10    6.10    2.52   1
  -6   5  11    8.82    2.61   1
  -6   5  12    1.49    2.00   1
  -6   5  13   22.09    2.91   1
  -6   5  14   55.80    5.23   1
  -6   5  15   13.47    4.92   1
  -6   5  16   80.82    8.27   1
  -6   5  17    4.58    4.11   1
  -6   5  18   -0.79    4.68   1
  -6   6 -15   17.47    6.19   1
  -6   6 -14    3.20    2.90   1
  -6   6 -13    3.20    2.00   1
  -6   6 -12    4.58    2.70   1
  -6   6 -11    7.02    1.70   1
  -6   6 -10  147.38    6.07   1
  -6   6  -9    0.79    1.58   1
  -6   6  -8   38.44    2.11   1
  -6   6  -7  163.33    5.11   1
  -6   6  -6   84.64    3.31   1
  -6   6  -5  292.07    6.49   1
  -6   6  -4    0.50    0.60   1
  -6   6  -3   79.57    2.68   1
  -6   6  -2    9.12    1.81   1
  -6   6  -1  297.91    9.67   1
  -6   6   0  116.86    4.11   1
  -6   6   1   19.01    2.53   1
  -6   6   2   41.73    2.33   1
  -6   6   3   79.39    3.21   1
  -6   6   4   16.40    1.70   1
  -6   6   5  275.56    8.30   1
  -6   6   6   14.59    2.06   1
  -6   6   7  114.92    4.29   1
  -6   6   8    8.70    2.48   1
  -6   6   9   45.83    4.74   1
  -6   6  10    3.69    2.61   1
  -6   6  11   22.28    3.12   1
  -6   6  12   34.81    3.42   1
  -6   6  13   11.63    3.27   1
  -6   6  14   25.50    4.65   1
  -6   6  15    6.40    4.10   1
  -6   6  16    1.80    4.21   1
  -6   6  17   -5.38    4.78   1
  -6   7 -14    3.69    3.80   1
  -6   7 -13   -3.10    3.10   1
  -6   7 -12   33.76    2.67   1
  -6   7 -11    3.39    2.10   1
  -6   7 -10   20.34    2.53   1
  -6   7  -9   92.93    3.86   1
  -6   7  -8   62.41    3.00   1
  -6   7  -7    9.12    1.63   1
  -6   7  -6   20.79    1.46   1
  -6   7  -5   98.01    3.37   1
  -6   7  -4   24.01    1.08   1
  -6   7  -3    1.59    0.91   1
  -6   7  -2    2.40    1.39   1
  -6   7  -1   14.82    1.69   1
  -6   7   0   73.44    3.09   1
  -6   7   1    8.88    1.79   1
  -6   7   2   47.61    2.48   1
  -6   7   3  256.32    7.36   1
  -6   7   4   -0.79    1.80   1
  -6   7   5    6.92    1.58   1
  -6   7   6    9.00    1.98   1
  -6   7   7    4.28    1.90   1
  -6   7   8   38.32    3.71   1
  -6   7   9    1.69    1.69   1
  -6   7  10   15.92    2.23   1
  -6   7  11    2.10    4.90   1
  -6   7  12    1.30    2.19   1
  -6   7  13   34.34    4.22   1
  -6   7  14    4.08    4.40   1
  -6   7  15   -0.71    3.51   1
  -6   7  16   26.94    5.81   1
  -6   7  17   20.16    6.29   1
  -6   8 -13    3.80    3.78   1
  -6   8 -12   14.98    3.02   1
  -6   8 -11    2.69    1.90   1
  -6   8 -10   56.55    3.31   1
  -6   8  -9    9.30    1.83   1
  -6   8  -8   19.62    1.86   1
  -6   8  -7   13.03    1.52   1
  -6   8  -6    1.59    1.08   1
  -6   8  -5   70.73    3.20   1
  -6   8  -4   26.73    1.24   1
  -6   8  -3    2.89    1.50   1
  -6   8  -2    6.30    1.71   1
  -6   8  -1   84.46    3.86   1
  -6   8   0    4.88    1.68   1
  -6   8   1    4.00    1.72   1
  -6   8   2    2.10    1.60   1
  -6   8   3  282.24    9.41   1
  -6   8   4  101.40    4.43   1
  -6   8   5   39.44    2.89   1
  -6   8   6   12.32    3.09   1
  -6   8   7    8.70    3.78   1
  -6   8   8   10.82    2.63   1
  -6   8   9   33.18    3.00   1
  -6   8  10   -4.88    2.39   1
  -6   8  11   48.44    3.34   1
  -6   8  12    3.10    3.80   1
  -6   8  13   19.18    3.68   1
  -6   8  14   11.83    4.40   1
  -6   8  15    5.62    3.89   1
  -6   8  16   11.63    6.27   1
  -6   8  17   -2.69    3.90   1
  -6   9 -13   16.40    6.80   1
  -6   9 -12    7.51    4.00   1
  -6   9 -11    2.69    2.10   1
  -6   9 -10    7.40    2.50   1
  -6   9  -9    0.40    1.69   1
  -6   9  -8   49.28    2.67   1
  -6   9  -7   37.58    2.45   1
  -6   9  -6   50.98    2.57   1
  -6   9  -5   24.70    1.69   1
  -6   9  -4   26.21    1.13   1
  -6   9  -3   26.63    2.89   1
  -6   9  -2   24.70    2.98   1
  -6   9  -1    0.30    3.21   1
  -6   9   0   23.33    2.22   1
  -6   9   1   29.59    2.83   1
  -6   9   2    6.81    1.98   1
  -6   9   3   23.43    2.42   1
  -6   9   4   13.03    3.90   1
  -6   9   5   83.36    6.57   1
  -6   9   6   86.86    3.73   1
  -6   9   7   66.75    3.76   1
  -6   9   8   76.74    4.38   1
  -6   9   9   20.43    2.80   1
  -6   9  10    5.81    2.22   1
  -6   9  11   -5.20    3.69   1
  -6   9  12   64.48    4.34   1
  -6   9  13   17.81    3.80   1
  -6   9  14    7.08    4.31   1
  -6   9  15   19.98    5.63   1
  -6   9  16   29.92    4.81   1
  -6  10 -12   -7.40    3.70   1
  -6  10 -11   -2.99    3.81   1
  -6  10 -10   15.37    5.57   1
  -6  10  -9   -1.30    4.40   1
  -6  10  -8    6.20    1.79   1
  -6  10  -7    2.89    1.50   1
  -6  10  -6    3.39    1.10   1
  -6  10  -5    1.99    1.18   1
  -6  10  -4   42.90    2.10   1
  -6  10  -3    1.21    1.80   1
  -6  10  -2    2.99    1.90   1
  -6  10  -1   15.68    2.77   1
  -6  10   0    6.00    2.20   1
  -6  10   1    6.50    2.09   1
  -6  10   2   15.29    2.89   1
  -6  10   3   76.39    4.02   1
  -6  10   4   69.89    4.18   1
  -6  10   5   42.64    3.27   1
  -6  10   6    7.51    2.52   1
  -6  10   7    4.41    2.18   1
  -6  10   8  133.86    6.94   1
  -6  10   9   16.08    2.73   1
  -6  10  10   57.76    5.78   1
  -6  10  11   49.84    5.65   1
  -6  10  12   13.62    4.58   1
  -6  10  13   13.03    5.41   1
  -6  10  14    8.12    3.42   1
  -6  10  15   14.59    5.50   1
  -6  10  16   12.67    6.19   1
  -6  11 -10   14.21    6.33   1
  -6  11  -9    4.71    5.12   1
  -6  11  -8   17.64    3.44   1
  -6  11  -7    3.80    3.59   1
  -6  11  -6   19.18    1.93   1
  -6  11  -5    1.39    0.90   1
  -6  11  -4    6.60    0.98   1
  -6  11  -3   70.22    4.53   1
  -6  11  -2   32.38    3.53   1
  -6  11  -1   22.47    2.65   1
  -6  11   0   41.09    3.85   1
  -6  11   1    9.42    2.52   1
  -6  11   2   49.00    3.50   1
  -6  11   3   12.53    2.48   1
  -6  11   4   21.44    2.69   1
  -6  11   5    0.40    2.09   1
  -6  11   6   14.29    3.33   1
  -6  11   7  164.10    7.43   1
  -6  11   8   10.30    4.17   1
  -6  11   9    2.79    2.81   1
  -6  11  10    4.58    4.58   1
  -6  11  11    4.71    4.21   1
  -6  11  12   18.32    5.14   1
  -6  11  13    5.90    5.01   1
  -6  11  14   -3.50    5.31   1
  -6  11  15    2.79    4.11   1
  -6  12  -9   -1.49    5.69   1
  -6  12  -8   -4.58    3.00   1
  -6  12  -7   15.21    8.58   1
  -6  12  -6   12.39    4.72   1
  -6  12  -5   22.94    4.79   1
  -6  12  -4   10.89    4.22   1
  -6  12  -3    6.50    3.82   1
  -6  12  -2   42.25    3.64   1
  -6  12  -1    7.02    2.49   1
  -6  12   0    5.90    2.38   1
  -6  12   1  123.88    6.01   1
  -6  12   2   14.82    2.39   1
  -6  12   3   -1.10    2.39   1
  -6  12   4   11.29    3.02   1
  -6  12   5   -0.90    2.70   1
  -6  12   6    6.71    2.90   1
  -6  12   7   14.21    4.60   1
  -6  12   8   30.58    3.65   1
  -6  12   9  143.52   11.74   1
  -6  12  10    1.99    4.68   1
  -6  12  11   36.48    5.07   1
  -6  12  12   36.36    5.19   1
  -6  12  13   11.83    4.20   1
  -6  12  14  -10.37    5.22   1
  -6  12  15   56.40    8.56   1
  -6  13  -8   -5.62    4.12   1
  -6  13  -7   -1.21    5.21   1
  -6  13  -6   -1.69    4.19   1
  -6  13  -5   27.35    4.81   1
  -6  13  -4   -1.69    4.99   1
  -6  13  -3    7.62    4.91   1
  -6  13  -2   40.45    5.47   1
  -6  13  -1   -0.40    3.19   1
  -6  13   0   80.46    6.46   1
  -6  13   1    4.28    3.31   1
  -6  13   2    8.82    4.28   1
  -6  13   3    0.50    3.92   1
  -6  13   4  199.94   11.59   1
  -6  13   5   19.01    4.36   1
  -6  13   6   75.69    6.96   1
  -6  13   7   -1.39    3.28   1
  -6  13   8   60.68    6.86   1
  -6  13   9   10.11    5.09   1
  -6  13  10    9.42    3.19   1
  -6  13  11    6.20    3.19   1
  -6  13  12    9.49    4.19   1
  -6  13  13    2.50    4.20   1
  -6  13  14    1.90    3.39   1
  -6  14  -6    3.10    4.01   1
  -6  14  -5   -3.31    5.02   1
  -6  14  -4   -1.99    3.50   1
  -6  14  -3   -2.31    3.22   1
  -6  14  -2    1.10    5.10   1
  -6  14  -1   -3.20    5.41   1
  -6  14   0    3.88    3.98   1
  -6  14   1   -2.10    3.51   1
  -6  14   2   73.10    6.50   1
  -6  14   3   -0.79    4.88   1
  -6  14   4   -1.90    3.31   1
  -6  14   5   10.69    4.90   1
  -6  14   6   71.74    6.27   1
  -6  14   7   16.16    5.07   1
  -6  14   8    9.30    3.78   1
  -6  14   9   13.18    4.72   1
  -6  14  10   -5.02    5.20   1
  -6  14  11   -6.20    5.58   1
  -6  14  12   14.06    6.83   1
  -6  15  -4   -1.39    6.28   1
  -6  15  -3   37.45    6.24   1
  -6  15  -2   44.36    6.13   1
  -6  15  -1   26.94    6.64   1
  -6  15   0   37.33    6.23   1
  -6  15   1    2.79    4.11   1
  -6  15   2    3.50    5.31   1
  -6  15   3   -1.39    4.18   1
  -6  15   4   61.15    7.98   1
  -6  15   7   -2.89    3.91   1
  -6  15   8   34.46    6.81   1
  -6  15   9   15.13    6.54   1
  -6  15  10   54.46    6.05   1
  -6  15  11   12.32    4.77   1
  -6  16  -1   41.22    6.55   1
  -6  16   0   20.16    7.18   1
  -6  16   1    4.41    4.28   1
  -6  16   2   -2.59    5.18   1
  -6  16   3   32.83    5.27   1
  -6  16   4   17.81    5.99   1
  -6  16   5    4.49    3.90   1
  -6  16   7    0.20    4.83   1
  -6  16   8    3.69    4.19   1
  -5 -19  -9    9.92    4.98   1
  -5 -19  -8   18.32    4.11   1
  -5 -19  -7    2.69    4.89   1
  -5 -19  -6    1.80    3.19   1
  -5 -19  -4   15.13    5.13   1
  -5 -19  -3    0.40    3.78   1
  -5 -19  -2   13.10    5.72   1
  -5 -18 -12   -4.80    4.51   1
  -5 -18 -11   11.97    2.98   1
  -5 -18 -10    2.40    4.00   1
  -5 -18  -9   12.18    3.63   1
  -5 -18  -8   30.36    5.62   1
  -5 -18  -7   13.18    4.50   1
  -5 -18  -6   35.88    4.55   1
  -5 -18  -5   -3.69    4.49   1
  -5 -18  -4   11.29    4.17   1
  -5 -18  -3    3.10    4.51   1
  -5 -18  -2   33.06    4.37   1
  -5 -18  -1    5.11    5.02   1
  -5 -18   0   14.59    3.97   1
  -5 -18   1   -2.40    5.80   1
  -5 -18   2    0.79    3.77   1
  -5 -17 -14    2.59    2.99   1
  -5 -17 -13    8.70    4.19   1
  -5 -17 -12    3.88    4.18   1
  -5 -17 -11    7.51    4.00   1
  -5 -17 -10   12.89    3.23   1
  -5 -17  -9    5.02    3.99   1
  -5 -17  -8    5.52    3.01   1
  -5 -17  -7   34.11    3.74   1
  -5 -17  -6   -0.10    2.02   1
  -5 -17  -5   12.53    2.41   1
  -5 -17  -4   23.14    3.37   1
  -5 -17  -3   11.29    3.02   1
  -5 -17  -2    9.42    3.01   1
  -5 -17  -1   13.69    2.52   1
  -5 -17   0   46.92    4.80   1
  -5 -17   1    1.00    3.60   1
  -5 -17   2   14.90    4.01   1
  -5 -17   4   -0.40    3.59   1
  -5 -16 -15   35.64    5.61   1
  -5 -16 -14    1.69    4.19   1
  -5 -16 -13    7.51    3.51   1
  -5 -16 -12    8.41    3.42   1
  -5 -16 -11   42.38    5.34   1
  -5 -16 -10    1.59    2.80   1
  -5 -16  -9   23.81    3.22   1
  -5 -16  -8    1.99    2.09   1
  -5 -16  -7   53.00    3.35   1
  -5 -16  -6   23.23    2.60   1
  -5 -16  -5   -1.49    1.78   1
  -5 -16  -4    4.58    2.01   1
  -5 -16  -3   29.92    2.84   1
  -5 -16  -2   11.70    2.60   1
  -5 -16  -1    0.40    2.29   1
  -5 -16   0    6.10    3.01   1
  -5 -16   1    1.80    2.71   1
  -5 -16   2   22.37    3.31   1
  -5 -16   3   12.32    5.69   1
  -5 -16   4   52.71    5.66   1
  -5 -16   5    7.67    5.60   1
  -5 -15 -16   26.32    5.95   1
  -5 -15 -15    7.08    4.31   1
  -5 -15 -14   42.38    6.12   1
  -5 -15 -13   30.47    5.41   1
  -5 -15 -12    3.69    2.19   1
  -5 -15 -11   11.97    2.28   1
  -5 -15 -10   91.39    4.59   1
  -5 -15  -9   18.58    2.50   1
  -5 -15  -8   32.60    3.20   1
  -5 -15  -7  117.29    5.63   1
  -5 -15  -6    0.79    2.30   1
  -5 -15  -5   17.22    2.24   1
  -5 -15  -4   21.34    2.03   1
  -5 -15  -3   28.09    2.76   1
  -5 -15  -2    8.12    2.51   1
  -5 -15  -1    8.12    2.51   1
  -5 -15   0    5.29    2.21   1
  -5 -15   1   23.72    3.02   1
  -5 -15   2   17.47    2.59   1
  -5 -15   3    0.59    4.28   1
  -5 -15   4    5.20    2.69   1
  -5 -15   5   25.81    3.35   1
  -5 -15   6   38.32    6.07   1
  -5 -14 -17    2.89    4.59   1
  -5 -14 -16   44.36    5.46   1
  -5 -14 -15   -6.40    3.80   1
  -5 -14 -14   20.34    3.34   1
  -5 -14 -13   25.00    2.70   1
  -5 -14 -12   89.87    3.98   1
  -5 -14 -11    4.20    2.50   1
  -5 -14 -10    9.18    2.18   1
  -5 -14  -9    2.89    1.70   1
  -5 -14  -8   32.95    2.53   1
  -5 -14  -7   24.50    2.57   1
  -5 -14  -6   42.38    3.26   1
  -5 -14  -5    1.90    1.49   1
  -5 -14  -4   51.27    3.15   1
  -5 -14  -3  133.17    6.00   1
  -5 -14  -2    7.51    2.30   1
  -5 -14  -1   16.40    2.19   1
  -5 -14   0   22.18    2.83   1
  -5 -14   1   69.22    4.16   1
  -5 -14   2   -4.88    2.48   1
  -5 -14   3   18.92    3.48   1
  -5 -14   4   22.00    2.91   1
  -5 -14   5   27.88    3.38   1
  -5 -14   6    4.71    2.82   1
  -5 -14   7   34.93    5.67   1
  -5 -14   8   24.50    5.54   1
  -5 -14   9   -0.20    3.73   1
  -5 -13 -17   -0.30    4.21   1
  -5 -13 -16   56.10    6.14   1
  -5 -13 -15   11.83    4.40   1
  -5 -13 -14  141.61    7.85   1
  -5 -13 -13   34.57    2.82   1
  -5 -13 -12   15.37    2.12   1
  -5 -13 -11    7.29    1.78   1
  -5 -13 -10   37.70    2.46   1
  -5 -13  -9   52.85    2.91   1
  -5 -13  -8   38.94    2.75   1
  -5 -13  -7   33.41    2.54   1
  -5 -13  -6  115.35    4.30   1
  -5 -13  -5  176.36    6.11   1
  -5 -13  -4    6.92    1.58   1
  -5 -13  -3   55.95    2.69   1
  -5 -13  -2  121.22    5.28   1
  -5 -13  -1  174.24    7.39   1
  -5 -13   0   -0.71    2.02   1
  -5 -13   1    7.62    1.88   1
  -5 -13   2   12.11    2.51   1
  -5 -13   3   28.41    4.16   1
  -5 -13   4   -1.49    3.29   1
  -5 -13   5   16.08    2.17   1
  -5 -13   6    6.20    2.59   1
  -5 -13   7    1.80    2.09   1
  -5 -13   8   63.52    6.85   1
  -5 -13   9    0.59    4.77   1
  -5 -12 -18   17.98    4.92   1
  -5 -12 -17    9.12    4.23   1
  -5 -12 -16   28.84    3.65   1
  -5 -12 -15    0.79    1.58   1
  -5 -12 -14   35.28    2.61   1
  -5 -12 -13   -0.79    1.58   1
  -5 -12 -12  143.04    5.26   1
  -5 -12 -11    0.30    1.71   1
  -5 -12 -10    5.02    1.52   1
  -5 -12  -9   59.14    3.08   1
  -5 -12  -8  147.14    5.34   1
  -5 -12  -7   10.63    1.83   1
  -5 -12  -6   41.86    2.20   1
  -5 -12  -5    4.71    1.69   1
  -5 -12  -4   20.07    1.79   1
  -5 -12  -3  356.45   10.95   1
  -5 -12  -2    8.41    1.51   1
  -5 -12  -1    6.40    1.82   1
  -5 -12   0   45.56    2.83   1
  -5 -12   1   94.67    4.09   1
  -5 -12   2    2.40    1.71   1
  -5 -12   3   49.98    4.24   1
  -5 -12   4    9.80    2.32   1
  -5 -12   5   57.00    3.78   1
  -5 -12   6   -0.90    2.11   1
  -5 -12   7  137.12    6.56   1
  -5 -12   8   -0.20    3.01   1
  -5 -12   9   28.84    5.37   1
  -5 -12  10   34.57    4.47   1
  -5 -12  11   -5.52    6.02   1
  -5 -11 -18   40.45    5.34   1
  -5 -11 -17   10.63    4.43   1
  -5 -11 -16   15.52    2.99   1
  -5 -11 -15   -0.71    2.50   1
  -5 -11 -14   62.73    3.33   1
  -5 -11 -13    2.31    1.40   1
  -5 -11 -12  153.76    5.21   1
  -5 -11 -11   31.36    2.24   1
  -5 -11 -10    8.41    1.51   1
  -5 -11  -9  154.01    4.72   1
  -5 -11  -8  128.37    4.53   1
  -5 -11  -7   74.82    2.94   1
  -5 -11  -6  183.06    5.41   1
  -5 -11  -5    0.20    1.41   1
  -5 -11  -4  316.13   10.31   1
  -5 -11  -3   19.18    1.84   1
  -5 -11  -2   32.95    2.07   1
  -5 -11  -1   84.27    3.67   1
  -5 -11   0    0.59    1.09   1
  -5 -11   1   11.70    1.78   1
  -5 -11   2    3.50    1.91   1
  -5 -11   3   94.67    6.81   1
  -5 -11   4   66.75    3.43   1
  -5 -11   5   73.44    4.11   1
  -5 -11   6    6.81    2.61   1
  -5 -11   7    2.31    2.01   1
  -5 -11   8    3.69    2.61   1
  -5 -11   9   89.87    4.55   1
  -5 -11  10    3.20    2.18   1
  -5 -11  11   10.11    2.61   1
  -5 -11  12   12.82    2.79   1
  -5 -10 -19    4.28    4.60   1
  -5 -10 -18   57.46    5.61   1
  -5 -10 -17   17.81    4.47   1
  -5 -10 -16    0.90    2.39   1
  -5 -10 -15   24.60    2.88   1
  -5 -10 -14   38.81    2.37   1
  -5 -10 -13   45.02    2.55   1
  -5 -10 -12    7.67    1.38   1
  -5 -10 -11   14.29    1.59   1
  -5 -10 -10   30.36    2.42   1
  -5 -10  -9   25.81    1.93   1
  -5 -10  -8   34.57    1.76   1
  -5 -10  -7    7.02    1.38   1
  -5 -10  -6   16.08    1.68   1
  -5 -10  -5  118.59    3.70   1
  -5 -10  -4  203.06    5.98   1
  -5 -10  -3   42.77    2.09   1
  -5 -10  -2  220.23    8.61   1
  -5 -10  -1   29.48    1.95   1
  -5 -10   0  143.28    5.99   1
  -5 -10   1    8.58    1.17   1
  -5 -10   2   22.94    1.92   1
  -5 -10   3   71.57    3.38   1
  -5 -10   4    2.69    1.51   1
  -5 -10   5   23.43    2.61   1
  -5 -10   6    1.59    1.99   1
  -5 -10   7  106.09    4.12   1
  -5 -10   8   20.43    1.99   1
  -5 -10   9   24.40    2.37   1
  -5 -10  10    7.40    2.01   1
  -5 -10  11   22.18    3.01   1
  -5 -10  12    1.30    1.80   1
  -5 -10  13   32.49    3.65   1
  -5  -9 -19   25.81    5.18   1
  -5  -9 -18    6.71    4.20   1
  -5  -9 -17   21.81    3.08   1
  -5  -9 -16   21.72    3.08   1
  -5  -9 -15    9.67    2.49   1
  -5  -9 -14    9.61    1.61   1
  -5  -9 -13  178.49    8.02   1
  -5  -9 -12   57.76    2.74   1
  -5  -9 -11   90.25    4.18   1
  -5  -9 -10    2.19    1.30   1
  -5  -9  -9  150.06    4.16   1
  -5  -9  -8   10.69    1.37   1
  -5  -9  -7  179.83    4.83   1
  -5  -9  -6   13.32    1.17   1
  -5  -9  -5    4.00    1.12   1
  -5  -9  -4  154.50    5.22   1
  -5  -9  -3   20.98    1.37   1
  -5  -9  -2  147.38    5.10   1
  -5  -9  -1  172.40    5.25   1
  -5  -9   0   59.29    2.16   1
  -5  -9   1    3.80    1.40   1
  -5  -9   2  120.34    8.12   1
  -5  -9   3   22.75    1.91   1
  -5  -9   4    5.90    1.12   1
  -5  -9   5   47.75    2.49   1
  -5  -9   6  293.44    9.25   1
  -5  -9   7   13.62    1.77   1
  -5  -9   8   37.21    2.32   1
  -5  -9   9   85.56    3.51   1
  -5  -9  10    1.80    2.01   1
  -5  -9  11   25.30    2.92   1
  -5  -9  12    9.49    2.40   1
  -5  -9  13   15.37    2.20   1
  -5  -9  14    1.00    2.20   1
  -5  -8 -19   23.04    4.70   1
  -5  -8 -18   -1.80    4.40   1
  -5  -8 -17    6.40    4.00   1
  -5  -8 -16    0.20    1.91   1
  -5  -8 -15   32.95    3.21   1
  -5  -8 -14   17.89    1.86   1
  -5  -8 -13   72.25    3.06   1
  -5  -8 -12    3.20    1.22   1
  -5  -8 -11   23.23    1.54   1
  -5  -8 -10    0.00    1.00   1
  -5  -8  -9   17.72    1.18   1
  -5  -8  -8  235.62    6.45   1
  -5  -8  -7   13.69    1.11   1
  -5  -8  -6   10.50    1.10   1
  -5  -8  -5   61.47    2.04   1
  -5  -8  -4    0.00    1.00   1
  -5  -8  -3   80.28    3.58   1
  -5  -8  -2   14.67    2.30   1
  -5  -8  -1   99.60    3.59   1
  -5  -8   0  651.27   24.50   1
  -5  -8   1   -1.30    0.89   1
  -5  -8   2   -1.21    1.61   1
  -5  -8   3   14.36    1.29   1
  -5  -8   4  388.88   10.25   1
  -5  -8   5    3.69    1.00   1
  -5  -8   6   -2.19    1.30   1
  -5  -8   7  111.09    3.79   1
  -5  -8   8    1.39    1.20   1
  -5  -8   9    1.69    1.69   1
  -5  -8  10    3.10    1.90   1
  -5  -8  11   82.08    4.17   1
  -5  -8  12    4.58    2.70   1
  -5  -8  13   26.63    2.89   1
  -5  -8  14   -1.49    2.10   1
  -5  -7 -19   12.82    4.22   1
  -5  -7 -18   12.39    3.17   1
  -5  -7 -17   52.56    4.20   1
  -5  -7 -16   14.21    2.41   1
  -5  -7 -15    8.12    1.99   1
  -5  -7 -14    2.31    1.61   1
  -5  -7 -13  248.06    7.25   1
  -5  -7 -12   83.91    3.11   1
  -5  -7 -11   72.76    2.56   1
  -5  -7 -10   99.00    2.99   1
  -5  -7  -9    4.88    1.19   1
  -5  -7  -8    1.59    0.81   1
  -5  -7  -7   19.89    1.34   1
  -5  -7  -6   24.70    1.19   1
  -5  -7  -5  391.25   11.08   1
  -5  -7  -4  870.84   24.79   1
  -5  -7  -3  208.80    6.07   1
  -5  -7  -2  447.75   13.12   1
  -5  -7  -1   55.95    2.24   1
  -5  -7   0 1360.87   42.05   1
  -5  -7   1   21.07    1.74   1
  -5  -7   2  384.94   13.34   1
  -5  -7   3  115.78    3.44   1
  -5  -7   4   29.70    1.63   1
  -5  -7   5   64.96    2.74   1
  -5  -7   6   24.50    1.58   1
  -5  -7   7   77.97    2.83   1
  -5  -7   8  114.49    4.28   1
  -5  -7   9    0.79    1.69   1
  -5  -7  10   -0.10    1.52   1
  -5  -7  11   10.63    2.09   1
  -5  -7  12   52.13    3.18   1
  -5  -7  13   26.52    2.78   1
  -5  -7  14   -1.59    3.10   1
  -5  -7  15   48.86    4.75   1
  -5  -6 -19   -0.50    3.21   1
  -5  -6 -18   50.41    4.26   1
  -5  -6 -17   31.25    4.70   1
  -5  -6 -16    1.49    3.49   1
  -5  -6 -15  114.70    8.14   1
  -5  -6 -14   32.15    2.04   1
  -5  -6 -13   46.65    2.73   1
  -5  -6 -12   10.37    1.42   1
  -5  -6 -11  119.90    3.72   1
  -5  -6 -10   19.62    1.59   1
  -5  -6  -9  255.04    6.39   1
  -5  -6  -8  107.54    3.11   1
  -5  -6  -7   29.27    1.30   1
  -5  -6  -6  355.70   10.94   1
  -5  -6  -5 1206.87   33.35   1
  -5  -6  -4    6.00    0.88   1
  -5  -6  -3  513.93   23.58   1
  -5  -6  -2  796.93   34.44   1
  -5  -6  -1   33.64    1.39   1
  -5  -6   0    2.59    1.09   1
  -5  -6   1   41.34    1.67   1
  -5  -6   2  440.16   10.91   1
  -5  -6   3   15.52    1.42   1
  -5  -6   4    5.29    1.20   1
  -5  -6   5  449.02   12.29   1
  -5  -6   6   24.60    1.59   1
  -5  -6   7   -0.20    1.11   1
  -5  -6   8    0.00    1.00   1
  -5  -6   9    2.40    1.39   1
  -5  -6  10    2.40    1.30   1
  -5  -6  11   22.75    2.19   1
  -5  -6  12   19.10    2.10   1
  -5  -6  13  148.60    9.51   1
  -5  -6  14    2.50    2.81   1
  -5  -6  15    0.50    3.21   1
  -5  -6  16    6.81    2.40   1
  -5  -5 -19   27.88    4.65   1
  -5  -5 -18    9.92    2.71   1
  -5  -5 -17   -0.20    2.41   1
  -5  -5 -16   18.84    2.69   1
  -5  -5 -15   19.36    2.02   1
  -5  -5 -14   -0.79    1.39   1
  -5  -5 -13   33.99    2.22   1
  -5  -5 -12   16.73    1.72   1
  -5  -5 -11  137.59    6.10   1
  -5  -5 -10    0.40    1.00   1
  -5  -5  -9  113.42    3.19   1
  -5  -5  -8    4.00    1.20   1
  -5  -5  -7  343.73    8.16   1
  -5  -5  -6   35.05    2.01   1
  -5  -5  -5  186.87    7.11   1
  -5  -5  -4  924.77   37.10   1
  -5  -5  -3  145.93    6.28   1
  -5  -5  -2   45.56    2.43   1
  -5  -5  -1    9.61    0.93   1
  -5  -5   0   42.64    1.44   1
  -5  -5   1   83.36    3.83   1
  -5  -5   2  713.96   23.51   1
  -5  -5   3  173.98    5.01   1
  -5  -5   4   31.70    1.58   1
  -5  -5   5  114.28    3.21   1
  -5  -5   6  918.70   21.22   1
  -5  -5   7   75.34    2.78   1
  -5  -5   8  154.75    4.73   1
  -5  -5   9   70.73    2.86   1
  -5  -5  10    5.52    1.79   1
  -5  -5  11   32.72    2.29   1
  -5  -5  12   28.73    2.04   1
  -5  -5  13    3.88    1.89   1
  -5  -5  14   57.46    4.09   1
  -5  -5  15   35.64    6.81   1
  -5  -5  16    4.58    2.91   1
  -5  -4 -19    3.88    3.39   1
  -5  -4 -18   61.62    5.34   1
  -5  -4 -17   43.16    3.55   1
  -5  -4 -16   26.01    4.69   1
  -5  -4 -15   48.02    2.91   1
  -5  -4 -14   10.30    1.48   1
  -5  -4 -13    3.10    1.41   1
  -5  -4 -12   23.72    1.46   1
  -5  -4 -11  207.94    6.34   1
  -5  -4 -10  134.56    4.87   1
  -5  -4  -9  864.36   24.11   1
  -5  -4  -8    0.59    0.80   1
  -5  -4  -7  217.86    5.90   1
  -5  -4  -6   17.39    2.09   1
  -5  -4  -5 2149.25   59.34   1
  -5  -4  -4  359.48    8.72   1
  -5  -4  -3   11.02    0.53   1
  -5  -4  -2   72.25    2.04   1
  -5  -4  -1   91.01    3.24   1
  -5  -4   0  109.83    4.19   1
  -5  -4   1   80.46    2.33   1
  -5  -4   2  187.96    8.77   1
  -5  -4   3  536.85   14.83   1
  -5  -4   4 1375.67   43.77   1
  -5  -4   5   32.15    1.59   1
  -5  -4   6  330.88    8.73   1
  -5  -4   7   23.72    1.95   1
  -5  -4   8  176.89    6.12   1
  -5  -4   9   44.36    2.26   1
  -5  -4  10   52.71    3.34   1
  -5  -4  11    0.10    1.72   1
  -5  -4  12  119.46    4.81   1
  -5  -4  13   -4.08    2.10   1
  -5  -4  14   46.65    3.96   1
  -5  -4  15    9.00    3.48   1
  -5  -4  16   32.95    3.79   1
  -5  -4  17   24.21    3.74   1
  -5  -3 -19    9.18    5.21   1
  -5  -3 -18    0.20    4.63   1
  -5  -3 -17   -0.59    2.68   1
  -5  -3 -16   93.32    8.89   1
  -5  -3 -15   15.68    1.90   1
  -5  -3 -14   14.59    2.22   1
  -5  -3 -13    2.10    1.51   1
  -5  -3 -12   34.46    2.00   1
  -5  -3 -11   11.42    1.42   1
  -5  -3 -10    1.99    1.18   1
  -5  -3  -9   19.54    1.24   1
  -5  -3  -8   22.94    1.25   1
  -5  -3  -7  460.96   12.02   1
  -5  -3  -6  124.10    4.46   1
  -5  -3  -5  112.57    5.30   1
  -5  -3  -4   43.16    1.45   1
  -5  -3  -2 1280.21   59.39   1
  -5  -3  -1  596.34   16.61   1
  -5  -3   0   92.54    3.66   1
  -5  -3   1   14.90    0.93   1
  -5  -3   2   31.70    1.35   1
  -5  -3   3  362.14    9.52   1
  -5  -3   4   11.29    1.08   1
  -5  -3   5   88.36    3.01   1
  -5  -3   6  647.19   16.28   1
  -5  -3   7   18.92    1.48   1
  -5  -3   8   45.02    2.15   1
  -5  -3   9   10.63    1.63   1
  -5  -3  10   68.23    2.97   1
  -5  -3  11   21.81    1.87   1
  -5  -3  12   76.04    3.66   1
  -5  -3  13   -0.10    1.62   1
  -5  -3  14   80.64    4.67   1
  -5  -3  15   13.03    2.82   1
  -5  -3  16    5.81    3.42   1
  -5  -3  17   19.36    3.52   1
  -5  -2 -19    3.80    5.89   1
  -5  -2 -18   42.12    8.18   1
  -5  -2 -17    9.00    2.88   1
  -5  -2 -16   15.13    3.19   1
  -5  -2 -15    9.49    1.91   1
  -5  -2 -14  124.99    5.59   1
  -5  -2 -13    0.00    1.00   1
  -5  -2 -12  133.63    5.32   1
  -5  -2 -11    2.40    2.11   1
  -5  -2 -10   15.29    1.41   1
  -5  -2  -9    0.00    1.00   1
  -5  -2  -8    0.50    1.01   1
  -5  -2  -7    3.80    0.82   1
  -5  -2  -6   18.58    1.29   1
  -5  -2  -5 1371.22   44.44   1
  -5  -2  -4   22.09    2.26   1
  -5  -2  -3  487.08   15.89   1
  -5  -2  -2  341.14    9.23   1
  -5  -2  -1   83.36    2.92   1
  -5  -2   0   84.64    2.94   1
  -5  -2   1   32.49    1.25   1
  -5  -2   2   23.72    0.97   1
  -5  -2   3  199.09    5.08   1
  -5  -2   4    5.90    1.22   1
  -5  -2   5   66.42    2.28   1
  -5  -2   6  123.21    3.55   1
  -5  -2   7    4.41    1.51   1
  -5  -2   8   14.90    2.08   1
  -5  -2   9    0.00    1.00   1
  -5  -2  10  147.62    8.50   1
  -5  -2  11    0.00    1.00   1
  -5  -2  12    3.50    1.91   1
  -5  -2  13   -1.90    2.29   1
  -5  -2  14   74.82    6.40   1
  -5  -2  15    6.81    4.38   1
  -5  -2  16    7.67    3.88   1
  -5  -2  17   19.01    3.40   1
  -5  -1 -19   31.25    5.14   1
  -5  -1 -18   70.22    5.03   1
  -5  -1 -17   -1.10    3.11   1
  -5  -1 -16   51.98    4.18   1
  -5  -1 -15    1.00    1.60   1
  -5  -1 -14   23.52    2.23   1
  -5  -1 -13   60.06    2.94   1
  -5  -1 -12    8.12    1.71   1
  -5  -1 -11  154.26    4.72   1
  -5  -1 -10  292.75    8.90   1
  -5  -1  -9   11.29    1.28   1
  -5  -1  -8   13.47    1.03   1
  -5  -1  -7  747.48   22.42   1
  -5  -1  -6   37.09    1.83   1
  -5  -1  -5   79.39    2.32   1
  -5  -1  -4  299.64    9.69   1
  -5  -1  -3   67.57    1.97   1
  -5  -1  -2  823.69   31.00   1
  -5  -1  -1   84.82    2.58   1
  -5  -1   0    9.18    0.79   1
  -5  -1   1  199.94    5.94   1
  -5  -1   2  345.96   11.53   1
  -5  -1   3 1175.80   32.23   1
  -5  -1   4    3.20    1.11   1
  -5  -1   5  625.00   18.00   1
  -5  -1   6  205.64    6.31   1
  -5  -1   7   15.21    2.03   1
  -5  -1   8  183.60    6.23   1
  -5  -1   9  315.77    9.60   1
  -5  -1  10   13.03    2.24   1
  -5  -1  11   17.89    2.28   1
  -5  -1  12   16.16    2.09   1
  -5  -1  13   34.46    3.87   1
  -5  -1  14   10.18    4.08   1
  -5  -1  15    8.53    3.21   1
  -5  -1  16   31.47    6.06   1
  -5  -1  17   -1.21    3.61   1
  -5  -1  18   56.40    7.06   1
  -5   0 -18   17.81    5.23   1
  -5   0 -17   52.56    5.07   1
  -5   0 -16   27.04    3.22   1
  -5   0 -15    7.02    2.70   1
  -5   0 -14   11.70    2.53   1
  -5   0 -13    3.61    2.09   1
  -5   0 -12   61.94    3.31   1
  -5   0 -11   36.00    1.80   1
  -5   0 -10   25.81    1.93   1
  -5   0  -9   20.98    1.47   1
  -5   0  -8    9.30    1.52   1
  -5   0  -7    2.31    0.79   1
  -5   0  -6 1512.43   36.56   1
  -5   0  -5   43.30    3.29   1
  -5   0  -4  143.28    3.35   1
  -5   0  -3  214.62    4.69   1
  -5   0  -2 1440.96   48.59   1
  -5   0  -1   73.62    2.06   1
  -5   0   0   52.42    1.74   1
  -5   0   1  395.61   10.34   1
  -5   0   2  201.07    5.67   1
  -5   0   3   27.14    2.61   1
  -5   0   4  460.96   14.17   1
  -5   0   5   79.57    3.21   1
  -5   0   6   49.70    2.82   1
  -5   0   7   73.62    2.75   1
  -5   0   8    2.89    1.60   1
  -5   0   9    3.39    1.80   1
  -5   0  10   11.97    1.87   1
  -5   0  11  273.90   16.22   1
  -5   0  12   13.76    2.60   1
  -5   0  13   43.16    3.42   1
  -5   0  14   12.89    2.87   1
  -5   0  15   20.16    4.40   1
  -5   0  16   11.70    3.63   1
  -5   0  17    4.49    3.60   1
  -5   0  18    4.28    5.51   1
  -5   1 -18   11.22    4.22   1
  -5   1 -17    5.29    2.48   1
  -5   1 -16   54.76    4.29   1
  -5   1 -15   17.81    2.70   1
  -5   1 -14    2.10    2.49   1
  -5   1 -13    7.62    2.48   1
  -5   1 -12   47.06    2.61   1
  -5   1 -11    3.39    1.99   1
  -5   1 -10  221.71    5.96   1
  -5   1  -9    7.02    1.38   1
  -5   1  -8    0.30    1.00   1
  -5   1  -7   -1.39    0.90   1
  -5   1  -6    1.69    0.70   1
  -5   1  -5    0.71    0.91   1
  -5   1  -4  423.54    9.47   1
  -5   1  -3  318.62    7.14   1
  -5   1  -2  410.47   10.13   1
  -5   1  -1  595.36   15.13   1
  -5   1   0   12.32    0.77   1
  -5   1   1   23.14    1.44   1
  -5   1   2  323.28    9.71   1
  -5   1   3  177.42    5.59   1
  -5   1   4  300.68    9.02   1
  -5   1   5  274.23    7.62   1
  -5   1   6  676.00   21.32   1
  -5   1   7  208.80    6.07   1
  -5   1   8    1.80    1.50   1
  -5   1   9  130.87    5.26   1
  -5   1  10    0.00    1.00   1
  -5   1  11  109.83    7.55   1
  -5   1  12  190.99    7.19   1
  -5   1  13   32.15    3.52   1
  -5   1  14   39.06    3.38   1
  -5   1  15    6.20    3.09   1
  -5   1  16    5.62    4.79   1
  -5   1  17    6.20    5.28   1
  -5   1  18   45.02    5.77   1
  -5   2 -18   -6.50    5.00   1
  -5   2 -17   40.58    6.88   1
  -5   2 -16    1.30    3.40   1
  -5   2 -15   15.92    3.11   1
  -5   2 -14    2.19    2.49   1
  -5   2 -13   44.36    3.33   1
  -5   2 -12   37.33    2.93   1
  -5   2 -11   10.37    2.13   1
  -5   2 -10    2.50    1.30   1
  -5   2  -9    8.01    1.19   1
  -5   2  -8  135.96    3.96   1
  -5   2  -7  175.03    5.03   1
  -5   2  -6   17.72    1.09   1
  -5   2  -5   76.21    2.27   1
  -5   2  -4    0.30    0.61   1
  -5   2  -3    1.59    0.60   1
  -5   2  -2 1025.92   24.34   1
  -5   2  -1   12.18    0.98   1
  -5   2   0   27.77    1.37   1
  -5   2   1 2003.46   59.98   1
  -5   2   2  447.75   13.12   1
  -5   2   3  349.32   10.09   1
  -5   2   4 1025.28   29.46   1
  -5   2   5 1104.23   30.57   1
  -5   2   6   11.83    1.38   1
  -5   2   7  192.10    6.65   1
  -5   2   8   23.43    2.32   1
  -5   2   9   42.25    3.64   1
  -5   2  10   17.72    2.19   1
  -5   2  11   40.45    3.31   1
  -5   2  12   -0.79    1.69   1
  -5   2  13   58.68    3.83   1
  -5   2  14   28.52    3.31   1
  -5   2  15   -1.00    2.70   1
  -5   2  16    2.10    2.70   1
  -5   2  17   15.13    4.12   1
  -5   2  18   23.52    6.30   1
  -5   3 -17   11.29    4.97   1
  -5   3 -16    4.08    2.50   1
  -5   3 -15   15.29    2.42   1
  -5   3 -14    3.80    2.18   1
  -5   3 -13   39.44    3.27   1
  -5   3 -12    3.88    2.29   1
  -5   3 -11    9.61    1.92   1
  -5   3 -10  148.11    5.35   1
  -5   3  -9   77.79    3.70   1
  -5   3  -8   90.63    2.86   1
  -5   3  -7  268.30    9.83   1
  -5   3  -6  410.87   10.14   1
  -5   3  -5  401.20   10.42   1
  -5   3  -4   21.90    0.84   1
  -5   3  -3   38.69    1.12   1
  -5   3  -2  296.53    6.89   1
  -5   3  -1   87.42    2.99   1
  -5   3   0  100.60    3.01   1
  -5   3   1    0.00    1.00   1
  -5   3   2  335.99    9.16   1
  -5   3   3  309.41    8.80   1
  -5   3   4   73.44    2.57   1
  -5   3   5  411.28   10.55   1
  -5   3   6   49.70    2.26   1
  -5   3   7   93.32    4.25   1
  -5   3   8   20.98    1.92   1
  -5   3   9  132.02    5.52   1
  -5   3  10   -1.39    2.19   1
  -5   3  11   21.62    2.98   1
  -5   3  12    9.49    2.53   1
  -5   3  13   63.36    3.98   1
  -5   3  14   17.64    3.53   1
  -5   3  15   80.64    7.00   1
  -5   3  16    6.50    4.59   1
  -5   3  17    4.80    4.38   1
  -5   3  18   21.72    6.06   1
  -5   4 -17   24.21    6.89   1
  -5   4 -16   13.91    4.77   1
  -5   4 -15    3.31    3.20   1
  -5   4 -14   10.89    2.71   1
  -5   4 -13    3.39    1.91   1
  -5   4 -12    8.70    2.71   1
  -5   4 -11  121.22    5.51   1
  -5   4 -10    6.81    1.72   1
  -5   4  -9    8.53    1.81   1
  -5   4  -8  193.21    5.56   1
  -5   4  -7    2.59    1.29   1
  -5   4  -6  100.40    3.21   1
  -5   4  -5  242.74    6.23   1
  -5   4  -4   -0.59    0.49   1
  -5   4  -3   95.45    2.15   1
  -5   4  -2  409.66    9.72   1
  -5   4  -1   70.06    2.68   1
  -5   4   0   81.18    2.52   1
  -5   4   1  198.81    5.36   1
  -5   4   2  551.31   14.09   1
  -5   4   3  102.62    3.44   1
  -5   4   4   50.55    2.28   1
  -5   4   5  196.56    5.61   1
  -5   4   6    7.02    1.59   1
  -5   4   7  202.21    6.83   1
  -5   4   8  104.45    3.68   1
  -5   4   9  324.00    9.36   1
  -5   4  10  146.41    5.57   1
  -5   4  11    4.88    2.08   1
  -5   4  12   71.74    4.40   1
  -5   4  13   60.06    4.03   1
  -5   4  14   19.89    4.46   1
  -5   4  15    1.10    4.01   1
  -5   4  16   35.05    5.92   1
  -5   4  17   58.37    6.72   1
  -5   4  18    1.21    5.92   1
  -5   5 -16   13.76    3.41   1
  -5   5 -15    4.80    4.82   1
  -5   5 -14   48.16    4.16   1
  -5   5 -13   12.18    2.58   1
  -5   5 -12    2.19    1.98   1
  -5   5 -11   11.83    3.03   1
  -5   5 -10    7.90    2.30   1
  -5   5  -9   45.83    2.84   1
  -5   5  -8   31.36    2.58   1
  -5   5  -7   56.70    2.26   1
  -5   5  -6   34.46    1.64   1
  -5   5  -5   58.68    1.99   1
  -5   5  -4   94.28    2.14   1
  -5   5  -3  119.90    2.85   1
  -5   5  -2   58.22    2.75   1
  -5   5  -1  168.22    5.45   1
  -5   5   0  449.02   12.71   1
  -5   5   1  115.13    3.65   1
  -5   5   2  135.72    4.19   1
  -5   5   3   68.23    3.47   1
  -5   5   4    0.71    1.21   1
  -5   5   5  171.35    5.76   1
  -5   5   6  121.22    5.51   1
  -5   5   7   16.40    1.78   1
  -5   5   8   18.32    2.40   1
  -5   5   9   12.39    2.39   1
  -5   5  10   -1.99    2.28   1
  -5   5  11    8.41    2.20   1
  -5   5  12   -1.80    2.30   1
  -5   5  13  114.70    5.36   1
  -5   5  14   -6.00    3.92   1
  -5   5  15   60.68    6.54   1
  -5   5  16    5.62    4.41   1
  -5   5  17    3.61    3.12   1
  -5   5  18   -5.02    3.81   1
  -5   6 -16    3.61    5.32   1
  -5   6 -15    4.41    3.32   1
  -5   6 -14   19.10    5.33   1
  -5   6 -13   21.90    3.18   1
  -5   6 -12    6.40    2.99   1
  -5   6 -11   40.96    3.58   1
  -5   6 -10    3.50    1.98   1
  -5   6  -9  185.78    7.91   1
  -5   6  -8   73.44    3.77   1
  -5   6  -7  163.07    4.85   1
  -5   6  -6    3.69    1.11   1
  -5   6  -5   90.25    3.23   1
  -5   6  -4    3.31    0.62   1
  -5   6  -3    7.29    0.81   1
  -5   6  -2    9.99    1.71   1
  -5   6  -1   18.40    1.89   1
  -5   6   0  116.42    4.10   1
  -5   6   1   30.69    2.33   1
  -5   6   2    3.88    1.62   1
  -5   6   3   28.52    2.35   1
  -5   6   4  217.56    7.08   1
  -5   6   5   27.98    2.12   1
  -5   6   6    8.58    1.82   1
  -5   6   7   61.62    2.83   1
  -5   6   8   26.94    2.70   1
  -5   6   9   67.57    3.45   1
  -5   6  10    7.08    2.50   1
  -5   6  11   -0.90    2.51   1
  -5   6  12    3.39    1.99   1
  -5   6  13   19.89    3.12   1
  -5   6  14    9.67    3.79   1
  -5   6  15   -3.69    4.49   1
  -5   6  16    2.79    3.91   1
  -5   6  17   60.37    7.46   1
  -5   6  18  -10.69    5.69   1
  -5   7 -15    4.58    4.49   1
  -5   7 -14    7.08    6.06   1
  -5   7 -13   42.64    4.83   1
  -5   7 -12    4.20    2.21   1
  -5   7 -11    1.59    2.39   1
  -5   7 -10   12.18    2.51   1
  -5   7  -9   40.70    5.36   1
  -5   7  -8   14.21    2.87   1
  -5   7  -7  222.01    6.56   1
  -5   7  -6   22.56    1.43   1
  -5   7  -5   13.10    1.23   1
  -5   7  -4   81.36    2.35   1
  -5   7  -3  183.60    4.61   1
  -5   7  -2   31.14    2.01   1
  -5   7  -1  275.56    9.96   1
  -5   7   0  102.82    3.85   1
  -5   7   1   66.42    2.77   1
  -5   7   2  181.17    5.65   1
  -5   7   3    5.90    2.38   1
  -5   7   4  121.00    4.40   1
  -5   7   5   16.40    2.43   1
  -5   7   6  606.14   20.19   1
  -5   7   7   16.00    2.32   1
  -5   7   8   54.32    3.24   1
  -5   7   9    9.12    1.87   1
  -5   7  10   36.12    2.88   1
  -5   7  11   31.58    2.92   1
  -5   7  12   11.42    2.50   1
  -5   7  13   49.28    5.48   1
  -5   7  14   -4.00    4.00   1
  -5   7  15   21.16    4.14   1
  -5   7  16    1.21    3.52   1
  -5   7  17    8.82    5.29   1
  -5   7  18   14.82    6.24   1
  -5   8 -14   20.98    4.76   1
  -5   8 -13    9.99    5.62   1
  -5   8 -12    3.69    3.49   1
  -5   8 -11   55.65    4.63   1
  -5   8 -10    4.41    3.32   1
  -5   8  -9   62.73    4.44   1
  -5   8  -8    7.18    2.30   1
  -5   8  -7   14.21    1.73   1
  -5   8  -6    8.12    1.42   1
  -5   8  -5  188.79    4.95   1
  -5   8  -4   27.04    1.25   1
  -5   8  -3   -1.00    0.80   1
  -5   8  -2  105.47    4.11   1
  -5   8  -1  105.06    4.10   1
  -5   8   0    3.88    1.62   1
  -5   8   1  347.82   11.94   1
  -5   8   2   40.96    2.43   1
  -5   8   3   55.35    3.12   1
  -5   8   4   29.92    2.41   1
  -5   8   5   17.14    2.40   1
  -5   8   6   17.31    2.41   1
  -5   8   7   26.83    2.80   1
  -5   8   8   67.24    3.28   1
  -5   8   9   76.39    4.37   1
  -5   8  10   10.82    2.11   1
  -5   8  11   18.84    2.08   1
  -5   8  12    7.62    2.32   1
  -5   8  13   -1.90    3.01   1
  -5   8  14   85.56    7.95   1
  -5   8  15   -3.69    4.30   1
  -5   8  16    8.58    5.27   1
  -5   8  17   -1.69    3.69   1
  -5   8  18    2.59    4.38   1
  -5   9 -13   20.98    5.13   1
  -5   9 -12    4.08    4.97   1
  -5   9 -11    1.39    3.28   1
  -5   9 -10   17.64    4.12   1
  -5   9  -9   10.18    3.00   1
  -5   9  -8    5.20    2.60   1
  -5   9  -7   19.71    2.04   1
  -5   9  -6   47.06    2.47   1
  -5   9  -5   -0.71    1.11   1
  -5   9  -4    9.12    1.09   1
  -5   9  -3  240.87    6.83   1
  -5   9  -2   38.94    2.75   1
  -5   9  -1   22.56    2.28   1
  -5   9   0   10.82    2.11   1
  -5   9   1   -1.21    1.80   1
  -5   9   2    0.79    1.99   1
  -5   9   3   38.07    2.59   1
  -5   9   4    3.20    2.11   1
  -5   9   5   17.31    2.16   1
  -5   9   6    6.50    2.40   1
  -5   9   7   12.67    2.56   1
  -5   9   8    0.40    1.89   1
  -5   9   9  149.08    7.57   1
  -5   9  10  130.19    5.70   1
  -5   9  11   45.29    3.37   1
  -5   9  12   52.56    4.49   1
  -5   9  13    2.40    3.10   1
  -5   9  14   -0.40    4.08   1
  -5   9  15   37.58    5.03   1
  -5   9  16   -1.49    4.98   1
  -5   9  17    4.20    4.02   1
  -5  10 -12    6.81    3.50   1
  -5  10 -11   10.30    5.52   1
  -5  10 -10   11.70    3.21   1
  -5  10  -9   34.93    4.26   1
  -5  10  -8   11.29    2.02   1
  -5  10  -7   56.85    2.87   1
  -5  10  -6    3.69    1.19   1
  -5  10  -5   43.69    2.25   1
  -5  10  -4    3.10    0.92   1
  -5  10  -3  101.20    4.23   1
  -5  10  -2    4.58    2.01   1
  -5  10  -1   -1.30    2.01   1
  -5  10   0   25.70    2.64   1
  -5  10   1   34.34    3.05   1
  -5  10   2    3.10    2.29   1
  -5  10   3    7.18    2.30   1
  -5  10   4    3.20    2.11   1
  -5  10   5   60.53    3.89   1
  -5  10   6    4.08    2.50   1
  -5  10   7   60.37    4.04   1
  -5  10   8  263.41    8.76   1
  -5  10   9    4.58    2.91   1
  -5  10  10    2.69    2.10   1
  -5  10  11  111.09    7.17   1
  -5  10  12    9.61    3.10   1
  -5  10  13    8.29    2.59   1
  -5  10  14   -0.71    4.92   1
  -5  10  15    6.30    5.22   1
  -5  10  16   19.10    4.63   1
  -5  10  17    2.89    6.19   1
  -5  11 -11   17.14    5.80   1
  -5  11 -10   34.46    4.93   1
  -5  11  -9    8.58    4.22   1
  -5  11  -8   -1.30    4.61   1
  -5  11  -7    0.40    1.50   1
  -5  11  -6    2.40    1.21   1
  -5  11  -5   25.91    1.83   1
  -5  11  -4    3.50    0.60   1
  -5  11  -3   42.38    3.78   1
  -5  11  -2    2.50    2.40   1
  -5  11  -1   27.35    3.35   1
  -5  11   0  180.90    6.99   1
  -5  11   1   86.49    4.28   1
  -5  11   2    8.18    2.17   1
  -5  11   3  169.00    6.50   1
  -5  11   4   11.90    2.62   1
  -5  11   5    0.20    2.31   1
  -5  11   6   14.82    2.39   1
  -5  11   7   23.14    3.17   1
  -5  11   8    9.99    2.40   1
  -5  11   9   45.02    5.64   1
  -5  11  10   16.00    3.28   1
  -5  11  11    2.50    3.00   1
  -5  11  12   15.68    3.33   1
  -5  11  13   88.74    7.16   1
  -5  11  14    7.90    3.82   1
  -5  11  15    3.20    5.12   1
  -5  11  16   37.45    7.10   1
  -5  12 -10   14.21    5.81   1
  -5  12  -9    1.00    3.10   1
  -5  12  -8   28.41    6.29   1
  -5  12  -7    3.31    4.80   1
  -5  12  -6    0.71    2.60   1
  -5  12  -5   11.02    1.33   1
  -5  12  -4    3.10    0.99   1
  -5  12  -3   10.82    2.63   1
  -5  12  -2   12.89    2.58   1
  -5  12  -1   15.60    2.29   1
  -5  12   0    4.28    2.69   1
  -5  12   1   54.46    4.13   1
  -5  12   2   23.23    2.80   1
  -5  12   3   16.32    2.50   1
  -5  12   4   19.54    2.92   1
  -5  12   5   60.06    4.65   1
  -5  12   6   21.34    2.68   1
  -5  12   7    6.20    2.89   1
  -5  12   8   -1.10    4.30   1
  -5  12   9   -1.21    2.62   1
  -5  12  10   30.14    4.50   1
  -5  12  11    6.20    4.68   1
  -5  12  12    4.28    4.60   1
  -5  12  13   25.00    5.90   1
  -5  12  14   20.34    4.42   1
  -5  12  15   -0.50    3.92   1
  -5  13  -8   -2.69    5.38   1
  -5  13  -7   -2.40    3.69   1
  -5  13  -6   14.52    3.81   1
  -5  13  -5    9.49    5.30   1
  -5  13  -4   15.52    5.28   1
  -5  13  -3    0.30    4.11   1
  -5  13  -2    0.90    2.70   1
  -5  13  -1    5.11    2.98   1
  -5  13   0   60.68    5.92   1
  -5  13   1    3.20    3.19   1
  -5  13   2    8.58    4.22   1
  -5  13   3   39.31    5.52   1
  -5  13   4   -0.79    4.38   1
  -5  13   5    0.30    2.61   1
  -5  13   6    6.00    4.21   1
  -5  13   8   -0.10    2.63   1
  -5  13   9   47.75    5.53   1
  -5  13  10   13.47    4.92   1
  -5  13  11    1.90    5.11   1
  -5  13  12    1.00    5.20   1
  -5  13  13   43.69    6.21   1
  -5  13  14    0.71    6.23   1
  -5  13  15   21.07    6.70   1
  -5  14  -7   -4.49    3.99   1
  -5  14  -6   11.22    5.83   1
  -5  14  -5   15.37    4.00   1
  -5  14  -4   20.43    4.70   1
  -5  14  -3   13.47    5.06   1
  -5  14  -2   12.67    4.41   1
  -5  14  -1    1.59    4.59   1
  -5  14   0   37.45    4.41   1
  -5  14   1    8.53    3.62   1
  -5  14   2   18.66    5.53   1
  -5  14   3   12.60    4.69   1
  -5  14   4   23.52    3.98   1
  -5  14   5   22.09    4.98   1
  -5  14   6   12.11    3.69   1
  -5  14   7   33.52    4.75   1
  -5  14   8    4.58    3.60   1
  -5  14   9   20.34    5.50   1
  -5  14  10    0.10    5.26   1
  -5  14  11   55.35    5.65   1
  -5  14  12   -1.49    4.17   1
  -5  14  13   14.82    4.62   1
  -5  15  -5   -1.21    3.81   1
  -5  15  -4   13.03    6.14   1
  -5  15  -3    1.21    4.22   1
  -5  15  -2    3.61    3.80   1
  -5  15  -1    4.58    5.18   1
  -5  15   0   53.29    6.57   1
  -5  15   1    5.29    3.50   1
  -5  15   2    0.10    5.47   1
  -5  15   3   10.18    3.57   1
  -5  15   4    6.60    5.71   1
  -5  15   5   -6.81    5.43   1
  -5  15   6   11.02    4.52   1
  -5  15   7    5.90    5.39   1
  -5  15   8    0.79    5.68   1
  -5  15   9   22.56    4.28   1
  -5  15  10   -0.40    4.18   1
  -5  15  11    0.20    6.24   1
  -5  15  12    1.99    6.77   1
  -5  16  -2   -0.59    4.37   1
  -5  16  -1    8.29    5.41   1
  -5  16   0    5.62    6.11   1
  -5  16   1   -1.39    4.30   1
  -5  16   2   24.11    6.87   1
  -5  16   3    1.00    4.20   1
  -5  16   4   23.33    6.28   1
  -5  16   5    2.59    3.90   1
  -5  16   6    3.69    6.11   1
  -5  16   7   -1.30    3.99   1
  -5  16   8   22.66    6.47   1
  -5  16   9    5.29    5.70   1
  -5  16  10    3.88    6.78   1
  -5  17   2    9.00    6.42   1
  -5  17   3   -2.59    4.19   1
  -5  17   4    2.69    6.30   1
  -5  17   5   -0.79    4.68   1
  -5  17   6    2.10    6.82   1
  -4 -19  -9    9.67    5.16   1
  -4 -19  -8   11.97    5.26   1
  -4 -19  -7    8.01    4.70   1
  -4 -19  -6   -0.59    3.19   1
  -4 -19  -5   -3.50    5.31   1
  -4 -19  -4    1.80    3.48   1
  -4 -19  -3   14.98    7.89   1
  -4 -19  -2   29.16    4.97   1
  -4 -19  -1   19.54    6.19   1
  -4 -18 -12    5.71    4.83   1
  -4 -18 -11    6.92    4.79   1
  -4 -18 -10   44.36    5.99   1
  -4 -18  -9    5.38    5.01   1
  -4 -18  -8    6.00    4.51   1
  -4 -18  -7    0.79    3.19   1
  -4 -18  -6   61.78    4.87   1
  -4 -18  -5   -3.10    2.50   1
  -4 -18  -4   19.10    2.97   1
  -4 -18  -3    1.99    3.30   1
  -4 -18  -2   10.69    3.47   1
  -4 -18  -1   16.81    4.18   1
  -4 -18   0    6.71    5.02   1
  -4 -18   1   -5.52    5.31   1
  -4 -18   2    0.40    3.88   1
  -4 -17 -14    6.00    4.80   1
  -4 -17 -13    3.20    4.69   1
  -4 -17 -12   -3.50    4.00   1
  -4 -17 -11   20.79    4.74   1
  -4 -17 -10    3.69    4.19   1
  -4 -17  -9   -1.49    3.10   1
  -4 -17  -8   52.13    4.04   1
  -4 -17  -7   13.47    2.86   1
  -4 -17  -6   10.18    2.42   1
  -4 -17  -5   10.50    3.11   1
  -4 -17  -4    6.40    2.88   1
  -4 -17  -3   22.37    2.93   1
  -4 -17  -2   21.07    3.03   1
  -4 -17  -1    2.69    3.18   1
  -4 -17   0   -3.31    2.62   1
  -4 -17   1   14.98    2.71   1
  -4 -17   2   20.52    5.62   1
  -4 -17   3    7.62    3.81   1
  -4 -16 -15    9.67    3.79   1
  -4 -16 -14   -2.59    3.90   1
  -4 -16 -13   38.94    5.87   1
  -4 -16 -12   16.81    3.12   1
  -4 -16 -11   14.06    3.30   1
  -4 -16 -10   12.60    2.13   1
  -4 -16  -9    1.39    2.19   1
  -4 -16  -8   -1.69    2.39   1
  -4 -16  -7   -0.20    2.72   1
  -4 -16  -6    3.39    2.39   1
  -4 -16  -5    7.18    2.79   1
  -4 -16  -4    1.21    2.62   1
  -4 -16  -3   -2.59    2.80   1
  -4 -16  -2    3.50    2.21   1
  -4 -16  -1   18.92    2.87   1
  -4 -16   0   66.75    4.90   1
  -4 -16   1   29.81    3.39   1
  -4 -16   2   29.05    3.56   1
  -4 -16   3   14.90    3.01   1
  -4 -16   5    4.20    3.61   1
  -4 -16   6   10.63    5.22   1
  -4 -15 -16    5.29    4.09   1
  -4 -15 -15   45.29    6.46   1
  -4 -15 -14    2.59    4.89   1
  -4 -15 -13   36.72    3.27   1
  -4 -15 -12   17.64    2.60   1
  -4 -15 -11   37.70    3.44   1
  -4 -15 -10   20.98    2.56   1
  -4 -15  -9    2.19    2.49   1
  -4 -15  -8   70.90    3.54   1
  -4 -15  -7   40.32    2.67   1
  -4 -15  -6   16.40    2.51   1
  -4 -15  -5   23.91    3.03   1
  -4 -15  -4    2.99    2.01   1
  -4 -15  -3   84.09    4.59   1
  -4 -15  -2  142.32    6.68   1
  -4 -15  -1   25.81    3.15   1
  -4 -15   0   42.77    3.53   1
  -4 -15   1    2.31    2.01   1
  -4 -15   2   48.44    3.90   1
  -4 -15   3    3.39    2.50   1
  -4 -15   4    8.41    5.22   1
  -4 -15   5    6.20    3.19   1
  -4 -15   6   -3.31    4.30   1
  -4 -15   7    0.40    3.69   1
  -4 -15   8   22.09    5.36   1
  -4 -14 -17    4.58    2.91   1
  -4 -14 -16    7.18    3.81   1
  -4 -14 -15   16.40    3.56   1
  -4 -14 -14    2.79    3.71   1
  -4 -14 -13   31.58    2.70   1
  -4 -14 -12   25.30    2.41   1
  -4 -14 -11   -1.30    1.89   1
  -4 -14 -10    6.40    2.38   1
  -4 -14  -9   12.60    2.41   1
  -4 -14  -8    4.08    2.30   1
  -4 -14  -7  120.34    5.70   1
  -4 -14  -6   21.16    2.58   1
  -4 -14  -5   39.06    2.75   1
  -4 -14  -4   11.22    2.08   1
  -4 -14  -3   30.03    3.07   1
  -4 -14  -2   -1.39    1.89   1
  -4 -14  -1    1.49    1.78   1
  -4 -14   0   36.24    2.89   1
  -4 -14   1    2.19    1.89   1
  -4 -14   2   11.02    2.12   1
  -4 -14   3    6.00    3.09   1
  -4 -14   4   -5.20    4.29   1
  -4 -14   5   -0.10    2.53   1
  -4 -14   6  102.62    6.28   1
  -4 -14   7    5.20    3.10   1
  -4 -14   8   22.75    5.53   1
  -4 -13 -18    9.61    5.21   1
  -4 -13 -17   11.42    3.31   1
  -4 -13 -16    6.60    4.21   1
  -4 -13 -15   13.32    2.77   1
  -4 -13 -14   13.91    2.01   1
  -4 -13 -13   10.18    2.11   1
  -4 -13 -12   18.84    2.08   1
  -4 -13 -11  119.25    5.46   1
  -4 -13 -10   13.99    1.87   1
  -4 -13  -9  129.96    5.70   1
  -4 -13  -8   61.47    3.92   1
  -4 -13  -7   27.46    2.41   1
  -4 -13  -6   52.56    2.90   1
  -4 -13  -5   65.29    3.88   1
  -4 -13  -4  144.48    5.77   1
  -4 -13  -3   23.81    2.24   1
  -4 -13  -2   -0.71    1.92   1
  -4 -13  -1   53.58    2.93   1
  -4 -13   0   -1.00    2.10   1
  -4 -13   1   18.66    2.07   1
  -4 -13   2   92.93    4.43   1
  -4 -13   3    7.18    2.57   1
  -4 -13   4   79.03    6.76   1
  -4 -13   5   37.45    3.67   1
  -4 -13   6   -2.89    5.00   1
  -4 -13   7   31.02    6.35   1
  -4 -13   8   80.28    8.06   1
  -4 -13   9   -1.10    3.61   1
  -4 -13  10    1.90    5.41   1
  -4 -12 -18   10.63    5.41   1
  -4 -12 -17   20.43    4.79   1
  -4 -12 -16   37.45    4.04   1
  -4 -12 -15   15.92    2.87   1
  -4 -12 -14   12.11    2.37   1
  -4 -12 -13   66.75    3.43   1
  -4 -12 -12    2.19    1.81   1
  -4 -12 -11    1.00    1.30   1
  -4 -12 -10    7.02    1.48   1
  -4 -12  -9   12.18    1.68   1
  -4 -12  -8   21.81    2.24   1
  -4 -12  -7   74.13    3.62   1
  -4 -12  -6   10.69    1.83   1
  -4 -12  -5   49.42    3.09   1
  -4 -12  -4    8.53    1.69   1
  -4 -12  -3  196.56    7.57   1
  -4 -12  -2   36.60    2.54   1
  -4 -12  -1   17.14    1.99   1
  -4 -12   0   12.32    2.18   1
  -4 -12   1   85.75    4.26   1
  -4 -12   2   27.25    2.40   1
  -4 -12   3   46.79    3.15   1
  -4 -12   4   91.97    6.71   1
  -4 -12   5   -1.00    2.20   1
  -4 -12   6   21.34    2.68   1
  -4 -12   7   23.91    3.81   1
  -4 -12   8   -0.40    2.39   1
  -4 -12   9   -2.59    4.28   1
  -4 -12  10   31.14    4.91   1
  -4 -12  11    8.58    4.39   1
  -4 -11 -19   14.06    5.77   1
  -4 -11 -18   24.21    3.94   1
  -4 -11 -17   15.29    4.93   1
  -4 -11 -16    7.62    2.48   1
  -4 -11 -15    3.31    1.82   1
  -4 -11 -14   52.27    3.04   1
  -4 -11 -13    0.79    1.50   1
  -4 -11 -12   23.72    2.14   1
  -4 -11 -11    9.12    1.81   1
  -4 -11 -10   72.93    3.25   1
  -4 -11  -9   29.92    1.75   1
  -4 -11  -8    1.69    1.20   1
  -4 -11  -7   75.52    2.95   1
  -4 -11  -6    9.42    1.41   1
  -4 -11  -5   72.59    3.41   1
  -4 -11  -4   36.72    3.03   1
  -4 -11  -3   14.59    1.68   1
  -4 -11  -2    2.19    1.39   1
  -4 -11  -1  284.26    8.77   1
  -4 -11   0    8.82    1.90   1
  -4 -11   1    5.29    1.70   1
  -4 -11   2   26.21    2.05   1
  -4 -11   3   73.62    3.95   1
  -4 -11   4   48.86    4.47   1
  -4 -11   5   17.98    2.20   1
  -4 -11   6    6.50    2.81   1
  -4 -11   7   10.30    2.31   1
  -4 -11   8   32.04    3.74   1
  -4 -11   9   -1.80    2.20   1
  -4 -11  10   32.95    6.08   1
  -4 -11  11   13.10    8.69   1
  -4 -11  12    6.10    4.30   1
  -4 -10 -19    4.49    5.38   1
  -4 -10 -18   14.06    3.90   1
  -4 -10 -17    0.00    1.00   1
  -4 -10 -16   69.56    4.34   1
  -4 -10 -15   16.73    2.21   1
  -4 -10 -14    2.10    1.91   1
  -4 -10 -13    9.80    2.00   1
  -4 -10 -12  148.35    5.12   1
  -4 -10 -11    4.08    1.62   1
  -4 -10 -10   25.60    1.82   1
  -4 -10  -9    2.40    1.21   1
  -4 -10  -8    0.50    1.01   1
  -4 -10  -7  197.40    5.62   1
  -4 -10  -6   21.62    1.86   1
  -4 -10  -5   58.06    2.44   1
  -4 -10  -4   25.00    1.70   1
  -4 -10  -3  170.56    4.70   1
  -4 -10  -2   19.01    1.48   1
  -4 -10  -1    7.90    1.57   1
  -4 -10   0   -0.10    1.41   1
  -4 -10   1   59.75    3.09   1
  -4 -10   2   77.09    3.86   1
  -4 -10   3    3.39    1.80   1
  -4 -10   4   44.89    3.89   1
  -4 -10   5   54.46    3.69   1
  -4 -10   6   66.59    4.24   1
  -4 -10   7   21.34    1.85   1
  -4 -10   8   69.72    3.34   1
  -4 -10   9   11.97    2.28   1
  -4 -10  10   26.42    2.36   1
  -4 -10  11    8.29    2.19   1
  -4 -10  12    9.49    2.53   1
  -4 -10  13    8.01    5.60   1
  -4  -9 -19   24.30    5.62   1
  -4  -9 -18   34.81    6.02   1
  -4  -9 -17    1.21    2.31   1
  -4  -9 -16    9.61    2.79   1
  -4  -9 -15   15.29    2.11   1
  -4  -9 -14   16.56    2.12   1
  -4  -9 -13    3.39    1.80   1
  -4  -9 -12   35.05    2.25   1
  -4  -9 -11    2.31    1.22   1
  -4  -9 -10   17.22    1.58   1
  -4  -9  -9   43.56    1.85   1
  -4  -9  -8  170.56    4.70   1
  -4  -9  -7    2.89    0.99   1
  -4  -9  -6    0.59    1.19   1
  -4  -9  -5  124.32    3.79   1
  -4  -9  -4  102.82    3.45   1
  -4  -9  -3   36.72    1.70   1
  -4  -9  -2  134.10    4.17   1
  -4  -9  -1  168.74    5.46   1
  -4  -9   0   13.18    1.52   1
  -4  -9   1  140.90    4.75   1
  -4  -9   2  164.35    5.38   1
  -4  -9   3    1.49    5.27   1
  -4  -9   4    5.81    1.59   1
  -4  -9   5  126.79    4.05   1
  -4  -9   6   17.14    1.74   1
  -4  -9   7   65.77    2.76   1
  -4  -9   8    0.59    1.49   1
  -4  -9   9   10.82    2.30   1
  -4  -9  10   14.82    1.92   1
  -4  -9  11    9.00    2.28   1
  -4  -9  12   94.09    5.24   1
  -4  -9  13    0.79    1.99   1
  -4  -9  14   24.01    5.29   1
  -4  -8 -19   42.12    6.62   1
  -4  -8 -18   -0.30    2.51   1
  -4  -8 -17   -0.40    3.19   1
  -4  -8 -16   30.47    3.09   1
  -4  -8 -15   69.72    3.67   1
  -4  -8 -14    1.10    1.60   1
  -4  -8 -13    1.21    1.50   1
  -4  -8 -12  259.21    7.08   1
  -4  -8 -11    2.99    1.38   1
  -4  -8 -10  285.61    7.10   1
  -4  -8  -9   55.80    2.54   1
  -4  -8  -8   12.11    1.18   1
  -4  -8  -7  102.01    3.43   1
  -4  -8  -6  127.01    3.38   1
  -4  -8  -5   36.24    1.69   1
  -4  -8  -4   23.14    1.64   1
  -4  -8  -3  342.62   11.11   1
  -4  -8  -2  245.55    8.15   1
  -4  -8  -1  315.42    8.52   1
  -4  -8   0    7.67    1.27   1
  -4  -8   1  236.85    8.00   1
  -4  -8   2  127.46    4.74   1
  -4  -8   3  732.24   25.98   1
  -4  -8   4   23.43    1.74   1
  -4  -8   5  167.44    4.92   1
  -4  -8   6    4.41    1.30   1
  -4  -8   7   60.37    2.64   1
  -4  -8   8   35.05    2.01   1
  -4  -8   9   28.94    2.15   1
  -4  -8  10    2.59    1.90   1
  -4  -8  11   11.63    1.71   1
  -4  -8  12   28.30    2.98   1
  -4  -8  13    5.90    2.28   1
  -4  -8  14    2.50    2.50   1
  -4  -8  15    0.10    4.25   1
  -4  -7 -20    7.62    5.08   1
  -4  -7 -19   -1.90    4.91   1
  -4  -7 -18   11.83    3.37   1
  -4  -7 -17   95.65    5.87   1
  -4  -7 -16   33.52    3.36   1
  -4  -7 -15   20.79    2.01   1
  -4  -7 -14   21.81    2.05   1
  -4  -7 -13    7.62    1.32   1
  -4  -7 -12    8.88    1.79   1
  -4  -7 -11  259.21    8.05   1
  -4  -7 -10   83.54    3.11   1
  -4  -7  -9   24.01    1.47   1
  -4  -7  -8  230.13    5.76   1
  -4  -7  -7   50.55    1.85   1
  -4  -7  -6  149.82    4.16   1
  -4  -7  -5  403.21    9.64   1
  -4  -7  -4  245.55    8.46   1
  -4  -7  -3    0.00    1.00   1
  -4  -7  -2  510.31   17.17   1
  -4  -7  -1  270.93    8.56   1
  -4  -7   0  688.01   20.98   1
  -4  -7   1   66.10    2.44   1
  -4  -7   2  224.70    6.90   1
  -4  -7   3   16.81    1.31   1
  -4  -7   4   26.52    1.34   1
  -4  -7   5  567.87   15.25   1
  -4  -7   6    5.90    1.22   1
  -4  -7   7  361.38    9.12   1
  -4  -7   8    8.58    1.58   1
  -4  -7   9   13.91    1.49   1
  -4  -7  10    6.71    1.61   1
  -4  -7  11   41.86    2.46   1
  -4  -7  12   -0.30    2.11   1
  -4  -7  13   18.92    2.61   1
  -4  -7  14    9.49    2.77   1
  -4  -7  15    4.28    2.61   1
  -4  -6 -20    6.92    5.10   1
  -4  -6 -19   29.59    6.75   1
  -4  -6 -18   34.46    3.87   1
  -4  -6 -17    7.62    2.43   1
  -4  -6 -16   17.98    2.63   1
  -4  -6 -15    1.59    1.49   1
  -4  -6 -14   54.46    2.95   1
  -4  -6 -13    2.10    1.60   1
  -4  -6 -12    1.10    1.30   1
  -4  -6 -11   10.18    1.40   1
  -4  -6 -10   87.98    3.19   1
  -4  -6  -9   90.44    3.04   1
  -4  -6  -8   26.11    1.23   1
  -4  -6  -7  235.93    6.45   1
  -4  -6  -5  693.27   15.80   1
  -4  -6  -4 1349.09   36.73   1
  -4  -6  -3  508.05   14.43   1
  -4  -6  -2  150.31    4.66   1
  -4  -6  -1   47.75    2.07   1
  -4  -6   0  540.56   25.11   1
  -4  -6   1    9.42    0.98   1
  -4  -6   2   47.61    2.07   1
  -4  -6   3  361.76    9.89   1
  -4  -6   4  158.51    4.28   1
  -4  -6   5   38.32    1.73   1
  -4  -6   6   15.37    1.72   1
  -4  -6   7  184.42    5.70   1
  -4  -6   8    0.10    1.22   1
  -4  -6   9   14.59    1.38   1
  -4  -6  10   39.94    2.40   1
  -4  -6  11   29.59    2.39   1
  -4  -6  12    0.40    1.40   1
  -4  -6  13  214.04   10.83   1
  -4  -6  14    3.20    2.11   1
  -4  -6  15   26.21    2.97   1
  -4  -6  16   13.18    2.69   1
  -4  -5 -20   -2.99    5.61   1
  -4  -5 -19    1.49    5.17   1
  -4  -5 -18   -0.59    2.19   1
  -4  -5 -17   50.98    4.57   1
  -4  -5 -16   96.83    5.90   1
  -4  -5 -15   22.18    2.26   1
  -4  -5 -14    0.71    1.61   1
  -4  -5 -13   18.84    2.43   1
  -4  -5 -12    1.90    0.99   1
  -4  -5 -11   18.23    1.88   1
  -4  -5 -10   92.93    2.89   1
  -4  -5  -9  650.76   17.86   1
  -4  -5  -8  313.64   11.33   1
  -4  -5  -7   58.83    2.30   1
  -4  -5  -6   20.52    1.27   1
  -4  -5  -5    4.71    1.22   1
  -4  -5  -4  195.72    6.44   1
  -4  -5  -3  257.60   10.27   1
  -4  -5  -2   40.45    3.82   1
  -4  -5  -1  109.41    3.35   1
  -4  -5   0  194.32    6.69   1
  -4  -5   1  110.25    2.94   1
  -4  -5   2 2172.49   99.75   1
  -4  -5   3    7.90    1.57   1
  -4  -5   4   91.20    3.25   1
  -4  -5   5  590.00   13.60   1
  -4  -5   6  116.86    3.46   1
  -4  -5   7   63.52    2.39   1
  -4  -5   8   -0.59    1.49   1
  -4  -5   9  144.48    5.53   1
  -4  -5  10    2.50    1.30   1
  -4  -5  11    3.31    1.60   1
  -4  -5  12   10.30    1.99   1
  -4  -5  13    2.59    2.19   1
  -4  -5  14   11.09    3.60   1
  -4  -5  15   39.82    3.53   1
  -4  -5  16   19.36    2.99   1
  -4  -5  17   17.47    3.93   1
  -4  -4 -20   -2.10    3.71   1
  -4  -4 -19   44.36    6.53   1
  -4  -4 -18    2.89    2.21   1
  -4  -4 -17    7.40    2.50   1
  -4  -4 -16  128.60    5.90   1
  -4  -4 -15    2.10    1.71   1
  -4  -4 -14    0.10    1.72   1
  -4  -4 -13  108.78    5.01   1
  -4  -4 -12   24.30    1.77   1
  -4  -4 -11    3.31    1.31   1
  -4  -4 -10   80.46    2.51   1
  -4  -4  -9    1.69    1.09   1
  -4  -4  -8  126.79    3.60   1
  -4  -4  -7  503.10   13.46   1
  -4  -4  -6 2776.24  121.19   1
  -4  -4  -5   -0.10    2.23   1
  -4  -4  -4  456.68   14.10   1
  -4  -4  -3 1855.02   79.25   1
  -4  -4  -2   78.68    3.37   1
  -4  -4  -1  414.94   16.30   1
  -4  -4   0  176.09    4.78   1
  -4  -4   1  147.62    5.10   1
  -4  -4   2   25.81    1.32   1
  -4  -4   3  224.10    5.69   1
  -4  -4   4 1135.02   27.63   1
  -4  -4   5  134.33    3.71   1
  -4  -4   6   13.62    1.70   1
  -4  -4   7  356.08   11.32   1
  -4  -4   8   71.06    2.53   1
  -4  -4   9   77.26    2.99   1
  -4  -4  10    9.42    1.41   1
  -4  -4  11    6.40    1.52   1
  -4  -4  12    1.80    1.61   1
  -4  -4  13   29.92    2.73   1
  -4  -4  14   -0.30    2.01   1
  -4  -4  15   63.20    4.77   1
  -4  -4  16    1.69    2.60   1
  -4  -4  17   15.52    2.68   1
  -4  -3 -19   -5.81    4.29   1
  -4  -3 -18    3.39    2.91   1
  -4  -3 -17  106.30    6.80   1
  -4  -3 -16    5.02    2.28   1
  -4  -3 -15   93.90    5.04   1
  -4  -3 -14    9.00    1.80   1
  -4  -3 -13   56.55    3.31   1
  -4  -3 -12  133.40    5.31   1
  -4  -3 -11  297.56    7.93   1
  -4  -3 -10   57.46    1.97   1
  -4  -3  -9   25.40    1.41   1
  -4  -3  -8   -0.59    0.69   1
  -4  -3  -7  569.30   13.36   1
  -4  -3  -6   24.70    1.19   1
  -4  -3  -5 1404.75   36.73   1
  -4  -3  -4  219.34    7.11   1
  -4  -3  -3   96.04    2.94   1
  -4  -3  -2  141.37    4.52   1
  -4  -3  -1  180.10    5.90   1
  -4  -3   0   28.41    1.28   1
  -4  -3   1   91.39    2.68   1
  -4  -3   2  279.22    9.69   1
  -4  -3   3   49.56    1.83   1
  -4  -3   4  385.73   14.53   1
  -4  -3   5   84.09    2.57   1
  -4  -3   6   35.05    1.66   1
  -4  -3   7   60.53    2.96   1
  -4  -3   8    6.30    1.31   1
  -4  -3   9   68.72    2.65   1
  -4  -3  10   32.95    1.95   1
  -4  -3  11  121.00    4.18   1
  -4  -3  12   58.37    3.36   1
  -4  -3  13   17.39    2.00   1
  -4  -3  14   -0.40    1.99   1
  -4  -3  15   70.90    4.72   1
  -4  -3  16   -1.00    2.60   1
  -4  -3  17    6.10    2.91   1
  -4  -2 -19   30.25    5.61   1
  -4  -2 -18   22.75    5.53   1
  -4  -2 -17   19.71    5.33   1
  -4  -2 -16   62.88    5.39   1
  -4  -2 -15  146.41   10.41   1
  -4  -2 -14    1.39    2.19   1
  -4  -2 -13  151.54    8.12   1
  -4  -2 -12    1.10    1.81   1
  -4  -2 -11   59.44    2.62   1
  -4  -2 -10   88.74    2.83   1
  -4  -2  -9  376.36   10.48   1
  -4  -2  -8   -1.90    0.80   1
  -4  -2  -7  301.72   13.90   1
  -4  -2  -6  892.81   22.11   1
  -4  -2  -5   17.22    0.91   1
  -4  -2  -4  340.03   11.06   1
  -4  -2  -3   51.55    2.73   1
  -4  -2  -2  344.84   18.20   1
  -4  -2  -1  410.06   15.39   1
  -4  -2   0  138.53    4.94   1
  -4  -2   1  271.59    7.58   1
  -4  -2   2    3.31    0.69   1
  -4  -2   3 1014.42   31.21   1
  -4  -2   4 1555.51   41.02   1
  -4  -2   5   91.01    2.86   1
  -4  -2   6  318.27   10.70   1
  -4  -2   7   38.69    1.99   1
  -4  -2   8    8.53    1.99   1
  -4  -2   9   22.18    1.98   1
  -4  -2  10   30.25    2.97   1
  -4  -2  11   -4.49    3.69   1
  -4  -2  12   -1.21    2.20   1
  -4  -2  13    6.20    2.59   1
  -4  -2  14    1.00    3.90   1
  -4  -2  15   79.39    6.24   1
  -4  -2  16    5.71    5.11   1
  -4  -2  18   -0.30    2.41   1
  -4  -1 -19   -4.00    4.92   1
  -4  -1 -18    1.10    3.51   1
  -4  -1 -17   41.60    4.26   1
  -4  -1 -16   49.84    4.09   1
  -4  -1 -15   19.71    2.22   1
  -4  -1 -14  179.02    9.10   1
  -4  -1 -13  130.87    9.84   1
  -4  -1 -12   29.16    3.35   1
  -4  -1 -11  249.96   10.75   1
  -4  -1 -10    9.80    2.38   1
  -4  -1  -9   16.73    2.37   1
  -4  -1  -8    6.10    1.68   1
  -4  -1  -7  561.69   15.17   1
  -4  -1  -6  241.18    6.52   1
  -4  -1  -5   79.57    2.32   1
  -4  -1  -4   20.52    0.91   1
  -4  -1  -3  361.38    9.12   1
  -4  -1  -2  927.81   31.68   1
  -4  -1  -1  435.97   14.20   1
  -4  -1   0  111.72    3.81   1
  -4  -1   1  784.00   27.44   1
  -4  -1   2  845.65   24.43   1
  -4  -1   3  108.37    4.16   1
  -4  -1   4  238.08    7.72   1
  -4  -1   5    8.88    1.01   1
  -4  -1   6    5.20    1.50   1
  -4  -1   7  391.64   12.27   1
  -4  -1   8  119.46    4.37   1
  -4  -1   9  310.46    9.87   1
  -4  -1  10   25.40    2.12   1
  -4  -1  11    2.40    1.71   1
  -4  -1  12   55.50    3.87   1
  -4  -1  13  123.21    5.77   1
  -4  -1  14   75.17    4.34   1
  -4  -1  15    4.08    3.80   1
  -4  -1  16    9.30    3.60   1
  -4  -1  17   13.76    5.49   1
  -4  -1  18   14.06    5.70   1
  -4   0 -19    0.30    3.62   1
  -4   0 -18   64.64    7.88   1
  -4   0 -17    9.80    2.82   1
  -4   0 -16    0.30    2.01   1
  -4   0 -15  266.34   11.75   1
  -4   0 -14   45.83    3.66   1
  -4   0 -13   16.48    2.60   1
  -4   0 -12   30.14    2.31   1
  -4   0 -11  111.94    3.81   1
  -4   0 -10    4.41    1.81   1
  -4   0  -9   58.37    2.75   1
  -4   0  -8    0.20    1.31   1
  -4   0  -7  372.49   10.04   1
  -4   0  -6   -0.71    0.91   1
  -4   0  -5  278.89    8.35   1
  -4   0  -4   78.68    2.48   1
  -4   0  -3  826.56   18.40   1
  -4   0  -2  727.38   18.88   1
  -4   0  -1   99.00    3.58   1
  -4   0   0  137.83    3.76   1
  -4   0   1    1.59    0.50   1
  -4   0   2  136.42    4.20   1
  -4   0   3  107.33    3.52   1
  -4   0   4  112.15    3.81   1
  -4   0   5    4.08    1.29   1
  -4   0   6   75.00    2.77   1
  -4   0   7  214.62    7.03   1
  -4   0   8   48.86    4.05   1
  -4   0   9    6.92    1.53   1
  -4   0  10  363.66   12.20   1
  -4   0  11   19.80    2.31   1
  -4   0  12  123.21    5.33   1
  -4   0  13   68.56    3.97   1
  -4   0  14    2.79    2.10   1
  -4   0  15    4.08    2.71   1
  -4   0  16    1.59    4.28   1
  -4   0  17    2.40    3.41   1
  -4   0  18   14.90    5.79   1
  -4   1 -18    0.59    5.67   1
  -4   1 -17    8.01    2.89   1
  -4   1 -16   28.20    3.72   1
  -4   1 -15    0.00    1.00   1
  -4   1 -14   17.22    2.90   1
  -4   1 -13   60.53    4.20   1
  -4   1 -12    3.10    1.80   1
  -4   1 -11   10.30    1.93   1
  -4   1 -10   65.12    3.07   1
  -4   1  -9   91.58    4.21   1
  -4   1  -8   15.29    1.72   1
  -4   1  -7  460.10   15.44   1
  -4   1  -6  140.42    3.79   1
  -4   1  -5 1062.76   26.73   1
  -4   1  -4  181.44    4.85   1
  -4   1  -3    6.10    0.49   1
  -4   1  -2   43.56    1.19   1
  -4   1  -1 1239.04   33.09   1
  -4   1   0  144.96    4.09   1
  -4   1   1    7.40    0.71   1
  -4   1   2   25.10    1.20   1
  -4   1   3  576.96   16.81   1
  -4   1   4   80.64    2.87   1
  -4   1   5    7.62    1.21   1
  -4   1   6  183.60    5.42   1
  -4   1   7   35.28    2.26   1
  -4   1   8  613.06   17.33   1
  -4   1   9   24.60    1.69   1
  -4   1  10  382.59   13.69   1
  -4   1  11    1.39    1.60   1
  -4   1  12   64.64    3.86   1
  -4   1  13    5.38    2.27   1
  -4   1  14  206.21    8.90   1
  -4   1  15   -0.50    2.91   1
  -4   1  16   -0.30    3.11   1
  -4   1  17    4.00    4.92   1
  -4   1  18   30.91    4.78   1
  -4   2 -18   10.63    5.61   1
  -4   2 -17   -4.80    3.11   1
  -4   2 -16    5.81    2.51   1
  -4   2 -15    5.62    2.42   1
  -4   2 -14   30.03    3.73   1
  -4   2 -13   10.89    2.38   1
  -4   2 -12  249.96    9.17   1
  -4   2 -11   31.58    2.70   1
  -4   2 -10   52.42    2.90   1
  -4   2  -9   84.09    3.48   1
  -4   2  -8   51.41    2.44   1
  -4   2  -7   45.70    2.70   1
  -4   2  -6   64.16    2.72   1
  -4   2  -5  364.43    8.78   1
  -4   2  -4    6.60    0.72   1
  -4   2  -3  408.85    9.30   1
  -4   2  -2  428.90    8.70   1
  -4   2  -1   20.52    1.00   1
  -4   2   0   46.65    2.05   1
  -4   2   1  267.65    7.85   1
  -4   2   2    3.69    0.88   1
  -4   2   3 1296.00   36.00   1
  -4   2   4   31.36    2.35   1
  -4   2   5  129.96    4.79   1
  -4   2   6  762.86   20.44   1
  -4   2   7   95.45    3.91   1
  -4   2   8  446.48   16.06   1
  -4   2   9  153.76    5.46   1
  -4   2  10  341.88   11.09   1
  -4   2  11  100.40    4.81   1
  -4   2  12   37.33    3.30   1
  -4   2  13    1.99    2.28   1
  -4   2  14    2.69    2.69   1
  -4   2  15    5.29    3.68   1
  -4   2  16   49.00    5.46   1
  -4   2  17    6.60    3.50   1
  -4   2  18   15.13    5.84   1
  -4   2  19   -1.39    5.69   1
  -4   3 -18    5.02    3.99   1
  -4   3 -17   -1.10    3.00   1
  -4   3 -16    4.41    3.19   1
  -4   3 -15   -1.10    3.11   1
  -4   3 -14   16.16    2.97   1
  -4   3 -13   47.61    3.73   1
  -4   3 -12   27.98    3.39   1
  -4   3 -11   47.75    3.04   1
  -4   3 -10  210.54    7.84   1
  -4   3  -9    4.88    1.90   1
  -4   3  -8   45.02    2.68   1
  -4   3  -7   14.36    1.36   1
  -4   3  -6   22.00    1.88   1
  -4   3  -5  527.62   13.78   1
  -4   3  -4  249.32    5.05   1
  -4   3  -3   43.82    1.85   1
  -4   3  -2 1595.20   34.35   1
  -4   3  -1  203.06    5.98   1
  -4   3   0  107.12    3.52   1
  -4   3   1  945.56   28.29   1
  -4   3   2  498.63   14.74   1
  -4   3   3  500.42   16.11   1
  -4   3   4 1356.45   35.36   1
  -4   3   5 1128.96   30.24   1
  -4   3   6  263.74    8.44   1
  -4   3   7   93.70    3.68   1
  -4   3   8   -1.30    1.60   1
  -4   3   9  150.31    5.88   1
  -4   3  10  449.02   13.56   1
  -4   3  11   63.36    3.34   1
  -4   3  12  125.22    5.37   1
  -4   3  13    2.89    2.31   1
  -4   3  14  148.60    6.83   1
  -4   3  15    5.71    4.21   1
  -4   3  16    3.88    3.98   1
  -4   3  17   21.53    4.55   1
  -4   3  18   34.69    6.36   1
  -4   3  19   14.06    3.90   1
  -4   4 -17   -1.39    3.68   1
  -4   4 -16   14.59    6.26   1
  -4   4 -15   14.82    3.70   1
  -4   4 -14   -0.10    2.02   1
  -4   4 -13   11.22    3.08   1
  -4   4 -12   76.39    4.37   1
  -4   4 -11   20.34    2.53   1
  -4   4 -10    3.88    1.81   1
  -4   4  -9    2.69    1.71   1
  -4   4  -8   12.53    1.91   1
  -4   4  -7   14.36    1.97   1
  -4   4  -6  621.01   19.44   1
  -4   4  -5    2.99    1.21   1
  -4   4  -4   89.49    2.27   1
  -4   4  -3  549.43   11.72   1
  -4   4  -2  523.49   11.90   1
  -4   4  -1   -0.71    1.01   1
  -4   4   0   53.73    2.05   1
  -4   4   1 1889.64   52.16   1
  -4   4   2   37.45    2.08   1
  -4   4   3  847.39   27.36   1
  -4   4   4   20.16    3.32   1
  -4   4   5   45.97    3.25   1
  -4   4   6   37.33    2.44   1
  -4   4   7    7.78    2.29   1
  -4   4   8   52.42    2.61   1
  -4   4   9  811.11   27.91   1
  -4   4  10  147.38    5.83   1
  -4   4  11    0.00    1.00   1
  -4   4  12   71.74    5.93   1
  -4   4  13  113.64    5.54   1
  -4   4  14    3.69    2.69   1
  -4   4  15    6.10    4.30   1
  -4   4  16   17.22    4.81   1
  -4   4  17   13.40    5.78   1
  -4   4  18   14.67    4.98   1
  -4   4  19    3.69    5.30   1
  -4   5 -17    4.20    4.02   1
  -4   5 -16   -1.99    4.68   1
  -4   5 -15   21.62    5.58   1
  -4   5 -14    7.51    2.52   1
  -4   5 -13   11.97    2.63   1
  -4   5 -12    2.69    2.59   1
  -4   5 -11   32.83    2.87   1
  -4   5 -10  252.49   10.81   1
  -4   5  -9    5.29    2.30   1
  -4   5  -8  242.42    9.34   1
  -4   5  -7   59.91    2.94   1
  -4   5  -6   92.16    3.65   1
  -4   5  -5   17.64    1.60   1
  -4   5  -4    5.38    0.88   1
  -4   5  -3  190.72    4.97   1
  -4   5  -2   62.88    1.74   1
  -4   5  -1  504.00   14.37   1
  -4   5   0    5.81    1.11   1
  -4   5   1  170.04    4.69   1
  -4   5   2  985.96   25.12   1
  -4   5   3  265.04    7.81   1
  -4   5   4  234.70    6.74   1
  -4   5   5 1002.99   25.97   1
  -4   5   6  180.36    5.10   1
  -4   5   7   27.56    2.00   1
  -4   5   8    3.80    1.91   1
  -4   5   9   84.82    3.32   1
  -4   5  10    1.49    2.00   1
  -4   5  11   25.91    2.75   1
  -4   5  12   93.32    4.83   1
  -4   5  13    8.58    2.29   1
  -4   5  14   48.30    5.14   1
  -4   5  15   13.69    4.22   1
  -4   5  16   13.62    3.62   1
  -4   5  17    7.40    3.59   1
  -4   5  18   16.08    4.57   1
  -4   5  19    5.90    4.52   1
  -4   6 -16   -1.80    4.69   1
  -4   6 -15    1.90    4.80   1
  -4   6 -14   -2.10    3.19   1
  -4   6 -13   -3.88    3.31   1
  -4   6 -12   54.76    3.55   1
  -4   6 -11   -4.49    2.59   1
  -4   6 -10   45.43    3.50   1
  -4   6  -9   46.38    3.95   1
  -4   6  -8  193.21    6.95   1
  -4   6  -7   25.20    2.41   1
  -4   6  -6  454.54   14.92   1
  -4   6  -5    0.10    2.02   1
  -4   6  -4   97.42    2.57   1
  -4   6  -3   49.28    1.83   1
  -4   6  -2  329.42    7.99   1
  -4   6  -1   78.68    2.84   1
  -4   6   0  204.78    6.58   1
  -4   6   1  999.82   25.30   1
  -4   6   2   23.23    2.22   1
  -4   6   3  171.87    5.24   1
  -4   6   4   64.16    2.40   1
  -4   6   5   40.58    2.29   1
  -4   6   6   81.18    3.06   1
  -4   6   7   58.06    2.90   1
  -4   6   8   -0.79    1.58   1
  -4   6   9   23.04    2.40   1
  -4   6  10   99.00    4.58   1
  -4   6  11   15.37    2.82   1
  -4   6  12   19.98    2.50   1
  -4   6  13   16.16    2.81   1
  -4   6  14   11.90    4.07   1
  -4   6  15   13.99    4.71   1
  -4   6  16   46.51    5.87   1
  -4   6  17   -4.00    4.00   1
  -4   6  18   10.30    4.62   1
  -4   6  19   10.50    5.38   1
  -4   7 -15   -5.29    4.88   1
  -4   7 -14   -2.31    4.92   1
  -4   7 -13    1.99    3.10   1
  -4   7 -12    4.00    2.48   1
  -4   7 -11   32.15    3.63   1
  -4   7 -10   79.03    4.98   1
  -4   7  -9   47.06    3.84   1
  -4   7  -8   69.56    4.00   1
  -4   7  -7   54.02    3.23   1
  -4   7  -6   80.28    3.58   1
  -4   7  -5   16.48    2.11   1
  -4   7  -4  758.45   25.34   1
  -4   7  -3   11.09    1.00   1
  -4   7  -2    0.00    1.00   1
  -4   7  -1  111.30    4.01   1
  -4   7   0  275.23    8.96   1
  -4   7   1   -1.99    2.40   1
  -4   7   2   10.82    1.71   1
  -4   7   3  766.74   20.49   1
  -4   7   4    2.79    1.80   1
  -4   7   5  171.61    5.24   1
  -4   7   6  155.75    4.99   1
  -4   7   7    1.69    1.79   1
  -4   7   8   74.65    3.63   1
  -4   7   9  406.43   12.90   1
  -4   7  10   35.64    2.87   1
  -4   7  11  130.19    5.02   1
  -4   7  12   53.88    3.38   1
  -4   7  13   17.72    3.03   1
  -4   7  14   13.03    4.19   1
  -4   7  15   44.76    6.02   1
  -4   7  16    3.31    3.20   1
  -4   7  17   23.14    6.06   1
  -4   7  18   -8.12    5.41   1
  -4   8 -14    1.49    5.59   1
  -4   8 -13   14.06    6.90   1
  -4   8 -12   -3.80    4.99   1
  -4   8 -11   18.49    3.53   1
  -4   8 -10   20.07    4.12   1
  -4   8  -9   18.49    2.92   1
  -4   8  -8   35.64    3.22   1
  -4   8  -7    3.61    2.09   1
  -4   8  -6   45.83    3.11   1
  -4   8  -5    0.79    1.69   1
  -4   8  -4    1.69    2.00   1
  -4   8  -3   17.47    1.42   1
  -4   8  -2   89.68    2.65   1
  -4   8  -1    4.58    1.58   1
  -4   8   0   92.74    3.66   1
  -4   8   1    0.50    1.60   1
  -4   8   2   12.89    1.58   1
  -4   8   3    4.71    3.21   1
  -4   8   4  338.93   10.31   1
  -4   8   5    8.12    1.82   1
  -4   8   6  101.00    3.62   1
  -4   8   7    8.18    1.77   1
  -4   8   8  278.56    9.01   1
  -4   8   9  237.16    8.62   1
  -4   8  10    3.80    2.30   1
  -4   8  11    3.69    1.80   1
  -4   8  12   79.57    4.10   1
  -4   8  13   -0.71    3.71   1
  -4   8  14   26.11    4.91   1
  -4   8  15   -1.99    3.30   1
  -4   8  16   -0.90    4.81   1
  -4   8  17   27.35    5.54   1
  -4   8  18    3.39    4.31   1
  -4   9 -14    6.71    4.71   1
  -4   9 -13    5.52    5.12   1
  -4   9 -12   -5.62    5.50   1
  -4   9 -11   87.05    8.02   1
  -4   9 -10   14.52    3.43   1
  -4   9  -9   19.80    2.76   1
  -4   9  -8    0.40    2.29   1
  -4   9  -7  252.49    9.85   1
  -4   9  -6   41.99    2.72   1
  -4   9  -5    2.79    1.90   1
  -4   9  -4    0.59    0.60   1
  -4   9  -3    0.71    0.81   1
  -4   9  -2   94.28    4.27   1
  -4   9  -1   18.66    2.51   1
  -4   9   0   63.68    3.51   1
  -4   9   1    4.41    1.51   1
  -4   9   2   44.49    2.93   1
  -4   9   3   68.56    3.31   1
  -4   9   4   52.42    3.19   1
  -4   9   5   13.69    2.07   1
  -4   9   6  120.78    4.84   1
  -4   9   7   10.11    1.97   1
  -4   9   8   15.92    2.63   1
  -4   9   9    5.29    1.98   1
  -4   9  10    6.50    2.60   1
  -4   9  11  107.33    5.39   1
  -4   9  12    9.18    3.82   1
  -4   9  13    0.50    4.32   1
  -4   9  14   53.44    6.58   1
  -4   9  15   53.44    4.97   1
  -4   9  16    9.42    4.61   1
  -4   9  17   12.32    4.28   1
  -4   9  18   -3.39    4.60   1
  -4  10 -13   15.68    4.91   1
  -4  10 -12    2.69    4.49   1
  -4  10 -11   39.31    5.14   1
  -4  10 -10   13.76    4.67   1
  -4  10  -9   45.29    5.65   1
  -4  10  -8   11.02    2.59   1
  -4  10  -7   -1.21    2.20   1
  -4  10  -6    2.99    2.28   1
  -4  10  -5    3.80    2.11   1
  -4  10  -4    0.40    0.69   1
  -4  10  -3   29.59    1.41   1
  -4  10  -2   -2.59    1.90   1
  -4  10  -1   18.58    2.24   1
  -4  10   0  444.37   14.33   1
  -4  10   1    4.28    1.90   1
  -4  10   2    3.69    1.80   1
  -4  10   3    4.71    2.30   1
  -4  10   4  102.01    4.24   1
  -4  10   5   49.56    2.96   1
  -4  10   6    5.81    1.88   1
  -4  10   7    1.80    1.90   1
  -4  10   8   24.50    2.77   1
  -4  10   9   21.62    2.60   1
  -4  10  10   86.30    5.02   1
  -4  10  11   22.00    4.31   1
  -4  10  12    6.20    3.88   1
  -4  10  13  106.92    8.89   1
  -4  10  14  129.05    9.09   1
  -4  10  15   -3.61    3.19   1
  -4  10  16    8.58    5.39   1
  -4  10  17   20.52    4.89   1
  -4  11 -12   12.39    6.20   1
  -4  11 -11   13.10    4.20   1
  -4  11 -10    4.00    5.08   1
  -4  11  -9   -0.90    5.11   1
  -4  11  -8   18.32    4.02   1
  -4  11  -7    1.10    2.90   1
  -4  11  -6    2.50    2.09   1
  -4  11  -5   36.36    5.07   1
  -4  11  -4   40.20    1.52   1
  -4  11  -3   47.33    1.79   1
  -4  11  -2   75.34    3.47   1
  -4  11  -1  359.86   12.52   1
  -4  11   0   18.66    2.76   1
  -4  11   1   54.76    3.70   1
  -4  11   2   -0.20    1.61   1
  -4  11   3    2.79    1.80   1
  -4  11   4   58.83    3.37   1
  -4  11   5   28.20    2.76   1
  -4  11   6    8.12    1.99   1
  -4  11   7    0.59    1.79   1
  -4  11   8   32.83    2.87   1
  -4  11   9    4.00    2.20   1
  -4  11  10   32.49    4.67   1
  -4  11  11   43.16    5.12   1
  -4  11  12   12.53    4.18   1
  -4  11  13    4.41    4.12   1
  -4  11  14   28.84    5.37   1
  -4  11  15   13.76    5.86   1
  -4  11  16    5.38    3.90   1
  -4  11  17    3.88    6.07   1
  -4  12 -10    0.71    3.71   1
  -4  12  -9   -1.10    5.00   1
  -4  12  -8   17.31    4.58   1
  -4  12  -7    7.78    3.79   1
  -4  12  -6   20.07    4.66   1
  -4  12  -5   35.64    2.63   1
  -4  12  -4   62.73    2.38   1
  -4  12  -3   18.23    3.25   1
  -4  12  -2   49.42    3.66   1
  -4  12  -1   -0.40    2.89   1
  -4  12   0   34.22    3.39   1
  -4  12   1   17.72    3.12   1
  -4  12   2    9.18    2.79   1
  -4  12   3   23.91    2.84   1
  -4  12   4    3.31    2.91   1
  -4  12   5   11.63    3.14   1
  -4  12   6   -1.00    2.60   1
  -4  12   7    7.40    2.18   1
  -4  12   8   22.18    4.24   1
  -4  12   9    1.99    2.40   1
  -4  12  10  188.79   12.92   1
  -4  12  11   20.98    4.58   1
  -4  12  12    1.99    3.30   1
  -4  12  13   21.53    3.71   1
  -4  12  14   20.70    5.73   1
  -4  12  15    8.18    6.01   1
  -4  12  16   80.82    8.81   1
  -4  13  -9   11.83    6.19   1
  -4  13  -8   18.32    4.28   1
  -4  13  -7   13.40    4.68   1
  -4  13  -6   -1.49    4.59   1
  -4  13  -5    0.10    3.24   1
  -4  13  -4   11.97    0.83   1
  -4  13  -3   36.60    2.54   1
  -4  13  -2    3.20    3.19   1
  -4  13  -1  115.13    7.94   1
  -4  13   0    7.90    4.22   1
  -4  13   1    3.69    3.80   1
  -4  13   2    6.81    3.60   1
  -4  13   3    9.99    4.11   1
  -4  13   4   -4.71    4.21   1
  -4  13   5   73.62    5.66   1
  -4  13   6   86.86    6.71   1
  -4  13   7    4.20    3.89   1
  -4  13   8   16.32    3.64   1
  -4  13   9   22.66    4.66   1
  -4  13  10    4.80    3.90   1
  -4  13  11    8.29    3.40   1
  -4  13  12    1.69    3.30   1
  -4  13  13    0.90    3.40   1
  -4  13  14    2.99    3.49   1
  -4  13  15    7.62    5.91   1
  -4  14  -8    3.10    4.40   1
  -4  14  -7    0.30    5.13   1
  -4  14  -6    2.89    3.71   1
  -4  14  -5    6.00    3.92   1
  -4  14  -4   14.52    5.11   1
  -4  14  -3    2.89    4.49   1
  -4  14  -2   58.37    6.42   1
  -4  14  -1   14.52    3.89   1
  -4  14   0    1.69    2.89   1
  -4  14   1    4.49    4.20   1
  -4  14   2   37.95    5.54   1
  -4  14   3    6.40    3.19   1
  -4  14   4   14.82    3.23   1
  -4  14   5    2.59    3.90   1
  -4  14   6   47.47    5.65   1
  -4  14   7    5.11    3.21   1
  -4  14   8    9.61    4.53   1
  -4  14   9   13.47    5.21   1
  -4  14  10   59.14    5.54   1
  -4  14  11   -8.82    5.11   1
  -4  14  12    4.20    5.00   1
  -4  14  13   37.70    7.00   1
  -4  14  14   11.29    5.98   1
  -4  15  -6    2.40    4.22   1
  -4  15  -5    3.20    5.01   1
  -4  15  -4    4.00    4.32   1
  -4  15  -3    8.41    4.00   1
  -4  15  -2   30.91    6.00   1
  -4  15  -1  105.06    9.84   1
  -4  15   0    2.19    4.38   1
  -4  15   1   -2.31    4.80   1
  -4  15   2   -8.70    4.19   1
  -4  15   3   12.60    3.69   1
  -4  15   4    2.99    4.39   1
  -4  15   5   10.89    4.88   1
  -4  15   6   -1.00    3.20   1
  -4  15   7    7.78    4.69   1
  -4  15   8    2.79    3.31   1
  -4  15   9   37.33    4.40   1
  -4  15  10    0.79    4.98   1
  -4  15  11   28.41    5.97   1
  -4  15  12   36.84    6.56   1
  -4  15  13    5.38    7.01   1
  -4  16  -4    3.39    6.07   1
  -4  16  -3    8.18    4.52   1
  -4  16  -2   -4.80    3.59   1
  -4  16  -1    6.40    5.41   1
  -4  16   0   21.34    4.80   1
  -4  16   1   37.45    6.24   1
  -4  16   2   -1.99    5.08   1
  -4  16   3    2.50    3.70   1
  -4  16   4   12.32    4.70   1
  -4  16   5   -0.40    2.89   1
  -4  16   6    7.02    5.09   1
  -4  16   7   50.41    6.53   1
  -4  16   8   -7.02    5.72   1
  -4  16   9   10.69    6.21   1
  -4  16  10    5.38    4.08   1
  -4  16  11    5.71    4.49   1
  -4  17  -1   10.11    6.42   1
  -4  17   0    5.52    4.79   1
  -4  17   1    2.99    3.81   1
  -4  17   2    0.00    1.00   1
  -4  17   3   39.06    5.62   1
  -4  17   4   -2.99    5.88   1
  -4  17   5   -6.30    3.41   1
  -4  17   6    0.10    3.85   1
  -4  17   8    2.79    4.28   1
  -4  17   9   19.36    5.02   1
  -3 -19  -9   44.36    6.66   1
  -3 -19  -8   -2.31    4.92   1
  -3 -19  -5   14.59    5.58   1
  -3 -19  -4    9.67    4.42   1
  -3 -19  -3   29.70    6.32   1
  -3 -19  -2    6.50    4.18   1
  -3 -19  -1   -5.81    5.59   1
  -3 -18 -12   -2.19    5.48   1
  -3 -18 -11    5.20    3.51   1
  -3 -18 -10   19.62    6.29   1
  -3 -18  -9   -2.59    2.90   1
  -3 -18  -8   -0.50    3.01   1
  -3 -18  -7   37.45    3.79   1
  -3 -18  -6   13.99    2.99   1
  -3 -18  -5   29.27    3.57   1
  -3 -18  -4   17.14    3.23   1
  -3 -18  -3    3.20    3.79   1
  -3 -18  -2   -4.58    4.71   1
  -3 -18  -1   33.76    4.76   1
  -3 -18   0    0.50    5.23   1
  -3 -18   1    0.50    3.82   1
  -3 -18   2    2.79    6.38   1
  -3 -17 -14   10.69    5.43   1
  -3 -17 -13    6.81    4.80   1
  -3 -17 -12   30.14    4.17   1
  -3 -17 -11   -5.29    4.69   1
  -3 -17 -10    5.29    3.17   1
  -3 -17  -9   -1.10    2.50   1
  -3 -17  -8   53.00    3.49   1
  -3 -17  -7    2.69    2.79   1
  -3 -17  -6   51.84    3.89   1
  -3 -17  -5    3.10    2.11   1
  -3 -17  -4    1.39    2.29   1
  -3 -17  -3   42.25    4.03   1
  -3 -17  -2    4.28    3.19   1
  -3 -17  -1   12.60    2.63   1
  -3 -17   0   19.54    3.09   1
  -3 -17   1   -0.59    4.87   1
  -3 -17   2    1.90    3.31   1
  -3 -17   3   27.56    5.99   1
  -3 -17   4   11.70    6.22   1
  -3 -16 -15   -1.00    4.80   1
  -3 -16 -14   10.50    5.70   1
  -3 -16 -13    1.99    3.10   1
  -3 -16 -12    4.49    2.50   1
  -3 -16 -11   19.10    2.88   1
  -3 -16 -10   11.63    3.21   1
  -3 -16  -9    5.11    2.98   1
  -3 -16  -8   33.06    3.80   1
  -3 -16  -7   61.15    4.07   1
  -3 -16  -6   -1.10    2.10   1
  -3 -16  -5    6.92    2.52   1
  -3 -16  -4   56.25    4.35   1
  -3 -16  -3   10.18    2.49   1
  -3 -16  -2    3.61    3.00   1
  -3 -16  -1   70.73    5.55   1
  -3 -16   0   11.22    2.88   1
  -3 -16   1   20.70    3.37   1
  -3 -16   2    2.50    2.31   1
  -3 -16   3   49.42    6.05   1
  -3 -16   4    9.00    3.90   1
  -3 -16   6   13.03    5.41   1
  -3 -15 -16    2.10    4.61   1
  -3 -15 -15   15.60    5.77   1
  -3 -15 -14    7.90    2.47   1
  -3 -15 -13   -0.90    2.39   1
  -3 -15 -12   29.27    3.03   1
  -3 -15 -11    3.69    2.69   1
  -3 -15 -10   26.32    3.39   1
  -3 -15  -9    0.30    1.80   1
  -3 -15  -8   81.54    4.51   1
  -3 -15  -7   19.27    2.81   1
  -3 -15  -6  140.19    6.39   1
  -3 -15  -5   23.43    3.00   1
  -3 -15  -4   43.96    3.05   1
  -3 -15  -3   12.39    2.18   1
  -3 -15  -2   28.41    2.56   1
  -3 -15  -1    6.60    2.11   1
  -3 -15   0    3.10    2.29   1
  -3 -15   1   51.98    4.76   1
  -3 -15   2    5.29    2.58   1
  -3 -15   3   47.89    4.71   1
  -3 -15   4    2.19    2.60   1
  -3 -15   6   -2.89    2.58   1
  -3 -15   7   64.32    8.66   1
  -3 -15   8    9.18    4.42   1
  -3 -14 -17   13.76    4.90   1
  -3 -14 -16   12.82    5.58   1
  -3 -14 -15   -1.80    2.60   1
  -3 -14 -14    4.71    2.21   1
  -3 -14 -13   51.84    3.17   1
  -3 -14 -12   -1.59    2.19   1
  -3 -14 -11    7.08    1.92   1
  -3 -14 -10    4.41    2.18   1
  -3 -14  -9   82.26    4.53   1
  -3 -14  -8  269.29    9.85   1
  -3 -14  -7   57.15    3.63   1
  -3 -14  -6    4.00    2.08   1
  -3 -14  -5   86.12    4.64   1
  -3 -14  -4  264.71    9.44   1
  -3 -14  -3  453.69   17.89   1
  -3 -14  -2  138.77    7.54   1
  -3 -14  -1   34.93    3.55   1
  -3 -14   0   -1.00    3.40   1
  -3 -14   1    6.81    2.82   1
  -3 -14   2   29.48    3.15   1
  -3 -14   3   50.27    3.55   1
  -3 -14   4    7.90    2.92   1
  -3 -14   5   38.69    5.35   1
  -3 -14   6   35.28    5.23   1
  -3 -14   7   -8.88    4.11   1
  -3 -14   9   39.56    6.79   1
  -3 -13 -18    2.50    3.60   1
  -3 -13 -17   12.60    5.40   1
  -3 -13 -16   -1.00    2.60   1
  -3 -13 -15   79.39    5.17   1
  -3 -13 -14   21.16    2.48   1
  -3 -13 -13   35.88    2.76   1
  -3 -13 -12   52.13    3.03   1
  -3 -13 -11   64.32    3.37   1
  -3 -13 -10   10.30    1.80   1
  -3 -13  -9    9.12    2.60   1
  -3 -13  -8   81.18    4.32   1
  -3 -13  -7    9.61    2.42   1
  -3 -13  -6  129.50    5.69   1
  -3 -13  -5    5.29    2.81   1
  -3 -13  -4    1.80    1.90   1
  -3 -13  -3    4.49    1.48   1
  -3 -13  -2  187.96    7.40   1
  -3 -13  -1  268.63   12.13   1
  -3 -13   0    9.92    2.08   1
  -3 -13   1    4.88    1.90   1
  -3 -13   2   54.17    3.39   1
  -3 -13   3   15.68    2.38   1
  -3 -13   4    2.50    2.59   1
  -3 -13   5    7.40    4.52   1
  -3 -13   6    0.90    2.70   1
  -3 -13   7   62.25    6.47   1
  -3 -13   8   -6.60    5.40   1
  -3 -13  10    0.90    3.71   1
  -3 -13  11   14.29    6.50   1
  -3 -12 -18    5.81    3.90   1
  -3 -12 -17   21.34    3.33   1
  -3 -12 -16    6.50    3.31   1
  -3 -12 -15   10.82    3.42   1
  -3 -12 -14    3.50    1.98   1
  -3 -12 -13   15.37    1.96   1
  -3 -12 -12    3.50    1.98   1
  -3 -12 -11   71.57    3.38   1
  -3 -12 -10    8.58    1.88   1
  -3 -12  -9   17.22    1.99   1
  -3 -12  -8  106.30    4.74   1
  -3 -12  -7   85.01    3.50   1
  -3 -12  -6   33.87    2.21   1
  -3 -12  -5   91.97    3.84   1
  -3 -12  -4  491.07   16.84   1
  -3 -12  -3   38.07    2.22   1
  -3 -12  -2   51.27    3.15   1
  -3 -12  -1   30.47    1.99   1
  -3 -12   0   75.17    3.64   1
  -3 -12   1    8.12    2.22   1
  -3 -12   2    2.10    1.80   1
  -3 -12   3    7.67    2.11   1
  -3 -12   4    7.40    2.01   1
  -3 -12   5   22.47    3.98   1
  -3 -12   6    5.20    2.60   1
  -3 -12   7    2.40    2.29   1
  -3 -12   8   29.70    5.34   1
  -3 -12   9   31.70    5.40   1
  -3 -12  10  -10.37    4.70   1
  -3 -12  11   27.88    4.22   1
  -3 -12  12   15.29    4.38   1
  -3 -11 -19    4.00    4.92   1
  -3 -11 -18    0.00    1.00   1
  -3 -11 -17   -0.40    3.59   1
  -3 -11 -16    5.38    2.41   1
  -3 -11 -15  111.72    4.86   1
  -3 -11 -14   -1.59    1.59   1
  -3 -11 -13   21.34    2.03   1
  -3 -11 -12  145.20    5.06   1
  -3 -11 -11    2.99    1.59   1
  -3 -11 -10   48.30    2.36   1
  -3 -11  -9  106.09    3.50   1
  -3 -11  -8    4.08    1.41   1
  -3 -11  -7   77.97    3.53   1
  -3 -11  -6  143.28    5.75   1
  -3 -11  -5   12.67    1.92   1
  -3 -11  -4   49.14    2.24   1
  -3 -11  -3  114.70    3.64   1
  -3 -11  -2  103.43    3.66   1
  -3 -11  -1   32.04    2.15   1
  -3 -11   0  100.00    4.40   1
  -3 -11   1   23.81    2.24   1
  -3 -11   2   38.81    2.24   1
  -3 -11   3    1.80    2.30   1
  -3 -11   4   12.18    2.30   1
  -3 -11   5    3.10    3.91   1
  -3 -11   6    4.41    2.10   1
  -3 -11   7    5.81    2.60   1
  -3 -11   8    5.11    2.71   1
  -3 -11   9   62.73    6.34   1
  -3 -11  10   51.12    5.86   1
  -3 -11  12   -3.50    5.01   1
  -3 -11  13   24.90    5.59   1
  -3 -10 -19    9.92    6.24   1
  -3 -10 -18    2.89    3.50   1
  -3 -10 -17   86.49    5.39   1
  -3 -10 -16   47.06    3.98   1
  -3 -10 -15   -2.89    1.90   1
  -3 -10 -14   11.42    2.03   1
  -3 -10 -13   82.63    4.73   1
  -3 -10 -12   86.68    3.54   1
  -3 -10 -11  117.29    3.90   1
  -3 -10 -10   15.52    1.73   1
  -3 -10  -9    2.40    0.99   1
  -3 -10  -8    3.69    1.11   1
  -3 -10  -7  168.74    4.68   1
  -3 -10  -6   14.98    1.47   1
  -3 -10  -5   12.53    1.70   1
  -3 -10  -4  263.09    7.79   1
  -3 -10  -3  118.81    3.49   1
  -3 -10  -2    9.80    1.38   1
  -3 -10  -1  119.03    4.36   1
  -3 -10   0   52.13    2.60   1
  -3 -10   1   64.32    2.73   1
  -3 -10   2   64.96    3.87   1
  -3 -10   3   38.94    2.75   1
  -3 -10   4   48.86    2.80   1
  -3 -10   5   34.81    4.72   1
  -3 -10   6   71.23    4.56   1
  -3 -10   7   25.50    2.63   1
  -3 -10   8   81.72    4.52   1
  -3 -10   9   31.25    2.80   1
  -3 -10  10    3.20    4.62   1
  -3 -10  11   15.76    2.06   1
  -3 -10  12    6.92    2.10   1
  -3 -10  13    0.00    1.00   1
  -3  -9 -19   13.76    5.79   1
  -3  -9 -18   67.57    5.10   1
  -3  -9 -17   49.42    3.94   1
  -3  -9 -16    3.10    2.39   1
  -3  -9 -15   89.49    3.97   1
  -3  -9 -14   59.14    3.23   1
  -3  -9 -13   13.76    1.93   1
  -3  -9 -12   31.58    2.02   1
  -3  -9 -11    0.00    1.00   1
  -3  -9 -10   50.13    2.27   1
  -3  -9  -9   76.39    2.45   1
  -3  -9  -8    7.18    1.18   1
  -3  -9  -7    4.20    1.19   1
  -3  -9  -6   98.21    2.77   1
  -3  -9  -5   71.23    2.70   1
  -3  -9  -4    6.00    1.18   1
  -3  -9  -3  148.60    4.63   1
  -3  -9  -2    2.19    1.30   1
  -3  -9  -1    0.59    1.19   1
  -3  -9   0  299.64    8.31   1
  -3  -9   1  475.68   13.09   1
  -3  -9   2   29.27    1.84   1
  -3  -9   3   19.98    2.06   1
  -3  -9   4   18.92    2.78   1
  -3  -9   5  148.35    6.33   1
  -3  -9   6    1.99    1.80   1
  -3  -9   7    5.29    1.38   1
  -3  -9   8   62.73    2.69   1
  -3  -9   9   10.69    1.57   1
  -3  -9  10   18.06    2.46   1
  -3  -9  11    3.69    1.88   1
  -3  -9  12    1.59    1.99   1
  -3  -9  13   20.43    2.62   1
  -3  -9  14    2.99    4.19   1
  -3  -8 -20   74.48    8.98   1
  -3  -8 -19   -0.30    5.62   1
  -3  -8 -18    7.62    3.59   1
  -3  -8 -17    3.39    2.50   1
  -3  -8 -16   75.86    4.01   1
  -3  -8 -15    6.20    2.29   1
  -3  -8 -14   48.58    2.65   1
  -3  -8 -13    4.20    1.39   1
  -3  -8 -12   14.82    1.46   1
  -3  -8 -11   19.27    1.49   1
  -3  -8 -10   32.95    1.95   1
  -3  -8  -9   61.94    2.20   1
  -3  -8  -8    4.71    1.22   1
  -3  -8  -7  211.12    4.94   1
  -3  -8  -6   90.63    2.67   1
  -3  -8  -5  202.49    5.69   1
  -3  -8  -4   58.68    2.30   1
  -3  -8  -3  318.98    8.57   1
  -3  -8  -2   13.40    1.39   1
  -3  -8  -1   12.18    1.61   1
  -3  -8   0    4.00    1.20   1
  -3  -8   1  161.04    6.09   1
  -3  -8   2   42.90    2.36   1
  -3  -8   3   16.32    1.54   1
  -3  -8   4  178.49    7.75   1
  -3  -8   5    7.40    1.41   1
  -3  -8   6   52.85    2.04   1
  -3  -8   7   -1.90    1.30   1
  -3  -8   8  314.35    9.57   1
  -3  -8   9    1.30    1.39   1
  -3  -8  10    1.49    1.29   1
  -3  -8  11   -1.99    1.69   1
  -3  -8  12  124.77    5.59   1
  -3  -8  13   11.70    2.19   1
  -3  -8  14   19.98    2.50   1
  -3  -8  15   10.11    4.32   1
  -3  -7 -20   18.06    6.03   1
  -3  -7 -19    1.10    4.91   1
  -3  -7 -18    6.50    3.31   1
  -3  -7 -17   12.11    2.71   1
  -3  -7 -16   11.63    3.00   1
  -3  -7 -15    0.30    1.90   1
  -3  -7 -14    2.59    1.71   1
  -3  -7 -13    5.11    1.40   1
  -3  -7 -12  127.69    4.52   1
  -3  -7 -11   67.24    2.79   1
  -3  -7 -10    7.02    1.38   1
  -3  -7  -9  295.50    7.91   1
  -3  -7  -8   91.01    3.05   1
  -3  -7  -7    8.53    0.99   1
  -3  -7  -6    3.39    0.81   1
  -3  -7  -5  191.27    4.98   1
  -3  -7  -4   63.20    2.38   1
  -3  -7  -3  192.38    6.10   1
  -3  -7  -2   24.40    1.38   1
  -3  -7  -1  104.24    3.47   1
  -3  -7   0  101.61    4.03   1
  -3  -7   1 1907.94   51.54   1
  -3  -7   2  345.96   10.04   1
  -3  -7   3  708.09   17.03   1
  -3  -7   4   12.18    1.12   1
  -3  -7   5  130.42    4.11   1
  -3  -7   6  212.87    6.42   1
  -3  -7   7   10.30    1.28   1
  -3  -7   8   39.19    2.13   1
  -3  -7   9   39.69    2.02   1
  -3  -7  10    0.20    1.41   1
  -3  -7  11    8.12    1.82   1
  -3  -7  12    3.31    2.11   1
  -3  -7  13   11.70    2.53   1
  -3  -7  14   54.17    3.39   1
  -3  -7  15   13.32    2.63   1
  -3  -7  16   16.56    5.62   1
  -3  -6 -20   27.67    7.15   1
  -3  -6 -19    0.59    4.77   1
  -3  -6 -18    5.11    2.98   1
  -3  -6 -17   45.83    3.79   1
  -3  -6 -16   22.09    3.20   1
  -3  -6 -15   16.32    2.18   1
  -3  -6 -14   96.04    3.72   1
  -3  -6 -13    1.49    1.59   1
  -3  -6 -12  159.52    4.80   1
  -3  -6 -11  147.38    4.86   1
  -3  -6 -10   66.26    2.44   1
  -3  -6  -9   18.32    1.54   1
  -3  -6  -8   11.22    1.21   1
  -3  -6  -7   13.10    0.87   1
  -3  -6  -6   91.78    2.49   1
  -3  -6  -5  120.12    3.07   1
  -3  -6  -4  101.40    2.62   1
  -3  -6  -3  108.16    3.33   1
  -3  -6  -2  162.31    4.59   1
  -3  -6  -1   18.58    1.21   1
  -3  -6   0    0.90    1.01   1
  -3  -6   1  130.19    5.02   1
  -3  -6   2  183.06    4.33   1
  -3  -6   3  719.85   24.15   1
  -3  -6   4  195.72    5.04   1
  -3  -6   5    8.58    1.17   1
  -3  -6   6    1.99    1.10   1
  -3  -6   7   35.40    1.78   1
  -3  -6   8  246.49    7.22   1
  -3  -6   9   41.86    2.46   1
  -3  -6  10   38.07    2.47   1
  -3  -6  11    2.19    1.69   1
  -3  -6  12   62.09    3.94   1
  -3  -6  13   -1.80    1.80   1
  -3  -6  14  105.06    5.74   1
  -3  -6  15    5.02    2.02   1
  -3  -6  16   12.18    2.93   1
  -3  -5 -20    1.30    3.60   1
  -3  -5 -19   14.90    5.17   1
  -3  -5 -18   20.70    3.91   1
  -3  -5 -17    3.20    2.40   1
  -3  -5 -16   19.54    2.83   1
  -3  -5 -15   80.64    4.31   1
  -3  -5 -14   45.56    2.97   1
  -3  -5 -13   -1.00    1.50   1
  -3  -5 -12   24.01    2.35   1
  -3  -5 -11   33.87    1.75   1
  -3  -5 -10   29.05    1.62   1
  -3  -5  -9  185.78    5.18   1
  -3  -5  -8   90.44    2.85   1
  -3  -5  -7    5.81    1.30   1
  -3  -5  -6  433.06   12.07   1
  -3  -5  -5  995.40   22.08   1
  -3  -5  -4    6.30    0.70   1
  -3  -5  -3    8.12    0.80   1
  -3  -5  -2  435.56   12.94   1
  -3  -5  -1  365.96   11.48   1
  -3  -5   0  246.18    8.16   1
  -3  -5   1  309.06    8.44   1
  -3  -5   2    1.00    1.20   1
  -3  -5   3 1188.18   31.02   1
  -3  -5   4  667.71   45.48   1
  -3  -5   5  193.77    5.57   1
  -3  -5   6   21.34    1.48   1
  -3  -5   7    8.12    1.48   1
  -3  -5   8   90.25    3.42   1
  -3  -5   9   -1.30    1.60   1
  -3  -5  10   18.32    1.54   1
  -3  -5  11    8.58    1.58   1
  -3  -5  12   12.18    1.88   1
  -3  -5  13   12.82    2.22   1
  -3  -5  14   19.62    2.48   1
  -3  -5  15    0.59    2.19   1
  -3  -5  16   38.32    3.71   1
  -3  -5  17   -0.71    2.81   1
  -3  -4 -20   -1.59    4.99   1
  -3  -4 -19   45.83    5.96   1
  -3  -4 -18   22.09    3.85   1
  -3  -4 -17   35.52    4.05   1
  -3  -4 -16  245.86   10.04   1
  -3  -4 -15   13.76    2.60   1
  -3  -4 -14  121.00    5.28   1
  -3  -4 -13   35.64    2.63   1
  -3  -4 -12  111.30    4.85   1
  -3  -4 -11   21.53    2.04   1
  -3  -4 -10    7.02    1.48   1
  -3  -4  -9  361.38   12.55   1
  -3  -4  -8   89.68    2.84   1
  -3  -4  -7   28.73    1.39   1
  -3  -4  -6  104.04    2.86   1
  -3  -4  -5   42.25    1.56   1
  -3  -4  -4  143.04    3.11   1
  -3  -4  -3   34.93    1.42   1
  -3  -4  -2  181.17    7.00   1
  -3  -4  -1  733.87   33.05   1
  -3  -4   0   -0.40    0.50   1
  -3  -4   1   19.10    1.22   1
  -3  -4   2    2.10    1.01   1
  -3  -4   3  734.95   18.43   1
  -3  -4   4  469.59   11.27   1
  -3  -4   5  424.77   12.37   1
  -3  -4   6   10.63    1.17   1
  -3  -4   7  229.83    6.67   1
  -3  -4   8   91.58    3.45   1
  -3  -4   9   55.95    2.24   1
  -3  -4  10   -0.20    1.31   1
  -3  -4  11    6.20    1.69   1
  -3  -4  12   20.34    1.98   1
  -3  -4  13   44.89    2.68   1
  -3  -4  14   10.82    2.17   1
  -3  -4  15   -0.10    2.12   1
  -3  -4  16   19.98    3.04   1
  -3  -4  17    2.10    2.90   1
  -3  -3 -20    0.00    1.00   1
  -3  -3 -19    5.29    3.17   1
  -3  -3 -18   14.21    3.09   1
  -3  -3 -17    3.10    2.82   1
  -3  -3 -16   34.34    3.75   1
  -3  -3 -15    3.20    1.90   1
  -3  -3 -14   66.26    4.07   1
  -3  -3 -13   50.69    3.13   1
  -3  -3 -12   -0.90    1.31   1
  -3  -3 -11   12.67    1.57   1
  -3  -3 -10   65.45    2.75   1
  -3  -3  -9   10.30    1.28   1
  -3  -3  -8 1033.62   34.72   1
  -3  -3  -7  435.97   11.28   1
  -3  -3  -6 2821.73   78.62   1
  -3  -3  -5  275.23    6.64   1
  -3  -3  -4  530.84   15.67   1
  -3  -3  -3 1122.25   34.17   1
  -3  -3  -2   15.29    0.94   1
  -3  -3  -1   94.48    3.11   1
  -3  -3   0  581.29   32.31   1
  -3  -3   1  600.74   18.63   1
  -3  -3   2  181.98    5.40   1
  -3  -3   3  443.52   14.32   1
  -3  -3   4   -0.59    0.89   1
  -3  -3   5   88.55    3.20   1
  -3  -3   6    7.67    1.00   1
  -3  -3   7  270.60    6.91   1
  -3  -3   8   83.36    2.56   1
  -3  -3   9   10.30    1.99   1
  -3  -3  10   24.21    2.66   1
  -3  -3  11   63.20    5.25   1
  -3  -3  12    1.99    1.89   1
  -3  -3  13    6.10    2.52   1
  -3  -3  14   53.14    5.83   1
  -3  -3  15    2.89    2.11   1
  -3  -3  16   25.50    3.23   1
  -3  -3  17   10.63    2.41   1
  -3  -3  18    4.41    3.32   1
  -3  -2 -19    7.90    5.23   1
  -3  -2 -18   -0.30    3.21   1
  -3  -2 -17   35.64    3.94   1
  -3  -2 -16   87.98    6.19   1
  -3  -2 -15   16.32    2.18   1
  -3  -2 -14    0.79    2.30   1
  -3  -2 -13  137.59    9.38   1
  -3  -2 -12   72.93    3.42   1
  -3  -2 -11   55.65    2.83   1
  -3  -2 -10  455.40   13.66   1
  -3  -2  -9   -1.39    0.90   1
  -3  -2  -8  179.02    7.23   1
  -3  -2  -7  548.03   28.09   1
  -3  -2  -6 1036.84   30.27   1
  -3  -2  -5  307.65    8.42   1
  -3  -2  -4  286.29    7.44   1
  -3  -2  -3  672.88   20.23   1
  -3  -2  -2 3216.02  131.57   1
  -3  -2  -1 1087.68   50.79   1
  -3  -2   0  509.86   18.06   1
  -3  -2   1  546.62   16.83   1
  -3  -2   2 1229.90   41.38   1
  -3  -2   3  153.02    4.45   1
  -3  -2   4  298.25    7.94   1
  -3  -2   5  110.25    4.41   1
  -3  -2   6    8.41    1.39   1
  -3  -2   7  114.28    4.28   1
  -3  -2   8    9.92    2.39   1
  -3  -2   9   29.70    2.07   1
  -3  -2  10    0.00    1.00   1
  -3  -2  11   84.27    3.67   1
  -3  -2  12    5.52    1.79   1
  -3  -2  13    0.50    2.91   1
  -3  -2  14    9.61    2.91   1
  -3  -2  15   38.69    4.35   1
  -3  -2  16    2.79    5.58   1
  -3  -2  17   22.56    4.56   1
  -3  -2  18   19.01    5.32   1
  -3  -1 -19    8.29    3.51   1
  -3  -1 -18   13.03    3.90   1
  -3  -1 -17   27.04    4.78   1
  -3  -1 -16    8.01    4.08   1
  -3  -1 -15   40.45    3.31   1
  -3  -1 -14  199.94    8.20   1
  -3  -1 -13   90.25    4.18   1
  -3  -1 -12    5.29    2.12   1
  -3  -1 -11   56.25    3.90   1
  -3  -1 -10    6.40    1.11   1
  -3  -1  -9   43.56    2.11   1
  -3  -1  -8  153.51    6.20   1
  -3  -1  -7  304.85    9.08   1
  -3  -1  -6 1764.00   55.44   1
  -3  -1  -5   20.79    3.92   1
  -3  -1  -4  789.05   32.58   1
  -3  -1  -3  154.75    5.47   1
  -3  -1  -2 1008.06   27.31   1
  -3  -1  -1   51.12    1.86   1
  -3  -1   0  768.95   24.40   1
  -3  -1   1   37.21    1.59   1
  -3  -1   2 1294.56   41.02   1
  -3  -1   3 3307.40  120.77   1
  -3  -1   4  380.25   12.48   1
  -3  -1   5   72.42    2.89   1
  -3  -1   6  415.75   15.90   1
  -3  -1   7  424.77   13.19   1
  -3  -1   8   10.30    1.61   1
  -3  -1   9   -3.31    1.71   1
  -3  -1  10   -1.39    1.39   1
  -3  -1  11   89.11    3.96   1
  -3  -1  12   28.84    2.58   1
  -3  -1  13   81.54    6.86   1
  -3  -1  14    6.10    1.98   1
  -3  -1  15    1.00    3.80   1
  -3  -1  16    2.50    3.00   1
  -3  -1  17   76.04    8.72   1
  -3  -1  18   -1.59    3.58   1
  -3   0 -19   25.60    6.48   1
  -3   0 -18    0.90    4.50   1
  -3   0 -17   28.09    4.03   1
  -3   0 -16   -0.59    2.39   1
  -3   0 -15   46.92    3.56   1
  -3   0 -14   31.02    3.68   1
  -3   0 -13  222.01   10.73   1
  -3   0 -12    0.59    2.28   1
  -3   0 -11   69.06    3.99   1
  -3   0 -10  222.01    9.83   1
  -3   0  -9  257.28   11.23   1
  -3   0  -8   77.97    5.12   1
  -3   0  -7   37.58    1.84   1
  -3   0  -6  306.60    9.81   1
  -3   0  -5   82.08    3.26   1
  -3   0  -4 1454.66   44.24   1
  -3   0  -3  522.12   13.71   1
  -3   0  -2   55.95    1.35   1
  -3   0  -1  528.08   16.09   1
  -3   0   0  396.01   10.35   1
  -3   0   1  170.30    6.79   1
  -3   0   2  532.69   17.54   1
  -3   0   3  843.90   29.63   1
  -3   0   4  357.97   10.97   1
  -3   0   5  260.18    8.06   1
  -3   0   6  217.56    7.08   1
  -3   0   7  594.87   17.07   1
  -3   0   8   -0.59    1.19   1
  -3   0   9  181.44    5.93   1
  -3   0  10   31.58    2.25   1
  -3   0  11   41.86    2.98   1
  -3   0  12  154.01    5.71   1
  -3   0  13   47.20    3.85   1
  -3   0  14   26.73    3.00   1
  -3   0  15   52.85    4.36   1
  -3   0  16    3.61    4.10   1
  -3   0  17   30.14    4.94   1
  -3   0  18   25.91    6.11   1
  -3   0  19   -1.00    4.30   1
  -3   1 -19    7.78    4.30   1
  -3   1 -18   18.06    4.16   1
  -3   1 -17   27.88    3.91   1
  -3   1 -16   14.59    2.90   1
  -3   1 -15   90.06    4.74   1
  -3   1 -14    9.92    2.39   1
  -3   1 -13   26.11    2.66   1
  -3   1 -12   59.14    3.38   1
  -3   1 -11  813.39   26.81   1
  -3   1 -10  244.92    9.39   1
  -3   1  -9  677.56   24.47   1
  -3   1  -8    2.89    2.38   1
  -3   1  -7    3.88    1.50   1
  -3   1  -6  221.71    7.15   1
  -3   1  -5  438.90   13.41   1
  -3   1  -4  312.58    7.78   1
  -3   1  -3   54.91    1.48   1
  -3   1  -2  159.01    3.28   1
  -3   1  -1   60.22    1.71   1
  -3   1   0   53.73    1.76   1
  -3   1   1   20.61    1.00   1
  -3   1   2  131.10    4.12   1
  -3   1   3   29.16    1.40   1
  -3   1   4  250.59    9.18   1
  -3   1   5    7.51    1.42   1
  -3   1   6    3.80    1.01   1
  -3   1   7    1.30    1.09   1
  -3   1   8   24.60    2.88   1
  -3   1   9   92.16    3.84   1
  -3   1  10  106.92    6.00   1
  -3   1  11  143.28    5.75   1
  -3   1  12   20.07    2.42   1
  -3   1  13  492.84   18.20   1
  -3   1  14    4.08    2.50   1
  -3   1  15   11.09    4.00   1
  -3   1  16   -1.39    2.69   1
  -3   1  17   39.94    5.69   1
  -3   1  18    7.29    3.51   1
  -3   2 -18    0.90    3.80   1
  -3   2 -17   -4.00    3.20   1
  -3   2 -16    0.10    2.43   1
  -3   2 -15   33.99    3.15   1
  -3   2 -14   34.81    3.78   1
  -3   2 -13  359.10   14.78   1
  -3   2 -12    0.20    2.02   1
  -3   2 -11   93.12    5.02   1
  -3   2 -10   37.45    2.33   1
  -3   2  -9  313.29   11.33   1
  -3   2  -8  110.04    4.20   1
  -3   2  -7  153.51    5.95   1
  -3   2  -6  377.91   12.83   1
  -3   2  -5    1.90    0.99   1
  -3   2  -4  248.69    8.20   1
  -3   2  -3    0.90    0.40   1
  -3   2  -2   39.06    1.12   1
  -3   2  -1 1024.00   25.60   1
  -3   2   0 2544.19   72.63   1
  -3   2   1    7.78    0.89   1
  -3   2   2  426.01   13.21   1
  -3   2   3  251.86    6.98   1
  -3   2   4  503.10   14.80   1
  -3   2   5    7.18    1.18   1
  -3   2   6  486.20   14.55   1
  -3   2   7   90.44    3.42   1
  -3   2   8   35.64    2.03   1
  -3   2   9    8.01    1.41   1
  -3   2  10  100.00    4.40   1
  -3   2  11   31.25    2.57   1
  -3   2  12  136.19    6.54   1
  -3   2  13   45.43    3.64   1
  -3   2  14   27.04    3.54   1
  -3   2  15   12.82    4.22   1
  -3   2  16   35.05    4.14   1
  -3   2  17   29.27    4.98   1
  -3   2  18    1.90    5.00   1
  -3   2  19   36.12    5.41   1
  -3   3 -18   27.67    6.42   1
  -3   3 -17   27.14    5.73   1
  -3   3 -16    0.30    5.02   1
  -3   3 -15   29.70    3.92   1
  -3   3 -14   29.59    3.37   1
  -3   3 -13   56.25    3.75   1
  -3   3 -12    4.28    2.28   1
  -3   3 -11  284.60   10.80   1
  -3   3 -10   30.14    2.64   1
  -3   3  -9   60.37    4.35   1
  -3   3  -8    9.30    1.52   1
  -3   3  -7   46.38    2.45   1
  -3   3  -6   32.15    1.93   1
  -3   3  -5   43.03    1.84   1
  -3   3  -4  204.20    6.29   1
  -3   3  -3    3.50    0.49   1
  -3   3  -2    0.90    0.49   1
  -3   3  -1   41.60    1.29   1
  -3   3   0  139.71    4.02   1
  -3   3   1  397.20   10.76   1
  -3   3   2  342.62    9.63   1
  -3   3   3  107.74    3.32   1
  -3   3   4  110.46    3.99   1
  -3   3   5  103.23    4.88   1
  -3   3   6  455.40   12.38   1
  -3   3   7   90.06    3.23   1
  -3   3   8  222.61    7.46   1
  -3   3   9    8.88    1.67   1
  -3   3  10  918.09   27.88   1
  -3   3  11   67.08    3.44   1
  -3   3  12   78.50    4.25   1
  -3   3  13   48.16    3.75   1
  -3   3  14  134.79    6.27   1
  -3   3  15   11.90    4.21   1
  -3   3  16   30.91    5.56   1
  -3   3  17   13.99    3.81   1
  -3   3  18   14.67    4.37   1
  -3   4 -17    9.30    5.31   1
  -3   4 -16    5.71    5.11   1
  -3   4 -15   11.97    3.53   1
  -3   4 -14    2.79    2.50   1
  -3   4 -13    3.39    2.98   1
  -3   4 -12   10.82    2.43   1
  -3   4 -11   42.25    2.99   1
  -3   4 -10  183.87    7.59   1
  -3   4  -9  135.96    5.13   1
  -3   4  -8    2.40    1.61   1
  -3   4  -7  694.85   21.09   1
  -3   4  -6    2.50    1.30   1
  -3   4  -5   54.17    2.50   1
  -3   4  -4   16.73    1.23   1
  -3   4  -3   67.90    1.98   1
  -3   4  -2  523.04   12.35   1
  -3   4  -1  256.00    5.76   1
  -3   4   0   21.81    1.31   1
  -3   4   1   32.95    1.72   1
  -3   4   2    1.90    1.21   1
  -3   4   3 2119.68   58.01   1
  -3   4   4  221.41    6.55   1
  -3   4   5 2114.16   54.26   1
  -3   4   6  875.57   25.45   1
  -3   4   7   23.72    2.43   1
  -3   4   8  266.02    7.50   1
  -3   4   9   10.89    2.11   1
  -3   4  10  225.00   11.40   1
  -3   4  11  127.69    5.20   1
  -3   4  12  212.58   10.79   1
  -3   4  13   52.56    4.64   1
  -3   4  14   50.55    3.98   1
  -3   4  15   -0.79    4.08   1
  -3   4  16   65.45    6.31   1
  -3   4  17    5.02    4.30   1
  -3   4  18   28.84    6.12   1
  -3   4  19   -0.10    3.95   1
  -3   5 -17    3.80    5.81   1
  -3   5 -16   -2.79    5.08   1
  -3   5 -15    9.61    3.78   1
  -3   5 -14   50.69    4.13   1
  -3   5 -13   -0.10    2.84   1
  -3   5 -12   32.60    3.08   1
  -3   5 -11  122.10    5.30   1
  -3   5 -10   30.69    2.99   1
  -3   5  -9  121.22    5.28   1
  -3   5  -8  151.78    6.16   1
  -3   5  -7  236.85    8.31   1
  -3   5  -6    0.40    2.19   1
  -3   5  -5    4.20    1.68   1
  -3   5  -4   26.83    1.55   1
  -3   5  -3   11.63    1.30   1
  -3   5  -2   16.56    1.30   1
  -3   5  -1  614.05   13.38   1
  -3   5   0  171.87    4.98   1
  -3   5   1 2172.49   60.59   1
  -3   5   2  252.17    7.62   1
  -3   5   3  117.51   16.48   1
  -3   5   4  892.22   25.09   1
  -3   5   5  557.43   14.64   1
  -3   5   6   29.92    1.97   1
  -3   5   7  129.05    4.09   1
  -3   5   8   40.32    2.67   1
  -3   5   9   24.60    2.08   1
  -3   5  10   28.09    2.23   1
  -3   5  11   36.84    2.67   1
  -3   5  12   19.36    2.82   1
  -3   5  13    3.88    1.81   1
  -3   5  14   17.47    3.51   1
  -3   5  15   -1.69    3.98   1
  -3   5  16   12.60    4.69   1
  -3   5  17    9.61    3.72   1
  -3   5  18   26.63    6.09   1
  -3   5  19    6.00    5.78   1
  -3   6 -16    2.59    4.89   1
  -3   6 -15   -1.90    5.41   1
  -3   6 -14   17.89    5.33   1
  -3   6 -13   10.63    2.80   1
  -3   6 -12   51.84    3.60   1
  -3   6 -11    1.90    1.90   1
  -3   6 -10  190.99    9.12   1
  -3   6  -9  127.24    5.19   1
  -3   6  -8    5.71    2.01   1
  -3   6  -7    5.38    1.81   1
  -3   6  -6   82.81    3.46   1
  -3   6  -5  194.60    6.70   1
  -3   6  -4  113.85    5.55   1
  -3   6  -3  177.96    6.40   1
  -3   6  -2   -1.90    1.49   1
  -3   6  -1  390.46   10.67   1
  -3   6   0  109.20    3.97   1
  -3   6   1   17.89    2.12   1
  -3   6   2  949.26   27.73   1
  -3   6   3 1665.46   41.63   1
  -3   6   4   18.23    1.88   1
  -3   6   5  409.25   12.95   1
  -3   6   6  102.62    4.05   1
  -3   6   7  103.43    3.86   1
  -3   6   8    2.69    1.71   1
  -3   6   9   -0.30    1.71   1
  -3   6  10   36.84    2.67   1
  -3   6  11   -0.10    2.02   1
  -3   6  12  248.69    9.15   1
  -3   6  13   15.37    3.06   1
  -3   6  14   45.83    4.33   1
  -3   6  15   12.18    4.33   1
  -3   6  16   60.37    6.53   1
  -3   6  17    6.50    3.72   1
  -3   6  18   51.55    5.46   1
  -3   6  19   12.67    5.62   1
  -3   7 -15    8.88    5.60   1
  -3   7 -14   15.29    3.99   1
  -3   7 -13    5.90    4.71   1
  -3   7 -12   12.53    2.48   1
  -3   7 -11    2.59    4.19   1
  -3   7 -10    1.21    2.31   1
  -3   7  -9    5.62    2.18   1
  -3   7  -8  201.92    6.82   1
  -3   7  -7   66.59    3.26   1
  -3   7  -6  397.20   13.55   1
  -3   7  -5   70.73    3.03   1
  -3   7  -4  114.92    3.64   1
  -3   7  -3   96.83    3.74   1
  -3   7  -2    8.12    1.42   1
  -3   7  -1   38.44    2.23   1
  -3   7   0    8.01    1.19   1
  -3   7   1  842.16   22.64   1
  -3   7   2    7.90    1.69   1
  -3   7   3  212.58    6.42   1
  -3   7   4   24.40    2.17   1
  -3   7   5  239.63    7.74   1
  -3   7   6  155.75    4.74   1
  -3   7   7   10.30    1.80   1
  -3   7   8  121.66    4.85   1
  -3   7   9   41.86    3.36   1
  -3   7  10  142.56    5.49   1
  -3   7  11   43.16    3.02   1
  -3   7  12    1.39    2.01   1
  -3   7  13   38.94    3.74   1
  -3   7  14   47.75    4.56   1
  -3   7  15   -2.31    4.62   1
  -3   7  16    0.90    3.00   1
  -3   7  17    0.40    2.99   1
  -3   7  18   12.32    5.41   1
  -3   7  19    2.99    5.99   1
  -3   8 -15    1.21    5.41   1
  -3   8 -14    0.20    3.12   1
  -3   8 -13   40.45    5.22   1
  -3   8 -12   41.73    5.04   1
  -3   8 -11   21.90    4.49   1
  -3   8 -10   39.19    3.26   1
  -3   8  -9   14.52    2.44   1
  -3   8  -8   32.15    2.84   1
  -3   8  -7   30.91    2.67   1
  -3   8  -6   89.11    4.34   1
  -3   8  -5    6.40    1.72   1
  -3   8  -4   -0.50    0.70   1
  -3   8  -3  331.97    9.84   1
  -3   8  -2  159.26    4.80   1
  -3   8  -1  101.40    3.83   1
  -3   8   0    7.40    1.41   1
  -3   8   1   78.68    3.02   1
  -3   8   2  387.70   10.63   1
  -3   8   3   25.00    2.30   1
  -3   8   4   15.76    1.91   1
  -3   8   5   13.62    1.77   1
  -3   8   6    5.71    2.10   1
  -3   8   7   16.40    1.78   1
  -3   8   8   13.03    2.38   1
  -3   8   9  129.28    5.00   1
  -3   8  10   -0.20    1.91   1
  -3   8  11   13.10    2.53   1
  -3   8  12  513.02   20.84   1
  -3   8  13    2.10    3.71   1
  -3   8  14   59.44    4.93   1
  -3   8  15   57.76    5.93   1
  -3   8  16  144.96   11.32   1
  -3   8  17   23.72    6.14   1
  -3   8  18    1.90    5.41   1
  -3   8  19    8.41    6.38   1
  -3   9 -14   23.81    6.34   1
  -3   9 -13    5.20    3.51   1
  -3   9 -11   31.92    4.63   1
  -3   9 -10   12.60    4.69   1
  -3   9  -9   -3.50    2.28   1
  -3   9  -8   13.99    2.32   1
  -3   9  -7   49.42    3.37   1
  -3   9  -6    5.71    1.91   1
  -3   9  -5   20.52    2.72   1
  -3   9  -4  130.19    4.34   1
  -3   9  -3   14.36    1.89   1
  -3   9  -2  379.47   14.03   1
  -3   9  -1    3.80    1.29   1
  -3   9   0    5.02    1.70   1
  -3   9   1  795.24   26.51   1
  -3   9   2    7.51    2.08   1
  -3   9   3    5.29    1.52   1
  -3   9   4   19.18    2.54   1
  -3   9   5  329.06   10.52   1
  -3   9   6   30.36    1.98   1
  -3   9   7    8.82    1.90   1
  -3   9   8   78.15    3.36   1
  -3   9   9   -1.99    2.28   1
  -3   9  10   -0.59    1.79   1
  -3   9  11    4.58    2.91   1
  -3   9  12   16.73    2.86   1
  -3   9  13    0.20    2.52   1
  -3   9  14  121.88    7.73   1
  -3   9  15    6.60    4.52   1
  -3   9  16    1.39    3.28   1
  -3   9  17   25.70    5.98   1
  -3   9  18    0.79    4.08   1
  -3  10 -13   20.52    5.16   1
  -3  10 -12   37.58    6.13   1
  -3  10 -11    1.49    3.49   1
  -3  10 -10   16.40    3.56   1
  -3  10  -9   26.11    5.11   1
  -3  10  -8   10.82    2.90   1
  -3  10  -7    0.50    2.00   1
  -3  10  -6   46.65    2.87   1
  -3  10  -5    1.80    2.09   1
  -3  10  -4  135.26    4.19   1
  -3  10  -3    6.30    2.31   1
  -3  10  -2   11.02    2.32   1
  -3  10  -1  146.41    5.57   1
  -3  10   0    5.02    1.79   1
  -3  10   1   29.81    2.95   1
  -3  10   2   26.83    2.18   1
  -3  10   3   10.89    2.18   1
  -3  10   4   25.50    2.12   1
  -3  10   5   -0.59    1.69   1
  -3  10   6   75.69    3.13   1
  -3  10   7   22.75    2.29   1
  -3  10   8  125.44    5.15   1
  -3  10   9  239.63    8.05   1
  -3  10  10    3.20    2.00   1
  -3  10  11   35.05    2.84   1
  -3  10  12    3.61    3.12   1
  -3  10  13   40.32    4.44   1
  -3  10  14   -1.80    2.49   1
  -3  10  15   16.48    4.47   1
  -3  10  16   30.69    4.65   1
  -3  10  17   -2.50    4.99   1
  -3  10  18    2.99    4.29   1
  -3  11 -12    7.02    4.03   1
  -3  11 -11   24.21    6.69   1
  -3  11 -10   -1.49    3.29   1
  -3  11  -8   54.17    6.77   1
  -3  11  -7   11.02    5.11   1
  -3  11  -6   98.21    5.55   1
  -3  11  -5    0.59    0.69   1
  -3  11  -4   57.61    3.04   1
  -3  11  -3    2.31    1.00   1
  -3  11  -2  191.82    8.31   1
  -3  11  -1    2.99    2.11   1
  -3  11   0    9.92    1.83   1
  -3  11   1    6.00    2.20   1
  -3  11   2   37.82    2.95   1
  -3  11   3    6.30    2.11   1
  -3  11   4  141.13    5.23   1
  -3  11   5   18.58    1.90   1
  -3  11   6   -0.20    1.71   1
  -3  11   7   81.00    4.32   1
  -3  11   8   26.73    2.69   1
  -3  11   9    9.61    2.73   1
  -3  11  10   12.11    2.71   1
  -3  11  11   19.27    3.34   1
  -3  11  12   -2.40    2.51   1
  -3  11  13   -4.00    2.60   1
  -3  11  14   49.14    4.77   1
  -3  11  15    2.31    5.02   1
  -3  11  16    1.69    4.50   1
  -3  11  17   34.57    5.06   1
  -3  12 -11    5.71    5.40   1
  -3  12 -10    2.99    4.19   1
  -3  12  -9   26.42    4.93   1
  -3  12  -8   -6.40    4.20   1
  -3  12  -7    1.90    4.80   1
  -3  12  -6    3.50    2.58   1
  -3  12  -5    0.90    0.70   1
  -3  12  -4   23.62    1.56   1
  -3  12  -3   -1.80    1.21   1
  -3  12  -2    9.49    2.22   1
  -3  12  -1   13.10    2.61   1
  -3  12   0  301.72   10.07   1
  -3  12   1    6.40    2.18   1
  -3  12   2   64.80    3.54   1
  -3  12   3   24.50    2.77   1
  -3  12   4   32.95    3.10   1
  -3  12   5    8.01    2.60   1
  -3  12   6   77.09    4.21   1
  -3  12   7    2.69    2.10   1
  -3  12   8   12.67    2.21   1
  -3  12   9    3.39    3.90   1
  -3  12  10    9.00    2.88   1
  -3  12  11   13.18    3.27   1
  -3  12  12    2.99    4.08   1
  -3  12  13   40.83    6.26   1
  -3  12  14    7.67    3.71   1
  -3  12  15  113.64    8.53   1
  -3  12  16   14.59    5.20   1
  -3  12  17   -0.10    4.25   1
  -3  13 -10    1.59    5.67   1
  -3  13  -9    5.20    4.38   1
  -3  13  -8   12.60    4.97   1
  -3  13  -7    6.00    2.99   1
  -3  13  -6    3.10    3.41   1
  -3  13  -5   -3.88    4.37   1
  -3  13  -4   14.82    1.69   1
  -3  13  -3   14.67    2.07   1
  -3  13  -2   47.06    5.76   1
  -3  13  -1   29.05    3.77   1
  -3  13   0    2.10    2.61   1
  -3  13   1   10.11    2.99   1
  -3  13   2    4.49    2.20   1
  -3  13   3    1.80    2.09   1
  -3  13   4   67.08    4.26   1
  -3  13   5    2.31    2.49   1
  -3  13   6   50.84    5.42   1
  -3  13   7    6.71    3.99   1
  -3  13   8  139.95    8.99   1
  -3  13   9   -1.10    4.20   1
  -3  13  10   18.58    3.36   1
  -3  13  11   42.38    5.47   1
  -3  13  12   -9.00    4.80   1
  -3  13  13   20.43    4.88   1
  -3  13  14   32.95    6.31   1
  -3  13  15    5.02    3.81   1
  -3  13  16    2.10    4.00   1
  -3  14  -8   -1.99    5.58   1
  -3  14  -7   11.97    3.88   1
  -3  14  -6   -1.00    5.50   1
  -3  14  -5    6.30    4.32   1
  -3  14  -4   -4.58    3.00   1
  -3  14  -3   32.49    2.39   1
  -3  14  -2    1.39    1.70   1
  -3  14  -1    7.62    4.08   1
  -3  14   0   52.71    6.10   1
  -3  14   1   25.00    4.80   1
  -3  14   2    5.29    3.31   1
  -3  14   3   24.01    4.12   1
  -3  14   4   17.89    4.48   1
  -3  14   5    1.49    3.78   1
  -3  14   6  103.63    8.14   1
  -3  14   7   11.09    3.33   1
  -3  14   8   61.94    6.61   1
  -3  14   9   20.98    3.94   1
  -3  14  10   18.66    5.01   1
  -3  14  11    3.20    4.62   1
  -3  14  12   35.05    5.45   1
  -3  14  13    4.49    4.88   1
  -3  14  14   -0.79    5.96   1
  -3  14  15   11.90    5.80   1
  -3  15  -7   -5.02    6.41   1
  -3  15  -6   -2.79    5.88   1
  -3  15  -5    5.38    4.32   1
  -3  15  -4    7.78    4.69   1
  -3  15  -3   13.40    4.90   1
  -3  15  -2   29.16    4.64   1
  -3  15  -1    2.69    3.08   1
  -3  15   0   15.92    5.43   1
  -3  15   1   13.91    4.48   1
  -3  15   2   26.83    3.32   1
  -3  15   3    0.59    2.99   1
  -3  15   4   -2.69    4.49   1
  -3  15   5   -5.29    3.08   1
  -3  15   6    3.61    3.12   1
  -3  15   7    7.18    3.91   1
  -3  15   8   82.45    6.72   1
  -3  15   9    0.71    4.62   1
  -3  15  10   16.97    5.60   1
  -3  15  11   -4.00    5.00   1
  -3  15  12    2.19    3.79   1
  -3  15  13    8.01    4.19   1
  -3  15  14   23.43    5.13   1
  -3  16  -5    3.39    5.30   1
  -3  16  -4   -0.79    4.27   1
  -3  16  -3    8.29    5.82   1
  -3  16  -2    5.29    5.61   1
  -3  16  -1    2.50    3.51   1
  -3  16   0   -5.02    4.30   1
  -3  16   1    5.02    4.30   1
  -3  16   2   -2.40    3.19   1
  -3  16   3   32.95    5.85   1
  -3  16   4   81.00    6.84   1
  -3  16   5   14.82    3.93   1
  -3  16   6   16.97    5.19   1
  -3  16   7   19.01    4.01   1
  -3  16   8   -1.69    4.99   1
  -3  16   9    9.92    4.60   1
  -3  16  10   10.30    4.30   1
  -3  16  11   -2.19    3.70   1
  -3  16  12   11.63    6.82   1
  -3  16  13   17.81    7.34   1
  -3  17  -2   15.21    5.93   1
  -3  17  -1   10.63    5.74   1
  -3  17   0   -1.90    3.62   1
  -3  17   1    6.60    5.29   1
  -3  17   2    9.12    4.59   1
  -3  17   3   11.49    5.29   1
  -3  17   4   -1.69    3.20   1
  -3  17   5   12.32    5.69   1
  -3  17   6    9.99    3.79   1
  -3  17   7   28.41    5.97   1
  -3  17   8   23.52    4.27   1
  -3  17   9    1.69    4.08   1
  -3  17  10   -5.90    5.49   1
  -3  18   2    8.12    5.19   1
  -3  18   3   18.23    6.58   1
  -3  18   4    1.69    4.29   1
  -3  18   5    9.49    6.41   1
  -3  18   6    4.41    4.62   1
  -3  18   7    0.90    6.40   1
  -2 -19  -9   -0.50    6.12   1
  -2 -19  -8    2.31    3.40   1
  -2 -19  -7    5.20    5.02   1
  -2 -19  -6   17.72    4.97   1
  -2 -19  -5    1.90    5.52   1
  -2 -19  -4   15.68    4.67   1
  -2 -19  -3    9.92    5.61   1
  -2 -19  -2   12.67    4.77   1
  -2 -19  -1    7.18    5.57   1
  -2 -18 -12    1.30    3.31   1
  -2 -18 -11   -2.59    5.38   1
  -2 -18 -10    5.90    5.49   1
  -2 -18  -9   30.80    5.55   1
  -2 -18  -8    1.30    4.90   1
  -2 -18  -7    4.71    2.69   1
  -2 -18  -6   14.67    3.22   1
  -2 -18  -5   10.82    3.82   1
  -2 -18  -4    2.19    2.99   1
  -2 -18  -3   -5.90    4.71   1
  -2 -18  -2   66.42    6.19   1
  -2 -18  -1   -4.00    5.60   1
  -2 -18   0    4.71    5.90   1
  -2 -18   1    6.10    4.69   1
  -2 -18   2   21.81    6.44   1
  -2 -17 -14   15.52    4.41   1
  -2 -17 -13   14.36    4.70   1
  -2 -17 -12   -2.99    4.81   1
  -2 -17 -11    5.81    3.08   1
  -2 -17 -10    1.21    2.51   1
  -2 -17  -9   27.04    3.74   1
  -2 -17  -8    0.90    2.30   1
  -2 -17  -7   39.06    4.00   1
  -2 -17  -6   -0.20    2.41   1
  -2 -17  -5    2.19    2.40   1
  -2 -17  -4   -1.80    2.30   1
  -2 -17  -3   17.47    3.51   1
  -2 -17  -2    3.80    3.51   1
  -2 -17  -1    6.30    2.51   1
  -2 -17   0    6.10    5.09   1
  -2 -17   1    9.18    4.79   1
  -2 -17   2   24.01    4.12   1
  -2 -17   3    4.08    5.09   1
  -2 -17   4    0.40    3.98   1
  -2 -17   5   11.09    6.19   1
  -2 -16 -15   -1.80    3.70   1
  -2 -16 -14    7.78    5.08   1
  -2 -16 -13   10.18    2.81   1
  -2 -16 -12   28.20    4.14   1
  -2 -16 -11   14.67    3.06   1
  -2 -16 -10   -0.59    3.19   1
  -2 -16  -9   20.43    3.16   1
  -2 -16  -8    1.99    2.40   1
  -2 -16  -7    3.61    3.19   1
  -2 -16  -6    1.10    2.20   1
  -2 -16  -5   59.14    4.15   1
  -2 -16  -4    4.00    2.48   1
  -2 -16  -3   11.63    3.21   1
  -2 -16  -2   -2.79    2.40   1
  -2 -16  -1   28.84    3.65   1
  -2 -16   0   49.84    4.24   1
  -2 -16   1    9.00    2.40   1
  -2 -16   2   33.64    5.57   1
  -2 -16   3    6.00    5.00   1
  -2 -16   4   57.00    7.25   1
  -2 -16   5   -4.80    5.08   1
  -2 -15 -16   19.62    5.94   1
  -2 -15 -15   18.49    5.93   1
  -2 -15 -14   25.60    2.93   1
  -2 -15 -13    9.18    2.48   1
  -2 -15 -12   26.21    2.66   1
  -2 -15 -11    3.69    2.61   1
  -2 -15 -10    3.61    2.32   1
  -2 -15  -9    9.80    2.88   1
  -2 -15  -8   -0.79    2.30   1
  -2 -15  -7  149.82    7.34   1
  -2 -15  -6    0.10    2.33   1
  -2 -15  -5    4.28    2.69   1
  -2 -15  -4    5.20    2.69   1
  -2 -15  -3  110.25    5.67   1
  -2 -15  -2  196.00    8.96   1
  -2 -15  -1   91.78    5.94   1
  -2 -15   0    7.67    2.71   1
  -2 -15   1   25.30    3.22   1
  -2 -15   2    1.90    2.40   1
  -2 -15   3   15.92    3.11   1
  -2 -15   4    1.00    4.40   1
  -2 -15   5    7.62    4.80   1
  -2 -15   7   -0.50    5.32   1
  -2 -15   8   12.32    4.42   1
  -2 -14 -17    6.40    5.72   1
  -2 -14 -16   10.50    5.18   1
  -2 -14 -15    5.81    2.89   1
  -2 -14 -14   36.84    3.16   1
  -2 -14 -13    1.39    2.10   1
  -2 -14 -12   32.15    2.49   1
  -2 -14 -11    3.88    1.81   1
  -2 -14 -10   91.78    4.02   1
  -2 -14  -9    9.92    2.58   1
  -2 -14  -8    2.19    1.89   1
  -2 -14  -7    8.29    2.30   1
  -2 -14  -6   15.13    2.49   1
  -2 -14  -5  211.70    8.73   1
  -2 -14  -4   14.67    2.91   1
  -2 -14  -3  166.93    6.72   1
  -2 -14  -2    2.69    1.90   1
  -2 -14  -1    8.82    2.08   1
  -2 -14   0   40.07    3.29   1
  -2 -14   1  197.96    8.44   1
  -2 -14   2   -1.00    2.20   1
  -2 -14   3    5.90    2.62   1
  -2 -14   4   -0.10    2.63   1
  -2 -14   5   15.92    3.11   1
  -2 -14   7    7.02    4.61   1
  -2 -14   8   67.57    6.74   1
  -2 -14   9   23.72    5.84   1
  -2 -13 -18   17.89    4.31   1
  -2 -13 -17    5.81    5.30   1
  -2 -13 -16   29.59    4.03   1
  -2 -13 -15    9.18    3.09   1
  -2 -13 -14   -0.40    2.49   1
  -2 -13 -13    6.20    2.19   1
  -2 -13 -12   -0.10    1.62   1
  -2 -13 -11   57.46    3.03   1
  -2 -13 -10  247.12    8.17   1
  -2 -13  -9  127.46    4.74   1
  -2 -13  -8   26.42    2.88   1
  -2 -13  -7  171.09    6.54   1
  -2 -13  -6   40.70    3.32   1
  -2 -13  -5    4.71    1.82   1
  -2 -13  -4   85.56    3.88   1
  -2 -13  -3  181.98    7.82   1
  -2 -13  -2   -1.00    1.80   1
  -2 -13  -1    2.50    1.80   1
  -2 -13   0   24.30    2.46   1
  -2 -13   1   -2.19    2.40   1
  -2 -13   2    1.69    2.50   1
  -2 -13   3  134.79    7.20   1
  -2 -13   4    2.50    3.19   1
  -2 -13   5   13.91    2.61   1
  -2 -13   6   31.92    5.99   1
  -2 -13   7    0.79    4.38   1
  -2 -13   8   15.29    3.60   1
  -2 -13   9   31.02    6.35   1
  -2 -13  10   16.81    4.51   1
  -2 -13  11    1.80    5.90   1
  -2 -12 -18    6.50    4.18   1
  -2 -12 -17   39.94    4.17   1
  -2 -12 -16   -1.00    3.20   1
  -2 -12 -15    9.61    2.23   1
  -2 -12 -14   15.29    2.19   1
  -2 -12 -13    5.29    2.71   1
  -2 -12 -12    3.61    1.90   1
  -2 -12 -11   76.04    2.96   1
  -2 -12 -10    0.90    1.31   1
  -2 -12  -9   34.34    1.99   1
  -2 -12  -8  268.30    9.83   1
  -2 -12  -7    5.38    1.90   1
  -2 -12  -6  231.34    7.61   1
  -2 -12  -5   73.62    4.12   1
  -2 -12  -4  211.41    6.40   1
  -2 -12  -3   17.31    2.50   1
  -2 -12  -2  132.94    5.07   1
  -2 -12  -1   86.30    4.64   1
  -2 -12   0   14.06    2.17   1
  -2 -12   1  134.79    5.80   1
  -2 -12   2  108.78    5.01   1
  -2 -12   3   12.89    2.51   1
  -2 -12   4    5.71    2.10   1
  -2 -12   5   81.00    4.68   1
  -2 -12   6    3.61    4.79   1
  -2 -12   7   28.84    5.05   1
  -2 -12   8   -2.79    4.17   1
  -2 -12   9   -1.39    2.90   1
  -2 -12  11   30.25    6.16   1
  -2 -12  12    0.50    4.22   1
  -2 -11 -19   24.21    6.10   1
  -2 -11 -18    3.20    4.12   1
  -2 -11 -17   -4.00    3.60   1
  -2 -11 -16  133.63    7.63   1
  -2 -11 -15   19.36    2.20   1
  -2 -11 -14   -1.21    1.91   1
  -2 -11 -13   40.20    2.54   1
  -2 -11 -12    4.80    1.62   1
  -2 -11 -11  266.34    9.14   1
  -2 -11 -10  604.67   19.18   1
  -2 -11  -9    8.41    1.51   1
  -2 -11  -8   15.21    1.64   1
  -2 -11  -7   -0.90    1.20   1
  -2 -11  -6  464.40   12.50   1
  -2 -11  -5    4.49    2.08   1
  -2 -11  -4  222.31    9.24   1
  -2 -11  -3  239.63    8.67   1
  -2 -11  -2    1.90    1.30   1
  -2 -11  -1   33.52    1.85   1
  -2 -11   0   29.92    2.41   1
  -2 -11   1   50.13    2.55   1
  -2 -11   2   68.89    3.65   1
  -2 -11   3   39.56    3.14   1
  -2 -11   4   -1.21    2.31   1
  -2 -11   5   16.56    2.69   1
  -2 -11   6   25.10    4.81   1
  -2 -11   7   38.44    3.60   1
  -2 -11   8   11.70    2.87   1
  -2 -11   9   48.86    5.45   1
  -2 -11  10   29.48    5.76   1
  -2 -11  11    3.31    3.49   1
  -2 -11  12   12.67    5.91   1
  -2 -11  13   20.16    7.00   1
  -2 -10 -19   -5.38    5.10   1
  -2 -10 -18   -5.20    3.51   1
  -2 -10 -17   42.64    4.44   1
  -2 -10 -16    7.18    2.20   1
  -2 -10 -15   34.46    3.29   1
  -2 -10 -14  119.46    4.81   1
  -2 -10 -13   34.81    2.24   1
  -2 -10 -12   19.18    2.19   1
  -2 -10 -11  134.56    4.41   1
  -2 -10 -10  195.72    6.99   1
  -2 -10  -9   14.21    1.43   1
  -2 -10  -8  463.11   11.62   1
  -2 -10  -7   -1.00    1.10   1
  -2 -10  -6  210.54    5.22   1
  -2 -10  -5  219.04    7.10   1
  -2 -10  -4    4.00    1.20   1
  -2 -10  -3   56.55    2.86   1
  -2 -10  -2   27.14    2.19   1
  -2 -10  -1  182.25    5.67   1
  -2 -10   0   17.81    1.69   1
  -2 -10   1  115.99    4.31   1
  -2 -10   2  336.36   10.27   1
  -2 -10   3   11.42    2.30   1
  -2 -10   4   71.57    3.38   1
  -2 -10   5  203.35    7.13   1
  -2 -10   6   13.99    2.17   1
  -2 -10   7   59.75    4.17   1
  -2 -10   8    4.08    2.18   1
  -2 -10   9    6.20    3.78   1
  -2 -10  10   31.58    4.72   1
  -2 -10  11    6.10    4.50   1
  -2 -10  12    3.80    4.02   1
  -2 -10  13   17.39    4.42   1
  -2 -10  14    6.60    6.01   1
  -2  -9 -19   83.54    8.77   1
  -2  -9 -18    7.40    2.77   1
  -2  -9 -17   52.13    4.91   1
  -2  -9 -16   52.56    6.24   1
  -2  -9 -15   10.69    1.90   1
  -2  -9 -14   -0.10    1.72   1
  -2  -9 -13    0.40    1.59   1
  -2  -9 -12   38.07    2.22   1
  -2  -9 -11    5.38    1.30   1
  -2  -9 -10  121.22    3.96   1
  -2  -9  -9    1.99    1.49   1
  -2  -9  -8   24.90    1.40   1
  -2  -9  -7  192.10    4.71   1
  -2  -9  -6  162.05    4.84   1
  -2  -9  -5   76.56    3.33   1
  -2  -9  -4  100.80    3.41   1
  -2  -9  -3   80.28    2.87   1
  -2  -9  -2    0.90    1.01   1
  -2  -9  -1   30.14    2.42   1
  -2  -9   0  170.82    5.75   1
  -2  -9   1    9.18    1.70   1
  -2  -9   2   21.62    2.33   1
  -2  -9   3  241.49    7.46   1
  -2  -9   4    4.28    2.11   1
  -2  -9   5   21.44    3.15   1
  -2  -9   6   26.21    2.97   1
  -2  -9   7   61.62    3.45   1
  -2  -9   8    1.69    2.00   1
  -2  -9   9  133.40    4.62   1
  -2  -9  10   37.95    2.34   1
  -2  -9  11    6.92    1.79   1
  -2  -9  12   28.09    2.86   1
  -2  -9  13   61.00    7.65   1
  -2  -9  14    4.88    3.71   1
  -2  -8 -20    9.80    6.07   1
  -2  -8 -19   14.67    5.52   1
  -2  -8 -18   20.52    3.53   1
  -2  -8 -17  105.27    5.34   1
  -2  -8 -16   -2.89    2.89   1
  -2  -8 -15  177.96    6.67   1
  -2  -8 -14   11.83    1.93   1
  -2  -8 -13   82.45    3.63   1
  -2  -8 -12    2.59    1.29   1
  -2  -8 -11  267.65    7.85   1
  -2  -8 -10   20.34    1.62   1
  -2  -8  -9   -1.90    1.41   1
  -2  -8  -8  808.26   18.76   1
  -2  -8  -7   94.09    2.91   1
  -2  -8  -6  376.36    8.92   1
  -2  -8  -5  134.10    4.40   1
  -2  -8  -4   28.52    1.92   1
  -2  -8  -3   26.52    2.06   1
  -2  -8  -2   72.08    2.55   1
  -2  -8  -1   13.18    1.23   1
  -2  -8   0    5.38    1.39   1
  -2  -8   1   24.21    1.77   1
  -2  -8   2  234.40    7.96   1
  -2  -8   3  121.22    4.40   1
  -2  -8   4    7.78    1.51   1
  -2  -8   5    1.59    2.09   1
  -2  -8   6    5.81    1.21   1
  -2  -8   7    4.58    1.20   1
  -2  -8   8   65.29    2.42   1
  -2  -8   9   27.14    1.88   1
  -2  -8  10    2.19    1.39   1
  -2  -8  11   36.84    2.55   1
  -2  -8  12   20.07    2.24   1
  -2  -8  13   39.19    3.26   1
  -2  -8  14   13.03    4.48   1
  -2  -8  15   38.07    5.68   1
  -2  -7 -20   -2.79    4.17   1
  -2  -7 -19   23.04    4.61   1
  -2  -7 -18    3.10    2.50   1
  -2  -7 -17    5.02    2.69   1
  -2  -7 -16   65.93    4.87   1
  -2  -7 -15   10.11    2.61   1
  -2  -7 -14    2.40    2.51   1
  -2  -7 -13    4.20    1.68   1
  -2  -7 -12    2.50    1.39   1
  -2  -7 -11   31.02    1.78   1
  -2  -7 -10   43.69    2.25   1
  -2  -7  -9  113.00    3.40   1
  -2  -7  -8   46.92    1.64   1
  -2  -7  -7  202.21    5.40   1
  -2  -7  -6   48.86    2.38   1
  -2  -7  -5   56.70    1.81   1
  -2  -7  -4   12.60    0.99   1
  -2  -7  -3   47.61    2.07   1
  -2  -7  -2  110.88    3.58   1
  -2  -7  -1   20.52    1.63   1
  -2  -7   0  290.02   10.22   1
  -2  -7   1  259.85   10.64   1
  -2  -7   2   96.43    5.50   1
  -2  -7   3   23.33    2.13   1
  -2  -7   4  340.40    7.75   1
  -2  -7   5  194.60    7.81   1
  -2  -7   6  397.20   14.35   1
  -2  -7   7   26.11    1.64   1
  -2  -7   8   -0.71    1.31   1
  -2  -7   9   25.81    2.24   1
  -2  -7  10    7.18    1.39   1
  -2  -7  11   10.82    1.71   1
  -2  -7  12    1.99    2.20   1
  -2  -7  13   78.68    4.43   1
  -2  -7  14    1.39    2.01   1
  -2  -7  15   36.12    6.13   1
  -2  -7  16   -6.71    3.00   1
  -2  -6 -20   85.75    7.78   1
  -2  -6 -19    9.49    3.57   1
  -2  -6 -18    1.10    2.90   1
  -2  -6 -17   69.22    5.32   1
  -2  -6 -16   -0.59    2.28   1
  -2  -6 -15  141.13    6.18   1
  -2  -6 -14   17.72    2.11   1
  -2  -6 -13   36.97    3.04   1
  -2  -6 -12    1.59    1.59   1
  -2  -6 -11  197.40    7.03   1
  -2  -6 -10    9.42    1.29   1
  -2  -6  -9   41.22    2.05   1
  -2  -6  -8  137.36    4.92   1
  -2  -6  -7 1170.32   30.79   1
  -2  -6  -6    3.20    0.89   1
  -2  -6  -5  279.56    7.02   1
  -2  -6  -4   22.56    1.04   1
  -2  -6  -3  257.92    8.03   1
  -2  -6  -2   20.61    1.63   1
  -2  -6  -1  375.58   13.57   1
  -2  -6   0  466.13   13.82   1
  -2  -6   1   32.15    1.70   1
  -2  -6   2  412.90   19.10   1
  -2  -6   3   74.13    2.58   1
  -2  -6   4  780.08   30.72   1
  -2  -6   5   -1.80    0.91   1
  -2  -6   6    7.08    1.12   1
  -2  -6   7   25.20    1.61   1
  -2  -6   8   88.17    3.00   1
  -2  -6   9   12.89    1.36   1
  -2  -6  10    0.20    1.21   1
  -2  -6  11    0.71    1.41   1
  -2  -6  12   10.37    1.87   1
  -2  -6  13   -3.80    1.91   1
  -2  -6  14   47.89    3.46   1
  -2  -6  15   55.65    4.63   1
  -2  -6  16    6.00    5.49   1
  -2  -5 -20   -0.59    6.27   1
  -2  -5 -19   12.82    4.30   1
  -2  -5 -18    8.82    2.79   1
  -2  -5 -17    1.39    3.40   1
  -2  -5 -16   12.89    2.73   1
  -2  -5 -15   53.29    3.65   1
  -2  -5 -14   11.49    2.58   1
  -2  -5 -13   30.69    2.66   1
  -2  -5 -12   82.81    3.46   1
  -2  -5 -11   -0.90    1.80   1
  -2  -5 -10    8.82    1.72   1
  -2  -5  -9  245.24    8.46   1
  -2  -5  -8  639.08   16.18   1
  -2  -5  -7 1482.25   33.88   1
  -2  -5  -6  323.28    7.91   1
  -2  -5  -5  416.16   11.42   1
  -2  -5  -4  556.49   15.10   1
  -2  -5  -3   12.89    0.93   1
  -2  -5  -2    0.50    0.70   1
  -2  -5  -1  115.35    4.08   1
  -2  -5   0  800.89   22.64   1
  -2  -5   1  205.92    6.03   1
  -2  -5   2  562.64   14.23   1
  -2  -5   3  521.21   17.35   1
  -2  -5   4  541.03   17.21   1
  -2  -5   5  414.12   11.80   1
  -2  -5   6  607.62   20.21   1
  -2  -5   7  153.51    4.71   1
  -2  -5   8   20.52    1.63   1
  -2  -5   9   11.90    2.07   1
  -2  -5  10  138.30    4.70   1
  -2  -5  11   82.08    3.26   1
  -2  -5  12    6.00    1.81   1
  -2  -5  13   54.91    3.70   1
  -2  -5  14    0.40    1.99   1
  -2  -5  15    7.08    2.39   1
  -2  -5  16    7.67    2.77   1
  -2  -5  17    0.30    5.82   1
  -2  -4 -20   59.60    7.10   1
  -2  -4 -19   57.61    7.59   1
  -2  -4 -18    1.10    2.60   1
  -2  -4 -17    9.67    2.92   1
  -2  -4 -16    3.39    2.39   1
  -2  -4 -15    6.50    1.99   1
  -2  -4 -14    1.49    1.49   1
  -2  -4 -13   20.70    2.00   1
  -2  -4 -12    7.29    1.78   1
  -2  -4 -11   89.49    3.78   1
  -2  -4 -10   74.30    3.45   1
  -2  -4  -9  426.84   15.29   1
  -2  -4  -8   21.90    5.34   1
  -2  -4  -7 1153.96   29.89   1
  -2  -4  -6  158.51    4.53   1
  -2  -4  -5 1144.47   28.42   1
  -2  -4  -4  108.99    2.92   1
  -2  -4  -3  751.86   20.29   1
  -2  -4  -2    2.79    0.70   1
  -2  -4  -1   72.76    2.56   1
  -2  -4   0  336.72   10.28   1
  -2  -4   1 1316.24   37.01   1
  -2  -4   2  157.25    4.26   1
  -2  -4   3  454.54   11.94   1
  -2  -4   4 1314.06   34.08   1
  -2  -4   5  717.70   23.58   1
  -2  -4   6    4.08    0.81   1
  -2  -4   7    4.41    1.30   1
  -2  -4   8  839.26   25.49   1
  -2  -4   9    1.39    1.20   1
  -2  -4  10   43.03    1.97   1
  -2  -4  11    5.71    1.29   1
  -2  -4  12    0.30    1.51   1
  -2  -4  13    6.10    2.22   1
  -2  -4  14   13.62    2.21   1
  -2  -4  15    1.80    2.09   1
  -2  -4  16   16.97    2.64   1
  -2  -4  17   -5.38    2.69   1
  -2  -3 -20    3.20    3.90   1
  -2  -3 -19    4.00    4.48   1
  -2  -3 -18    0.59    2.39   1
  -2  -3 -17   -0.40    2.29   1
  -2  -3 -16   94.48    5.44   1
  -2  -3 -15    2.19    1.89   1
  -2  -3 -14   30.25    3.85   1
  -2  -3 -13  100.80    4.02   1
  -2  -3 -12   15.21    2.26   1
  -2  -3 -11   24.40    1.88   1
  -2  -3 -10   35.64    1.79   1
  -2  -3  -9  321.84   10.41   1
  -2  -3  -8  668.74   19.65   1
  -2  -3  -7  204.78    6.58   1
  -2  -3  -6   13.47    1.03   1
  -2  -3  -5  166.93    4.39   1
  -2  -3  -4   79.03    1.96   1
  -2  -3  -2  218.45    6.80   1
  -2  -3  -1  502.66   22.87   1
  -2  -3   0  136.89    3.51   1
  -2  -3   1  289.34    7.82   1
  -2  -3   3  944.95   25.82   1
  -2  -3   4  424.77   10.31   1
  -2  -3   5  257.60    6.42   1
  -2  -3   6  407.64   10.10   1
  -2  -3   7  139.00    4.48   1
  -2  -3   8  168.22    5.45   1
  -2  -3   9    6.00    2.01   1
  -2  -3  10   82.26    3.99   1
  -2  -3  11   10.18    1.98   1
  -2  -3  12  239.63   10.22   1
  -2  -3  13   51.70    4.17   1
  -2  -3  14   11.42    3.79   1
  -2  -3  15   13.03    2.82   1
  -2  -3  16   52.27    6.07   1
  -2  -3  17    2.40    2.60   1
  -2  -3  18    2.10    3.31   1
  -2  -2 -20    1.99    5.98   1
  -2  -2 -19    9.67    3.79   1
  -2  -2 -18    5.71    4.40   1
  -2  -2 -17    6.71    3.88   1
  -2  -2 -16    1.00    2.10   1
  -2  -2 -15   41.34    3.60   1
  -2  -2 -14   28.41    2.66   1
  -2  -2 -13   34.57    4.00   1
  -2  -2 -12   15.37    2.12   1
  -2  -2 -11   94.67    3.89   1
  -2  -2 -10   98.80    6.36   1
  -2  -2  -9   38.94    2.12   1
  -2  -2  -8  718.24   28.94   1
  -2  -2  -7  250.91    8.24   1
  -2  -2  -6  696.43   22.70   1
  -2  -2  -5   35.16    5.69   1
  -2  -2  -4   20.07    3.49   1
  -2  -2  -3  225.90    6.91   1
  -2  -2  -2  306.25    9.45   1
  -2  -2  -1  697.49   30.11   1
  -2  -2   0  222.90   15.23   1
  -2  -2   1  278.56    7.34   1
  -2  -2   2 1989.16   57.98   1
  -2  -2   3 1173.75   33.57   1
  -2  -2   4  141.37    4.52   1
  -2  -2   5  426.01   25.59   1
  -2  -2   6  324.00   14.04   1
  -2  -2   7   49.56    2.96   1
  -2  -2   8   42.38    2.08   1
  -2  -2   9   54.91    2.96   1
  -2  -2  10   18.92    2.00   1
  -2  -2  11   -3.39    2.39   1
  -2  -2  12   59.44    3.55   1
  -2  -2  13   11.83    2.41   1
  -2  -2  14   27.14    4.79   1
  -2  -2  15    2.50    3.60   1
  -2  -2  16    2.19    4.00   1
  -2  -2  17    3.50    3.89   1
  -2  -2  18   25.50    5.15   1
  -2  -1 -19    9.80    5.57   1
  -2  -1 -18   -7.78    4.18   1
  -2  -1 -17    0.90    2.51   1
  -2  -1 -16   30.69    3.21   1
  -2  -1 -15    2.10    2.70   1
  -2  -1 -14   38.69    4.23   1
  -2  -1 -13   25.60    2.63   1
  -2  -1 -12   73.79    3.95   1
  -2  -1 -11  121.88    4.42   1
  -2  -1 -10  587.09   24.23   1
  -2  -1  -9  688.01   19.93   1
  -2  -1  -8  257.92    8.35   1
  -2  -1  -7   -1.99    0.99   1
  -2  -1  -6   46.24    2.58   1
  -2  -1  -5   23.14    1.15   1
  -2  -1  -4  397.60   15.55   1
  -2  -1  -2  127.24    6.09   1
  -2  -1  -1   36.00    3.00   1
  -2  -1   0   81.72    5.79   1
  -2  -1   1   74.65    2.42   1
  -2  -1   2 1481.48   66.20   1
  -2  -1   3  334.16   12.80   1
  -2  -1   4  141.13    6.65   1
  -2  -1   5    2.50    1.11   1
  -2  -1   6   76.39    3.15   1
  -2  -1   7   12.60    1.49   1
  -2  -1   8   15.29    1.41   1
  -2  -1   9  160.53    6.59   1
  -2  -1  10   28.73    2.14   1
  -2  -1  11   18.23    2.82   1
  -2  -1  12  323.64   12.23   1
  -2  -1  13  115.99    5.39   1
  -2  -1  14    1.30    2.69   1
  -2  -1  15   10.50    3.37   1
  -2  -1  16   12.11    3.13   1
  -2  -1  17    0.20    4.53   1
  -2  -1  18   -0.50    3.72   1
  -2  -1  19   -4.28    3.97   1
  -2   0 -19   14.67    4.52   1
  -2   0 -18   27.25    5.12   1
  -2   0 -17   12.18    4.40   1
  -2   0 -16    4.41    4.49   1
  -2   0 -14  165.38    7.20   1
  -2   0 -13   35.76    2.63   1
  -2   0 -12   33.52    2.20   1
  -2   0 -11   15.68    3.33   1
  -2   0 -10   55.20    2.82   1
  -2   0  -9   -3.50    2.39   1
  -2   0  -8  495.51   14.25   1
  -2   0  -7  130.87    4.12   1
  -2   0  -6   34.46    1.88   1
  -2   0  -5  556.02   21.22   1
  -2   0  -4  397.60   19.14   1
  -2   0  -3 1059.50   37.11   1
  -2   0  -2  265.36    8.15   1
  -2   0  -1  605.16   23.12   1
  -2   0   0   19.89    1.16   1
  -2   0   1  200.79    7.94   1
  -2   0   2   26.83    1.35   1
  -2   0   3    4.00    1.00   1
  -2   0   4  143.52    5.03   1
  -2   0   5   98.41    3.57   1
  -2   0   6   50.55    2.28   1
  -2   0   7   52.27    2.31   1
  -2   0   8   56.10    2.55   1
  -2   0   9  295.15    8.93   1
  -2   0  10   87.61    3.74   1
  -2   0  11   32.26    2.16   1
  -2   0  12  205.35    6.88   1
  -2   0  13   20.70    2.28   1
  -2   0  14  118.37    6.09   1
  -2   0  15    5.71    3.30   1
  -2   0  16    3.61    3.72   1
  -2   0  17    6.60    2.98   1
  -2   0  18    5.38    5.10   1
  -2   0  19    3.20    5.30   1
  -2   1 -19   66.42    8.97   1
  -2   1 -17    4.00    3.92   1
  -2   1 -16    2.69    2.30   1
  -2   1 -15   27.98    2.86   1
  -2   1 -14   85.38    4.62   1
  -2   1 -13   41.60    5.68   1
  -2   1 -12  320.77   13.25   1
  -2   1 -11   27.67    2.84   1
  -2   1 -10  470.02   18.21   1
  -2   1  -9    4.20    2.30   1
  -2   1  -8  267.00   10.46   1
  -2   1  -7    2.79    1.20   1
  -2   1  -6  473.50   16.10   1
  -2   1  -5  318.62   10.71   1
  -2   1  -4  157.75    5.78   1
  -2   1  -3 3065.84  100.77   1
  -2   1  -2  240.25    5.58   1
  -2   1  -1   10.11    0.38   1
  -2   1   0  272.58    9.58   1
  -2   1   1  265.69    8.80   1
  -2   1   2  534.53   17.11   1
  -2   1   3   27.56    1.47   1
  -2   1   4  187.69    7.95   1
  -2   1   5   29.70    1.63   1
  -2   1   6  111.94    4.02   1
  -2   1   7   32.38    1.93   1
  -2   1   8   91.97    3.64   1
  -2   1   9   65.77    2.76   1
  -2   1  10  129.28    5.00   1
  -2   1  11    8.88    3.10   1
  -2   1  12   97.22    4.93   1
  -2   1  13    7.51    2.03   1
  -2   1  14    0.40    2.19   1
  -2   1  15   36.36    5.19   1
  -2   1  16    9.12    3.20   1
  -2   1  17   20.07    4.66   1
  -2   1  18    5.71    4.21   1
  -2   1  19    1.39    6.28   1
  -2   2 -18    6.71    5.49   1
  -2   2 -17   13.76    5.19   1
  -2   2 -16    0.90    4.60   1
  -2   2 -15    6.10    3.11   1
  -2   2 -14  130.64    6.63   1
  -2   2 -13   62.88    3.65   1
  -2   2 -12   49.00    3.36   1
  -2   2 -11  148.60    6.09   1
  -2   2 -10   41.09    2.69   1
  -2   2  -9   -1.21    1.21   1
  -2   2  -8   80.46    3.23   1
  -2   2  -7    4.58    1.41   1
  -2   2  -6  107.74    3.74   1
  -2   2  -5    0.00    1.00   1
  -2   2  -4  142.32    4.53   1
  -2   2  -3 2747.86   94.36   1
  -2   2  -2   50.69    2.28   1
  -2   2  -1 1769.88   44.59   1
  -2   2   0  219.63    6.82   1
  -2   2   2 1802.00   56.88   1
  -2   2   3  886.25   29.17   1
  -2   2   4 1180.61   38.48   1
  -2   2   5   41.34    2.96   1
  -2   2   6   11.22    1.00   1
  -2   2   7  127.92    4.07   1
  -2   2   8  133.40    4.16   1
  -2   2   9  228.92    6.96   1
  -2   2  10    6.92    1.58   1
  -2   2  11  229.52    7.57   1
  -2   2  12  140.19    4.97   1
  -2   2  13   27.88    2.85   1
  -2   2  14   87.05    5.04   1
  -2   2  15   37.45    4.90   1
  -2   2  16   12.60    3.62   1
  -2   2  17   38.69    4.60   1
  -2   2  18    6.10    4.40   1
  -2   2  19   -3.50    3.59   1
  -2   3 -18   35.05    7.22   1
  -2   3 -17   10.89    5.61   1
  -2   3 -16    6.81    3.81   1
  -2   3 -15   33.76    3.02   1
  -2   3 -14   -0.30    1.90   1
  -2   3 -13   39.31    3.26   1
  -2   3 -12   82.99    4.37   1
  -2   3 -11    5.29    1.61   1
  -2   3 -10  359.48   13.27   1
  -2   3  -9  489.29   15.04   1
  -2   3  -8    9.42    2.09   1
  -2   3  -7   50.27    2.41   1
  -2   3  -6  904.20   27.06   1
  -2   3  -5  211.12    6.68   1
  -2   3  -4   -0.79    1.09   1
  -2   3  -3  426.01   12.38   1
  -2   3  -2  470.89   13.45   1
  -2   3  -1  924.16   23.71   1
  -2   3   0  704.37   19.64   1
  -2   3   1  733.87   20.59   1
  -2   3   2  567.87   15.73   1
  -2   3   3   67.73    2.47   1
  -2   3   4   21.62    1.30   1
  -2   3   5  693.27   19.48   1
  -2   3   6   51.84    2.74   1
  -2   3   7    4.20    1.19   1
  -2   3   8   36.97    2.19   1
  -2   3   9   50.84    2.42   1
  -2   3  10   13.32    2.63   1
  -2   3  11  162.31    6.12   1
  -2   3  12   32.95    2.76   1
  -2   3  13   45.56    3.11   1
  -2   3  14   58.37    4.13   1
  -2   3  15  129.73    7.97   1
  -2   3  16   34.46    5.05   1
  -2   3  17   10.69    3.40   1
  -2   3  18   -3.88    3.78   1
  -2   3  19   17.72    6.06   1
  -2   4 -17    5.62    4.12   1
  -2   4 -16    1.90    2.90   1
  -2   4 -15    5.29    2.90   1
  -2   4 -14    2.99    2.49   1
  -2   4 -13  246.18   10.04   1
  -2   4 -12   82.45    3.81   1
  -2   4 -11  147.87    6.81   1
  -2   4 -10  149.57    5.63   1
  -2   4  -9   85.01    4.06   1
  -2   4  -8   91.58    3.83   1
  -2   4  -7    0.79    1.50   1
  -2   4  -6   -0.59    1.00   1
  -2   4  -5    1.00    1.00   1
  -2   4  -4    0.79    1.00   1
  -2   4  -3    1.30    1.00   1
  -2   4  -2   13.76    1.26   1
  -2   4  -1   -0.50    0.91   1
  -2   4   0  263.74    7.15   1
  -2   4   1   94.48    3.11   1
  -2   4   2   61.78    2.36   1
  -2   4   3  157.50    5.02   1
  -2   4   4  834.63   26.00   1
  -2   4   5  204.49    5.72   1
  -2   4   6  513.48   14.05   1
  -2   4   7   26.42    2.67   1
  -2   4   8  288.66    9.85   1
  -2   4   9   30.25    1.98   1
  -2   4  10   84.64    4.23   1
  -2   4  11  499.52   16.54   1
  -2   4  12  148.11    6.57   1
  -2   4  13  152.52    6.18   1
  -2   4  14   33.76    3.60   1
  -2   4  15   75.00    5.72   1
  -2   4  16    1.69    4.19   1
  -2   4  17    7.62    4.80   1
  -2   4  18   -2.19    5.18   1
  -2   4  19   16.16    3.86   1
  -2   5 -17   -1.21    3.61   1
  -2   5 -16    5.52    4.32   1
  -2   5 -15   18.84    4.08   1
  -2   5 -14    2.99    4.19   1
  -2   5 -13    6.92    2.58   1
  -2   5 -12    4.28    2.90   1
  -2   5 -11    0.20    3.42   1
  -2   5 -10   27.25    3.86   1
  -2   5  -9    2.89    1.90   1
  -2   5  -8   66.91    2.78   1
  -2   5  -7   34.69    2.12   1
  -2   5  -6   86.30    4.09   1
  -2   5  -5  262.44    7.78   1
  -2   5  -4   91.39    3.44   1
  -2   5  -3   62.25    2.37   1
  -2   5  -2   19.54    1.59   1
  -2   5  -1  330.51    9.45   1
  -2   5   0  463.97   12.49   1
  -2   5   1   25.91    1.53   1
  -2   5   2  308.35    8.78   1
  -2   5   3    6.50    1.27   1
  -2   5   4 2687.39   72.58   1
  -2   5   5   19.01    1.31   1
  -2   5   6  236.85    9.54   1
  -2   5   7   56.40    2.55   1
  -2   5   8    9.00    1.62   1
  -2   5   9  333.06    9.49   1
  -2   5  10   14.52    1.83   1
  -2   5  11   64.96    3.71   1
  -2   5  12   55.06    3.56   1
  -2   5  13  142.80    5.97   1
  -2   5  14   11.22    3.22   1
  -2   5  15   38.19    4.94   1
  -2   5  16    0.40    3.78   1
  -2   5  17    1.49    4.59   1
  -2   5  18   19.01    5.58   1
  -2   5  19   38.32    6.69   1
  -2   6 -16    2.50    4.11   1
  -2   6 -15   18.06    4.59   1
  -2   6 -14    4.80    4.20   1
  -2   6 -13   21.16    3.68   1
  -2   6 -12    3.69    2.69   1
  -2   6 -11   10.11    2.29   1
  -2   6 -10    9.67    2.43   1
  -2   6  -9   11.42    3.72   1
  -2   6  -8    1.10    1.41   1
  -2   6  -7   36.48    2.78   1
  -2   6  -6   57.76    3.19   1
  -2   6  -5  549.90   15.01   1
  -2   6  -4   59.75    2.01   1
  -2   6  -3    8.18    1.49   1
  -2   6  -2   49.84    2.26   1
  -2   6  -1   20.07    1.52   1
  -2   6   0   97.22    3.16   1
  -2   6   1  144.48    4.09   1
  -2   6   2  808.83   21.61   1
  -2   6   3   58.52    2.30   1
  -2   6   4  127.69    4.52   1
  -2   6   5    1.49    1.68   1
  -2   6   6   10.63    1.70   1
  -2   6   7  178.76    6.15   1
  -2   6   8  408.44   13.74   1
  -2   6   9   13.69    1.78   1
  -2   6  10    8.29    1.50   1
  -2   6  11   30.80    2.11   1
  -2   6  12  105.68    4.52   1
  -2   6  13    9.80    2.32   1
  -2   6  14  118.81    6.10   1
  -2   6  15  169.00    9.88   1
  -2   6  16   29.48    5.00   1
  -2   6  17   46.10    5.70   1
  -2   6  18    0.90    3.61   1
  -2   6  19   12.39    5.98   1
  -2   7 -16   15.13    6.07   1
  -2   7 -15   51.27    6.44   1
  -2   7 -14   -3.69    4.30   1
  -2   7 -13   -5.11    4.20   1
  -2   7 -12   49.14    5.05   1
  -2   7 -11   21.90    2.90   1
  -2   7 -10   13.40    2.71   1
  -2   7  -9    1.00    1.60   1
  -2   7  -8   21.90    1.97   1
  -2   7  -7  106.50    5.99   1
  -2   7  -6  175.56    6.36   1
  -2   7  -5    3.80    2.81   1
  -2   7  -4    0.40    0.59   1
  -2   7  -3  656.38   17.93   1
  -2   7  -2  261.47    7.44   1
  -2   7  -1   27.56    2.00   1
  -2   7   0    5.71    1.10   1
  -2   7   1   40.45    2.67   1
  -2   7   2   71.57    2.54   1
  -2   7   3  610.09   27.17   1
  -2   7   4 1097.60   27.83   1
  -2   7   5   72.93    3.25   1
  -2   7   6  309.41    9.15   1
  -2   7   7   51.27    2.86   1
  -2   7   8   70.39    3.52   1
  -2   7   9  172.13    5.51   1
  -2   7  10  726.84   26.96   1
  -2   7  11   -0.71    2.02   1
  -2   7  12   74.30    4.48   1
  -2   7  13   68.56    3.81   1
  -2   7  14   16.32    3.64   1
  -2   7  15   22.66    4.00   1
  -2   7  16    6.60    4.52   1
  -2   7  17   -1.49    3.39   1
  -2   7  18   16.81    3.77   1
  -2   7  19   10.11    4.32   1
  -2   8 -15   -0.20    5.34   1
  -2   8 -14   14.67    4.29   1
  -2   8 -13   17.14    5.55   1
  -2   8 -12   17.47    3.18   1
  -2   8 -11   49.14    5.89   1
  -2   8 -10   57.00    3.93   1
  -2   8  -9   30.03    3.18   1
  -2   8  -8    3.80    2.42   1
  -2   8  -7   62.41    3.63   1
  -2   8  -6    9.67    1.62   1
  -2   8  -5  262.12    9.07   1
  -2   8  -4   34.69    1.88   1
  -2   8  -3    1.90    0.80   1
  -2   8  -2    2.69    1.31   1
  -2   8  -1  706.50   22.86   1
  -2   8   0   54.02    2.79   1
  -2   8   1  116.42    4.53   1
  -2   8   2  150.55    5.15   1
  -2   8   3  273.90    7.94   1
  -2   8   4  204.78    6.01   1
  -2   8   5  194.60    6.14   1
  -2   8   6   67.24    3.28   1
  -2   8   7   24.60    2.08   1
  -2   8   8   94.28    4.08   1
  -2   8   9    7.51    1.70   1
  -2   8  10   11.42    1.69   1
  -2   8  11   61.15    3.44   1
  -2   8  12   32.95    3.21   1
  -2   8  13   27.35    2.82   1
  -2   8  14   12.60    3.98   1
  -2   8  15   24.80    4.58   1
  -2   8  16    4.08    4.08   1
  -2   8  17   12.11    3.90   1
  -2   8  18   19.36    4.75   1
  -2   8  19   16.48    6.33   1
  -2   9 -14    9.12    6.70   1
  -2   9 -13    5.38    4.69   1
  -2   9 -12   26.32    5.95   1
  -2   9 -11   13.10    3.11   1
  -2   9 -10   -5.20    4.20   1
  -2   9  -9    5.81    2.99   1
  -2   9  -8    0.10    2.02   1
  -2   9  -7    1.00    1.70   1
  -2   9  -6   52.27    3.47   1
  -2   9  -5  242.42    7.47   1
  -2   9  -4   33.76    1.86   1
  -2   9  -3  599.27   17.63   1
  -2   9  -2   15.21    2.03   1
  -2   9  -1   72.93    7.17   1
  -2   9   0  188.79    4.67   1
  -2   9   1  127.92    4.30   1
  -2   9   2   11.49    1.83   1
  -2   9   3  162.82    6.38   1
  -2   9   4  139.95    5.21   1
  -2   9   5  144.72    5.29   1
  -2   9   6    2.40    1.71   1
  -2   9   7  167.18    5.43   1
  -2   9   8    7.18    1.82   1
  -2   9   9   11.97    1.80   1
  -2   9  10  164.61    7.70   1
  -2   9  11   14.52    2.90   1
  -2   9  12   96.24    4.71   1
  -2   9  13   42.25    4.55   1
  -2   9  14   94.09    6.79   1
  -2   9  15   45.02    4.56   1
  -2   9  16   -2.69    4.59   1
  -2   9  17   37.95    4.44   1
  -2   9  18   24.01    7.45   1
  -2   9  19   71.74    8.30   1
  -2  10 -13   -7.78    5.97   1
  -2  10 -12    1.49    3.98   1
  -2  10 -11    7.78    4.69   1
  -2  10 -10   49.42    5.91   1
  -2  10  -8   39.94    3.79   1
  -2  10  -7   71.23    4.39   1
  -2  10  -6    0.40    2.49   1
  -2  10  -5   -0.30    0.80   1
  -2  10  -4    8.70    1.18   1
  -2  10  -3   46.92    1.78   1
  -2  10  -2    0.40    1.50   1
  -2  10  -1  422.71   13.98   1
  -2  10   0    1.49    0.49   1
  -2  10   1   47.75    3.32   1
  -2  10   2   77.26    4.04   1
  -2  10   3  252.81    8.59   1
  -2  10   4    0.90    1.99   1
  -2  10   5   73.62    3.78   1
  -2  10   6   54.32    3.24   1
  -2  10   7   23.72    2.43   1
  -2  10   8   45.43    2.97   1
  -2  10   9   13.69    2.29   1
  -2  10  10   83.54    4.39   1
  -2  10  11    2.99    2.60   1
  -2  10  12   16.08    4.01   1
  -2  10  13   10.30    4.11   1
  -2  10  14   50.55    6.54   1
  -2  10  15    4.80    3.50   1
  -2  10  16    4.88    3.40   1
  -2  10  17   -1.99    3.19   1
  -2  10  18   16.81    5.58   1
  -2  11 -12   91.97   10.74   1
  -2  11 -11    6.81    3.71   1
  -2  11 -10   15.52    5.20   1
  -2  11  -9    1.00    2.40   1
  -2  11  -8   50.13    5.52   1
  -2  11  -7   31.02    5.57   1
  -2  11  -6   -0.10    2.33   1
  -2  11  -5   55.06    2.82   1
  -2  11  -4   57.15    2.57   1
  -2  11  -3  107.12    4.14   1
  -2  11  -2    2.19    2.49   1
  -2  11  -1   10.11    0.89   1
  -2  11   0   19.62    2.57   1
  -2  11   1  255.36    8.95   1
  -2  11   2   40.07    2.66   1
  -2  11   3   54.91    3.26   1
  -2  11   4    5.38    1.81   1
  -2  11   5    0.90    1.80   1
  -2  11   6    3.61    1.79   1
  -2  11   7    9.67    1.80   1
  -2  11   8    3.88    1.81   1
  -2  11   9   39.69    3.28   1
  -2  11  10   22.75    2.10   1
  -2  11  11   98.21    6.54   1
  -2  11  12   28.30    4.36   1
  -2  11  13   27.25    4.38   1
  -2  11  14   38.07    5.80   1
  -2  11  15   10.63    4.43   1
  -2  11  16   15.29    3.83   1
  -2  11  17   23.23    5.98   1
  -2  11  18   -4.28    4.39   1
  -2  12 -11    4.71    3.30   1
  -2  12 -10   27.35    6.28   1
  -2  12  -9    5.71    3.59   1
  -2  12  -8    3.31    3.42   1
  -2  12  -7    7.90    4.27   1
  -2  12  -6    6.81    3.71   1
  -2  12  -5    0.00    1.00   1
  -2  12  -4  103.23    4.67   1
  -2  12  -3    4.28    1.12   1
  -2  12  -2   63.36    3.82   1
  -2  12  -1   98.60    3.18   1
  -2  12   0    7.08    2.39   1
  -2  12   1   36.97    3.16   1
  -2  12   2   16.16    2.41   1
  -2  12   3   10.63    2.22   1
  -2  12   4   -1.80    2.09   1
  -2  12   5   41.99    2.85   1
  -2  12   6   12.82    2.29   1
  -2  12   7   22.00    2.81   1
  -2  12   8    0.20    1.91   1
  -2  12   9   90.44    5.14   1
  -2  12  10   26.11    3.27   1
  -2  12  11   19.62    4.08   1
  -2  12  12   19.01    4.27   1
  -2  12  13    9.49    4.62   1
  -2  12  14   -5.02    4.12   1
  -2  12  15   11.63    4.98   1
  -2  12  16    1.90    4.00   1
  -2  12  17   23.81    6.44   1
  -2  13 -10   -0.20    5.83   1
  -2  13  -9   -0.30    3.82   1
  -2  13  -8   11.97    3.60   1
  -2  13  -7   -8.58    5.39   1
  -2  13  -6   13.99    3.81   1
  -2  13  -5    0.71    1.11   1
  -2  13  -4   49.28    2.95   1
  -2  13  -3   28.20    2.34   1
  -2  13  -2   90.06    4.56   1
  -2  13  -1    3.50    0.71   1
  -2  13   0    1.80    2.79   1
  -2  13   1   48.44    3.48   1
  -2  13   2   14.29    2.80   1
  -2  13   3   15.29    2.89   1
  -2  13   4   11.90    2.69   1
  -2  13   5    9.49    2.90   1
  -2  13   6   52.85    3.93   1
  -2  13   7   49.14    5.05   1
  -2  13   8    6.20    2.89   1
  -2  13   9    6.10    4.00   1
  -2  13  10   41.34    4.24   1
  -2  13  11   49.14    5.33   1
  -2  13  12   14.29    4.23   1
  -2  13  13   43.82    5.96   1
  -2  13  14    2.40    4.90   1
  -2  13  15    2.31    4.62   1
  -2  13  16   20.98    5.40   1
  -2  13  17   -2.69    3.90   1
  -2  14  -9    4.88    4.11   1
  -2  14  -8   26.21    7.58   1
  -2  14  -7    9.42    5.71   1
  -2  14  -6   16.81    4.18   1
  -2  14  -5   29.48    5.65   1
  -2  14  -4   24.70    2.09   1
  -2  14  -3    1.21    1.61   1
  -2  14  -2    4.20    0.98   1
  -2  14  -1   -2.10    3.10   1
  -2  14   0   11.63    2.73   1
  -2  14   1   18.58    4.14   1
  -2  14   2   66.42    4.89   1
  -2  14   3    1.00    3.90   1
  -2  14   4  100.40    7.62   1
  -2  14   5   48.16    5.83   1
  -2  14   6    8.01    3.28   1
  -2  14   7    2.40    4.09   1
  -2  14   8   34.57    4.82   1
  -2  14   9  154.75   10.95   1
  -2  14  10   12.39    4.58   1
  -2  14  11   18.66    4.06   1
  -2  14  12   -1.80    4.40   1
  -2  14  13    5.52    3.71   1
  -2  14  14    5.81    3.90   1
  -2  14  15   21.72    7.18   1
  -2  14  16   13.47    6.17   1
  -2  15  -7   -8.12    3.93   1
  -2  15  -6    3.69    5.61   1
  -2  15  -5    3.10    4.89   1
  -2  15  -4   12.60    4.19   1
  -2  15  -3   15.13    5.21   1
  -2  15  -2   73.10    5.13   1
  -2  15  -1   78.32    4.60   1
  -2  15   0   55.80    5.53   1
  -2  15   1   -4.28    2.61   1
  -2  15   2   -2.10    4.21   1
  -2  15   3    1.30    4.10   1
  -2  15   4   57.46    4.85   1
  -2  15   5   17.81    3.38   1
  -2  15   6    8.12    4.10   1
  -2  15   7   16.08    4.89   1
  -2  15   8   35.40    5.59   1
  -2  15   9   -1.30    2.69   1
  -2  15  10    5.52    4.42   1
  -2  15  11   23.91    4.11   1
  -2  15  12   34.57    5.29   1
  -2  15  13   74.48    6.90   1
  -2  15  14    3.69    4.11   1
  -2  15  15    3.31    4.22   1
  -2  16  -5    5.02    4.21   1
  -2  16  -4   10.30    5.91   1
  -2  16  -3   17.22    4.81   1
  -2  16  -2   12.39    3.80   1
  -2  16  -1   -7.51    4.71   1
  -2  16   0   38.81    5.23   1
  -2  16   1   27.35    3.56   1
  -2  16   2   28.62    5.03   1
  -2  16   3    4.00    4.92   1
  -2  16   4    3.80    3.32   1
  -2  16   5   13.76    4.38   1
  -2  16   6   16.73    4.09   1
  -2  16   8   19.01    5.93   1
  -2  16   9   19.36    5.63   1
  -2  16  10    3.31    4.00   1
  -2  16  11   -0.71    3.71   1
  -2  16  12   12.60    5.61   1
  -2  16  13   -2.50    5.40   1
  -2  17  -3    4.00    6.32   1
  -2  17  -2   -1.10    3.70   1
  -2  17  -1    6.10    4.59   1
  -2  17   0    8.88    5.42   1
  -2  17   1   23.23    4.43   1
  -2  17   2   17.22    5.39   1
  -2  17   3    6.60    5.29   1
  -2  17   4   20.79    4.20   1
  -2  17   5    0.90    5.11   1
  -2  17   6   14.36    4.70   1
  -2  17   8   -2.50    3.41   1
  -2  17   9   10.50    4.28   1
  -2  17  10   81.54    9.03   1
  -2  17  11    9.80    5.70   1
  -2  17  12    8.53    5.49   1
  -2  18   0   22.47    7.49   1
  -2  18   1    1.49    4.49   1
  -2  18   2   14.67    5.97   1
  -2  18   3   -0.59    3.77   1
  -2  18   4    6.60    5.40   1
  -2  18   5    3.50    4.11   1
  -2  18   6    2.79    6.58   1
  -2  18   7    4.20    4.10   1
  -2  18   8   11.09    6.19   1
  -2  18   9   -5.11    6.60   1
  -1 -19  -8   43.56    6.47   1
  -1 -19  -7   21.44    6.67   1
  -1 -19  -6    0.71    4.52   1
  -1 -19  -5   -2.99    5.99   1
  -1 -19  -4   28.20    5.10   1
  -1 -19  -3   -4.08    5.70   1
  -1 -19  -2    6.71    4.71   1
  -1 -18 -11    9.61    5.89   1
  -1 -18 -10    2.79    4.11   1
  -1 -18  -9   -3.39    5.78   1
  -1 -18  -8   -1.80    3.48   1
  -1 -18  -7   15.13    6.07   1
  -1 -18  -6   19.36    5.02   1
  -1 -18  -5   26.94    6.64   1
  -1 -18  -4   -5.11    3.30   1
  -1 -18  -3    8.29    5.30   1
  -1 -18  -2   27.04    6.24   1
  -1 -18  -1    6.40    3.90   1
  -1 -18   0   15.21    5.62   1
  -1 -18   1    0.20    4.23   1
  -1 -18   2   16.32    6.79   1
  -1 -17 -13   28.09    6.25   1
  -1 -17 -12    4.28    3.48   1
  -1 -17 -11   -1.10    4.01   1
  -1 -17 -10   -0.71    2.91   1
  -1 -17  -9    4.41    2.81   1
  -1 -17  -8    6.60    2.88   1
  -1 -17  -7    4.41    2.60   1
  -1 -17  -6   17.89    3.13   1
  -1 -17  -5    5.11    3.39   1
  -1 -17  -4   25.91    3.77   1
  -1 -17  -3   -0.59    3.68   1
  -1 -17  -2   42.64    6.66   1
  -1 -17  -1    7.40    3.92   1
  -1 -17   0   17.39    5.59   1
  -1 -17   1    7.02    5.19   1
  -1 -17   2    3.50    4.41   1
  -1 -17   3   -7.18    6.22   1
  -1 -17   4   -1.00    4.10   1
  -1 -16 -15   -1.00    3.90   1
  -1 -16 -14    6.20    4.08   1
  -1 -16 -13   15.13    4.43   1
  -1 -16 -12   47.33    4.40   1
  -1 -16 -11    2.10    3.10   1
  -1 -16 -10   25.10    3.01   1
  -1 -16  -9    6.71    2.90   1
  -1 -16  -8    0.30    2.41   1
  -1 -16  -7   45.02    3.62   1
  -1 -16  -6   20.79    3.10   1
  -1 -16  -5   56.10    3.89   1
  -1 -16  -4   31.92    3.62   1
  -1 -16  -3   93.51    6.38   1
  -1 -16  -2   22.00    3.66   1
  -1 -16  -1   11.97    2.91   1
  -1 -16   0    3.50    2.69   1
  -1 -16   1    9.67    3.30   1
  -1 -16   2    8.29    6.22   1
  -1 -16   3    4.08    3.88   1
  -1 -16   4    6.60    4.11   1
  -1 -16   5    8.41    5.10   1
  -1 -16   6    5.62    4.22   1
  -1 -15 -16   -1.30    3.81   1
  -1 -15 -15    6.92    3.31   1
  -1 -15 -14    4.00    2.92   1
  -1 -15 -13    4.20    2.21   1
  -1 -15 -12   -0.30    2.21   1
  -1 -15 -11   23.72    2.63   1
  -1 -15 -10    2.31    2.61   1
  -1 -15  -9    9.61    3.22   1
  -1 -15  -8    1.39    2.90   1
  -1 -15  -7   35.28    3.21   1
  -1 -15  -6    5.02    2.11   1
  -1 -15  -5    6.20    2.29   1
  -1 -15  -4   20.61    2.63   1
  -1 -15  -3    2.59    2.51   1
  -1 -15  -2    1.59    2.39   1
  -1 -15  -1   -3.10    2.71   1
  -1 -15   0   34.81    3.78   1
  -1 -15   1   37.33    3.91   1
  -1 -15   2    1.59    2.29   1
  -1 -15   3    3.31    3.02   1
  -1 -15   4   60.68    7.32   1
  -1 -15   5    4.00    3.72   1
  -1 -15   6   14.67    3.98   1
  -1 -15   8    2.31    3.62   1
  -1 -14 -17    2.31    5.41   1
  -1 -14 -16    3.31    5.10   1
  -1 -14 -15   21.16    3.22   1
  -1 -14 -14    1.99    2.28   1
  -1 -14 -13   11.09    2.73   1
  -1 -14 -12    2.89    1.70   1
  -1 -14 -11    3.39    2.10   1
  -1 -14 -10    3.80    1.91   1
  -1 -14  -9   96.63    4.52   1
  -1 -14  -8  100.80    5.42   1
  -1 -14  -7    9.92    2.90   1
  -1 -14  -6    2.31    2.49   1
  -1 -14  -5   70.06    3.85   1
  -1 -14  -4   96.63    4.91   1
  -1 -14  -3    0.59    2.48   1
  -1 -14  -2   24.70    3.08   1
  -1 -14  -1   48.58    3.76   1
  -1 -14   0   92.54    4.81   1
  -1 -14   1   20.70    3.00   1
  -1 -14   2   82.81    4.73   1
  -1 -14   3   21.90    2.81   1
  -1 -14   4   94.48    6.42   1
  -1 -14   5   -0.30    2.92   1
  -1 -14   6   27.25    5.53   1
  -1 -14   8   -2.19    3.70   1
  -1 -14   9   10.82    5.92   1
  -1 -13 -17   -2.40    4.80   1
  -1 -13 -16   -1.30    5.40   1
  -1 -13 -15   -2.10    2.20   1
  -1 -13 -14   37.45    2.82   1
  -1 -13 -13   45.56    3.24   1
  -1 -13 -12    8.18    2.12   1
  -1 -13 -11   94.87    4.29   1
  -1 -13 -10    1.00    1.80   1
  -1 -13  -9    2.31    1.49   1
  -1 -13  -8   21.81    2.24   1
  -1 -13  -7   75.86    3.66   1
  -1 -13  -6   34.46    2.70   1
  -1 -13  -5    6.92    1.79   1
  -1 -13  -4   13.91    2.61   1
  -1 -13  -3    5.29    2.30   1
  -1 -13  -2  112.78    5.10   1
  -1 -13  -1   32.60    2.51   1
  -1 -13   0   29.70    2.51   1
  -1 -13   1   13.69    2.00   1
  -1 -13   2  113.85    5.12   1
  -1 -13   3    0.30    1.90   1
  -1 -13   4   43.96    3.85   1
  -1 -13   5   11.42    2.77   1
  -1 -13   6   82.81    7.10   1
  -1 -13   8   23.23    4.92   1
  -1 -13   9    5.02    5.02   1
  -1 -13  10    5.29    4.19   1
  -1 -13  11    3.50    6.10   1
  -1 -12 -18   64.32    7.54   1
  -1 -12 -17    7.51    5.48   1
  -1 -12 -16    7.67    3.38   1
  -1 -12 -15    3.61    2.20   1
  -1 -12 -14   23.72    2.34   1
  -1 -12 -13    1.49    1.78   1
  -1 -12 -12   11.02    1.99   1
  -1 -12 -11   12.53    2.12   1
  -1 -12 -10    5.02    1.70   1
  -1 -12  -9  274.56    7.62   1
  -1 -12  -8   11.42    1.42   1
  -1 -12  -7    8.29    1.90   1
  -1 -12  -6   18.32    1.88   1
  -1 -12  -5  334.52   13.90   1
  -1 -12  -4    4.80    1.80   1
  -1 -12  -3  177.96    6.94   1
  -1 -12  -2  162.82    6.12   1
  -1 -12  -1    9.12    1.87   1
  -1 -12   0   67.73    3.62   1
  -1 -12   1    1.69    1.79   1
  -1 -12   2   36.60    2.78   1
  -1 -12   3    1.39    1.89   1
  -1 -12   4   38.44    2.73   1
  -1 -12   5   17.98    2.71   1
  -1 -12   6  170.56    7.84   1
  -1 -12   8   28.84    4.30   1
  -1 -12   9    4.88    4.51   1
  -1 -12  10   28.09    5.19   1
  -1 -12  11    8.18    4.98   1
  -1 -12  12   15.29    5.00   1
  -1 -11 -19   -6.60    4.01   1
  -1 -11 -18   -1.10    5.71   1
  -1 -11 -17   -1.69    4.19   1
  -1 -11 -16    8.18    4.92   1
  -1 -11 -15   -0.50    1.60   1
  -1 -11 -14    7.90    2.30   1
  -1 -11 -13   16.16    2.33   1
  -1 -11 -12   11.22    1.47   1
  -1 -11 -11  186.32    6.01   1
  -1 -11 -10   11.29    1.61   1
  -1 -11  -9   -0.59    1.39   1
  -1 -11  -8   20.52    1.72   1
  -1 -11  -7  253.13    7.95   1
  -1 -11  -6   27.88    2.32   1
  -1 -11  -5  295.15    9.28   1
  -1 -11  -4   43.56    3.04   1
  -1 -11  -3    4.41    1.60   1
  -1 -11  -2   85.75    3.70   1
  -1 -11  -1  481.80   16.24   1
  -1 -11   0    1.69    1.69   1
  -1 -11   1   26.42    2.26   1
  -1 -11   2   60.53    3.42   1
  -1 -11   3   77.26    4.04   1
  -1 -11   4   31.36    2.35   1
  -1 -11   5   -2.79    2.00   1
  -1 -11   6  158.51    6.30   1
  -1 -11   7   13.32    4.53   1
  -1 -11   8   63.36    5.89   1
  -1 -11   9   -1.49    3.29   1
  -1 -11  10    7.40    5.11   1
  -1 -11  11   -2.69    3.61   1
  -1 -11  12   31.58    6.07   1
  -1 -11  13   -2.50    6.70   1
  -1 -10 -19    0.40    4.78   1
  -1 -10 -18   12.53    5.52   1
  -1 -10 -17    8.70    2.89   1
  -1 -10 -16   72.42    4.26   1
  -1 -10 -15    6.71    2.28   1
  -1 -10 -14    5.81    2.31   1
  -1 -10 -13   53.29    3.21   1
  -1 -10 -12  184.14    6.51   1
  -1 -10 -11  414.94   13.04   1
  -1 -10 -10   70.22    3.02   1
  -1 -10  -9  399.60   12.79   1
  -1 -10  -8    7.18    1.39   1
  -1 -10  -7   10.37    1.42   1
  -1 -10  -6  121.88    3.53   1
  -1 -10  -5   16.40    2.11   1
  -1 -10  -4  112.15    4.02   1
  -1 -10  -3  195.44    6.15   1
  -1 -10  -2   14.52    1.98   1
  -1 -10  -1   76.04    3.49   1
  -1 -10   0  443.94   15.59   1
  -1 -10   1  374.04   13.15   1
  -1 -10   2  274.56    8.28   1
  -1 -10   3  254.40    8.29   1
  -1 -10   4  193.49    6.68   1
  -1 -10   5   21.62    3.53   1
  -1 -10   6    4.49    3.39   1
  -1 -10   7   22.47    2.46   1
  -1 -10   8    0.10    1.92   1
  -1 -10   9    6.10    2.52   1
  -1 -10  10   10.30    3.21   1
  -1 -10  11   60.06    6.82   1
  -1 -10  12   10.82    4.01   1
  -1 -10  13    3.50    4.30   1
  -1 -10  14   17.98    5.77   1
  -1  -9 -19    0.79    3.68   1
  -1  -9 -18   -6.20    4.68   1
  -1  -9 -17    5.71    3.59   1
  -1  -9 -16  115.13    6.87   1
  -1  -9 -15   11.29    2.42   1
  -1  -9 -14  219.34    7.41   1
  -1  -9 -13   33.29    2.65   1
  -1  -9 -12  181.71    6.20   1
  -1  -9 -11   25.81    2.03   1
  -1  -9 -10  211.70    6.98   1
  -1  -9  -9   -0.40    1.40   1
  -1  -9  -8  628.00   17.04   1
  -1  -9  -7   13.32    1.39   1
  -1  -9  -6   47.06    1.92   1
  -1  -9  -5   87.24    2.99   1
  -1  -9  -4    0.79    1.19   1
  -1  -9  -3   84.46    3.49   1
  -1  -9  -2    1.59    1.39   1
  -1  -9  -1  359.86   10.24   1
  -1  -9   0    6.40    1.32   1
  -1  -9   1   43.96    2.92   1
  -1  -9   2   -5.29    2.81   1
  -1  -9   3   26.42    2.47   1
  -1  -9   4    4.41    2.02   1
  -1  -9   5  209.96    8.98   1
  -1  -9   6    2.31    2.49   1
  -1  -9   7    4.08    1.98   1
  -1  -9   8    5.52    2.11   1
  -1  -9   9   37.21    3.42   1
  -1  -9  10    2.31    4.01   1
  -1  -9  11   -0.30    3.11   1
  -1  -9  12   31.36    6.05   1
  -1  -9  13    4.88    4.91   1
  -1  -9  14   42.38    5.99   1
  -1  -8 -20   -1.10    3.51   1
  -1  -8 -19   74.30    7.59   1
  -1  -8 -18   60.37    7.77   1
  -1  -8 -17   12.67    3.28   1
  -1  -8 -16   39.44    4.14   1
  -1  -8 -15   78.85    4.62   1
  -1  -8 -14   58.68    3.52   1
  -1  -8 -13    0.40    2.29   1
  -1  -8 -12  298.60    9.33   1
  -1  -8 -11    3.61    1.60   1
  -1  -8 -10  140.66    4.51   1
  -1  -8  -9   44.09    2.12   1
  -1  -8  -8  225.90    6.01   1
  -1  -8  -7   16.73    1.31   1
  -1  -8  -6 1113.56   24.03   1
  -1  -8  -5   27.04    1.25   1
  -1  -8  -4  302.41    9.04   1
  -1  -8  -3  106.30    3.51   1
  -1  -8  -2    3.88    0.99   1
  -1  -8  -1  102.41    3.64   1
  -1  -8   0  122.99    3.99   1
  -1  -8   1  158.00    4.78   1
  -1  -8   2   -0.40    1.30   1
  -1  -8   3   88.55    3.58   1
  -1  -8   4  102.01    5.05   1
  -1  -8   5   38.94    2.75   1
  -1  -8   6   26.32    2.98   1
  -1  -8   7  277.89    9.67   1
  -1  -8   8   25.91    2.55   1
  -1  -8   9   10.82    1.18   1
  -1  -8  10   30.25    1.87   1
  -1  -8  11   41.47    2.45   1
  -1  -8  12    4.49    1.48   1
  -1  -8  13   64.16    4.01   1
  -1  -8  14   39.94    6.95   1
  -1  -8  15    1.90    3.62   1
  -1  -7 -20   16.97    6.26   1
  -1  -7 -19   57.46    7.28   1
  -1  -7 -18   -1.39    2.90   1
  -1  -7 -17   35.76    4.90   1
  -1  -7 -16   91.78    5.17   1
  -1  -7 -15   42.38    3.26   1
  -1  -7 -14   89.68    4.55   1
  -1  -7 -13  101.20    4.63   1
  -1  -7 -12   13.76    2.37   1
  -1  -7 -11   18.40    2.32   1
  -1  -7 -10  510.76   16.27   1
  -1  -7  -9   10.50    1.81   1
  -1  -7  -8  212.58    6.42   1
  -1  -7  -7   94.87    2.73   1
  -1  -7  -6  300.33    6.93   1
  -1  -7  -5   16.56    1.06   1
  -1  -7  -4   81.36    2.35   1
  -1  -7  -3   12.11    1.11   1
  -1  -7  -2   23.62    1.65   1
  -1  -7  -1   82.99    2.73   1
  -1  -7   0  110.04    3.15   1
  -1  -7   1   13.03    1.80   1
  -1  -7   2  846.23   25.02   1
  -1  -7   3  263.41    8.44   1
  -1  -7   4  155.50    5.24   1
  -1  -7   5  280.23    7.70   1
  -1  -7   6   18.40    1.29   1
  -1  -7   7    1.21    1.10   1
  -1  -7   8  162.31    5.35   1
  -1  -7   9   48.72    5.44   1
  -1  -7  10    5.38    1.30   1
  -1  -7  11    4.41    1.39   1
  -1  -7  12    5.29    1.61   1
  -1  -7  13    9.99    2.40   1
  -1  -7  14    9.42    2.52   1
  -1  -7  15    5.71    5.78   1
  -1  -7  16   -7.40    4.19   1
  -1  -6 -20   -5.29    5.61   1
  -1  -6 -19   15.68    5.07   1
  -1  -6 -18   43.56    5.94   1
  -1  -6 -17   21.62    4.09   1
  -1  -6 -16    2.10    2.49   1
  -1  -6 -15    2.89    2.69   1
  -1  -6 -14   12.67    2.42   1
  -1  -6 -13    5.02    2.02   1
  -1  -6 -12  195.72    6.72   1
  -1  -6 -11    5.62    1.71   1
  -1  -6 -10   40.20    2.41   1
  -1  -6  -9   -2.10    1.10   1
  -1  -6  -8   93.12    3.47   1
  -1  -6  -7  312.94    8.49   1
  -1  -6  -6  216.38    5.88   1
  -1  -6  -5   34.46    1.41   1
  -1  -6  -4    7.78    0.89   1
  -1  -6  -3  304.50    8.73   1
  -1  -6  -2   80.28    2.51   1
  -1  -6  -1  798.06   20.91   1
  -1  -6   0  597.80   17.60   1
  -1  -6   1  487.53   13.25   1
  -1  -6   2   13.03    2.02   1
  -1  -6   3 1461.53   38.23   1
  -1  -6   4  363.66   10.30   1
  -1  -6   5   19.36    1.50   1
  -1  -6   6    5.29    1.01   1
  -1  -6   7   75.52    2.43   1
  -1  -6   8    7.08    1.28   1
  -1  -6   9   19.18    1.40   1
  -1  -6  10   58.83    2.61   1
  -1  -6  11    6.81    1.62   1
  -1  -6  12   25.20    1.91   1
  -1  -6  13   41.86    3.88   1
  -1  -6  14   24.80    2.39   1
  -1  -6  15   47.20    3.71   1
  -1  -6  16   93.51   10.06   1
  -1  -6  17   17.47    6.52   1
  -1  -5 -20   -4.20    4.10   1
  -1  -5 -19   59.75    8.04   1
  -1  -5 -18   11.29    5.38   1
  -1  -5 -17   68.06    4.29   1
  -1  -5 -16   13.18    2.61   1
  -1  -5 -15    4.28    2.11   1
  -1  -5 -14   19.18    2.54   1
  -1  -5 -13   20.79    2.28   1
  -1  -5 -12    2.69    1.61   1
  -1  -5 -11  129.50    5.23   1
  -1  -5 -10  218.45    9.75   1
  -1  -5  -9   17.64    1.93   1
  -1  -5  -8  327.97    9.06   1
  -1  -5  -7 1090.32   29.06   1
  -1  -5  -6  858.49   25.78   1
  -1  -5  -5  189.34    5.23   1
  -1  -5  -4 2859.04   79.14   1
  -1  -5  -3   99.80    2.40   1
  -1  -5  -2   37.58    1.47   1
  -1  -5  -1   17.47    1.34   1
  -1  -5   0  158.00    4.78   1
  -1  -5   1   27.77    1.48   1
  -1  -5   2    8.29    0.92   1
  -1  -5   3   33.52    1.39   1
  -1  -5   4  267.98    7.86   1
  -1  -5   5  334.89    9.15   1
  -1  -5   6  142.32    4.06   1
  -1  -5   7    4.20    0.98   1
  -1  -5   8  165.38    5.40   1
  -1  -5   9  396.41   15.13   1
  -1  -5  10   -0.50    1.11   1
  -1  -5  11  271.92    8.57   1
  -1  -5  12   -1.99    1.18   1
  -1  -5  13   44.76    2.94   1
  -1  -5  14   12.89    2.23   1
  -1  -5  15   71.40    4.73   1
  -1  -5  16    1.80    2.01   1
  -1  -5  17    3.10    5.70   1
  -1  -4 -20    9.67    6.47   1
  -1  -4 -19    6.00    3.48   1
  -1  -4 -18   -1.69    4.78   1
  -1  -4 -17    6.60    2.21   1
  -1  -4 -16    1.99    2.09   1
  -1  -4 -15   88.74    4.33   1
  -1  -4 -14    1.00    2.20   1
  -1  -4 -13   47.61    4.69   1
  -1  -4 -12    2.10    1.51   1
  -1  -4 -11   33.18    2.42   1
  -1  -4 -10   62.88    4.12   1
  -1  -4  -9    3.39    1.29   1
  -1  -4  -8   62.25    3.00   1
  -1  -4  -7  186.32    5.19   1
  -1  -4  -6   76.56    4.73   1
  -1  -4  -5 2351.28   62.07   1
  -1  -4  -4   36.12    1.20   1
  -1  -4  -3 4139.64  118.39   1
  -1  -4  -2  175.56    3.98   1
  -1  -4  -1 1137.04   32.37   1
  -1  -4   0  106.50    3.72   1
  -1  -4   1 4994.25  182.33   1
  -1  -4   2  173.98    4.48   1
  -1  -4   3  117.51    3.25   1
  -1  -4   4 2311.69   58.66   1
  -1  -4   5   45.43    1.75   1
  -1  -4   6  571.69   13.87   1
  -1  -4   7  345.96    8.93   1
  -1  -4   8   -1.99    1.10   1
  -1  -4   9  363.66   10.68   1
  -1  -4  10   54.46    2.36   1
  -1  -4  11   64.96    3.55   1
  -1  -4  12   51.27    2.86   1
  -1  -4  13   97.61    3.95   1
  -1  -4  14   -4.00    2.00   1
  -1  -4  15    4.28    2.48   1
  -1  -4  16    2.50    2.09   1
  -1  -4  17   36.12    3.73   1
  -1  -4  18  -10.50    6.22   1
  -1  -3 -20   31.70    6.64   1
  -1  -3 -19    0.20    3.22   1
  -1  -3 -17   12.11    3.20   1
  -1  -3 -16   15.29    3.68   1
  -1  -3 -15   29.05    5.17   1
  -1  -3 -14    2.59    2.51   1
  -1  -3 -13  108.37    4.79   1
  -1  -3 -12  171.61    6.81   1
  -1  -3 -11    3.69    1.50   1
  -1  -3 -10    4.58    1.20   1
  -1  -3  -9  667.19   22.73   1
  -1  -3  -8   54.46    2.66   1
  -1  -3  -7  908.42   36.77   1
  -1  -3  -6   32.38    1.82   1
  -1  -3  -5   58.06    3.81   1
  -1  -3  -4   11.02    0.80   1
  -1  -3  -3  567.87   14.30   1
  -1  -3  -2  104.65    2.66   1
  -1  -3  -1   14.90    0.77   1
  -1  -3   0  708.09   26.08   1
  -1  -3   1   88.17    3.00   1
  -1  -3   3 2409.83   70.69   1
  -1  -3   4   16.48    2.19   1
  -1  -3   5  483.12   12.75   1
  -1  -3   6  145.68    4.59   1
  -1  -3   7   17.31    1.66   1
  -1  -3   8  286.96    8.47   1
  -1  -3   9   51.55    2.73   1
  -1  -3  10   20.98    1.92   1
  -1  -3  11   74.48    3.62   1
  -1  -3  12  216.97    8.54   1
  -1  -3  13   51.55    4.45   1
  -1  -3  14   31.81    4.51   1
  -1  -3  15   91.58    8.04   1
  -1  -3  16    4.58    3.08   1
  -1  -3  17    6.50    2.19   1
  -1  -3  18    3.80    2.89   1
  -1  -2 -20    5.11    4.52   1
  -1  -2 -19   11.22    6.30   1
  -1  -2 -18   58.98    6.60   1
  -1  -2 -17   -1.90    3.31   1
  -1  -2 -16   23.52    2.72   1
  -1  -2 -15   31.02    3.23   1
  -1  -2 -14    3.39    1.80   1
  -1  -2 -13    9.92    2.02   1
  -1  -2 -12   10.37    1.80   1
  -1  -2 -11   11.22    1.67   1
  -1  -2 -10   97.22    3.75   1
  -1  -2  -9  408.85   12.54   1
  -1  -2  -8   41.09    2.05   1
  -1  -2  -7   13.10    1.09   1
  -1  -2  -6    1.39    0.90   1
  -1  -2  -5  593.90   19.01   1
  -1  -2  -4  179.56    6.70   1
  -1  -2  -3    5.81    0.58   1
  -1  -2  -2  337.82   11.76   1
  -1  -2  -1   25.10    3.21   1
  -1  -2   0  271.92   18.14   1
  -1  -2   1  820.25   31.50   1
  -1  -2   2  582.74   17.38   1
  -1  -2   3 1604.80   52.88   1
  -1  -2   4  229.52   16.97   1
  -1  -2   5 1094.29   35.06   1
  -1  -2   6    2.89    1.39   1
  -1  -2   7   17.22    1.83   1
  -1  -2   8 1056.90   33.81   1
  -1  -2   9   21.44    1.76   1
  -1  -2  10  331.60   10.93   1
  -1  -2  11   50.27    2.84   1
  -1  -2  12   17.39    2.09   1
  -1  -2  13  162.31    7.39   1
  -1  -2  14    2.69    3.61   1
  -1  -2  15   -9.00    4.02   1
  -1  -2  16    2.40    3.60   1
  -1  -2  17   30.14    5.16   1
  -1  -2  18    0.50    3.82   1
  -1  -1 -19    5.29    4.09   1
  -1  -1 -18    0.71    4.52   1
  -1  -1 -17   -0.30    3.31   1
  -1  -1 -16  101.00    6.43   1
  -1  -1 -15    7.29    2.59   1
  -1  -1 -14    3.39    1.91   1
  -1  -1 -13  138.30    6.12   1
  -1  -1 -12   -0.50    2.00   1
  -1  -1 -11    2.10    1.51   1
  -1  -1 -10  328.70   15.23   1
  -1  -1  -9    4.20    1.31   1
  -1  -1  -8    2.89    1.80   1
  -1  -1  -7  585.16   17.90   1
  -1  -1  -6    9.67    1.31   1
  -1  -1  -5  329.79   14.53   1
  -1  -1  -4  154.01    6.20   1
  -1  -1  -3 1243.27   45.84   1
  -1  -1  -1   -0.30    0.30   1
  -1  -1   0   -0.50    0.30   1
  -1  -1   1   -0.59    0.29   1
  -1  -1   2  184.96    7.34   1
  -1  -1   3  115.35    4.08   1
  -1  -1   4  235.32    7.98   1
  -1  -1   5  468.29   18.18   1
  -1  -1   6   21.72    2.70   1
  -1  -1   7  541.03   16.28   1
  -1  -1   8  130.19    7.53   1
  -1  -1   9   16.16    1.77   1
  -1  -1  10    4.58    2.01   1
  -1  -1  11   44.76    2.54   1
  -1  -1  12   64.16    3.20   1
  -1  -1  13    7.78    2.68   1
  -1  -1  14    3.10    2.50   1
  -1  -1  15    1.39    3.09   1
  -1  -1  16   26.32    5.75   1
  -1  -1  17    6.71    4.30   1
  -1  -1  18   53.14    5.98   1
  -1  -1  19    8.12    5.53   1
  -1   0 -19   17.14    6.13   1
  -1   0 -18   29.27    5.09   1
  -1   0 -17   24.90    5.19   1
  -1   0 -16   -2.89    3.09   1
  -1   0 -15   17.47    2.93   1
  -1   0 -14   -2.59    2.19   1
  -1   0 -13    3.10    1.69   1
  -1   0 -12  141.85    5.95   1
  -1   0 -11  197.96    6.47   1
  -1   0 -10   12.82    1.58   1
  -1   0  -9  298.25    8.98   1
  -1   0  -8  211.12    7.85   1
  -1   0  -7  282.24   13.10   1
  -1   0  -6  777.85   22.31   1
  -1   0  -5  772.84   23.35   1
  -1   0  -4 2203.36   96.70   1
  -1   0  -3  259.85   12.25   1
  -1   0  -1   -0.40    0.20   1
  -1   0   0    0.10    0.20   1
  -1   0   1    7.51    2.52   1
  -1   0   2   21.81    3.36   1
  -1   0   3   22.00    0.94   1
  -1   0   4  909.02   29.55   1
  -1   0   5  249.01    8.21   1
  -1   0   6  186.87    6.29   1
  -1   0   7  283.59    8.76   1
  -1   0   8    0.71    1.11   1
  -1   0   9   73.96    3.10   1
  -1   0  10   67.08    4.91   1
  -1   0  11   -0.30    1.90   1
  -1   0  12   35.76    2.75   1
  -1   0  13    4.58    2.01   1
  -1   0  14    3.88    2.01   1
  -1   0  15   -3.10    4.19   1
  -1   0  16   11.49    4.68   1
  -1   0  17   24.50    3.86   1
  -1   0  18    6.81    4.91   1
  -1   0  19   17.98    4.66   1
  -1   1 -19   -6.30    5.42   1
  -1   1 -18    9.61    5.21   1
  -1   1 -17   -5.62    4.31   1
  -1   1 -16    7.02    3.50   1
  -1   1 -15   14.67    2.99   1
  -1   1 -14   21.72    3.17   1
  -1   1 -13   50.84    3.28   1
  -1   1 -12  103.84    8.15   1
  -1   1 -11   90.82    4.57   1
  -1   1 -10  201.36    7.09   1
  -1   1  -9  476.99   14.85   1
  -1   1  -8   21.16    1.47   1
  -1   1  -7  630.51   21.59   1
  -1   1  -6   20.07    1.61   1
  -1   1  -5  123.88    6.90   1
  -1   1  -4  134.79    6.73   1
  -1   1  -3  395.21   13.12   1
  -1   1  -2   23.14    0.87   1
  -1   1   0   -0.10    0.40   1
  -1   1   1   -0.71    0.40   1
  -1   1   2  158.00    7.04   1
  -1   1   3    9.00    1.08   1
  -1   1   4  483.56   43.10   1
  -1   1   5  261.47    8.09   1
  -1   1   6   36.24    2.05   1
  -1   1   7    2.10    0.90   1
  -1   1   8   63.68    2.87   1
  -1   1   9   74.30    3.28   1
  -1   1  10  263.41   12.33   1
  -1   1  11    3.69    1.50   1
  -1   1  12  226.20    8.72   1
  -1   1  13   46.51    5.32   1
  -1   1  14  118.81    6.32   1
  -1   1  15    6.30    3.82   1
  -1   1  16   13.10    2.90   1
  -1   1  17    0.00    1.00   1
  -1   1  18   45.16    5.91   1
  -1   1  19   16.00    5.60   1
  -1   2 -18   25.81    4.78   1
  -1   2 -17   21.44    5.28   1
  -1   2 -16   -1.10    4.01   1
  -1   2 -15   42.25    3.38   1
  -1   2 -14   30.25    3.52   1
  -1   2 -13    4.41    2.60   1
  -1   2 -12  164.10    6.66   1
  -1   2 -11  191.27    6.64   1
  -1   2 -10   -1.39    1.30   1
  -1   2  -9  556.49   16.98   1
  -1   2  -8  411.28   12.17   1
  -1   2  -7   -0.90    2.30   1
  -1   2  -6  164.10    6.15   1
  -1   2  -5    4.28    1.12   1
  -1   2  -4   13.18    1.23   1
  -1   2  -3  266.34    8.81   1
  -1   2  -2   24.01    1.08   1
  -1   2  -1  202.78    6.27   1
  -1   2   0    9.30    0.67   1
  -1   2   1 1304.65   53.46   1
  -1   2   2  284.26    8.43   1
  -1   2   3  714.49   20.85   1
  -1   2   4    2.19    0.89   1
  -1   2   5   27.98    2.12   1
  -1   2   6   96.24    3.73   1
  -1   2   7  121.88    3.97   1
  -1   2   8    1.90    1.41   1
  -1   2   9   32.72    2.17   1
  -1   2  10   11.97    1.80   1
  -1   2  11    1.59    1.69   1
  -1   2  12   11.70    2.33   1
  -1   2  13   -0.71    1.92   1
  -1   2  14   -2.69    1.80   1
  -1   2  15   94.87    6.82   1
  -1   2  16   46.92    4.52   1
  -1   2  17   38.19    4.82   1
  -1   2  18    0.50    4.52   1
  -1   2  19    2.10    4.00   1
  -1   3 -18   -2.31    3.62   1
  -1   3 -17   41.22    6.81   1
  -1   3 -16   19.10    3.23   1
  -1   3 -15    6.00    3.09   1
  -1   3 -14   84.64    5.52   1
  -1   3 -13    8.12    2.39   1
  -1   3 -12  103.63    5.29   1
  -1   3 -11   31.47    2.69   1
  -1   3 -10  242.42    9.96   1
  -1   3  -9   34.11    2.57   1
  -1   3  -8  434.31   12.09   1
  -1   3  -7   70.06    3.18   1
  -1   3  -6    8.58    1.52   1
  -1   3  -5   10.82    1.38   1
  -1   3  -4  150.80    4.67   1
  -1   3  -3   33.29    1.62   1
  -1   3  -2   14.29    1.29   1
  -1   3  -1   52.27    1.74   1
  -1   3   0   12.60    1.07   1
  -1   3   1  738.21   21.74   1
  -1   3   2  539.63   17.65   1
  -1   3   3 1576.09   44.46   1
  -1   3   4  168.22    5.71   1
  -1   3   5   93.12    3.09   1
  -1   3   6  119.90    3.72   1
  -1   3   7    5.90    1.51   1
  -1   3   8  184.42    5.43   1
  -1   3   9    7.02    1.59   1
  -1   3  10    7.90    1.40   1
  -1   3  11   55.95    3.14   1
  -1   3  12  442.68   14.31   1
  -1   3  13   46.92    2.88   1
  -1   3  14   51.27    3.44   1
  -1   3  15   44.22    5.32   1
  -1   3  16   98.80    7.95   1
  -1   3  17    2.69    2.98   1
  -1   3  18   53.44    5.99   1
  -1   3  19   25.81    5.99   1
  -1   3  20   16.16    5.31   1
  -1   4 -18   23.62    4.96   1
  -1   4 -17    2.40    4.40   1
  -1   4 -16   16.97    4.53   1
  -1   4 -15   10.69    3.99   1
  -1   4 -14  122.54    7.97   1
  -1   4 -13   50.84    4.14   1
  -1   4 -12   21.44    2.50   1
  -1   4 -11  165.12   12.59   1
  -1   4 -10    5.71    2.29   1
  -1   4  -9   64.80    3.22   1
  -1   4  -8    2.10    1.71   1
  -1   4  -7   52.85    2.47   1
  -1   4  -6   36.60    2.30   1
  -1   4  -5   56.70    2.56   1
  -1   4  -4  339.30   11.42   1
  -1   4  -3  786.24   22.43   1
  -1   4  -2  317.55    9.98   1
  -1   4  -1  784.00   22.40   1
  -1   4   0  650.76   20.92   1
  -1   4   1 3872.57  105.79   1
  -1   4   2   30.80    1.55   1
  -1   4   3   -1.80    1.21   1
  -1   4   4   73.79    2.41   1
  -1   4   5   27.88    1.48   1
  -1   4   6  100.40    3.81   1
  -1   4   7   55.50    2.38   1
  -1   4   8   -1.21    1.61   1
  -1   4   9    0.71    1.31   1
  -1   4  10  343.36    9.64   1
  -1   4  11  103.23    6.10   1
  -1   4  12   30.36    2.53   1
  -1   4  13   16.73    2.29   1
  -1   4  14   70.06    4.18   1
  -1   4  15   32.60    4.34   1
  -1   4  16   19.62    4.16   1
  -1   4  17   47.61    6.07   1
  -1   4  18    0.00    1.00   1
  -1   4  19   14.90    5.10   1
  -1   4  20   23.43    6.58   1
  -1   5 -17   16.08    4.33   1
  -1   5 -16    2.69    3.51   1
  -1   5 -15   10.50    4.41   1
  -1   5 -14    5.11    4.52   1
  -1   5 -13   14.36    2.58   1
  -1   5 -12    1.30    2.01   1
  -1   5 -11   75.52    4.52   1
  -1   5 -10   59.91    2.94   1
  -1   5  -9   -0.71    1.92   1
  -1   5  -8  326.52   10.84   1
  -1   5  -7   15.92    1.84   1
  -1   5  -6    1.99    1.18   1
  -1   5  -5  319.69   10.37   1
  -1   5  -4  498.18   14.28   1
  -1   5  -3  187.14    4.92   1
  -1   5  -2   95.26    4.49   1
  -1   5  -1   31.25    1.68   1
  -1   5   0  208.80   10.11   1
  -1   5   1   37.09    1.95   1
  -1   5   2   24.30    1.28   1
  -1   5   3   95.65    3.13   1
  -1   5   4   85.38    4.62   1
  -1   5   5   58.52    2.45   1
  -1   5   6  145.93    6.76   1
  -1   5   7   37.21    2.32   1
  -1   5   8  114.70    7.28   1
  -1   5   9  485.32   13.66   1
  -1   5  10  250.91    7.29   1
  -1   5  11   67.40    2.96   1
  -1   5  12    1.21    1.80   1
  -1   5  13    1.69    1.90   1
  -1   5  14    5.52    1.79   1
  -1   5  15   24.50    4.55   1
  -1   5  16   83.91    6.05   1
  -1   5  17    9.00    4.38   1
  -1   5  18   47.89    6.64   1
  -1   5  19   12.11    3.97   1
  -1   5  20    3.10    5.21   1
  -1   6 -16    2.31    4.01   1
  -1   6 -15   18.58    5.69   1
  -1   6 -14   15.76    4.53   1
  -1   6 -13    6.71    2.90   1
  -1   6 -12    2.40    3.10   1
  -1   6 -11   24.70    2.58   1
  -1   6 -10  185.78    7.63   1
  -1   6  -9    6.40    1.82   1
  -1   6  -8   20.61    2.09   1
  -1   6  -7  124.32    4.68   1
  -1   6  -6  135.02    4.88   1
  -1   6  -5   73.96    3.44   1
  -1   6  -4  556.02   13.20   1
  -1   6  -3  312.94    8.14   1
  -1   6  -2  261.79    7.12   1
  -1   6  -1  238.70    7.11   1
  -1   6   0   38.94    2.00   1
  -1   6   1  206.21    4.88   1
  -1   6   2   27.25    1.67   1
  -1   6   3  118.37    3.92   1
  -1   6   4  134.79    5.11   1
  -1   6   5  194.32    5.30   1
  -1   6   6   27.67    3.05   1
  -1   6   7  317.55    8.55   1
  -1   6   8   43.82    2.91   1
  -1   6   9   73.96    3.27   1
  -1   6  10  208.80    6.36   1
  -1   6  11  537.78   16.70   1
  -1   6  12   27.46    2.41   1
  -1   6  13   -0.79    2.49   1
  -1   6  14    1.39    1.79   1
  -1   6  15   12.32    3.02   1
  -1   6  16   31.81    5.08   1
  -1   6  17    1.69    4.50   1
  -1   6  18    0.20    5.03   1
  -1   6  19   22.47    6.16   1
  -1   6  20   25.00    7.20   1
  -1   7 -16   10.18    4.40   1
  -1   7 -15   22.66    4.47   1
  -1   7 -14   26.73    5.58   1
  -1   7 -13   30.91    4.23   1
  -1   7 -12   12.67    3.99   1
  -1   7 -11    2.31    2.92   1
  -1   7 -10    4.20    2.21   1
  -1   7  -9   37.09    2.92   1
  -1   7  -8    0.00    1.00   1
  -1   7  -7    8.41    1.68   1
  -1   7  -6   72.42    2.89   1
  -1   7  -5    0.59    1.49   1
  -1   7  -4  106.92    3.10   1
  -1   7  -3  216.68    5.30   1
  -1   7  -2  214.04    6.44   1
  -1   7  -1   59.14    2.15   1
  -1   7   0   44.09    2.39   1
  -1   7   1   17.81    0.93   1
  -1   7   2  619.51   16.93   1
  -1   7   3  173.19    5.53   1
  -1   7   4 1155.32   31.95   1
  -1   7   5    8.88    1.61   1
  -1   7   6 1082.41   36.19   1
  -1   7   7   60.06    2.48   1
  -1   7   8   14.90    1.70   1
  -1   7   9  111.94    4.02   1
  -1   7  10   92.54    3.66   1
  -1   7  11  160.02    8.85   1
  -1   7  12   17.31    2.58   1
  -1   7  13    3.50    1.98   1
  -1   7  14   72.59    5.96   1
  -1   7  15   26.32    3.69   1
  -1   7  16    1.90    4.50   1
  -1   7  17    2.59    4.70   1
  -1   7  18   13.62    4.80   1
  -1   7  19   23.43    5.81   1
  -1   8 -15   86.49    9.86   1
  -1   8 -14   12.67    3.92   1
  -1   8 -13   -2.40    4.22   1
  -1   8 -12   17.72    3.54   1
  -1   8 -11   45.70    5.81   1
  -1   8 -10    4.80    2.10   1
  -1   8  -9    9.99    2.09   1
  -1   8  -8   17.72    2.53   1
  -1   8  -7   57.91    3.50   1
  -1   8  -6   17.98    2.12   1
  -1   8  -5   39.94    1.90   1
  -1   8  -4   27.88    1.27   1
  -1   8  -3   12.32    1.19   1
  -1   8  -2  641.10   18.74   1
  -1   8  -1    0.30    1.41   1
  -1   8   0  663.58   18.03   1
  -1   8   1   10.63    0.78   1
  -1   8   2  903.60   27.05   1
  -1   8   3   85.93    3.34   1
  -1   8   4  304.50    8.73   1
  -1   8   5  216.09    6.76   1
  -1   8   6  112.36    4.03   1
  -1   8   7   50.98    2.57   1
  -1   8   8   11.02    1.79   1
  -1   8   9  157.50    5.52   1
  -1   8  10  194.60    7.25   1
  -1   8  11   57.46    3.03   1
  -1   8  12   76.56    3.67   1
  -1   8  13  315.42   15.27   1
  -1   8  14    1.99    3.89   1
  -1   8  15   54.46    4.87   1
  -1   8  16   29.05    4.85   1
  -1   8  17    3.10    4.40   1
  -1   8  18   -0.20    3.12   1
  -1   8  19   -5.11    3.62   1
  -1   9 -14    5.81    4.63   1
  -1   9 -13   67.24    7.87   1
  -1   9 -12    7.18    4.40   1
  -1   9 -11    0.90    3.80   1
  -1   9 -10   -4.88    3.71   1
  -1   9  -9   15.52    2.92   1
  -1   9  -8    5.02    2.11   1
  -1   9  -7   25.20    2.71   1
  -1   9  -6  113.00    4.89   1
  -1   9  -5   21.72    1.40   1
  -1   9  -4  101.81    3.63   1
  -1   9  -3  106.50    3.10   1
  -1   9  -2  129.50    5.92   1
  -1   9  -1  169.52    6.77   1
  -1   9   0  524.41   14.20   1
  -1   9   1  151.78    3.70   1
  -1   9   2  204.20    6.00   1
  -1   9   3   22.66    1.71   1
  -1   9   4   32.72    1.94   1
  -1   9   5   -6.40    1.82   1
  -1   9   6   74.30    2.93   1
  -1   9   7   25.40    2.22   1
  -1   9   8   46.24    2.86   1
  -1   9   9   -1.90    2.10   1
  -1   9  10   38.69    2.49   1
  -1   9  11   76.39    3.67   1
  -1   9  12   72.25    4.08   1
  -1   9  13   33.76    2.90   1
  -1   9  14   -2.19    2.60   1
  -1   9  15   20.61    4.36   1
  -1   9  16    1.80    4.69   1
  -1   9  17    0.20    4.63   1
  -1   9  18   -2.40    3.60   1
  -1   9  19   -0.59    3.77   1
  -1  10 -13    1.21    5.41   1
  -1  10 -12    0.59    3.77   1
  -1  10 -11   29.81    5.35   1
  -1  10 -10    1.21    3.32   1
  -1  10  -9   -0.71    3.11   1
  -1  10  -8   10.37    3.86   1
  -1  10  -7   16.56    2.93   1
  -1  10  -6   18.32    2.82   1
  -1  10  -5  104.24    4.08   1
  -1  10  -4  115.99    4.52   1
  -1  10  -3  206.78    7.77   1
  -1  10  -2  201.07    5.67   1
  -1  10  -1  190.99    6.36   1
  -1  10   0    9.92    1.01   1
  -1  10   1    3.61    0.80   1
  -1  10   2    8.18    1.89   1
  -1  10   3  112.57    3.82   1
  -1  10   4    2.19    1.39   1
  -1  10   5    0.20    1.91   1
  -1  10   6    1.80    1.21   1
  -1  10   7    2.10    1.39   1
  -1  10   8  232.26    8.23   1
  -1  10   9   19.10    1.84   1
  -1  10  10  299.98   11.08   1
  -1  10  11   93.32    4.25   1
  -1  10  12   44.09    2.92   1
  -1  10  13  115.13    7.30   1
  -1  10  14   30.14    3.40   1
  -1  10  15    1.59    4.08   1
  -1  10  16    1.80    4.29   1
  -1  10  17   28.84    5.80   1
  -1  10  18    0.20    3.82   1
  -1  10  19    3.39    8.68   1
  -1  11 -13   35.16    5.69   1
  -1  11 -12    0.59    5.27   1
  -1  11 -11    7.02    3.39   1
  -1  11 -10   23.04    6.24   1
  -1  11  -9   44.09    5.18   1
  -1  11  -8   52.56    5.51   1
  -1  11  -7   35.28    4.75   1
  -1  11  -6   -1.10    2.39   1
  -1  11  -5    6.81    1.10   1
  -1  11  -4   12.82    1.50   1
  -1  11  -3  195.16    5.87   1
  -1  11  -2    0.79    1.19   1
  -1  11  -1   16.08    2.49   1
  -1  11   0  174.50    5.28   1
  -1  11   1    2.50    0.88   1
  -1  11   2  161.29    6.10   1
  -1  11   3   45.83    2.57   1
  -1  11   4    8.88    1.79   1
  -1  11   5   29.59    2.83   1
  -1  11   6  260.82    8.72   1
  -1  11   7   29.81    2.40   1
  -1  11   8    8.88    2.03   1
  -1  11   9   56.55    3.76   1
  -1  11  10  175.83    7.16   1
  -1  11  11   76.91    4.03   1
  -1  11  12    1.59    2.49   1
  -1  11  13   -1.21    2.31   1
  -1  11  14    7.90    2.92   1
  -1  11  15    2.59    4.19   1
  -1  11  16    7.29    4.91   1
  -1  11  17    6.81    3.60   1
  -1  11  18   10.30    3.79   1
  -1  12 -11   10.82    5.20   1
  -1  12 -10    4.80    3.81   1
  -1  12  -9   -0.59    5.47   1
  -1  12  -8    6.60    2.98   1
  -1  12  -7   12.39    4.22   1
  -1  12  -6    5.38    4.32   1
  -1  12  -5   21.72    1.86   1
  -1  12  -4    2.31    1.49   1
  -1  12  -3   59.44    2.93   1
  -1  12  -2   44.49    2.40   1
  -1  12  -1   31.25    3.24   1
  -1  12   0   14.06    1.20   1
  -1  12   1  122.10    3.98   1
  -1  12   2   42.25    3.25   1
  -1  12   3    8.82    2.32   1
  -1  12   4  105.27    4.31   1
  -1  12   5   11.29    1.88   1
  -1  12   6    1.00    1.80   1
  -1  12   7    0.50    1.70   1
  -1  12   8   11.29    2.08   1
  -1  12   9    3.80    2.50   1
  -1  12  10   -0.30    2.41   1
  -1  12  11   13.40    4.17   1
  -1  12  12   -2.79    3.81   1
  -1  12  13   -0.20    2.92   1
  -1  12  14    5.11    4.29   1
  -1  12  15   -3.80    4.80   1
  -1  12  16   26.63    6.19   1
  -1  12  17   65.12    7.26   1
  -1  12  18    4.20    6.40   1
  -1  13 -10   11.83    4.82   1
  -1  13  -9    0.20    4.93   1
  -1  13  -8    6.00    3.58   1
  -1  13  -7   35.40    5.59   1
  -1  13  -6    9.18    4.67   1
  -1  13  -5   38.07    2.59   1
  -1  13  -4    1.00    1.30   1
  -1  13  -3   85.38    4.62   1
  -1  13  -2   36.00    2.28   1
  -1  13  -1    4.49    1.10   1
  -1  13   0   26.42    1.44   1
  -1  13   1    5.20    0.91   1
  -1  13   2    2.10    2.00   1
  -1  13   3    4.41    2.52   1
  -1  13   4    9.00    2.28   1
  -1  13   5    7.90    2.30   1
  -1  13   6   50.41    3.55   1
  -1  13   7    0.71    1.92   1
  -1  13   8   23.72    3.41   1
  -1  13   9   21.90    3.93   1
  -1  13  10  133.40    8.32   1
  -1  13  11   17.81    4.81   1
  -1  13  12   27.46    4.93   1
  -1  13  13   14.52    3.51   1
  -1  13  14   -2.59    2.61   1
  -1  13  15   -1.21    4.82   1
  -1  13  16    0.20    5.03   1
  -1  13  17    1.49    4.29   1
  -1  14  -9   10.82    5.79   1
  -1  14  -8    9.42    4.79   1
  -1  14  -7    9.42    5.03   1
  -1  14  -6   -0.90    3.00   1
  -1  14  -5   30.58    4.53   1
  -1  14  -4    4.88    1.59   1
  -1  14  -3   28.94    2.58   1
  -1  14  -2   19.80    2.40   1
  -1  14  -1    7.62    1.21   1
  -1  14   0   47.89    2.63   1
  -1  14   1   63.52    5.58   1
  -1  14   2   27.98    3.28   1
  -1  14   3   -1.30    2.01   1
  -1  14   4    2.99    2.80   1
  -1  14   5   11.22    3.28   1
  -1  14   6    7.78    3.91   1
  -1  14   7    1.59    3.78   1
  -1  14   8   78.50    6.02   1
  -1  14   9   40.20    4.82   1
  -1  14  10   10.69    4.90   1
  -1  14  11   14.98    4.33   1
  -1  14  12   22.37    3.59   1
  -1  14  13   44.89    5.36   1
  -1  14  14   25.30    4.43   1
  -1  14  15   10.50    4.08   1
  -1  14  16    5.52    5.59   1
  -1  15  -8    5.29    3.82   1
  -1  15  -7   -4.41    5.42   1
  -1  15  -6   38.32    5.94   1
  -1  15  -5    1.39    5.10   1
  -1  15  -4   19.62    5.23   1
  -1  15  -3   24.21    2.36   1
  -1  15  -2    6.20    1.29   1
  -1  15  -1   17.39    1.50   1
  -1  15   0    0.90    1.10   1
  -1  15   1    6.50    2.91   1
  -1  15   2   28.94    3.55   1
  -1  15   3  116.64    8.21   1
  -1  15   4   10.30    4.30   1
  -1  15   5   10.37    3.48   1
  -1  15   6    1.49    4.07   1
  -1  15   7    1.30    2.90   1
  -1  15   8    7.62    3.92   1
  -1  15   9   99.60    7.78   1
  -1  15  10   14.21    4.67   1
  -1  15  11   13.32    5.62   1
  -1  15  12    8.82    3.92   1
  -1  15  13   27.04    4.89   1
  -1  15  14    8.88    3.70   1
  -1  15  15    4.08    4.61   1
  -1  16  -6   14.59    6.49   1
  -1  16  -5    8.01    5.21   1
  -1  16  -4   40.45    5.85   1
  -1  16  -3   38.69    5.85   1
  -1  16  -2    6.81    3.71   1
  -1  16  -1   20.70    2.37   1
  -1  16   0    1.59    2.49   1
  -1  16   1    5.90    3.99   1
  -1  16   2    5.71    3.11   1
  -1  16   3    2.31    3.01   1
  -1  16   4   14.98    4.41   1
  -1  16   5   52.56    5.80   1
  -1  16   6    5.62    3.22   1
  -1  16   7   29.38    5.31   1
  -1  16   8   -3.20    2.68   1
  -1  16   9   -5.20    4.29   1
  -1  16  10    5.38    3.71   1
  -1  16  11   71.40    6.93   1
  -1  16  12    6.10    4.99   1
  -1  16  13   35.28    6.42   1
  -1  16  14   11.42    6.29   1
  -1  17  -4   33.64    6.96   1
  -1  17  -3    3.69    4.80   1
  -1  17  -2    2.31    4.50   1
  -1  17  -1    0.90    4.01   1
  -1  17   0   34.46    4.93   1
  -1  17   1   35.05    6.04   1
  -1  17   2   23.72    4.19   1
  -1  17   3   10.69    3.92   1
  -1  17   4    3.80    4.72   1
  -1  17   5    3.39    3.09   1
  -1  17   6   21.44    5.46   1
  -1  17   7   23.23    4.92   1
  -1  17   8    1.80    4.98   1
  -1  17   9   44.09    5.18   1
  -1  17  10    6.20    5.38   1
  -1  17  11    9.18    5.70   1
  -1  17  12   -4.49    5.51   1
  -1  18  -1    9.12    6.28   1
  -1  18   0    4.49    4.28   1
  -1  18   1    1.59    5.97   1
  -1  18   2   14.90    4.71   1
  -1  18   3    2.59    5.60   1
  -1  18   5   11.97    3.60   1
  -1  18   8   -3.31    3.89   1
  -1  18   9    6.10    5.09   1
  -1  18  10   -1.80    6.19   1
   0 -19  -7    2.50    4.49   1
   0 -19  -6   12.11    7.10   1
   0 -19  -5   43.16    6.44   1
   0 -19  -4   -1.69    6.29   1
   0 -19  -3    4.71    4.82   1
   0 -18 -11   -1.99    5.98   1
   0 -18 -10   -2.10    5.71   1
   0 -18  -9   11.22    4.22   1
   0 -18  -6    3.20    3.19   1
   0 -18  -4    1.00    5.10   1
   0 -18  -3   19.27    4.57   1
   0 -18  -2    6.10    5.98   1
   0 -18  -1   75.34    7.81   1
   0 -18   0    8.41    5.80   1
   0 -18   1    8.53    5.02   1
   0 -18   2    5.29    5.70   1
   0 -17 -13   -1.10    5.61   1
   0 -17 -12   30.03    6.58   1
   0 -17 -11    7.08    5.37   1
   0 -17 -10   -4.20    3.40   1
   0 -17  -9    3.10    5.21   1
   0 -17  -8   43.56    5.15   1
   0 -17  -7   12.32    5.62   1
   0 -17  -6   26.42    5.24   1
   0 -17  -5   38.44    6.08   1
   0 -17  -4    4.88    3.71   1
   0 -17  -3    2.69    2.98   1
   0 -17  -2   -0.20    4.93   1
   0 -17  -1    8.58    3.52   1
   0 -17   0   -2.50    3.29   1
   0 -17   1   13.18    5.66   1
   0 -17   2    1.49    3.59   1
   0 -17   3   -0.40    5.28   1
   0 -17   4    3.31    6.41   1
   0 -16 -14    9.18    6.30   1
   0 -16 -13   11.70    5.61   1
   0 -16 -12   10.69    4.38   1
   0 -16 -11    3.31    3.31   1
   0 -16 -10   18.06    3.31   1
   0 -16  -9   10.37    2.90   1
   0 -16  -8   20.88    3.84   1
   0 -16  -7    3.69    3.11   1
   0 -16  -6   25.50    3.84   1
   0 -16  -5    4.88    3.49   1
   0 -16  -4   11.90    2.97   1
   0 -16  -3    3.10    2.39   1
   0 -16  -2    1.30    2.60   1
   0 -16  -1    5.52    4.79   1
   0 -16   0   31.92    4.86   1
   0 -16   1   -1.21    3.32   1
   0 -16   2   -0.40    4.59   1
   0 -16   3    5.20    5.79   1
   0 -16   4   10.30    4.11   1
   0 -16   5   68.23    7.76   1
   0 -16   6   -0.50    3.72   1
   0 -15 -16    2.10    3.92   1
   0 -15 -15   12.18    4.33   1
   0 -15 -14   28.94    4.41   1
   0 -15 -13    6.92    2.21   1
   0 -15 -12   33.18    3.11   1
   0 -15 -11    1.30    2.01   1
   0 -15 -10    2.89    3.50   1
   0 -15  -9   -0.10    3.44   1
   0 -15  -8    2.99    2.39   1
   0 -15  -7    2.31    3.01   1
   0 -15  -6    6.30    3.21   1
   0 -15  -5    6.81    2.30   1
   0 -15  -4   77.79    4.59   1
   0 -15  -3    9.30    2.93   1
   0 -15  -2   22.66    3.33   1
   0 -15  -1    0.30    2.51   1
   0 -15   0   -2.31    3.10   1
   0 -15   1    0.59    3.19   1
   0 -15   2   32.72    4.46   1
   0 -15   3   43.03    5.64   1
   0 -15   4   19.01    5.41   1
   0 -15   5   23.91    4.50   1
   0 -15   6   -1.21    4.03   1
   0 -15   8    5.52    4.32   1
   0 -14 -17  -10.11    5.60   1
   0 -14 -16    0.30    5.22   1
   0 -14 -15    1.39    2.90   1
   0 -14 -14    3.31    2.80   1
   0 -14 -13   25.20    2.61   1
   0 -14 -12   14.36    2.73   1
   0 -14 -11    1.30    2.10   1
   0 -14 -10   40.45    2.54   1
   0 -14  -9   58.98    4.15   1
   0 -14  -8    7.18    1.88   1
   0 -14  -7    8.70    1.89   1
   0 -14  -6   53.88    4.11   1
   0 -14  -5   17.39    2.84   1
   0 -14  -4   66.59    4.24   1
   0 -14  -3    3.10    2.60   1
   0 -14  -2   42.25    3.51   1
   0 -14  -1   28.73    3.43   1
   0 -14   0   -5.29    2.71   1
   0 -14   1    2.31    2.31   1
   0 -14   2   19.71    3.46   1
   0 -14   3    8.01    2.60   1
   0 -14   4   63.04    5.56   1
   0 -14   5   41.99    4.54   1
   0 -14   6    4.88    4.69   1
   0 -14   8   33.76    5.93   1
   0 -14   9   64.00    7.04   1
   0 -13 -17   27.56    6.82   1
   0 -13 -16   12.32    5.19   1
   0 -13 -15    9.18    2.73   1
   0 -13 -14    0.20    1.81   1
   0 -13 -13    7.08    1.92   1
   0 -13 -12   24.90    2.40   1
   0 -13 -11   24.70    2.29   1
   0 -13 -10   13.62    1.70   1
   0 -13  -9   95.84    3.92   1
   0 -13  -8    8.18    2.69   1
   0 -13  -7  167.70    6.22   1
   0 -13  -6    3.39    1.91   1
   0 -13  -5    0.79    2.19   1
   0 -13  -4    4.08    2.30   1
   0 -13  -3  223.20    9.56   1
   0 -13  -2   80.64    4.49   1
   0 -13  -1   27.67    2.95   1
   0 -13   0    1.39    1.79   1
   0 -13   1   22.28    2.27   1
   0 -13   2    4.58    2.31   1
   0 -13   3   -1.80    2.20   1
   0 -13   4   93.32    5.22   1
   0 -13   5   21.16    3.40   1
   0 -13   6    9.49    4.31   1
   0 -13   8    4.00    3.28   1
   0 -13   9    7.78    5.02   1
   0 -13  10    6.71    3.63   1
   0 -13  11   20.34    6.67   1
   0 -12 -18   -2.50    6.00   1
   0 -12 -17    1.59    3.68   1
   0 -12 -16    4.71    4.82   1
   0 -12 -15    2.31    2.22   1
   0 -12 -14   16.00    2.32   1
   0 -12 -13    4.49    2.08   1
   0 -12 -12   38.07    2.84   1
   0 -12 -11    0.40    1.89   1
   0 -12 -10   42.38    2.34   1
   0 -12  -9   14.36    1.67   1
   0 -12  -8    1.69    1.40   1
   0 -12  -7    2.99    1.90   1
   0 -12  -6   96.83    4.53   1
   0 -12  -5    2.10    1.60   1
   0 -12  -4   58.22    3.05   1
   0 -12  -3    1.90    2.01   1
   0 -12  -2   19.27    2.63   1
   0 -12  -1   -1.21    1.91   1
   0 -12   0  149.08    5.86   1
   0 -12   1   12.39    2.18   1
   0 -12   2  137.83    5.87   1
   0 -12   3   52.85    4.36   1
   0 -12   4   18.32    2.74   1
   0 -12   5   33.76    3.49   1
   0 -12   6    8.58    2.70   1
   0 -12   8   20.43    4.07   1
   0 -12   9   62.57    7.44   1
   0 -12  10   -2.69    3.61   1
   0 -12  11    2.89    5.58   1
   0 -12  12   26.83    5.18   1
   0 -11 -18   10.50    6.29   1
   0 -11 -17   24.70    4.77   1
   0 -11 -16   14.52    3.81   1
   0 -11 -15   17.14    2.48   1
   0 -11 -14    2.10    1.80   1
   0 -11 -13    1.80    1.80   1
   0 -11 -12    9.42    1.78   1
   0 -11 -11   51.12    2.86   1
   0 -11 -10    1.39    1.30   1
   0 -11  -9   30.80    1.78   1
   0 -11  -8   27.04    1.87   1
   0 -11  -7    7.51    1.32   1
   0 -11  -6   23.43    2.03   1
   0 -11  -5   45.16    2.55   1
   0 -11  -4    3.31    2.00   1
   0 -11  -3  117.51    3.90   1
   0 -11  -2  512.12   17.65   1
   0 -11  -1   37.95    2.46   1
   0 -11   0   99.60    4.59   1
   0 -11   1   60.84    3.28   1
   0 -11   2  160.02    6.07   1
   0 -11   3   11.09    3.93   1
   0 -11   4   72.25    3.74   1
   0 -11   5    4.49    2.20   1
   0 -11   6   25.30    3.22   1
   0 -11   7   22.94    6.04   1
   0 -11   8   19.89    4.19   1
   0 -11   9   17.39    4.34   1
   0 -11  10   17.81    5.32   1
   0 -11  11   36.36    5.19   1
   0 -11  12   12.89    5.67   1
   0 -10 -19   -7.08    5.69   1
   0 -10 -18    9.99    5.31   1
   0 -10 -17    4.08    3.47   1
   0 -10 -16   19.71    3.73   1
   0 -10 -15   75.34    4.51   1
   0 -10 -14    2.69    1.61   1
   0 -10 -13    1.10    1.91   1
   0 -10 -12    6.60    1.80   1
   0 -10 -11   23.72    1.75   1
   0 -10 -10    5.29    1.79   1
   0 -10  -9   44.89    2.01   1
   0 -10  -8   16.73    1.39   1
   0 -10  -7  575.52   14.87   1
   0 -10  -6    1.10    1.09   1
   0 -10  -5    1.39    1.39   1
   0 -10  -4  111.09    4.01   1
   0 -10  -3   -0.59    1.59   1
   0 -10  -2   64.64    2.89   1
   0 -10  -1    4.80    1.71   1
   0 -10   0  104.45    3.88   1
   0 -10   1    1.99    1.69   1
   0 -10   2    2.69    1.51   1
   0 -10   3    2.40    2.01   1
   0 -10   4    1.90    1.71   1
   0 -10   5   20.79    2.10   1
   0 -10   6   20.79    2.28   1
   0 -10   7    7.40    3.10   1
   0 -10   8    3.20    2.40   1
   0 -10   9   45.56    5.94   1
   0 -10  10    0.10    3.34   1
   0 -10  11   -0.50    4.61   1
   0 -10  12   14.52    4.80   1
   0 -10  13   44.09    6.77   1
   0 -10  14   -1.39    6.09   1
   0  -9 -19    0.71    5.12   1
   0  -9 -18   51.27    7.30   1
   0  -9 -17   -3.80    3.20   1
   0  -9 -16    6.40    2.99   1
   0  -9 -15   35.40    3.57   1
   0  -9 -14   33.64    3.94   1
   0  -9 -13  111.72    5.28   1
   0  -9 -12   14.98    1.93   1
   0  -9 -11  187.42    7.12   1
   0  -9 -10   13.62    1.40   1
   0  -9  -9  197.40    5.62   1
   0  -9  -8   32.72    1.83   1
   0  -9  -7  402.40   10.03   1
   0  -9  -6  120.34    3.95   1
   0  -9  -5  561.22   13.74   1
   0  -9  -4    8.58    1.82   1
   0  -9  -3   75.52    2.95   1
   0  -9  -2   22.28    1.60   1
   0  -9  -1   63.04    2.70   1
   0  -9   0  167.18    5.17   1
   0  -9   1   10.63    2.02   1
   0  -9   2   78.68    3.19   1
   0  -9   3  101.81    4.44   1
   0  -9   4  310.82    9.87   1
   0  -9   5    3.61    1.79   1
   0  -9   6   67.57    3.95   1
   0  -9   7    1.59    3.68   1
   0  -9   8   32.15    2.95   1
   0  -9   9   -1.90    2.29   1
   0  -9  10    3.61    3.91   1
   0  -9  11    1.00    3.00   1
   0  -9  12   52.13    7.22   1
   0  -9  13   14.59    5.20   1
   0  -9  14   35.28    5.58   1
   0  -8 -19   50.69    7.55   1
   0  -8 -18    9.49    5.30   1
   0  -8 -17    4.00    2.60   1
   0  -8 -16   55.35    4.76   1
   0  -8 -15  105.27    5.54   1
   0  -8 -14  162.82    6.64   1
   0  -8 -13   39.44    3.14   1
   0  -8 -12  223.50    9.57   1
   0  -8 -11   10.37    2.13   1
   0  -8 -10   33.41    1.97   1
   0  -8  -9  141.61    4.76   1
   0  -8  -8   16.48    1.38   1
   0  -8  -7 1249.62   30.40   1
   0  -8  -6  569.78   21.96   1
   0  -8  -5   18.40    1.29   1
   0  -8  -4  241.18    6.52   1
   0  -8  -3   90.63    3.05   1
   0  -8  -2   82.81    3.46   1
   0  -8  -1    5.02    1.12   1
   0  -8   0   48.44    2.64   1
   0  -8   1   56.85    2.56   1
   0  -8   2  315.06    9.59   1
   0  -8   3  227.41    7.84   1
   0  -8   4   -0.40    1.79   1
   0  -8   5    3.20    1.72   1
   0  -8   6  111.30    4.43   1
   0  -8   7    1.00    3.60   1
   0  -8   8    3.61    4.29   1
   0  -8   9   15.21    2.57   1
   0  -8  10   32.15    3.52   1
   0  -8  11   57.00    5.44   1
   0  -8  12   67.73    6.75   1
   0  -8  13   10.37    5.60   1
   0  -8  14   -3.61    4.60   1
   0  -8  15   11.90    4.07   1
   0  -7 -20   -3.31    3.71   1
   0  -7 -18   11.63    4.09   1
   0  -7 -17   19.27    3.51   1
   0  -7 -16    5.29    2.30   1
   0  -7 -15   20.79    3.37   1
   0  -7 -14   60.06    4.18   1
   0  -7 -13   34.46    3.40   1
   0  -7 -12    1.30    2.19   1
   0  -7 -11  505.35   18.88   1
   0  -7 -10  282.24    8.40   1
   0  -7  -9  366.72    9.96   1
   0  -7  -8   24.01    1.86   1
   0  -7  -7   24.80    1.69   1
   0  -7  -6   62.09    2.36   1
   0  -7  -5  469.59   12.57   1
   0  -7  -4  419.43   10.65   1
   0  -7  -3  109.20    3.34   1
   0  -7  -2   52.71    2.76   1
   0  -7  -1   52.56    2.18   1
   0  -7   0    5.38    1.11   1
   0  -7   1  329.42   10.89   1
   0  -7   2  846.81   25.03   1
   0  -7   3  151.54    4.92   1
   0  -7   4  146.17    4.59   1
   0  -7   5   65.77    3.24   1
   0  -7   6   15.29    3.60   1
   0  -7   7    3.61    2.32   1
   0  -7   8   53.00    3.49   1
   0  -7   9   -0.10    1.01   1
   0  -7  10   40.83    1.92   1
   0  -7  11    4.28    1.28   1
   0  -7  12    8.12    1.48   1
   0  -7  13   -1.39    1.39   1
   0  -7  14   60.53    6.22   1
   0  -7  15   15.92    5.27   1
   0  -7  16    9.12    4.53   1
   0  -6 -20    4.08    4.08   1
   0  -6 -19   14.21    4.83   1
   0  -6 -18   24.60    4.36   1
   0  -6 -17   14.82    3.31   1
   0  -6 -16  244.92   11.58   1
   0  -6 -15  192.93    9.17   1
   0  -6 -14  283.25   11.78   1
   0  -6 -13  267.98   11.13   1
   0  -6 -12   31.25    3.02   1
   0  -6 -11    9.30    1.83   1
   0  -6 -10   12.32    2.53   1
   0  -6  -9  309.06   10.20   1
   0  -6  -8  340.77    9.97   1
   0  -6  -7    3.20    1.50   1
   0  -6  -6  157.50    4.02   1
   0  -6  -5    1.30    0.59   1
   0  -6  -4   96.04    2.74   1
   0  -6  -3   32.26    1.14   1
   0  -6  -2   26.52    1.44   1
   0  -6  -1   17.89    1.52   1
   0  -6   0  109.41    3.35   1
   0  -6   1   62.88    2.38   1
   0  -6   2  156.50    5.00   1
   0  -6   3  287.98    8.15   1
   0  -6   4    4.20    1.68   1
   0  -6   5   87.98    3.19   1
   0  -6   6   36.24    2.05   1
   0  -6   7  441.42   16.39   1
   0  -6   8    9.80    1.19   1
   0  -6   9   56.70    2.26   1
   0  -6  10   13.18    1.31   1
   0  -6  11   98.60    3.97   1
   0  -6  12  201.07   10.78   1
   0  -6  13   -2.50    1.49   1
   0  -6  14   16.81    4.92   1
   0  -6  15   -3.88    4.29   1
   0  -6  16   48.72    7.26   1
   0  -6  17    1.10    4.20   1
   0  -5 -20   17.47    6.69   1
   0  -5 -19   -1.49    3.88   1
   0  -5 -18    6.50    3.42   1
   0  -5 -17   21.07    2.75   1
   0  -5 -16    1.80    2.09   1
   0  -5 -15    5.29    2.58   1
   0  -5 -14   47.33    3.03   1
   0  -5 -13   24.60    2.08   1
   0  -5 -12   24.90    2.20   1
   0  -5 -11    3.20    1.72   1
   0  -5 -10  204.49    6.86   1
   0  -5  -9    2.31    1.22   1
   0  -5  -8  125.44    4.93   1
   0  -5  -7   -0.90    1.31   1
   0  -5  -6  120.12    3.95   1
   0  -5  -5  360.62    9.12   1
   0  -5  -4   25.60    1.21   1
   0  -5  -3  478.73   11.38   1
   0  -5  -2    7.62    1.10   1
   0  -5  -1   47.61    1.93   1
   0  -5   0  310.46    9.87   1
   0  -5   1   24.40    1.48   1
   0  -5   2   49.14    2.10   1
   0  -5   3  297.56    8.62   1
   0  -5   4   80.64    2.69   1
   0  -5   5  645.67   24.90   1
   0  -5   6    1.80    1.10   1
   0  -5   7   88.17    2.82   1
   0  -5   8  147.14    4.12   1
   0  -5   9   12.53    1.27   1
   0  -5  10   88.17    3.19   1
   0  -5  11   59.14    2.46   1
   0  -5  12    0.50    1.11   1
   0  -5  13    3.31    1.49   1
   0  -5  14   97.22    5.13   1
   0  -5  15    1.10    2.20   1
   0  -5  16   33.76    6.62   1
   0  -5  17  -10.89    4.88   1
   0  -4 -20   23.23    5.49   1
   0  -4 -19   31.92    6.55   1
   0  -4 -18   -6.10    3.61   1
   0  -4 -17    0.50    2.31   1
   0  -4 -16  218.45   10.64   1
   0  -4 -15   -5.11    2.71   1
   0  -4 -14    2.50    3.29   1
   0  -4 -13    4.08    1.98   1
   0  -4 -12  246.18    9.10   1
   0  -4 -11   36.48    2.05   1
   0  -4 -10   22.28    2.93   1
   0  -4  -9   16.73    1.88   1
   0  -4  -8   57.76    2.74   1
   0  -4  -7    1.69    1.59   1
   0  -4  -6  103.23    3.25   1
   0  -4  -5   31.36    1.79   1
   0  -4  -4  172.66    8.41   1
   0  -4  -3 2667.72   75.41   1
   0  -4  -2  125.89    3.37   1
   0  -4  -1  850.89   28.00   1
   0  -4   0  205.35    8.31   1
   0  -4   1 1469.96   41.41   1
   0  -4   2   50.41    1.99   1
   0  -4   3  216.09    6.17   1
   0  -4   4   48.86    1.82   1
   0  -4   5   53.14    2.04   1
   0  -4   6  133.63    4.39   1
   0  -4   7    2.79    0.70   1
   0  -4   8   32.95    1.49   1
   0  -4   9  398.00   10.37   1
   0  -4  10  177.69    6.13   1
   0  -4  11   24.90    1.80   1
   0  -4  12  166.93    6.98   1
   0  -4  13    2.31    1.61   1
   0  -4  14   60.37    3.73   1
   0  -4  15   -0.40    1.69   1
   0  -4  16  117.29    6.71   1
   0  -4  18   10.82    6.19   1
   0  -3 -20   10.30    6.48   1
   0  -3 -19   19.54    4.86   1
   0  -3 -18   60.37    7.93   1
   0  -3 -17   77.97    6.71   1
   0  -3 -16   25.20    3.51   1
   0  -3 -15   96.24    5.69   1
   0  -3 -14  116.42    6.04   1
   0  -3 -13   16.56    2.12   1
   0  -3 -12  132.48    4.83   1
   0  -3 -11  108.58    4.17   1
   0  -3 -10    1.90    1.71   1
   0  -3  -9   13.18    1.52   1
   0  -3  -8   19.01    1.92   1
   0  -3  -7    0.40    1.40   1
   0  -3  -6  210.54    6.38   1
   0  -3  -5  107.74    3.53   1
   0  -3  -4   67.08    2.95   1
   0  -3  -3   98.01    3.76   1
   0  -3  -2  321.13    7.53   1
   0  -3  -1  634.54   19.14   1
   0  -3   0  254.08    7.33   1
   0  -3   1 1332.25   45.26   1
   0  -3   2  257.92    7.39   1
   0  -3   3  667.19   18.60   1
   0  -3   4  136.89    3.74   1
   0  -3   5  343.36    8.52   1
   0  -3   6   60.06    1.86   1
   0  -3   7  289.00    9.86   1
   0  -3   8    7.29    1.62   1
   0  -3   9   83.72    3.48   1
   0  -3  10    9.42    2.09   1
   0  -3  11  245.55    9.09   1
   0  -3  12   14.67    2.07   1
   0  -3  13  123.21    5.77   1
   0  -3  14   33.76    3.60   1
   0  -3  15   -0.50    2.81   1
   0  -3  16    9.00    3.30   1
   0  -3  17   25.60    4.35   1
   0  -3  18   35.76    5.74   1
   0  -2 -20   -1.21    4.42   1
   0  -2 -19   26.01    6.32   1
   0  -2 -18    2.10    3.10   1
   0  -2 -17   12.39    4.22   1
   0  -2 -16    8.58    2.58   1
   0  -2 -15   17.81    3.29   1
   0  -2 -14    2.19    1.89   1
   0  -2 -13   62.57    5.38   1
   0  -2 -12    2.99    2.39   1
   0  -2 -11    5.20    2.10   1
   0  -2 -10  686.44   19.91   1
   0  -2  -9  898.80   24.58   1
   0  -2  -8  100.00    4.80   1
   0  -2  -7  595.85   24.90   1
   0  -2  -6  277.56    8.66   1
   0  -2  -5  184.96    6.26   1
   0  -2  -4  365.57   10.32   1
   0  -2  -3  756.80   23.66   1
   0  -2  -1    0.20    0.31   1
   0  -2   1   11.09    0.93   1
   0  -2   2   97.02    3.15   1
   0  -2   3  325.08    8.29   1
   0  -2   4  156.50    5.50   1
   0  -2   5   58.37    2.60   1
   0  -2   6  874.38   27.80   1
   0  -2   7 1064.06   36.53   1
   0  -2   8  301.37    9.03   1
   0  -2   9  248.69    9.46   1
   0  -2  10   -1.90    1.71   1
   0  -2  11    8.41    2.32   1
   0  -2  12   10.82    2.63   1
   0  -2  13    1.80    2.09   1
   0  -2  14    0.30    3.72   1
   0  -2  15    5.52    3.81   1
   0  -2  16   25.91    5.50   1
   0  -2  17    6.92    3.79   1
   0  -2  18   10.82    4.47   1
   0  -1 -19    7.02    4.29   1
   0  -1 -18   -0.90    3.40   1
   0  -1 -17   30.25    5.94   1
   0  -1 -16    0.79    2.39   1
   0  -1 -15   58.06    4.72   1
   0  -1 -14   -0.10    1.62   1
   0  -1 -13   25.91    2.55   1
   0  -1 -12    0.00    1.00   1
   0  -1 -11  442.26   15.14   1
   0  -1 -10   69.72    2.84   1
   0  -1  -9   80.46    3.23   1
   0  -1  -8  487.08   15.01   1
   0  -1  -7    7.40    1.20   1
   0  -1  -6   22.18    3.67   1
   0  -1  -5  659.98   21.07   1
   0  -1  -4 1716.44   58.00   1
   0  -1  -3   38.56    1.49   1
   0  -1  -1   -0.10    0.20   1
   0  -1   0   -0.90    0.21   1
   0  -1   1   -0.20    0.10   1
   0  -1   2  217.56   35.99   1
   0  -1   3   93.32   21.25   1
   0  -1   4 2792.07  180.71   1
   0  -1   5  376.36   11.64   1
   0  -1   6   10.30    1.61   1
   0  -1   7  295.84   15.82   1
   0  -1   8   39.19    2.25   1
   0  -1   9  208.80    7.22   1
   0  -1  10  133.40    5.08   1
   0  -1  11  708.09   20.76   1
   0  -1  12   11.49    2.37   1
   0  -1  13  118.81    5.45   1
   0  -1  14    3.39    1.99   1
   0  -1  15    3.80    3.32   1
   0  -1  16   -0.10    4.35   1
   0  -1  17   27.25    5.53   1
   0  -1  18   21.53    5.85   1
   0  -1  19   -4.00    3.80   1
   0   0 -19    3.61    5.09   1
   0   0 -18    6.81    5.59   1
   0   0 -17   19.62    3.54   1
   0   0 -16    1.49    3.78   1
   0   0 -15  128.14    6.57   1
   0   0 -14   -1.10    1.91   1
   0   0 -13  330.88   18.92   1
   0   0 -12   21.81    2.52   1
   0   0 -11   59.91    3.10   1
   0   0 -10  106.71    4.13   1
   0   0  -9    0.40    2.39   1
   0   0  -8   11.97    1.31   1
   0   0  -7   81.36    3.25   1
   0   0  -6  108.99    3.55   1
   0   0  -5   27.04    1.35   1
   0   0  -4 3558.12  152.70   1
   0   0  -3   77.62   15.86   1
   0   0   1    0.59    0.29   1
   0   0   2   20.07    8.69   1
   0   0   3   82.08   16.31   1
   0   0   4 3502.27  149.13   1
   0   0   5   27.14    1.35   1
   0   0   6  116.86    3.89   1
   0   0   7   85.93    3.52   1
   0   0   8   13.69    1.48   1
   0   0   9   -0.10    2.23   1
   0   0  10  102.41    4.05   1
   0   0  11   56.70    3.01   1
   0   0  12   22.18    2.64   1
   0   0  13  324.36   11.17   1
   0   0  14    3.20    1.79   1
   0   0  15  134.56    9.74   1
   0   0  16   -0.79    3.99   1
   0   0  17   15.29    3.68   1
   0   0  18    9.92    5.23   1
   0   0  19    7.08    5.59   1
   0   1 -19    5.38    4.69   1
   0   1 -18   16.08    5.69   1
   0   1 -17   31.47    5.95   1
   0   1 -15    0.00    1.00   1
   0   1 -14    4.00    2.08   1
   0   1 -13  117.29    5.63   1
   0   1 -12    7.18    2.57   1
   0   1 -11  692.74   21.06   1
   0   1 -10  131.79    4.36   1
   0   1  -9  212.87    7.59   1
   0   1  -8   42.25    2.21   1
   0   1  -7  285.27    9.80   1
   0   1  -6    8.70    1.48   1
   0   1  -5  365.96   10.71   1
   0   1  -4 2851.56  107.87   1
   0   1  -3   89.68   15.72   1
   0   1  -2  337.82   37.13   1
   0   1  -1   -0.71    0.30   1
   0   1   0    0.30    0.30   1
   0   1   1   -0.20    0.20   1
   0   1   2   -0.20    0.40   1
   0   1   3   37.95    1.36   1
   0   1   4 1712.30   58.76   1
   0   1   5  654.85   21.50   1
   0   1   6   26.32    3.59   1
   0   1   7    9.42    1.23   1
   0   1   8  486.20   14.11   1
   0   1   9   88.92    3.58   1
   0   1  10   65.12    2.74   1
   0   1  11  454.97   14.93   1
   0   1  12    2.79    1.60   1
   0   1  13   18.58    2.41   1
   0   1  14    1.59    1.89   1
   0   1  15   58.37    5.35   1
   0   1  16    4.80    2.98   1
   0   1  17   33.76    4.88   1
   0   1  18    2.10    3.60   1
   0   1  19   -3.69    3.19   1
   0   2 -18    0.90    3.21   1
   0   2 -17    6.92    3.42   1
   0   2 -16   31.02    5.46   1
   0   2 -15   11.49    4.20   1
   0   2 -14   -4.28    3.68   1
   0   2 -13   -2.59    3.28   1
   0   2 -12    3.69    3.30   1
   0   2 -11    6.81    3.71   1
   0   2 -10    3.20    1.72   1
   0   2  -9  247.43    9.75   1
   0   2  -8  302.06    8.34   1
   0   2  -7 1042.64   40.04   1
   0   2  -6  853.22   37.39   1
   0   2  -5   60.84    3.43   1
   0   2  -4  149.82    5.63   1
   0   2  -3  313.29    9.56   1
   0   2  -2   97.02    2.76   1
   0   2  -1   10.18    0.51   1
   0   2   3  739.30   29.37   1
   0   2   4  375.58   11.63   1
   0   2   5  194.60    7.25   1
   0   2   6  279.22    8.69   1
   0   2   7  608.12   18.25   1
   0   2   8  108.16    4.58   1
   0   2   9  912.04   26.58   1
   0   2  10  671.33   26.95   1
   0   2  11   11.22    2.21   1
   0   2  12    0.20    2.21   1
   0   2  13   58.68    3.52   1
   0   2  14    2.59    2.00   1
   0   2  15   19.01    4.27   1
   0   2  16    4.08    2.59   1
   0   2  17    6.20    4.58   1
   0   2  18   -1.21    3.61   1
   0   2  19   30.58    6.64   1
   0   2  20    2.99    5.19   1
   0   3 -18   40.45    5.34   1
   0   3 -17   23.23    4.72   1
   0   3 -16    4.71    3.60   1
   0   3 -15   -1.39    3.09   1
   0   3 -14   31.25    3.24   1
   0   3 -13  130.42    6.40   1
   0   3 -12   16.40    2.27   1
   0   3 -11  247.43    9.12   1
   0   3 -10   14.21    2.41   1
   0   3  -9   81.72    3.44   1
   0   3  -8    7.51    1.70   1
   0   3  -7  283.25   11.11   1
   0   3  -6   60.37    2.18   1
   0   3  -5  351.94   11.63   1
   0   3  -4  137.12    4.45   1
   0   3  -3  677.04   23.94   1
   0   3  -2  255.68    6.72   1
   0   3  -1 1329.33   43.02   1
   0   3   0  249.96    6.96   1
   0   3   1  634.54   15.11   1
   0   3   2  337.09    9.18   1
   0   3   3  100.00    4.00   1
   0   3   4   66.59    3.43   1
   0   3   5  109.20    3.76   1
   0   3   6  216.68    6.77   1
   0   3   7    2.69    1.80   1
   0   3   8   17.47    1.67   1
   0   3   9   16.40    1.70   1
   0   3  10    2.69    1.51   1
   0   3  11  106.09    3.91   1
   0   3  12  123.88    5.34   1
   0   3  13   20.70    2.46   1
   0   3  14  116.21    5.61   1
   0   3  15  103.23    6.71   1
   0   3  17   77.09    6.15   1
   0   3  18   45.70    5.95   1
   0   3  19   13.32    3.87   1
   0   3  20   13.18    5.52   1
   0   4 -16  104.45   10.83   1
   0   4 -15    4.20    4.30   1
   0   4 -14   51.98    6.06   1
   0   4 -13    4.49    2.50   1
   0   4 -12  165.64    6.69   1
   0   4 -11   24.50    2.47   1
   0   4 -10  177.96    8.00   1
   0   4  -9  413.31   14.64   1
   0   4  -8   29.05    2.16   1
   0   4  -7    3.88    1.38   1
   0   4  -6  144.48    5.29   1
   0   4  -5   55.80    2.54   1
   0   4  -4   47.20    2.34   1
   0   4  -3  212.58    5.25   1
   0   4  -2   50.41    1.56   1
   0   4  -1 1482.25   43.12   1
   0   4   0  217.56    7.08   1
   0   4   1  861.42   22.31   1
   0   4   2  127.69    3.39   1
   0   4   3 2678.06  101.43   1
   0   4   4  193.49    9.74   1
   0   4   5   37.45    2.33   1
   0   4   6  102.62    3.44   1
   0   4   7    2.10    1.01   1
   0   4   8   62.73    2.69   1
   0   4   9   16.97    2.80   1
   0   4  10   18.49    2.24   1
   0   4  11   41.47    2.45   1
   0   4  12  263.74    9.74   1
   0   4  13   -2.19    1.81   1
   0   4  14    5.11    2.71   1
   0   4  15    1.99    3.19   1
   0   4  16  204.20   12.00   1
   0   4  17    3.80    3.32   1
   0   4  18   -0.50    3.21   1
   0   4  19   43.43    7.12   1
   0   4  20   21.16    5.61   1
   0   5 -17    4.00    5.80   1
   0   5 -16   49.56    7.32   1
   0   5 -15    0.79    5.07   1
   0   5 -14   89.11    7.36   1
   0   5 -13    3.31    2.22   1
   0   5 -12    0.00    1.00   1
   0   5 -11   56.85    3.47   1
   0   5 -10   93.32    4.64   1
   0   5  -9   12.53    2.19   1
   0   5  -8  148.35    5.12   1
   0   5  -7   92.16    3.26   1
   0   5  -6    0.40    1.10   1
   0   5  -5  667.71   23.26   1
   0   5  -4   76.04    2.27   1
   0   5  -3  281.23    7.04   1
   0   5  -2   48.44    1.67   1
   0   5  -1   25.50    1.82   1
   0   5   0  309.06    9.84   1
   0   5   1   50.27    1.56   1
   0   5   2    6.92    0.68   1
   0   5   3  485.76   14.11   1
   0   5   4   23.14    1.64   1
   0   5   5  364.81    9.93   1
   0   5   6  124.10    4.01   1
   0   5   7    1.59    1.29   1
   0   5   8  128.60    4.99   1
   0   5   9    0.10    1.22   1
   0   5  10  203.63    7.14   1
   0   5  11    4.28    1.61   1
   0   5  12   28.52    2.56   1
   0   5  13   24.50    2.57   1
   0   5  14   41.73    2.84   1
   0   5  15    4.49    3.01   1
   0   5  16   10.63    3.78   1
   0   5  17   21.34    3.70   1
   0   5  18   14.59    3.67   1
   0   5  19    6.30    4.22   1
   0   5  20   37.45    7.10   1
   0   6 -17    0.40    3.49   1
   0   6 -16   49.84    8.05   1
   0   6 -15   -7.67    4.99   1
   0   6 -14    8.53    4.61   1
   0   6 -13    5.71    2.82   1
   0   6 -12  186.32    8.46   1
   0   6 -11   98.60    5.36   1
   0   6 -10   10.63    2.22   1
   0   6  -9   50.13    3.26   1
   0   6  -8   11.49    2.51   1
   0   6  -7  436.81   20.48   1
   0   6  -6   38.19    2.47   1
   0   6  -5   90.63    3.24   1
   0   6  -4    3.39    0.88   1
   0   6  -3  286.96    6.78   1
   0   6  -2  151.29    4.18   1
   0   6  -1   60.06    2.63   1
   0   6   0  109.20    3.13   1
   0   6   1   13.40    0.88   1
   0   6   2   25.40    1.01   1
   0   6   3   34.22    1.75   1
   0   6   4   96.63    3.15   1
   0   6   5    0.50    0.91   1
   0   6   6  154.75    4.48   1
   0   6   7   -1.21    1.30   1
   0   6   8  333.43    9.50   1
   0   6   9  314.00   10.63   1
   0   6  10    8.82    2.08   1
   0   6  11    9.92    1.70   1
   0   6  12   30.25    2.75   1
   0   6  13  266.67    9.80   1
   0   6  14  282.24   11.09   1
   0   6  15  196.00   11.20   1
   0   6  16  257.28   16.04   1
   0   6  17   11.90    3.38   1
   0   6  18   19.18    4.12   1
   0   6  19   13.18    3.78   1
   0   6  20    5.71    4.92   1
   0   7 -16   -2.19    3.79   1
   0   7 -15   26.52    5.56   1
   0   7 -14   60.53    7.47   1
   0   7 -13    2.31    3.10   1
   0   7 -12   12.89    3.30   1
   0   7 -11    4.58    2.40   1
   0   7 -10   45.02    3.36   1
   0   7  -9    0.30    2.01   1
   0   7  -8   57.30    3.94   1
   0   7  -7    5.71    2.29   1
   0   7  -6   21.62    2.42   1
   0   7  -5   60.68    3.12   1
   0   7  -4  145.20    4.10   1
   0   7  -3  151.04    4.18   1
   0   7  -2  827.71   21.87   1
   0   7  -1  321.84   11.48   1
   0   7   0    3.50    1.01   1
   0   7   1   50.27    1.56   1
   0   7   2   56.55    2.11   1
   0   7   3  110.88    2.95   1
   0   7   4  425.60   11.97   1
   0   7   5  453.69   14.48   1
   0   7   6   62.25    3.31   1
   0   7   7   22.47    1.61   1
   0   7   8   24.40    1.78   1
   0   7   9  364.43   10.31   1
   0   7  10  279.89    8.70   1
   0   7  11  531.30   17.98   1
   0   7  12    1.39    2.29   1
   0   7  13   33.99    3.03   1
   0   7  14   55.50    3.58   1
   0   7  15   24.80    4.48   1
   0   7  16    2.40    2.79   1
   0   7  17   23.33    3.96   1
   0   7  18    9.49    3.20   1
   0   7  19    1.30    5.20   1
   0   7  20    3.80    4.21   1
   0   8 -15    6.50    3.72   1
   0   8 -14    3.10    4.68   1
   0   8 -13    6.30    4.62   1
   0   8 -12   68.23    5.62   1
   0   8 -11   43.56    5.68   1
   0   8 -10   36.24    3.37   1
   0   8  -9   14.90    2.32   1
   0   8  -8    5.81    2.31   1
   0   8  -7   -1.10    1.91   1
   0   8  -6  113.64    4.90   1
   0   8  -5    1.59    1.59   1
   0   8  -4    1.00    1.00   1
   0   8  -3  232.87    7.02   1
   0   8  -2  315.77    8.53   1
   0   8  -1   59.75    2.94   1
   0   8   0   50.27    2.84   1
   0   8   1    5.62    0.81   1
   0   8   2   79.21    2.67   1
   0   8   3   95.26    2.54   1
   0   8   4  246.18    9.10   1
   0   8   5   17.89    1.69   1
   0   8   6  575.52   26.39   1
   0   8   7 1227.10   33.63   1
   0   8   8   16.97    1.73   1
   0   8   9  139.48    4.96   1
   0   8  10   35.52    2.38   1
   0   8  11   11.97    1.87   1
   0   8  12  221.12    8.03   1
   0   8  13   41.73    3.10   1
   0   8  14  137.12    9.84   1
   0   8  15  115.78    7.75   1
   0   8  16   55.80    5.23   1
   0   8  17   -2.79    2.81   1
   0   8  18   13.69    4.66   1
   0   8  19   58.22    7.63   1
   0   9 -14   37.70    5.16   1
   0   9 -13    6.50    6.68   1
   0   9 -12   47.75    7.19   1
   0   9 -11    0.71    2.91   1
   0   9 -10   -0.20    3.92   1
   0   9  -9    0.30    1.90   1
   0   9  -8   24.70    2.78   1
   0   9  -7    1.10    1.91   1
   0   9  -6   55.20    3.42   1
   0   9  -5    2.79    1.00   1
   0   9  -4  302.76    7.66   1
   0   9  -3   95.45    3.13   1
   0   9  -2   69.72    2.34   1
   0   9  -1    9.49    1.79   1
   0   9   0  164.10    5.12   1
   0   9   1   60.22    2.02   1
   0   9   2   23.04    1.25   1
   0   9   3   75.52    2.09   1
   0   9   4    9.00    1.62   1
   0   9   5  568.82   16.22   1
   0   9   6  117.29    4.98   1
   0   9   7  407.64   11.71   1
   0   9   8   35.76    2.63   1
   0   9   9  200.79    7.37   1
   0   9  10    8.70    1.83   1
   0   9  11  194.04    8.64   1
   0   9  12   13.47    2.57   1
   0   9  13   95.65    4.89   1
   0   9  14   23.33    4.06   1
   0   9  15   24.60    3.67   1
   0   9  16    9.42    4.11   1
   0   9  17    3.10    4.08   1
   0   9  18   68.23    7.27   1
   0   9  19   -4.20    5.21   1
   0  10 -14   -6.30    5.52   1
   0  10 -13   32.15    5.56   1
   0  10 -12   13.76    3.71   1
   0  10 -11    6.20    4.48   1
   0  10 -10   -1.00    2.80   1
   0  10  -9   48.72    4.75   1
   0  10  -8    7.18    3.59   1
   0  10  -7    3.50    1.80   1
   0  10  -6   22.47    2.09   1
   0  10  -5   23.81    1.46   1
   0  10  -4    1.30    1.00   1
   0  10  -3    2.69    1.08   1
   0  10  -2    0.00    1.00   1
   0  10  -1    5.02    2.02   1
   0  10   0  102.62    4.05   1
   0  10   1    3.61    1.52   1
   0  10   2   65.77    2.27   1
   0  10   3    0.00    1.00   1
   0  10   4  107.54    4.36   1
   0  10   5    3.88    1.38   1
   0  10   6    0.40    1.59   1
   0  10   7  586.61   16.47   1
   0  10   8    9.80    1.88   1
   0  10   9   49.70    2.96   1
   0  10  10    5.52    2.49   1
   0  10  11   26.42    2.36   1
   0  10  12    2.89    2.11   1
   0  10  13    5.62    3.32   1
   0  10  14   -2.40    3.81   1
   0  10  15   78.32    5.66   1
   0  10  16    8.12    3.99   1
   0  10  17   10.82    3.68   1
   0  10  18   15.13    5.84   1
   0  10  19   -2.40    5.21   1
   0  11 -13    3.31    6.22   1
   0  11 -12   -2.40    4.99   1
   0  11 -11   40.83    6.01   1
   0  11 -10   16.73    4.99   1
   0  11  -9   22.09    3.38   1
   0  11  -8   16.48    3.33   1
   0  11  -7   18.23    4.78   1
   0  11  -6   22.28    3.40   1
   0  11  -5    2.19    1.10   1
   0  11  -4   71.40    2.87   1
   0  11  -3    6.60    1.39   1
   0  11  -2  157.00    4.76   1
   0  11  -1   63.20    3.18   1
   0  11   0   92.35    4.42   1
   0  11   1   35.28    1.66   1
   0  11   2  494.62   12.90   1
   0  11   3  124.32    3.57   1
   0  11   4    5.11    1.90   1
   0  11   5   45.56    2.70   1
   0  11   6   21.53    2.41   1
   0  11   7    4.58    2.18   1
   0  11   8   26.32    2.36   1
   0  11   9   36.72    2.91   1
   0  11  10   -1.10    1.81   1
   0  11  11   55.20    3.86   1
   0  11  12    8.18    2.40   1
   0  11  13   -0.50    2.22   1
   0  11  14    6.00    2.89   1
   0  11  15   18.32    3.00   1
   0  11  16   13.40    4.61   1
   0  11  17   18.92    4.44   1
   0  11  18   24.11    6.68   1
   0  12 -12   32.60    5.02   1
   0  12 -11   -1.69    4.99   1
   0  12 -10    0.10    3.34   1
   0  12  -9   40.83    6.13   1
   0  12  -8   26.11    4.39   1
   0  12  -7   -0.59    3.88   1
   0  12  -6    5.81    4.19   1
   0  12  -5   43.30    3.16   1
   0  12  -4   10.69    1.37   1
   0  12  -3   47.75    3.04   1
   0  12  -2  132.48    4.60   1
   0  12  -1    7.78    1.51   1
   0  12   0  145.93    4.59   1
   0  12   1    0.59    0.89   1
   0  12   2   20.34    1.44   1
   0  12   3    2.50    1.01   1
   0  12   4   55.35    2.83   1
   0  12   5   -3.50    1.68   1
   0  12   6   89.87    4.55   1
   0  12   7    4.20    1.89   1
   0  12   8   -0.20    2.02   1
   0  12   9   18.58    2.59   1
   0  12  10   43.82    2.78   1
   0  12  11    4.20    3.40   1
   0  12  12   40.70    4.85   1
   0  12  13    5.29    2.81   1
   0  12  14   13.40    2.93   1
   0  12  15    8.18    2.80   1
   0  12  16   -3.31    4.51   1
   0  12  17    5.90    3.89   1
   0  12  18    5.62    5.50   1
   0  13 -11   29.48    6.84   1
   0  13 -10   -1.69    3.90   1
   0  13  -9    8.70    5.02   1
   0  13  -8   -1.99    3.10   1
   0  13  -6   13.62    4.28   1
   0  13  -5   19.18    2.01   1
   0  13  -4   85.19    4.80   1
   0  13  -3    2.69    1.61   1
   0  13  -2    1.99    1.49   1
   0  13  -1   22.47    1.90   1
   0  13   0    5.62    1.42   1
   0  13   1   18.40    1.29   1
   0  13   2   84.82    2.95   1
   0  13   3  225.60    9.91   1
   0  13   4   10.11    2.48   1
   0  13   5   -2.50    2.50   1
   0  13   6    3.80    1.91   1
   0  13   7  168.74    7.01   1
   0  13   8   14.67    2.91   1
   0  13   9  105.27    7.39   1
   0  13  10   13.76    2.67   1
   0  13  11   24.11    4.62   1
   0  13  12   26.63    4.44   1
   0  13  13    3.69    2.50   1
   0  13  14    6.10    2.72   1
   0  13  15    5.02    2.91   1
   0  13  16   16.48    5.60   1
   0  13  17   28.73    7.72   1
   0  14  -9   56.55    7.37   1
   0  14  -8   29.05    5.07   1
   0  14  -7   10.89    5.02   1
   0  14  -6   -1.21    4.82   1
   0  14  -5   41.73    2.84   1
   0  14  -4   66.75    3.43   1
   0  14  -3    2.89    1.90   1
   0  14  -2   19.71    2.31   1
   0  14  -1    3.31    1.20   1
   0  14   0    0.90    1.41   1
   0  14   1   29.48    2.06   1
   0  14   2   42.12    2.34   1
   0  14   3    7.40    2.72   1
   0  14   4   70.73    6.39   1
   0  14   5   16.40    4.13   1
   0  14   6   50.27    4.96   1
   0  14   7    2.59    2.70   1
   0  14   8    4.41    2.81   1
   0  14   9   66.91    6.54   1
   0  14  10   46.24    5.03   1
   0  14  11    2.89    3.81   1
   0  14  12   16.81    4.10   1
   0  14  13   23.62    4.28   1
   0  14  14    1.49    2.78   1
   0  14  15    4.00    3.20   1
   0  14  16   -2.99    5.61   1
   0  14  17   -0.10    5.47   1
   0  15  -8    6.60    4.01   1
   0  15  -7   48.44    7.93   1
   0  15  -6    2.69    3.38   1
   0  15  -5   23.33    4.64   1
   0  15  -4   13.91    4.48   1
   0  15  -3   41.34    3.34   1
   0  15  -2   26.21    2.46   1
   0  15  -1    1.49    1.29   1
   0  15   0   -1.00    1.20   1
   0  15   1    1.39    1.39   1
   0  15   2   19.10    1.92   1
   0  15   3   11.83    4.33   1
   0  15   4   88.55    6.21   1
   0  15   5    4.71    2.60   1
   0  15   6    4.80    3.81   1
   0  15   7    2.79    3.71   1
   0  15   8    5.38    2.41   1
   0  15   9   -3.39    4.20   1
   0  15  10   -1.39    3.89   1
   0  15  11    3.88    3.90   1
   0  15  12   28.94    4.73   1
   0  15  13    9.61    2.98   1
   0  15  14   18.92    3.57   1
   0  15  15   -1.49    3.68   1
   0  15  16   -2.10    3.60   1
   0  16  -6    2.69    4.49   1
   0  16  -5   73.27    9.42   1
   0  16  -4   10.50    3.89   1
   0  16  -2   -1.00    1.20   1
   0  16  -1   -1.10    1.20   1
   0  16   0   27.67    1.89   1
   0  16   1    0.40    1.40   1
   0  16   2    2.59    4.19   1
   0  16   3    1.10    2.90   1
   0  16   4    5.20    3.19   1
   0  16   5   15.52    4.57   1
   0  16   6   20.52    4.80   1
   0  16   7    7.29    3.29   1
   0  16   8   25.10    4.81   1
   0  16   9    4.20    4.02   1
   0  16  10   11.70    4.38   1
   0  16  11    2.10    3.02   1
   0  16  12   10.18    3.57   1
   0  16  13   17.39    4.92   1
   0  16  14    6.30    5.92   1
   0  17  -4    7.18    5.79   1
   0  17  -3    5.71    5.40   1
   0  17  -2   -2.10    3.51   1
   0  17  -1    1.00    4.60   1
   0  17   0    0.90    2.30   1
   0  17   1   -0.40    2.29   1
   0  17   2   -1.10    4.81   1
   0  17   3    1.59    3.38   1
   0  17   4    4.41    3.19   1
   0  17   5   29.38   16.91   1
   0  17   6   32.72   12.47   1
   0  17   7   -2.10    4.41   1
   0  17   8   45.83    5.15   1
   0  17   9    3.10    4.68   1
   0  17  10   -1.49    3.68   1
   0  17  11   10.37    5.22   1
   0  17  12   36.72    7.39   1
   0  17  13   10.89    5.68   1
   0  18  -2    8.41    6.73   1
   0  18  -1    7.78    3.79   1
   0  18   0    4.49    5.60   1
   0  18   1   70.06    6.53   1
   0  18   2   14.29    5.37   1
   0  18   3   30.03    4.71   1
   0  18   4    6.30    4.62   1
   0  18   6   -7.51    3.29   1
   0  18   7   10.50    5.77   1
   0  18   8    5.38    5.01   1
   0  18   9   -0.59    3.77   1
   0  18  10    4.71    5.82   1
   0  18  11    5.81    6.03   1
   0  19   3    2.59    4.19   1
   0  19   4    5.20    6.89   1
   0  19   5   47.75    6.22   1
   0  19   6   -0.71    5.83   1
   0  19   7    1.10    4.20   1
   1 -18 -10  -11.70    6.29   1
   1 -18  -9   -1.49    5.98   1
   1 -18  -8    4.58    4.41   1
   1 -18  -5    8.82    4.22   1
   1 -18  -3   17.89    5.84   1
   1 -18  -2   24.80    4.58   1
   1 -18  -1    1.10    5.82   1
   1 -18   0    1.49    4.07   1
   1 -18   1    1.69    6.47   1
   1 -17 -12   -5.90    6.12   1
   1 -17 -11    5.71    5.40   1
   1 -17 -10   -5.71    5.59   1
   1 -17  -9   43.56    6.47   1
   1 -17  -8    4.00    4.80   1
   1 -17  -7   16.97    4.61   1
   1 -17  -6   20.07    5.91   1
   1 -17  -5    1.21    3.41   1
   1 -17  -4    4.88    4.91   1
   1 -17  -3   16.40    5.51   1
   1 -17  -2   18.23    4.53   1
   1 -17  -1   31.81    6.32   1
   1 -17   0   24.90    5.39   1
   1 -17   1   10.63    3.59   1
   1 -17   2   19.01    5.49   1
   1 -17   3    6.20    5.78   1
   1 -17   4   35.05    7.22   1
   1 -16 -14   16.89    6.66   1
   1 -16 -13   29.05    6.90   1
   1 -16 -12    5.71    5.93   1
   1 -16 -11   69.72    8.35   1
   1 -16 -10    5.52    4.79   1
   1 -16  -9   -3.39    4.89   1
   1 -16  -8    3.80    2.81   1
   1 -16  -7   29.70    5.56   1
   1 -16  -6    2.50    3.29   1
   1 -16  -5   48.86    6.85   1
   1 -16  -4   13.62    4.87   1
   1 -16  -3   -3.10    3.31   1
   1 -16  -2    2.10    3.19   1
   1 -16  -1    1.69    3.98   1
   1 -16   0   14.90    4.40   1
   1 -16   1   18.23    4.53   1
   1 -16   2    9.30    3.60   1
   1 -16   3   16.32    5.74   1
   1 -16   4   48.16    6.80   1
   1 -16   5    5.11    5.92   1
   1 -16   6   12.53    6.23   1
   1 -15 -15    9.18    4.18   1
   1 -15 -14   16.73    4.42   1
   1 -15 -13   14.59    4.28   1
   1 -15 -12    3.88    3.98   1
   1 -15 -11    7.90    2.70   1
   1 -15 -10    5.62    5.40   1
   1 -15  -9   95.06    6.05   1
   1 -15  -8   -0.30    2.41   1
   1 -15  -7    1.10    2.10   1
   1 -15  -6    6.81    2.82   1
   1 -15  -5   15.21    2.96   1
   1 -15  -4    8.01    2.89   1
   1 -15  -3  116.42    5.61   1
   1 -15  -2   26.11    2.76   1
   1 -15  -1    5.62    2.61   1
   1 -15   0    2.40    4.80   1
   1 -15   1   28.20    4.89   1
   1 -15   2   -8.82    4.51   1
   1 -15   3   35.28    5.35   1
   1 -15   4   11.02    4.71   1
   1 -15   5   -2.19    5.00   1
   1 -15   6   23.23    5.40   1
   1 -15   7   -9.80    6.32   1
   1 -14 -16    9.12    6.10   1
   1 -14 -15   10.30    4.30   1
   1 -14 -14   15.68    3.09   1
   1 -14 -13   36.97    3.65   1
   1 -14 -12   10.89    2.51   1
   1 -14 -11   12.32    2.18   1
   1 -14 -10    8.82    2.08   1
   1 -14  -9   31.81    4.17   1
   1 -14  -8   83.17    4.74   1
   1 -14  -7    7.18    2.68   1
   1 -14  -6    3.88    2.29   1
   1 -14  -5    8.12    2.22   1
   1 -14  -4    0.50    2.00   1
   1 -14  -3   -0.90    1.80   1
   1 -14  -2   23.72    2.63   1
   1 -14  -1   61.78    4.24   1
   1 -14   0   51.27    3.72   1
   1 -14   1    5.29    2.58   1
   1 -14   2   20.79    4.92   1
   1 -14   3   27.14    5.52   1
   1 -14   4    1.49    4.49   1
   1 -14   5   40.45    5.09   1
   1 -14   6    4.49    3.31   1
   1 -14   7   10.37    5.86   1
   1 -14   9   -1.21    6.23   1
   1 -13 -17   -3.88    3.70   1
   1 -13 -16    4.88    5.08   1
   1 -13 -15   -1.00    2.90   1
   1 -13 -14    3.80    3.78   1
   1 -13 -13    9.61    2.11   1
   1 -13 -12   21.90    2.53   1
   1 -13 -11   16.16    2.09   1
   1 -13 -10  135.49    4.89   1
   1 -13  -9    9.92    1.58   1
   1 -13  -8   22.47    1.71   1
   1 -13  -7    4.58    2.31   1
   1 -13  -6   49.00    3.50   1
   1 -13  -5    7.62    2.21   1
   1 -13  -4   17.22    2.49   1
   1 -13  -3   -2.99    2.39   1
   1 -13  -2    1.39    2.01   1
   1 -13  -1   10.63    2.41   1
   1 -13   0   25.91    2.95   1
   1 -13   1    4.88    2.21   1
   1 -13   2   33.87    3.72   1
   1 -13   3   89.68    4.74   1
   1 -13   4    5.81    3.33   1
   1 -13   5   33.76    4.30   1
   1 -13   6    6.00    4.61   1
   1 -13   7   40.70    5.74   1
   1 -13   9    6.40    4.91   1
   1 -13  10    8.88    5.72   1
   1 -12 -18   -6.40    5.82   1
   1 -12 -17   60.37    6.53   1
   1 -12 -16   13.03    5.70   1
   1 -12 -15    3.39    2.69   1
   1 -12 -14   10.30    2.89   1
   1 -12 -13   -2.69    1.90   1
   1 -12 -12    2.10    2.09   1
   1 -12 -11   14.29    1.97   1
   1 -12 -10    1.99    1.49   1
   1 -12  -9    1.49    1.49   1
   1 -12  -8    7.62    1.49   1
   1 -12  -7    2.19    1.10   1
   1 -12  -6    2.40    1.89   1
   1 -12  -5   13.47    2.28   1
   1 -12  -4   93.70    4.65   1
   1 -12  -3    6.40    3.29   1
   1 -12  -2   38.94    4.49   1
   1 -12  -1  118.59    8.49   1
   1 -12   0   14.82    2.23   1
   1 -12   1   39.06    3.25   1
   1 -12   2   48.02    3.74   1
   1 -12   3   60.84    3.74   1
   1 -12   4   -1.39    2.29   1
   1 -12   5   25.81    3.15   1
   1 -12   6   -2.40    4.00   1
   1 -12   7   18.58    4.57   1
   1 -12   9    5.02    5.60   1
   1 -12  10    1.10    3.40   1
   1 -12  12   12.82    4.51   1
   1 -11 -18   12.11    4.73   1
   1 -11 -17   -1.59    5.29   1
   1 -11 -16    5.38    5.20   1
   1 -11 -15   -2.19    2.60   1
   1 -11 -14    6.71    2.18   1
   1 -11 -13   -0.50    1.51   1
   1 -11 -12    1.30    1.50   1
   1 -11 -11   77.44    3.34   1
   1 -11 -10  171.87    5.77   1
   1 -11  -9   60.68    2.96   1
   1 -11  -8    8.01    1.41   1
   1 -11  -7   27.25    1.67   1
   1 -11  -6  261.47    7.44   1
   1 -11  -5   27.25    2.82   1
   1 -11  -4    9.67    1.99   1
   1 -11  -3   51.55    3.45   1
   1 -11  -2  161.04    5.84   1
   1 -11  -1    2.50    1.71   1
   1 -11   0  184.42    7.88   1
   1 -11   1   12.89    2.80   1
   1 -11   2    4.08    2.18   1
   1 -11   3  192.10    8.04   1
   1 -11   4   16.00    2.72   1
   1 -11   5    5.11    2.31   1
   1 -11   6   -1.49    2.98   1
   1 -11   7   41.22    4.37   1
   1 -11   9   56.40    6.16   1
   1 -11  10   21.62    5.77   1
   1 -11  11   10.82    3.88   1
   1 -11  12    1.30    5.79   1
   1 -11  13   32.49    5.81   1
   1 -10 -19   -3.88    6.38   1
   1 -10 -18   -0.40    3.78   1
   1 -10 -17   35.64    5.85   1
   1 -10 -16    6.00    4.61   1
   1 -10 -15    4.00    2.72   1
   1 -10 -14   26.73    3.10   1
   1 -10 -13   97.02    4.53   1
   1 -10 -12   43.96    2.65   1
   1 -10 -11   82.81    3.46   1
   1 -10 -10  291.38    9.56   1
   1 -10  -9   15.21    1.40   1
   1 -10  -8  227.41    6.94   1
   1 -10  -7    2.31    1.00   1
   1 -10  -6    1.59    0.91   1
   1 -10  -5    1.21    1.72   1
   1 -10  -4    4.71    1.69   1
   1 -10  -3  110.25    4.20   1
   1 -10  -2    9.12    1.99   1
   1 -10  -1    0.59    1.39   1
   1 -10   0    8.18    2.17   1
   1 -10   1  201.92    6.82   1
   1 -10   2  208.80    8.38   1
   1 -10   3  214.62    9.08   1
   1 -10   4  131.79    5.51   1
   1 -10   5  107.74    6.02   1
   1 -10   6   16.08    2.97   1
   1 -10   7   22.09    2.91   1
   1 -10   9    2.59    2.70   1
   1 -10  10   -2.69    2.69   1
   1 -10  11   34.46    5.87   1
   1 -10  12   -1.99    3.19   1
   1 -10  14    6.71    6.32   1
   1  -9 -19    0.10    4.04   1
   1  -9 -18   -0.10    3.24   1
   1  -9 -17   -0.50    5.23   1
   1  -9 -16   -0.59    4.37   1
   1  -9 -15   16.73    3.44   1
   1  -9 -14    0.10    1.82   1
   1  -9 -13   34.93    2.95   1
   1  -9 -12   72.59    3.92   1
   1  -9 -11   73.96    3.78   1
   1  -9 -10   33.18    2.42   1
   1  -9  -9    2.10    1.10   1
   1  -9  -8   40.70    1.91   1
   1  -9  -7   20.61    1.27   1
   1  -9  -6   66.26    2.28   1
   1  -9  -5   -1.00    0.80   1
   1  -9  -4   36.36    2.17   1
   1  -9  -3   21.07    1.56   1
   1  -9  -2  205.35    6.02   1
   1  -9  -1  149.08    4.64   1
   1  -9   0  526.70   15.61   1
   1  -9   1  173.71    6.33   1
   1  -9   2  130.42    5.94   1
   1  -9   3  100.00    4.60   1
   1  -9   4  105.27    4.51   1
   1  -9   5   23.04    2.40   1
   1  -9   6  111.94    5.50   1
   1  -9   7   30.14    2.85   1
   1  -9   8    1.99    2.09   1
   1  -9   9   16.32    3.07   1
   1  -9  10    6.20    4.38   1
   1  -9  11    4.41    3.11   1
   1  -9  12    2.59    3.99   1
   1  -9  13   48.16    5.83   1
   1  -9  14   -1.30    3.40   1
   1  -8 -19    3.88    3.90   1
   1  -8 -18    1.49    5.08   1
   1  -8 -17   -1.30    5.29   1
   1  -8 -16   34.93    3.66   1
   1  -8 -15   47.06    3.57   1
   1  -8 -14   10.11    2.99   1
   1  -8 -13  317.91   16.05   1
   1  -8 -12   76.21    3.84   1
   1  -8 -11   58.68    3.06   1
   1  -8 -10  205.06    8.59   1
   1  -8  -9  159.26    5.30   1
   1  -8  -8    9.61    1.49   1
   1  -8  -7   46.24    2.04   1
   1  -8  -6   99.40    3.19   1
   1  -8  -5  212.28    6.12   1
   1  -8  -4  308.35    7.73   1
   1  -8  -3   88.17    3.19   1
   1  -8  -2  936.97   28.77   1
   1  -8  -1   14.36    1.59   1
   1  -8   0  670.81   17.61   1
   1  -8   1   -0.50    1.31   1
   1  -8   2  654.85   19.45   1
   1  -8   3   13.47    1.76   1
   1  -8   4   26.94    2.18   1
   1  -8   5   37.70    2.70   1
   1  -8   6   18.92    2.44   1
   1  -8   7   56.85    4.07   1
   1  -8   8   17.14    2.40   1
   1  -8   9    4.58    2.10   1
   1  -8  10    1.21    2.51   1
   1  -8  11   49.42    5.34   1
   1  -8  12   19.71    3.82   1
   1  -8  13    2.19    4.50   1
   1  -8  14    9.00    3.90   1
   1  -8  15   80.46    8.97   1
   1  -7 -19   21.44    6.20   1
   1  -7 -18   19.36    5.81   1
   1  -7 -17    5.38   22.64   1
   1  -7 -16   11.63    3.21   1
   1  -7 -15   19.71    2.49   1
   1  -7 -14   76.91    4.91   1
   1  -7 -13    9.67    2.30   1
   1  -7 -12   10.63    2.93   1
   1  -7 -11  154.01    8.44   1
   1  -7 -10  102.41    4.45   1
   1  -7  -9  113.85    3.84   1
   1  -7  -8   11.63    1.57   1
   1  -7  -7   64.96    2.74   1
   1  -7  -6 1053.65   33.11   1
   1  -7  -5   11.02    1.13   1
   1  -7  -4 1106.89   30.61   1
   1  -7  -3  164.35    4.10   1
   1  -7  -2  604.67   15.74   1
   1  -7  -1   17.89    1.52   1
   1  -7   0   50.84    2.71   1
   1  -7   1   52.85    2.47   1
   1  -7   2  227.10    6.33   1
   1  -7   3  222.90    6.87   1
   1  -7   4  113.00    4.04   1
   1  -7   5    0.90    1.50   1
   1  -7   6   79.39    3.56   1
   1  -7   7    1.80    2.30   1
   1  -7   8   -0.40    1.50   1
   1  -7   9   35.64    2.75   1
   1  -7  10    5.29    3.59   1
   1  -7  11   -0.59    3.68   1
   1  -7  12    8.01    3.00   1
   1  -7  13   22.18    4.24   1
   1  -7  14   35.05    5.56   1
   1  -7  15   13.91    4.77   1
   1  -7  16    2.59    4.51   1
   1  -6 -19   24.21    6.30   1
   1  -6 -18    2.40    5.61   1
   1  -6 -17    6.30    4.42   1
   1  -6 -16   20.34    3.07   1
   1  -6 -15   17.47    2.76   1
   1  -6 -14    3.69    1.88   1
   1  -6 -13    2.69    2.59   1
   1  -6 -12   33.29    2.42   1
   1  -6 -11  539.17   17.18   1
   1  -6 -10  220.82    6.84   1
   1  -6  -9   73.44    3.77   1
   1  -6  -8   41.22    2.70   1
   1  -6  -7  315.06    8.88   1
   1  -6  -6   23.81    2.73   1
   1  -6  -5  200.51    5.66   1
   1  -6  -4  127.46    4.06   1
   1  -6  -3  116.86    3.24   1
   1  -6  -2   26.52    1.75   1
   1  -6  -1  205.64    5.74   1
   1  -6   0   42.12    1.95   1
   1  -6   1  242.74    7.17   1
   1  -6   2  269.62    7.55   1
   1  -6   3  319.69    8.94   1
   1  -6   4  561.69   14.69   1
   1  -6   5   77.62    3.70   1
   1  -6   6  138.77    4.71   1
   1  -6   7  116.86    4.54   1
   1  -6   8   20.07    2.24   1
   1  -6   9    1.80    0.70   1
   1  -6  10  194.88    6.14   1
   1  -6  11   20.79    1.37   1
   1  -6  12    0.10    4.15   1
   1  -6  13    5.90    1.22   1
   1  -6  14    9.00    1.62   1
   1  -6  15   12.11    4.87   1
   1  -6  16    7.29    3.89   1
   1  -6  17   25.50    5.86   1
   1  -5 -20    1.39    4.30   1
   1  -5 -19    4.71    4.12   1
   1  -5 -18   41.34    6.82   1
   1  -5 -17    0.40    3.98   1
   1  -5 -16   67.40    4.43   1
   1  -5 -15   26.21    3.38   1
   1  -5 -14    6.10    1.98   1
   1  -5 -13    1.59    1.99   1
   1  -5 -12    2.50    1.90   1
   1  -5 -11   65.45    2.91   1
   1  -5 -10  242.11    7.47   1
   1  -5  -9  466.13   12.95   1
   1  -5  -8  115.99    7.97   1
   1  -5  -7   36.24    2.05   1
   1  -5  -6  145.44    6.75   1
   1  -5  -5   53.58    2.64   1
   1  -5  -4   82.99    5.10   1
   1  -5  -3   90.25    2.47   1
   1  -5  -2   23.81    0.88   1
   1  -5  -1   37.95    2.34   1
   1  -5   0  219.04    9.18   1
   1  -5   1   30.69    1.66   1
   1  -5   2   98.01    4.95   1
   1  -5   3  188.51    5.49   1
   1  -5   4  505.35   13.49   1
   1  -5   5  317.20    8.90   1
   1  -5   6   -1.21    1.50   1
   1  -5   7   18.32    0.94   1
   1  -5   8  324.00    9.72   1
   1  -5   9    0.40    0.79   1
   1  -5  10   56.10    2.70   1
   1  -5  11   70.39    3.36   1
   1  -5  12    3.61    1.10   1
   1  -5  13   11.70    1.57   1
   1  -5  14    2.10    1.39   1
   1  -5  15   17.98    2.37   1
   1  -5  16    2.99    3.70   1
   1  -5  17   11.49    3.73   1
   1  -4 -20   45.29    8.35   1
   1  -4 -19    5.62    3.89   1
   1  -4 -18    3.80    3.39   1
   1  -4 -17   55.80    6.57   1
   1  -4 -16   24.50    3.76   1
   1  -4 -15   33.76    4.07   1
   1  -4 -14   75.17    4.16   1
   1  -4 -13   15.21    2.96   1
   1  -4 -12   26.94    2.49   1
   1  -4 -11  102.62    5.67   1
   1  -4 -10  342.99   10.37   1
   1  -4  -9    0.00    1.00   1
   1  -4  -8   -1.00    1.20   1
   1  -4  -7   57.15    2.27   1
   1  -4  -6   95.45    3.32   1
   1  -4  -5   30.58    1.66   1
   1  -4  -4   72.42    2.38   1
   1  -4  -3   -2.79    1.70   1
   1  -4  -2   24.01    1.27   1
   1  -4  -1 3867.60  106.97   1
   1  -4   0  645.16   21.34   1
   1  -4   1  789.05   22.47   1
   1  -4   2  316.48    9.96   1
   1  -4   3  812.82   23.38   1
   1  -4   4  356.83   10.58   1
   1  -4   5   55.95    1.80   1
   1  -4   6   37.95    1.48   1
   1  -4   7   54.32    2.21   1
   1  -4   8    2.69    0.79   1
   1  -4   9   55.95    2.54   1
   1  -4  10    3.88    0.99   1
   1  -4  11  163.07    6.64   1
   1  -4  12   20.88    1.55   1
   1  -4  13   49.14    2.94   1
   1  -4  14  124.77    5.14   1
   1  -4  15   10.63    1.89   1
   1  -4  16   19.10    2.18   1
   1  -4  17    0.59    3.57   1
   1  -4  18   19.36    5.28   1
   1  -3 -19   23.81    5.56   1
   1  -3 -18   55.95    6.28   1
   1  -3 -17   -1.69    2.99   1
   1  -3 -16   93.70    6.00   1
   1  -3 -15   46.24    4.35   1
   1  -3 -14   55.50    3.87   1
   1  -3 -13   53.00    4.80   1
   1  -3 -12  432.22   14.97   1
   1  -3 -11   60.06    3.25   1
   1  -3 -10    6.10    1.48   1
   1  -3  -9    8.88    1.49   1
   1  -3  -8  179.02    5.08   1
   1  -3  -7   -0.40    1.00   1
   1  -3  -6  115.99    3.66   1
   1  -3  -5   95.06    3.12   1
   1  -3  -4  162.82    5.87   1
   1  -3  -3 1575.30   42.87   1
   1  -3  -2  544.29   18.66   1
   1  -3  -1  728.46   18.89   1
   1  -3   0   11.49    1.08   1
   1  -3   1   49.70    1.69   1
   1  -3   2   10.30    1.28   1
   1  -3   3   34.46    1.41   1
   1  -3   4  142.80    3.59   1
   1  -3   5    9.99    0.82   1
   1  -3   6    8.01    1.70   1
   1  -3   7   73.96    3.44   1
   1  -3   8  432.64   12.06   1
   1  -3   9   33.52    2.55   1
   1  -3  10  239.63    8.36   1
   1  -3  11   33.76    3.25   1
   1  -3  12  113.64    4.90   1
   1  -3  13    7.08    2.29   1
   1  -3  14   76.56    5.95   1
   1  -3  15    4.20    2.71   1
   1  -3  16   19.36    4.14   1
   1  -3  17   31.47    4.15   1
   1  -3  18    2.10    4.09   1
   1  -2 -19   -2.31    3.50   1
   1  -2 -18    7.40    4.68   1
   1  -2 -17   34.46    3.87   1
   1  -2 -16   50.41    4.12   1
   1  -2 -15   97.42    5.92   1
   1  -2 -14    4.71    1.82   1
   1  -2 -13    3.61    2.01   1
   1  -2 -12    7.67    2.22   1
   1  -2 -11    0.50    1.80   1
   1  -2 -10   14.29    1.89   1
   1  -2  -9   30.47    2.10   1
   1  -2  -8    1.10    1.51   1
   1  -2  -7  121.00    3.96   1
   1  -2  -6   94.67    3.70   1
   1  -2  -5   29.38    2.06   1
   1  -2  -4    2.69    0.79   1
   1  -2  -3  703.84   21.75   1
   1  -2  -2  285.61    9.13   1
   1  -2  -1 1426.57   67.99   1
   1  -2   0   12.32    1.12   1
   1  -2   1  200.79    6.23   1
   1  -2   2   25.20    1.31   1
   1  -2   3  269.62    7.55   1
   1  -2   4   12.53    0.99   1
   1  -2   5    5.02    0.99   1
   1  -2   6  160.53    5.57   1
   1  -2   7    2.89    1.60   1
   1  -2   8  409.66   12.14   1
   1  -2   9  548.03   16.39   1
   1  -2  10    0.40    1.50   1
   1  -2  11  198.25    7.04   1
   1  -2  12  150.31    6.13   1
   1  -2  13    4.28    2.48   1
   1  -2  14   26.94    4.46   1
   1  -2  15   48.86    5.31   1
   1  -2  16    7.29    4.32   1
   1  -2  17   11.09    4.40   1
   1  -2  18   17.14    4.22   1
   1  -1 -19   19.01    6.28   1
   1  -1 -18   42.38    5.60   1
   1  -1 -17   -3.10    4.51   1
   1  -1 -16   11.63    3.27   1
   1  -1 -15   16.40    3.08   1
   1  -1 -14  124.10    6.91   1
   1  -1 -13   54.32    5.16   1
   1  -1 -12  231.04    8.82   1
   1  -1 -11    8.88    1.79   1
   1  -1 -10  277.56   12.33   1
   1  -1  -9   73.44    3.26   1
   1  -1  -8   61.00    2.97   1
   1  -1  -7    1.59    1.08   1
   1  -1  -6   34.11    2.10   1
   1  -1  -5  258.24    8.03   1
   1  -1  -4  476.11   24.87   1
   1  -1  -3    9.00    0.90   1
   1  -1  -2  163.07    8.94   1
   1  -1   0   -0.30    0.20   1
   1  -1   1   -0.50    0.30   1
   1  -1   2   25.91    1.43   1
   1  -1   3  404.01   12.46   1
   1  -1   4  140.19    5.68   1
   1  -1   5  119.68    5.69   1
   1  -1   6   22.37    1.42   1
   1  -1   7  637.56   20.70   1
   1  -1   8   19.36    1.41   1
   1  -1   9  472.19   14.78   1
   1  -1  10  196.28    7.01   1
   1  -1  11   86.68    5.77   1
   1  -1  12  108.37    4.79   1
   1  -1  13   47.06    3.70   1
   1  -1  14   29.81    3.28   1
   1  -1  15   10.82    2.83   1
   1  -1  16    7.18    3.11   1
   1  -1  17  -10.18    4.72   1
   1  -1  18    3.39    4.78   1
   1  -1  19   -7.02    5.83   1
   1   0 -19   18.40    4.80   1
   1   0 -18   -0.10    4.65   1
   1   0 -17   14.59    4.20   1
   1   0 -16   25.30    5.43   1
   1   0 -15    0.40    2.78   1
   1   0 -14    3.31    2.11   1
   1   0 -13    5.11    2.31   1
   1   0 -12   36.97    2.80   1
   1   0 -11    0.10    2.23   1
   1   0 -10   66.59    4.90   1
   1   0  -9   67.24    3.12   1
   1   0  -8   -1.30    1.00   1
   1   0  -7  277.56   11.00   1
   1   0  -6  180.90    6.46   1
   1   0  -5  249.64    8.22   1
   1   0  -4  908.42   31.35   1
   1   0  -3   21.34    1.02   1
   1   0  -2   30.69    2.99   1
   1   0  -1   -0.10    0.20   1
   1   0   1   -0.20    0.10   1
   1   0   3  266.67    8.82   1
   1   0   4 2220.29   73.51   1
   1   0   5  796.93   27.67   1
   1   0   6  804.86   23.83   1
   1   0   7  285.95   13.87   1
   1   0   8  216.97    7.07   1
   1   0   9  299.64   10.39   1
   1   0  10   13.03    1.80   1
   1   0  11  183.60    6.78   1
   1   0  12  152.03    6.16   1
   1   0  13    0.90    1.60   1
   1   0  14    1.10    1.99   1
   1   0  15   11.97    4.08   1
   1   0  16    5.62    4.12   1
   1   0  17   26.21    4.20   1
   1   0  18   27.88    4.65   1
   1   0  19    9.67    5.72   1
   1   1 -19    7.90    4.10   1
   1   1 -18   56.55    6.92   1
   1   1 -17    5.52    5.59   1
   1   1 -15   -4.20    2.50   1
   1   1 -14    4.00    2.20   1
   1   1 -13    2.50    2.69   1
   1   1 -12   63.20    3.50   1
   1   1 -11   49.14    2.66   1
   1   1 -10    9.80    2.32   1
   1   1  -9   12.67    1.92   1
   1   1  -8  132.71    7.60   1
   1   1  -7  538.70   14.85   1
   1   1  -6   19.18    2.72   1
   1   1  -5  453.69   16.61   1
   1   1  -4  231.95    7.61   1
   1   1  -3  114.49    4.07   1
   1   1  -2  182.52    7.84   1
   1   1  -1   -0.20    0.31   1
   1   1   0   -0.79    0.30   1
   1   1   1    0.00    1.00   1
   1   1   2   -0.59    0.29   1
   1   1   3 1220.10   44.71   1
   1   1   4  154.01    5.96   1
   1   1   5  325.80    9.75   1
   1   1   6   10.30    1.09   1
   1   1   7  595.36   19.03   1
   1   1   8    1.10    1.41   1
   1   1   9    3.39    1.40   1
   1   1  10  349.69   15.33   1
   1   1  11    4.20    1.52   1
   1   1  12    0.00    1.00   1
   1   1  13  136.89    5.62   1
   1   1  14    3.39    1.91   1
   1   1  15    9.61    4.03   1
   1   1  16   94.87    7.60   1
   1   1  17    3.39    2.80   1
   1   1  18   -1.30    4.40   1
   1   1  19   -3.61    3.31   1
   1   2 -18    4.08    4.48   1
   1   2 -17   26.42    4.83   1
   1   2 -16    4.88    4.29   1
   1   2 -15   -3.39    4.08   1
   1   2 -14    1.59    2.19   1
   1   2 -13  150.80    6.39   1
   1   2 -12   12.11    1.88   1
   1   2 -11   46.92    3.01   1
   1   2 -10  303.80   10.11   1
   1   2  -9   20.43    1.90   1
   1   2  -8 1031.69   30.19   1
   1   2  -7   16.81    1.89   1
   1   2  -6    2.99    1.21   1
   1   2  -5 1085.70   32.95   1
   1   2  -4  229.83   15.16   1
   1   2  -3 1597.60   72.75   1
   1   2  -2  576.96   17.29   1
   1   2  -1  841.58   42.93   1
   1   2   1   29.59    3.05   1
   1   2   2  335.62   17.95   1
   1   2   3    7.18    0.80   1
   1   2   4  174.50    6.87   1
   1   2   5  587.58   17.94   1
   1   2   6    3.61    0.99   1
   1   2   7   10.37    1.09   1
   1   2   8   44.36    2.00   1
   1   2   9  396.41   13.14   1
   1   2  10   90.25    3.42   1
   1   2  11    8.18    1.60   1
   1   2  12    9.00    1.98   1
   1   2  13    4.71    1.91   1
   1   2  14    1.21    1.72   1
   1   2  15   33.41    4.86   1
   1   2  16   23.43    3.97   1
   1   2  17   -2.50    4.30   1
   1   2  18   66.10    7.15   1
   1   2  19   10.82    5.40   1
   1   2  20    7.29    5.08   1
   1   3 -18    1.21    5.92   1
   1   3 -17    1.30    3.90   1
   1   3 -16    3.10    3.10   1
   1   3 -15   92.74    8.28   1
   1   3 -14   30.69    3.21   1
   1   3 -13   52.27    3.76   1
   1   3 -12  193.49    9.74   1
   1   3 -11   84.09    4.95   1
   1   3 -10   20.70    3.00   1
   1   3  -9   50.69    2.99   1
   1   3  -8  294.47   15.44   1
   1   3  -7   18.58    2.41   1
   1   3  -6  140.90    5.93   1
   1   3  -5  494.17   17.78   1
   1   3  -4   17.72    3.28   1
   1   3  -3 2461.15   99.22   1
   1   3  -1   87.80    2.25   1
   1   3   0  713.42   23.50   1
   1   3   1   16.73    0.57   1
   1   3   2  106.92    2.90   1
   1   3   3  549.90   25.80   1
   1   3   4   11.09    0.80   1
   1   3   5   61.15    3.75   1
   1   3   6   34.46    1.64   1
   1   3   7  928.42   29.86   1
   1   3   8   58.37    2.60   1
   1   3   9  677.04   22.38   1
   1   3  10    5.38    1.30   1
   1   3  11    3.10    1.51   1
   1   3  12  183.06    6.76   1
   1   3  13   92.35    4.42   1
   1   3  14   -1.59    2.39   1
   1   3  15   19.62    3.81   1
   1   3  16    9.30    2.62   1
   1   3  17    7.02    4.61   1
   1   3  18   14.06   15.00   1
   1   3  19   -3.50    3.22   1
   1   3  20   27.35    6.28   1
   1   4 -18    4.41    6.09   1
   1   4 -17   41.86    7.38   1
   1   4 -16    6.30    4.82   1
   1   4 -15    5.62    4.60   1
   1   4 -14    5.11    4.02   1
   1   4 -13   92.35    5.38   1
   1   4 -12   47.06    3.84   1
   1   4 -11   66.75    4.74   1
   1   4 -10   50.84    2.99   1
   1   4  -9  371.33   11.95   1
   1   4  -8   -0.79    1.69   1
   1   4  -7  344.84   11.51   1
   1   4  -6  572.17   16.74   1
   1   4  -5   49.42    2.53   1
   1   4  -4 2320.35   74.18   1
   1   4  -3  118.81    3.49   1
   1   4  -2  181.17    4.85   1
   1   4   0  105.68    3.70   1
   1   4   1 1136.36   33.04   1
   1   4   2  172.13    4.72   1
   1   4   3 4406.30  199.14   1
   1   4   4   40.20    1.65   1
   1   4   5 2387.30   73.29   1
   1   4   6   81.18    4.87   1
   1   4   7  194.32    5.58   1
   1   4   8   65.93    3.57   1
   1   4   9    1.30    1.21   1
   1   4  10   54.46    2.80   1
   1   4  11   32.60    2.17   1
   1   4  12   -1.59    1.39   1
   1   4  13   34.93    2.95   1
   1   4  14    1.59    2.29   1
   1   4  15   86.12    5.94   1
   1   4  16   -0.71    2.50   1
   1   4  17    9.30    3.29   1
   1   4  18    3.50   13.69   1
   1   4  19    1.10    3.91   1
   1   5 -17    6.92    5.52   1
   1   5 -16   -3.10    5.10   1
   1   5 -15   65.45    8.09   1
   1   5 -14   10.37    4.70   1
   1   5 -13   44.09    5.44   1
   1   5 -12   -0.59    2.28   1
   1   5 -11  264.39   10.41   1
   1   5 -10    1.59    1.79   1
   1   5  -9  400.00   14.40   1
   1   5  -8  171.09    6.28   1
   1   5  -7    7.51    1.70   1
   1   5  -6  141.37    5.23   1
   1   5  -5  332.70   10.58   1
   1   5  -4  262.44    6.48   1
   1   5  -3   31.92    1.36   1
   1   5  -2   10.50    0.78   1
   1   5  -1   29.05    0.97   1
   1   5   0  159.01    5.04   1
   1   5   1   14.36    1.29   1
   1   5   2   34.69    1.06   1
   1   5   3   98.01    2.57   1
   1   5   4 2781.51   93.88   1
   1   5   5  188.51    5.49   1
   1   5   6  886.25   32.15   1
   1   5   7 1134.34   28.96   1
   1   5   8  331.24    8.74   1
   1   5   9   17.89    1.69   1
   1   5  10  219.34    9.48   1
   1   5  11  128.82    4.99   1
   1   5  12    0.00    1.00   1
   1   5  13   12.11    2.30   1
   1   5  14    9.80    2.38   1
   1   5  15    4.49    2.50   1
   1   5  16   16.81    3.20   1
   1   5  17   53.58    5.42   1
   1   5  18   15.60    4.98   1
   1   5  19   84.27    7.53   1
   1   5  20    8.53    4.03   1
   1   6 -16   89.30   11.34   1
   1   6 -15   43.56    7.26   1
   1   6 -14   34.93    5.56   1
   1   6 -13   37.09    5.97   1
   1   6 -12   25.30    3.32   1
   1   6 -11    7.02    2.28   1
   1   6 -10   58.37    3.51   1
   1   6  -9   24.40    2.37   1
   1   6  -8    9.00    2.10   1
   1   6  -7   79.74    4.11   1
   1   6  -6    4.00    1.80   1
   1   6  -5   20.34    1.98   1
   1   6  -4  356.45   10.95   1
   1   6  -3 1433.38   33.32   1
   1   6  -2   10.30    1.09   1
   1   6  -1  500.42   11.19   1
   1   6   0  592.44   18.50   1
   1   6   1  795.24   23.69   1
   1   6   2   78.85    2.13   1
   1   6   3  308.70    8.78   1
   1   6   4    8.41    1.39   1
   1   6   5   38.94    2.00   1
   1   6   6  208.80    6.65   1
   1   6   7  312.94    9.91   1
   1   6   8   94.67    3.31   1
   1   6   9   -0.30    1.10   1
   1   6  10   39.44    2.64   1
   1   6  11    4.00    1.40   1
   1   6  12  194.60    6.42   1
   1   6  13    8.12    2.11   1
   1   6  14   15.37    2.43   1
   1   6  15    5.90    3.30   1
   1   6  16    0.00    1.00   1
   1   6  17   24.90    4.39   1
   1   6  18   29.59    5.55   1
   1   6  19   20.88    5.67   1
   1   6  20    0.71    5.73   1
   1   7 -16   -3.31    4.62   1
   1   7 -15    9.80    5.32   1
   1   7 -14    8.12    5.98   1
   1   7 -13    4.58    4.41   1
   1   7 -12    1.59    3.00   1
   1   7 -11    3.31    2.69   1
   1   7 -10    1.69    1.79   1
   1   7  -9   54.17    3.83   1
   1   7  -8  161.54    6.36   1
   1   7  -7   -1.59    2.09   1
   1   7  -6   18.92    2.09   1
   1   7  -5  276.89    7.99   1
   1   7  -4  154.01    3.97   1
   1   7  -3  261.47    7.11   1
   1   7  -2  846.23   20.36   1
   1   7  -1    7.40    1.09   1
   1   7   0  106.30    3.09   1
   1   7   1   84.27    2.94   1
   1   7   2   22.28    1.23   1
   1   7   3   11.83    0.83   1
   1   7   4   82.63    2.36   1
   1   7   5   16.16    1.29   1
   1   7   6  301.02    8.68   1
   1   7   7   98.21    3.77   1
   1   7   8  221.12    8.92   1
   1   7   9    9.42    1.72   1
   1   7  10  502.21   23.31   1
   1   7  11   17.98    2.29   1
   1   7  12   14.67    2.30   1
   1   7  13  113.64    4.90   1
   1   7  14   84.09    4.22   1
   1   7  15   47.47    3.86   1
   1   7  16   92.16    7.68   1
   1   7  17   45.70    5.68   1
   1   7  18   -1.80    4.40   1
   1   7  19   67.73    7.41   1
   1   7  20   14.59    6.57   1
   1   8 -15    1.59    3.88   1
   1   8 -14   41.86    7.12   1
   1   8 -13   61.15    7.19   1
   1   8 -12    2.40    3.10   1
   1   8 -11   45.56    5.13   1
   1   8 -10   26.83    3.11   1
   1   8  -9   12.60    2.20   1
   1   8  -8   27.77    2.53   1
   1   8  -7  265.04    9.44   1
   1   8  -6   27.25    2.40   1
   1   8  -5   40.83    1.92   1
   1   8  -4   95.26    4.68   1
   1   8  -3   86.30    2.97   1
   1   8  -2   -0.59    1.00   1
   1   8  -1  161.29    4.32   1
   1   8   0  114.70    3.64   1
   1   8   1  100.60    3.41   1
   1   8   2    5.02    0.72   1
   1   8   3  104.04    2.65   1
   1   8   4  310.46    8.11   1
   1   8   5   28.94    1.83   1
   1   8   6 1110.22   29.99   1
   1   8   7   19.54    1.68   1
   1   8   8  223.80    8.08   1
   1   8   9   46.51    2.86   1
   1   8  10  145.93    5.80   1
   1   8  11    1.69    1.90   1
   1   8  12  318.27   12.13   1
   1   8  13    2.59    2.61   1
   1   8  14   52.13    3.47   1
   1   8  15   81.18    5.59   1
   1   8  16   32.38    5.01   1
   1   8  17   16.08    4.97   1
   1   8  19   79.74    7.32   1
   1   8  20   -2.50    3.98   1
   1   9 -14   47.47    6.75   1
   1   9 -13    8.12    5.53   1
   1   9 -12   30.58    4.87   1
   1   9 -11    5.90    3.30   1
   1   9 -10    2.19    3.58   1
   1   9  -9   42.64    4.05   1
   1   9  -8    7.40    2.39   1
   1   9  -7   -0.71    2.10   1
   1   9  -6    3.69    1.80   1
   1   9  -5  194.88    6.98   1
   1   9  -4    4.00    1.20   1
   1   9  -3   25.70    1.93   1
   1   9  -2   -0.79    1.80   1
   1   9  -1   46.24    2.45   1
   1   9   0   -0.20    1.61   1
   1   9   1  348.57   11.58   1
   1   9   2    1.00    0.90   1
   1   9   3   84.64    2.58   1
   1   9   4    0.00    1.00   1
   1   9   5   86.49    3.35   1
   1   9   6   54.02    2.35   1
   1   9   7   10.50    1.81   1
   1   9   8  633.53   22.15   1
   1   9   9    3.50    1.80   1
   1   9  10  205.92    8.32   1
   1   9  11   20.61    3.72   1
   1   9  12  191.82    7.20   1
   1   9  13   32.38    2.85   1
   1   9  14  239.32   14.23   1
   1   9  15    1.21    3.72   1
   1   9  16  120.56    9.00   1
   1   9  17    7.08    4.10   1
   1   9  18    6.00    3.48   1
   1   9  19   -3.20    3.62   1
   1  10 -14   12.53    5.81   1
   1  10 -13   -0.79    3.38   1
   1  10 -12    5.11    3.48   1
   1  10 -11   61.00    6.40   1
   1  10 -10    7.62    2.70   1
   1  10  -9   10.11    4.01   1
   1  10  -8   -1.49    2.59   1
   1  10  -7   24.60    2.88   1
   1  10  -6    3.20    2.61   1
   1  10  -5   21.53    1.58   1
   1  10  -4  189.61    5.51   1
   1  10  -3  252.17    7.30   1
   1  10  -2  271.59    7.25   1
   1  10  -1  384.16   11.76   1
   1  10   0  443.10   14.73   1
   1  10   1   71.06    2.53   1
   1  10   2   22.00    1.69   1
   1  10   3  191.27    4.98   1
   1  10   4  114.06    3.63   1
   1  10   5   14.82    2.23   1
   1  10   6  118.59    4.14   1
   1  10   7   15.13    1.71   1
   1  10   8    8.88    2.03   1
   1  10   9  417.38   15.12   1
   1  10  10   74.65    3.97   1
   1  10  11  420.25   14.35   1
   1  10  12  188.24    8.78   1
   1  10  13   50.98    3.86   1
   1  10  14    2.10    3.60   1
   1  10  15    6.81    3.60   1
   1  10  16   74.65    5.53   1
   1  10  17    9.80    4.51   1
   1  10  18    7.40    4.19   1
   1  10  19    1.49    3.98   1
   1  11 -13   -0.71    5.63   1
   1  11 -12   39.56    6.67   1
   1  11 -11    5.29    3.50   1
   1  11 -10    7.67    4.60   1
   1  11  -9    1.90    3.09   1
   1  11  -8   60.68    5.45   1
   1  11  -7    8.58    3.98   1
   1  11  -6  152.03    6.90   1
   1  11  -5    1.39    1.20   1
   1  11  -4   29.81    1.97   1
   1  11  -3   79.39    2.85   1
   1  11  -2   59.91    2.63   1
   1  11  -1   34.57    2.12   1
   1  11   0    2.99    1.70   1
   1  11   1  482.24   13.18   1
   1  11   2   83.17    2.55   1
   1  11   3    4.88    1.02   1
   1  11   4   42.25    2.60   1
   1  11   5  294.12    9.95   1
   1  11   6   28.84    2.15   1
   1  11   7  268.96   10.50   1
   1  11   8   24.70    2.39   1
   1  11   9    4.08    1.78   1
   1  11  10   11.49    1.90   1
   1  11  11  203.06    7.98   1
   1  11  12    9.80    1.82   1
   1  11  13   28.94    4.09   1
   1  11  14   -0.90    3.71   1
   1  11  15    5.20    3.01   1
   1  11  16   -0.40    3.88   1
   1  11  17    9.00    4.20   1
   1  11  18    4.00    3.00   1
   1  11  19    7.18    4.29   1
   1  12 -12   -3.61    3.80   1
   1  12 -11    5.11    5.11   1
   1  12 -10   32.60    5.25   1
   1  12  -9    1.39    4.30   1
   1  12  -8   29.59    4.79   1
   1  12  -7    6.30    4.12   1
   1  12  -6  189.89   10.20   1
   1  12  -5   23.43    2.03   1
   1  12  -4   39.19    2.25   1
   1  12  -3    1.21    1.30   1
   1  12  -2   35.16    2.02   1
   1  12  -1    3.88    1.38   1
   1  12   0   63.20    2.86   1
   1  12   1    7.18    1.39   1
   1  12   2  158.00    5.28   1
   1  12   3  175.30    5.03   1
   1  12   4    5.62    1.28   1
   1  12   5  336.36   12.10   1
   1  12   6   19.27    1.67   1
   1  12   7    9.18    1.70   1
   1  12   8   12.60    2.13   1
   1  12   9  275.56    9.63   1
   1  12  10    1.39    2.38   1
   1  12  11   13.99    2.62   1
   1  12  12   13.10    3.69   1
   1  12  13    4.41    2.52   1
   1  12  14   24.40    3.56   1
   1  12  15    2.31    2.49   1
   1  12  16   13.18    5.01   1
   1  12  17    8.58    5.57   1
   1  12  18   59.75    6.03   1
   1  13 -11   -0.50    5.72   1
   1  13 -10    0.40    4.08   1
   1  13  -9    0.10    4.45   1
   1  13  -8   25.00    4.30   1
   1  13  -7   38.44    5.08   1
   1  13  -6   70.73    4.37   1
   1  13  -5    9.49    1.91   1
   1  13  -4   42.12    3.12   1
   1  13  -3    1.30    1.50   1
   1  13  -2  111.51    4.22   1
   1  13  -1   13.03    1.52   1
   1  13   0   30.03    1.42   1
   1  13   1   35.05    1.89   1
   1  13   2  112.57    3.61   1
   1  13   3    3.50    1.38   1
   1  13   4    8.01    1.41   1
   1  13   5   10.18    1.79   1
   1  13   6   33.52    2.55   1
   1  13   7   72.25    3.91   1
   1  13   8   24.70    2.78   1
   1  13   9    4.41    1.81   1
   1  13  10    4.00    3.20   1
   1  13  11  112.78    7.65   1
   1  13  12   16.48    3.90   1
   1  13  13   58.52    5.05   1
   1  13  14   31.36    3.92   1
   1  13  15    0.00    1.00   1
   1  13  16    4.20    4.71   1
   1  13  17    5.71    4.59   1
   1  13  18   -0.20    4.12   1
   1  14  -9   24.70    6.06   1
   1  14  -8    3.31    3.20   1
   1  14  -7   -2.40    4.49   1
   1  14  -6   29.81    5.57   1
   1  14  -5    1.90    1.71   1
   1  14  -4  105.68    5.14   1
   1  14  -3    9.92    2.20   1
   1  14  -2   72.76    4.95   1
   1  14  -1   22.66    2.48   1
   1  14   0   87.05    3.55   1
   1  14   1   37.58    2.70   1
   1  14   2   14.67    1.76   1
   1  14   3    1.90    1.30   1
   1  14   4   88.17    3.38   1
   1  14   5   73.62    4.12   1
   1  14   6    5.71    2.49   1
   1  14   7   11.02    3.32   1
   1  14   8  105.06    7.17   1
   1  14   9   96.43    5.50   1
   1  14  10    3.31    3.60   1
   1  14  11    8.29    3.69   1
   1  14  12   10.63    3.91   1
   1  14  13   11.29    3.96   1
   1  14  14   -1.30    2.69   1
   1  14  15   17.64    3.61   1
   1  14  16   -0.40    4.49   1
   1  14  17    4.08    5.09   1
   1  15  -8    1.21    3.72   1
   1  15  -7    9.00    5.40   1
   1  15  -6   18.58    4.31   1
   1  15  -5    6.92    3.31   1
   1  15  -4   65.12    4.68   1
   1  15  -3    3.39    2.10   1
   1  15  -2   -0.40    1.79   1
   1  15  -1   40.45    2.42   1
   1  15   0   32.60    2.17   1
   1  15   1    2.19    1.30   1
   1  15   2    2.19    1.60   1
   1  15   3    2.19    1.81   1
   1  15   4   22.94    4.69   1
   1  15   5   -7.29    3.40   1
   1  15   6    8.41    3.02   1
   1  15   7   37.58    3.68   1
   1  15   8    4.71    3.91   1
   1  15   9   10.50    4.02   1
   1  15  10    4.00    2.72   1
   1  15  11   22.09    4.61   1
   1  15  12   -1.90    4.11   1
   1  15  13   -2.50    3.10   1
   1  15  14   -2.31    3.31   1
   1  15  15    6.92    3.52   1
   1  15  16    5.38    3.99   1
   1  16  -6   11.70    4.31   1
   1  16  -5   17.39    5.42   1
   1  16  -4    7.62    3.92   1
   1  16  -3    8.53    3.80   1
   1  16  -2   15.37    2.51   1
   1  16  -1    5.38    1.58   1
   1  16   0    3.61    1.52   1
   1  16   1   14.98    1.47   1
   1  16   2   21.34    2.49   1
   1  16   3   97.81    4.15   1
   1  16   4   29.38    3.58   1
   1  16   5   56.85    4.52   1
   1  16   6   25.81    4.17   1
   1  16   7   46.92    6.03   1
   1  16   8    7.02    3.39   1
   1  16   9    8.29    4.20   1
   1  16  10   26.52    3.71   1
   1  16  11    2.10    4.61   1
   1  16  12   47.20    5.22   1
   1  16  13   17.47    4.10   1
   1  16  14   -1.10    3.91   1
   1  16  15   -4.71    3.52   1
   1  17  -4   -2.31    3.71   1
   1  17  -2   13.62    3.62   1
   1  17  -1   10.11    2.61   1
   1  17   0   17.31    3.00   1
   1  17   1    8.58    1.52   1
   1  17   2   42.25    3.25   1
   1  17   3    7.51    5.48   1
   1  17   4   27.46    4.19   1
   1  17   5    5.90    4.33   1
   1  17   6   13.62    4.21   1
   1  17   7    6.40    3.09   1
   1  17   8    2.50    4.39   1
   1  17   9   -3.50    2.99   1
   1  17  10    3.61    4.60   1
   1  17  11    3.31    3.42   1
   1  17  12    1.30    3.49   1
   1  17  13   14.29    5.52   1
   1  18  -2    1.39    5.59   1
   1  18  -1    2.59    3.19   1
   1  18   0    2.19    5.48   1
   1  18   1    0.20    2.62   1
   1  18   2   14.29    2.80   1
   1  18   3    2.19    5.48   1
   1  18   4    3.10    3.48   1
   1  18   5   13.99    5.31   1
   1  18   6    8.82    3.39   1
   1  18   7    5.52    5.03   1
   1  18   8    2.19    3.58   1
   1  18   9   -0.40    4.69   1
   1  18  10    5.11    3.48   1
   1  18  11   -2.59    5.18   1
   1  19   2   -0.40    3.98   1
   1  19   3    2.19    6.10   1
   1  19   4   18.66    4.23   1
   1  19   5    5.71    5.50   1
   1  19   6    0.71    3.81   1
   1  19   7   11.49    5.22   1
   1  19   8   37.45    6.00   1
   2 -18  -9    4.58    6.51   1
   2 -18  -8    2.10    5.39   1
   2 -18  -7   -1.39    4.48   1
   2 -18  -6   11.70    5.47   1
   2 -18  -5    6.20    4.68   1
   2 -18  -4    9.42    6.08   1
   2 -18  -3   -1.99    3.78   1
   2 -18  -2   14.90    7.10   1
   2 -18  -1    0.20    4.53   1
   2 -18   0    9.49    7.02   1
   2 -17 -12   10.50    6.22   1
   2 -17 -11    7.40    6.47   1
   2 -17 -10   72.08    8.32   1
   2 -17  -9    5.38    3.80   1
   2 -17  -8   -0.10    3.54   1
   2 -17  -6   19.98    4.56   1
   2 -17  -5    0.40    5.78   1
   2 -17  -4    8.53    3.91   1
   2 -17  -3    7.90    5.23   1
   2 -17  -2    1.10    5.31   1
   2 -17  -1   18.32    4.54   1
   2 -17   0    4.58    5.99   1
   2 -17   1    8.88    4.41   1
   2 -17   2    2.99    3.91   1
   2 -17   3    2.79    5.78   1
   2 -16 -13    8.41    6.61   1
   2 -16 -12    7.29    5.89   1
   2 -16 -11    1.21    4.03   1
   2 -16 -10    0.90    4.60   1
   2 -16  -9   38.94    6.74   1
   2 -16  -8   23.33    5.60   1
   2 -16  -7    0.40    4.38   1
   2 -16  -6   22.47    4.17   1
   2 -16  -5    5.90    4.71   1
   2 -16  -4    7.67    3.60   1
   2 -16  -3    8.82    5.29   1
   2 -16  -2   21.90    5.62   1
   2 -16  -1   27.25    4.38   1
   2 -16   0   36.24    4.94   1
   2 -16   1    1.10    5.00   1
   2 -16   2   10.11    4.32   1
   2 -16   3   19.62    4.43   1
   2 -16   4   14.21    5.28   1
   2 -16   5    3.80    4.21   1
   2 -15 -15    1.99    4.60   1
   2 -15 -14    2.40    4.09   1
   2 -15 -13   82.08    8.15   1
   2 -15 -12   18.58    5.69   1
   2 -15 -11   36.60    5.08   1
   2 -15 -10    7.02    4.93   1
   2 -15  -9   -1.99    3.19   1
   2 -15  -8   38.32    5.69   1
   2 -15  -7   20.61    3.90   1
   2 -15  -6    6.60    4.78   1
   2 -15  -5    8.12    2.91   1
   2 -15  -4   63.04    5.56   1
   2 -15  -3    4.00    4.32   1
   2 -15  -2   -1.59    4.59   1
   2 -15  -1   -2.10    3.19   1
   2 -15   0   54.32    5.90   1
   2 -15   1   70.73    7.23   1
   2 -15   2   80.82    6.65   1
   2 -15   3   27.88    6.02   1
   2 -15   4   14.36    3.71   1
   2 -15   5    1.90    5.41   1
   2 -15   6    5.71    6.50   1
   2 -15   7    1.39    4.58   1
   2 -14 -16    9.18    6.42   1
   2 -14 -15   11.22    5.63   1
   2 -14 -14    2.19    5.00   1
   2 -14 -13    1.39    5.29   1
   2 -14 -12    0.79    2.69   1
   2 -14 -11   11.97    2.49   1
   2 -14 -10    2.89    1.90   1
   2 -14  -9  138.30    5.88   1
   2 -14  -8   33.76    3.95   1
   2 -14  -7   18.40    3.17   1
   2 -14  -6    7.02    2.38   1
   2 -14  -5   51.55    4.16   1
   2 -14  -4   87.61    5.43   1
   2 -14  -3    4.28    2.82   1
   2 -14  -2   66.42    4.56   1
   2 -14  -1    9.42    2.82   1
   2 -14   0    2.31    3.22   1
   2 -14   1   -1.10    3.40   1
   2 -14   2    5.02    3.23   1
   2 -14   3   -1.30    3.10   1
   2 -14   4   30.25    5.39   1
   2 -14   5   26.94    5.50   1
   2 -14   6   16.16    3.62   1
   2 -14   7    0.00    1.00   1
   2 -14   9   -4.00    3.52   1
   2 -13 -17    2.99    5.61   1
   2 -13 -16   21.07    5.51   1
   2 -13 -15    2.99    3.01   1
   2 -13 -14    5.62    3.08   1
   2 -13 -13   38.94    3.87   1
   2 -13 -12    1.30    2.19   1
   2 -13 -11   48.30    3.06   1
   2 -13 -10   43.03    2.36   1
   2 -13  -9    2.79    1.50   1
   2 -13  -8    3.31    1.42   1
   2 -13  -7   42.38    3.65   1
   2 -13  -6   59.60    3.55   1
   2 -13  -5   18.32    2.91   1
   2 -13  -4   13.62    3.10   1
   2 -13  -3   17.81    3.04   1
   2 -13  -2   12.39    2.89   1
   2 -13  -1   47.20    3.57   1
   2 -13   0    9.42    3.13   1
   2 -13   1    2.89    2.69   1
   2 -13   2   85.38    5.17   1
   2 -13   3   22.47    4.83   1
   2 -13   4   50.27    5.10   1
   2 -13   5   -2.59    3.09   1
   2 -13   6   10.82    3.42   1
   2 -13   8   13.10    3.76   1
   2 -13   9    6.20    3.59   1
   2 -13  10    4.88    5.79   1
   2 -12 -17   42.77    6.54   1
   2 -12 -16    5.52    3.52   1
   2 -12 -15    9.30    3.17   1
   2 -12 -14    9.18    2.91   1
   2 -12 -13   -0.30    1.71   1
   2 -12 -12   10.50    1.81   1
   2 -12 -11   21.34    2.40   1
   2 -12 -10   19.18    1.93   1
   2 -12  -9   84.27    3.49   1
   2 -12  -8    1.39    1.20   1
   2 -12  -7   16.89    1.48   1
   2 -12  -6   17.81    2.11   1
   2 -12  -5   41.34    2.96   1
   2 -12  -4    2.89    2.31   1
   2 -12  -3   13.32    2.34   1
   2 -12  -2   17.47    2.42   1
   2 -12  -1   45.56    3.24   1
   2 -12   0    4.08    1.98   1
   2 -12   1  105.88    5.35   1
   2 -12   2   64.96    4.03   1
   2 -12   3    5.62    2.09   1
   2 -12   4  108.37    5.20   1
   2 -12   5    1.90    2.82   1
   2 -12   6    6.81    4.38   1
   2 -12   7   -3.80    4.49   1
   2 -12   8    3.50    3.22   1
   2 -12   9    2.79    3.71   1
   2 -12  10   17.72    5.47   1
   2 -12  11    1.59    3.68   1
   2 -11 -18   -1.80    4.50   1
   2 -11 -17   22.66    6.38   1
   2 -11 -16   24.50    4.36   1
   2 -11 -15   25.60    4.15   1
   2 -11 -14   26.01    3.06   1
   2 -11 -13   33.87    2.68   1
   2 -11 -12   22.09    2.26   1
   2 -11 -11   87.61    3.74   1
   2 -11 -10   23.43    1.84   1
   2 -11  -9   37.58    2.33   1
   2 -11  -8    0.00    1.00   1
   2 -11  -7    8.18    1.32   1
   2 -11  -6   -0.90    0.89   1
   2 -11  -5    5.81    1.88   1
   2 -11  -4    1.90    1.79   1
   2 -11  -3   57.76    3.50   1
   2 -11  -2   40.83    2.94   1
   2 -11  -1  263.74    9.74   1
   2 -11   0   20.52    2.72   1
   2 -11   1   16.32    2.26   1
   2 -11   2    1.99    1.89   1
   2 -11   3  111.09    4.85   1
   2 -11   4   60.37    4.20   1
   2 -11   5   52.85    3.78   1
   2 -11   6    2.99    2.70   1
   2 -11   7   47.75    5.67   1
   2 -11   9   -0.20    3.12   1
   2 -11  10   12.82    4.80   1
   2 -11  11    1.10    3.80   1
   2 -11  12  105.88   10.29   1
   2 -10 -18    7.90    6.13   1
   2 -10 -17    4.71    3.99   1
   2 -10 -16    5.11    5.02   1
   2 -10 -15    3.88    3.19   1
   2 -10 -14   40.83    3.96   1
   2 -10 -13   14.59    3.13   1
   2 -10 -12    5.29    3.08   1
   2 -10 -11    7.40    2.72   1
   2 -10 -10   94.28    3.69   1
   2 -10  -9   15.13    1.48   1
   2 -10  -8   38.19    2.10   1
   2 -10  -7   20.52    1.54   1
   2 -10  -6   47.75    2.21   1
   2 -10  -5   74.13    2.76   1
   2 -10  -4    5.29    2.12   1
   2 -10  -3  244.30    8.44   1
   2 -10  -2   76.91    3.86   1
   2 -10  -1   47.47    3.03   1
   2 -10   0    0.50    1.41   1
   2 -10   1  439.74   14.68   1
   2 -10   2    1.80    1.61   1
   2 -10   3   53.73    3.23   1
   2 -10   4   13.32    2.48   1
   2 -10   5    3.20    2.00   1
   2 -10   6    0.00    1.00   1
   2 -10   7   68.39    4.30   1
   2 -10  10   57.15    5.29   1
   2 -10  11    7.08    4.58   1
   2 -10  12    7.18    4.07   1
   2 -10  13    0.71    5.33   1
   2  -9 -19   63.84    8.31   1
   2  -9 -18   30.80    6.44   1
   2  -9 -17   27.77    4.85   1
   2  -9 -16    0.40    4.59   1
   2  -9 -15   48.16    5.14   1
   2  -9 -14   95.65    6.06   1
   2  -9 -13   46.10    3.94   1
   2  -9 -12   93.51    5.03   1
   2  -9 -11   18.49    4.30   1
   2  -9 -10  155.00   10.21   1
   2  -9  -9    5.38    1.90   1
   2  -9  -8    7.18    1.29   1
   2  -9  -7  169.52    5.21   1
   2  -9  -6    1.99    0.99   1
   2  -9  -5  142.80    4.06   1
   2  -9  -4  141.85    5.00   1
   2  -9  -3  169.00    6.50   1
   2  -9  -2   11.42    1.83   1
   2  -9  -1  126.11    4.94   1
   2  -9   0  191.55    6.37   1
   2  -9   1   82.08    6.16   1
   2  -9   2   12.60    2.13   1
   2  -9   3  607.62   19.72   1
   2  -9   4   37.82    2.95   1
   2  -9   5  235.93    9.22   1
   2  -9   6   53.88    3.38   1
   2  -9   7    0.50    1.60   1
   2  -9   8   -0.90    3.10   1
   2  -9   9    3.50    3.81   1
   2  -9  10    1.69    3.90   1
   2  -9  11   13.62    3.69   1
   2  -9  12   28.62    5.24   1
   2  -9  13    4.80    3.11   1
   2  -9  14   14.06    5.77   1
   2  -8 -19    9.49    5.79   1
   2  -8 -18   22.94    5.27   1
   2  -8 -17   10.11    4.20   1
   2  -8 -16   10.11    4.20   1
   2  -8 -15   29.27    3.68   1
   2  -8 -14   14.67    3.06   1
   2  -8 -13   30.80    3.00   1
   2  -8 -12   33.99    2.68   1
   2  -8 -11   65.93    5.52   1
   2  -8 -10   10.63    1.83   1
   2  -8  -9    7.40    2.12   1
   2  -8  -8   96.63    4.52   1
   2  -8  -7   23.43    2.13   1
   2  -8  -6   66.75    2.29   1
   2  -8  -5  202.49    5.12   1
   2  -8  -4  197.68    5.34   1
   2  -8  -3  267.65    7.85   1
   2  -8  -2  138.30    4.94   1
   2  -8  -1  119.46    5.03   1
   2  -8   0   53.73    2.64   1
   2  -8   1  700.13   22.76   1
   2  -8   2    4.41    1.51   1
   2  -8   3    4.71    1.52   1
   2  -8   4   37.21    2.93   1
   2  -8   5  256.00   10.24   1
   2  -8   6   13.69    1.70   1
   2  -8   7   57.46    3.34   1
   2  -8   8   -6.60    3.60   1
   2  -8   9   34.34    3.16   1
   2  -8  10   43.56    5.15   1
   2  -8  11   44.49    5.34   1
   2  -8  12   15.21    4.13   1
   2  -8  13   16.00    5.84   1
   2  -8  14   18.49    4.30   1
   2  -8  15   -3.31    5.90   1
   2  -7 -19   12.60    4.61   1
   2  -7 -18   15.60    4.19   1
   2  -7 -17    2.50    3.41   1
   2  -7 -16   15.92    4.47   1
   2  -7 -15   19.89    4.73   1
   2  -7 -14   13.76    2.89   1
   2  -7 -13   79.03    4.27   1
   2  -7 -12   81.00    4.50   1
   2  -7 -11    1.80    1.90   1
   2  -7 -10  731.70   26.51   1
   2  -7  -9  175.03    6.09   1
   2  -7  -8   74.65    3.97   1
   2  -7  -7   47.06    3.16   1
   2  -7  -6  303.11    9.75   1
   2  -7  -5   76.91    3.33   1
   2  -7  -4 1079.78   24.97   1
   2  -7  -3  586.61   19.86   1
   2  -7  -2   70.06    2.68   1
   2  -7  -1   41.86    3.36   1
   2  -7   0    6.60    1.18   1
   2  -7   1   31.14    1.67   1
   2  -7   2  265.69    7.82   1
   2  -7   3  663.58   19.06   1
   2  -7   4    0.50    1.90   1
   2  -7   5    0.40    1.99   1
   2  -7   6  169.78    5.73   1
   2  -7   7  104.86    6.14   1
   2  -7   8   22.09    1.97   1
   2  -7   9   -0.90    1.71   1
   2  -7  10   11.97    2.77   1
   2  -7  12   46.51    5.05   1
   2  -7  14    1.90    4.20   1
   2  -7  15   54.17    6.04   1
   2  -6 -19   13.10    5.57   1
   2  -6 -18    1.69    5.28   1
   2  -6 -17   43.43    5.67   1
   2  -6 -16   20.70    5.19   1
   2  -6 -15  163.33    8.18   1
   2  -6 -14  124.10    7.13   1
   2  -6 -13   11.02    2.39   1
   2  -6 -12  109.41    4.60   1
   2  -6 -11   31.25    2.46   1
   2  -6 -10    3.61    1.41   1
   2  -6  -9    8.53    1.52   1
   2  -6  -8  405.22   14.49   1
   2  -6  -7  168.74    5.72   1
   2  -6  -6    9.49    1.60   1
   2  -6  -5   -1.10    1.70   1
   2  -6  -4  122.10    4.42   1
   2  -6  -3   60.53    1.87   1
   2  -6  -2  815.67   21.13   1
   2  -6  -1  144.72    4.33   1
   2  -6   0   98.21    3.17   1
   2  -6   1   21.44    1.48   1
   2  -6   2   54.46    2.36   1
   2  -6   3    6.30    1.31   1
   2  -6   4   63.04    2.54   1
   2  -6   5  535.92   15.28   1
   2  -6   6   55.50    2.98   1
   2  -6   7   36.00    3.36   1
   2  -6   8    1.10    1.51   1
   2  -6   9    7.40    2.01   1
   2  -6  10    6.40    2.78   1
   2  -6  11   10.18    2.11   1
   2  -6  12    7.40    3.70   1
   2  -6  13   19.10    4.02   1
   2  -6  14    6.00    3.82   1
   2  -6  15   21.07    4.13   1
   2  -6  16    2.40    4.00   1
   2  -5 -19   27.04    6.45   1
   2  -5 -18   14.67    5.36   1
   2  -5 -17   -3.10    4.61   1
   2  -5 -16    7.08    4.10   1
   2  -5 -15   43.16    3.94   1
   2  -5 -14    9.80    2.82   1
   2  -5 -13  144.72    5.77   1
   2  -5 -12   63.04    3.97   1
   2  -5 -11   64.16    3.68   1
   2  -5 -10   19.01    2.09   1
   2  -5  -9  337.09    9.55   1
   2  -5  -8    7.18    1.61   1
   2  -5  -7   55.65    2.54   1
   2  -5  -6  235.32    9.20   1
   2  -5  -5   16.56    1.30   1
   2  -5  -4 2702.96   79.02   1
   2  -5  -3    1.59    1.18   1
   2  -5  -2  305.20    8.04   1
   2  -5  -1   26.42    1.54   1
   2  -5   0  468.29   12.55   1
   2  -5   1  333.43    9.13   1
   2  -5   2   19.89    1.52   1
   2  -5   3   62.25    2.52   1
   2  -5   4   82.81    3.28   1
   2  -5   5  256.64    7.69   1
   2  -5   6   76.56    3.50   1
   2  -5   7   35.76    2.03   1
   2  -5   8   64.16    3.04   1
   2  -5   9    6.00    1.81   1
   2  -5  10   18.06    1.02   1
   2  -5  11   -1.00    0.80   1
   2  -5  12    0.71    1.01   1
   2  -5  13    4.28    1.12   1
   2  -5  14   17.14    4.47   1
   2  -5  15   24.50    4.85   1
   2  -5  16    0.30    3.62   1
   2  -5  17   11.70    4.99   1
   2  -4 -19   19.89    5.08   1
   2  -4 -18    0.71    5.12   1
   2  -4 -17   12.60    4.40   1
   2  -4 -16    3.10    4.51   1
   2  -4 -15   98.80    5.96   1
   2  -4 -14   28.09    3.50   1
   2  -4 -13  154.26    6.46   1
   2  -4 -12  159.77    7.33   1
   2  -4 -11  483.56   17.59   1
   2  -4 -10   93.51    4.64   1
   2  -4  -9   32.95    1.84   1
   2  -4  -8  286.62    8.47   1
   2  -4  -7   24.90    2.20   1
   2  -4  -6  509.40   15.35   1
   2  -4  -5  211.41    6.11   1
   2  -4  -4  839.84   26.08   1
   2  -4  -3  155.75    4.99   1
   2  -4  -2   65.29    2.26   1
   2  -4  -1   94.67    2.92   1
   2  -4   0  274.23    7.29   1
   2  -4   1    1.90    0.69   1
   2  -4   2   15.68    1.43   1
   2  -4   3    2.69    0.79   1
   2  -4   4    1.39    0.99   1
   2  -4   5    0.00    1.00   1
   2  -4   6    2.59    1.51   1
   2  -4   7    2.89    1.90   1
   2  -4   8   91.20    3.06   1
   2  -4   9   86.12    3.71   1
   2  -4  10  149.33    4.64   1
   2  -4  11  149.08    4.88   1
   2  -4  12   77.97    3.53   1
   2  -4  13  236.54   10.77   1
   2  -4  14    0.40    1.40   1
   2  -4  15    2.31    1.22   1
   2  -4  16   -4.71    2.82   1
   2  -4  17   -0.71    3.61   1
   2  -4  18    8.18    4.40   1
   2  -3 -19   21.34    6.10   1
   2  -3 -18   -1.59    3.38   1
   2  -3 -17   13.10    3.48   1
   2  -3 -16   32.60    5.71   1
   2  -3 -15  133.40    6.70   1
   2  -3 -14   53.88    3.82   1
   2  -3 -13   49.70    3.67   1
   2  -3 -12   38.81    2.87   1
   2  -3 -11  161.54    6.36   1
   2  -3 -10   17.22    3.07   1
   2  -3  -9   48.44    2.64   1
   2  -3  -8   34.46    2.23   1
   2  -3  -7    1.21    1.21   1
   2  -3  -6   54.91    2.67   1
   2  -3  -5  689.59   19.43   1
   2  -3  -4   18.66    1.04   1
   2  -3  -3   62.25    2.05   1
   2  -3  -2  578.88   15.88   1
   2  -3  -1  736.04   20.62   1
   2  -3   0  716.63   20.35   1
   2  -3   1  964.72   29.82   1
   2  -3   2  495.51   13.80   1
   2  -3   3  429.32   12.43   1
   2  -3   4    0.00    1.00   1
   2  -3   5  215.50    6.46   1
   2  -3   6  892.81   22.11   1
   2  -3   7   55.06    2.82   1
   2  -3   8    9.61    1.61   1
   2  -3   9  488.41   16.35   1
   2  -3  10  353.82   10.91   1
   2  -3  11    3.61    1.71   1
   2  -3  12   87.98    4.69   1
   2  -3  13   39.06    3.38   1
   2  -3  14    0.40    2.60   1
   2  -3  15   43.30    4.87   1
   2  -3  16    9.99    3.22   1
   2  -3  18   27.25    6.89   1
   2  -2 -19    3.20    3.79   1
   2  -2 -18   10.63    5.41   1
   2  -2 -17   35.16    4.15   1
   2  -2 -16    8.70    3.19   1
   2  -2 -15   35.40    4.05   1
   2  -2 -14   90.82    4.96   1
   2  -2 -13   27.25    2.92   1
   2  -2 -12  125.89    5.83   1
   2  -2 -11  231.65    8.52   1
   2  -2 -10    4.58    1.80   1
   2  -2  -9  221.12    7.73   1
   2  -2  -8  138.77    4.71   1
   2  -2  -7  118.81    3.92   1
   2  -2  -6   13.18    1.31   1
   2  -2  -5   45.16    3.09   1
   2  -2  -4 1197.85   38.76   1
   2  -2  -3  890.43   26.26   1
   2  -2  -2 1812.20   52.79   1
   2  -2   0  215.50    4.99   1
   2  -2   1 1741.39   50.91   1
   2  -2   2   67.08    4.75   1
   2  -2   3 2789.95   87.68   1
   2  -2   4  136.89    3.51   1
   2  -2   5   -0.90    1.10   1
   2  -2   6  101.00    3.62   1
   2  -2   7    1.59    1.29   1
   2  -2   8   67.90    3.13   1
   2  -2   9   -1.90    1.41   1
   2  -2  10   40.58    2.55   1
   2  -2  11  151.54    6.65   1
   2  -2  12   47.06    2.88   1
   2  -2  13   59.29    3.70   1
   2  -2  14  119.46    7.87   1
   2  -2  15   14.36    4.47   1
   2  -2  16   -0.40    4.28   1
   2  -2  17   11.83    4.88   1
   2  -2  18    9.00    5.28   1
   2  -1 -19   11.22    6.03   1
   2  -1 -18    3.88    3.39   1
   2  -1 -17   19.01    4.80   1
   2  -1 -16    4.28    3.68   1
   2  -1 -15   32.15    3.74   1
   2  -1 -14   -0.59    2.28   1
   2  -1 -13    8.82    2.49   1
   2  -1 -12  101.20    5.23   1
   2  -1 -11   13.10    2.53   1
   2  -1 -10  123.65    5.12   1
   2  -1  -9   70.73    3.03   1
   2  -1  -8   90.82    3.81   1
   2  -1  -7   34.69    1.77   1
   2  -1  -6  110.25    5.04   1
   2  -1  -5   26.32    1.74   1
   2  -1  -4  185.50    8.44   1
   2  -1  -3   30.80    1.55   1
   2  -1  -2  531.30   18.90   1
   2  -1  -1  232.26    9.75   1
   2  -1   0  219.34   15.11   1
   2  -1   1    8.29    0.52   1
   2  -1   2  245.24    6.58   1
   2  -1   3 3079.14   96.55   1
   2  -1   4  158.26    5.28   1
   2  -1   5  333.06    9.86   1
   2  -1   6  465.70   15.11   1
   2  -1   7    2.99    1.21   1
   2  -1   8  283.25    8.08   1
   2  -1   9   -0.50    1.60   1
   2  -1  10  457.96   20.12   1
   2  -1  11   22.56    2.28   1
   2  -1  12  332.33   12.03   1
   2  -1  13   43.16    3.42   1
   2  -1  14   80.82    5.57   1
   2  -1  15   27.77    3.69   1
   2  -1  16   -2.50    3.10   1
   2  -1  17    3.80    3.32   1
   2  -1  18    3.20    4.90   1
   2  -1  19   66.26    8.63   1
   2   0 -19   -2.40    3.81   1
   2   0 -18    1.49    5.08   1
   2   0 -17    4.20    3.40   1
   2   0 -16    0.50    4.42   1
   2   0 -15    1.59    2.70   1
   2   0 -14  131.33    6.88   1
   2   0 -13   20.79    2.37   1
   2   0 -12  205.92    8.04   1
   2   0 -11   29.38    2.28   1
   2   0 -10   89.11    3.96   1
   2   0  -9  299.98   10.05   1
   2   0  -8   52.42    2.61   1
   2   0  -7   47.89    2.35   1
   2   0  -6   44.49    1.87   1
   2   0  -5   96.43    3.93   1
   2   0  -4  144.96    4.58   1
   2   0  -3    3.88    0.99   1
   2   0  -2   25.40    1.31   1
   2   0   2  243.05    7.48   1
   2   0   3 1056.25   34.45   1
   2   0   4  410.06   13.37   1
   2   0   5  574.08   19.17   1
   2   0   6   41.60    2.32   1
   2   0   7  138.77    4.71   1
   2   0   8  502.21   13.89   1
   2   0   9   -0.10    1.62   1
   2   0  10   56.55    2.86   1
   2   0  11   15.37    2.27   1
   2   0  12   35.64    2.27   1
   2   0  13   37.09    2.92   1
   2   0  14  165.38    7.20   1
   2   0  16    2.89    3.98   1
   2   0  17   14.82    4.70   1
   2   0  18   17.22    3.90   1
   2   0  19   14.29    4.61   1
   2   1 -19   -3.69    3.61   1
   2   1 -18    1.69    3.59   1
   2   1 -17   11.22    4.82   1
   2   1 -16   17.47    3.76   1
   2   1 -15   10.89    2.97   1
   2   1 -14    4.49    2.50   1
   2   1 -13  129.73    6.15   1
   2   1 -12  324.36   12.97   1
   2   1 -11   16.08    2.09   1
   2   1 -10   31.25    2.35   1
   2   1  -9  168.48    7.01   1
   2   1  -8   12.39    1.48   1
   2   1  -7   12.89    1.51   1
   2   1  -6   76.74    2.98   1
   2   1  -5    2.99    1.11   1
   2   1  -4  143.28    4.55   1
   2   1  -3  340.40   11.44   1
   2   1  -2 1489.19   69.46   1
   2   1  -1   72.93    3.07   1
   2   1   0   58.98    7.07   1
   2   1   1   23.43    2.23   1
   2   1   2   97.81    4.55   1
   2   1   4  409.25   23.06   1
   2   1   5   26.32    1.44   1
   2   1   6   39.82    2.40   1
   2   1   7   -0.50    0.91   1
   2   1   8  257.92    8.03   1
   2   1   9  699.60   20.10   1
   2   1  10  600.25   18.13   1
   2   1  11  125.22    4.70   1
   2   1  12   63.04    3.33   1
   2   1  13   21.90    2.71   1
   2   1  14   51.55    4.16   1
   2   1  15    1.90    3.62   1
   2   1  16   37.09    4.63   1
   2   1  17    2.50    2.59   1
   2   1  18    2.69    4.20   1
   2   1  19   11.29    5.91   1
   2   2 -18   44.89    7.37   1
   2   2 -17   -1.49    4.07   1
   2   2 -16   -1.21    4.22   1
   2   2 -15    6.10    4.30   1
   2   2 -14   26.63    2.89   1
   2   2 -13   16.81    2.46   1
   2   2 -12   61.15    4.07   1
   2   2 -11    0.50    2.31   1
   2   2 -10   22.47    2.09   1
   2   2  -9   56.40    2.85   1
   2   2  -8   38.07    2.22   1
   2   2  -7   53.73    2.35   1
   2   2  -6  325.44   14.43   1
   2   2  -5  415.34   19.97   1
   2   2  -4  140.19    4.50   1
   2   2  -3 1173.06   41.78   1
   2   2  -2 2037.62   65.00   1
   2   2  -1  285.27    9.12   1
   2   2   0  271.59   11.54   1
   2   2   1  677.56   39.57   1
   2   2   2  293.78    8.91   1
   2   2   3  214.92    6.16   1
   2   2   4   23.72    8.57   1
   2   2   5   38.56    6.46   1
   2   2   6  711.82   25.61   1
   2   2   7  253.13    7.95   1
   2   2   8  735.49   32.54   1
   2   2   9   42.25    2.08   1
   2   2  10  103.43    4.47   1
   2   2  11  100.40    3.41   1
   2   2  12   18.58    2.24   1
   2   2  13   26.42    2.57   1
   2   2  14   24.40    2.47   1
   2   2  15   43.56    5.15   1
   2   2  16   -0.71    2.70   1
   2   2  17    2.40    4.00   1
   2   2  18   -0.71    4.52   1
   2   2  19    7.02    3.82   1
   2   2  20    6.00    5.78   1
   2   3 -18    0.59    5.07   1
   2   3 -17    3.69    3.49   1
   2   3 -16   46.51    6.55   1
   2   3 -15   19.36    4.49   1
   2   3 -14    2.69    4.20   1
   2   3 -13   53.14    5.83   1
   2   3 -12  230.13   10.92   1
   2   3 -11    4.58    2.01   1
   2   3 -10   79.21    3.74   1
   2   3  -9    6.30    2.11   1
   2   3  -8  165.12    5.91   1
   2   3  -7  134.10    5.33   1
   2   3  -6  421.89   11.91   1
   2   3  -5  266.67    7.84   1
   2   3  -4  420.66   20.92   1
   2   3  -3  955.43   34.00   1
   2   3  -2 5405.19  189.68   1
   2   3  -1  286.62    7.79   1
   2   3   0  139.48    3.54   1
   2   3   1  513.02   14.95   1
   2   3   2  209.09    5.49   1
   2   3   4   80.46    2.87   1
   2   3   5  167.44    5.95   1
   2   3   6   13.76    0.96   1
   2   3   7  216.38    6.18   1
   2   3   8  682.78   19.34   1
   2   3   9  324.72   10.45   1
   2   3  10   42.38    2.21   1
   2   3  11   24.70    1.69   1
   2   3  12   12.18    1.68   1
   2   3  13  101.20    4.83   1
   2   3  14   26.32    3.08   1
   2   3  15    5.20    2.51   1
   2   3  16   86.86    5.78   1
   2   3  17   -3.50    4.00   1
   2   3  18    3.31    2.69   1
   2   3  19    2.79    5.18   1
   2   3  20    5.11    4.02   1
   2   4 -17   -5.02    5.33   1
   2   4 -16   20.88    4.66   1
   2   4 -15    1.00    2.90   1
   2   4 -14   19.80    3.56   1
   2   4 -13    5.71    2.72   1
   2   4 -12    3.88    2.21   1
   2   4 -11    6.92    2.00   1
   2   4 -10   47.33    2.75   1
   2   4  -9    4.80    1.71   1
   2   4  -8  835.21   33.52   1
   2   4  -7    5.11    1.90   1
   2   4  -6    1.39    1.39   1
   2   4  -5  731.16   22.17   1
   2   4  -4 1316.24   42.08   1
   2   4  -3  454.97   11.09   1
   2   4  -2  160.28    5.32   1
   2   4  -1 1328.60   37.91   1
   2   4   0  337.46    9.19   1
   2   4   1   74.13    2.58   1
   2   4   2    3.61    0.49   1
   2   4   3  737.12   20.63   1
   2   4   4  110.67    2.95   1
   2   4   5 1119.57   32.12   1
   2   4   6  162.82    5.87   1
   2   4   7 1179.24   35.03   1
   2   4   8   17.47    2.93   1
   2   4   9  433.06   15.40   1
   2   4  10   74.65    3.28   1
   2   4  11   91.97    3.64   1
   2   4  12    5.62    1.71   1
   2   4  13   27.98    2.33   1
   2   4  14    0.20    1.61   1
   2   4  15    6.50    2.60   1
   2   4  16    0.79    3.58   1
   2   4  17    2.50    4.49   1
   2   4  18    3.88    2.88   1
   2   4  19   51.27    6.73   1
   2   4  20   46.65    7.65   1
   2   5 -17   -3.20    5.91   1
   2   5 -16   12.39    5.07   1
   2   5 -15   -5.11    5.51   1
   2   5 -14    4.20    4.39   1
   2   5 -13   65.77    6.33   1
   2   5 -12    6.30    2.91   1
   2   5 -11   77.97    5.30   1
   2   5 -10  141.85    6.67   1
   2   5  -9   13.03    2.24   1
   2   5  -8   18.40    1.97   1
   2   5  -7  150.06    5.88   1
   2   5  -6  596.82   24.92   1
   2   5  -5  422.30   16.03   1
   2   5  -4  542.42   15.37   1
   2   5  -3  522.58   12.80   1
   2   5  -2  558.38   13.71   1
   2   5  -1  202.78    5.13   1
   2   5   0  808.26   19.90   1
   2   5   1  117.07    3.90   1
   2   5   2    0.40    0.50   1
   2   5   3   11.97    0.90   1
   2   5   4  547.09   14.03   1
   2   5   5  428.49   12.42   1
   2   5   6  329.42    9.44   1
   2   5   7 1490.73   41.70   1
   2   5   8  634.03   17.63   1
   2   5   9  251.22    8.88   1
   2   5  10   11.42    1.69   1
   2   5  11    1.00    1.70   1
   2   5  12   86.86    4.10   1
   2   5  13   29.48    2.71   1
   2   5  14   14.29    2.72   1
   2   5  15   60.06    5.74   1
   2   5  16   16.97    4.28   1
   2   5  18   14.21    3.39   1
   2   5  19    8.12    3.59   1
   2   5  20    2.59    4.99   1
   2   6 -16   11.09    5.33   1
   2   6 -15   60.84    8.27   1
   2   6 -14   40.32    6.35   1
   2   6 -13    0.20    4.12   1
   2   6 -12   10.63    3.59   1
   2   6 -11    1.21    2.31   1
   2   6 -10    2.69    1.90   1
   2   6  -9   10.18    2.11   1
   2   6  -8   83.54    4.02   1
   2   6  -7   21.53    2.04   1
   2   6  -6    2.19    1.60   1
   2   6  -5    2.31    1.31   1
   2   6  -4  745.84   19.12   1
   2   6  -3   72.76    2.22   1
   2   6  -2  404.81   12.88   1
   2   6  -1   33.29    1.27   1
   2   6   0  457.10   10.69   1
   2   6   1  385.34   11.39   1
   2   6   2   18.32    1.11   1
   2   6   3  265.69    6.85   1
   2   6   4   20.79    1.00   1
   2   6   5  278.22    7.01   1
   2   6   6    2.59    1.00   1
   2   6   7 1163.49   31.38   1
   2   6   8  131.79    8.04   1
   2   6   9   48.86    2.38   1
   2   6  10    8.41    1.62   1
   2   6  11  191.27    6.91   1
   2   6  12    1.49    1.68   1
   2   6  13   43.43    3.16   1
   2   6  14   19.27    2.37   1
   2   6  15  139.71    7.80   1
   2   6  16    3.20    3.19   1
   2   6  17   68.56    5.96   1
   2   6  18   -4.58    2.91   1
   2   6  19    3.69    3.30   1
   2   6  20   66.75    6.86   1
   2   7 -16    4.28    4.60   1
   2   7 -15   34.11    7.12   1
   2   7 -14    7.90    5.00   1
   2   7 -13   74.13    8.09   1
   2   7 -12    1.99    3.98   1
   2   7 -11   11.49    3.19   1
   2   7 -10    8.41    2.38   1
   2   7  -9   34.69    4.36   1
   2   7  -8    1.49    1.78   1
   2   7  -7   38.56    2.48   1
   2   7  -6  386.91   22.03   1
   2   7  -5  205.35    8.60   1
   2   7  -4  335.26    8.42   1
   2   7  -3   22.00    1.31   1
   2   7  -2   94.87    3.51   1
   2   7  -1  250.91    8.55   1
   2   7   0  283.92    8.43   1
   2   7   1   24.30    1.38   1
   2   7   2  107.33    2.90   1
   2   7   3   48.16    1.67   1
   2   7   4   14.82    1.08   1
   2   7   5   57.30    1.67   1
   2   7   6   49.28    2.25   1
   2   7   7  205.06    6.59   1
   2   7   8   44.76    2.14   1
   2   7   9  117.51    4.12   1
   2   7  10   48.02    3.05   1
   2   7  11   30.25    2.20   1
   2   7  12    0.00    1.00   1
   2   7  13    2.79    2.10   1
   2   7  14    8.41    2.38   1
   2   7  15   12.67    3.77   1
   2   7  16   71.23    5.74   1
   2   7  17    1.90    2.82   1
   2   7  18    3.39    3.20   1
   2   7  19   14.06    3.68   1
   2   7  20    7.67    4.21   1
   2   8 -15   39.44    7.03   1
   2   8 -14   14.36    3.87   1
   2   8 -13   45.43    6.34   1
   2   8 -12   22.94    4.69   1
   2   8 -11   40.58    4.84   1
   2   8  -9   30.80    3.00   1
   2   8  -8   74.48    3.97   1
   2   8  -7    6.60    1.80   1
   2   8  -6    4.08    1.70   1
   2   8  -5    6.40    1.21   1
   2   8  -4    8.70    1.18   1
   2   8  -3  121.88    4.20   1
   2   8  -2  237.78    6.17   1
   2   8  -1   21.44    1.30   1
   2   8   0    2.69    0.98   1
   2   8   1   13.91    1.27   1
   2   8   2   75.17    2.43   1
   2   8   3   27.56    1.15   1
   2   8   4   31.92    1.36   1
   2   8   5  135.49    3.49   1
   2   8   6  370.18   11.16   1
   2   8   7   87.98    3.75   1
   2   8   8  800.89   22.07   1
   2   8   9   -1.99    1.61   1
   2   8  10   16.73    1.80   1
   2   8  11  264.71    8.79   1
   2   8  12    4.00    1.60   1
   2   8  13   87.80    4.50   1
   2   8  14   15.68    2.69   1
   2   8  15  193.49   11.13   1
   2   8  16   -5.29    3.59   1
   2   8  17  115.78    8.18   1
   2   8  18   17.89    4.23   1
   2   8  19    5.71    4.83   1
   2   8  20    3.20    5.30   1
   2   9 -14   -2.50    3.41   1
   2   9 -13   70.73    8.07   1
   2   9 -12   18.84    5.03   1
   2   9 -11    7.51    3.01   1
   2   9 -10   39.94    4.17   1
   2   9  -9  120.12    8.33   1
   2   9  -8   -0.79    1.80   1
   2   9  -7   68.06    3.46   1
   2   9  -6   31.58    2.81   1
   2   9  -5   26.52    1.75   1
   2   9  -4    6.50    1.27   1
   2   9  -3  249.96    7.27   1
   2   9  -2   18.84    1.30   1
   2   9  -1    5.90    1.31   1
   2   9   0  174.24    5.02   1
   2   9   1   32.72    2.40   1
   2   9   2    0.30    0.90   1
   2   9   3   84.27    2.57   1
   2   9   4   98.41    2.58   1
   2   9   5   76.91    2.46   1
   2   9   6  164.10    5.89   1
   2   9   7  203.35    6.56   1
   2   9   8   26.52    1.75   1
   2   9   9    4.00    1.52   1
   2   9  10  129.05    4.77   1
   2   9  11    6.81    1.83   1
   2   9  12   38.94    2.62   1
   2   9  13    2.19    2.40   1
   2   9  14    0.79    2.39   1
   2   9  15   14.59    2.98   1
   2   9  16   52.85    5.67   1
   2   9  17   56.85    4.83   1
   2   9  18    5.29    2.99   1
   2   9  19   71.06    7.76   1
   2  10 -14    3.20    6.30   1
   2  10 -13   13.62    4.72   1
   2  10 -12    3.88    4.18   1
   2  10 -11   10.30    4.62   1
   2  10 -10   15.60    3.79   1
   2  10  -9    7.62    4.08   1
   2  10  -8   -2.40    2.29   1
   2  10  -7   51.98    4.04   1
   2  10  -6   17.39    2.84   1
   2  10  -5  201.92    6.54   1
   2  10  -4   80.28    2.87   1
   2  10  -3    4.08    1.41   1
   2  10  -2  342.99    9.26   1
   2  10  -1  104.65    3.48   1
   2  10   0   19.36    1.50   1
   2  10   1  173.71    5.27   1
   2  10   2   20.98    1.47   1
   2  10   3   55.35    1.93   1
   2  10   4    5.81    1.01   1
   2  10   5  222.31    5.96   1
   2  10   6  208.80    6.94   1
   2  10   7    0.50    1.41   1
   2  10   8  461.39   15.47   1
   2  10   9   11.49    1.90   1
   2  10  10  208.51    7.22   1
   2  10  11  132.94    5.07   1
   2  10  12   19.27    2.63   1
   2  10  13   36.12    3.13   1
   2  10  14  120.34    8.34   1
   2  10  15   41.86    4.79   1
   2  10  16    3.80    2.89   1
   2  10  17   37.33    5.01   1
   2  10  18    4.00    3.72   1
   2  10  19    3.88    5.99   1
   2  11 -13    1.49    5.78   1
   2  11 -12   18.06    6.80   1
   2  11 -11    0.71    3.21   1
   2  11 -10   12.39    5.28   1
   2  11  -9   52.85    4.94   1
   2  11  -8    5.20    3.42   1
   2  11  -7   32.15    3.63   1
   2  11  -6   26.42    2.16   1
   2  11  -5   17.14    1.90   1
   2  11  -4    6.81    1.51   1
   2  11  -3   32.38    2.16   1
   2  11  -2   71.91    3.05   1
   2  11  -1   49.98    1.98   1
   2  11   0   37.70    1.96   1
   2  11   1   31.02    1.56   1
   2  11   2    2.10    1.01   1
   2  11   3  239.01    6.18   1
   2  11   4  211.12    6.39   1
   2  11   5    3.20    1.40   1
   2  11   6  453.26   14.90   1
   2  11   7   -0.59    1.79   1
   2  11   8   18.49    2.24   1
   2  11   9    9.00    1.62   1
   2  11  10  604.18   23.60   1
   2  11  11  273.57   11.25   1
   2  11  12    8.29    2.02   1
   2  11  13   46.65    4.51   1
   2  11  14    0.50    3.31   1
   2  11  15   18.06    3.23   1
   2  11  16  135.72    8.85   1
   2  11  17   -1.00    4.10   1
   2  11  18   11.29    3.49   1
   2  11  19   23.04    6.24   1
   2  12 -12    5.02    5.02   1
   2  12 -11   34.34    6.45   1
   2  12  -9   -1.59    2.90   1
   2  12  -8   -1.21    3.72   1
   2  12  -7   41.99    5.31   1
   2  12  -6    3.69    1.61   1
   2  12  -5   84.27    4.96   1
   2  12  -4    8.12    1.60   1
   2  12  -3    5.20    1.41   1
   2  12  -2  104.86    4.30   1
   2  12  -1  131.10    5.27   1
   2  12   0   12.11    1.60   1
   2  12   1   83.91    2.93   1
   2  12   2  129.28    3.64   1
   2  12   3   20.43    1.72   1
   2  12   4  223.50    6.28   1
   2  12   5   63.84    3.04   1
   2  12   6  230.13    7.59   1
   2  12   7    6.71    2.02   1
   2  12   8  273.24   11.90   1
   2  12   9   35.52    2.74   1
   2  12  10    3.88    2.29   1
   2  12  11   82.08    3.99   1
   2  12  12    6.60    3.19   1
   2  12  13    6.10    2.32   1
   2  12  14   11.70    3.01   1
   2  12  15    4.49    2.42   1
   2  12  16    3.20    3.90   1
   2  12  17   40.20    5.96   1
   2  12  18    5.11    4.20   1
   2  13 -11    1.59    6.07   1
   2  13 -10   19.89    4.37   1
   2  13  -9   28.30    5.53   1
   2  13  -8   19.80    4.27   1
   2  13  -7    6.00    4.80   1
   2  13  -6   33.76    2.79   1
   2  13  -5   16.97    2.06   1
   2  13  -4    6.50    1.99   1
   2  13  -3  130.87    6.64   1
   2  13  -2   -0.20    1.41   1
   2  13  -1    1.10    1.30   1
   2  13   0   22.37    1.80   1
   2  13   1    2.31    1.09   1
   2  13   2    0.20    1.31   1
   2  13   3  185.78    6.54   1
   2  13   4   88.92    3.21   1
   2  13   5    4.20    1.31   1
   2  13   6   46.92    3.15   1
   2  13   7  166.41    6.71   1
   2  13   8   27.14    2.92   1
   2  13   9  123.43    6.00   1
   2  13  10  251.22   10.46   1
   2  13  11   61.15    4.85   1
   2  13  12   -1.39    3.09   1
   2  13  14   -0.20    3.52   1
   2  13  15    9.30    3.78   1
   2  13  16   24.70    5.07   1
   2  13  17    1.49    4.39   1
   2  13  18   10.18    4.21   1
   2  14  -9   20.98    5.68   1
   2  14  -8   57.61    6.68   1
   2  14  -7    3.80    4.99   1
   2  14  -6    2.40    2.01   1
   2  14  -5   11.83    2.20   1
   2  14  -4    1.10    1.91   1
   2  14  -3    2.10    2.09   1
   2  14  -2   -1.99    1.69   1
   2  14  -1  202.21    7.68   1
   2  14   0   41.22    2.31   1
   2  14   1    8.88    1.31   1
   2  14   2   -0.10    1.62   1
   2  14   3  162.31    5.10   1
   2  14   4   14.98    1.93   1
   2  14   5  201.64    7.38   1
   2  14   6    8.82    2.20   1
   2  14   7   11.83    2.82   1
   2  14   8   -0.90    3.00   1
   2  14   9   11.83    3.37   1
   2  14  10  105.27    7.18   1
   2  14  11    8.12    3.48   1
   2  14  12   30.25    4.73   1
   2  14  13   -1.00    3.60   1
   2  14  14   33.76    4.88   1
   2  14  15    8.12    4.90   1
   2  14  16   -1.69    3.98   1
   2  14  17   20.79    5.38   1
   2  15  -8   16.97    4.28   1
   2  15  -7    4.49    5.30   1
   2  15  -6   58.68    7.51   1
   2  15  -5    0.59    2.28   1
   2  15  -4    9.12    2.30   1
   2  15  -3   23.43    2.23   1
   2  15  -2    0.10    1.62   1
   2  15  -1   22.75    2.19   1
   2  15   0   11.97    1.59   1
   2  15   1   96.43    4.12   1
   2  15   2  190.99    6.36   1
   2  15   3  115.35    4.94   1
   2  15   4    7.18    1.88   1
   2  15   5    5.20    1.92   1
   2  15   6    0.90    3.31   1
   2  15   7  139.95    8.28   1
   2  15   8    3.50    2.28   1
   2  15   9    5.11    3.48   1
   2  15  10    1.10    3.51   1
   2  15  11   -1.30    2.69   1
   2  15  12   27.46    4.82   1
   2  15  13   10.69    4.90   1
   2  15  14   30.69    5.54   1
   2  15  15   25.30    5.23   1
   2  15  16   21.62    5.86   1
   2  16  -6   13.03    3.68   1
   2  16  -5    6.81    5.01   1
   2  16  -4   59.75    5.26   1
   2  16  -3    2.79    2.30   1
   2  16  -2   25.20    3.82   1
   2  16  -1   11.22    1.81   1
   2  16   0   51.98    2.60   1
   2  16   1   30.14    1.98   1
   2  16   2    1.80    1.50   1
   2  16   3    9.12    1.99   1
   2  16   4    5.29    1.89   1
   2  16   5   57.15    4.38   1
   2  16   6   -0.79    2.58   1
   2  16   7    0.79    3.49   1
   2  16   8    0.79    4.08   1
   2  16   9   17.22    3.24   1
   2  16  10   -0.79    3.88   1
   2  16  11   16.73    3.68   1
   2  16  12   36.00    6.24   1
   2  16  13    3.39    4.38   1
   2  16  14    2.31    3.10   1
   2  16  15    1.80    3.19   1
   2  17  -5    8.12    6.21   1
   2  17  -4   -1.39    3.49   1
   2  17  -3    7.67    5.21   1
   2  17  -2   12.11    3.62   1
   2  17  -1    5.71    1.91   1
   2  17   0   -1.80    1.80   1
   2  17   1    9.80    1.63   1
   2  17   2    3.69    2.00   1
   2  17   3   22.28    2.27   1
   2  17   4    3.69    1.80   1
   2  17   5    5.81    2.80   1
   2  17   6   -1.30    4.31   1
   2  17   7   48.86    5.45   1
   2  17   8    2.31    3.01   1
   2  17   9   29.27    5.19   1
   2  17  10   -1.00    2.70   1
   2  17  11    0.59    4.47   1
   2  17  12   -5.29    4.42   1
   2  17  13   11.22    4.02   1
   2  17  14    9.67    3.79   1
   2  18  -2   17.39    5.84   1
   2  18  -1    4.08    3.47   1
   2  18   0    3.10    2.60   1
   2  18   1   -2.89    2.99   1
   2  18   2   59.14    4.46   1
   2  18   3   -1.10    4.30   1
   2  18   4    3.88    3.59   1
   2  18   5   16.32    5.41   1
   2  18   6    5.20    4.01   1
   2  18   7    0.79    3.49   1
   2  18   8    9.12    5.13   1
   2  18   9   17.22    3.49   1
   2  18  10    5.71    4.49   1
   2  18  11    1.00    5.10   1
   2  18  12    1.49    3.98   1
   2  19   1    5.90    5.30   1
   2  19   2   10.18    4.40   1
   2  19   3   -3.80    5.30   1
   2  19   4   13.76    4.01   1
   2  19   5   -2.69    5.08   1
   2  19   6    9.42    3.68   1
   2  19   8    1.69    3.80   1
   2  19   9    4.41    5.50   1
   3 -18  -7    8.82    7.19   1
   3 -18  -6    1.30    4.90   1
   3 -18  -5   -0.20    6.94   1
   3 -18  -4   -9.42    4.48   1
   3 -18  -3   15.92    6.70   1
   3 -18  -2   20.16    5.48   1
   3 -17 -10   -0.30    5.42   1
   3 -17  -9   -0.59    3.88   1
   3 -17  -8   25.30    4.93   1
   3 -17  -7   35.16    6.76   1
   3 -17  -6    2.59    3.90   1
   3 -17  -5    6.92    5.79   1
   3 -17  -4    9.92    4.03   1
   3 -17  -3   24.50    6.34   1
   3 -17  -2    1.49    3.98   1
   3 -17  -1    4.41    5.80   1
   3 -17   0    2.50    4.20   1
   3 -17   1   19.01    5.49   1
   3 -17   2   14.90    6.33   1
   3 -16 -12   28.20    7.33   1
   3 -16 -11   -0.50    4.42   1
   3 -16 -10   14.29    4.69   1
   3 -16  -9   -0.71    5.33   1
   3 -16  -8    8.12    5.30   1
   3 -16  -7   15.37    4.70   1
   3 -16  -6   26.73    5.89   1
   3 -16  -5   19.71    4.71   1
   3 -16  -4   79.57    8.38   1
   3 -16  -3   36.60    7.02   1
   3 -16  -2   -1.49    3.20   1
   3 -16  -1   -0.10    4.56   1
   3 -16   0    1.39    5.29   1
   3 -16   1    7.02    4.72   1
   3 -16   2    4.00    4.92   1
   3 -16   3    6.50    5.81   1
   3 -16   4    0.79    3.88   1
   3 -16   5    6.20    7.02   1
   3 -15 -14   21.90    6.27   1
   3 -15 -13   10.50    4.02   1
   3 -15 -12   10.69    4.90   1
   3 -15 -11    7.18    5.47   1
   3 -15 -10    8.53    5.31   1
   3 -15  -9   -3.39    4.60   1
   3 -15  -8   84.64    7.54   1
   3 -15  -7    4.88    5.08   1
   3 -15  -6    3.20    2.90   1
   3 -15  -5   -1.49    2.88   1
   3 -15  -4   -6.92    4.42   1
   3 -15  -3   -0.30    4.21   1
   3 -15  -2   22.18    3.96   1
   3 -15  -1   10.37    5.02   1
   3 -15   0   25.10    5.11   1
   3 -15   1   -4.20    5.21   1
   3 -15   2   23.52    4.17   1
   3 -15   3   15.21    5.54   1
   3 -15   4   10.63    4.69   1
   3 -15   5   12.82    4.30   1
   3 -15   6    4.58    6.51   1
   3 -15   7    7.78    5.58   1
   3 -14 -15    1.30    5.79   1
   3 -14 -14   -2.99    6.09   1
   3 -14 -13    3.80    4.99   1
   3 -14 -12   43.82    6.22   1
   3 -14 -11   -3.10    4.89   1
   3 -14 -10   20.79    2.19   1
   3 -14  -9   19.54    2.12   1
   3 -14  -8   62.57    6.33   1
   3 -14  -7    5.29    3.17   1
   3 -14  -6   93.51    8.12   1
   3 -14  -5   -4.00    4.32   1
   3 -14  -4   22.18    4.43   1
   3 -14  -3   27.46    3.77   1
   3 -14  -2    2.99    3.18   1
   3 -14  -1   22.28    4.91   1
   3 -14   0   53.00    5.68   1
   3 -14   1    0.71    4.52   1
   3 -14   2    4.08    4.40   1
   3 -14   3   33.06    4.37   1
   3 -14   4    1.39    3.49   1
   3 -14   5    0.20    5.53   1
   3 -14   6   -0.20    5.83   1
   3 -14   7   15.29    4.54   1
   3 -14   8   13.47    6.17   1
   3 -13 -16    1.49    4.49   1
   3 -13 -15    2.79    3.81   1
   3 -13 -14   17.22    3.49   1
   3 -13 -13    9.00    3.12   1
   3 -13 -12   -1.21    2.31   1
   3 -13 -11   30.36    2.64   1
   3 -13 -10   17.14    2.07   1
   3 -13  -9    1.30    1.39   1
   3 -13  -8  133.17    5.31   1
   3 -13  -7    9.30    3.17   1
   3 -13  -6   41.99    3.76   1
   3 -13  -5    1.10    2.31   1
   3 -13  -4   68.06    3.96   1
   3 -13  -3    0.10    2.53   1
   3 -13  -2    1.21    2.31   1
   3 -13  -1    7.02    2.28   1
   3 -13   0    5.71    2.20   1
   3 -13   1   26.32    4.10   1
   3 -13   2   52.13    6.35   1
   3 -13   3    9.18    4.61   1
   3 -13   4   12.53    4.04   1
   3 -13   5    2.50    4.58   1
   3 -13   6    1.90    3.31   1
   3 -13   7    2.59    3.90   1
   3 -13   8   13.40    5.56   1
   3 -12 -17    1.39    4.79   1
   3 -12 -16    6.00    6.12   1
   3 -12 -15   89.49    6.43   1
   3 -12 -14    2.59    2.19   1
   3 -12 -13   36.84    3.76   1
   3 -12 -12    2.79    1.90   1
   3 -12 -11    6.60    1.70   1
   3 -12 -10   12.11    1.81   1
   3 -12  -9    1.99    1.38   1
   3 -12  -8    9.80    1.38   1
   3 -12  -7    1.99    1.10   1
   3 -12  -6   66.26    4.07   1
   3 -12  -5    8.53    2.80   1
   3 -12  -4   34.81    3.30   1
   3 -12  -3   25.30    3.02   1
   3 -12  -2   58.06    3.51   1
   3 -12  -1    1.10    2.20   1
   3 -12   0  314.71   12.77   1
   3 -12   1   12.89    2.87   1
   3 -12   2   10.82    2.30   1
   3 -12   3    1.00    2.40   1
   3 -12   4   17.72    3.87   1
   3 -12   5   -0.71    2.91   1
   3 -12   6    3.39    3.90   1
   3 -12   7    2.19    3.20   1
   3 -12   8    4.41    5.12   1
   3 -12  10    7.67    4.60   1
   3 -12  11   17.81    6.67   1
   3 -11 -17   29.92    5.69   1
   3 -11 -16    4.71    5.43   1
   3 -11 -15    2.89    5.20   1
   3 -11 -14   36.60    4.84   1
   3 -11 -13    3.69    2.80   1
   3 -11 -12    6.71    2.18   1
   3 -11 -11   18.58    2.07   1
   3 -11 -10   11.09    2.00   1
   3 -11  -9   10.11    1.53   1
   3 -11  -8   20.61    1.63   1
   3 -11  -7   67.73    2.96   1
   3 -11  -6    2.59    1.00   1
   3 -11  -5   16.08    2.17   1
   3 -11  -4  140.90    5.70   1
   3 -11  -3   15.76    2.30   1
   3 -11  -2   42.90    2.88   1
   3 -11  -1    8.01    2.21   1
   3 -11   0   13.10    2.03   1
   3 -11   1    5.20    2.10   1
   3 -11   2  189.89    7.99   1
   3 -11   3   -0.79    2.79   1
   3 -11   4   58.37    3.67   1
   3 -11   5    6.30    2.61   1
   3 -11   6   91.58    7.46   1
   3 -11   7    8.88    3.58   1
   3 -11   8   67.90    6.92   1
   3 -11  10   -2.79    3.31   1
   3 -11  11   29.92    5.80   1
   3 -11  12    6.92    4.63   1
   3 -10 -18   -0.59    4.17   1
   3 -10 -17    4.41    5.80   1
   3 -10 -16   25.70    4.97   1
   3 -10 -15   15.52    5.12   1
   3 -10 -14    0.30    3.11   1
   3 -10 -13   51.84    3.74   1
   3 -10 -12    5.90    1.99   1
   3 -10 -11   34.46    2.58   1
   3 -10 -10    2.89    1.70   1
   3 -10  -9  226.20    9.02   1
   3 -10  -8  122.54    4.21   1
   3 -10  -7   21.07    1.56   1
   3 -10  -6   67.08    2.62   1
   3 -10  -5    0.10    0.71   1
   3 -10  -4   26.21    2.36   1
   3 -10  -3   10.18    2.30   1
   3 -10  -2   27.98    1.90   1
   3 -10  -1   29.81    2.84   1
   3 -10   0    4.41    1.89   1
   3 -10   1  144.00    5.52   1
   3 -10   2   11.29    2.49   1
   3 -10   3   -2.31    2.40   1
   3 -10   4  139.95    5.68   1
   3 -10   5    6.60    2.00   1
   3 -10   6   43.43    3.43   1
   3 -10   7    4.08    3.27   1
   3 -10   8   15.29    4.38   1
   3 -10  10   12.39    4.08   1
   3 -10  11    2.99    3.91   1
   3 -10  12   23.33    5.99   1
   3 -10  13    9.80    4.82   1
   3  -9 -18   -4.58    5.99   1
   3  -9 -17   16.73    5.32   1
   3  -9 -16    6.20    3.78   1
   3  -9 -15   11.09    4.80   1
   3  -9 -14  111.30    7.81   1
   3  -9 -13    3.20    2.61   1
   3  -9 -12   12.32    3.02   1
   3  -9 -11   -4.49    2.59   1
   3  -9 -10   -1.30    1.80   1
   3  -9  -9    0.71    2.40   1
   3  -9  -8   74.82    3.46   1
   3  -9  -7    8.12    1.88   1
   3  -9  -6   26.73    1.45   1
   3  -9  -5  322.92    8.98   1
   3  -9  -4   18.58    2.41   1
   3  -9  -3    4.71    1.52   1
   3  -9  -2    7.67    2.22   1
   3  -9  -1  782.88   24.62   1
   3  -9   0    6.71    1.81   1
   3  -9   1    3.61    1.52   1
   3  -9   2  377.52   13.21   1
   3  -9   3   14.82    2.00   1
   3  -9   4  127.46    5.42   1
   3  -9   5   28.84    2.58   1
   3  -9   6    6.20    1.79   1
   3  -9   7   49.00    3.64   1
   3  -9   8   12.67    3.06   1
   3  -9   9    2.89    2.58   1
   3  -9  10   18.40    4.72   1
   3  -9  11   32.49    4.33   1
   3  -9  13   -3.10    3.91   1
   3  -9  14   28.73    6.32   1
   3  -8 -19   -5.71    6.50   1
   3  -8 -18    5.90    5.30   1
   3  -8 -17   21.72    5.50   1
   3  -8 -16  155.00   12.20   1
   3  -8 -15   72.25    7.65   1
   3  -8 -14   53.00    3.93   1
   3  -8 -13    3.80    2.50   1
   3  -8 -12  516.65   19.55   1
   3  -8 -11    7.78    2.01   1
   3  -8 -10    2.40    2.01   1
   3  -8  -9  121.00    4.84   1
   3  -8  -8   11.09    2.53   1
   3  -8  -7   16.16    2.01   1
   3  -8  -6   -0.30    1.90   1
   3  -8  -5   11.70    1.03   1
   3  -8  -4   16.08    0.96   1
   3  -8  -3   26.32    2.15   1
   3  -8  -2  400.80   12.01   1
   3  -8  -1   72.76    2.90   1
   3  -8   0   11.09    1.60   1
   3  -8   1  105.68    3.91   1
   3  -8   2  154.26    5.22   1
   3  -8   3  322.20   10.77   1
   3  -8   4    0.00    1.00   1
   3  -8   5    8.12    1.48   1
   3  -8   6   81.18    4.14   1
   3  -8   7   23.33    2.70   1
   3  -8   8   25.20    4.12   1
   3  -8   9   24.50    3.56   1
   3  -8  10   39.19    4.13   1
   3  -8  11   20.88    4.66   1
   3  -8  12   38.94    6.12   1
   3  -8  13   33.41    4.86   1
   3  -8  14   -4.71    3.69   1
   3  -8  15   -6.30    5.92   1
   3  -7 -19    5.71    6.02   1
   3  -7 -18    1.21    5.13   1
   3  -7 -17    8.12    4.10   1
   3  -7 -16    7.51    3.51   1
   3  -7 -15    0.90    4.31   1
   3  -7 -14   52.56    3.77   1
   3  -7 -13   34.69    3.65   1
   3  -7 -12    2.19    2.19   1
   3  -7 -11   37.95    2.83   1
   3  -7 -10  152.77    6.43   1
   3  -7  -9   51.41    3.44   1
   3  -7  -8  128.37    4.76   1
   3  -7  -7    8.70    1.89   1
   3  -7  -6  154.75    4.73   1
   3  -7  -5  251.54    8.25   1
   3  -7  -4   19.27    1.93   1
   3  -7  -3  201.64    5.68   1
   3  -7  -2   12.82    2.00   1
   3  -7  -1  830.59   23.06   1
   3  -7   0    9.49    1.29   1
   3  -7   1   34.69    2.24   1
   3  -7   2    8.41    1.39   1
   3  -7   3   98.80    3.58   1
   3  -7   4  118.37    5.44   1
   3  -7   5   67.57    3.45   1
   3  -7   6  410.47   14.18   1
   3  -7   7   71.74    3.73   1
   3  -7   8  190.16   12.69   1
   3  -7   9    6.00    2.11   1
   3  -7  10    1.59    3.28   1
   3  -7  11    2.40    3.69   1
   3  -7  12   11.42    3.52   1
   3  -7  13    6.60    4.68   1
   3  -7  14   14.90    4.01   1
   3  -7  15    5.62    5.50   1
   3  -7  16    5.11    6.28   1
   3  -6 -19   -1.69    3.80   1
   3  -6 -18   59.29    6.01   1
   3  -6 -17    1.21    3.41   1
   3  -6 -16   61.15    5.16   1
   3  -6 -15   23.04    4.80   1
   3  -6 -14   42.51    3.26   1
   3  -6 -13   14.52    3.12   1
   3  -6 -12  234.40    9.19   1
   3  -6 -11    1.21    1.80   1
   3  -6 -10   44.89    2.81   1
   3  -6  -9    0.50    1.60   1
   3  -6  -8   -0.10    1.52   1
   3  -6  -7  102.01    3.84   1
   3  -6  -6  105.47    3.70   1
   3  -6  -5  406.02   12.90   1
   3  -6  -4   17.72    2.11   1
   3  -6  -3 1643.49   42.16   1
   3  -6  -2  962.86   29.79   1
   3  -6  -1   16.97    2.06   1
   3  -6   0  115.13    4.08   1
   3  -6   1  405.62   14.10   1
   3  -6   2    3.31    1.60   1
   3  -6   3  175.03    6.35   1
   3  -6   4  117.51    5.64   1
   3  -6   5  204.49    7.44   1
   3  -6   6   82.08    4.17   1
   3  -6   7    2.89    1.80   1
   3  -6   8    7.78    2.12   1
   3  -6   9  128.60    5.67   1
   3  -6  10  194.88    7.54   1
   3  -6  11    5.11    2.49   1
   3  -6  12   47.06    4.25   1
   3  -6  13   13.69    4.37   1
   3  -6  14   27.77    4.95   1
   3  -6  15   -2.19    3.11   1
   3  -6  16    9.92    5.80   1
   3  -5 -19   -6.30    6.22   1
   3  -5 -18    5.62    5.50   1
   3  -5 -17   16.16    5.31   1
   3  -5 -16   19.80    5.16   1
   3  -5 -15   -4.28    3.89   1
   3  -5 -14   19.62    4.43   1
   3  -5 -13    6.81    2.09   1
   3  -5 -12   16.16    2.89   1
   3  -5 -11   34.46    2.47   1
   3  -5 -10   34.46    2.35   1
   3  -5  -9   24.21    1.97   1
   3  -5  -8   40.58    2.80   1
   3  -5  -7  127.92    4.07   1
   3  -5  -6   34.34    1.88   1
   3  -5  -5  576.96   16.33   1
   3  -5  -4  910.83   27.16   1
   3  -5  -3  111.51   16.05   1
   3  -5  -2  258.89    8.69   1
   3  -5  -1 2213.70   75.28   1
   3  -5   0  168.74    5.20   1
   3  -5   1  616.53   15.89   1
   3  -5   2   19.27    1.93   1
   3  -5   3    9.99    1.33   1
   3  -5   4   28.41    1.49   1
   3  -5   5    3.88    1.69   1
   3  -5   6    2.89    1.80   1
   3  -5   7  237.47   10.48   1
   3  -5   8  156.50    6.51   1
   3  -5   9  123.88    5.34   1
   3  -5  10   32.15    2.72   1
   3  -5  11  123.43    6.00   1
   3  -5  12   29.27    4.00   1
   3  -5  13    4.08    3.47   1
   3  -5  14   50.27    5.53   1
   3  -5  15    8.18    3.37   1
   3  -5  17   -2.40    5.30   1
   3  -4 -19    1.59    3.98   1
   3  -4 -18   10.63    5.80   1
   3  -4 -17    5.38    4.41   1
   3  -4 -16   63.84    6.23   1
   3  -4 -15    1.59    4.28   1
   3  -4 -14   52.42    4.05   1
   3  -4 -13   50.13    4.96   1
   3  -4 -12  216.38   10.89   1
   3  -4 -11  123.88    5.57   1
   3  -4 -10  227.71    8.15   1
   3  -4  -9   11.63    1.77   1
   3  -4  -8  276.22    8.97   1
   3  -4  -7   22.56    2.18   1
   3  -4  -6  886.85   25.61   1
   3  -4  -5 2074.80   54.66   1
   3  -4  -4  219.34    6.52   1
   3  -4  -3 2156.67   58.51   1
   3  -4  -2    1.39    1.20   1
   3  -4  -1   33.52    1.85   1
   3  -4   0   17.89    1.27   1
   3  -4   1  255.04    7.03   1
   3  -4   2  521.21   14.61   1
   3  -4   3   73.44    2.57   1
   3  -4   4   18.40    1.37   1
   3  -4   5   51.41    2.44   1
   3  -4   6    2.59    1.29   1
   3  -4   7  700.66   28.59   1
   3  -4   8    2.31    1.49   1
   3  -4   9  136.89    5.15   1
   3  -4  10  183.06    7.04   1
   3  -4  11   35.05    1.66   1
   3  -4  12   10.89    0.99   1
   3  -4  13    2.31    0.91   1
   3  -4  14    3.31    1.09   1
   3  -4  15    7.90    2.92   1
   3  -4  16   10.63    4.82   1
   3  -4  17   13.10    5.94   1
   3  -3 -19   -3.50    5.80   1
   3  -3 -18    9.80    4.57   1
   3  -3 -17   18.06    4.50   1
   3  -3 -16   43.56    6.47   1
   3  -3 -15   14.90    5.10   1
   3  -3 -14  143.28    7.18   1
   3  -3 -13   38.44    3.60   1
   3  -3 -12   83.17    4.38   1
   3  -3 -11   69.89    3.85   1
   3  -3 -10  941.88   31.30   1
   3  -3  -9   10.69    1.50   1
   3  -3  -8  228.61    7.56   1
   3  -3  -7   94.09    3.88   1
   3  -3  -6  447.32   12.69   1
   3  -3  -5  101.61    3.83   1
   3  -3  -4  109.20    3.76   1
   3  -3  -3  107.33    3.32   1
   3  -3  -2  348.94   10.46   1
   3  -3  -1  393.23   10.71   1
   3  -3   0  143.28    3.59   1
   3  -3   1   39.31    1.50   1
   3  -3   2    1.39    0.80   1
   3  -3   3    0.71    0.91   1
   3  -3   4  209.67    6.37   1
   3  -3   5   46.38    2.04   1
   3  -3   6   33.76    2.90   1
   3  -3   7   43.30    1.32   1
   3  -3   8    7.90    1.40   1
   3  -3   9   58.83    3.37   1
   3  -3  10   29.81    2.73   1
   3  -3  11  286.62   11.51   1
   3  -3  12    2.79    2.20   1
   3  -3  13   55.65    5.07   1
   3  -3  14   31.81    3.72   1
   3  -3  15   30.25    4.73   1
   3  -3  16   31.92   16.95   1
   3  -3  17   12.39    5.00   1
   3  -3  18   35.88    6.47   1
   3  -2 -19   25.20    5.52   1
   3  -2 -18    0.50    5.03   1
   3  -2 -17   41.34    5.14   1
   3  -2 -16   35.05    4.62   1
   3  -2 -15    7.02    4.40   1
   3  -2 -14   24.21    3.35   1
   3  -2 -13   42.64    3.79   1
   3  -2 -12  136.19    6.30   1
   3  -2 -11   26.83    2.28   1
   3  -2 -10  101.81    4.64   1
   3  -2  -9    9.00    1.38   1
   3  -2  -8   34.34    1.99   1
   3  -2  -7   91.01    3.24   1
   3  -2  -6  481.80   16.24   1
   3  -2  -5    7.51    0.99   1
   3  -2  -4  513.02   15.85   1
   3  -2  -3  249.01    7.26   1
   3  -2  -2  438.90   13.41   1
   3  -2  -1    7.29    0.92   1
   3  -2   0 2452.23   76.26   1
   3  -2   1 1030.41   26.96   1
   3  -2   2   41.22    1.67   1
   3  -2   3    0.90    1.01   1
   3  -2   4  251.22    6.34   1
   3  -2   5    1.00    0.40   1
   3  -2   6  374.81   10.07   1
   3  -2   7  153.26    5.20   1
   3  -2   8  112.78    4.04   1
   3  -2   9  322.20   11.13   1
   3  -2  10   37.21    2.32   1
   3  -2  11   85.38    4.44   1
   3  -2  12    0.50    1.80   1
   3  -2  13  363.66   12.59   1
   3  -2  14   38.19    4.33   1
   3  -2  15   38.32    4.95   1
   3  -2  16    5.52    4.23   1
   3  -2  17   -0.30    3.21   1
   3  -2  18   -0.40    3.39   1
   3  -1 -19    5.20    6.61   1
   3  -1 -18   15.21    4.13   1
   3  -1 -17   37.82    6.27   1
   3  -1 -16    4.20    3.32   1
   3  -1 -14    2.50    2.31   1
   3  -1 -13  514.38   19.50   1
   3  -1 -12   12.11    2.30   1
   3  -1 -11  136.42    5.37   1
   3  -1 -10  101.00    6.03   1
   3  -1  -9   93.51    3.87   1
   3  -1  -8   18.32    2.57   1
   3  -1  -7    0.20    1.11   1
   3  -1  -6    1.90    1.10   1
   3  -1  -5    4.58    1.20   1
   3  -1  -4  244.92   11.27   1
   3  -1  -3   28.09    1.59   1
   3  -1  -2  124.77    4.02   1
   3  -1  -1   19.89    0.98   1
   3  -1   0   54.61    1.77   1
   3  -1   1   60.53    1.56   1
   3  -1   2  163.58    3.58   1
   3  -1   3   52.13    1.73   1
   3  -1   4  301.72    7.64   1
   3  -1   5  439.74   11.74   1
   3  -1   6  221.71    6.85   1
   3  -1   7    1.99    1.38   1
   3  -1   8    5.81    2.60   1
   3  -1   9  691.69   30.51   1
   3  -1  10  246.18    9.41   1
   3  -1  11  824.26   26.99   1
   3  -1  12   58.22    3.51   1
   3  -1  13   27.25    2.61   1
   3  -1  14    7.08    2.61   1
   3  -1  15   84.82    5.89   1
   3  -1  16   15.13    3.73   1
   3  -1  17   17.22    4.23   1
   3  -1  18   22.56    3.99   1
   3  -1  19    0.10    4.04   1
   3   0 -19    2.89    4.59   1
   3   0 -18   30.03    6.58   1
   3   0 -17   32.95    5.05   1
   3   0 -16    1.39    4.48   1
   3   0 -15   51.41    5.74   1
   3   0 -14   22.66    3.14   1
   3   0 -13   54.17    3.24   1
   3   0 -12  146.89    6.30   1
   3   0 -11   37.33    2.57   1
   3   0 -10   35.64    2.39   1
   3   0  -9  182.25    5.94   1
   3   0  -8   -1.69    1.30   1
   3   0  -7  592.92   16.56   1
   3   0  -6  207.36    7.49   1
   3   0  -5  262.76    8.75   1
   3   0  -4  357.97   12.11   1
   3   0  -3  846.23   31.42   1
   3   0  -2  522.12   17.82   1
   3   0  -1  168.48    8.57   1
   3   0   0  384.94   13.34   1
   3   0   1  525.33   11.92   1
   3   0   2   54.02    1.32   1
   3   0   3  522.58   13.26   1
   3   0   4 1391.29   45.51   1
   3   0   5   83.17    3.28   1
   3   0   6  320.05    8.94   1
   3   0   7   34.46    1.64   1
   3   0   8   86.30    3.53   1
   3   0   9  265.36    8.47   1
   3   0  10  231.65    8.22   1
   3   0  11   71.91    3.56   1
   3   0  12   -1.10    1.41   1
   3   0  13  221.71    8.64   1
   3   0  14   36.84    3.16   1
   3   0  15   48.44    4.45   1
   3   0  16    1.30    2.60   1
   3   0  17   36.48    5.56   1
   3   0  18    2.89    5.00   1
   3   0  19   26.52    6.08   1
   3   1 -18    1.69    3.38   1
   3   1 -17   80.46    9.87   1
   3   1 -16    2.40    3.19   1
   3   1 -15    7.02    3.82   1
   3   1 -14    3.61    2.89   1
   3   1 -13   88.92    4.72   1
   3   1 -12   34.11    2.80   1
   3   1 -11  101.61    4.84   1
   3   1 -10   -2.40    1.30   1
   3   1  -9    1.10    2.39   1
   3   1  -8    9.30    1.71   1
   3   1  -7  433.06   12.49   1
   3   1  -5   70.22    3.18   1
   3   1  -4  386.52   12.19   1
   3   1  -3 3302.80  125.28   1
   3   1  -2 1304.65   70.80   1
   3   1  -1   34.34    1.64   1
   3   1   0  796.93   21.45   1
   3   1   1   55.65    1.64   1
   3   1   2  977.81   25.64   1
   3   1   3  161.29    4.06   1
   3   1   4  795.24   44.56   1
   3   1   5   21.81    4.86   1
   3   1   6 1786.75   51.57   1
   3   1   7  289.68   12.25   1
   3   1   8  150.31    7.11   1
   3   1   9   50.27    2.27   1
   3   1  10    7.78    1.17   1
   3   1  11   48.30    4.45   1
   3   1  12    5.38    2.00   1
   3   1  13   83.54    4.75   1
   3   1  14  203.35    8.27   1
   3   1  15   36.84    4.49   1
   3   1  16    1.99    3.98   1
   3   1  17   13.32    4.31   1
   3   1  18    7.90    3.09   1
   3   1  19    4.49    3.99   1
   3   2 -18    9.49    4.00   1
   3   2 -17   21.44    4.72   1
   3   2 -16   -3.61    5.32   1
   3   2 -15   46.51    4.77   1
   3   2 -14    6.30    3.41   1
   3   2 -13    3.50    2.58   1
   3   2 -12    6.40    2.18   1
   3   2 -11   86.30    4.27   1
   3   2 -10   -0.71    1.71   1
   3   2  -9   25.40    2.02   1
   3   2  -8    6.71    2.38   1
   3   2  -7  112.36    4.66   1
   3   2  -6    9.42    1.23   1
   3   2  -5  111.72    4.65   1
   3   2  -4  297.22    9.31   1
   3   2  -3  164.61    5.90   1
   3   2  -2 1220.10   36.33   1
   3   2  -1  543.82   15.39   1
   3   2   0  516.65   15.00   1
   3   2   1 1115.56   58.78   1
   3   2   2 3116.99  103.84   1
   3   2   3  686.44   18.86   1
   3   2   4  278.89    7.35   1
   3   2   5  315.06   10.65   1
   3   2   6 1037.48   38.65   1
   3   2   7  546.62   29.93   1
   3   2   8  178.76    6.68   1
   3   2   9    0.20    0.91   1
   3   2  10  452.41   13.19   1
   3   2  11   55.50    2.83   1
   3   2  12   70.56    3.02   1
   3   2  13  131.10    5.72   1
   3   2  14    1.80    2.30   1
   3   2  15   13.99    3.07   1
   3   2  16   93.32    7.53   1
   3   2  17   30.03    4.60   1
   3   2  18    3.50    4.30   1
   3   2  19   14.59    5.12   1
   3   3 -18   -0.50    5.32   1
   3   3 -17    8.70    4.31   1
   3   3 -16   20.07    4.84   1
   3   3 -15    4.88    4.60   1
   3   3 -14   46.24    5.44   1
   3   3 -13    4.41    2.31   1
   3   3 -12    5.20    1.69   1
   3   3 -11   63.68    3.67   1
   3   3 -10   23.23    2.70   1
   3   3  -9   10.89    1.78   1
   3   3  -8   81.18    3.24   1
   3   3  -7  283.92    8.76   1
   3   3  -6    7.62    1.21   1
   3   3  -5   85.75    2.96   1
   3   3  -4   -0.30    1.51   1
   3   3  -3  446.48   13.95   1
   3   3  -2  184.42    5.70   1
   3   3  -1  605.16   16.24   1
   3   3   0  522.58   16.92   1
   3   3   1   93.70    2.52   1
   3   3   2   14.59    0.53   1
   3   3   3 1130.98   32.96   1
   3   3   4  520.75   14.60   1
   3   3   5  269.62   13.14   1
   3   3   6 2766.76  104.15   1
   3   3   7  441.84   13.03   1
   3   3   8 1017.61   31.90   1
   3   3   9    5.90    1.12   1
   3   3  10   69.39    2.83   1
   3   3  11   15.60    1.74   1
   3   3  12   -0.50    1.51   1
   3   3  13   52.85    3.05   1
   3   3  14   67.57    3.78   1
   3   3  15    4.71    2.30   1
   3   3  16   36.00    5.04   1
   3   3  17   -3.80    2.50   1
   3   3  18    4.41    4.20   1
   3   3  19    5.29    4.00   1
   3   3  20    5.02    5.20   1
   3   4 -17    6.20    5.68   1
   3   4 -16   16.40    4.78   1
   3   4 -15    1.49    3.39   1
   3   4 -14    3.69    2.61   1
   3   4 -13   37.82    5.04   1
   3   4 -12   21.07    3.67   1
   3   4 -11   -1.49    3.68   1
   3   4 -10    6.50    3.01   1
   3   4  -9   53.73    4.40   1
   3   4  -8   86.49    6.88   1
   3   4  -7  242.74   11.53   1
   3   4  -6   16.40    2.27   1
   3   4  -5  426.01   16.92   1
   3   4  -4  453.69   14.48   1
   3   4  -3  737.67   19.56   1
   3   4  -2    3.50    1.01   1
   3   4  -1   20.61    1.09   1
   3   4   0    0.79    0.61   1
   3   4   1  756.25   19.25   1
   3   4   2  180.90    3.77   1
   3   4   3   29.59    0.98   1
   3   4   4  142.80    3.59   1
   3   4   5   44.76    1.74   1
   3   4   6  104.65    3.89   1
   3   4   7   29.38    1.63   1
   3   4   8   87.98    3.75   1
   3   4   9  356.08   13.21   1
   3   4  10    8.29    1.38   1
   3   4  11   20.88    2.01   1
   3   4  12  114.49    4.92   1
   3   4  13   42.77    2.75   1
   3   4  14  113.64    5.12   1
   3   4  15   11.49    4.00   1
   3   4  16  245.55   15.67   1
   3   4  17   49.56    5.49   1
   3   4  18   22.18    5.09   1
   3   4  19   47.61    5.66   1
   3   4  20   -1.69    5.17   1
   3   5 -17    2.69    5.58   1
   3   5 -16   38.94    6.12   1
   3   5 -15    5.20    3.19   1
   3   5 -14   19.80    3.74   1
   3   5 -13   11.90    2.83   1
   3   5 -12   17.22    2.74   1
   3   5 -11    9.99    2.28   1
   3   5 -10   19.54    2.39   1
   3   5  -9    1.59    1.69   1
   3   5  -8   94.67    4.48   1
   3   5  -7    9.00    1.80   1
   3   5  -6   19.98    1.97   1
   3   5  -5  188.79    6.87   1
   3   5  -4  657.41   22.05   1
   3   5  -3 1200.62   31.88   1
   3   5  -2   -1.90    0.91   1
   3   5  -1  306.25    8.05   1
   3   5   0  256.96    6.41   1
   3   5   1  373.26    8.89   1
   3   5   2  450.29   11.03   1
   3   5   3    9.00    0.60   1
   3   5   4    6.20    0.70   1
   3   5   5  975.31   23.11   1
   3   5   6  428.49   16.56   1
   3   5   7    5.62    1.42   1
   3   5   8   92.35    3.84   1
   3   5   9  189.61    6.89   1
   3   5  10   28.94    2.04   1
   3   5  11   32.38    2.05   1
   3   5  12   23.72    2.34   1
   3   5  13    1.30    1.50   1
   3   5  14   46.24    2.86   1
   3   5  15   82.26    5.26   1
   3   5  16   15.37    2.67   1
   3   5  17    3.88    2.80   1
   3   5  18   18.84    4.43   1
   3   5  19   16.73    5.24   1
   3   5  20    8.12    3.70   1
   3   6 -16    9.49    3.70   1
   3   6 -15    3.80    3.51   1
   3   6 -14  107.95   10.39   1
   3   6 -13    8.18    3.49   1
   3   6 -12   58.22    5.95   1
   3   6 -11    7.78    2.62   1
   3   6 -10   35.28    3.45   1
   3   6  -9   35.88    2.64   1
   3   6  -8  246.49    9.42   1
   3   6  -7   33.87    2.44   1
   3   6  -6    4.71    1.61   1
   3   6  -5    6.50    1.48   1
   3   6  -4  198.25    5.07   1
   3   6  -3  729.54   19.45   1
   3   6  -2  171.09    5.23   1
   3   6  -1  134.33    3.94   1
   3   6   0    2.99    0.80   1
   3   6   1   16.40    0.97   1
   3   6   2  164.61    4.11   1
   3   6   3  108.58    2.71   1
   3   6   4  102.41    2.83   1
   3   6   5  116.42    3.02   1
   3   6   6   92.93    3.28   1
   3   6   7   11.83    1.10   1
   3   6   8   11.97    1.52   1
   3   6   9   18.58    1.47   1
   3   6  10   66.75    3.27   1
   3   6  11  151.54    5.66   1
   3   6  12  163.33    6.13   1
   3   6  13    4.49    1.61   1
   3   6  14   92.74    4.24   1
   3   6  15   23.14    3.94   1
   3   6  16   20.34    3.88   1
   3   6  17   50.55    5.40   1
   3   6  18    8.41    4.70   1
   3   6  19    4.28    4.68   1
   3   6  20   10.69    4.90   1
   3   7 -16   11.49    4.27   1
   3   7 -15    9.12    4.59   1
   3   7 -14   53.29    6.72   1
   3   7 -13    4.08    4.28   1
   3   7 -12    0.00    1.00   1
   3   7 -11    8.82    3.39   1
   3   7 -10   -2.79    1.80   1
   3   7  -9   44.36    3.20   1
   3   7  -8   44.89    3.35   1
   3   7  -7   10.30    1.67   1
   3   7  -6  216.68    8.54   1
   3   7  -5  125.44    4.48   1
   3   7  -4    9.30    1.28   1
   3   7  -3  730.62   18.38   1
   3   7  -2  343.36   10.01   1
   3   7  -1 1921.07   49.97   1
   3   7   0  103.84    3.26   1
   3   7   1  107.74    3.32   1
   3   7   2   21.44    1.11   1
   3   7   3  199.66    5.93   1
   3   7   4   66.26    1.95   1
   3   7   5  193.49    5.29   1
   3   7   6    4.49    1.02   1
   3   7   7    6.71    0.98   1
   3   7   8   86.12    3.71   1
   3   7   9  291.04   10.58   1
   3   7  10    7.90    1.69   1
   3   7  11   72.93    3.25   1
   3   7  12  127.92    5.43   1
   3   7  13   -1.30    1.50   1
   3   7  14    1.30    2.01   1
   3   7  15    0.71    2.60   1
   3   7  16    9.67    3.48   1
   3   7  17    6.71    3.63   1
   3   7  18    5.02    4.79   1
   3   7  19    6.50    4.79   1
   3   7  20   13.32    5.69   1
   3   8 -15   16.89    4.93   1
   3   8 -14   14.21    4.22   1
   3   8 -13    9.30    3.78   1
   3   8 -12  121.00    9.02   1
   3   8 -11    0.79    4.08   1
   3   8 -10    4.00    2.48   1
   3   8  -9    1.10    2.10   1
   3   8  -8  321.13   11.47   1
   3   8  -7    0.79    1.80   1
   3   8  -6   52.85    3.20   1
   3   8  -5    6.30    1.41   1
   3   8  -4  160.28    5.06   1
   3   8  -3   15.52    1.42   1
   3   8  -2   44.76    1.87   1
   3   8  -1  171.35    5.24   1
   3   8   0    4.08    1.01   1
   3   8   1   14.52    1.37   1
   3   8   2   14.67    1.00   1
   3   8   3  323.28    7.55   1
   3   8   4   61.47    2.04   1
   3   8   5  206.78    6.04   1
   3   8   6   91.58    2.68   1
   3   8   7  217.27    6.49   1
   3   8   8    7.67    1.50   1
   3   8   9   61.47    2.67   1
   3   8  10   31.47    2.36   1
   3   8  11   25.40    2.02   1
   3   8  12   15.68    1.82   1
   3   8  13    2.89    1.39   1
   3   8  14   43.56    3.17   1
   3   8  15   -0.40    3.09   1
   3   8  16   75.69    5.92   1
   3   8  17   11.09    3.60   1
   3   8  18   -6.30    4.92   1
   3   8  19    6.20    4.98   1
   3   8  20   61.78    8.02   1
   3   9 -14    6.92    4.00   1
   3   9 -13   12.39    3.73   1
   3   9 -12    3.20    3.11   1
   3   9 -11    1.59    3.88   1
   3   9  -9   10.37    3.03   1
   3   9  -8   63.04    3.97   1
   3   9  -7    4.41    2.02   1
   3   9  -6   -2.31    1.70   1
   3   9  -5  136.66    4.44   1
   3   9  -4   18.84    1.30   1
   3   9  -3   17.14    1.41   1
   3   9  -2   31.14    1.67   1
   3   9  -1  497.74   12.94   1
   3   9   0  299.64    6.92   1
   3   9   1    1.80    1.10   1
   3   9   2    4.28    0.99   1
   3   9   3  142.32    3.82   1
   3   9   4    7.78    0.89   1
   3   9   5   68.23    2.48   1
   3   9   6   99.40    2.99   1
   3   9   7    3.31    1.49   1
   3   9   8    8.58    1.41   1
   3   9   9   70.56    3.02   1
   3   9  10   45.16    2.15   1
   3   9  11    0.10    1.92   1
   3   9  12   31.81    2.26   1
   3   9  13   15.68    2.22   1
   3   9  14   59.14    4.00   1
   3   9  15   88.92    6.41   1
   3   9  16   15.13    4.28   1
   3   9  17   40.20    5.58   1
   3   9  18   75.86    7.14   1
   3   9  19    0.40    4.59   1
   3  10 -13    7.18    5.68   1
   3  10 -12    6.00    3.58   1
   3  10 -11   27.14    4.17   1
   3  10 -10   11.02    4.91   1
   3  10  -9   35.88    3.71   1
   3  10  -8   82.26    6.71   1
   3  10  -7   22.75    2.77   1
   3  10  -6   69.06    3.99   1
   3  10  -5   33.06    2.07   1
   3  10  -4   43.16    2.23   1
   3  10  -3   40.45    2.04   1
   3  10  -2   66.59    2.94   1
   3  10  -1   62.73    2.06   1
   3  10   0   46.51    2.18   1
   3  10   1  121.66    3.75   1
   3  10   2   11.02    1.20   1
   3  10   3  122.32    3.54   1
   3  10   4  263.41    6.82   1
   3  10   5    8.29    1.32   1
   3  10   6   16.32    1.29   1
   3  10   7  166.93    5.68   1
   3  10   8    4.58    1.28   1
   3  10   9    4.71    1.30   1
   3  10  10   15.37    1.96   1
   3  10  11  110.46    4.62   1
   3  10  12   82.26    3.99   1
   3  10  13   87.42    6.36   1
   3  10  14   12.82    3.29   1
   3  10  15    6.50    3.42   1
   3  10  16   45.83    5.15   1
   3  10  17  115.99    9.69   1
   3  10  18    5.02    3.58   1
   3  10  19    8.41    4.99   1
   3  11 -13   21.72    5.59   1
   3  11 -12   -2.40    5.39   1
   3  11 -11   23.33    5.12   1
   3  11 -10   40.45    5.22   1
   3  11  -9   61.15    7.04   1
   3  11  -8    5.52    2.59   1
   3  11  -7    5.02    3.90   1
   3  11  -6    3.50    1.50   1
   3  11  -5    0.79    1.39   1
   3  11  -4   13.69    1.33   1
   3  11  -3    8.70    1.59   1
   3  11  -2   38.44    1.86   1
   3  11  -1   26.21    1.74   1
   3  11   0  104.86    3.89   1
   3  11   1   28.52    1.60   1
   3  11   2  102.21    3.24   1
   3  11   3  119.90    3.50   1
   3  11   4   54.46    2.36   1
   3  11   5   15.13    1.40   1
   3  11   6  141.85    4.53   1
   3  11   7   78.50    3.54   1
   3  11   8    5.90    1.60   1
   3  11   9  112.36    4.66   1
   3  11  10   42.64    2.74   1
   3  11  11    2.31    1.61   1
   3  11  12  151.54    6.16   1
   3  11  13   20.16    2.87   1
   3  11  14    1.80    2.09   1
   3  11  15  108.78    6.88   1
   3  11  16   -0.79    2.79   1
   3  11  17    3.10    4.19   1
   3  11  18    6.00    4.02   1
   3  11  19   14.67    5.59   1
   3  12 -12    0.90    3.61   1
   3  12 -11   23.91    4.99   1
   3  12 -10    1.39    4.70   1
   3  12  -9   30.25    4.40   1
   3  12  -8   38.44    5.08   1
   3  12  -7    7.08    2.87   1
   3  12  -6    6.71    2.12   1
   3  12  -5   18.23    1.96   1
   3  12  -4    6.92    1.68   1
   3  12  -3    7.29    1.67   1
   3  12  -2    4.20    1.52   1
   3  12  -1    7.62    1.32   1
   3  12   0   76.91    3.33   1
   3  12   1   33.06    2.07   1
   3  12   2   45.16    1.75   1
   3  12   3   39.31    2.01   1
   3  12   4  479.61   12.70   1
   3  12   5   92.54    3.08   1
   3  12   6   29.81    1.75   1
   3  12   7   86.86    3.54   1
   3  12   8  113.21    4.89   1
   3  12   9   15.92    2.47   1
   3  12  10   10.50    2.40   1
   3  12  11   73.96    4.13   1
   3  12  12    2.10    2.90   1
   3  12  13   20.61    3.72   1
   3  12  14    0.59    3.28   1
   3  12  15    5.52    3.90   1
   3  12  16    8.41    4.18   1
   3  12  17   24.60    5.06   1
   3  12  18   -1.10    2.90   1
   3  13 -10   -0.50    4.02   1
   3  13  -9   11.29    4.57   1
   3  13  -8    3.10    4.61   1
   3  13  -7   67.08    5.90   1
   3  13  -6    2.99    1.90   1
   3  13  -5    5.52    1.60   1
   3  13  -4    4.08    1.90   1
   3  13  -3   19.54    2.03   1
   3  13  -2   50.98    2.86   1
   3  13  -1    6.50    1.48   1
   3  13   0    8.01    1.53   1
   3  13   1  263.74    7.15   1
   3  13   2  182.79    5.14   1
   3  13   3    3.39    1.29   1
   3  13   4    4.08    1.49   1
   3  13   5    2.59    1.51   1
   3  13   6  135.72    4.19   1
   3  13   7    6.20    2.09   1
   3  13   8   81.36    3.97   1
   3  13   9    5.11    2.31   1
   3  13  10    8.58    1.99   1
   3  13  11   65.45    6.15   1
   3  13  12   62.09    4.73   1
   3  13  13   36.24    4.45   1
   3  13  14   16.00    3.92   1
   3  13  15   87.61    7.86   1
   3  13  16   -1.90    3.70   1
   3  13  17    8.58    4.51   1
   3  13  18    1.90    3.70   1
   3  14  -9   28.30    6.49   1
   3  14  -8    3.61    3.12   1
   3  14  -7    1.30    4.61   1
   3  14  -6   31.58    3.03   1
   3  14  -5   39.44    3.27   1
   3  14  -4    7.90    2.02   1
   3  14  -3   47.75    3.45   1
   3  14  -2   29.81    2.40   1
   3  14  -1    9.12    2.30   1
   3  14   0   -1.99    2.20   1
   3  14   1   32.15    2.15   1
   3  14   2  131.33    5.04   1
   3  14   3  461.39   13.75   1
   3  14   4  246.49    7.22   1
   3  14   5   87.42    3.55   1
   3  14   6    4.28    1.49   1
   3  14   7   63.20    3.82   1
   3  14   8  262.12   10.69   1
   3  14   9   77.62    5.46   1
   3  14  10    4.00    3.20   1
   3  14  11    5.02    3.00   1
   3  14  12    4.08    3.47   1
   3  14  13   55.95    4.34   1
   3  14  14   -3.50    3.70   1
   3  14  15    6.10    4.20   1
   3  14  16    8.58    4.69   1
   3  14  17   24.40    5.83   1
   3  15  -8    5.02    4.12   1
   3  15  -7   59.44    9.10   1
   3  15  -6    1.80    3.70   1
   3  15  -5   -3.20    2.40   1
   3  15  -4    1.00    2.30   1
   3  15  -3   36.36    3.02   1
   3  15  -2    0.90    2.39   1
   3  15  -1   47.75    3.45   1
   3  15   0    6.00    1.72   1
   3  15   1    1.99    1.38   1
   3  15   2   32.04    2.04   1
   3  15   3   11.42    1.49   1
   3  15   4   45.02    2.82   1
   3  15   5   27.88    2.64   1
   3  15   6  139.00    5.42   1
   3  15   7   11.09    3.60   1
   3  15   8   71.57    5.08   1
   3  15   9    3.69    2.19   1
   3  15  10   24.70    3.98   1
   3  15  11    4.08    3.39   1
   3  15  12   22.18    4.43   1
   3  15  13   -1.10    2.50   1
   3  15  14   13.76    4.53   1
   3  15  15   16.32    4.61   1
   3  15  16   16.97    5.27   1
   3  16  -6    9.42    4.73   1
   3  16  -5   53.29    7.01   1
   3  16  -4    3.20    3.19   1
   3  16  -3   35.05    3.55   1
   3  16  -2    5.11    2.62   1
   3  16  -1   19.71    2.40   1
   3  16   0    7.62    1.71   1
   3  16   1   72.93    3.59   1
   3  16   2    4.49    1.78   1
   3  16   3   13.03    2.02   1
   3  16   4   54.02    3.23   1
   3  16   5    3.50    1.68   1
   3  16   6   -1.39    1.79   1
   3  16   7   64.96    5.96   1
   3  16   8   33.29    4.85   1
   3  16   9    4.28    3.60   1
   3  16  10    9.30    2.81   1
   3  16  11   30.91    4.34   1
   3  16  12    2.69    4.10   1
   3  16  13   -7.90    4.38   1
   3  16  14    5.62    4.60   1
   3  16  15   10.63    4.89   1
   3  17  -5   30.47    7.07   1
   3  17  -4   -2.40    4.99   1
   3  17  -3   28.52    6.84   1
   3  17  -2    5.11    2.62   1
   3  17  -1    7.18    1.82   1
   3  17   0   21.16    2.12   1
   3  17   1    8.70    2.01   1
   3  17   2   -2.99    2.01   1
   3  17   3   41.34    2.83   1
   3  17   4    3.50    1.61   1
   3  17   5   -0.40    1.79   1
   3  17   6   46.38    5.45   1
   3  17   7    2.19    4.00   1
   3  17   8   51.70    4.75   1
   3  17   9    2.31    4.10   1
   3  17  10    2.99    4.29   1
   3  17  11    2.69    4.40   1
   3  17  12   22.28    3.78   1
   3  17  13    6.92    4.63   1
   3  18  -2   -0.50    4.81   1
   3  18  -1    6.71    3.63   1
   3  18   0    6.20    4.18   1
   3  18   1   33.41    2.66   1
   3  18   2    2.50    2.09   1
   3  18   3    9.12    2.17   1
   3  18   4   17.39    2.09   1
   3  18   5   28.41    2.98   1
   3  18   6   19.10    4.46   1
   3  18   7   33.76    5.23   1
   3  18   8    6.92    4.10   1
   3  18   9    1.90    4.61   1
   3  18  10    8.53    4.50   1
   3  18  11   -3.80    3.20   1
   3  18  12   -1.30    5.29   1
   3  19   1   -6.00    5.19   1
   3  19   2    1.10    3.91   1
   3  19   3   26.01    6.12   1
   3  19   4    5.02    3.40   1
   3  19   5    6.20    5.58   1
   3  19   6    4.00    4.92   1
   3  19   7    6.40    5.21   1
   3  19   8    0.71    5.33   1
   3  19   9   36.84    5.83   1
   4 -17  -9   16.73    5.64   1
   4 -17  -8    3.69    4.88   1
   4 -17  -6   -1.21    3.92   1
   4 -17  -5    8.53    4.73   1
   4 -17  -4    3.61    5.70   1
   4 -17  -3   34.46    6.10   1
   4 -17  -2    7.08    6.38   1
   4 -17  -1   -2.79    6.28   1
   4 -17   0    4.28    4.39   1
   4 -17   1   24.30    7.20   1
   4 -16 -11    7.29    4.10   1
   4 -16 -10    2.40    5.11   1
   4 -16  -9    8.12    5.93   1
   4 -16  -8   -1.30    5.49   1
   4 -16  -7   43.96    6.10   1
   4 -16  -6   -1.80    5.60   1
   4 -16  -5    9.61    4.28   1
   4 -16  -4   10.63    6.13   1
   4 -16  -3   -2.40    3.32   1
   4 -16  -2    4.71    5.99   1
   4 -16  -1   29.05    5.71   1
   4 -16   0    8.70    4.19   1
   4 -16   1   13.03    5.49   1
   4 -16   2   -4.20    3.81   1
   4 -16   3   11.09    4.60   1
   4 -16   4    0.90    6.00   1
   4 -15 -13    6.10    5.98   1
   4 -15 -12   70.06    8.04   1
   4 -15 -11   43.03    7.87   1
   4 -15 -10    2.89    5.98   1
   4 -15  -9   40.58    5.35   1
   4 -15  -8    1.99    4.60   1
   4 -15  -7    6.30    4.62   1
   4 -15  -6   -0.59    3.37   1
   4 -15  -5   10.50    5.51   1
   4 -15  -4    2.10    4.49   1
   4 -15  -3   18.49    3.70   1
   4 -15  -2    3.50    4.79   1
   4 -15  -1    2.79    5.58   1
   4 -15   0   -4.58    3.89   1
   4 -15   1  106.50   10.73   1
   4 -15   2   46.38    6.40   1
   4 -15   3   15.21    5.07   1
   4 -15   4   -2.99    3.91   1
   4 -15   5    9.99    6.51   1
   4 -15   6    1.90    4.91   1
   4 -14 -14   15.37    4.63   1
   4 -14 -13   29.16    6.80   1
   4 -14 -12    1.69    5.98   1
   4 -14 -11    5.11    5.20   1
   4 -14 -10   66.42    7.01   1
   4 -14  -9    8.82    4.69   1
   4 -14  -8    1.39    4.98   1
   4 -14  -7    5.71    2.92   1
   4 -14  -6   29.70    5.45   1
   4 -14  -5    5.02    4.12   1
   4 -14  -4    4.20    3.61   1
   4 -14  -3    3.88    3.19   1
   4 -14  -2   32.95    5.51   1
   4 -14  -1    5.20    4.70   1
   4 -14   0    0.30    4.52   1
   4 -14   1   11.22    3.22   1
   4 -14   2   50.27    5.96   1
   4 -14   3    7.29    5.08   1
   4 -14   4   29.05    5.28   1
   4 -14   5    5.90    3.99   1
   4 -14   6   -0.50    3.62   1
   4 -14   7    0.79    5.87   1
   4 -14   8    4.71    4.99   1
   4 -13 -15    2.31    6.41   1
   4 -13 -14    8.01    4.58   1
   4 -13 -13   -5.90    3.50   1
   4 -13 -12    2.99    3.81   1
   4 -13 -11    9.49    2.53   1
   4 -13 -10    6.00    2.30   1
   4 -13  -9   19.54    2.21   1
   4 -13  -8   14.06    1.50   1
   4 -13  -7    4.08    4.28   1
   4 -13  -6   87.98    6.94   1
   4 -13  -5   67.73    5.60   1
   4 -13  -4    0.50    2.31   1
   4 -13  -3    9.92    4.09   1
   4 -13  -2    7.67    4.49   1
   4 -13  -1   -2.79    3.91   1
   4 -13   0   10.89    4.62   1
   4 -13   1  105.68    8.22   1
   4 -13   2    8.88    4.41   1
   4 -13   3   35.40    5.00   1
   4 -13   4   16.32    3.80   1
   4 -13   5   -0.10    3.74   1
   4 -13   6    5.81    4.63   1
   4 -13   7   19.54    6.36   1
   4 -13   8   12.11    4.52   1
   4 -12 -16   74.30    8.62   1
   4 -12 -15   26.01    6.94   1
   4 -12 -14   20.16    6.56   1
   4 -12 -13   17.31    2.50   1
   4 -12 -12    6.40    2.38   1
   4 -12 -11   33.76    3.14   1
   4 -12 -10  191.55    9.69   1
   4 -12  -9   -0.30    1.31   1
   4 -12  -8   21.16    1.84   1
   4 -12  -7    5.81    1.01   1
   4 -12  -6   -4.88    2.61   1
   4 -12  -5   19.98    3.22   1
   4 -12  -4    1.49    2.78   1
   4 -12  -3   25.60    3.24   1
   4 -12  -2    7.08    2.87   1
   4 -12  -1   20.43    3.44   1
   4 -12   0   37.58    3.56   1
   4 -12   1    1.99    2.99   1
   4 -12   2   51.55    6.17   1
   4 -12   3   18.84    4.08   1
   4 -12   4   78.50    6.73   1
   4 -12   5   40.45    5.85   1
   4 -12   6   10.69    4.58   1
   4 -12   7    9.61    3.47   1
   4 -12   8   17.22    4.57   1
   4 -12  10    2.19    4.38   1
   4 -11 -17    5.71    6.31   1
   4 -11 -16    5.02    4.30   1
   4 -11 -15   11.22    4.42   1
   4 -11 -14   27.67    5.58   1
   4 -11 -13   -3.88    5.08   1
   4 -11 -12   11.22    4.02   1
   4 -11 -11   57.61    6.07   1
   4 -11 -10   23.14    2.12   1
   4 -11  -9    3.61    1.52   1
   4 -11  -8   36.36    2.17   1
   4 -11  -7    1.00    1.10   1
   4 -11  -6    4.88    0.88   1
   4 -11  -5   23.72    2.63   1
   4 -11  -4   63.84    3.52   1
   4 -11  -3    4.08    2.10   1
   4 -11  -2    0.50    1.80   1
   4 -11  -1   52.85    3.20   1
   4 -11   0   19.27    2.37   1
   4 -11   1  338.93   13.62   1
   4 -11   2   79.57    4.46   1
   4 -11   3   51.41    3.59   1
   4 -11   4   47.89    5.81   1
   4 -11   5   32.04    4.75   1
   4 -11   6   -5.02    2.42   1
   4 -11   7   -0.79    2.79   1
   4 -11   8   25.70    4.56   1
   4 -11  10   -1.49    4.59   1
   4 -11  11   11.02    4.32   1
   4 -11  12   11.29    6.18   1
   4 -10 -17   20.88    5.21   1
   4 -10 -16   13.10    6.73   1
   4 -10 -15    5.52    3.52   1
   4 -10 -14  105.47    9.65   1
   4 -10 -13  109.41    8.58   1
   4 -10 -12   11.97    4.57   1
   4 -10 -11   26.11    3.58   1
   4 -10 -10   69.89    4.85   1
   4 -10  -9   16.56    2.36   1
   4 -10  -8   27.67    3.05   1
   4 -10  -7    2.50    1.20   1
   4 -10  -6    7.51    0.99   1
   4 -10  -5   50.84    2.00   1
   4 -10  -4  106.50    4.54   1
   4 -10  -3    5.29    2.30   1
   4 -10  -2    4.80    1.88   1
   4 -10  -1    5.38    2.18   1
   4 -10   0  437.23   15.06   1
   4 -10   1   21.90    2.53   1
   4 -10   2    4.08    1.98   1
   4 -10   3   22.66    2.67   1
   4 -10   4    4.08    2.18   1
   4 -10   5    2.89    1.70   1
   4 -10   6    2.50    2.40   1
   4 -10   7   -1.59    2.49   1
   4 -10   8    4.58    3.00   1
   4 -10  10    5.52    3.99   1
   4 -10  11   38.07    6.05   1
   4 -10  12   -0.71    5.43   1
   4 -10  13    6.50    4.28   1
   4  -9 -18    3.69    3.61   1
   4  -9 -17    8.58    4.69   1
   4  -9 -16    9.18    5.51   1
   4  -9 -15   55.65    6.86   1
   4  -9 -14   57.15    7.11   1
   4  -9 -13    0.10    4.45   1
   4  -9 -12   16.48    3.33   1
   4  -9 -11  113.42    5.96   1
   4  -9 -10    5.11    2.89   1
   4  -9  -9    6.30    2.11   1
   4  -9  -8   17.22    2.82   1
   4  -9  -7   11.22    2.21   1
   4  -9  -6  129.96    4.79   1
   4  -9  -5   14.67    1.00   1
   4  -9  -4   51.12    3.29   1
   4  -9  -3   75.34    2.95   1
   4  -9  -2   43.30    3.03   1
   4  -9  -1    1.90    1.49   1
   4  -9   0   65.12    3.39   1
   4  -9   1   23.81    2.54   1
   4  -9   2  101.61    4.64   1
   4  -9   3   -1.21    2.31   1
   4  -9   4   -2.89    2.38   1
   4  -9   5    6.92    2.00   1
   4  -9   6   43.96    3.05   1
   4  -9   7  230.13   10.01   1
   4  -9   8    3.80    3.00   1
   4  -9  10   23.52    3.88   1
   4  -9  11   76.91    7.54   1
   4  -9  12    1.90    3.20   1
   4  -9  13    6.10    5.48   1
   4  -9  14    1.21    4.51   1
   4  -8 -18    5.62    4.41   1
   4  -8 -17   24.01    6.17   1
   4  -8 -16   -2.10    4.81   1
   4  -8 -15   -2.99    2.91   1
   4  -8 -14   20.61    5.08   1
   4  -8 -13    2.99    3.49   1
   4  -8 -12   91.78    4.79   1
   4  -8 -11    8.18    2.52   1
   4  -8 -10    8.53    2.63   1
   4  -8  -9  226.20    8.42   1
   4  -8  -8  275.89    9.30   1
   4  -8  -7    9.80    1.88   1
   4  -8  -6   96.04    3.72   1
   4  -8  -5    5.38    1.72   1
   4  -8  -4  312.94    8.85   1
   4  -8  -3    4.58    2.18   1
   4  -8  -2    8.29    1.61   1
   4  -8  -1    6.60    1.49   1
   4  -8   0   86.86    3.73   1
   4  -8   1    3.61    1.60   1
   4  -8   2   83.72    3.84   1
   4  -8   3   16.00    2.00   1
   4  -8   4    1.10    2.10   1
   4  -8   5    5.20    1.50   1
   4  -8   6   39.94    3.03   1
   4  -8   7   -0.59    1.99   1
   4  -8   8   36.48    3.26   1
   4  -8  11   16.08    3.29   1
   4  -8  12    5.71    4.30   1
   4  -8  13   17.98    4.92   1
   4  -8  14   -5.71    5.21   1
   4  -7 -18   -2.50    6.19   1
   4  -7 -17   21.81    6.54   1
   4  -7 -16    3.31    3.60   1
   4  -7 -15   66.42    6.68   1
   4  -7 -14    7.62    4.53   1
   4  -7 -13   13.99    2.77   1
   4  -7 -12   45.16    3.76   1
   4  -7 -11  125.44    5.38   1
   4  -7 -10   34.34    2.81   1
   4  -7  -9  400.80   13.61   1
   4  -7  -8   73.27    3.42   1
   4  -7  -7    4.49    1.70   1
   4  -7  -6  153.26    5.45   1
   4  -7  -5  170.30    5.48   1
   4  -7  -4    4.28    1.70   1
   4  -7  -3  750.76   21.37   1
   4  -7  -2   11.83    1.79   1
   4  -7  -1   -0.59    1.59   1
   4  -7   0  267.98    9.82   1
   4  -7   1  115.99    4.74   1
   4  -7   2   -1.90    1.30   1
   4  -7   3    8.12    1.88   1
   4  -7   4  771.17   28.88   1
   4  -7   5   17.31    2.08   1
   4  -7   6   77.79    3.88   1
   4  -7   7   54.91    3.41   1
   4  -7   8   74.65    3.63   1
   4  -7   9   50.84    3.85   1
   4  -7  10   77.44    6.16   1
   4  -7  11   32.83    5.39   1
   4  -7  12    6.81    3.50   1
   4  -7  13    2.50    3.10   1
   4  -7  15    5.90    5.39   1
   4  -6 -18    0.90    3.31   1
   4  -6 -17    2.31    3.62   1
   4  -6 -16   62.09    5.36   1
   4  -6 -15   14.90    4.79   1
   4  -6 -14    7.78    4.07   1
   4  -6 -13   16.56    2.60   1
   4  -6 -12   25.30    2.92   1
   4  -6 -11   19.36    2.99   1
   4  -6 -10   93.12    5.02   1
   4  -6  -9   18.84    1.91   1
   4  -6  -8    3.61    1.79   1
   4  -6  -7   57.00    2.72   1
   4  -6  -6   94.67    3.11   1
   4  -6  -5   48.86    2.66   1
   4  -6  -4   63.84    2.56   1
   4  -6  -3  174.50    5.55   1
   4  -6  -2   22.56    2.09   1
   4  -6  -1 1004.26   28.52   1
   4  -6   0  220.52    6.83   1
   4  -6   1   78.32    3.36   1
   4  -6   2  350.06   11.23   1
   4  -6   3   53.44    2.92   1
   4  -6   4   92.93    4.24   1
   4  -6   5    1.90    1.79   1
   4  -6   6  457.53   17.11   1
   4  -6   7   29.27    3.14   1
   4  -6   8  190.99   10.78   1
   4  -6   9   39.06    4.25   1
   4  -6  10   42.12    3.50   1
   4  -6  11   -1.21    3.52   1
   4  -6  12   57.46    5.15   1
   4  -6  13    5.52    4.32   1
   4  -6  14    2.40    3.50   1
   4  -6  15   -0.10    5.06   1
   4  -5 -19    2.79    6.68   1
   4  -5 -18   17.31    4.91   1
   4  -5 -17   10.30    3.72   1
   4  -5 -16   15.76    5.40   1
   4  -5 -15   11.42    4.33   1
   4  -5 -14   41.09    5.51   1
   4  -5 -13    3.31    2.00   1
   4  -5 -12  103.02    4.87   1
   4  -5 -11   18.32    2.82   1
   4  -5 -10    2.59    2.00   1
   4  -5  -9   87.42    3.74   1
   4  -5  -8    1.49    2.00   1
   4  -5  -7   29.70    2.18   1
   4  -5  -6  189.06    5.77   1
   4  -5  -5 1023.36   30.07   1
   4  -5  -4  235.32    6.44   1
   4  -5  -3  265.04    8.79   1
   4  -5  -2 1008.06   26.03   1
   4  -5  -1  165.38    4.12   1
   4  -5   0    6.81    1.10   1
   4  -5   1  499.97   14.31   1
   4  -5   2   60.53    2.33   1
   4  -5   3  193.49    6.12   1
   4  -5   4    6.40    1.42   1
   4  -5   5   19.98    1.79   1
   4  -5   6   89.11    4.15   1
   4  -5   7   49.84    2.97   1
   4  -5   8  249.32   13.26   1
   4  -5   9    5.90    2.28   1
   4  -5  10  267.65    9.49   1
   4  -5  11   26.73    2.90   1
   4  -5  12    5.52    2.82   1
   4  -5  13    9.92    4.54   1
   4  -5  14    6.30    3.41   1
   4  -5  15   13.18    4.79   1
   4  -5  16    8.29    4.90   1
   4  -5  17    6.00    4.41   1
   4  -4 -19   -2.50    5.31   1
   4  -4 -18    6.10    5.78   1
   4  -4 -17   19.54    4.86   1
   4  -4 -16   17.31    5.32   1
   4  -4 -15    3.61    4.52   1
   4  -4 -14    2.79    2.61   1
   4  -4 -13  111.72    5.71   1
   4  -4 -12   76.04    4.36   1
   4  -4 -11    2.40    2.11   1
   4  -4 -10  151.29    6.15   1
   4  -4  -9  805.99   27.82   1
   4  -4  -8   55.35    2.98   1
   4  -4  -7    6.00    2.20   1
   4  -4  -6   36.97    2.07   1
   4  -4  -5   52.42    2.90   1
   4  -4  -4   19.98    2.68   1
   4  -4  -3  836.37   24.87   1
   4  -4  -2   27.25    1.98   1
   4  -4  -1 1881.82   53.79   1
   4  -4   0   56.25    1.80   1
   4  -4   1   -1.80    0.99   1
   4  -4   2  530.38   14.74   1
   4  -4   3  559.80   14.67   1
   4  -4   4   95.06    3.70   1
   4  -4   5    1.69    1.30   1
   4  -4   6  623.50   20.97   1
   4  -4   7   10.89    2.18   1
   4  -4   8   13.91    1.72   1
   4  -4   9    3.61    1.71   1
   4  -4  10    4.28    1.99   1
   4  -4  11   18.49    2.24   1
   4  -4  12   83.36    6.03   1
   4  -4  13   14.21    4.22   1
   4  -4  14   -1.00    2.70   1
   4  -4  15   19.36    5.63   1
   4  -4  16    0.79    4.38   1
   4  -4  17   -0.10    3.64   1
   4  -3 -19    9.80    5.01   1
   4  -3 -18   40.07    6.84   1
   4  -3 -17   19.62    4.16   1
   4  -3 -16   -0.20    4.83   1
   4  -3 -15   16.81    4.51   1
   4  -3 -14  132.02    6.89   1
   4  -3 -13    6.71    2.38   1
   4  -3 -12  131.79    5.74   1
   4  -3 -11   63.04    3.65   1
   4  -3 -10  461.39   15.04   1
   4  -3  -9  144.00    6.00   1
   4  -3  -8   -0.71    1.81   1
   4  -3  -7   90.44    3.42   1
   4  -3  -6  256.00    7.68   1
   4  -3  -5 1140.41   32.42   1
   4  -3  -4 1325.69   40.78   1
   4  -3  -3  502.21   15.69   1
   4  -3  -2  496.84   15.60   1
   4  -3  -1  972.82   26.82   1
   4  -3   0  108.99    2.71   1
   4  -3   1  197.96    4.78   1
   4  -3   2 1609.61   46.54   1
   4  -3   3   51.98    2.74   1
   4  -3   4  260.18    7.74   1
   4  -3   5  520.75   15.97   1
   4  -3   6   23.33    1.74   1
   4  -3   7   14.59    1.53   1
   4  -3   8   41.47    2.45   1
   4  -3   9    5.71    0.62   1
   4  -3  10  196.00    7.00   1
   4  -3  11   44.62    2.00   1
   4  -3  12   26.32    2.87   1
   4  -3  13   45.83    4.47   1
   4  -3  14   16.48    4.71   1
   4  -3  15    2.50    3.60   1
   4  -3  16    1.99    3.69   1
   4  -3  17   -0.10    3.44   1
   4  -3  18    7.78    3.68   1
   4  -2 -19   -7.62    6.13   1
   4  -2 -18    1.49    6.17   1
   4  -2 -17   -7.02    3.39   1
   4  -2 -16   48.30    5.00   1
   4  -2 -14   11.29    3.83   1
   4  -2 -13    1.21    2.31   1
   4  -2 -12   31.70    3.15   1
   4  -2 -11   90.82    4.38   1
   4  -2 -10  348.94   13.08   1
   4  -2  -9  145.68    6.03   1
   4  -2  -8  441.84   16.82   1
   4  -2  -7   94.87    3.90   1
   4  -2  -6  733.87   22.76   1
   4  -2  -5  123.43    4.44   1
   4  -2  -4   32.95    2.41   1
   4  -2  -3 1337.36   40.23   1
   4  -2  -2    4.80    1.01   1
   4  -2  -1  269.29    8.20   1
   4  -2   0   47.47    1.93   1
   4  -2   1   19.98    1.07   1
   4  -2   2  460.10   11.15   1
   4  -2   3  403.21   11.65   1
   4  -2   4    7.40    0.82   1
   4  -2   5  345.59    8.18   1
   4  -2   6   59.44    2.31   1
   4  -2   7   43.82    1.99   1
   4  -2   8   47.89    1.94   1
   4  -2   9   86.68    3.35   1
   4  -2  10   50.84    2.99   1
   4  -2  11   33.29    2.88   1
   4  -2  12  239.63    9.60   1
   4  -2  13    3.88    2.40   1
   4  -2  14   24.01    4.31   1
   4  -2  15   10.11    3.31   1
   4  -2  16    1.69    2.70   1
   4  -2  17   -1.21    3.01   1
   4  -2  18    4.28    3.89   1
   4  -1 -18   31.70    4.95   1
   4  -1 -17    7.18    4.40   1
   4  -1 -16    2.99    2.91   1
   4  -1 -15    3.88    3.31   1
   4  -1 -14  230.74   13.37   1
   4  -1 -13    5.38    2.60   1
   4  -1 -12   66.42    4.07   1
   4  -1 -11   -2.50    2.09   1
   4  -1 -10  371.33   14.65   1
   4  -1  -9   28.41    2.13   1
   4  -1  -8  618.02   19.39   1
   4  -1  -7   28.62    2.14   1
   4  -1  -6  182.52    5.13   1
   4  -1  -5    4.88    1.19   1
   4  -1  -4   85.38    2.96   1
   4  -1  -3  578.40   17.80   1
   4  -1  -2   25.10    1.40   1
   4  -1  -1    7.29    0.81   1
   4  -1   0  147.38    4.61   1
   4  -1   1 1247.50   32.49   1
   4  -1   2   44.22    1.33   1
   4  -1   3    7.18    0.48   1
   4  -1   4  181.44    4.85   1
   4  -1   5 1077.81   32.17   1
   4  -1   6  140.66    3.56   1
   4  -1   7  458.39   11.56   1
   4  -1   8   14.82    1.69   1
   4  -1   9   89.68    4.36   1
   4  -1  10   67.24    2.95   1
   4  -1  11    6.10    1.78   1
   4  -1  12    3.80    1.79   1
   4  -1  13   64.00    6.08   1
   4  -1  14   23.14    4.23   1
   4  -1  15    4.41    3.40   1
   4  -1  16   22.28    4.53   1
   4  -1  17    9.80    4.70   1
   4  -1  18   -1.59    4.28   1
   4   0 -18   20.61    5.90   1
   4   0 -17    0.40    3.59   1
   4   0 -16    4.08    4.81   1
   4   0 -15    5.29    2.81   1
   4   0 -14    0.40    2.89   1
   4   0 -13   64.32    4.17   1
   4   0 -12  132.48    8.75   1
   4   0 -11   22.75    2.58   1
   4   0 -10  349.69   13.46   1
   4   0  -9    8.29    1.73   1
   4   0  -8   48.16    4.16   1
   4   0  -7  213.45    7.89   1
   4   0  -6   80.64    3.23   1
   4   0  -5    4.00    1.28   1
   4   0  -4  111.30    3.80   1
   4   0  -3  100.00    3.40   1
   4   0  -2  138.30    4.70   1
   4   0  -1    1.80    0.59   1
   4   0   0  129.73    4.10   1
   4   0   1  102.62    2.23   1
   4   0   2  702.78   16.97   1
   4   0   3  845.06   19.19   1
   4   0   4   74.82    2.42   1
   4   0   5  284.26    7.08   1
   4   0   6    0.71    0.71   1
   4   0   7  363.28   11.82   1
   4   0   8   -1.30    1.30   1
   4   0   9   65.12    2.58   1
   4   0  10    2.40    1.71   1
   4   0  11  115.35    4.51   1
   4   0  12   28.20    2.55   1
   4   0  13   11.02    3.72   1
   4   0  14   40.20    3.42   1
   4   0  15  263.74   16.89   1
   4   0  16   -0.90    2.51   1
   4   0  17    2.99    2.70   1
   4   0  18   78.32    7.97   1
   4   0  19    4.80    3.99   1
   4   1 -18    2.99    4.50   1
   4   1 -17   25.91    6.01   1
   4   1 -16    2.19    3.29   1
   4   1 -15   -3.61    4.29   1
   4   1 -14   79.57    6.07   1
   4   1 -13  104.04    5.92   1
   4   1 -12   46.65    3.69   1
   4   1 -11    1.90    1.71   1
   4   1 -10   26.73    2.48   1
   4   1  -9  313.29   10.97   1
   4   1  -8  115.56    6.23   1
   4   1  -7  392.04   12.67   1
   4   1  -6    7.40    1.52   1
   4   1  -5    8.01    1.08   1
   4   1  -4  255.36    8.95   1
   4   1  -3   99.80    5.39   1
   4   1  -2  866.71   44.75   1
   4   1  -1  805.42   28.95   1
   4   1   0  113.64    3.20   1
   4   1   1  455.40   13.23   1
   4   1   2  958.52   22.91   1
   4   1   3  355.32    9.43   1
   4   1   4   17.81    0.76   1
   4   1   5   77.97    2.47   1
   4   1   6  246.18    7.53   1
   4   1   7  559.32   17.97   1
   4   1   8    5.71    1.48   1
   4   1   9   14.98    1.70   1
   4   1  10   12.53    1.77   1
   4   1  11  242.74    7.79   1
   4   1  12   29.92    2.41   1
   4   1  13  136.19    5.60   1
   4   1  14  193.77    8.07   1
   4   1  15   17.72    3.03   1
   4   1  16   53.14    5.10   1
   4   1  17   40.32    6.22   1
   4   1  18    0.50    4.12   1
   4   1  19   13.32    5.40   1
   4   2 -18   -2.10    3.60   1
   4   2 -17   19.18    5.87   1
   4   2 -16    1.10    4.81   1
   4   2 -15   65.77    6.33   1
   4   2 -14   -2.10    3.60   1
   4   2 -13    2.19    2.78   1
   4   2 -12    4.20    2.09   1
   4   2 -11   -1.30    1.71   1
   4   2 -10   30.14    2.96   1
   4   2  -9   25.91    2.04   1
   4   2  -8   11.02    1.99   1
   4   2  -7   38.19    2.22   1
   4   2  -6  310.82    9.87   1
   4   2  -5   91.01    3.43   1
   4   2  -4 1556.30   52.86   1
   4   2  -3 1003.62   35.48   1
   4   2  -2    2.99    0.90   1
   4   2  -1  273.90    7.94   1
   4   2   0  139.24    4.01   1
   4   2   1  415.75   10.60   1
   4   2   2  374.04   11.60   1
   4   2   3   49.28    1.54   1
   4   2   4  327.97    7.61   1
   4   2   5   14.29    0.91   1
   4   2   6  864.95   26.47   1
   4   2   7  299.29   17.99   1
   4   2   8   -0.50    0.91   1
   4   2   9  383.77   12.15   1
   4   2  10   89.68    4.17   1
   4   2  11   58.83    2.91   1
   4   2  12   -2.31    1.92   1
   4   2  13  133.63    8.55   1
   4   2  14   -0.79    2.58   1
   4   2  15  166.93   10.08   1
   4   2  16   64.16    5.29   1
   4   2  17   10.82    4.21   1
   4   2  19   33.64    4.76   1
   4   3 -17   10.30    3.53   1
   4   3 -16    2.40    4.71   1
   4   3 -15   70.90    7.24   1
   4   3 -14    3.10    3.20   1
   4   3 -13   21.53    4.18   1
   4   3 -12   65.77    5.68   1
   4   3 -11  124.99    5.59   1
   4   3 -10   33.18    2.65   1
   4   3  -9   75.86    3.48   1
   4   3  -8    5.02    1.70   1
   4   3  -7   57.15    2.87   1
   4   3  -6   31.92    1.92   1
   4   3  -5   80.28    2.87   1
   4   3  -4  373.65   15.85   1
   4   3  -3   50.84    2.14   1
   4   3  -2  279.56    9.70   1
   4   3  -1   91.97    2.69   1
   4   3   0   31.58    1.24   1
   4   3   1  177.69    4.80   1
   4   3   2  141.61    3.57   1
   4   3   3   92.16    2.88   1
   4   3   4  210.83    5.52   1
   4   3   5 1365.30   37.69   1
   4   3   6   23.04    1.44   1
   4   3   7  583.22   16.90   1
   4   3   8   -0.71    0.91   1
   4   3   9   26.63    1.65   1
   4   3  10   58.83    2.45   1
   4   3  11  305.90   10.49   1
   4   3  12  136.66    4.91   1
   4   3  13   60.84    3.43   1
   4   3  14    9.99    1.90   1
   4   3  15   95.84    7.05   1
   4   3  16   -1.80    2.09   1
   4   3  17  102.41    8.10   1
   4   3  18    6.92    3.10   1
   4   3  19    2.69    4.89   1
   4   4 -17    9.92    4.60   1
   4   4 -16    1.80    3.70   1
   4   4 -15   61.15    6.57   1
   4   4 -14   -7.18    3.91   1
   4   4 -13   34.34    4.45   1
   4   4 -12   -5.11    2.62   1
   4   4 -11    5.62    1.99   1
   4   4 -10   12.82    2.22   1
   4   4  -9   81.54    4.51   1
   4   4  -8   68.56    3.48   1
   4   4  -7  360.62   12.91   1
   4   4  -6   14.06    1.80   1
   4   4  -5  133.86    4.40   1
   4   4  -4 1120.24   61.58   1
   4   4  -3  223.20    5.68   1
   4   4  -2   27.04    1.35   1
   4   4  -1  154.75    4.98   1
   4   4   0  173.98    4.48   1
   4   4   1  408.44   12.13   1
   4   4   2   95.45    2.74   1
   4   4   3 1949.22   47.68   1
   4   4   4  474.80   13.51   1
   4   4   5   -0.30    0.61   1
   4   4   6 2774.13  103.23   1
   4   4   7  502.21   24.65   1
   4   4   8  131.33    3.90   1
   4   4   9    0.59    1.19   1
   4   4  10   76.04    2.96   1
   4   4  11    2.79    1.30   1
   4   4  12   29.81    2.07   1
   4   4  13  116.21    4.96   1
   4   4  14    1.39    2.19   1
   4   4  15    5.20    2.78   1
   4   4  16  126.79    9.01   1
   4   4  17   11.22    4.42   1
   4   4  18   -0.40    3.49   1
   4   4  19   48.16    6.66   1
   4   4  20    1.80    3.81   1
   4   5 -16   24.40    5.93   1
   4   5 -15   34.11    5.37   1
   4   5 -14    9.49    4.50   1
   4   5 -13    2.31    3.71   1
   4   5 -12    8.41    4.00   1
   4   5 -11    0.59    2.68   1
   4   5 -10    1.49    2.39   1
   4   5  -9  141.61    6.43   1
   4   5  -8    3.10    2.01   1
   4   5  -7   58.98    3.69   1
   4   5  -6  120.34    4.83   1
   4   5  -5  573.12   18.19   1
   4   5  -4   88.55    4.14   1
   4   5  -3    8.01    1.08   1
   4   5  -2 2215.58   85.67   1
   4   5  -1  116.86    3.03   1
   4   5   0  200.79    6.23   1
   4   5   1  105.47    2.88   1
   4   5   2   45.16    2.42   1
   4   5   3  265.36    6.52   1
   4   5   4  199.37    5.93   1
   4   5   5    1.59    0.60   1
   4   5   6   19.54    0.97   1
   4   5   7   59.44    3.24   1
   4   5   8  318.62   12.49   1
   4   5   9  662.55   24.20   1
   4   5  10   96.24    3.73   1
   4   5  11   16.81    1.89   1
   4   5  12    1.49    1.29   1
   4   5  13   23.04    3.36   1
   4   5  14    6.60    2.11   1
   4   5  15   22.37    3.78   1
   4   5  16   94.28    6.99   1
   4   5  17   44.62    5.34   1
   4   5  18    1.69    2.60   1
   4   5  19    6.30    5.02   1
   4   5  20    7.02    4.98   1
   4   6 -16   14.59    4.20   1
   4   6 -15   27.35    4.71   1
   4   6 -14    4.00    3.60   1
   4   6 -13  212.87   13.13   1
   4   6 -12    0.90    2.91   1
   4   6 -11   26.21    3.99   1
   4   6 -10   38.81    2.99   1
   4   6  -9    9.49    1.72   1
   4   6  -8    1.30    1.39   1
   4   6  -7  177.42    7.46   1
   4   6  -6   17.89    2.12   1
   4   6  -5   41.34    2.31   1
   4   6  -4  160.78    4.56   1
   4   6  -3  355.32   14.33   1
   4   6  -2   43.43    2.37   1
   4   6  -1   14.21    1.28   1
   4   6   0  544.76   16.80   1
   4   6   1   50.55    1.56   1
   4   6   2  154.26    3.48   1
   4   6   3  529.92   11.05   1
   4   6   4 1393.53   35.84   1
   4   6   5  693.27   17.38   1
   4   6   6 3226.24  138.59   1
   4   6   7  242.11    8.71   1
   4   6   8   27.04    1.35   1
   4   6   9   88.17    3.38   1
   4   6  10   98.41    4.56   1
   4   6  11    8.82    1.60   1
   4   6  12    0.50    1.51   1
   4   6  13    0.79    1.80   1
   4   6  14   59.44    3.24   1
   4   6  15    2.89    1.70   1
   4   6  16   14.59    2.90   1
   4   6  17    2.19    2.69   1
   4   6  18   33.99    3.96   1
   4   6  19   31.58    5.51   1
   4   6  20    7.67    5.37   1
   4   7 -15    4.58    4.71   1
   4   7 -14    4.49    3.31   1
   4   7 -13   18.40    4.12   1
   4   7 -12   -0.10    2.94   1
   4   7 -11   36.24    4.09   1
   4   7 -10    7.40    2.72   1
   4   7  -9   11.29    2.42   1
   4   7  -8    9.92    2.39   1
   4   7  -7  365.96   12.63   1
   4   7  -6    4.71    2.08   1
   4   7  -5  566.92   24.76   1
   4   7  -4   28.62    1.39   1
   4   7  -3   16.08    1.12   1
   4   7  -2  230.43    6.98   1
   4   7  -1   63.84    2.08   1
   4   7   0  684.87   18.32   1
   4   7   1  275.89    6.98   1
   4   7   2  505.80   10.35   1
   4   7   3    1.21    0.70   1
   4   7   4  245.24    6.26   1
   4   7   5  400.40   10.81   1
   4   7   6  152.52    4.45   1
   4   7   7   53.00    2.04   1
   4   7   8  232.56    6.71   1
   4   7   9   27.46    1.89   1
   4   7  10   94.48    3.50   1
   4   7  11  265.36    8.80   1
   4   7  12    6.50    1.89   1
   4   7  13    7.02    1.70   1
   4   7  14   24.50    2.28   1
   4   7  15   16.40    3.32   1
   4   7  16   29.92    4.38   1
   4   7  17  100.20    7.61   1
   4   7  18    4.28    4.39   1
   4   7  19   -0.59    4.47   1
   4   7  20   -3.10    5.21   1
   4   8 -15    4.49    4.71   1
   4   8 -14    2.79    3.81   1
   4   8 -13    2.89    3.09   1
   4   8 -12   28.62    4.49   1
   4   8 -11   14.21    3.62   1
   4   8 -10    2.69    4.00   1
   4   8  -9   25.50    3.23   1
   4   8  -8   34.81    2.71   1
   4   8  -7   60.53    3.27   1
   4   8  -6    4.20    2.21   1
   4   8  -5  172.40    5.25   1
   4   8  -4   25.40    1.61   1
   4   8  -3  730.62   20.54   1
   4   8  -2  121.66    4.19   1
   4   8  -1  243.67    7.18   1
   4   8   0    9.99    1.20   1
   4   8   1  315.77    8.89   1
   4   8   2  246.49    5.34   1
   4   8   3  345.96    8.18   1
   4   8   4   25.81    1.32   1
   4   8   5   39.82    1.51   1
   4   8   6  129.50    3.87   1
   4   8   7  103.84    3.67   1
   4   8   8   13.47    1.47   1
   4   8   9   64.96    3.22   1
   4   8  10  280.90    8.38   1
   4   8  11    2.79    1.90   1
   4   8  12  265.36    8.47   1
   4   8  13   -2.89    1.39   1
   4   8  14    0.59    1.49   1
   4   8  15   72.76    5.12   1
   4   8  16   26.52    3.61   1
   4   8  17    6.00    3.92   1
   4   8  18    1.80    4.69   1
   4   8  19   46.24    6.53   1
   4   9 -14   20.07    6.18   1
   4   9 -13   -5.38    5.01   1
   4   9 -12  108.78    9.18   1
   4   9 -11   18.40    3.78   1
   4   9 -10   11.09    3.73   1
   4   9  -9    7.62    3.42   1
   4   9  -8    3.88    1.81   1
   4   9  -7   66.26    4.07   1
   4   9  -6   13.40    2.12   1
   4   9  -5  124.77    4.47   1
   4   9  -4    4.08    1.78   1
   4   9  -3    2.69    1.08   1
   4   9  -2  163.58    4.86   1
   4   9  -1  144.00    4.08   1
   4   9   0   15.13    1.17   1
   4   9   1  166.93    4.65   1
   4   9   2  135.26    3.26   1
   4   9   3   40.07    1.52   1
   4   9   4   97.81    2.77   1
   4   9   5  121.44    3.31   1
   4   9   6    2.89    0.88   1
   4   9   7    0.40    0.89   1
   4   9   8  173.98    6.07   1
   4   9   9   43.69    2.12   1
   4   9  10   20.70    2.00   1
   4   9  11    4.49    1.48   1
   4   9  12   28.62    2.35   1
   4   9  13    0.50    2.00   1
   4   9  14   16.48    2.60   1
   4   9  15   11.97    2.70   1
   4   9  16    8.29    3.69   1
   4   9  17    2.79    3.31   1
   4   9  18   47.33    6.19   1
   4   9  19   11.49    4.61   1
   4  10 -13   19.62    5.58   1
   4  10 -12    5.62    4.69   1
   4  10 -11    9.00    3.60   1
   4  10 -10   29.92    4.05   1
   4  10  -9   11.02    4.18   1
   4  10  -8   75.86    6.10   1
   4  10  -7   20.34    2.80   1
   4  10  -6   79.03    4.09   1
   4  10  -5   58.52    2.75   1
   4  10  -4   48.86    2.38   1
   4  10  -3    5.38    1.48   1
   4  10  -2   77.26    3.16   1
   4  10  -1   64.16    2.72   1
   4  10   0    0.40    1.20   1
   4  10   1   10.37    1.22   1
   4  10   2   18.58    1.21   1
   4  10   3  165.64    4.38   1
   4  10   4   25.81    1.63   1
   4  10   5   52.56    2.03   1
   4  10   6   27.14    1.67   1
   4  10   7  197.40    5.90   1
   4  10   8    1.30    1.09   1
   4  10   9    7.51    1.48   1
   4  10  10   28.94    2.04   1
   4  10  11    1.80    2.01   1
   4  10  12  147.38    5.58   1
   4  10  13    7.08    2.07   1
   4  10  14    6.60    3.29   1
   4  10  15   15.13    3.42   1
   4  10  16   74.82    5.88   1
   4  10  17    1.10    3.91   1
   4  10  18    6.00    3.72   1
   4  10  19   -0.79    4.57   1
   4  11 -12    2.89    3.91   1
   4  11 -11   -0.20    4.63   1
   4  11 -10   31.58    5.73   1
   4  11  -9   -1.80    3.00   1
   4  11  -8   30.25    4.73   1
   4  11  -7   10.37    3.03   1
   4  11  -6    5.38    3.20   1
   4  11  -5   16.81    1.80   1
   4  11  -4   45.02    2.55   1
   4  11  -3   74.48    3.28   1
   4  11  -2   30.25    1.76   1
   4  11  -1    6.60    1.18   1
   4  11   0   10.30    1.48   1
   4  11   1  284.26    7.76   1
   4  11   2    3.20    1.00   1
   4  11   3   13.76    1.11   1
   4  11   4   32.04    1.92   1
   4  11   5   72.93    2.39   1
   4  11   6   10.11    1.21   1
   4  11   7   80.64    2.69   1
   4  11   8   -1.49    1.20   1
   4  11   9   28.94    2.26   1
   4  11  10   77.44    4.05   1
   4  11  11    9.61    2.23   1
   4  11  12   20.98    2.11   1
   4  11  13    0.30    2.21   1
   4  11  14   51.98    5.62   1
   4  11  15    3.88    2.21   1
   4  11  16    1.90    3.51   1
   4  11  17   13.32    5.04   1
   4  11  18   19.98    3.93   1
   4  12 -11   11.02    4.18   1
   4  12 -10   36.48    5.56   1
   4  12  -9    1.99    4.29   1
   4  12  -8    6.00    3.09   1
   4  12  -7   30.58    5.20   1
   4  12  -6   27.04    2.39   1
   4  12  -5   -0.59    1.89   1
   4  12  -4  101.61    4.03   1
   4  12  -3   45.97    2.31   1
   4  12  -2   25.81    1.93   1
   4  12  -1   77.62    3.17   1
   4  12   0   13.76    1.63   1
   4  12   1   18.58    1.64   1
   4  12   2   40.96    1.79   1
   4  12   3  196.84    5.89   1
   4  12   4    9.12    1.33   1
   4  12   5   47.61    2.48   1
   4  12   6    9.42    1.41   1
   4  12   7   72.93    2.90   1
   4  12   8   18.49    2.06   1
   4  12   9    9.30    1.89   1
   4  12  10    7.78    1.67   1
   4  12  11    1.10    1.70   1
   4  12  12   -1.99    2.09   1
   4  12  13   70.22    5.03   1
   4  12  14    8.82    3.09   1
   4  12  15   20.88    4.39   1
   4  12  16   52.13    6.06   1
   4  12  17   19.18    4.47   1
   4  13 -10   -3.88    5.40   1
   4  13  -9    3.31    3.82   1
   4  13  -8   68.89    8.30   1
   4  13  -6   -2.19    2.31   1
   4  13  -5   33.18    3.00   1
   4  13  -4   79.57    4.82   1
   4  13  -3    7.78    1.90   1
   4  13  -2   93.90    3.68   1
   4  13  -1   14.21    1.73   1
   4  13   0    2.89    1.39   1
   4  13   1   51.27    2.15   1
   4  13   2   -0.20    1.61   1
   4  13   3   23.91    1.56   1
   4  13   4  147.38    4.61   1
   4  13   5   70.22    2.85   1
   4  13   6   44.62    2.14   1
   4  13   7   24.50    1.78   1
   4  13   8   54.32    3.83   1
   4  13   9  135.49    6.29   1
   4  13  10   13.47    2.20   1
   4  13  11  125.66    6.28   1
   4  13  12   17.89    3.21   1
   4  13  13    1.80    3.19   1
   4  13  14   16.32    3.39   1
   4  13  15    4.28    3.48   1
   4  13  16    1.99    3.98   1
   4  13  17   11.49    3.53   1
   4  14  -8    9.12    5.13   1
   4  14  -7    6.10    3.41   1
   4  14  -6  113.42    7.24   1
   4  14  -5    2.89    2.01   1
   4  14  -4    6.60    2.52   1
   4  14  -3    2.50    1.99   1
   4  14  -2    8.01    1.98   1
   4  14  -1    4.20    1.80   1
   4  14   0   40.45    2.54   1
   4  14   1    1.99    1.38   1
   4  14   2   -2.10    1.19   1
   4  14   3   31.92    1.92   1
   4  14   4   12.11    1.67   1
   4  14   5   38.94    2.25   1
   4  14   6   15.68    1.82   1
   4  14   7  122.99    4.44   1
   4  14   8    4.00    2.40   1
   4  14   9   17.22    2.49   1
   4  14  10    7.02    3.18   1
   4  14  11   -1.59    3.10   1
   4  14  12   27.04    3.54   1
   4  14  13   31.58    4.61   1
   4  14  14    2.50    3.29   1
   4  14  15    7.40    3.37   1
   4  14  16    9.42    3.38   1
   4  15  -8   22.18    5.09   1
   4  15  -7    4.28    3.81   1
   4  15  -6    9.92    4.79   1
   4  15  -5    6.40    2.58   1
   4  15  -4    0.50    1.90   1
   4  15  -3   -2.19    2.49   1
   4  15  -2   45.02    3.62   1
   4  15  -1    2.79    1.80   1
   4  15   0   43.96    2.92   1
   4  15   1   20.16    2.07   1
   4  15   2  132.94    5.53   1
   4  15   3   89.68    3.41   1
   4  15   4    4.71    1.69   1
   4  15   5   28.41    2.45   1
   4  15   6   13.99    1.80   1
   4  15   7   40.45    2.54   1
   4  15   8   68.23    4.63   1
   4  15   9   -1.90    3.31   1
   4  15  10   24.70    3.98   1
   4  15  11   36.84    4.86   1
   4  15  12    9.00    2.88   1
   4  15  13   42.77    4.84   1
   4  15  15   37.95    5.17   1
   4  16  -6   20.88    5.76   1
   4  16  -5    5.29    3.31   1
   4  16  -4    6.30    2.81   1
   4  16  -3   16.89    2.71   1
   4  16  -2   28.20    2.55   1
   4  16  -1   21.53    3.06   1
   4  16   0   57.76    3.34   1
   4  16   1   13.47    1.98   1
   4  16   2   -1.00    1.70   1
   4  16   3    1.99    1.89   1
   4  16   4   -2.69    1.51   1
   4  16   5    6.00    2.01   1
   4  16   6   -0.20    2.11   1
   4  16   7    4.58    2.10   1
   4  16   8    9.00    3.78   1
   4  16   9    1.59    3.78   1
   4  16  10   13.91    3.13   1
   4  16  11    5.11    3.39   1
   4  16  12   17.72    3.79   1
   4  16  13   52.56    6.82   1
   4  17  -4    0.50    5.03   1
   4  17  -3    1.30    3.31   1
   4  17  -2    6.00    2.99   1
   4  17  -1   18.92    2.44   1
   4  17   0    1.69    1.59   1
   4  17   1    2.10    1.91   1
   4  17   2   19.01    2.18   1
   4  17   3   27.04    2.39   1
   4  17   4    1.90    2.29   1
   4  17   5   10.18    2.49   1
   4  17   6   10.63    2.61   1
   4  17   7   13.32    4.02   1
   4  17   8   47.47    5.37   1
   4  17   9    5.02    3.90   1
   4  17  10    9.49    4.62   1
   4  17  11   33.52    5.33   1
   4  17  12    5.71    4.40   1
   4  18  -2   -0.90    3.31   1
   4  18  -1    0.00    1.00   1
   4  18   0   16.56    2.93   1
   4  18   1   15.68    2.69   1
   4  18   2    1.30    2.60   1
   4  18   3    2.89    2.31   1
   4  18   4   14.90    2.39   1
   4  18   5   -1.49    2.39   1
   4  18   6   63.84    4.47   1
   4  18   7    1.49    2.78   1
   4  18   8    9.12    4.71   1
   4  18   9   -2.89    4.39   1
   4  18  10   46.24    6.26   1
   4  19   1    7.18    5.31   1
   4  19   2   33.76    5.35   1
   4  19   3   14.36    5.31   1
   4  19   4    2.69    2.00   1
   4  19   5    8.18    5.21   1
   4  19   6   -0.40    3.39   1
   4  19   7    8.29    4.90   1
   5 -17  -5   -2.89    4.49   1
   5 -17  -4   20.07    6.36   1
   5 -17  -3    2.31    4.50   1
   5 -17  -2   11.29    6.18   1
   5 -16 -10   -7.51    6.52   1
   5 -16  -9    2.59    5.18   1
   5 -16  -8   19.98    6.79   1
   5 -16  -7    4.00    4.92   1
   5 -16  -6   -3.50    5.91   1
   5 -16  -5    2.19    4.88   1
   5 -16  -4   25.91    6.11   1
   5 -16  -3   11.97    3.88   1
   5 -16  -2   31.25    6.71   1
   5 -16  -1   -0.59    3.88   1
   5 -16   0    5.29    5.47   1
   5 -16   1    1.49    4.98   1
   5 -16   2    0.20    3.62   1
   5 -15 -12    3.20    6.41   1
   5 -15 -11   -7.62    5.08   1
   5 -15 -10   -2.19    3.58   1
   5 -15  -9   25.20    4.32   1
   5 -15  -8   23.52    5.72   1
   5 -15  -7    3.69    5.38   1
   5 -15  -6    9.12    3.81   1
   5 -15  -5    3.10    6.79   1
   5 -15  -4   11.42    5.81   1
   5 -15  -3    5.90    3.50   1
   5 -15  -2    7.02    5.41   1
   5 -15  -1    8.18    3.72   1
   5 -15   0   51.27    5.44   1
   5 -15   1   -0.59    5.47   1
   5 -15   2    3.69    5.11   1
   5 -15   3    4.41    4.28   1
   5 -15   4   20.61    7.08   1
   5 -15   5   -2.31    3.71   1
   5 -14 -13    2.31    4.50   1
   5 -14 -12    3.31    4.70   1
   5 -14 -11   57.30    7.27   1
   5 -14 -10    0.20    5.44   1
   5 -14  -9   19.89    5.26   1
   5 -14  -8    7.90    4.27   1
   5 -14  -7   27.46    5.45   1
   5 -14  -6   25.10    5.41   1
   5 -14  -5   24.30    5.13   1
   5 -14  -4   26.94    4.36   1
   5 -14  -3    3.10    4.68   1
   5 -14  -2   19.18    4.82   1
   5 -14  -1    9.92    3.72   1
   5 -14   0   54.46    4.58   1
   5 -14   1    4.20    3.32   1
   5 -14   2   20.88    4.66   1
   5 -14   3   10.50    4.80   1
   5 -14   4   20.70    4.46   1
   5 -14   5   19.71    4.62   1
   5 -14   6    7.67    6.20   1
   5 -14   7   -7.18    4.40   1
   5 -13 -14   -4.28    5.51   1
   5 -13 -13   32.38    7.06   1
   5 -13 -12   -2.31    5.41   1
   5 -13 -11    7.29    5.51   1
   5 -13 -10   33.76    5.93   1
   5 -13  -9   41.34    5.53   1
   5 -13  -8    2.40    1.30   1
   5 -13  -7   14.59    4.81   1
   5 -13  -6   12.11    4.87   1
   5 -13  -5    2.10    3.39   1
   5 -13  -4    6.30    4.32   1
   5 -13  -3   42.64    5.49   1
   5 -13  -2    2.89    4.18   1
   5 -13  -1    5.62    4.31   1
   5 -13   0   52.85    5.38   1
   5 -13   1    9.30    3.29   1
   5 -13   2   -1.80    2.89   1
   5 -13   3    2.99    4.19   1
   5 -13   4   27.35    5.23   1
   5 -13   5    4.41    5.12   1
   5 -13   6    3.20    3.19   1
   5 -13   7    0.79    3.77   1
   5 -13   8   -3.88    6.58   1
   5 -12 -15    0.79    3.99   1
   5 -12 -14   24.50    5.25   1
   5 -12 -13   34.22    6.08   1
   5 -12 -12    3.69    4.88   1
   5 -12 -11    7.67    2.27   1
   5 -12 -10   35.76    2.75   1
   5 -12  -9    1.30    1.39   1
   5 -12  -8   -1.59    1.29   1
   5 -12  -7    1.30    0.80   1
   5 -12  -6   30.91    5.00   1
   5 -12  -5   76.74    6.66   1
   5 -12  -4   17.72    2.69   1
   5 -12  -3   17.98    2.80   1
   5 -12  -2   22.94    4.12   1
   5 -12  -1   60.37    5.13   1
   5 -12   0    5.11    2.98   1
   5 -12   1   17.72    3.28   1
   5 -12   2   16.16    4.82   1
   5 -12   3   11.83    3.23   1
   5 -12   4    0.71    3.31   1
   5 -12   5    7.67    3.10   1
   5 -12   6   -4.49    3.31   1
   5 -12   7   -0.90    4.81   1
   5 -12   8   27.67    5.26   1
   5 -12   9    3.50    3.29   1
   5 -11 -16   29.48    5.43   1
   5 -11 -15    2.59    5.80   1
   5 -11 -14    3.10    3.59   1
   5 -11 -13   84.46    8.64   1
   5 -11 -12   10.69    3.92   1
   5 -11 -11   -6.60    2.98   1
   5 -11 -10   14.67    3.60   1
   5 -11  -9   43.56    5.54   1
   5 -11  -8    9.80    1.50   1
   5 -11  -7   20.16    1.53   1
   5 -11  -6   11.83    0.89   1
   5 -11  -5    3.80    2.30   1
   5 -11  -4   10.30    2.50   1
   5 -11  -3  169.78    7.30   1
   5 -11  -2    7.02    2.38   1
   5 -11  -1   80.82    4.67   1
   5 -11   0  175.30    7.41   1
   5 -11   1   29.16    3.35   1
   5 -11   2    2.59    2.51   1
   5 -11   3   43.16    5.26   1
   5 -11   4    3.88    4.37   1
   5 -11   5   30.14    4.39   1
   5 -11   6   -7.78    4.52   1
   5 -11   7    7.08    4.31   1
   5 -11   8    2.40    4.99   1
   5 -11   9   -0.30    3.52   1
   5 -11  10   33.99    5.60   1
   5 -11  11    6.71    5.28   1
   5 -10 -17   -3.10    7.29   1
   5 -10 -16   18.66    5.27   1
   5 -10 -15    1.59    5.97   1
   5 -10 -14    7.29    5.29   1
   5 -10 -13   14.52    4.19   1
   5 -10 -12    7.90    3.09   1
   5 -10 -11  101.20    6.84   1
   5 -10 -10    4.00    3.00   1
   5 -10  -9    1.00    2.70   1
   5 -10  -8  264.06   11.05   1
   5 -10  -7   47.61    3.86   1
   5 -10  -6    4.80    1.01   1
   5 -10  -5   63.20    2.07   1
   5 -10  -4    6.60    2.00   1
   5 -10  -3    8.70    2.48   1
   5 -10  -2    3.80    2.30   1
   5 -10  -1   30.91    2.56   1
   5 -10   0   27.88    2.43   1
   5 -10   1    0.00    1.00   1
   5 -10   2    2.89    2.01   1
   5 -10   3  100.40    4.81   1
   5 -10   4   -2.31    2.31   1
   5 -10   5   54.17    5.30   1
   5 -10   6    8.01    3.79   1
   5 -10   7   63.20    5.41   1
   5 -10   8    9.30    4.82   1
   5 -10   9   37.45    4.16   1
   5 -10  10    5.11    3.80   1
   5 -10  11   10.63    4.89   1
   5 -10  12    7.62    4.31   1
   5  -9 -17    7.08    4.58   1
   5  -9 -16   11.97    5.81   1
   5  -9 -15   41.34    5.40   1
   5  -9 -14   -0.79    5.27   1
   5  -9 -13    1.49    2.78   1
   5  -9 -12   42.38    4.43   1
   5  -9 -11   46.79    4.65   1
   5  -9 -10  133.86    5.78   1
   5  -9  -9  140.19    6.87   1
   5  -9  -8   -0.40    1.89   1
   5  -9  -7    9.42    2.58   1
   5  -9  -6    6.92    2.10   1
   5  -9  -5   12.82    2.29   1
   5  -9  -4    6.40    2.18   1
   5  -9  -3   37.09    2.31   1
   5  -9  -2   -1.90    1.90   1
   5  -9  -1    1.30    1.71   1
   5  -9   0   11.29    1.88   1
   5  -9   1   22.47    1.90   1
   5  -9   2   47.61    3.04   1
   5  -9   3  248.69   10.09   1
   5  -9   4    8.29    1.79   1
   5  -9   5    1.10    2.79   1
   5  -9   6   45.16    3.49   1
   5  -9   7   19.27    4.39   1
   5  -9   8    1.39    3.89   1
   5  -9  10   16.56    3.17   1
   5  -9  11    3.80    3.12   1
   5  -9  12    8.53    5.02   1
   5  -9  13   17.64    4.37   1
   5  -8 -17    1.90    4.80   1
   5  -8 -16   15.13    5.21   1
   5  -8 -15    1.90    3.89   1
   5  -8 -14   92.74    8.09   1
   5  -8 -13   -3.31    4.11   1
   5  -8 -12    5.52    3.52   1
   5  -8 -11   15.52    2.29   1
   5  -8 -10   13.47    2.13   1
   5  -8  -9   77.97    4.41   1
   5  -8  -8   58.37    3.36   1
   5  -8  -7   20.98    2.66   1
   5  -8  -6   16.48    2.19   1
   5  -8  -5   20.07    2.06   1
   5  -8  -4   29.48    2.39   1
   5  -8  -3   65.12    3.23   1
   5  -8  -2   41.09    2.56   1
   5  -8  -1  351.94   12.01   1
   5  -8   0    5.90    1.70   1
   5  -8   1  113.42    4.69   1
   5  -8   2  109.62    4.61   1
   5  -8   3    1.69    2.00   1
   5  -8   4   25.81    2.54   1
   5  -8   5  187.42    7.94   1
   5  -8   6   12.53    2.41   1
   5  -8   7   14.82    2.46   1
   5  -8   8    6.71    2.80   1
   5  -8  10   11.97    4.71   1
   5  -8  11   57.15    6.35   1
   5  -8  12    3.80    3.20   1
   5  -8  13    6.92    5.31   1
   5  -8  14   21.07    5.14   1
   5  -7 -18    7.62    6.29   1
   5  -7 -17    6.10    5.48   1
   5  -7 -16    1.69    3.80   1
   5  -7 -15   14.98    4.49   1
   5  -7 -14   -1.10    4.09   1
   5  -7 -13   54.46    6.35   1
   5  -7 -12    8.58    2.52   1
   5  -7 -11   25.50    2.63   1
   5  -7 -10   42.25    3.25   1
   5  -7  -9    3.80    1.79   1
   5  -7  -8   51.84    3.31   1
   5  -7  -7   15.29    2.42   1
   5  -7  -6  592.44   17.04   1
   5  -7  -5   19.27    2.72   1
   5  -7  -4  119.46    4.37   1
   5  -7  -3    4.58    2.18   1
   5  -7  -2  185.50    6.27   1
   5  -7  -1   68.23    3.14   1
   5  -7   0  108.16    3.95   1
   5  -7   1  269.29   10.17   1
   5  -7   2   31.25    2.24   1
   5  -7   3  178.76    6.68   1
   5  -7   4   72.76    3.75   1
   5  -7   5   17.14    2.40   1
   5  -7   6   21.34    2.03   1
   5  -7   7  223.20    9.56   1
   5  -7   8   12.53    2.69   1
   5  -7  10   19.01    2.96   1
   5  -7  11    1.80    2.71   1
   5  -7  12    8.53    4.09   1
   5  -7  13   37.21    5.25   1
   5  -7  14    6.00    5.49   1
   5  -7  15   -2.31    4.32   1
   5  -6 -18   -5.52    6.02   1
   5  -6 -17   63.84    8.47   1
   5  -6 -16   -8.53    3.80   1
   5  -6 -15    4.08    4.40   1
   5  -6 -14    3.39    4.31   1
   5  -6 -13   19.10    3.93   1
   5  -6 -12    3.80    2.30   1
   5  -6 -11    3.88    2.40   1
   5  -6 -10    5.29    2.39   1
   5  -6  -9   65.93    3.41   1
   5  -6  -8   24.11    2.65   1
   5  -6  -7   60.84    2.65   1
   5  -6  -6    5.11    1.72   1
   5  -6  -5   23.62    1.85   1
   5  -6  -4  217.27    7.08   1
   5  -6  -3   37.58    2.45   1
   5  -6  -2    7.18    1.61   1
   5  -6  -1   30.69    1.44   1
   5  -6   0  114.70    4.28   1
   5  -6   1   13.69    1.92   1
   5  -6   2    7.67    1.72   1
   5  -6   3   11.02    1.39   1
   5  -6   4    1.00    1.70   1
   5  -6   5   99.00    4.78   1
   5  -6   6    4.58    1.58   1
   5  -6   7  164.61    6.16   1
   5  -6   8   69.72    3.67   1
   5  -6   9  189.61    8.54   1
   5  -6  10    7.78    2.68   1
   5  -6  11   41.09    5.26   1
   5  -6  12    9.00    4.08   1
   5  -6  13   15.76    3.33   1
   5  -6  14   16.48    4.38   1
   5  -6  15   -2.79    3.51   1
   5  -6  16   -1.49    3.49   1
   5  -5 -18   -3.69    3.88   1
   5  -5 -17   -4.00    4.08   1
   5  -5 -16    1.00    3.70   1
   5  -5 -15   57.46    7.13   1
   5  -5 -14    4.80    4.29   1
   5  -5 -13  112.36    7.84   1
   5  -5 -12    5.38    2.27   1
   5  -5 -11    4.28    2.19   1
   5  -5 -10    1.90    2.29   1
   5  -5  -9   16.81    2.38   1
   5  -5  -8   19.89    2.41   1
   5  -5  -7   18.23    2.13   1
   5  -5  -6  111.30    5.91   1
   5  -5  -5  173.19    5.53   1
   5  -5  -4   -1.00    1.30   1
   5  -5  -3   68.39    2.98   1
   5  -5  -2  141.13    4.75   1
   5  -5  -1  115.56    3.01   1
   5  -5   0  450.71   11.04   1
   5  -5   1  169.00    5.46   1
   5  -5   2   59.44    2.47   1
   5  -5   3  119.68    4.59   1
   5  -5   4   94.09    3.69   1
   5  -5   5   53.73    2.93   1
   5  -5   6   30.47    2.54   1
   5  -5   7   55.50    2.83   1
   5  -5   8   38.32    4.83   1
   5  -5   9   44.36    3.06   1
   5  -5  10    1.59    3.38   1
   5  -5  11    9.67    2.99   1
   5  -5  13   15.60    3.40   1
   5  -5  14   45.56    6.48   1
   5  -5  15    8.12    4.62   1
   5  -5  16   11.83    4.88   1
   5  -4 -18   -6.92    6.00   1
   5  -4 -17   47.33    8.53   1
   5  -4 -16   25.10    5.61   1
   5  -4 -15   -2.89    4.18   1
   5  -4 -13   60.37    4.04   1
   5  -4 -12   84.09    4.59   1
   5  -4 -11    3.69    2.19   1
   5  -4 -10  139.00    5.66   1
   5  -4  -9  338.56   10.30   1
   5  -4  -8   95.65    3.72   1
   5  -4  -7  191.82    7.48   1
   5  -4  -6    4.80    1.62   1
   5  -4  -5  197.12    7.30   1
   5  -4  -4   50.84    2.57   1
   5  -4  -3  100.40    3.61   1
   5  -4  -2  548.50   15.93   1
   5  -4  -1  197.12    5.90   1
   5  -4   0   83.72    2.20   1
   5  -4   1   70.22    2.18   1
   5  -4   2  405.62   11.68   1
   5  -4   3   97.22    3.55   1
   5  -4   4   -0.50    1.11   1
   5  -4   5  240.87    7.45   1
   5  -4   6  107.95    4.16   1
   5  -4   7    1.59    2.19   1
   5  -4   8  175.83   11.93   1
   5  -4   9    8.41    1.80   1
   5  -4  10    3.10    1.51   1
   5  -4  11  124.10    5.57   1
   5  -4  12   14.29    4.08   1
   5  -4  13   -2.19    2.40   1
   5  -4  14   15.52    4.18   1
   5  -4  15    6.20    4.68   1
   5  -4  16    0.90    3.31   1
   5  -4  17   14.90    6.02   1
   5  -3 -18   22.94    5.36   1
   5  -3 -17    9.99    4.61   1
   5  -3 -16   -4.08    4.48   1
   5  -3 -15   77.97    7.77   1
   5  -3 -14   21.44    3.89   1
   5  -3 -13   75.52    4.00   1
   5  -3 -12   18.66    2.51   1
   5  -3 -11   22.66    2.76   1
   5  -3 -10    1.69    1.59   1
   5  -3  -9  134.79    5.34   1
   5  -3  -8   18.84    1.82   1
   5  -3  -7   98.21    3.96   1
   5  -3  -6   47.75    2.35   1
   5  -3  -5  408.85   12.54   1
   5  -3  -4   71.23    2.87   1
   5  -3  -3  302.41    9.39   1
   5  -3  -2  334.52    9.15   1
   5  -3  -1    1.69    1.09   1
   5  -3   0   97.22    2.37   1
   5  -3   1   94.87    2.53   1
   5  -3   2  291.73    7.17   1
   5  -3   3   36.60    1.57   1
   5  -3   4   21.34    1.39   1
   5  -3   5  398.80   12.78   1
   5  -3   6  400.00   12.00   1
   5  -3   7  263.09   22.38   1
   5  -3   8   81.72    3.62   1
   5  -3   9   80.82    3.60   1
   5  -3  10  148.84    5.86   1
   5  -3  11    7.78    0.73   1
   5  -3  12    1.69    0.70   1
   5  -3  13   32.15    1.70   1
   5  -3  14    4.49    0.81   1
   5  -3  15   14.98    3.87   1
   5  -3  16    6.71    3.52   1
   5  -3  17   17.47    5.02   1
   5  -2 -18    5.62    5.50   1
   5  -2 -17   18.32    4.37   1
   5  -2 -16   -2.50    3.10   1
   5  -2 -15    5.29    2.99   1
   5  -2 -14   31.70    4.05   1
   5  -2 -13   59.60    3.71   1
   5  -2 -12   -1.10    1.70   1
   5  -2 -11   37.45    3.30   1
   5  -2 -10   16.08    2.33   1
   5  -2  -9   60.37    4.66   1
   5  -2  -8   23.43    2.13   1
   5  -2  -7  202.78    6.55   1
   5  -2  -6    6.81    1.30   1
   5  -2  -5 1130.98   36.99   1
   5  -2  -4 1008.70   29.85   1
   5  -2  -3  359.48   11.76   1
   5  -2  -2  453.69   13.63   1
   5  -2  -1 2048.47   61.55   1
   5  -2   0   27.56    1.37   1
   5  -2   1   13.69    0.89   1
   5  -2   2 1067.98   24.18   1
   5  -2   3    0.90    0.70   1
   5  -2   4    1.10    0.90   1
   5  -2   5   76.56    2.98   1
   5  -2   6   16.97    0.99   1
   5  -2   7  171.09    4.97   1
   5  -2   8  127.69    3.84   1
   5  -2   9    8.29    0.92   1
   5  -2  10    4.28    0.79   1
   5  -2  11    6.00    0.78   1
   5  -2  12   38.19    2.10   1
   5  -2  13   37.45    2.45   1
   5  -2  14   -2.31    1.09   1
   5  -2  15   12.11    4.52   1
   5  -2  16    0.79    4.27   1
   5  -2  17   38.94    5.37   1
   5  -2  18   -2.69    4.99   1
   5  -1 -18   41.86    6.34   1
   5  -1 -17   18.49    5.76   1
   5  -1 -16    2.40    4.49   1
   5  -1 -15    8.70    3.42   1
   5  -1 -14   52.56    5.37   1
   5  -1 -13   36.00    3.36   1
   5  -1 -12  184.96    7.62   1
   5  -1 -11  101.20    4.63   1
   5  -1 -10    8.12    1.82   1
   5  -1  -9  139.95    5.91   1
   5  -1  -8   -1.39    1.60   1
   5  -1  -7  201.92    6.54   1
   5  -1  -6  676.52   21.85   1
   5  -1  -5  260.82    7.75   1
   5  -1  -4  298.25    9.33   1
   5  -1  -3  185.50    6.54   1
   5  -1  -2  329.06    9.80   1
   5  -1  -1   22.94    1.34   1
   5  -1   0   13.62    0.89   1
   5  -1   1  604.67   14.75   1
   5  -1   2  420.66   10.67   1
   5  -1   3  330.51    6.91   1
   5  -1   4  436.39   11.28   1
   5  -1   5    1.69    0.70   1
   5  -1   6    0.59    0.60   1
   5  -1   7   -1.80    0.70   1
   5  -1   8    0.30    0.70   1
   5  -1   9    6.71    0.88   1
   5  -1  10  213.74    5.85   1
   5  -1  11    5.11    1.99   1
   5  -1  12   46.79    3.01   1
   5  -1  13    8.70    2.42   1
   5  -1  14    7.08    3.30   1
   5  -1  15   16.97    2.72   1
   5  -1  16   55.20    5.80   1
   5  -1  17    6.81    3.50   1
   5  -1  18    5.20    4.29   1
   5   0 -18   -1.90    5.80   1
   5   0 -17    8.12    3.59   1
   5   0 -16   14.06    3.23   1
   5   0 -15   22.37    5.11   1
   5   0 -14   13.10    3.33   1
   5   0 -13   47.33    4.40   1
   5   0 -12   12.89    2.37   1
   5   0 -11  260.82    9.69   1
   5   0 -10   11.29    2.28   1
   5   0  -9    0.79    1.69   1
   5   0  -8    2.69    1.61   1
   5   0  -7   73.27    2.74   1
   5   0  -6   45.16    2.55   1
   5   0  -5   79.57    3.57   1
   5   0  -4  462.25   15.48   1
   5   0  -3   31.14    2.46   1
   5   0  -2  201.64    7.10   1
   5   0  -1  396.41   12.34   1
   5   0   0   51.55    1.87   1
   5   0   1   70.73    1.68   1
   5   0   2 1456.95   35.88   1
   5   0   3  218.15    5.02   1
   5   0   4  143.52    3.11   1
   5   0   5   60.37    6.37   1
   5   0   6 1491.50   37.08   1
   5   0   7    1.80    0.80   1
   5   0   8    5.38    0.88   1
   5   0   9   20.70    1.73   1
   5   0  10   19.01    2.01   1
   5   0  11   34.93    2.01   1
   5   0  12   63.04    3.49   1
   5   0  13    3.80    2.50   1
   5   0  14    0.40    2.89   1
   5   0  15    7.67    3.38   1
   5   0  16   27.25    4.70   1
   5   0  17   65.12    7.42   1
   5   0  18   18.40    5.23   1
   5   0  19    1.59    5.29   1
   5   1 -18   45.97    6.64   1
   5   1 -17   13.99    3.81   1
   5   1 -16   26.42    5.55   1
   5   1 -15    2.50    3.41   1
   5   1 -14    3.10    4.01   1
   5   1 -13   36.84    4.13   1
   5   1 -12    7.08    1.92   1
   5   1 -11   11.90    2.28   1
   5   1 -10   12.18    2.09   1
   5   1  -9  310.46   11.28   1
   5   1  -8  175.30    6.88   1
   5   1  -7   15.52    1.97   1
   5   1  -6  208.51    7.22   1
   5   1  -5  638.07   20.21   1
   5   1  -4    0.40    1.00   1
   5   1  -3 1195.78   39.42   1
   5   1  -2  359.86   14.04   1
   5   1  -1  193.21    6.95   1
   5   1   0    7.02    0.58   1
   5   1   1   86.86    2.24   1
   5   1   2  853.81   19.87   1
   5   1   3   65.93    1.62   1
   5   1   4  288.66    5.78   1
   5   1   5   84.82    2.03   1
   5   1   6   41.73    1.81   1
   5   1   7  734.95   20.60   1
   5   1   8   12.11    1.18   1
   5   1   9   11.49    1.42   1
   5   1  10  302.76    9.05   1
   5   1  11  154.75    5.47   1
   5   1  12    6.50    1.99   1
   5   1  13   61.94    3.78   1
   5   1  14   22.09    3.10   1
   5   1  15   -3.20    3.11   1
   5   1  16   67.08    5.57   1
   5   1  17    7.51    4.22   1
   5   1  18   63.68    6.86   1
   5   1  19   24.60    4.46   1
   5   2 -17   25.91    6.82   1
   5   2 -16    8.82    3.50   1
   5   2 -15    3.20    4.12   1
   5   2 -14   75.86    6.45   1
   5   2 -13    1.10    4.20   1
   5   2 -12    2.89    1.90   1
   5   2 -11    1.30    2.30   1
   5   2 -10  148.35    6.09   1
   5   2  -9   -1.30    1.39   1
   5   2  -8   11.49    2.92   1
   5   2  -7    6.10    1.48   1
   5   2  -6  120.56    4.39   1
   5   2  -5   71.23    2.87   1
   5   2  -4    2.10    1.31   1
   5   2  -3  204.78    6.87   1
   5   2  -2   21.44    1.39   1
   5   2  -1   29.81    1.20   1
   5   2   0   82.26    2.36   1
   5   2   1   86.68    2.42   1
   5   2   2  354.19    7.90   1
   5   2   3  493.73   12.89   1
   5   2   4   28.09    2.01   1
   5   2   5 1338.10   29.26   1
   5   2   6   16.73    1.23   1
   5   2   7    4.49    0.89   1
   5   2   8    1.49    1.10   1
   5   2   9    1.39    0.99   1
   5   2  10   17.14    1.41   1
   5   2  11   -0.10    2.02   1
   5   2  12  132.25    5.29   1
   5   2  13    1.80    2.09   1
   5   2  14  117.51    5.64   1
   5   2  15    6.60    3.29   1
   5   2  16   18.84    4.17   1
   5   2  17    3.88    3.07   1
   5   2  19    0.20    5.23   1
   5   3 -17   17.39    5.09   1
   5   3 -16    4.00    4.68   1
   5   3 -15   19.98    4.29   1
   5   3 -14   72.25    6.46   1
   5   3 -13    3.50    3.22   1
   5   3 -12   70.56    5.71   1
   5   3 -11   23.43    2.52   1
   5   3 -10   65.77    3.73   1
   5   3  -9    7.51    2.08   1
   5   3  -8   37.95    2.34   1
   5   3  -7   15.29    1.56   1
   5   3  -6  669.26   25.35   1
   5   3  -5   86.68    3.91   1
   5   3  -4   11.49    1.22   1
   5   3  -3  354.57   11.67   1
   5   3  -2   35.05    1.42   1
   5   3  -1   12.32    0.77   1
   5   3   0   89.87    2.46   1
   5   3   1  590.98   15.56   1
   5   3   2 1263.09   39.80   1
   5   3   3    2.79    1.30   1
   5   3   4   39.44    1.38   1
   5   3   5  105.47    3.90   1
   5   3   6  126.79    4.50   1
   5   3   7  471.32   18.67   1
   5   3   8   20.52    1.27   1
   5   3   9   18.66    1.38   1
   5   3  10    0.40    1.20   1
   5   3  11   14.59    1.60   1
   5   3  12   38.56    2.36   1
   5   3  13    0.30    1.51   1
   5   3  14   18.58    2.59   1
   5   3  15   17.98    3.22   1
   5   3  16  103.63    7.33   1
   5   3  17   -2.59    2.51   1
   5   3  18   -0.79    4.38   1
   5   3  19   -5.20    4.38   1
   5   4 -17   36.72    6.54   1
   5   4 -16   39.06    6.50   1
   5   4 -15   20.79    5.38   1
   5   4 -14   48.30    5.14   1
   5   4 -13   -1.39    3.59   1
   5   4 -12  118.37    9.79   1
   5   4 -11    2.59    2.29   1
   5   4 -10   57.61    3.34   1
   5   4  -9   35.88    4.19   1
   5   4  -8  183.33    7.04   1
   5   4  -7   20.98    2.29   1
   5   4  -6  338.56   12.51   1
   5   4  -5   29.48    1.85   1
   5   4  -4 1361.61   49.45   1
   5   4  -3  523.49   13.73   1
   5   4  -2  178.49    6.95   1
   5   4  -1   81.90    2.35   1
   5   4   0  110.25    2.94   1
   5   4   1   89.30    2.46   1
   5   4   2   73.27    1.71   1
   5   4   3   11.70    0.62   1
   5   4   4  365.19    8.03   1
   5   4   5 2179.02   55.08   1
   5   4   6   13.76    1.26   1
   5   4   7  219.04    7.99   1
   5   4   8    1.69    1.59   1
   5   4   9  868.48   30.06   1
   5   4  10  125.66    6.73   1
   5   4  11  217.56    7.08   1
   5   4  12   21.44    2.04   1
   5   4  13    5.38    1.58   1
   5   4  14    7.02    1.91   1
   5   4  15   45.56    4.86   1
   5   4  16   25.70    4.26   1
   5   4  17   45.83    4.60   1
   5   4  18   68.89    6.97   1
   5   4  19    3.80    3.59   1
   5   5 -16    1.21    4.42   1
   5   5 -15   27.14    5.52   1
   5   5 -14   50.98    6.71   1
   5   5 -13    5.38    2.88   1
   5   5 -12   29.05    3.88   1
   5   5 -11   31.47    4.15   1
   5   5 -10    3.88    3.31   1
   5   5  -9   68.56    5.46   1
   5   5  -8  146.17    8.46   1
   5   5  -7   76.74    5.26   1
   5   5  -6  921.12   28.53   1
   5   5  -5  114.28    3.63   1
   5   5  -4   30.80    1.55   1
   5   5  -3  181.44    4.58   1
   5   5  -2  705.96   20.72   1
   5   5  -1   83.17    3.28   1
   5   5   0   42.64    1.44   1
   5   5   1    8.01    0.62   1
   5   5   2   46.24    1.36   1
   5   5   3  146.65    3.63   1
   5   5   4  991.62   26.45   1
   5   5   5  198.25    5.91   1
   5   5   6   37.82    1.60   1
   5   5   7  351.94    9.76   1
   5   5   8    3.69    1.00   1
   5   5   9  114.49    3.64   1
   5   5  10    2.79    1.30   1
   5   5  11  139.00    7.78   1
   5   5  12   14.98    1.93   1
   5   5  13   27.77    2.53   1
   5   5  14   -0.30    1.71   1
   5   5  15   26.32    2.77   1
   5   5  16    7.51    3.40   1
   5   5  17   -4.00    3.52   1
   5   5  18   13.69    4.81   1
   5   5  19   25.00    4.70   1
   5   6 -16    5.29    3.68   1
   5   6 -15   -5.11    5.20   1
   5   6 -14    3.20    5.12   1
   5   6 -13  149.57   12.72   1
   5   6 -12   13.62    3.62   1
   5   6 -11   23.43    3.97   1
   5   6 -10   -0.79    1.69   1
   5   6  -9    3.10    1.69   1
   5   6  -8   -1.21    1.50   1
   5   6  -7    1.80    1.50   1
   5   6  -6   27.35    1.78   1
   5   6  -5  452.41   17.44   1
   5   6  -4    4.28    1.28   1
   5   6  -3   15.29    1.33   1
   5   6  -2  455.82   12.38   1
   5   6  -1   38.56    1.61   1
   5   6   0    2.99    0.80   1
   5   6   1   31.25    1.23   1
   5   6   2  829.44   20.16   1
   5   6   3  556.49   11.80   1
   5   6   4    5.90    0.58   1
   5   6   5 1237.63   32.37   1
   5   6   6  365.96    9.56   1
   5   6   7   32.38    1.25   1
   5   6   8  111.72    4.02   1
   5   6   9  265.69    8.48   1
   5   6  10   19.62    1.77   1
   5   6  11  113.42    4.05   1
   5   6  12    7.29    1.51   1
   5   6  13   41.09    2.44   1
   5   6  14   26.83    2.38   1
   5   6  15  122.54    8.86   1
   5   6  16    5.90    2.72   1
   5   6  17   37.95    4.44   1
   5   6  18   41.73    4.78   1
   5   6  19    1.21    3.41   1
   5   7 -15   53.73    7.77   1
   5   7 -14    3.69    4.19   1
   5   7 -13   28.41    5.12   1
   5   7 -12   58.68    6.74   1
   5   7 -11   12.60    3.83   1
   5   7  -9    4.49    2.08   1
   5   7  -8  108.99    6.47   1
   5   7  -7   82.81    3.64   1
   5   7  -6   24.40    2.17   1
   5   7  -5   63.84    3.68   1
   5   7  -4   28.62    1.61   1
   5   7  -3  114.28    3.63   1
   5   7  -2  407.23   12.92   1
   5   7  -1   20.98    1.83   1
   5   7   0 1401.75   33.70   1
   5   7   1   57.15    1.97   1
   5   7   2  472.63   12.17   1
   5   7   3  214.62    4.69   1
   5   7   4  912.64   20.54   1
   5   7   5  396.01   10.35   1
   5   7   6   20.43    1.08   1
   5   7   7   16.97    1.07   1
   5   7   8    1.10    1.01   1
   5   7   9    4.00    1.00   1
   5   7  10   91.58    3.64   1
   5   7  11   76.74    2.98   1
   5   7  12   82.99    3.83   1
   5   7  13  257.60    9.95   1
   5   7  14    0.71    1.61   1
   5   7  15    6.81    1.98   1
   5   7  16   14.52    3.51   1
   5   7  17   49.00    5.04   1
   5   7  18    5.52    3.20   1
   5   7  19    7.78    3.79   1
   5   8 -14   -9.49    4.87   1
   5   8 -13   29.70    6.10   1
   5   8 -12   -1.00    4.50   1
   5   8 -11   85.38    8.69   1
   5   8 -10    0.90    3.40   1
   5   8  -9   10.82    3.62   1
   5   8  -8    0.59    2.09   1
   5   8  -7  114.28    4.70   1
   5   8  -6    1.30    1.80   1
   5   8  -5    2.79    1.10   1
   5   8  -4  386.52   11.01   1
   5   8  -3    9.67    1.49   1
   5   8  -2   -2.50    1.20   1
   5   8  -1    1.30    0.80   1
   5   8   0  663.06   19.57   1
   5   8   1   96.04    2.74   1
   5   8   2   11.09    1.93   1
   5   8   3   84.09    2.75   1
   5   8   4   -1.21    1.01   1
   5   8   5   56.85    1.81   1
   5   8   6    9.80    1.00   1
   5   8   7   15.52    1.18   1
   5   8   8  231.65    8.52   1
   5   8   9   17.22    1.41   1
   5   8  10    1.10    1.41   1
   5   8  11   23.62    1.94   1
   5   8  12    3.39    1.29   1
   5   8  13   68.72    3.65   1
   5   8  14   15.92    2.00   1
   5   8  15   37.58    4.05   1
   5   8  16    5.90    2.92   1
   5   8  17    4.88    3.58   1
   5   8  18   -2.79    3.71   1
   5   9 -14    1.99    5.78   1
   5   9 -13   -1.10    5.40   1
   5   9 -12    4.88    4.38   1
   5   9 -11   26.73    5.07   1
   5   9 -10    9.92    4.09   1
   5   9  -9   89.68    7.20   1
   5   9  -8   44.22    3.59   1
   5   9  -7   13.18    2.47   1
   5   9  -6  285.95   11.50   1
   5   9  -5   44.36    2.26   1
   5   9  -4    7.02    1.48   1
   5   9  -3   22.75    2.29   1
   5   9  -2  118.37    4.35   1
   5   9  -1    2.10    1.01   1
   5   9   0   63.36    2.23   1
   5   9   1  173.98    4.22   1
   5   9   2  144.48    4.57   1
   5   9   3   17.98    1.02   1
   5   9   4  158.51    4.28   1
   5   9   5    6.20    1.00   1
   5   9   6   13.91    1.19   1
   5   9   7  184.69    4.89   1
   5   9   8   11.42    1.08   1
   5   9   9  150.55    4.91   1
   5   9  10    6.10    1.48   1
   5   9  11   87.61    4.87   1
   5   9  12   57.15    3.33   1
   5   9  13  180.36    6.98   1
   5   9  14   11.29    2.28   1
   5   9  15   11.22    3.22   1
   5   9  16   16.56    3.91   1
   5   9  17   19.36    3.43   1
   5   9  18   -5.29    3.50   1
   5  10 -13   21.53    5.10   1
   5  10 -12    2.10    3.10   1
   5  10 -11   15.52    5.12   1
   5  10 -10   12.39    4.79   1
   5  10  -9   27.14    4.27   1
   5  10  -8   18.06    3.40   1
   5  10  -7  100.80    6.43   1
   5  10  -6    6.10    2.42   1
   5  10  -5   27.98    2.22   1
   5  10  -4    3.50    1.20   1
   5  10  -3   65.12    2.58   1
   5  10  -2   22.18    1.51   1
   5  10  -1    7.67    1.27   1
   5  10   0  134.10    4.17   1
   5  10   1   29.16    1.62   1
   5  10   2  220.82    5.35   1
   5  10   3   43.30    1.58   1
   5  10   4  208.80    4.62   1
   5  10   5  121.00    3.30   1
   5  10   6    9.61    1.18   1
   5  10   7    5.38    1.11   1
   5  10   8   32.15    1.70   1
   5  10   9   25.50    2.02   1
   5  10  10   30.58    2.10   1
   5  10  11   18.32    2.14   1
   5  10  12    2.40    1.49   1
   5  10  13   42.51    2.74   1
   5  10  14   40.45    2.67   1
   5  10  15   29.59    3.26   1
   5  10  16    3.50    2.51   1
   5  10  17   17.22    4.23   1
   5  10  18   44.62    4.28   1
   5  11 -12   11.97    4.50   1
   5  11 -11    7.62    3.31   1
   5  11 -10    0.10    3.03   1
   5  11  -9   97.22    8.48   1
   5  11  -8    1.49    3.78   1
   5  11  -7    1.59    2.70   1
   5  11  -6    5.38    3.20   1
   5  11  -5   72.25    3.23   1
   5  11  -4   58.83    3.37   1
   5  11  -3  106.92    3.72   1
   5  11  -2    2.79    1.50   1
   5  11  -1    8.82    1.72   1
   5  11   0    0.71    1.01   1
   5  11   1   79.74    3.04   1
   5  11   2   31.02    1.45   1
   5  11   3   17.98    1.36   1
   5  11   4  316.13    7.47   1
   5  11   5    4.28    1.12   1
   5  11   6  174.77    4.49   1
   5  11   7   77.79    2.82   1
   5  11   8  123.43    4.00   1
   5  11   9  158.00    6.28   1
   5  11  10    6.92    1.68   1
   5  11  11   32.15    2.38   1
   5  11  12  156.25    6.50   1
   5  11  13    2.19    1.69   1
   5  11  14   74.48    5.35   1
   5  11  15   -5.52    2.91   1
   5  11  16    6.00    3.72   1
   5  11  17    8.41    4.12   1
   5  12 -11   -0.20    5.53   1
   5  12 -10   21.72    3.91   1
   5  12  -9   28.30    4.89   1
   5  12  -8   12.11    4.32   1
   5  12  -7  142.09    9.30   1
   5  12  -6    2.50    2.69   1
   5  12  -5   57.15    3.78   1
   5  12  -4   13.62    2.21   1
   5  12  -3   51.84    2.59   1
   5  12  -2    2.79    1.40   1
   5  12  -1   95.06    3.70   1
   5  12   0   54.46    2.51   1
   5  12   1    8.29    1.61   1
   5  12   2    9.67    1.18   1
   5  12   3  337.46    7.72   1
   5  12   4   19.27    1.40   1
   5  12   5    2.99    1.38   1
   5  12   6   41.09    1.79   1
   5  12   7   12.67    1.57   1
   5  12   8  148.60    4.63   1
   5  12   9   55.95    3.14   1
   5  12  10    9.12    1.99   1
   5  12  11   -4.49    1.91   1
   5  12  12  141.61    5.71   1
   5  12  13   -6.30    3.01   1
   5  12  14   32.38    4.32   1
   5  12  15    0.00    1.00   1
   5  12  16   25.30    3.32   1
   5  13 -10   18.06    5.86   1
   5  13  -9    4.20    5.41   1
   5  13  -8   67.90    6.26   1
   5  13  -7   -0.10    2.53   1
   5  13  -6    0.59    4.08   1
   5  13  -5   17.89    2.79   1
   5  13  -4    1.99    2.20   1
   5  13  -3   28.09    2.76   1
   5  13  -2   13.91    2.01   1
   5  13  -1    7.29    1.51   1
   5  13   0    3.69    1.50   1
   5  13   1  173.98    6.86   1
   5  13   2  121.22    3.52   1
   5  13   3   54.02    2.06   1
   5  13   4    3.61    1.22   1
   5  13   5  174.77    5.02   1
   5  13   6  116.86    3.89   1
   5  13   7   37.45    2.33   1
   5  13   8   47.61    2.48   1
   5  13   9   51.27    3.15   1
   5  13  10   34.46    2.58   1
   5  13  11   10.37    2.32   1
   5  13  12   19.36    3.78   1
   5  13  13   36.72    3.64   1
   5  13  14  140.66    9.96   1
   5  13  15    7.67    3.71   1
   5  13  16   59.29    6.62   1
   5  14  -9    1.21    4.31   1
   5  14  -8   20.79    4.83   1
   5  14  -7   27.25    5.22   1
   5  14  -6    5.90    2.09   1
   5  14  -5   28.94    3.44   1
   5  14  -4   22.66    2.76   1
   5  14  -3   16.73    4.34   1
   5  14  -2    1.59    2.09   1
   5  14  -1   71.57    4.23   1
   5  14   0   19.01    1.92   1
   5  14   1   14.59    1.53   1
   5  14   2    5.90    1.51   1
   5  14   3  128.82    4.09   1
   5  14   4   54.17    2.36   1
   5  14   5   -0.59    1.29   1
   5  14   6   45.16    2.69   1
   5  14   7   22.28    1.79   1
   5  14   8   32.49    2.28   1
   5  14   9    2.69    1.80   1
   5  14  10    7.29    2.21   1
   5  14  11    6.50    3.11   1
   5  14  12  104.04    5.92   1
   5  14  13   32.72    4.46   1
   5  14  14   18.49    3.44   1
   5  14  15    3.31    4.30   1
   5  15  -6   41.34    5.27   1
   5  15  -5   28.30    3.40   1
   5  15  -4    4.08    2.18   1
   5  15  -3    2.50    2.50   1
   5  15  -2   21.72    2.61   1
   5  15  -1   27.98    2.75   1
   5  15   0    4.58    2.10   1
   5  15   1    8.29    3.00   1
   5  15   2    2.89    1.70   1
   5  15   3   29.81    2.07   1
   5  15   4   25.20    1.81   1
   5  15   5   20.98    2.11   1
   5  15   6    2.69    2.10   1
   5  15   7  122.10    5.53   1
   5  15   8   27.98    2.75   1
   5  15   9   20.79    3.92   1
   5  15  10   89.49    6.43   1
   5  15  11   15.21    3.90   1
   5  15  12   -1.10    2.10   1
   5  15  13   18.58    4.14   1
   5  15  14   49.28    4.91   1
   5  16  -6   -2.89    5.30   1
   5  16  -5    8.58    5.22   1
   5  16  -4   42.64    3.40   1
   5  16  -3    6.71    3.11   1
   5  16  -2   19.62    3.10   1
   5  16  -1    4.88    1.99   1
   5  16   0    4.58    2.31   1
   5  16   1    1.10    1.70   1
   5  16   2   13.32    1.97   1
   5  16   3   37.09    2.56   1
   5  16   4    1.21    1.61   1
   5  16   5    1.39    1.79   1
   5  16   6   21.07    2.39   1
   5  16   7   51.55    3.45   1
   5  16   8    2.59    1.71   1
   5  16   9   28.52    3.95   1
   5  16  10    2.50    3.51   1
   5  16  11   32.38    4.67   1
   5  16  12   11.29    3.09   1
   5  17  -4    7.51    4.49   1
   5  17  -3    0.90    4.90   1
   5  17  -2    8.53    2.69   1
   5  17  -1    1.59    2.70   1
   5  17   0   39.44    3.01   1
   5  17   1   11.90    2.07   1
   5  17   2   11.02    2.72   1
   5  17   3   13.99    2.47   1
   5  17   4   21.16    3.13   1
   5  17   5   12.89    2.08   1
   5  17   6    2.19    1.69   1
   5  17   7   40.58    3.57   1
   5  17   8   -2.89    3.40   1
   5  17   9   -1.49    3.59   1
   5  17  10   13.91    3.13   1
   5  18  -2    3.10    3.59   1
   5  18  -1    1.99    3.30   1
   5  18   0   19.89    2.94   1
   5  18   1   -0.71    2.81   1
   5  18   2   28.09    3.18   1
   5  18   3    3.50    2.28   1
   5  18   4    2.10    2.61   1
   5  18   5   -1.59    2.70   1
   5  18   6   33.76    3.14   1
   5  18   7   12.82    3.01   1
   5  18   8   25.81    4.67   1
   5  19   2    7.18    4.07   1
   5  19   3    1.69    3.59   1
   5  19   4    9.80    3.88   1
   5  19   5    5.29    3.82   1
   5  19   6    1.00    3.40   1
   6 -16  -8    0.30    4.42   1
   6 -16  -7   -4.80    4.60   1
   6 -16  -5   -2.89    4.90   1
   6 -16  -4    4.08    5.90   1
   6 -16  -3   22.94    6.23   1
   6 -16  -2    9.61    5.58   1
   6 -16  -1   -0.10    4.65   1
   6 -16   0   11.42    6.49   1
   6 -15 -11   11.29    5.11   1
   6 -15 -10   44.09    7.57   1
   6 -15  -9   16.08    6.42   1
   6 -15  -8   29.92    7.00   1
   6 -15  -7    4.08    4.61   1
   6 -15  -4   53.73    7.62   1
   6 -15  -3    6.81    3.60   1
   6 -15  -2    7.90    4.89   1
   6 -15  -1    4.71    3.39   1
   6 -15   0   21.16    6.53   1
   6 -15   1   29.05    6.68   1
   6 -15   2   30.91    6.45   1
   6 -15   3   32.15    7.48   1
   6 -15   4    5.90    7.00   1
   6 -14 -12    7.18    6.49   1
   6 -14 -11    2.50    6.10   1
   6 -14 -10  -12.67    5.41   1
   6 -14  -9   13.18    5.52   1
   6 -14  -8   16.89    4.19   1
   6 -14  -7   12.18    5.72   1
   6 -14  -6   58.06    6.25   1
   6 -14  -5   -2.10    4.09   1
   6 -14  -4    1.10    3.11   1
   6 -14  -3   -2.59    4.60   1
   6 -14  -2   81.00    7.74   1
   6 -14  -1   -0.79    2.88   1
   6 -14   0   10.11    4.39   1
   6 -14   1    3.10    5.21   1
   6 -14   2   -1.10    5.21   1
   6 -14   3    6.40    3.29   1
   6 -14   4   -5.20    4.01   1
   6 -14   5    5.71    6.31   1
   6 -14   6    3.61    4.79   1
   6 -13 -13   -0.79    3.28   1
   6 -13 -12   14.29    4.91   1
   6 -13 -11   -5.02    3.90   1
   6 -13 -10   18.84    4.17   1
   6 -13  -9   11.29    4.91   1
   6 -13  -8   60.37    7.46   1
   6 -13  -7   -3.20    3.19   1
   6 -13  -6   82.45    7.45   1
   6 -13  -5   25.00    4.00   1
   6 -13  -4  204.20   15.15   1
   6 -13  -3    3.80    4.49   1
   6 -13  -2   -5.81    4.48   1
   6 -13  -1    5.81    3.33   1
   6 -13   0   59.91    6.19   1
   6 -13   1    1.10    3.11   1
   6 -13   2   43.16    6.57   1
   6 -13   3   -4.08    4.28   1
   6 -13   4    1.10    4.70   1
   6 -13   5   30.14    4.72   1
   6 -13   6   -3.88    4.10   1
   6 -13   7    7.18    5.47   1
   6 -13   8   -2.19    4.38   1
   6 -12 -13   11.63    5.80   1
   6 -12 -12   28.62    5.46   1
   6 -12 -11   30.03    5.15   1
   6 -12 -10    7.51    4.60   1
   6 -12  -9  124.32    6.24   1
   6 -12  -8   29.16    2.16   1
   6 -12  -7    6.71    0.73   1
   6 -12  -5   10.50    4.99   1
   6 -12  -4   16.56    4.56   1
   6 -12  -3    0.79    4.18   1
   6 -12  -2   19.62    3.19   1
   6 -12  -1  152.28   10.61   1
   6 -12   0    3.31    2.80   1
   6 -12   1    9.61    3.22   1
   6 -12   2   45.16    4.84   1
   6 -12   3    3.50    3.22   1
   6 -12   4    5.81    3.18   1
   6 -12   5   14.82    5.24   1
   6 -12   6    7.90    5.00   1
   6 -12   7    7.29    4.81   1
   6 -12   8    0.90    4.01   1
   6 -12   9    5.11    5.42   1
   6 -11 -15    5.20    4.20   1
   6 -11 -14    0.79    5.77   1
   6 -11 -13   18.84    5.90   1
   6 -11 -12   34.46    5.99   1
   6 -11 -11    2.59    4.51   1
   6 -11 -10    2.19    4.38   1
   6 -11  -9    6.10    3.31   1
   6 -11  -8    6.60    4.01   1
   6 -11  -7  163.33    6.65   1
   6 -11  -6   17.72    0.93   1
   6 -11  -5    5.38    3.48   1
   6 -11  -4   12.60    2.63   1
   6 -11  -3   13.03    2.82   1
   6 -11  -2   49.28    3.51   1
   6 -11  -1   10.89    2.97   1
   6 -11   0   41.09    4.87   1
   6 -11   1   22.94    4.22   1
   6 -11   2   43.03    5.12   1
   6 -11   3   58.68    5.36   1
   6 -11   4    0.30    4.21   1
   6 -11   5   -4.41    4.41   1
   6 -11   6   18.84    4.77   1
   6 -11   7    5.90    3.79   1
   6 -11   8   14.36    3.79   1
   6 -11   9    3.10    5.10   1
   6 -10 -16   13.03    4.98   1
   6 -10 -15   29.05    6.79   1
   6 -10 -14   12.82    4.37   1
   6 -10 -13    8.58    5.68   1
   6 -10 -12    8.70    4.72   1
   6 -10 -11   45.97    6.37   1
   6 -10 -10   70.56    5.88   1
   6 -10  -9   18.06    3.06   1
   6 -10  -8  151.29   10.82   1
   6 -10  -7    4.41    1.89   1
   6 -10  -6    5.38    2.09   1
   6 -10  -5   34.46    3.17   1
   6 -10  -4   67.24    3.94   1
   6 -10  -3   75.34    4.51   1
   6 -10  -2   17.14    2.82   1
   6 -10  -1    4.49    2.08   1
   6 -10   0    5.81    2.31   1
   6 -10   1   18.58    2.76   1
   6 -10   2    2.31    2.10   1
   6 -10   3    0.40    2.09   1
   6 -10   4   45.83    5.01   1
   6 -10   5    4.71    2.39   1
   6 -10   6    0.40    3.09   1
   6 -10   7    8.58    3.22   1
   6 -10   8    5.90    3.50   1
   6 -10   9   -2.59    4.51   1
   6 -10  11    5.02    3.81   1
   6 -10  12    4.41    4.62   1
   6  -9 -16   22.66    5.62   1
   6  -9 -15   17.39    6.00   1
   6  -9 -14   11.29    5.78   1
   6  -9 -13   20.52    4.08   1
   6  -9 -12   55.35    5.36   1
   6  -9 -11    8.18    2.92   1
   6  -9 -10    6.71    2.80   1
   6  -9  -9   19.71    2.40   1
   6  -9  -8   85.38    5.17   1
   6  -9  -7   64.16    3.68   1
   6  -9  -6   99.00    4.97   1
   6  -9  -5   78.15    3.71   1
   6  -9  -4   13.32    2.19   1
   6  -9  -3   15.29    1.72   1
   6  -9  -2   11.63    2.11   1
   6  -9  -1   34.81    2.95   1
   6  -9   0   26.83    3.00   1
   6  -9   1   -1.30    2.10   1
   6  -9   2   26.83    2.49   1
   6  -9   3   21.07    2.94   1
   6  -9   4   21.81    2.52   1
   6  -9   5   19.01    3.14   1
   6  -9   6   56.40    5.26   1
   6  -9   7   42.38    4.04   1
   6  -9   8   49.42    4.64   1
   6  -9   9    2.99    3.18   1
   6  -9  11   -1.80    4.69   1
   6  -9  12    6.92    3.89   1
   6  -9  13   21.81    5.60   1
   6  -8 -17   -2.40    4.40   1
   6  -8 -16   13.32    5.91   1
   6  -8 -15   12.39    3.80   1
   6  -8 -14   -1.80    4.40   1
   6  -8 -13   21.72    3.63   1
   6  -8 -12    4.88    3.71   1
   6  -8 -11   45.16    4.57   1
   6  -8 -10    2.59    2.29   1
   6  -8  -9   33.41    3.24   1
   6  -8  -8   12.53    2.69   1
   6  -8  -7   12.11    2.71   1
   6  -8  -6   17.81    2.03   1
   6  -8  -5   37.45    2.82   1
   6  -8  -4   92.74    4.24   1
   6  -8  -3  288.32    8.15   1
   6  -8  -2    8.88    1.79   1
   6  -8  -1    7.08    2.02   1
   6  -8   0    3.69    1.69   1
   6  -8   1   72.76    3.75   1
   6  -8   2    4.58    1.88   1
   6  -8   3    0.71    1.61   1
   6  -8   4   22.75    2.58   1
   6  -8   5   69.72    3.67   1
   6  -8   6    6.10    1.78   1
   6  -8   7   16.48    2.92   1
   6  -8   8   37.21    4.27   1
   6  -8   9    9.18    2.91   1
   6  -8  10   58.83    5.52   1
   6  -8  11    1.21    2.82   1
   6  -8  12   12.18    4.47   1
   6  -8  13    0.20    4.12   1
   6  -7 -17    2.59    5.70   1
   6  -7 -16   26.01    6.02   1
   6  -7 -15    6.92    4.31   1
   6  -7 -14   -3.31    4.51   1
   6  -7 -13   25.20    3.61   1
   6  -7 -12    5.81    2.80   1
   6  -7 -11    1.21    2.31   1
   6  -7 -10   12.39    2.18   1
   6  -7  -9    2.59    2.00   1
   6  -7  -8   42.25    2.86   1
   6  -7  -7    7.18    2.09   1
   6  -7  -6    7.29    1.78   1
   6  -7  -5    6.00    1.72   1
   6  -7  -4    2.10    2.00   1
   6  -7  -3  253.76    8.60   1
   6  -7  -2   48.02    1.80   1
   6  -7  -1    8.82    2.20   1
   6  -7   0   69.39    2.83   1
   6  -7   1   11.97    1.80   1
   6  -7   2    3.31    1.82   1
   6  -7   3   -3.50    1.91   1
   6  -7   4   28.52    2.67   1
   6  -7   5   95.26    4.68   1
   6  -7   6   23.52    2.13   1
   6  -7   7   10.30    2.50   1
   6  -7   8   64.64    5.15   1
   6  -7  10   13.32    4.38   1
   6  -7  11   -2.79    4.01   1
   6  -7  12   42.77    5.62   1
   6  -7  13    7.18    4.72   1
   6  -7  14    2.50    3.70   1
   6  -6 -17   -3.69    5.99   1
   6  -6 -16   -3.50    3.52   1
   6  -6 -15   -3.80    4.80   1
   6  -6 -14   41.99    6.74   1
   6  -6 -13   13.69    4.66   1
   6  -6 -12   32.72    4.00   1
   6  -6 -11   26.21    3.07   1
   6  -6 -10    7.02    2.70   1
   6  -6  -9   45.29    3.23   1
   6  -6  -8    8.70    2.48   1
   6  -6  -7  108.78    4.17   1
   6  -6  -6   14.82    2.08   1
   6  -6  -5  264.06    9.43   1
   6  -6  -4   18.58    1.90   1
   6  -6  -3   85.38    2.96   1
   6  -6  -2   43.03    2.49   1
   6  -6  -1   16.56    3.58   1
   6  -6   0  118.59    4.57   1
   6  -6   1  281.23    9.73   1
   6  -6   2    9.80    1.69   1
   6  -6   3   76.91    3.51   1
   6  -6   4   -0.90    1.20   1
   6  -6   5  295.15   11.34   1
   6  -6   6   85.56    4.26   1
   6  -6   7  151.78    6.41   1
   6  -6   8   33.99    2.80   1
   6  -6   9   -1.30    2.60   1
   6  -6  10  156.50    9.26   1
   6  -6  11    0.20    2.31   1
   6  -6  14   -6.71    3.00   1
   6  -6  15    6.00    5.19   1
   6  -5 -18   -1.99    3.78   1
   6  -5 -17   10.50    4.28   1
   6  -5 -16   81.54    7.95   1
   6  -5 -15   17.14    5.30   1
   6  -5 -14   69.72    6.35   1
   6  -5 -13   20.43    4.70   1
   6  -5 -12   -0.50    2.81   1
   6  -5 -11    1.30    2.51   1
   6  -5 -10    4.88    2.61   1
   6  -5  -9   79.57    4.28   1
   6  -5  -8    1.59    1.69   1
   6  -5  -7   52.71    3.19   1
   6  -5  -6   85.19    3.88   1
   6  -5  -5   64.80    3.54   1
   6  -5  -4   81.36    3.43   1
   6  -5  -3  224.40    7.49   1
   6  -5  -2   54.17    2.65   1
   6  -5  -1  404.41   10.46   1
   6  -5   0   34.11    1.28   1
   6  -5   1    4.20    1.19   1
   6  -5   2   -2.99    1.49   1
   6  -5   3   39.94    2.15   1
   6  -5   4   28.30    2.13   1
   6  -5   5    7.78    1.67   1
   6  -5   6   12.82    1.58   1
   6  -5   7    0.00    1.00   1
   6  -5   8    6.30    1.81   1
   6  -5   9   92.35    5.00   1
   6  -5  10    2.40    1.89   1
   6  -5  11   33.99    4.08   1
   6  -5  12   90.25    6.65   1
   6  -5  13    1.80    3.81   1
   6  -5  14    1.10    3.30   1
   6  -5  16    5.29    5.47   1
   6  -4 -18   25.60    7.08   1
   6  -4 -17    3.31    5.02   1
   6  -4 -16    1.21    5.02   1
   6  -4 -15    0.79    5.07   1
   6  -4 -14    5.90    3.11   1
   6  -4 -13   10.50    4.92   1
   6  -4 -12   59.44    4.16   1
   6  -4 -11   -0.71    2.20   1
   6  -4 -10    2.19    1.89   1
   6  -4  -9   32.49    2.74   1
   6  -4  -8  182.25    6.75   1
   6  -4  -7   94.28    3.69   1
   6  -4  -6   39.44    2.64   1
   6  -4  -5  302.06   10.43   1
   6  -4  -4    8.53    1.81   1
   6  -4  -3    9.42    1.60   1
   6  -4  -2   86.68    3.35   1
   6  -4  -1  186.87    6.56   1
   6  -4   0    2.99    0.80   1
   6  -4   1  906.01   22.88   1
   6  -4   2  171.87    5.77   1
   6  -4   3  253.13    7.32   1
   6  -4   4  192.10    6.65   1
   6  -4   5  238.39    9.57   1
   6  -4   6   11.22    1.67   1
   6  -4   7  283.92    9.10   1
   6  -4   8   14.82    3.46   1
   6  -4   9    1.00    1.60   1
   6  -4  10   -2.50    1.61   1
   6  -4  11   19.62    2.92   1
   6  -4  12   12.32    3.72   1
   6  -4  13    3.69    3.69   1
   6  -4  14    1.10    2.71   1
   6  -4  15    6.81    5.12   1
   6  -4  16    9.42    5.71   1
   6  -3 -18    2.69    4.10   1
   6  -3 -17   33.76    4.88   1
   6  -3 -16   -0.10    3.24   1
   6  -3 -15   18.49    4.82   1
   6  -3 -14   48.02    4.71   1
   6  -3 -13  118.59    7.84   1
   6  -3 -12   34.69    3.53   1
   6  -3 -11    1.21    1.80   1
   6  -3 -10  348.94   12.33   1
   6  -3  -9   45.56    3.24   1
   6  -3  -8   35.05    2.37   1
   6  -3  -7  146.41    5.81   1
   6  -3  -6  160.78    5.07   1
   6  -3  -5   21.72    1.49   1
   6  -3  -4   64.16    3.36   1
   6  -3  -3   40.20    2.92   1
   6  -3  -2    4.58    1.20   1
   6  -3  -1    9.42    1.11   1
   6  -3   0  453.26   11.07   1
   6  -3   1   17.47    1.42   1
   6  -3   2   38.94    1.62   1
   6  -3   3  115.56    3.65   1
   6  -3   4   27.25    1.67   1
   6  -3   5    1.59    1.49   1
   6  -3   6  105.47    3.70   1
   6  -3   7    0.59    1.59   1
   6  -3   8   -1.90    1.90   1
   6  -3   9  181.71    7.28   1
   6  -3  10   23.81    2.64   1
   6  -3  11  127.46    5.87   1
   6  -3  12    2.69    2.49   1
   6  -3  13   -2.69    3.08   1
   6  -3  14   31.25    3.80   1
   6  -3  15    4.00    4.40   1
   6  -3  16    7.29    4.91   1
   6  -3  17   -3.31    3.02   1
   6  -2 -18    6.40    6.58   1
   6  -2 -17   23.43    6.20   1
   6  -2 -16   -0.79    3.68   1
   6  -2 -15   55.35    5.65   1
   6  -2 -14    3.50    2.99   1
   6  -2 -13    8.82    3.98   1
   6  -2 -12   38.94    3.37   1
   6  -2 -11   24.60    2.58   1
   6  -2 -10    2.40    1.80   1
   6  -2  -9   10.82    2.11   1
   6  -2  -8   41.34    3.34   1
   6  -2  -7   71.06    3.03   1
   6  -2  -6   24.60    2.48   1
   6  -2  -5    8.18    1.49   1
   6  -2  -4   23.23    1.64   1
   6  -2  -3   35.28    1.78   1
   6  -2  -2 1168.96   34.19   1
   6  -2  -1   43.43    2.37   1
   6  -2   0  342.25   10.36   1
   6  -2   1  698.02   17.97   1
   6  -2   2   63.68    1.92   1
   6  -2   3  128.14    3.40   1
   6  -2   4    0.00    1.00   1
   6  -2   5  271.26    8.89   1
   6  -2   6    3.88    0.79   1
   6  -2   7   17.72    1.26   1
   6  -2   8   37.82    1.60   1
   6  -2   9    0.79    0.61   1
   6  -2  10   28.73    1.50   1
   6  -2  11  265.04    8.47   1
   6  -2  12   78.68    3.02   1
   6  -2  13   62.57    3.16   1
   6  -2  14    0.20    1.21   1
   6  -2  16   11.29    3.70   1
   6  -2  17   13.32    4.31   1
   6  -1 -18    4.41    5.00   1
   6  -1 -17   22.00    4.78   1
   6  -1 -16    9.49    5.42   1
   6  -1 -15    3.88    4.89   1
   6  -1 -14    5.11    4.20   1
   6  -1 -13   23.43    4.65   1
   6  -1 -12   11.63    2.52   1
   6  -1 -11   -1.69    2.60   1
   6  -1 -10  197.68    7.59   1
   6  -1  -9   36.36    2.41   1
   6  -1  -8   80.46    3.95   1
   6  -1  -7  112.78    4.67   1
   6  -1  -6  254.40   12.12   1
   6  -1  -5    1.30    1.00   1
   6  -1  -4  112.78    4.25   1
   6  -1  -3   16.32    1.54   1
   6  -1  -2  600.74   17.65   1
   6  -1  -1  382.59   12.13   1
   6  -1   0 1527.25   46.11   1
   6  -1   1    1.80    0.59   1
   6  -1   2  106.09    2.88   1
   6  -1   3    1.10    0.69   1
   6  -1   4   53.14    1.60   1
   6  -1   5    4.58    0.68   1
   6  -1   6    1.00    1.00   1
   6  -1   7    9.61    0.93   1
   6  -1   8   58.06    2.44   1
   6  -1   9   43.16    1.58   1
   6  -1  10    8.29    1.38   1
   6  -1  11   86.12    2.97   1
   6  -1  12    5.11    1.31   1
   6  -1  13    5.29    1.38   1
   6  -1  14    6.10    1.58   1
   6  -1  15   71.57    4.06   1
   6  -1  16   -1.80    3.81   1
   6  -1  17    5.71    4.40   1
   6  -1  18   12.67    4.91   1
   6   0 -17   28.84    6.34   1
   6   0 -16    0.90    3.40   1
   6   0 -15   53.44    5.56   1
   6   0 -14   32.38    5.46   1
   6   0 -13   32.15    4.99   1
   6   0 -12    1.49    2.29   1
   6   0 -11   14.67    2.53   1
   6   0 -10   50.27    3.26   1
   6   0  -9  433.06   14.98   1
   6   0  -8   31.25    3.35   1
   6   0  -7   33.18    2.30   1
   6   0  -6  388.88   13.41   1
   6   0  -5  419.84   13.11   1
   6   0  -4    3.39    0.99   1
   6   0  -3  155.00    5.23   1
   6   0  -2  146.17    5.08   1
   6   0  -1  153.51    4.96   1
   6   0   0   22.00    1.13   1
   6   0   1   35.64    1.19   1
   6   0   2  108.99    2.51   1
   6   0   3  516.20   12.27   1
   6   0   4  522.12   10.97   1
   6   0   5   87.61    2.43   1
   6   0   6   41.09    1.54   1
   6   0   7   30.47    1.32   1
   6   0   8  284.26    7.76   1
   6   0   9   73.79    2.58   1
   6   0  10   47.06    2.06   1
   6   0  11  183.87    6.51   1
   6   0  12    1.69    1.09   1
   6   0  13    4.58    1.28   1
   6   0  14   22.66    3.14   1
   6   0  15   63.84    5.59   1
   6   0  16   -2.40    3.01   1
   6   0  17   57.15    6.35   1
   6   0  18   15.68    3.72   1
   6   1 -17   25.00    4.90   1
   6   1 -16    1.10    4.51   1
   6   1 -15   19.36    3.78   1
   6   1 -14   13.47    3.38   1
   6   1 -13   63.36    5.57   1
   6   1 -12   19.62    4.08   1
   6   1 -11   29.16    3.35   1
   6   1 -10   29.48    2.93   1
   6   1  -9  113.85    5.12   1
   6   1  -8   12.39    2.18   1
   6   1  -7  599.76   20.57   1
   6   1  -6   62.25    3.31   1
   6   1  -5   15.92    1.44   1
   6   1  -4   11.49    1.08   1
   6   1  -3   52.56    2.18   1
   6   1  -2    3.88    0.91   1
   6   1  -1   25.60    1.32   1
   6   1   0   77.44    3.70   1
   6   1   1  212.87    5.84   1
   6   1   2  421.07    9.03   1
   6   1   3   93.32    2.32   1
   6   1   4    2.99    0.59   1
   6   1   5  555.54   13.20   1
   6   1   6  579.36   13.48   1
   6   1   7   15.21    1.09   1
   6   1   8    0.40    0.79   1
   6   1   9  200.22    5.38   1
   6   1  10  189.61    5.23   1
   6   1  11   76.74    3.68   1
   6   1  12   10.11    1.91   1
   6   1  13   12.67    1.78   1
   6   1  14   12.53    1.98   1
   6   1  15   61.62    6.12   1
   6   1  16    1.80    2.60   1
   6   1  17   23.81    3.81   1
   6   1  18   -2.40    4.90   1
   6   2 -17   -0.71    5.73   1
   6   2 -16    6.00    4.12   1
   6   2 -14   18.23    4.78   1
   6   2 -13    2.69    2.69   1
   6   2 -12   21.53    4.27   1
   6   2 -11   90.25    4.75   1
   6   2 -10   92.16    4.42   1
   6   2  -9   41.22    2.70   1
   6   2  -8   54.17    2.94   1
   6   2  -7  153.51    5.20   1
   6   2  -6  573.60   17.24   1
   6   2  -5  782.32   23.49   1
   6   2  -4    6.92    2.42   1
   6   2  -3  401.60   13.63   1
   6   2  -2  283.59    9.77   1
   6   2  -1  105.68    3.08   1
   6   2   0  277.89    7.67   1
   6   2   1  178.49    4.81   1
   6   2   2   49.56    1.55   1
   6   2   3   -0.40    0.40   1
   6   2   4   38.44    0.99   1
   6   2   5   13.03    1.30   1
   6   2   6    1.80    0.80   1
   6   2   7    3.50    0.71   1
   6   2   8   73.96    2.24   1
   6   2   9   22.47    1.52   1
   6   2  10   93.51    3.67   1
   6   2  11    0.90    1.20   1
   6   2  12   80.64    3.77   1
   6   2  13    0.10    1.92   1
   6   2  14   13.99    2.17   1
   6   2  15   18.32    3.94   1
   6   2  16   98.21    7.14   1
   6   2  17   94.48    8.75   1
   6   2  18   14.21    4.52   1
   6   3 -17    9.67    6.28   1
   6   3 -16   31.92    5.65   1
   6   3 -15   35.88    6.11   1
   6   3 -14   14.98    3.41   1
   6   3 -13   61.47    5.80   1
   6   3 -12    0.71    2.81   1
   6   3 -11   29.59    3.16   1
   6   3 -10   10.37    2.38   1
   6   3  -9  157.50    9.04   1
   6   3  -8    1.30    2.10   1
   6   3  -7  535.00   22.20   1
   6   3  -6  102.62    4.66   1
   6   3  -5   15.37    2.20   1
   6   3  -4    1.10    1.81   1
   6   3  -3  292.75   11.98   1
   6   3  -2    4.58    1.50   1
   6   3  -1  339.66    9.58   1
   6   3   0   39.69    1.26   1
   6   3   1   24.11    2.45   1
   6   3   2  112.36    3.60   1
   6   3   3 1096.27   37.75   1
   6   3   4  547.56   14.51   1
   6   3   5  145.68    3.62   1
   6   3   6 1173.06   25.35   1
   6   3   7   53.73    1.76   1
   6   3   8    7.40    1.20   1
   6   3   9    2.10    1.10   1
   6   3  10   22.37    1.80   1
   6   3  11   58.83    2.76   1
   6   3  12  136.19    5.37   1
   6   3  13   27.25    2.61   1
   6   3  14    1.90    1.60   1
   6   3  15   10.89    3.37   1
   6   3  16   44.22    4.66   1
   6   3  17    4.58    3.38   1
   6   3  18   17.81    4.90   1
   6   4 -16   12.11    5.43   1
   6   4 -15   24.50    4.75   1
   6   4 -14   59.44    5.86   1
   6   4 -13   27.04    3.95   1
   6   4 -12   27.35    5.23   1
   6   4 -11   46.38    4.63   1
   6   4 -10   27.46    2.93   1
   6   4  -9    6.81    2.71   1
   6   4  -8  282.24   10.08   1
   6   4  -7  111.30    4.85   1
   6   4  -6   16.08    2.01   1
   6   4  -5  538.24   15.78   1
   6   4  -4    2.79    1.10   1
   6   4  -3  125.22    4.25   1
   6   4  -2  119.46    3.06   1
   6   4  -1  662.03   26.76   1
   6   4   0   16.48    0.97   1
   6   4   1   49.56    1.55   1
   6   4   2  470.89   17.79   1
   6   4   3   24.11    1.57   1
   6   4   4   35.76    2.15   1
   6   4   5  217.56    5.01   1
   6   4   6    3.88    0.71   1
   6   4   7   26.11    1.33   1
   6   4   8   11.42    2.03   1
   6   4   9   16.08    2.33   1
   6   4  10   58.52    3.37   1
   6   4  11  262.44    8.75   1
   6   4  12    1.00    1.60   1
   6   4  13   33.99    2.45   1
   6   4  14  219.93    8.90   1
   6   4  15   17.14    2.57   1
   6   4  16  110.04    8.39   1
   6   4  17   35.88    3.95   1
   6   4  18   14.67    4.29   1
   6   5 -16    7.90    5.62   1
   6   5 -15    8.01    4.02   1
   6   5 -14   16.08    4.17   1
   6   5 -13   37.95    5.79   1
   6   5 -11   23.04    3.17   1
   6   5 -10   10.63    3.33   1
   6   5  -9   10.82    3.29   1
   6   5  -8    2.89    1.80   1
   6   5  -7  166.41    9.80   1
   6   5  -6  107.95    6.86   1
   6   5  -5  134.79    6.97   1
   6   5  -4   -0.59    2.09   1
   6   5  -3   79.03    2.67   1
   6   5  -2  176.89    4.79   1
   6   5  -1  440.16   10.91   1
   6   5   0    6.92    0.89   1
   6   5   1  138.77    3.53   1
   6   5   2  269.29    6.89   1
   6   5   3  163.84    4.35   1
   6   5   4  170.30    4.96   1
   6   5   5  105.88    4.32   1
   6   5   6  541.96   12.57   1
   6   5   7  300.33    6.93   1
   6   5   8  620.51   23.42   1
   6   5   9  522.12   16.45   1
   6   5  10  235.32    7.06   1
   6   5  11    0.90    1.10   1
   6   5  12  552.25   18.33   1
   6   5  13    2.59    1.29   1
   6   5  14   11.09    1.93   1
   6   5  15   10.30    2.18   1
   6   5  16   73.27    5.99   1
   6   5  17    7.40    3.59   1
   6   5  18   11.83    4.33   1
   6   6 -15    4.58    5.48   1
   6   6 -14   78.85    8.17   1
   6   6 -13   20.07    3.23   1
   6   6 -12  129.50   10.24   1
   6   6 -11   29.38    4.44   1
   6   6 -10    7.18    2.30   1
   6   6  -9  180.10    8.32   1
   6   6  -8   56.40    3.15   1
   6   6  -7    2.10    2.09   1
   6   6  -6   13.91    2.09   1
   6   6  -5   23.81    2.24   1
   6   6  -4    6.30    1.61   1
   6   6  -3   73.10    2.91   1
   6   6  -2   17.22    1.41   1
   6   6  -1  592.44   17.04   1
   6   6   0   19.36    1.06   1
   6   6   1  419.43   11.06   1
   6   6   2    3.88    0.59   1
   6   6   3  186.87    4.37   1
   6   6   4   32.49    1.03   1
   6   6   5  192.10    4.71   1
   6   6   6   20.88    1.01   1
   6   6   7   26.94    1.25   1
   6   6   8  129.96    3.65   1
   6   6   9   27.25    1.46   1
   6   6  10  299.98   10.39   1
   6   6  11   35.16    2.13   1
   6   6  12   57.15    4.23   1
   6   6  13    8.82    1.90   1
   6   6  14  149.57    6.60   1
   6   6  15    2.19    2.31   1
   6   6  16   16.56    3.91   1
   6   6  17   -1.59    3.38   1
   6   6  18   27.88    5.17   1
   6   7 -15   -7.51    6.08   1
   6   7 -14   11.42    3.99   1
   6   7 -13    2.79    2.91   1
   6   7 -12   25.40    4.84   1
   6   7 -11    8.29    3.97   1
   6   7 -10   68.23    6.77   1
   6   7  -9    6.10    3.51   1
   6   7  -8    0.40    2.29   1
   6   7  -7    1.39    1.89   1
   6   7  -6  155.00    6.47   1
   6   7  -5   29.05    2.26   1
   6   7  -4   84.82    2.76   1
   6   7  -3   43.96    1.86   1
   6   7  -2   36.72    1.58   1
   6   7  -1  128.60    3.63   1
   6   7   0   94.28    2.72   1
   6   7   1  151.54    4.43   1
   6   7   2   93.12    2.89   1
   6   7   3   36.12    1.20   1
   6   7   4   13.40    0.73   1
   6   7   5   49.56    1.55   1
   6   7   6   27.88    1.06   1
   6   7   7  394.82   10.33   1
   6   7   8   13.18    1.02   1
   6   7   9  206.50    7.47   1
   6   7  10    1.69    1.09   1
   6   7  11   14.21    1.58   1
   6   7  12   43.56    2.24   1
   6   7  13   18.92    1.57   1
   6   7  14    8.58    2.23   1
   6   7  15   37.45    3.18   1
   6   7  16   49.56    4.36   1
   6   7  17    5.52    2.73   1
   6   7  18   63.68    5.75   1
   6   8 -14   12.39    4.01   1
   6   8 -13    4.88    3.58   1
   6   8 -12   41.86   13.20   1
   6   8 -11   33.99    3.85   1
   6   8 -10   10.50    3.30   1
   6   8  -9    2.19    2.40   1
   6   8  -8  102.62    4.66   1
   6   8  -7   87.05    4.29   1
   6   8  -6    0.79    1.58   1
   6   8  -5    5.81    1.69   1
   6   8  -4   66.59    2.94   1
   6   8  -3   32.95    1.72   1
   6   8  -2  165.38    4.63   1
   6   8  -1   53.58    1.90   1
   6   8   0   88.92    2.83   1
   6   8   1  154.26    4.47   1
   6   8   2  200.22    5.66   1
   6   8   3  441.42    9.66   1
   6   8   4    1.90    0.69   1
   6   8   5   83.72    2.38   1
   6   8   6   31.25    1.23   1
   6   8   7   37.82    1.35   1
   6   8   8  104.86    3.28   1
   6   8   9    2.19    1.10   1
   6   8  10    0.30    1.21   1
   6   8  11   44.62    2.54   1
   6   8  12  155.25    6.98   1
   6   8  13   47.61    2.62   1
   6   8  14   20.79    2.46   1
   6   8  15    1.59    2.80   1
   6   8  16   36.84    4.13   1
   6   8  17    5.38    3.90   1
   6   9 -13   17.81    4.64   1
   6   9 -12    3.20    3.62   1
   6   9 -11   10.11    4.13   1
   6   9 -10   85.75    6.85   1
   6   9  -9   29.05    3.88   1
   6   9  -8   72.42    5.45   1
   6   9  -7    4.49    2.29   1
   6   9  -6   21.07    2.75   1
   6   9  -5   25.20    1.91   1
   6   9  -4  272.58    7.92   1
   6   9  -3   14.29    1.44   1
   6   9  -2    0.71    1.31   1
   6   9  -1    2.69    1.08   1
   6   9   0  549.90   14.07   1
   6   9   1  231.65    5.78   1
   6   9   2   36.72    1.94   1
   6   9   3  355.32    7.92   1
   6   9   4  194.88    4.19   1
   6   9   5  177.96    4.00   1
   6   9   6  191.27    4.70   1
   6   9   7    3.50    1.01   1
   6   9   8   98.41    3.57   1
   6   9   9    1.49    1.20   1
   6   9  10   14.90    1.62   1
   6   9  11  114.92    4.50   1
   6   9  12    8.53    1.69   1
   6   9  13   33.64    2.55   1
   6   9  14   43.16    2.76   1
   6   9  15  125.66    9.19   1
   6   9  16   27.56    3.88   1
   6   9  17   22.09    4.23   1
   6  10 -12   32.15    6.58   1
   6  10 -11   38.07    6.29   1
   6  10 -10   48.44    4.73   1
   6  10  -9   30.14    4.17   1
   6  10  -8   50.98    4.00   1
   6  10  -7   30.80    4.55   1
   6  10  -6    1.69    2.18   1
   6  10  -5    1.49    1.29   1
   6  10  -4   42.90    2.49   1
   6  10  -3    0.79    1.19   1
   6  10  -2  259.85    7.42   1
   6  10  -1    2.40    1.21   1
   6  10   0   13.76    1.26   1
   6  10   1  132.48    3.91   1
   6  10   2  596.34   14.65   1
   6  10   3   -1.21    1.01   1
   6  10   4   86.49    2.23   1
   6  10   5  142.09    3.81   1
   6  10   6  135.26    3.26   1
   6  10   7   68.56    2.32   1
   6  10   8   18.49    1.38   1
   6  10   9   11.97    1.38   1
   6  10  10    3.50    1.50   1
   6  10  11  154.50    5.97   1
   6  10  12   16.73    2.21   1
   6  10  13   90.44    4.76   1
   6  10  14    0.30    1.61   1
   6  10  15   44.89    4.56   1
   6  10  16    5.52    3.38   1
   6  10  17   16.48    4.22   1
   6  11 -12   11.49    6.37   1
   6  11 -11    0.71    5.53   1
   6  11 -10    6.40    4.40   1
   6  11  -9   60.84    5.46   1
   6  11  -8    7.51    2.69   1
   6  11  -7    9.42    3.13   1
   6  11  -6   79.92    6.26   1
   6  11  -5   68.56    3.15   1
   6  11  -4  118.16    4.35   1
   6  11  -3   56.25    2.55   1
   6  11  -2   51.55    2.44   1
   6  11  -1   15.13    1.40   1
   6  11   0  171.35    4.97   1
   6  11   1   -0.50    1.31   1
   6  11   2   81.72    2.53   1
   6  11   3   72.93    2.39   1
   6  11   4  123.21    3.33   1
   6  11   5   69.22    2.16   1
   6  11   6   42.12    1.69   1
   6  11   7   -0.50    1.31   1
   6  11   8    6.81    1.10   1
   6  11   9    2.69    1.21   1
   6  11  10   16.32    1.78   1
   6  11  11   16.97    1.98   1
   6  11  12    2.10    1.91   1
   6  11  13  173.45    7.38   1
   6  11  14   13.32    3.14   1
   6  11  15   31.70    3.72   1
   6  11  16    3.80    2.18   1
   6  12 -11   15.21    4.91   1
   6  12 -10   -4.28    4.68   1
   6  12  -9   24.21    5.22   1
   6  12  -8   72.59    6.13   1
   6  12  -7   31.81    4.74   1
   6  12  -6   12.32    3.93   1
   6  12  -5   -1.59    1.99   1
   6  12  -4   98.60    5.36   1
   6  12  -3    7.02    1.70   1
   6  12  -2    4.80    1.49   1
   6  12  -1    0.40    1.99   1
   6  12   0   31.58    2.25   1
   6  12   1   10.89    1.58   1
   6  12   2  180.10    5.10   1
   6  12   3    3.69    1.31   1
   6  12   4  359.10    7.58   1
   6  12   5    9.42    1.23   1
   6  12   6  280.23    6.70   1
   6  12   7  122.77    3.99   1
   6  12   8   12.32    1.40   1
   6  12   9    7.18    1.39   1
   6  12  10   64.64    3.86   1
   6  12  11  133.17    5.77   1
   6  12  12    2.59    1.80   1
   6  12  13   -0.79    1.80   1
   6  12  14   18.92    3.04   1
   6  12  15   36.97    4.26   1
   6  13 -10   -1.59    3.98   1
   6  13  -9   -3.39    3.50   1
   6  13  -8    1.21    3.32   1
   6  13  -7    4.08    4.61   1
   6  13  -6    4.71    2.82   1
   6  13  -5   25.30    2.82   1
   6  13  -4    4.58    2.40   1
   6  13  -3   24.60    2.68   1
   6  13  -2   17.14    1.82   1
   6  13  -1   41.34    2.44   1
   6  13   0   66.91    2.94   1
   6  13   1    7.40    1.52   1
   6  13   2    3.31    1.31   1
   6  13   3   16.40    1.38   1
   6  13   4   38.94    1.87   1
   6  13   5    7.51    1.42   1
   6  13   6  141.85    4.05   1
   6  13   7    5.81    1.59   1
   6  13   8   19.01    1.83   1
   6  13   9    2.10    1.39   1
   6  13  10   24.40    2.57   1
   6  13  11   33.41    2.89   1
   6  13  12   35.64    2.87   1
   6  13  13   82.08    5.44   1
   6  13  14    8.29    2.88   1
   6  14  -8    6.30    5.22   1
   6  14  -7   12.39    3.52   1
   6  14  -6   11.63    4.30   1
   6  14  -5   84.27    4.59   1
   6  14  -4   -1.80    1.90   1
   6  14  -3    2.50    2.40   1
   6  14  -2   28.94    3.01   1
   6  14  -1   -1.30    1.60   1
   6  14   0    1.80    1.80   1
   6  14   1    5.81    1.30   1
   6  14   2   54.17    2.36   1
   6  14   3   70.06    2.85   1
   6  14   4   71.74    2.88   1
   6  14   5   20.52    1.54   1
   6  14   6   51.41    2.44   1
   6  14   7   72.93    3.07   1
   6  14   8   29.92    2.08   1
   6  14   9    3.31    1.49   1
   6  14  10    1.99    1.61   1
   6  14  11    0.30    2.92   1
   6  14  12   32.60    4.00   1
   6  14  13   13.18    3.27   1
   6  14  14   19.36    3.96   1
   6  15  -6   11.42    5.00   1
   6  15  -5   27.88    2.85   1
   6  15  -4    4.28    2.82   1
   6  15  -3   42.38    3.39   1
   6  15  -2    1.69    2.18   1
   6  15  -1   13.03    2.09   1
   6  15   0   -2.40    1.61   1
   6  15   1   29.59    2.39   1
   6  15   2    2.31    1.79   1
   6  15   3   52.56    2.90   1
   6  15   4   17.22    2.08   1
   6  15   5    1.69    1.51   1
   6  15   6   72.59    3.07   1
   6  15   7   28.09    2.12   1
   6  15   8    1.69    1.90   1
   6  15   9    4.49    1.91   1
   6  15  10   43.56    4.22   1
   6  15  11    0.00    1.00   1
   6  15  12   26.21    3.89   1
   6  16  -5   24.30    4.14   1
   6  16  -4   -0.10    2.33   1
   6  16  -3    4.00    2.60   1
   6  16  -2    1.21    2.71   1
   6  16  -1   37.95    3.82   1
   6  16   0   10.11    2.99   1
   6  16   1   78.68    4.08   1
   6  16   2    9.80    2.00   1
   6  16   3   23.23    2.60   1
   6  16   4    5.29    1.98   1
   6  16   5   24.50    2.97   1
   6  16   6   18.32    2.82   1
   6  16   7   -0.10    2.23   1
   6  16   8    1.30    2.19   1
   6  16   9    4.41    2.90   1
   6  16  10    8.29    3.40   1
   6  16  11   -2.89    1.90   1
   6  17  -4    8.01    5.09   1
   6  17  -3   11.90    3.52   1
   6  17  -2    7.08    4.58   1
   6  17  -1   18.92    3.91   1
   6  17   0    1.39    2.10   1
   6  17   1   24.11    3.14   1
   6  17   2    2.59    2.19   1
   6  17   3   48.44    3.62   1
   6  17   4    2.99    2.21   1
   6  17   5    3.39    1.91   1
   6  17   6    6.30    2.31   1
   6  17   7    0.90    1.71   1
   6  17   8    1.39    1.89   1
   6  18  -1    5.52    4.23   1
   6  18   0    5.81    3.08   1
   6  18   1   16.32    2.67   1
   6  18   2    4.20    2.91   1
   6  18   3    0.10    2.02   1
   6  18   4    0.00    1.00   1
   6  18   5   50.55    5.55   1
   6  18   6   19.18    4.38   1
   6  18   7   61.94    6.14   1
   6  18   8   17.98    4.32   1
   6  19   3   22.00    4.78   1
   6  19   4   11.49    4.07   1
   6  19   5   10.82    4.01   1
   6  19   6    9.12    3.50   1
   6  19   7   11.70    4.38   1
   7 -15  -9   -2.31    6.32   1
   7 -15  -8    7.67    4.27   1
   7 -15  -7   -0.40    4.28   1
   7 -15  -6    5.38    6.17   1
   7 -15  -5   30.69    5.98   1
   7 -15  -4   -5.20    6.11   1
   7 -15  -3   -2.40    5.21   1
   7 -15  -2    5.81    5.78   1
   7 -15  -1   13.91    5.07   1
   7 -15   0    4.80    5.52   1
   7 -15   1   38.56    7.45   1
   7 -15   2   17.72    4.97   1
   7 -14 -11   -2.89    4.28   1
   7 -14 -10   36.84    5.46   1
   7 -14  -9   13.76    4.82   1
   7 -14  -8    5.11    6.10   1
   7 -14  -7   29.38    6.07   1
   7 -14  -6   11.22    4.22   1
   7 -14  -5   23.62    5.83   1
   7 -14  -4   21.62    4.28   1
   7 -14  -3   52.71    7.11   1
   7 -14  -2   -4.00    4.92   1
   7 -14  -1   15.76    4.53   1
   7 -14   0    2.40    3.60   1
   7 -14   1    0.50    5.42   1
   7 -14   2    2.89    5.98   1
   7 -14   3   25.20    5.02   1
   7 -14   4   14.98    5.80   1
   7 -13 -12    1.90    6.40   1
   7 -13 -11   -5.90    6.12   1
   7 -13 -10   23.33    6.09   1
   7 -13  -9    6.00    5.68   1
   7 -13  -8    9.92    3.53   1
   7 -13  -7   40.96    5.89   1
   7 -13  -6   13.40    4.61   1
   7 -13  -5   66.75    7.35   1
   7 -13  -4   -0.59    3.97   1
   7 -13  -3   12.89    5.10   1
   7 -13  -2  110.67    8.84   1
   7 -13  -1   61.15    5.32   1
   7 -13   0   -1.30    3.10   1
   7 -13   1   87.42    7.48   1
   7 -13   2    8.41    4.81   1
   7 -13   3    4.58    5.31   1
   7 -13   4   -1.59    3.38   1
   7 -13   5    9.61    4.03   1
   7 -13   6   -4.08    5.70   1
   7 -12 -13   11.63    4.09   1
   7 -12 -12   39.44    6.78   1
   7 -12 -11   14.21    5.58   1
   7 -12 -10   29.59    5.33   1
   7 -12  -9   11.70    4.31   1
   7 -12  -8   13.03    4.62   1
   7 -12  -7   -1.10    3.21   1
   7 -12  -6   31.36    5.15   1
   7 -12  -5    2.69    2.69   1
   7 -12  -4   17.39    4.50   1
   7 -12  -3    3.69    4.30   1
   7 -12  -2   58.68    6.13   1
   7 -12  -1   16.00    3.68   1
   7 -12   0   17.81    3.21   1
   7 -12   1    0.79    3.28   1
   7 -12   2   14.82    3.31   1
   7 -12   3   51.98    6.06   1
   7 -12   4    5.29    4.51   1
   7 -12   5   -1.10    5.21   1
   7 -12   6   -1.90    5.00   1
   7 -12   7    7.78    4.18   1
   7 -12   8    1.00    5.80   1
   7 -11 -14   13.32    6.42   1
   7 -11 -13   -3.31    4.91   1
   7 -11 -12   44.09    5.71   1
   7 -11 -11   14.36    3.71   1
   7 -11 -10   31.25    5.48   1
   7 -11  -9    5.29    4.60   1
   7 -11  -8    6.81    3.18   1
   7 -11  -7   45.43    2.56   1
   7 -11  -6    4.08    2.99   1
   7 -11  -5    2.99    4.29   1
   7 -11  -4   12.67    4.13   1
   7 -11  -3    3.50    3.10   1
   7 -11  -2  111.09    7.38   1
   7 -11  -1   14.29    3.18   1
   7 -11   0    0.50    2.71   1
   7 -11   1   16.08    3.13   1
   7 -11   2   -1.49    3.39   1
   7 -11   3    1.69    3.09   1
   7 -11   4   -6.20    3.09   1
   7 -11   5   46.38    5.99   1
   7 -11   6    2.31    3.22   1
   7 -11   7    9.18    3.51   1
   7 -11   8   -6.30    4.52   1
   7 -11   9   13.91    6.19   1
   7 -10 -15   39.44    5.78   1
   7 -10 -14    6.40    5.92   1
   7 -10 -13    7.67    5.60   1
   7 -10 -12   26.42    5.04   1
   7 -10 -11    9.92    4.91   1
   7 -10 -10   32.15    4.54   1
   7 -10  -9   10.11    4.32   1
   7 -10  -8   23.23    3.57   1
   7 -10  -7   37.33    5.62   1
   7 -10  -6   21.34    4.34   1
   7 -10  -5    2.10    3.02   1
   7 -10  -4  150.55    8.59   1
   7 -10  -3    2.79    2.00   1
   7 -10  -2  154.50    6.96   1
   7 -10  -1    7.40    2.61   1
   7 -10   0  100.00    6.00   1
   7 -10   1   35.64    4.66   1
   7 -10   2    0.59    3.57   1
   7 -10   3   60.53    5.60   1
   7 -10   4   16.32    4.12   1
   7 -10   5   -3.69    2.69   1
   7 -10   6   18.23    3.50   1
   7 -10   7   24.30    4.83   1
   7 -10   8    6.92    5.00   1
   7 -10   9   27.98    6.14   1
   7 -10  11   -1.00    3.80   1
   7  -9 -16    3.39    4.60   1
   7  -9 -15   18.49    6.54   1
   7  -9 -14    3.39    4.49   1
   7  -9 -13    6.10    3.21   1
   7  -9 -12    8.88    4.89   1
   7  -9 -11  110.88    7.79   1
   7  -9 -10   20.07    4.93   1
   7  -9  -9    3.20    3.19   1
   7  -9  -8   49.14    5.19   1
   7  -9  -7   36.84    4.25   1
   7  -9  -6   14.98    3.02   1
   7  -9  -5   26.63    3.20   1
   7  -9  -4    2.79    0.70   1
   7  -9  -3   70.56    3.70   1
   7  -9  -2  171.61    7.07   1
   7  -9  -1   27.98    2.33   1
   7  -9   0    0.40    1.99   1
   7  -9   1  119.25    5.68   1
   7  -9   2    2.59    1.90   1
   7  -9   3   58.22    3.97   1
   7  -9   4    5.02    3.32   1
   7  -9   5   45.70    5.54   1
   7  -9   6    2.89    3.81   1
   7  -9   7    1.99    3.98   1
   7  -9   8    0.50    4.12   1
   7  -9   9    3.88    3.90   1
   7  -9  11   13.18    3.78   1
   7  -8 -16    9.42    5.53   1
   7  -8 -15   23.81    5.27   1
   7  -8 -14   -4.58    5.61   1
   7  -8 -13   37.45    4.53   1
   7  -8 -12    8.82    3.39   1
   7  -8 -11   -2.79    4.17   1
   7  -8 -10   -2.59    2.70   1
   7  -8  -9   45.56    4.32   1
   7  -8  -8   -1.49    2.10   1
   7  -8  -7   28.41    2.56   1
   7  -8  -6   12.67    2.28   1
   7  -8  -5   89.49    4.54   1
   7  -8  -4    5.29    2.39   1
   7  -8  -3   37.95    1.60   1
   7  -8  -2  184.14    7.60   1
   7  -8  -1   38.56    3.35   1
   7  -8   0  157.00    7.02   1
   7  -8   1  341.88   12.20   1
   7  -8   2   38.19    2.97   1
   7  -8   3    4.41    2.10   1
   7  -8   4    8.88    1.91   1
   7  -8   5    3.31    2.51   1
   7  -8   6  128.60    9.30   1
   7  -8   7    0.50    3.01   1
   7  -8   8   11.09    3.40   1
   7  -8   9   21.44    3.70   1
   7  -8  11    9.12    5.44   1
   7  -8  12    3.39    3.79   1
   7  -7 -16   -1.59    5.29   1
   7  -7 -15    0.71    3.81   1
   7  -7 -14   23.52    5.63   1
   7  -7 -13   25.10    3.91   1
   7  -7 -12    1.59    3.00   1
   7  -7 -11  108.16    8.94   1
   7  -7 -10    7.51    2.52   1
   7  -7  -9   17.81    2.53   1
   7  -7  -8  125.44    5.38   1
   7  -7  -7  136.89    6.08   1
   7  -7  -6   -0.79    1.89   1
   7  -7  -5   64.16    3.52   1
   7  -7  -4  114.06    4.49   1
   7  -7  -3    5.11    1.81   1
   7  -7  -2   22.47    1.52   1
   7  -7  -1   14.82    1.08   1
   7  -7   0    3.50    1.61   1
   7  -7   1   60.22    2.79   1
   7  -7   2   12.18    2.02   1
   7  -7   3   50.41    3.27   1
   7  -7   4    4.41    2.02   1
   7  -7   5   29.59    2.94   1
   7  -7   6   25.91    2.65   1
   7  -7   7    1.80    2.09   1
   7  -7   8   89.49    6.24   1
   7  -7   9   26.83    3.94   1
   7  -7  10   12.60    2.98   1
   7  -7  11    5.38    2.69   1
   7  -7  12    4.41    4.62   1
   7  -7  13    7.67    5.26   1
   7  -7  14   31.25    5.93   1
   7  -6 -17    9.18    5.82   1
   7  -6 -16    5.71    5.78   1
   7  -6 -15    1.30    5.40   1
   7  -6 -14   26.42    5.76   1
   7  -6 -13   56.85    5.73   1
   7  -6 -12    9.12    3.50   1
   7  -6 -11   11.02    3.12   1
   7  -6 -10    7.62    2.32   1
   7  -6  -9   64.64    3.70   1
   7  -6  -8   25.30    2.82   1
   7  -6  -7    6.10    1.58   1
   7  -6  -6   21.34    2.59   1
   7  -6  -5   27.25    2.61   1
   7  -6  -4    0.79    1.30   1
   7  -6  -3  207.65    7.49   1
   7  -6  -2   17.47    1.84   1
   7  -6  -1  129.96    3.88   1
   7  -6   0  104.65    3.07   1
   7  -6   1  126.79    4.73   1
   7  -6   2   22.47    1.80   1
   7  -6   3   27.04    2.18   1
   7  -6   4  173.19    7.37   1
   7  -6   5    8.01    1.81   1
   7  -6   6  264.06   10.07   1
   7  -6   7   37.58    2.94   1
   7  -6   8    5.71    2.49   1
   7  -6  10   31.58    4.61   1
   7  -6  11   16.40    4.37   1
   7  -6  12   60.37    6.37   1
   7  -6  13    2.10    3.51   1
   7  -6  14    0.50    5.03   1
   7  -6  15    7.62    3.81   1
   7  -5 -17   16.73    5.89   1
   7  -5 -16   17.64    5.63   1
   7  -5 -15   19.18    6.22   1
   7  -5 -14    2.69    3.90   1
   7  -5 -13   71.57    6.43   1
   7  -5 -12   20.43    3.62   1
   7  -5 -11  147.14   10.19   1
   7  -5 -10    0.30    2.41   1
   7  -5  -9   20.88    2.83   1
   7  -5  -8   14.90    2.08   1
   7  -5  -7   63.36    3.82   1
   7  -5  -6   23.52    2.62   1
   7  -5  -5  162.82    5.61   1
   7  -5  -4    0.79    1.80   1
   7  -5  -3   10.89    1.78   1
   7  -5  -2    4.58    1.58   1
   7  -5  -1  295.15    7.90   1
   7  -5   0    2.99    0.90   1
   7  -5   1  162.05    4.84   1
   7  -5   2  529.46   15.65   1
   7  -5   3   75.34    3.47   1
   7  -5   4    4.49    2.50   1
   7  -5   5   36.12    2.52   1
   7  -5   6   47.75    3.04   1
   7  -5   7    3.80    1.72   1
   7  -5   8  353.06   12.40   1
   7  -5   9   15.13    3.27   1
   7  -5  10   72.42    5.45   1
   7  -5  11    1.90    3.20   1
   7  -5  12   67.40    5.25   1
   7  -5  14   72.76    7.34   1
   7  -5  15    8.53    3.62   1
   7  -4 -17   -7.62    5.91   1
   7  -4 -16   14.82    5.93   1
   7  -4 -15    4.28    3.68   1
   7  -4 -14   21.62    4.00   1
   7  -4 -13   29.05    5.50   1
   7  -4 -12   13.10    3.11   1
   7  -4 -11   60.84    3.74   1
   7  -4 -10   91.58    4.78   1
   7  -4  -9  148.35    6.58   1
   7  -4  -8   59.44    3.24   1
   7  -4  -7   14.90    1.70   1
   7  -4  -6   82.99    3.64   1
   7  -4  -5  253.45    8.92   1
   7  -4  -4   58.68    3.06   1
   7  -4  -3  233.78    7.95   1
   7  -4  -2   15.29    1.72   1
   7  -4  -1    9.18    1.51   1
   7  -4   0  323.28    8.63   1
   7  -4   1  111.72    3.17   1
   7  -4   2   30.36    1.54   1
   7  -4   3    3.20    1.50   1
   7  -4   4  124.10    5.57   1
   7  -4   5    2.40    1.12   1
   7  -4   6   50.55    2.84   1
   7  -4   7   92.74    4.24   1
   7  -4   8    2.59    2.19   1
   7  -4   9   19.18    2.37   1
   7  -4  10  155.75    6.49   1
   7  -4  11   37.82    4.43   1
   7  -4  13   -0.71    2.70   1
   7  -4  14   10.30    4.82   1
   7  -4  15    6.60    3.70   1
   7  -4  16   27.67    6.21   1
   7  -3 -17    8.12    4.62   1
   7  -3 -16    1.00    3.10   1
   7  -3 -15   14.90    3.78   1
   7  -3 -14   31.14    5.36   1
   7  -3 -13    4.08    3.39   1
   7  -3 -12   63.52    5.26   1
   7  -3 -11    1.90    2.21   1
   7  -3 -10   64.64    3.86   1
   7  -3  -9   17.98    2.04   1
   7  -3  -8  100.40    3.81   1
   7  -3  -7  127.46    5.42   1
   7  -3  -6   14.36    1.67   1
   7  -3  -5   46.10    2.85   1
   7  -3  -4   31.81    1.80   1
   7  -3  -3   40.20    2.28   1
   7  -3  -2   60.68    2.49   1
   7  -3  -1  159.77    5.56   1
   7  -3   0   24.40    1.19   1
   7  -3   1  502.21   13.00   1
   7  -3   2   13.62    1.11   1
   7  -3   3   11.83    1.58   1
   7  -3   4    8.88    1.49   1
   7  -3   5  668.74   21.21   1
   7  -3   6   49.84    2.54   1
   7  -3   7  124.77    4.91   1
   7  -3   8  255.04   12.46   1
   7  -3   9   75.86    3.66   1
   7  -3  10   75.34    3.65   1
   7  -3  11   19.71    2.66   1
   7  -3  12   21.16    3.40   1
   7  -3  13    4.58    2.70   1
   7  -3  14   24.11    4.42   1
   7  -3  15   -0.59    3.19   1
   7  -3  16   -8.12    4.22   1
   7  -2 -17    2.31    5.72   1
   7  -2 -16   17.81    5.91   1
   7  -2 -15    0.20    4.63   1
   7  -2 -14   16.16    4.58   1
   7  -2 -13    5.11    4.52   1
   7  -2 -12   58.68    4.75   1
   7  -2 -11   84.46    4.41   1
   7  -2 -10  227.10    8.14   1
   7  -2  -9   48.58    3.21   1
   7  -2  -8   46.92    3.01   1
   7  -2  -7    3.39    1.40   1
   7  -2  -6  209.67    6.37   1
   7  -2  -5    8.70    1.89   1
   7  -2  -4  195.72    6.44   1
   7  -2  -3  104.24    3.88   1
   7  -2  -2   63.52    2.39   1
   7  -2  -1    0.90    1.20   1
   7  -2   0   51.12    2.00   1
   7  -2   1  405.62    9.26   1
   7  -2   2   24.60    1.19   1
   7  -2   3  335.62    8.06   1
   7  -2   4  189.06    5.22   1
   7  -2   5  216.38    7.36   1
   7  -2   6   76.04    2.96   1
   7  -2   7   46.10    3.94   1
   7  -2   8    2.89    0.78   1
   7  -2   9    0.79    1.00   1
   7  -2  10   35.28    1.90   1
   7  -2  11   13.10    1.23   1
   7  -2  12   18.06    1.36   1
   7  -2  13    0.59    1.19   1
   7  -2  14   -3.69    3.19   1
   7  -2  15    4.20    4.59   1
   7  -2  16  139.95   10.41   1
   7  -2  17    3.10    3.80   1
   7  -1 -17   -2.79    4.11   1
   7  -1 -16   -0.71    4.02   1
   7  -1 -15   -3.39    2.91   1
   7  -1 -14   43.69    5.55   1
   7  -1 -13    2.31    3.10   1
   7  -1 -12    7.02    3.02   1
   7  -1 -11   28.94    3.55   1
   7  -1 -10   58.37    3.82   1
   7  -1  -9   17.31    2.50   1
   7  -1  -8   67.40    3.61   1
   7  -1  -7    5.29    1.38   1
   7  -1  -6   32.15    2.27   1
   7  -1  -5    8.29    1.32   1
   7  -1  -4  337.09   10.65   1
   7  -1  -3    2.79    1.20   1
   7  -1  -2   21.16    1.29   1
   7  -1  -1    1.80    0.99   1
   7  -1   0   75.52    2.78   1
   7  -1   1    0.59    0.60   1
   7  -1   2  197.96    5.63   1
   7  -1   3   55.95    1.94   1
   7  -1   4   10.63    0.98   1
   7  -1   5  436.39   10.44   1
   7  -1   6   92.74    2.70   1
   7  -1   7    8.12    1.03   1
   7  -1   8   61.31    2.51   1
   7  -1   9   18.58    1.38   1
   7  -1  10  123.21    4.00   1
   7  -1  11    1.99    1.10   1
   7  -1  12   24.40    1.88   1
   7  -1  13    5.62    1.42   1
   7  -1  14   29.16    2.27   1
   7  -1  15   -2.50    2.59   1
   7  -1  16    2.40    3.01   1
   7  -1  17    4.08    4.81   1
   7   0 -17  -10.63    5.74   1
   7   0 -16    0.90    5.51   1
   7   0 -15   37.95    5.05   1
   7   0 -14   -0.40    3.39   1
   7   0 -13   78.15    6.54   1
   7   0 -12   29.27    3.57   1
   7   0 -11   19.89    2.59   1
   7   0 -10  363.28   12.58   1
   7   0  -9   16.56    2.20   1
   7   0  -8   90.63    4.57   1
   7   0  -7    9.42    1.72   1
   7   0  -6  311.88   10.24   1
   7   0  -5   14.98    1.32   1
   7   0  -4   11.97    1.38   1
   7   0  -3   -1.21    1.21   1
   7   0  -2   26.63    1.55   1
   7   0  -1  386.12   12.97   1
   7   0   0   31.70    1.46   1
   7   0   1  149.08    3.91   1
   7   0   2  258.24    6.75   1
   7   0   3  380.25    9.36   1
   7   0   4   68.39    1.82   1
   7   0   5  199.09    4.52   1
   7   0   6  110.04    2.94   1
   7   0   7  224.10    5.69   1
   7   0   8  184.14    4.61   1
   7   0   9    1.99    0.90   1
   7   0  10  119.90    3.50   1
   7   0  11   16.48    1.38   1
   7   0  12   11.42    1.28   1
   7   0  13    4.20    1.39   1
   7   0  14   -0.59    1.79   1
   7   0  15    1.90    1.71   1
   7   0  16  120.34   10.75   1
   7   0  17   11.63    3.68   1
   7   1 -17   39.69    5.67   1
   7   1 -16   -0.59    3.77   1
   7   1 -15   -1.00    4.70   1
   7   1 -14   89.87    8.15   1
   7   1 -13    4.88    2.78   1
   7   1 -12    9.30    3.17   1
   7   1 -11   62.73    3.33   1
   7   1 -10  102.21    4.25   1
   7   1  -9    1.80    1.80   1
   7   1  -8   32.95    2.41   1
   7   1  -7    2.31    1.70   1
   7   1  -6   19.62    1.68   1
   7   1  -5   22.47    1.90   1
   7   1  -4  186.05    6.82   1
   7   1  -3   42.12    2.08   1
   7   1  -2   56.25    1.95   1
   7   1  -1    4.20    0.98   1
   7   1   0   10.82    0.99   1
   7   1   1  163.58    4.60   1
   7   1   2   11.22    0.80   1
   7   1   3   68.06    1.98   1
   7   1   4   64.96    1.77   1
   7   1   5  602.21   13.25   1
   7   1   6   22.28    1.13   1
   7   1   7  121.22    3.30   1
   7   1   8   43.56    1.72   1
   7   1   9    5.29    1.10   1
   7   1  10    9.80    1.00   1
   7   1  11   85.38    2.96   1
   7   1  12    0.79    1.30   1
   7   1  13    2.99    1.31   1
   7   1  14    2.79    1.80   1
   7   1  15   70.06    4.02   1
   7   1  16   28.62    4.39   1
   7   1  17    1.21    4.42   1
   7   2 -16   39.44    6.66   1
   7   2 -15    7.02    3.18   1
   7   2 -14    0.10    2.94   1
   7   2 -13   61.62    6.12   1
   7   2 -12   63.52    5.26   1
   7   2 -11   19.62    2.92   1
   7   2 -10    2.69    1.90   1
   7   2  -9   84.64    4.05   1
   7   2  -8  151.29    5.66   1
   7   2  -7    5.71    2.01   1
   7   2  -6  398.80   14.38   1
   7   2  -5  183.33    6.50   1
   7   2  -4   59.44    2.93   1
   7   2  -3  201.64    7.38   1
   7   2  -2   31.81    1.47   1
   7   2  -1  668.74   24.83   1
   7   2   0   84.09    2.57   1
   7   2   1    4.00    0.60   1
   7   2   2   46.38    1.36   1
   7   2   3   16.48    0.57   1
   7   2   4  134.10    3.24   1
   7   2   5    3.20    0.61   1
   7   2   6  285.95    6.43   1
   7   2   7  117.94    4.56   1
   7   2   8    4.41    0.88   1
   7   2   9   48.30    1.95   1
   7   2  10   21.81    1.31   1
   7   2  11   47.61    1.93   1
   7   2  12    9.30    1.28   1
   7   2  13   31.25    2.12   1
   7   2  14    2.19    1.51   1
   7   2  15    4.80    2.10   1
   7   2  16    7.40    3.70   1
   7   2  17    6.10    3.90   1
   7   3 -16   -2.59    3.38   1
   7   3 -14    7.18    4.72   1
   7   3 -13    3.88    3.31   1
   7   3 -12   44.49    5.34   1
   7   3 -11   30.69    4.54   1
   7   3 -10   14.36    1.89   1
   7   3  -9   73.62    3.95   1
   7   3  -8   72.59    3.58   1
   7   3  -7   10.63    1.70   1
   7   3  -6   72.42    3.23   1
   7   3  -5   53.00    2.77   1
   7   3  -4   35.64    2.63   1
   7   3  -3   -1.30    1.09   1
   7   3  -2  245.55    9.40   1
   7   3  -1  285.27    8.11   1
   7   3   0    1.59    0.60   1
   7   3   1   16.97    0.66   1
   7   3   2  103.63    3.66   1
   7   3   3  133.86    4.17   1
   7   3   4    4.08    1.09   1
   7   3   5   13.10    0.58   1
   7   3   6  157.00    3.51   1
   7   3   7  470.89   10.42   1
   7   3   8   64.16    2.08   1
   7   3   9    6.92    1.42   1
   7   3  10    0.59    1.09   1
   7   3  11   53.44    2.34   1
   7   3  12   15.76    1.91   1
   7   3  13   12.11    2.09   1
   7   3  14    6.10    2.12   1
   7   3  15  105.68    7.40   1
   7   3  16   15.92    3.03   1
   7   3  17   47.61    6.35   1
   7   4 -16   -3.10    3.91   1
   7   4 -15   -0.10    4.96   1
   7   4 -14    4.49    3.31   1
   7   4 -13    8.70    4.43   1
   7   4 -12   42.64    4.57   1
   7   4 -11   35.52    5.01   1
   7   4 -10    0.50    1.80   1
   7   4  -9   18.49    2.32   1
   7   4  -8    9.00    2.10   1
   7   4  -7    8.29    2.02   1
   7   4  -6  897.60   28.16   1
   7   4  -5  273.57    9.26   1
   7   4  -4    1.69    1.30   1
   7   4  -3   51.27    2.15   1
   7   4  -2  684.35   18.31   1
   7   4  -1  127.92    4.75   1
   7   4   0  190.99    6.63   1
   7   4   1    9.61    0.62   1
   7   4   2   19.18    1.66   1
   7   4   3   62.09    2.52   1
   7   4   4  114.70    4.28   1
   7   4   5    0.50    0.91   1
   7   4   6   50.55    1.56   1
   7   4   7  487.08   13.24   1
   7   4   8  251.86    6.67   1
   7   4   9  362.52    9.90   1
   7   4  10  113.85    3.63   1
   7   4  11   63.36    3.34   1
   7   4  12   18.58    1.90   1
   7   4  13   86.30    4.09   1
   7   4  14    1.99    1.89   1
   7   4  15   33.06    3.11   1
   7   4  16   49.98    4.52   1
   7   4  17    7.08    3.78   1
   7   5 -15    4.00    3.52   1
   7   5 -14    4.71    4.99   1
   7   5 -13    4.80   10.69   1
   7   5 -12   13.69    4.29   1
   7   5 -11  121.00    8.58   1
   7   5 -10   73.96    5.85   1
   7   5  -9   12.53    1.98   1
   7   5  -8    3.88    2.60   1
   7   5  -7  247.43    9.12   1
   7   5  -6   -1.99    1.30   1
   7   5  -5  146.89    5.09   1
   7   5  -4  289.68   24.85   1
   7   5  -3   49.14    2.24   1
   7   5  -2   56.40    1.95   1
   7   5  -1  183.60    4.88   1
   7   5   0   19.27    0.97   1
   7   5   1  793.55   21.41   1
   7   5   2  253.45    7.64   1
   7   5   3    5.11    1.49   1
   7   5   4    3.39    1.29   1
   7   5   5   48.58    2.23   1
   7   5   6  168.48    4.15   1
   7   5   7   42.51    1.56   1
   7   5   8   10.50    0.91   1
   7   5   9   42.77    1.83   1
   7   5  10   28.62    1.71   1
   7   5  11   41.09    2.31   1
   7   5  12    4.80    1.49   1
   7   5  13    7.67    1.72   1
   7   5  14   38.19    2.60   1
   7   5  15   57.76    3.65   1
   7   5  16   35.05    3.55   1
   7   5  17   41.86    5.05   1
   7   6 -15   23.14    6.06   1
   7   6 -14   -3.69    5.18   1
   7   6 -12    4.28    2.82   1
   7   6 -11   32.15    5.22   1
   7   6 -10    9.12    2.60   1
   7   6  -9  146.65    6.54   1
   7   6  -8    0.50    2.31   1
   7   6  -7   43.16    2.76   1
   7   6  -6   19.71    1.86   1
   7   6  -5  100.80    4.82   1
   7   6  -4    8.18    1.32   1
   7   6  -3  107.54    3.53   1
   7   6  -2   61.00    2.03   1
   7   6  -1    1.00    0.80   1
   7   6   0    0.79    0.89   1
   7   6   1   98.21    3.17   1
   7   6   2    5.11    0.50   1
   7   6   3  182.52    4.32   1
   7   6   4  596.82   19.06   1
   7   6   5  527.62   18.38   1
   7   6   6    6.92    0.58   1
   7   6   7    6.71    0.73   1
   7   6   8    4.08    1.01   1
   7   6   9  138.53    4.00   1
   7   6  10  237.78    8.02   1
   7   6  11    8.53    1.40   1
   7   6  12   43.69    2.25   1
   7   6  13  123.21    5.55   1
   7   6  14    0.50    1.51   1
   7   6  15   16.73    2.54   1
   7   6  16   11.90    2.97   1
   7   6  17   36.36    5.19   1
   7   7 -14   30.36    6.39   1
   7   7 -13   14.06    4.88   1
   7   7 -12   -0.50    2.91   1
   7   7 -11   98.80    7.75   1
   7   7 -10   77.44    6.51   1
   7   7  -9    0.40    3.19   1
   7   7  -8    6.50    1.89   1
   7   7  -7  225.90    9.32   1
   7   7  -6    9.67    3.42   1
   7   7  -4   20.70    1.46   1
   7   7  -3   10.82    1.32   1
   7   7  -2   22.75    1.53   1
   7   7  -1   67.08    2.13   1
   7   7   0   41.34    1.80   1
   7   7   1  281.23    7.71   1
   7   7   2  302.76    9.05   1
   7   7   3    2.59    0.61   1
   7   7   4  269.29    5.91   1
   7   7   5  114.70    3.00   1
   7   7   6  290.70    7.16   1
   7   7   7   12.39    0.70   1
   7   7   8   20.07    0.99   1
   7   7   9    2.10    1.01   1
   7   7  10    6.71    1.29   1
   7   7  11    5.71    1.20   1
   7   7  12  197.40    7.31   1
   7   7  13    3.50    1.80   1
   7   7  14  130.64    9.60   1
   7   7  15   -0.50    1.80   1
   7   7  16   -2.31    2.71   1
   7   7  17    0.71    2.91   1
   7   8 -13   -2.69    4.89   1
   7   8 -12   35.76    5.74   1
   7   8 -11   34.81    4.25   1
   7   8 -10    2.89    2.89   1
   7   8  -9  118.81    7.41   1
   7   8  -8   20.61    3.90   1
   7   8  -7   -2.40    2.29   1
   7   8  -6    7.78    2.12   1
   7   8  -5   10.11    1.97   1
   7   8  -4   51.98    2.31   1
   7   8  -3  327.25    9.77   1
   7   8  -2   72.76    2.90   1
   7   8  -1   16.56    1.30   1
   7   8   0   13.40    1.10   1
   7   8   1  275.56    7.30   1
   7   8   2   50.13    1.84   1
   7   8   3  111.94    2.75   1
   7   8   4  119.90    3.50   1
   7   8   5   17.89    0.93   1
   7   8   6   63.36    1.91   1
   7   8   7  338.19    7.36   1
   7   8   8   11.29    0.87   1
   7   8   9  119.46    3.93   1
   7   8  10  159.52    6.57   1
   7   8  11    1.90    1.21   1
   7   8  12  134.56    5.10   1
   7   8  13    2.31    1.49   1
   7   8  14   39.56    2.77   1
   7   8  15   42.64    2.87   1
   7   8  16   29.38    4.12   1
   7   9 -13   -1.10    5.61   1
   7   9 -12    7.90    5.00   1
   7   9 -11    0.71    3.21   1
   7   9 -10   51.55    5.46   1
   7   9  -9    2.40    2.91   1
   7   9  -8   56.85    5.13   1
   7   9  -7   73.79    5.67   1
   7   9  -6   16.16    2.01   1
   7   9  -5  145.68    6.28   1
   7   9  -4    8.88    1.61   1
   7   9  -3   -0.90    1.41   1
   7   9  -2   14.52    1.68   1
   7   9  -1  287.64    9.16   1
   7   9   0    6.10    1.09   1
   7   9   1   26.11    1.74   1
   7   9   2   10.30    1.41   1
   7   9   3  803.72   15.88   1
   7   9   4    5.02    0.81   1
   7   9   5  211.70    4.95   1
   7   9   6   32.49    1.48   1
   7   9   7    0.40    0.69   1
   7   9   8   75.52    2.26   1
   7   9   9    4.71    1.09   1
   7   9  10    0.90    1.01   1
   7   9  11   26.83    1.66   1
   7   9  12  138.30    5.41   1
   7   9  13    1.59    1.59   1
   7   9  14   33.76    2.44   1
   7   9  15    0.30    2.21   1
   7   9  16    1.90    3.31   1
   7  10 -12   28.94    4.52   1
   7  10 -11    0.00    1.00   1
   7  10 -10   -0.90    2.81   1
   7  10  -9    2.89    2.58   1
   7  10  -8   28.73    3.75   1
   7  10  -7    1.10    2.31   1
   7  10  -6  135.26    9.54   1
   7  10  -5   19.36    1.67   1
   7  10  -4   22.28    1.79   1
   7  10  -3   35.05    2.25   1
   7  10  -2   19.98    1.88   1
   7  10  -1   58.52    2.45   1
   7  10   0    5.11    1.22   1
   7  10   1  387.30   11.81   1
   7  10   2   12.60    1.21   1
   7  10   3  196.28    4.48   1
   7  10   4    2.40    0.90   1
   7  10   5   20.79    1.19   1
   7  10   6   64.16    1.92   1
   7  10   7   63.20    2.07   1
   7  10   8   30.25    1.43   1
   7  10   9    1.59    1.01   1
   7  10  10    7.02    1.33   1
   7  10  11   76.91    3.16   1
   7  10  12   33.76    2.09   1
   7  10  13    8.82    1.78   1
   7  10  14   75.34    4.69   1
   7  10  15    0.00    1.00   1
   7  11 -11   -2.19    3.20   1
   7  11 -10   26.21    4.51   1
   7  11  -9    3.31    2.91   1
   7  11  -8   42.64    4.31   1
   7  11  -7   15.68    3.09   1
   7  11  -6    5.38    3.80   1
   7  11  -5   -0.79    2.08   1
   7  11  -4   15.29    1.80   1
   7  11  -3    1.49    1.39   1
   7  11  -2   14.36    1.36   1
   7  11  -1   10.30    2.12   1
   7  11   0   20.88    1.46   1
   7  11   1    0.10    1.01   1
   7  11   2   27.25    1.36   1
   7  11   3   86.30    2.60   1
   7  11   4  103.63    2.85   1
   7  11   5  614.54   13.88   1
   7  11   6   55.06    1.93   1
   7  11   7    5.38    0.88   1
   7  11   8   30.80    1.55   1
   7  11   9  199.94    7.64   1
   7  11  10   12.39    1.48   1
   7  11  11   16.16    1.77   1
   7  11  12   36.24    2.53   1
   7  11  13    2.89    1.90   1
   7  11  14   26.32    2.46   1
   7  11  15   -0.40    1.99   1
   7  12 -10    0.59    5.27   1
   7  12  -9    2.19    4.68   1
   7  12  -8   30.58    4.65   1
   7  12  -7   -1.00    2.80   1
   7  12  -6  114.92    9.22   1
   7  12  -5   31.81    2.93   1
   7  12  -4   -0.20    1.81   1
   7  12  -3    0.40    1.50   1
   7  12  -2   56.25    2.70   1
   7  12  -1   27.46    2.10   1
   7  12   0   38.56    2.36   1
   7  12   1   14.36    1.67   1
   7  12   2   78.32    2.83   1
   7  12   3   22.37    1.42   1
   7  12   4   22.09    1.41   1
   7  12   5    5.62    1.18   1
   7  12   6   53.44    1.90   1
   7  12   7  164.61    4.36   1
   7  12   8  180.36    4.57   1
   7  12   9   21.62    1.49   1
   7  12  10   -0.40    1.40   1
   7  12  11   48.86    2.66   1
   7  12  12    0.79    2.30   1
   7  12  13   32.26    2.84   1
   7  12  14   31.92    3.62   1
   7  13  -9   24.60    5.65   1
   7  13  -8    8.12    4.62   1
   7  13  -7    3.10    4.89   1
   7  13  -6    6.00    3.18   1
   7  13  -5   30.25    3.08   1
   7  13  -4   63.36    3.98   1
   7  13  -3    6.30    2.11   1
   7  13  -2    3.20    2.29   1
   7  13  -1   43.96    3.45   1
   7  13   0    3.69    1.61   1
   7  13   1   -0.20    1.61   1
   7  13   2   91.58    3.06   1
   7  13   3  153.76    4.22   1
   7  13   4    8.01    1.53   1
   7  13   5   42.77    1.96   1
   7  13   6   85.38    2.77   1
   7  13   7   11.29    1.41   1
   7  13   8   14.90    1.62   1
   7  13   9  116.21    4.31   1
   7  13  10   22.28    2.27   1
   7  13  11    6.81    1.98   1
   7  13  12    8.53    1.99   1
   7  13  13   83.72    6.04   1
   7  14  -8    6.40    3.39   1
   7  14  -7   10.30    3.02   1
   7  14  -6   30.80    5.55   1
   7  14  -5    5.11    2.89   1
   7  14  -4   -1.10    2.10   1
   7  14  -3    0.20    2.62   1
   7  14  -2   28.30    3.09   1
   7  14  -1    4.00    2.20   1
   7  14   0   64.80    4.03   1
   7  14   1   16.97    1.98   1
   7  14   2   13.99    1.72   1
   7  14   3    0.00    1.00   1
   7  14   4   44.36    2.40   1
   7  14   5   37.82    1.97   1
   7  14   6    1.00    1.20   1
   7  14   7    3.88    1.50   1
   7  14   8    5.81    1.59   1
   7  14   9    6.10    1.68   1
   7  14  10   60.53    4.05   1
   7  14  11   26.73    2.38   1
   7  14  12    5.90    2.92   1
   7  15  -6   18.49    3.53   1
   7  15  -5    1.21    2.82   1
   7  15  -4   59.75    4.79   1
   7  15  -3    5.38    2.27   1
   7  15  -2   10.89    2.97   1
   7  15  -1    3.88    1.69   1
   7  15   0   25.60    3.04   1
   7  15   1   16.08    2.17   1
   7  15   2   68.72    3.48   1
   7  15   3    2.89    2.31   1
   7  15   4    1.21    1.72   1
   7  15   5    0.40    1.69   1
   7  15   6   25.30    2.31   1
   7  15   7   82.81    3.46   1
   7  15   8   72.42    3.23   1
   7  15   9   28.84    2.79   1
   7  15  10   10.30    3.02   1
   7  15  11   47.75    4.98   1
   7  16  -5   15.21    5.30   1
   7  16  -4   29.92    5.58   1
   7  16  -3   50.69    4.84   1
   7  16  -2   74.13    8.27   1
   7  16  -1   -2.79    2.40   1
   7  16   0   12.11    3.83   1
   7  16   1   -0.90    2.51   1
   7  16   2   22.18    2.83   1
   7  16   3    4.41    1.72   1
   7  16   4  119.90    5.04   1
   7  16   5    0.79    1.69   1
   7  16   6    0.40    1.99   1
   7  16   7   -0.10    2.33   1
   7  16   8   14.21    2.56   1
   7  16   9   -1.00    2.50   1
   7  17  -1   11.22    4.02   1
   7  17   0   12.82    3.29   1
   7  17   1    6.81    2.71   1
   7  17   2   14.52    2.44   1
   7  17   3    5.52    2.21   1
   7  17   4    3.61    2.01   1
   7  17   5    6.92    2.31   1
   7  17   6   11.83    3.23   1
   7  17   7    6.92    4.10   1
   7  17   8   35.16    5.46   1
   7  17   9    3.20    4.30   1
   7  18   0   18.40    4.98   1
   7  18   1    5.90    4.62   1
   7  18   2   -0.10    4.56   1
   7  18   3    6.71    2.90   1
   7  18   4   52.13    6.50   1
   7  18   5    0.59    4.17   1
   7  18   6    4.28    4.18   1
   7  18   7   -3.61    4.41   1
   7  18   8   67.73    6.25   1
   7  18   9   35.05    4.14   1
   8 -15  -5    3.80    4.02   1
   8 -15  -4   10.37    6.89   1
   8 -15  -3    8.88    4.29   1
   8 -15  -2   -1.10    5.71   1
   8 -14  -9    5.71    6.69   1
   8 -14  -8    3.31    4.80   1
   8 -14  -7    1.10    3.91   1
   8 -14  -6    3.69    5.80   1
   8 -14  -5    8.12    4.50   1
   8 -14  -4   -2.19    6.39   1
   8 -14  -3   -2.79    3.81   1
   8 -14  -2   14.21    6.11   1
   8 -14  -1   18.84    5.90   1
   8 -14   0    3.39    3.90   1
   8 -14   1    5.20    5.79   1
   8 -14   2   38.69    6.84   1
   8 -14   3    0.71    4.12   1
   8 -13 -11    1.59    4.38   1
   8 -13 -10    8.58    4.69   1
   8 -13  -9    4.58    3.68   1
   8 -13  -8    4.80    5.30   1
   8 -13  -7   27.46    5.66   1
   8 -13  -6   -0.40    3.59   1
   8 -13  -5    9.30    5.00   1
   8 -13  -4    4.28    5.01   1
   8 -13  -3   60.68    6.54   1
   8 -13  -2   35.64    5.97   1
   8 -13  -1    8.29    4.78   1
   8 -13   0   19.01    4.27   1
   8 -13   1    3.80    5.11   1
   8 -13   2   16.32    5.98   1
   8 -13   3    8.18    5.78   1
   8 -13   4    0.00    1.00   1
   8 -13   5    3.10    5.98   1
   8 -12 -12   10.11    6.68   1
   8 -12 -11   13.40    6.88   1
   8 -12 -10    9.12    5.98   1
   8 -12  -9   12.67    5.77   1
   8 -12  -8   11.02    4.38   1
   8 -12  -7   46.38    6.27   1
   8 -12  -6   -5.20    3.51   1
   8 -12  -5   -0.30    4.11   1
   8 -12  -4   -1.21    3.32   1
   8 -12  -3    2.19    4.80   1
   8 -12  -2   50.69    5.84   1
   8 -12  -1    3.39    4.60   1
   8 -12   0    6.00    3.28   1
   8 -12   1    5.90    3.79   1
   8 -12   2   32.26    4.54   1
   8 -12   3   -2.19    5.09   1
   8 -12   4    0.30    4.92   1
   8 -12   5   21.07    5.78   1
   8 -12   6   12.67    4.20   1
   8 -12   7    1.21    4.11   1
   8 -11 -13    7.62    6.02   1
   8 -11 -12    7.51    3.89   1
   8 -11 -11   11.22    3.82   1
   8 -11 -10   22.47    4.17   1
   8 -11  -9   64.96    6.13   1
   8 -11  -8   -4.80    4.29   1
   8 -11  -7   28.84    4.73   1
   8 -11  -6   95.26    7.42   1
   8 -11  -5   22.47    3.60   1
   8 -11  -4    4.58    3.89   1
   8 -11  -3  115.56    8.81   1
   8 -11  -2   39.44    5.90   1
   8 -11  -1   29.92    5.47   1
   8 -11   0    5.38    4.32   1
   8 -11   1   15.13    3.73   1
   8 -11   2    2.59    3.38   1
   8 -11   3   36.24    4.09   1
   8 -11   4    8.41    3.60   1
   8 -11   5    0.71    3.31   1
   8 -11   6    2.69    3.08   1
   8 -11   7   21.44    6.11   1
   8 -11   8  -12.82    6.73   1
   8 -11   9   -2.99    3.98   1
   8 -10 -14   41.86    6.86   1
   8 -10 -13    7.67    6.48   1
   8 -10 -12    8.29    3.97   1
   8 -10 -11    0.79    3.68   1
   8 -10 -10   66.26    6.67   1
   8 -10  -9   12.82    4.58   1
   8 -10  -8    1.30    4.31   1
   8 -10  -7  109.20    8.57   1
   8 -10  -6   13.47    3.23   1
   8 -10  -5    1.30    0.71   1
   8 -10  -4   26.32    4.31   1
   8 -10  -3   52.71    5.23   1
   8 -10  -2    2.31    2.49   1
   8 -10  -1   30.58    4.87   1
   8 -10   0    4.20    3.81   1
   8 -10   1   38.19    4.94   1
   8 -10   2   11.97    4.29   1
   8 -10   3   65.12    6.62   1
   8 -10   4   22.75    4.20   1
   8 -10   5    7.02    4.19   1
   8 -10   6    1.49    4.17   1
   8 -10   7    9.80    4.57   1
   8 -10   8   17.81    5.06   1
   8 -10   9    7.18    4.07   1
   8  -9 -15   19.10    7.34   1
   8  -9 -14   62.25    5.84   1
   8  -9 -13   21.90    5.71   1
   8  -9 -12   73.62    7.21   1
   8  -9 -11   -1.90    4.42   1
   8  -9 -10   37.70    5.65   1
   8  -9  -9    8.01    4.41   1
   8  -9  -8   -2.19    2.60   1
   8  -9  -7    0.90    4.20   1
   8  -9  -6   83.54    6.58   1
   8  -9  -5    9.30    3.17   1
   8  -9  -4    3.31    0.80   1
   8  -9  -3   67.73    4.94   1
   8  -9  -2   17.72    2.69   1
   8  -9  -1    6.20    2.39   1
   8  -9   0   -4.88    3.58   1
   8  -9   1   47.33    4.95   1
   8  -9   2   19.71    2.66   1
   8  -9   3   -5.29    2.39   1
   8  -9   4    5.38    3.99   1
   8  -9   5   48.72    5.17   1
   8  -9   6    4.28    3.60   1
   8  -9   7   47.61    5.66   1
   8  -9   8    3.80    3.78   1
   8  -9   9   26.01    6.02   1
   8  -9  11    3.39    4.31   1
   8  -8 -15    8.29    5.99   1
   8  -8 -14   20.52    6.34   1
   8  -8 -13    7.08    4.47   1
   8  -8 -12    1.39    4.48   1
   8  -8 -11    4.41    4.79   1
   8  -8 -10   67.08    6.72   1
   8  -8  -9    2.19    2.78   1
   8  -8  -8   52.27    5.06   1
   8  -8  -7   14.67    2.91   1
   8  -8  -6  149.08    6.35   1
   8  -8  -5    6.00    2.60   1
   8  -8  -4  480.92   18.86   1
   8  -8  -3   64.32    2.73   1
   8  -8  -2    4.20    0.70   1
   8  -8  -1   22.47    2.09   1
   8  -8   0    1.10    2.31   1
   8  -8   1   39.31    3.13   1
   8  -8   2   41.73    3.36   1
   8  -8   3   -1.69    2.18   1
   8  -8   4    3.50    2.28   1
   8  -8   5  134.56   10.21   1
   8  -8   6   14.52    3.81   1
   8  -8   7   -4.28    3.89   1
   8  -8   8    6.71    4.30   1
   8  -8   9   64.80    6.44   1
   8  -8  11   14.06    4.20   1
   8  -8  12   11.49    3.80   1
   8  -7 -16    2.40    6.29   1
   8  -7 -15   17.14    4.22   1
   8  -7 -14    4.20    5.21   1
   8  -7 -13    6.40    3.29   1
   8  -7 -12   67.73    6.09   1
   8  -7 -11   18.84    3.47   1
   8  -7 -10   -1.00    2.80   1
   8  -7  -9    5.11    2.71   1
   8  -7  -8   37.21    4.76   1
   8  -7  -7   10.50    2.07   1
   8  -7  -6   30.58    2.88   1
   8  -7  -5   74.65    4.15   1
   8  -7  -4   45.56    3.91   1
   8  -7  -3    3.88    2.29   1
   8  -7  -2  231.95    7.01   1
   8  -7  -1   47.61    2.21   1
   8  -7   0   47.06    3.16   1
   8  -7   1   20.34    2.07   1
   8  -7   2   60.68    3.74   1
   8  -7   3   69.56    3.84   1
   8  -7   4   35.40    3.09   1
   8  -7   5   86.68    4.66   1
   8  -7   6   26.94    4.15   1
   8  -7   7  174.77   10.84   1
   8  -7   8   27.56    3.36   1
   8  -7   9    7.51    3.40   1
   8  -7  10    6.20    2.79   1
   8  -7  11   12.67    4.63   1
   8  -7  12   11.90    4.97   1
   8  -7  13   26.21    5.02   1
   8  -6 -16    3.80    4.41   1
   8  -6 -15   18.58    6.64   1
   8  -6 -14   20.61    3.90   1
   8  -6 -13   42.64    5.35   1
   8  -6 -12  144.24    9.85   1
   8  -6 -11  111.51    8.03   1
   8  -6 -10   50.98    4.71   1
   8  -6  -9    4.80    2.72   1
   8  -6  -8   20.43    2.80   1
   8  -6  -7   33.99    2.80   1
   8  -6  -6    1.10    2.31   1
   8  -6  -5   64.64    3.38   1
   8  -6  -4  334.16   12.06   1
   8  -6  -3   27.14    2.29   1
   8  -6  -2    3.88    1.10   1
   8  -6  -1  100.60    3.41   1
   8  -6   0   25.10    1.40   1
   8  -6   1   89.49    3.97   1
   8  -6   2    9.12    1.63   1
   8  -6   3   72.76    3.92   1
   8  -6   4    4.00    1.88   1
   8  -6   5    2.59    1.51   1
   8  -6   6  113.21    5.53   1
   8  -6   7    2.31    1.49   1
   8  -6   8   49.14    4.63   1
   8  -6  10    2.89    3.20   1
   8  -6  11   20.34    4.51   1
   8  -6  12    6.71    4.30   1
   8  -6  13   -0.90    4.71   1
   8  -6  14    3.61    4.60   1
   8  -5 -16    2.19    5.59   1
   8  -5 -15   57.15    7.56   1
   8  -5 -14    9.30    3.90   1
   8  -5 -13    2.79    4.58   1
   8  -5 -12   49.56    6.34   1
   8  -5 -11   47.47    4.55   1
   8  -5 -10    1.21    2.71   1
   8  -5  -9   18.92    2.17   1
   8  -5  -8   50.55    3.41   1
   8  -5  -7   77.09    3.86   1
   8  -5  -6   21.72    2.14   1
   8  -5  -5  145.44    5.31   1
   8  -5  -4  121.22    5.51   1
   8  -5  -3   12.60    1.77   1
   8  -5  -2   47.33    3.03   1
   8  -5  -1  116.42    3.88   1
   8  -5   0  191.55    6.09   1
   8  -5   1   49.00    1.96   1
   8  -5   2   47.06    2.74   1
   8  -5   3    1.90    1.71   1
   8  -5   4  119.25    4.59   1
   8  -5   5    2.31    1.70   1
   8  -5   6   28.09    2.23   1
   8  -5   7  229.22    8.18   1
   8  -5   8   80.46    4.66   1
   8  -5  10   51.98    5.05   1
   8  -5  11   84.64    7.18   1
   8  -5  12    7.29    3.19   1
   8  -5  13  125.89   11.00   1
   8  -5  14   11.02    3.72   1
   8  -5  15    6.92    5.31   1
   8  -4 -16    4.71    3.39   1
   8  -4 -15   14.98    4.33   1
   8  -4 -14   14.67    4.98   1
   8  -4 -13   19.71    5.24   1
   8  -4 -12    5.90    3.89   1
   8  -4 -11   97.81    6.92   1
   8  -4 -10   -0.79    2.39   1
   8  -4  -9    3.50    2.21   1
   8  -4  -8   14.82    2.08   1
   8  -4  -7  108.99    5.22   1
   8  -4  -6  104.24    4.29   1
   8  -4  -5   36.72    2.55   1
   8  -4  -4  361.00   12.54   1
   8  -4  -3   11.49    1.83   1
   8  -4  -2   16.97    1.40   1
   8  -4  -1    2.10    1.19   1
   8  -4   0  151.54    4.92   1
   8  -4   1   37.45    1.84   1
   8  -4   2   21.81    1.31   1
   8  -4   3   20.43    1.81   1
   8  -4   4    8.70    1.59   1
   8  -4   5   -1.10    1.51   1
   8  -4   6  171.61    6.29   1
   8  -4   7   58.83    3.53   1
   8  -4   8  118.37    5.44   1
   8  -4   9  146.41    7.26   1
   8  -4  10   19.80    3.11   1
   8  -4  11   11.90    2.62   1
   8  -4  12   34.46    4.81   1
   8  -4  13    5.11    3.71   1
   8  -4  14    7.08    3.09   1
   8  -4  15   18.84    5.21   1
   8  -3 -16   -0.10    5.47   1
   8  -3 -15    0.20    5.13   1
   8  -3 -14    7.29    5.51   1
   8  -3 -13    0.40    2.78   1
   8  -3 -12   14.67    4.52   1
   8  -3 -11  192.38   12.21   1
   8  -3 -10   37.33    3.42   1
   8  -3  -9  197.68    7.59   1
   8  -3  -8  295.50   10.66   1
   8  -3  -7   16.89    2.14   1
   8  -3  -6    3.88    1.62   1
   8  -3  -5   42.77    2.75   1
   8  -3  -4   46.65    2.46   1
   8  -3  -3  262.76    8.75   1
   8  -3  -2   54.46    2.36   1
   8  -3  -1   98.01    3.56   1
   8  -3   0   36.12    1.56   1
   8  -3   1  302.06    8.34   1
   8  -3   2    7.62    0.99   1
   8  -3   3   18.92    1.39   1
   8  -3   4  506.70   16.21   1
   8  -3   5  119.90    4.60   1
   8  -3   6   35.64    2.15   1
   8  -3   7    2.59    1.71   1
   8  -3   8   57.46    4.55   1
   8  -3   9   29.27    2.27   1
   8  -3  10  104.45    4.70   1
   8  -3  11    8.58    3.22   1
   8  -3  12   26.21    3.89   1
   8  -3  13   70.06    6.36   1
   8  -3  14   30.47    5.19   1
   8  -3  15    2.79    4.78   1
   8  -2 -16   26.73    6.62   1
   8  -2 -15    5.02    4.79   1
   8  -2 -14   20.79    4.74   1
   8  -2 -13   50.69    5.84   1
   8  -2 -12   -1.10    3.91   1
   8  -2 -11   83.36    5.84   1
   8  -2 -10   48.16    4.44   1
   8  -2  -9   39.19    3.26   1
   8  -2  -8  124.55    4.91   1
   8  -2  -7   47.47    3.03   1
   8  -2  -6    5.52    1.79   1
   8  -2  -5    4.00    1.40   1
   8  -2  -4  137.59    4.93   1
   8  -2  -3  327.61    9.77   1
   8  -2  -2  137.12    4.68   1
   8  -2  -1  301.37    9.03   1
   8  -2   0  580.81   14.46   1
   8  -2   1   61.62    2.04   1
   8  -2   2  305.90    9.44   1
   8  -2   3   27.25    1.36   1
   8  -2   4   21.16    1.38   1
   8  -2   5    2.79    1.40   1
   8  -2   6   98.21    3.96   1
   8  -2   7    8.82    1.60   1
   8  -2   8   37.70    2.46   1
   8  -2   9    4.08    1.78   1
   8  -2  10   51.27    3.29   1
   8  -2  11    6.60    1.18   1
   8  -2  12   65.61    3.56   1
   8  -2  13    6.92    1.21   1
   8  -2  14    1.21    3.72   1
   8  -2  15   46.65    5.46   1
   8  -2  16    1.21    5.21   1
   8  -1 -16    9.12    3.81   1
   8  -1 -15    4.58    3.38   1
   8  -1 -14    4.49    3.39   1
   8  -1 -13   -2.40    4.22   1
   8  -1 -12   26.52    4.84   1
   8  -1 -11   11.97    2.98   1
   8  -1 -10   -0.30    2.21   1
   8  -1  -9  283.59   10.44   1
   8  -1  -8   28.62    2.46   1
   8  -1  -7  270.93    8.89   1
   8  -1  -6   42.64    2.61   1
   8  -1  -5  137.83    4.23   1
   8  -1  -4   56.25    2.40   1
   8  -1  -3   23.23    1.74   1
   8  -1  -2  303.80   10.11   1
   8  -1  -1   23.14    1.64   1
   8  -1   0    4.28    1.20   1
   8  -1   1   35.28    1.54   1
   8  -1   2   36.00    1.44   1
   8  -1   3    3.31    0.91   1
   8  -1   4  610.09   16.30   1
   8  -1   5  147.62    4.37   1
   8  -1   6  252.49    6.04   1
   8  -1   7   32.95    1.95   1
   8  -1   8   43.03    1.84   1
   8  -1   9   14.52    1.30   1
   8  -1  10    3.31    1.20   1
   8  -1  11   66.10    2.76   1
   8  -1  12    7.51    1.32   1
   8  -1  13    7.29    1.40   1
   8  -1  14   78.32    6.37   1
   8  -1  15    6.30    4.02   1
   8  -1  16   22.28    3.96   1
   8   0 -16   95.26    9.76   1
   8   0 -15    6.50    5.10   1
   8   0 -14   26.01    5.71   1
   8   0 -13   37.70    6.14   1
   8   0 -12    5.71    4.30   1
   8   0 -11   -1.10    2.60   1
   8   0 -10    0.59    3.97   1
   8   0  -9  221.41   11.61   1
   8   0  -8   -1.99    1.80   1
   8   0  -7  270.60    8.88   1
   8   0  -6    3.50    1.50   1
   8   0  -5  109.83    4.19   1
   8   0  -4   72.76    3.07   1
   8   0  -3  124.55    4.02   1
   8   0  -2   35.16    1.66   1
   8   0  -1  250.27    7.91   1
   8   0   0    7.29    1.08   1
   8   0   1   28.73    1.18   1
   8   0   2   31.58    1.35   1
   8   0   3  743.11   18.54   1
   8   0   4    2.31    0.70   1
   8   0   5  202.21    4.27   1
   8   0   6   93.70    2.90   1
   8   0   7    4.08    0.89   1
   8   0   8  360.62   11.01   1
   8   0   9    3.69    1.11   1
   8   0  10    6.20    1.20   1
   8   0  11   83.72    2.93   1
   8   0  12  197.12    5.90   1
   8   0  13    2.50    1.49   1
   8   0  14    9.00    2.10   1
   8   0  15    1.10    3.61   1
   8   0  16   26.32    4.82   1
   8   1 -16   -0.20    5.83   1
   8   1 -15    8.12    3.99   1
   8   1 -14   56.70   15.66   1
   8   1 -13   49.56    4.93   1
   8   1 -12   47.75    4.84   1
   8   1 -11   -4.71    2.52   1
   8   1 -10    7.90    2.02   1
   8   1  -9    8.18    2.00   1
   8   1  -8   97.02    4.73   1
   8   1  -7    5.52    2.02   1
   8   1  -6   55.95    3.14   1
   8   1  -5  245.24    8.14   1
   8   1  -4   15.52    3.70   1
   8   1  -3  275.56    8.63   1
   8   1  -2    8.12    1.20   1
   8   1  -1  258.24    8.36   1
   8   1   0   87.98    3.38   1
   8   1   1  488.41   17.24   1
   8   1   2    0.40    0.50   1
   8   1   3    7.78    0.73   1
   8   1   4  229.52    5.15   1
   8   1   5  294.47    7.55   1
   8   1   6   45.56    1.35   1
   8   1   7   29.16    1.30   1
   8   1   8   24.80    1.29   1
   8   1   9  204.20    5.43   1
   8   1  10   10.50    1.30   1
   8   1  11    4.20    1.19   1
   8   1  12   21.90    1.68   1
   8   1  13    5.81    1.49   1
   8   1  14  143.28    6.46   1
   8   1  15    6.50    3.21   1
   8   1  16   53.44    5.85   1
   8   2 -16   20.79    5.93   1
   8   2 -15   -5.71    4.49   1
   8   2 -14   10.18    5.10   1
   8   2 -13    5.71    3.20   1
   8   2 -12    0.59    3.08   1
   8   2 -11    8.41    2.78   1
   8   2 -10    2.69    2.69   1
   8   2  -9   29.38    2.71   1
   8   2  -8   -0.90    2.20   1
   8   2  -7  207.07    7.20   1
   8   2  -6  204.78    7.16   1
   8   2  -5   17.72    1.52   1
   8   2  -4    1.30    1.21   1
   8   2  -3  112.78    4.46   1
   8   2  -2   37.33    1.83   1
   8   2  -1    9.18    0.97   1
   8   2   0  250.27    8.54   1
   8   2   1   12.82    1.00   1
   8   2   2    1.39    0.50   1
   8   2   3  232.56    5.49   1
   8   2   4   23.91    0.78   1
   8   2   5  126.79    2.70   1
   8   2   6    2.89    0.78   1
   8   2   7    1.30    0.71   1
   8   2   8  260.18    6.45   1
   8   2   9   54.76    1.92   1
   8   2  10    4.49    1.10   1
   8   2  11  114.70    3.64   1
   8   2  12  153.51    5.20   1
   8   2  13    3.20    1.22   1
   8   2  14    9.61    1.67   1
   8   2  15    9.12    2.17   1
   8   2  16   91.78    7.47   1
   8   3 -15   34.81    5.90   1
   8   3 -14   14.36    4.47   1
   8   3 -13    9.80    4.01   1
   8   3 -12    8.18    3.89   1
   8   3 -11   40.45    4.45   1
   8   3 -10   59.75    5.26   1
   8   3  -9    0.40    1.40   1
   8   3  -8  311.52   12.35   1
   8   3  -7   -3.61    1.52   1
   8   3  -6   72.08    5.26   1
   8   3  -5  403.21   12.45   1
   8   3  -4   38.44    2.23   1
   8   3  -3  320.41   10.38   1
   8   3  -2   42.38    1.95   1
   8   3  -1   88.17    3.19   1
   8   3   0   18.92    0.87   1
   8   3   1   20.98    0.92   1
   8   3   2  111.09    3.16   1
   8   3   3  176.36    5.84   1
   8   3   4    5.52    1.60   1
   8   3   5  599.27   15.67   1
   8   3   6   27.25    0.94   1
   8   3   7  425.18   10.31   1
   8   3   8  191.27    5.26   1
   8   3   9  244.30    6.25   1
   8   3  10   27.04    1.66   1
   8   3  11    2.89    1.19   1
   8   3  12   71.91    2.88   1
   8   3  13    0.20    1.11   1
   8   3  14   44.76    2.54   1
   8   3  15   -1.30    1.89   1
   8   3  16   -0.90    2.20   1
   8   4 -15    1.39    3.80   1
   8   4 -14   12.89    5.10   1
   8   4 -13   39.69    4.66   1
   8   4 -12   11.70    4.10   1
   8   4 -11   21.90    4.21   1
   8   4 -10   -0.90    2.51   1
   8   4  -9   78.32    3.72   1
   8   4  -8   19.36    2.29   1
   8   4  -7   68.06    3.46   1
   8   4  -6   45.16    2.96   1
   8   4  -5   -1.59    1.59   1
   8   4  -4  103.23    6.10   1
   8   4  -3    1.49    1.29   1
   8   4  -2   23.81    1.46   1
   8   4  -1   29.59    1.20   1
   8   4   0  132.94    3.69   1
   8   4   1    7.40    0.82   1
   8   4   2   10.18    2.17   1
   8   4   3  324.00   10.44   1
   8   4   4    9.67    1.49   1
   8   4   5   21.53    1.76   1
   8   4   6   41.47    2.70   1
   8   4   7   62.25    2.21   1
   8   4   8    2.69    0.98   1
   8   4   9    9.99    0.82   1
   8   4  10   14.90    1.08   1
   8   4  11   86.30    2.79   1
   8   4  12   10.69    1.37   1
   8   4  13   21.90    1.87   1
   8   4  14    1.59    1.39   1
   8   4  15  101.81    5.05   1
   8   4  16   44.76    3.48   1
   8   5 -15    6.50    5.30   1
   8   5 -14   28.20    4.35   1
   8   5 -13    6.81    4.02   1
   8   5 -12    8.70    4.19   1
   8   5 -11    4.28    2.69   1
   8   5 -10    6.30    3.61   1
   8   5  -9    0.00    1.00   1
   8   5  -8    2.19    3.11   1
   8   5  -7    7.18    1.82   1
   8   5  -6  433.06   13.73   1
   8   5  -5    2.31    1.70   1
   8   5  -4    6.92    1.58   1
   8   5  -3    6.92    1.53   1
   8   5  -2  408.04   14.14   1
   8   5  -1    0.00    1.00   1
   8   5   0  201.92    5.40   1
   8   5   1    0.90    0.49   1
   8   5   2  117.51    3.90   1
   8   5   3    5.81    1.40   1
   8   5   4    3.69    1.61   1
   8   5   5   25.91    2.14   1
   8   5   6   40.96    2.56   1
   8   5   7  159.01    3.78   1
   8   5   8   38.32    1.24   1
   8   5   9   11.22    1.07   1
   8   5  10   42.77    1.96   1
   8   5  11  171.09    5.23   1
   8   5  12    0.50    1.11   1
   8   5  13    5.11    1.40   1
   8   5  14   15.92    2.07   1
   8   5  15    3.31    1.82   1
   8   5  16    7.02    2.28   1
   8   6 -14    2.69    3.61   1
   8   6 -13   48.44    6.54   1
   8   6 -12   14.82    3.23   1
   8   6 -11   -4.71    3.99   1
   8   6 -10   37.33    4.15   1
   8   6  -9   73.10    5.64   1
   8   6  -8    2.89    1.60   1
   8   6  -7   43.16    3.02   1
   8   6  -6    3.61    1.52   1
   8   6  -5   -0.90    1.60   1
   8   6  -4  311.17   11.64   1
   8   6  -3   22.56    1.43   1
   8   6  -2    1.59    1.01   1
   8   6  -1    0.20    0.91   1
   8   6   0  449.02   12.29   1
   8   6   1   74.48    2.42   1
   8   6   2  508.95   12.18   1
   8   6   3    2.31    1.40   1
   8   6   4    9.49    1.29   1
   8   6   5    8.29    1.73   1
   8   6   6    5.11    1.72   1
   8   6   7   19.27    0.70   1
   8   6   8   83.36    2.37   1
   8   6   9  173.19    4.74   1
   8   6  10    2.31    0.91   1
   8   6  11   36.60    1.57   1
   8   6  12   21.16    1.47   1
   8   6  13   36.24    3.73   1
   8   6  14   15.52    1.89   1
   8   6  15   89.68    6.44   1
   8   6  16    3.20    2.51   1
   8   7 -14    0.00    1.00   1
   8   7 -13   -6.20    3.19   1
   8   7 -12   29.38    5.75   1
   8   7 -11   39.69    4.91   1
   8   7 -10    8.12    4.33   1
   8   7  -9   10.30    3.72   1
   8   7  -8   71.23    5.91   1
   8   7  -7   25.10    2.81   1
   8   7  -6   20.79    1.92   1
   8   7  -5    5.52    1.93   1
   8   7  -4    4.80    1.71   1
   8   7  -3   43.03    2.10   1
   8   7  -2  322.20    8.98   1
   8   7  -1    6.92    1.00   1
   8   7   0    3.61    0.91   1
   8   7   1    8.41    1.10   1
   8   7   2  607.62   16.27   1
   8   7   3   42.90    1.18   1
   8   7   4  242.74    9.66   1
   8   7   5    5.81    1.88   1
   8   7   6   30.47    1.88   1
   8   7   7   53.73    1.76   1
   8   7   8  222.01    5.36   1
   8   7   9   44.49    1.60   1
   8   7  10  239.94    7.13   1
   8   7  11   92.74    3.08   1
   8   7  12    6.60    1.49   1
   8   7  13   26.63    2.27   1
   8   7  14   15.21    2.11   1
   8   7  15    7.02    3.02   1
   8   7  16   22.09    4.14   1
   8   8 -13   22.94    5.08   1
   8   8 -12   19.01    5.41   1
   8   8 -11    3.20    4.90   1
   8   8 -10   -0.71    2.91   1
   8   8  -9  185.78   11.18   1
   8   8  -8   -0.20    3.12   1
   8   8  -7   28.73    2.68   1
   8   8  -6   71.40    3.72   1
   8   8  -5    0.10    1.92   1
   8   8  -4   80.82    3.42   1
   8   8  -3   -0.20    1.41   1
   8   8  -2   67.90    2.47   1
   8   8  -1    0.59    1.00   1
   8   8   0  261.15    6.46   1
   8   8   1    1.10    1.09   1
   8   8   2  317.55    8.20   1
   8   8   3    4.00    0.60   1
   8   8   4   75.69    2.26   1
   8   8   5   41.99    1.30   1
   8   8   6   65.12    1.94   1
   8   8   7    5.90    0.78   1
   8   8   8   16.73    0.90   1
   8   8   9  318.98    8.57   1
   8   8  10  189.61    5.51   1
   8   8  11    3.69    1.00   1
   8   8  12   53.00    2.62   1
   8   8  13    0.50    1.41   1
   8   8  14   10.11    1.78   1
   8   8  15   33.99    2.91   1
   8   9 -12    6.71    4.82   1
   8   9 -11   43.16    5.91   1
   8   9 -10    2.50    3.00   1
   8   9  -9   29.38    4.23   1
   8   9  -8   27.46    3.46   1
   8   9  -7    4.00    3.40   1
   8   9  -6    0.30    2.31   1
   8   9  -5    3.88    2.09   1
   8   9  -4    2.19    1.51   1
   8   9  -3   36.60    1.94   1
   8   9  -2  112.57    3.40   1
   8   9  -1   17.89    1.44   1
   8   9   0   18.23    1.37   1
   8   9   1    9.49    0.99   1
   8   9   2  473.06   11.31   1
   8   9   3   12.11    1.18   1
   8   9   4   60.06    1.86   1
   8   9   5    1.80    0.59   1
   8   9   6   61.47    1.72   1
   8   9   7   -0.30    0.61   1
   8   9   8   43.56    1.72   1
   8   9   9   11.63    0.89   1
   8   9  10   29.92    1.64   1
   8   9  11   60.37    3.11   1
   8   9  12    2.19    1.89   1
   8   9  13   44.36    2.66   1
   8   9  14   23.43    2.13   1
   8   9  15    3.80    2.11   1
   8  10 -11   -5.38    4.41   1
   8  10 -10    8.58    4.51   1
   8  10  -9   74.48    6.21   1
   8  10  -8    8.01    2.77   1
   8  10  -7   30.36    3.42   1
   8  10  -6    4.28    2.19   1
   8  10  -5    1.30    1.80   1
   8  10  -4    1.30    1.39   1
   8  10  -3   31.25    2.35   1
   8  10  -2   83.54    3.47   1
   8  10  -1   59.29    2.62   1
   8  10   0   39.69    2.02   1
   8  10   1   13.03    1.30   1
   8  10   2   24.50    1.88   1
   8  10   3    0.10    0.81   1
   8  10   4    1.10    0.80   1
   8  10   5  331.24    7.64   1
   8  10   6  124.77    2.90   1
   8  10   7    0.71    0.71   1
   8  10   8    2.10    1.01   1
   8  10   9   77.44    2.29   1
   8  10  10  122.99    3.33   1
   8  10  11    0.90    1.20   1
   8  10  12   -2.10    1.19   1
   8  10  13    0.71    1.51   1
   8  10  14   -4.08    1.78   1
   8  11 -11   30.47    4.53   1
   8  11 -10    4.28    3.97   1
   8  11  -9    0.50    3.41   1
   8  11  -8    9.67    2.99   1
   8  11  -7    2.79    2.91   1
   8  11  -6    4.28    2.48   1
   8  11  -5   15.13    3.97   1
   8  11  -4   58.98    3.23   1
   8  11  -3   34.69    2.36   1
   8  11  -2    0.10    1.22   1
   8  11  -1    5.71    1.39   1
   8  11   0   26.42    1.85   1
   8  11   1   67.08    3.11   1
   8  11   2   64.32    2.25   1
   8  11   3    5.38    1.11   1
   8  11   4  255.36    6.07   1
   8  11   5    9.30    1.10   1
   8  11   6    2.89    0.88   1
   8  11   7    9.18    1.09   1
   8  11   8   38.94    2.25   1
   8  11   9  122.10    3.54   1
   8  11  10   97.81    3.16   1
   8  11  11    3.31    1.42   1
   8  11  12    0.71    1.41   1
   8  11  13    3.39    1.58   1
   8  11  14   95.06    4.88   1
   8  12 -10   28.09    5.19   1
   8  12  -9   19.62    3.54   1
   8  12  -8    2.50    2.91   1
   8  12  -7   87.24    7.29   1
   8  12  -6   27.25    3.65   1
   8  12  -5   37.21    3.05   1
   8  12  -4    2.89    3.20   1
   8  12  -3   30.14    2.31   1
   8  12  -2    1.69    1.20   1
   8  12  -1   61.31    2.98   1
   8  12   0   -1.30    1.39   1
   8  12   1   61.31    2.66   1
   8  12   2   20.43    1.54   1
   8  12   3  115.99    3.45   1
   8  12   4    1.00    1.10   1
   8  12   5   39.31    1.76   1
   8  12   6    2.40    0.99   1
   8  12   7    1.80    1.10   1
   8  12   8  103.84    3.06   1
   8  12   9   10.82    1.32   1
   8  12  10   32.04    2.04   1
   8  12  11   12.32    1.68   1
   8  12  12   27.98    2.22   1
   8  12  13    6.60    2.11   1
   8  12  14   50.55    5.40   1
   8  13  -8    9.12    5.32   1
   8  13  -7    4.08    4.08   1
   8  13  -6    0.90    2.60   1
   8  13  -5   51.70    3.88   1
   8  13  -4    7.78    2.68   1
   8  13  -3    8.18    2.17   1
   8  13  -2    1.59    1.49   1
   8  13  -1   21.81    2.24   1
   8  13   0    3.88    2.09   1
   8  13   1  117.94    4.56   1
   8  13   2   13.62    1.40   1
   8  13   3   28.30    1.60   1
   8  13   4  177.96    4.54   1
   8  13   5    2.59    1.19   1
   8  13   6    3.50    1.31   1
   8  13   7   66.10    2.44   1
   8  13   8   12.82    1.72   1
   8  13   9    7.51    1.59   1
   8  13  10  156.75    5.76   1
   8  13  11    1.30    1.60   1
   8  13  12   12.82    2.00   1
   8  13  13   26.42    3.80   1
   8  14  -7   19.01    5.14   1
   8  14  -6   17.39    5.00   1
   8  14  -5    4.88    3.89   1
   8  14  -4    8.88    2.92   1
   8  14  -3   79.03    4.98   1
   8  14  -2    9.99    2.40   1
   8  14  -1   34.81    3.07   1
   8  14   0    1.30    2.39   1
   8  14   1    1.39    1.60   1
   8  14   2    4.71    1.52   1
   8  14   3  211.41    6.11   1
   8  14   4    0.59    1.49   1
   8  14   5   11.42    1.69   1
   8  14   6    3.88    1.62   1
   8  14   7   63.20    2.86   1
   8  14   8   13.99    1.80   1
   8  14   9  162.82    5.61   1
   8  14  10   13.18    2.11   1
   8  14  11    4.58    3.38   1
   8  14  12   27.04    3.64   1
   8  15  -5    6.10    3.21   1
   8  15  -4   25.30    4.73   1
   8  15  -3    1.59    3.58   1
   8  15  -2   33.29    4.39   1
   8  15  -1   11.22    3.82   1
   8  15   0   18.92    3.57   1
   8  15   1   64.32    4.33   1
   8  15   2   14.98    2.48   1
   8  15   3    1.49    1.59   1
   8  15   4    7.67    1.72   1
   8  15   5  207.07    7.48   1
   8  15   6   83.36    3.47   1
   8  15   7   40.07    2.53   1
   8  15   8    1.21    1.50   1
   8  15   9   16.16    1.77   1
   8  15  10    1.00    2.10   1
   8  16  -1    1.00    3.10   1
   8  16   0   86.12    7.80   1
   8  16   1   28.41    2.88   1
   8  16   2    0.30    1.90   1
   8  16   3   52.56    3.62   1
   8  16   4   31.02    3.34   1
   8  16   5   12.53    2.41   1
   8  16   6    1.00    4.30   1
   8  16   7   17.47    4.51   1
   8  16   8    5.02    3.81   1
   8  16   9   81.90    7.06   1
   8  16  10    8.82    3.62   1
   8  17   1    3.80    4.29   1
   8  17   2   20.79    4.83   1
   8  17   3    8.01    4.19   1
   8  17   4    4.08    4.40   1
   8  17   5   23.23    4.82   1
   8  17   6    1.99    3.10   1
   8  17   7    6.71    3.11   1
   8  17   8    9.12    4.89   1
   8  17   9   11.90    4.83   1
   8  18   1    6.71    3.88   1
   8  18   2   -9.42    4.61   1
   8  18   3    3.61    4.90   1
   8  18   4    8.12    4.79   1
   8  18   5    3.80    3.12   1
   8  18   6   22.18    5.28   1
   8  18   7   33.52    6.02   1
   8  18   8   23.81    5.86   1
   8  18   9   21.16    4.78   1
   9 -14  -4    8.82    4.99   1
   9 -14  -3   -4.00    6.00   1
   9 -14  -2    8.29    5.13   1
   9 -14  -1   -1.30    6.50   1
   9 -13  -9    7.08    6.01   1
   9 -13  -8    1.80    4.29   1
   9 -13  -7   11.70    5.47   1
   9 -13  -6   24.40    6.72   1
   9 -13  -5    1.10    3.61   1
   9 -13  -4    6.92    5.68   1
   9 -13  -3    3.88    5.48   1
   9 -13  -2    6.30    4.02   1
   9 -13  -1   -6.20    5.48   1
   9 -13   0   21.81    4.02   1
   9 -13   1    2.89    3.81   1
   9 -13   2   29.70    6.76   1
   9 -13   3   11.97    6.02   1
   9 -12 -10   18.32    5.39   1
   9 -12  -9    1.00    6.40   1
   9 -12  -8   15.29    5.40   1
   9 -12  -6   -1.59    5.47   1
   9 -12  -5   11.83    3.58   1
   9 -12  -4   12.82    5.73   1
   9 -12  -3   13.10    4.27   1
   9 -12  -2    2.59    5.18   1
   9 -12  -1    4.88    4.99   1
   9 -12   0    6.30    4.92   1
   9 -12   1    5.81    3.81   1
   9 -12   2   19.80    4.63   1
   9 -12   3    4.71    5.51   1
   9 -12   4   47.33    7.16   1
   9 -12   5    8.70    5.31   1
   9 -11 -12   -6.00    5.68   1
   9 -11 -11    3.39    5.48   1
   9 -11 -10   14.59    5.50   1
   9 -11  -9    1.21    4.22   1
   9 -11  -8    4.58    3.60   1
   9 -11  -7   21.62    5.39   1
   9 -11  -6   17.81    3.97   1
   9 -11  -5   26.11    5.42   1
   9 -11  -4    3.10    3.41   1
   9 -11  -3  153.26   10.15   1
   9 -11  -2   20.79    5.20   1
   9 -11  -1    2.19    4.20   1
   9 -11   0    7.08    4.31   1
   9 -11   1   14.36    4.40   1
   9 -11   2   81.36    7.58   1
   9 -11   3   22.09    4.61   1
   9 -11   4    7.02    3.50   1
   9 -11   5    2.79    3.61   1
   9 -11   6   45.97    7.05   1
   9 -11   7    1.30    5.91   1
   9 -10 -13   14.82    5.93   1
   9 -10 -12    4.49    3.82   1
   9 -10 -11   25.60    4.25   1
   9 -10 -10    2.50    3.79   1
   9 -10  -9    4.71    4.69   1
   9 -10  -8   15.21    4.84   1
   9 -10  -7   26.73    4.34   1
   9 -10  -6    2.19    4.59   1
   9 -10  -5   71.40    3.38   1
   9 -10  -4   24.30    4.34   1
   9 -10  -3   30.03    4.27   1
   9 -10  -2   26.63    4.95   1
   9 -10  -1   24.21    4.53   1
   9 -10   0    7.29    4.21   1
   9 -10   1   -4.08    4.08   1
   9 -10   2    2.89    3.98   1
   9 -10   3   18.58    4.91   1
   9 -10   4   30.47    4.97   1
   9 -10   5    0.10    4.25   1
   9 -10   6    1.39    4.48   1
   9 -10   7    1.00    4.70   1
   9 -10   8    2.31    5.41   1
   9 -10   9   -1.10    4.09   1
   9  -9 -13   21.90    6.65   1
   9  -9 -12    5.38    5.38   1
   9  -9 -11   15.52    5.83   1
   9  -9 -10   17.47    4.77   1
   9  -9  -9   39.82    5.68   1
   9  -9  -8   -0.10    3.03   1
   9  -9  -7   40.45    5.34   1
   9  -9  -6   -0.30    2.51   1
   9  -9  -5    2.59    3.70   1
   9  -9  -4  155.00    6.47   1
   9  -9  -3    6.30    3.92   1
   9  -9  -2    9.30    3.78   1
   9  -9  -1    3.50    3.59   1
   9  -9   0   12.32    3.30   1
   9  -9   1    3.20    4.12   1
   9  -9   2   31.25    3.58   1
   9  -9   3    3.10    2.71   1
   9  -9   4   14.67    4.21   1
   9  -9   5    5.02    4.39   1
   9  -9   6  128.37    7.70   1
   9  -9   7    9.61    4.53   1
   9  -9   8   -4.20    4.39   1
   9  -9   9    6.60    3.80   1
   9  -8 -14    4.00    6.32   1
   9  -8 -13   30.47    5.52   1
   9  -8 -12   44.36    7.86   1
   9  -8 -11   89.11    9.44   1
   9  -8 -10   24.30    5.42   1
   9  -8  -9   -1.30    3.01   1
   9  -8  -8    7.78    2.90   1
   9  -8  -7   14.52    4.04   1
   9  -8  -6    9.30    4.21   1
   9  -8  -5   53.73    5.13   1
   9  -8  -4    3.61    2.32   1
   9  -8  -3   12.39    1.41   1
   9  -8  -2    9.49    1.11   1
   9  -8  -1   61.94    5.67   1
   9  -8   0    2.59    3.38   1
   9  -8   1   24.01    3.14   1
   9  -8   3   11.97    4.01   1
   9  -8   4   42.12    4.80   1
   9  -8   5    5.90    2.82   1
   9  -8   6    1.10    3.80   1
   9  -8   7   -5.62    3.60   1
   9  -8   8   39.94    5.44   1
   9  -8   9   -1.80    4.50   1
   9  -8  11    3.61    3.99   1
   9  -7 -15   12.67    4.98   1
   9  -7 -14   -5.20    5.70   1
   9  -7 -13    5.62    5.21   1
   9  -7 -12   18.92    3.83   1
   9  -7 -11   13.03    3.90   1
   9  -7 -10    6.20    3.59   1
   9  -7  -9    6.20    3.09   1
   9  -7  -8    2.31    3.71   1
   9  -7  -7   96.63    6.49   1
   9  -7  -6   55.35    4.76   1
   9  -7  -5    0.59    2.48   1
   9  -7  -4   18.23    2.73   1
   9  -7  -3   30.36    1.98   1
   9  -7  -2   44.49    2.40   1
   9  -7  -1    0.40    0.89   1
   9  -7   0    1.10    1.81   1
   9  -7   1    9.00    1.98   1
   9  -7   2   10.69    2.49   1
   9  -7   3   49.28    3.65   1
   9  -7   4    0.20    3.01   1
   9  -7   5   17.89    3.21   1
   9  -7   6  207.94   10.96   1
   9  -7   7   13.69    3.92   1
   9  -7   8    8.88    3.99   1
   9  -7   9   21.07    5.32   1
   9  -7  11    0.90    4.81   1
   9  -7  12   21.07    4.68   1
   9  -6 -15   -6.81    5.48   1
   9  -6 -14   -3.88    3.78   1
   9  -6 -13    3.50    5.09   1
   9  -6 -12   44.36    6.26   1
   9  -6 -11    1.99    2.90   1
   9  -6 -10    2.99    3.08   1
   9  -6  -9   -1.30    3.31   1
   9  -6  -8   10.50    3.63   1
   9  -6  -7    8.58    2.52   1
   9  -6  -6   51.41    3.87   1
   9  -6  -5   81.18    4.51   1
   9  -6  -4    6.10    2.22   1
   9  -6  -3   96.04    4.70   1
   9  -6  -2    2.10    1.10   1
   9  -6  -1    2.40    0.99   1
   9  -6   0   85.75    3.15   1
   9  -6   1   82.26    3.27   1
   9  -6   2   19.54    2.12   1
   9  -6   3   -1.00    2.00   1
   9  -6   4    1.80    2.30   1
   9  -6   5   36.97    2.80   1
   9  -6   6    3.50    2.28   1
   9  -6   7   23.91    3.03   1
   9  -6   8   96.04    8.04   1
   9  -6   9    3.61    2.39   1
   9  -6  10    7.67    3.10   1
   9  -6  11   -1.80    2.71   1
   9  -6  12    0.50    3.11   1
   9  -6  13    4.49    4.79   1
   9  -5 -15   15.13    5.29   1
   9  -5 -14    0.71    5.12   1
   9  -5 -13    1.30    3.10   1
   9  -5 -12   27.35    5.02   1
   9  -5 -11   11.70    4.58   1
   9  -5 -10  123.65    8.45   1
   9  -5  -9   23.62    4.18   1
   9  -5  -8   21.90    3.74   1
   9  -5  -7    4.08    1.78   1
   9  -5  -6   94.09    4.07   1
   9  -5  -5   34.11    2.69   1
   9  -5  -4   18.32    2.31   1
   9  -5  -3   59.44    2.78   1
   9  -5  -2    2.79    1.90   1
   9  -5  -1   65.93    2.76   1
   9  -5   0    3.50    1.08   1
   9  -5   1   22.18    1.51   1
   9  -5   2   43.56    2.11   1
   9  -5   3  110.67    4.21   1
   9  -5   4   18.06    2.12   1
   9  -5   5   30.69    2.66   1
   9  -5   6   -0.71    2.02   1
   9  -5   7   72.59    4.43   1
   9  -5   8    8.01    3.28   1
   9  -5  10    9.80    3.38   1
   9  -5  12    9.00    4.80   1
   9  -5  13    5.29    4.60   1
   9  -4 -15   15.21    5.69   1
   9  -4 -14   -0.59    4.67   1
   9  -4 -13   27.77    4.01   1
   9  -4 -12   30.91    5.34   1
   9  -4 -11    9.49    4.31   1
   9  -4 -10   29.27    4.65   1
   9  -4  -9   14.52    4.19   1
   9  -4  -8   34.46    3.40   1
   9  -4  -7    8.12    2.22   1
   9  -4  -6    0.20    2.72   1
   9  -4  -5   36.24    2.77   1
   9  -4  -4    1.99    1.89   1
   9  -4  -3   12.32    1.83   1
   9  -4  -2  162.56    6.12   1
   9  -4  -1   15.76    1.59   1
   9  -4   0  153.26    4.46   1
   9  -4   1   75.86    2.61   1
   9  -4   2   62.41    2.37   1
   9  -4   3   74.13    2.76   1
   9  -4   4   12.60    1.77   1
   9  -4   5   74.13    3.44   1
   9  -4   6   -0.40    1.69   1
   9  -4   7    5.20    1.69   1
   9  -4   8   -0.59    2.09   1
   9  -4  11   47.33    5.37   1
   9  -4  12    2.89    3.60   1
   9  -4  13   11.02    4.58   1
   9  -4  14    5.81    3.33   1
   9  -3 -15   51.27    7.73   1
   9  -3 -14    9.30    4.09   1
   9  -3 -13   44.36   15.05   1
   9  -3 -12   10.50    3.18   1
   9  -3 -11   61.62    5.97   1
   9  -3 -10   64.96    6.61   1
   9  -3  -9    9.30    2.50   1
   9  -3  -8   23.33    2.90   1
   9  -3  -7   46.24    2.99   1
   9  -3  -6  211.12    7.56   1
   9  -3  -5   10.50    2.40   1
   9  -3  -4  561.69   17.54   1
   9  -3  -3   76.04    4.36   1
   9  -3  -2   70.22    3.35   1
   9  -3  -1  147.38    5.34   1
   9  -3   0  197.12    5.62   1
   9  -3   1  226.80    6.33   1
   9  -3   2   -0.20    1.01   1
   9  -3   3   13.10    1.23   1
   9  -3   4  105.88    3.50   1
   9  -3   5   13.69    1.63   1
   9  -3   6   -1.69    1.09   1
   9  -3   7    1.39    1.49   1
   9  -3   8   44.49    4.54   1
   9  -3   9  295.15   11.34   1
   9  -3  10    8.82    1.78   1
   9  -3  11   28.30    3.62   1
   9  -3  13   54.76    5.62   1
   9  -3  14    0.30    2.61   1
   9  -2 -16   16.97    4.70   1
   9  -2 -15   16.56    3.91   1
   9  -2 -14   45.56    6.34   1
   9  -2 -13   -3.20    5.41   1
   9  -2 -12   46.79    4.51   1
   9  -2 -11    9.42    4.18   1
   9  -2 -10    2.40    2.51   1
   9  -2  -9   -0.79    1.99   1
   9  -2  -8  103.23    4.47   1
   9  -2  -7   11.97    2.70   1
   9  -2  -6   -0.50    1.70   1
   9  -2  -5   35.16    2.49   1
   9  -2  -4  108.58    4.58   1
   9  -2  -3   -0.20    1.21   1
   9  -2  -2  132.02    4.60   1
   9  -2  -1  347.08   11.18   1
   9  -2   0    4.58    1.11   1
   9  -2   1    6.10    0.99   1
   9  -2   2  203.35    5.70   1
   9  -2   3  275.23    8.63   1
   9  -2   4  618.02   16.41   1
   9  -2   5  126.34    4.50   1
   9  -2   6   28.73    1.93   1
   9  -2   7   52.85    2.76   1
   9  -2   8   26.52    2.06   1
   9  -2   9    2.59    1.61   1
   9  -2  10    0.30    1.90   1
   9  -2  11  116.86    5.19   1
   9  -2  12    2.59    3.19   1
   9  -2  13    6.40    2.48   1
   9  -2  14    1.10    3.61   1
   9  -1 -15   17.89    6.26   1
   9  -1 -14   12.82    5.58   1
   9  -1 -13   21.62    4.28   1
   9  -1 -12   52.13    4.48   1
   9  -1 -11   29.59    5.55   1
   9  -1 -10    0.59    2.59   1
   9  -1  -9   55.65    5.52   1
   9  -1  -8  284.60   11.47   1
   9  -1  -7  165.89    5.92   1
   9  -1  -6  312.94   11.68   1
   9  -1  -5  107.54    4.15   1
   9  -1  -4   70.90    3.03   1
   9  -1  -3   37.45    2.08   1
   9  -1  -2  113.00    4.04   1
   9  -1  -1   38.94    1.87   1
   9  -1   0  163.33    5.62   1
   9  -1   1   16.40    1.30   1
   9  -1   2   50.55    1.99   1
   9  -1   3   32.15    1.47   1
   9  -1   4  506.25   13.95   1
   9  -1   5   11.22    1.27   1
   9  -1   6  188.51    6.59   1
   9  -1   7  119.25    6.33   1
   9  -1   8   45.16    2.28   1
   9  -1   9   67.08    2.46   1
   9  -1  10    7.08    1.38   1
   9  -1  11    2.10    1.39   1
   9  -1  12   -0.10    1.22   1
   9  -1  13   49.70    4.93   1
   9  -1  14   14.21    2.71   1
   9   0 -15    5.71    3.59   1
   9   0 -14    3.31    3.42   1
   9   0 -13   39.69    4.91   1
   9   0 -12   48.02    5.13   1
   9   0 -11   72.25    6.46   1
   9   0 -10   25.50    3.64   1
   9   0  -9   26.32    2.67   1
   9   0  -8   50.27    3.26   1
   9   0  -7   32.95    2.87   1
   9   0  -6    3.39    1.91   1
   9   0  -5   92.54    4.43   1
   9   0  -4  548.50   17.33   1
   9   0  -3    2.19    1.18   1
   9   0  -2   53.88    2.35   1
   9   0  -1   38.32    1.98   1
   9   0   0   47.33    2.06   1
   9   0   1   51.84    1.73   1
   9   0   2  221.12    5.95   1
   9   0   3   15.76    0.87   1
   9   0   4  434.31   11.67   1
   9   0   5   81.36    2.16   1
   9   0   6   98.80    3.58   1
   9   0   7  146.41    4.11   1
   9   0   8  144.48    4.81   1
   9   0   9   13.99    1.27   1
   9   0  10   77.97    3.36   1
   9   0  11   58.83    2.61   1
   9   0  12    3.50    1.61   1
   9   0  13   17.14    1.99   1
   9   0  14   39.44    3.64   1
   9   1 -15   38.69    6.84   1
   9   1 -14   47.06    6.45   1
   9   1 -13   18.58    5.09   1
   9   1 -12    2.99    3.81   1
   9   1 -11   17.72    4.46   1
   9   1 -10    4.80    2.58   1
   9   1  -9    5.29    2.58   1
   9   1  -8   31.92    2.37   1
   9   1  -7   73.44    3.77   1
   9   1  -6   28.62    2.35   1
   9   1  -5   42.64    3.27   1
   9   1  -4   56.25    2.70   1
   9   1  -3  275.56   10.62   1
   9   1  -2  201.64    8.24   1
   9   1  -1  676.52   20.81   1
   9   1   0  123.21    4.22   1
   9   1   1    1.59    0.71   1
   9   1   2   50.55    1.71   1
   9   1   3   19.89    1.07   1
   9   1   4  587.58   13.09   1
   9   1   5  164.10    4.10   1
   9   1   6  458.39   10.28   1
   9   1   7   12.60    0.99   1
   9   1   8    9.67    1.18   1
   9   1   9   23.43    1.36   1
   9   1  10    2.50    1.20   1
   9   1  11   12.53    1.42   1
   9   1  12    2.99    1.49   1
   9   1  13   83.17    3.65   1
   9   1  14   32.95    2.76   1
   9   2 -15    2.31    3.80   1
   9   2 -14   55.06    6.83   1
   9   2 -13    9.49    3.82   1
   9   2 -12  100.40    7.82   1
   9   2 -11   30.80    4.77   1
   9   2 -10   27.88    3.48   1
   9   2  -9   10.82    2.50   1
   9   2  -8   12.89    2.51   1
   9   2  -7  283.25   10.10   1
   9   2  -6   24.30    2.76   1
   9   2  -5  240.87    7.45   1
   9   2  -4  149.33    4.89   1
   9   2  -3   22.75    1.72   1
   9   2  -2  100.00    3.80   1
   9   2  -1   21.16    1.93   1
   9   2   0    1.80    0.80   1
   9   2   1    9.80    0.88   1
   9   2   2  162.31    4.08   1
   9   2   3    5.81    0.58   1
   9   2   4  208.80    5.78   1
   9   2   5   11.49    0.68   1
   9   2   6  267.98    5.89   1
   9   2   7    5.20    0.82   1
   9   2   8  104.45    3.47   1
   9   2   9   12.82    1.00   1
   9   2  10    1.39    1.09   1
   9   2  11    1.59    1.08   1
   9   2  12   17.72    1.68   1
   9   2  13   58.68    3.06   1
   9   2  14   70.06    4.02   1
   9   2  15   13.32    3.29   1
   9   3 -15    0.71    5.22   1
   9   3 -14   10.69    5.17   1
   9   3 -13   17.89    4.99   1
   9   3 -12   76.04    6.63   1
   9   3 -11   68.56    6.13   1
   9   3 -10   44.09    3.85   1
   9   3  -9    4.20    1.80   1
   9   3  -8  154.01    6.70   1
   9   3  -7  140.19    5.21   1
   9   3  -6   68.23    3.63   1
   9   3  -5    1.59    1.79   1
   9   3  -4  114.92    4.29   1
   9   3  -3  273.90    8.61   1
   9   3  -2    9.12    1.63   1
   9   3  -1   90.06    3.23   1
   9   3   0   34.46    1.29   1
   9   3   1  212.28    6.12   1
   9   3   2   12.53    0.71   1
   9   3   3  166.93    5.94   1
   9   3   4   33.41    1.85   1
   9   3   5   42.64    2.35   1
   9   3   6   46.10    1.36   1
   9   3   7    6.00    0.69   1
   9   3   8    5.29    0.69   1
   9   3   9  181.98    5.13   1
   9   3  10   36.48    1.69   1
   9   3  11  123.21    4.22   1
   9   3  12    8.01    1.30   1
   9   3  13   16.40    1.62   1
   9   3  14   18.23    1.96   1
   9   3  15   37.45    2.94   1
   9   4 -14   48.02    6.79   1
   9   4 -13   22.66    4.28   1
   9   4 -12    4.28    4.18   1
   9   4 -11   -3.88    3.51   1
   9   4 -10    5.90    3.21   1
   9   4  -9   37.09    4.14   1
   9   4  -8   20.79    2.46   1
   9   4  -7   37.45    2.82   1
   9   4  -6   61.62    5.34   1
   9   4  -5  424.77   13.60   1
   9   4  -4   36.24    2.89   1
   9   4  -3    3.39    1.40   1
   9   4  -2   10.30    1.22   1
   9   4  -1  925.98   23.74   1
   9   4   0    5.02    0.81   1
   9   4   1   12.89    0.93   1
   9   4   2   66.91    3.27   1
   9   4   3   85.38    4.07   1
   9   4   4    9.49    1.60   1
   9   4   5   19.89    1.96   1
   9   4   6   26.01    1.94   1
   9   4   7   18.92    0.78   1
   9   4   8  147.14    3.88   1
   9   4   9   12.32    1.12   1
   9   4  10   57.61    2.28   1
   9   4  11   -1.30    1.09   1
   9   4  12  174.24    5.28   1
   9   4  13   -0.20    1.41   1
   9   4  14   37.95    2.34   1
   9   4  15   53.44    3.65   1
   9   4  16   13.99    3.59   1
   9   5 -14    3.61    4.10   1
   9   5 -13    2.59    4.51   1
   9   5 -12   19.98    4.38   1
   9   5 -11    3.88    3.98   1
   9   5 -10   36.97    4.86   1
   9   5  -9   19.54    3.80   1
   9   5  -8  185.50    8.72   1
   9   5  -7    2.10    1.71   1
   9   5  -6   -1.30    1.80   1
   9   5  -5    1.21    1.72   1
   9   5  -4   84.09    4.95   1
   9   5  -3  402.00   12.83   1
   9   5  -2   30.25    2.09   1
   9   5  -1   24.40    1.19   1
   9   5   0    2.59    0.71   1
   9   5   1  163.58    6.39   1
   9   5   2    2.59    1.38   1
   9   5   3  232.87    7.02   1
   9   5   4   27.98    2.22   1
   9   5   5   42.64    2.48   1
   9   5   6    4.08    1.70   1
   9   5   7   74.65    3.46   1
   9   5   8   97.81    2.77   1
   9   5   9  271.26    6.59   1
   9   5  10  286.96    7.11   1
   9   5  11    9.18    0.97   1
   9   5  12    2.40    1.21   1
   9   5  13   13.03    1.59   1
   9   5  14   12.39    1.48   1
   9   5  15    3.39    1.69   1
   9   5  16   36.84    4.86   1
   9   6 -13   -6.40    3.19   1
   9   6 -12    1.99    4.17   1
   9   6 -11   15.13    3.81   1
   9   6 -10  106.50    8.26   1
   9   6  -9    4.41    3.49   1
   9   6  -8   76.74    6.66   1
   9   6  -7  102.62    6.28   1
   9   6  -6   59.60    4.63   1
   9   6  -5   22.28    1.98   1
   9   6  -4   19.89    1.87   1
   9   6  -3    1.00    1.40   1
   9   6  -2   47.75    1.93   1
   9   6  -1   46.51    1.91   1
   9   6   0    2.69    0.79   1
   9   6   1  231.95    5.48   1
   9   6   2    1.80    1.61   1
   9   6   3   64.32    2.73   1
   9   6   4   38.94    2.75   1
   9   6   5  681.21   22.45   1
   9   6   6   15.29    2.27   1
   9   6   7    3.20    1.61   1
   9   6   8   26.21    2.15   1
   9   6   9  392.44    9.11   1
   9   6  10    2.59    1.09   1
   9   6  11   87.42    3.18   1
   9   6  12   62.25    2.37   1
   9   6  13    0.79    1.30   1
   9   6  14   21.62    1.86   1
   9   6  15    2.10    1.91   1
   9   6  16   -0.71    3.61   1
   9   7 -13    5.02    3.99   1
   9   7 -12    2.79    4.28   1
   9   7 -11   -0.10    2.53   1
   9   7 -10   13.47    4.40   1
   9   7  -9   20.61    3.09   1
   9   7  -8   79.39    6.95   1
   9   7  -7    2.31    1.79   1
   9   7  -6    4.41    2.10   1
   9   7  -5    0.90    1.71   1
   9   7  -4   87.80    3.56   1
   9   7  -3   59.44    2.47   1
   9   7  -2   55.35    2.23   1
   9   7  -1   -0.59    1.00   1
   9   7   0  102.21    3.24   1
   9   7   1  398.80   10.78   1
   9   7   2    8.53    0.58   1
   9   7   3  208.80    7.22   1
   9   7   4    6.60    2.31   1
   9   7   5   61.62    3.30   1
   9   7   6    3.10    2.11   1
   9   7   7   30.80    2.33   1
   9   7   8   93.70    4.45   1
   9   7   9    3.50    0.60   1
   9   7  10    6.92    1.10   1
   9   7  11   19.62    1.33   1
   9   7  12   20.07    1.61   1
   9   7  13  151.04    5.16   1
   9   7  14    0.40    1.59   1
   9   7  15   17.47    2.17   1
   9   7  16   10.63    4.82   1
   9   8 -12    2.99    3.60   1
   9   8 -11    5.90    4.42   1
   9   8 -10   61.78    5.97   1
   9   8  -9   16.73    3.76   1
   9   8  -8   58.83    5.37   1
   9   8  -7    1.49    2.88   1
   9   8  -6    0.20    2.41   1
   9   8  -5    0.10    1.82   1
   9   8  -4   10.69    1.70   1
   9   8  -3    3.88    1.18   1
   9   8  -2  106.30    3.92   1
   9   8  -1  345.22   10.03   1
   9   8   0   19.98    1.34   1
   9   8   1   -1.00    0.90   1
   9   8   2  212.28    7.87   1
   9   8   3  229.52    5.45   1
   9   8   4    7.67    1.77   1
   9   8   5   27.35    2.72   1
   9   8   6    5.52    1.79   1
   9   8   7    4.08    2.18   1
   9   8   8   54.91    3.56   1
   9   8   9  108.37    3.12   1
   9   8  10    3.39    0.99   1
   9   8  11  133.40    3.70   1
   9   8  12    3.61    1.10   1
   9   8  13    4.88    1.41   1
   9   8  14  201.92    7.39   1
   9   8  15  112.78    7.43   1
   9   9 -11    3.39    4.49   1
   9   9  -9   13.10    3.11   1
   9   9  -8   27.14    4.27   1
   9   9  -7   -2.59    2.80   1
   9   9  -6  109.83    7.76   1
   9   9  -5    0.30    2.01   1
   9   9  -4    2.40    1.39   1
   9   9  -3   10.63    1.70   1
   9   9  -2   68.23    2.64   1
   9   9  -1   84.64    3.13   1
   9   9   0  203.35    6.27   1
   9   9   1   87.98    2.81   1
   9   9   2    1.59    0.91   1
   9   9   3   18.23    0.94   1
   9   9   4   38.07    1.73   1
   9   9   5    4.49    2.42   1
   9   9   6    9.18    2.00   1
   9   9   7  161.29    6.35   1
   9   9   8   -0.10    0.51   1
   9   9   9   40.70    2.04   1
   9   9  10    5.20    0.82   1
   9   9  11   29.05    1.40   1
   9   9  12    8.29    1.32   1
   9   9  13  108.99    4.59   1
   9   9  14    5.02    2.69   1
   9   9  15    6.50    2.91   1
   9  10 -11   11.63    5.32   1
   9  10 -10   32.72    5.95   1
   9  10  -9   -1.69    2.99   1
   9  10  -7    5.90    3.79   1
   9  10  -6   -3.10    2.89   1
   9  10  -5  102.62    7.50   1
   9  10  -4   15.60    1.82   1
   9  10  -3   -0.30    1.21   1
   9  10  -2   32.49    1.94   1
   9  10  -1    1.30    1.21   1
   9  10   0   56.25    2.25   1
   9  10   1   16.48    1.30   1
   9  10   2  134.79    3.72   1
   9  10   3    4.49    0.81   1
   9  10   4   40.32    1.65   1
   9  10   5  120.56    3.29   1
   9  10   6    6.30    0.70   1
   9  10   7    4.28    0.70   1
   9  10   8    4.00    0.68   1
   9  10   9   37.95    1.85   1
   9  10  10    0.20    0.80   1
   9  10  11   49.56    2.11   1
   9  10  12   17.81    2.28   1
   9  10  13   10.11    1.59   1
   9  10  14    4.00    2.40   1
   9  10  15   65.12    5.97   1
   9  11 -10   12.53    5.88   1
   9  11  -9   32.95    4.25   1
   9  11  -8   15.21    3.59   1
   9  11  -7   21.34    3.79   1
   9  11  -6   63.84    5.11   1
   9  11  -5   40.70    4.21   1
   9  11  -4   42.51    3.13   1
   9  11  -3   32.04    2.26   1
   9  11  -2   34.81    2.24   1
   9  11  -1   26.01    2.04   1
   9  11   0  141.85    6.19   1
   9  11   1    8.88    1.31   1
   9  11   2   24.70    1.39   1
   9  11   3   11.49    1.22   1
   9  11   4   93.12    3.47   1
   9  11   5   38.44    1.86   1
   9  11   6   34.93    1.54   1
   9  11   7   29.92    1.53   1
   9  11   8   70.56    2.18   1
   9  11   9   64.96    2.26   1
   9  11  10    0.59    1.09   1
   9  11  11   -1.00    2.10   1
   9  11  12    0.10    1.52   1
   9  11  13   97.02    6.70   1
   9  11  14   11.42    3.72   1
   9  12  -9    3.61    3.61   1
   9  12  -8    3.69    3.30   1
   9  12  -7   84.27    7.89   1
   9  12  -6   -0.59    3.28   1
   9  12  -5    6.92    3.52   1
   9  12  -4   15.76    2.78   1
   9  12  -3   14.06    2.33   1
   9  12  -2    4.49    1.48   1
   9  12  -1    8.58    1.58   1
   9  12   0   18.66    1.81   1
   9  12   1    0.50    1.21   1
   9  12   2   61.62    2.36   1
   9  12   3    4.88    1.11   1
   9  12   4   39.31    1.76   1
   9  12   5    2.50    1.01   1
   9  12   6   67.57    2.47   1
   9  12   7    0.10    0.91   1
   9  12   8  110.46    4.41   1
   9  12   9   18.84    1.30   1
   9  12  10    2.89    3.81   1
   9  12  11   16.73    1.72   1
   9  12  12    0.40    2.29   1
   9  12  13   -1.00    2.60   1
   9  12  14   25.70    3.45   1
   9  13  -6    8.88    3.81   1
   9  13  -5    4.88    3.71   1
   9  13  -4    2.40    3.10   1
   9  13  -3   48.02    4.85   1
   9  13  -2   89.30    6.05   1
   9  13  -1   14.29    1.89   1
   9  13   0   68.23    3.96   1
   9  13   1    2.69    1.61   1
   9  13   2   20.43    1.54   1
   9  13   3    2.89    1.60   1
   9  13   4   97.42    3.16   1
   9  13   5    4.71    1.22   1
   9  13   6   48.86    2.24   1
   9  13   7    8.82    1.31   1
   9  13   8   -0.30    1.51   1
   9  13   9   79.39    3.56   1
   9  13  10   72.42    3.23   1
   9  13  11    4.00    2.08   1
   9  13  12    1.80    2.39   1
   9  13  13   17.22    3.73   1
   9  14  -4   -1.30    3.60   1
   9  14  -3    5.81    3.62   1
   9  14  -2    0.90    1.99   1
   9  14  -1   44.22    4.39   1
   9  14   0   -3.61    2.20   1
   9  14   1    6.50    2.09   1
   9  14   2   79.92    5.01   1
   9  14   3   50.27    2.41   1
   9  14   4   -0.79    1.39   1
   9  14   5   12.82    2.29   1
   9  14   6   46.10    2.17   1
   9  14   7    1.90    1.49   1
   9  14   8   77.44    3.52   1
   9  14   9    0.20    1.81   1
   9  14  10    4.28    2.28   1
   9  14  11   -0.20    2.31   1
   9  14  12   42.90    4.19   1
   9  15   1   25.40    4.84   1
   9  15   2   51.27    3.58   1
   9  15   3    0.79    1.50   1
   9  15   4   18.32    2.14   1
   9  15   5    3.39    1.51   1
   9  15   6   -0.10    2.84   1
   9  15   7   -1.30    2.19   1
   9  15   8    3.61    2.32   1
   9  15   9    1.30    2.01   1
   9  15  10   73.44    4.46   1
   9  16   1   17.31    4.99   1
   9  16   2   36.24    6.14   1
   9  16   3   14.52    5.03   1
   9  16   4    2.99    4.81   1
   9  16   5   33.18    4.84   1
   9  16   6   18.49    3.96   1
   9  16   7   -1.39    4.30   1
   9  16   8    9.67    4.60   1
   9  16   9    2.69    4.89   1
   9  16  10   -2.99    2.70   1
   9  17   0    7.51    5.21   1
   9  17   1   69.39    6.33   1
   9  17   2    8.29    5.59   1
   9  17   3   15.60    5.77   1
   9  17   4   11.02    3.78   1
   9  17   5    3.20    4.69   1
   9  17   6   11.09    5.19   1
   9  17   7   22.94    4.22   1
   9  17   8   15.76    3.73   1
   9  17   9    5.90    5.10   1
   9  17  10    9.49    5.48   1
   9  18   3   29.38    4.88   1
   9  18   4   -1.10    4.70   1
   9  18   5   16.89    4.77   1
   9  18   6    1.30    3.90   1
   9  18   7   -1.49    4.68   1
  10 -13  -5    6.92    7.10   1
  10 -13  -4   12.53    5.10   1
  10 -13  -3   -5.52    6.53   1
  10 -13  -2   15.68    6.81   1
  10 -13  -1    9.67    5.10   1
  10 -13   0   -0.10    5.77   1
  10 -12  -8   15.76    6.43   1
  10 -12  -7    8.01    6.00   1
  10 -12  -6   13.32    4.89   1
  10 -12  -5   17.64    6.30   1
  10 -12  -4    5.02    4.30   1
  10 -12  -3   -6.92    5.52   1
  10 -12  -2    9.67    4.29   1
  10 -12  -1    1.10    3.61   1
  10 -12   0   15.92    5.59   1
  10 -12   1   35.28    7.48   1
  10 -12   2    2.10    3.51   1
  10 -12   3   15.52    4.81   1
  10 -11 -10   10.18    6.57   1
  10 -11  -9   -5.11    6.10   1
  10 -11  -8   -2.79    5.08   1
  10 -11  -7   -4.20    3.69   1
  10 -11  -6    1.90    5.11   1
  10 -11  -5    8.70    3.60   1
  10 -11  -4   45.70    6.08   1
  10 -11  -3    6.20    4.98   1
  10 -11  -2   12.18    4.12   1
  10 -11  -1    9.92    3.40   1
  10 -11   0   20.52    4.62   1
  10 -11   1    4.08    5.17   1
  10 -11   2   12.39    5.07   1
  10 -11   3    7.29    4.70   1
  10 -11   4    5.71    5.31   1
  10 -11   5   38.44    4.96   1
  10 -11   6   -2.59    3.80   1
  10 -10 -11    5.02    4.79   1
  10 -10 -10   -5.38    3.99   1
  10 -10  -9   13.32    4.89   1
  10 -10  -8   -1.49    5.37   1
  10 -10  -7   -3.31    4.40   1
  10 -10  -6   32.49    4.90   1
  10 -10  -5   11.70    4.79   1
  10 -10  -4    7.62    5.02   1
  10 -10  -3    3.39    2.61   1
  10 -10  -2   29.16    4.43   1
  10 -10  -1   34.57    4.70   1
  10 -10   0   56.55    5.11   1
  10 -10   1   73.44    6.68   1
  10 -10   2   31.81    4.96   1
  10 -10   3    4.20    4.59   1
  10 -10   4   46.65    6.28   1
  10 -10   5   10.69    5.49   1
  10 -10   6   25.10    5.31   1
  10 -10   7   57.61    6.83   1
  10  -9 -12   31.47    7.07   1
  10  -9 -11   91.20    8.40   1
  10  -9 -10   26.32    6.16   1
  10  -9  -9   -5.81    4.63   1
  10  -9  -8    8.18    5.21   1
  10  -9  -7   19.01    3.40   1
  10  -9  -6    0.10    3.95   1
  10  -9  -5   10.63    1.83   1
  10  -9  -4   90.82    4.38   1
  10  -9  -3   65.61    3.56   1
  10  -9  -2   45.16    5.24   1
  10  -9  -1    1.10    3.00   1
  10  -9   0    6.81    3.08   1
  10  -9   1    4.00    2.60   1
  10  -9   2  145.68   10.86   1
  10  -9   3    2.10    4.00   1
  10  -9   4   12.18    4.68   1
  10  -9   5   -4.00    4.08   1
  10  -9   6   85.56    7.77   1
  10  -9   7    0.50    5.03   1
  10  -9   8    0.90    5.02   1
  10  -9   9    4.49    3.39   1
  10  -8 -13    1.00    3.60   1
  10  -8 -12    9.42    5.40   1
  10  -8 -11   -6.00    4.90   1
  10  -8 -10    5.20    4.79   1
  10  -8  -9    6.92    3.79   1
  10  -8  -8    7.62    3.31   1
  10  -8  -7   -3.88    3.98   1
  10  -8  -6   20.98    4.12   1
  10  -8  -5  115.35    9.02   1
  10  -8  -4   22.75    2.19   1
  10  -8  -3   26.42    2.26   1
  10  -8  -2   38.94    2.62   1
  10  -8  -1   23.43    5.03   1
  10  -8   0   41.34    4.24   1
  10  -8   1    6.40    3.39   1
  10  -8   2   11.22    3.68   1
  10  -8   3    1.39    3.59   1
  10  -8   4   42.25    4.42   1
  10  -8   5   28.09    4.24   1
  10  -8   6    2.59    4.38   1
  10  -8   7   -3.10    4.51   1
  10  -8   8    0.40    4.49   1
  10  -8   9    4.80    4.20   1
  10  -7 -13   -6.60    5.81   1
  10  -7 -12   -0.79    3.99   1
  10  -7 -11   46.51    4.91   1
  10  -7 -10    9.92    3.91   1
  10  -7  -9    1.21    2.71   1
  10  -7  -8    4.88    4.11   1
  10  -7  -7   36.84    3.76   1
  10  -7  -6   11.83    3.99   1
  10  -7  -5    1.10    3.30   1
  10  -7  -4   87.24    7.47   1
  10  -7  -3   16.73    1.80   1
  10  -7  -2   23.52    2.04   1
  10  -7  -1   30.58    1.88   1
  10  -7   0   66.75    3.43   1
  10  -7   1   42.38    4.04   1
  10  -7   2   51.84    5.04   1
  10  -7   3   28.94    4.41   1
  10  -7   4    2.59    3.51   1
  10  -7   5    7.62    2.48   1
  10  -7   6   41.99    4.54   1
  10  -7   7    2.19    4.20   1
  10  -7   8    8.12    3.99   1
  10  -7   9   12.18    4.82   1
  10  -6 -14    4.00    4.32   1
  10  -6 -13    1.90    5.00   1
  10  -6 -12    4.58    5.61   1
  10  -6 -11   63.84    6.71   1
  10  -6 -10   30.69    5.10   1
  10  -6  -9   26.73    4.76   1
  10  -6  -8   19.98    4.11   1
  10  -6  -7   28.73    3.75   1
  10  -6  -6   37.45    4.77   1
  10  -6  -5   10.82    3.68   1
  10  -6  -4    2.50    1.80   1
  10  -6  -3   14.36    2.27   1
  10  -6  -2    6.92    1.21   1
  10  -6  -1    9.00    1.50   1
  10  -6   0   25.91    1.73   1
  10  -6   1   25.60    1.82   1
  10  -6   2   25.50    2.73   1
  10  -6   3    1.10    1.70   1
  10  -6   4    9.30    2.50   1
  10  -6   5    7.08    2.87   1
  10  -6   6    5.81    3.52   1
  10  -6   7    1.49    3.39   1
  10  -6   8    2.10    2.70   1
  10  -6   9    3.31    2.69   1
  10  -6  10    8.58    3.22   1
  10  -6  11    3.20    3.51   1
  10  -5 -14    9.92    5.80   1
  10  -5 -13   26.52    4.63   1
  10  -5 -12    1.80    4.29   1
  10  -5 -11    7.40    4.08   1
  10  -5 -10   11.70    4.79   1
  10  -5  -9   20.98    4.03   1
  10  -5  -8   11.22    2.68   1
  10  -5  -7   14.90    4.48   1
  10  -5  -6  156.75    9.77   1
  10  -5  -5    7.78    2.29   1
  10  -5  -4   -2.10    1.80   1
  10  -5  -3   15.37    2.51   1
  10  -5  -2   51.84    2.45   1
  10  -5  -1   28.62    1.82   1
  10  -5   0   20.61    1.63   1
  10  -5   1   78.50    3.37   1
  10  -5   2   24.80    1.69   1
  10  -5   3   27.04    2.39   1
  10  -5   4    5.38    1.72   1
  10  -5   5    3.50    2.09   1
  10  -5   6   13.76    2.82   1
  10  -5   7   23.91    4.21   1
  10  -5   8   45.83    4.74   1
  10  -5  10    4.58    3.68   1
  10  -5  11    7.40    4.52   1
  10  -5  12   21.34    4.53   1
  10  -4 -14   17.89    4.40   1
  10  -4 -13    6.10    5.09   1
  10  -4 -12    9.30    3.72   1
  10  -4 -11   -2.89    4.18   1
  10  -4 -10   10.18    4.21   1
  10  -4  -9    9.12    3.50   1
  10  -4  -8    3.20    2.51   1
  10  -4  -7  123.88    7.57   1
  10  -4  -6    8.58    2.11   1
  10  -4  -5   15.60    1.98   1
  10  -4  -4   93.32    4.44   1
  10  -4  -3  245.24    8.14   1
  10  -4  -2    0.20    1.31   1
  10  -4  -1    8.70    1.42   1
  10  -4   0   66.10    2.93   1
  10  -4   1    3.31    1.09   1
  10  -4   2   74.13    2.76   1
  10  -4   3    4.28    1.12   1
  10  -4   4   15.37    2.12   1
  10  -4   5    2.19    1.69   1
  10  -4   6    3.10    1.90   1
  10  -4   7    3.88    2.09   1
  10  -4   8    7.78    2.79   1
  10  -4  10   23.43    4.07   1
  10  -4  11   -5.02    3.32   1
  10  -4  12   11.09    3.80   1
  10  -3 -15   -1.21    4.11   1
  10  -3 -14   -1.21    5.52   1
  10  -3 -13   -0.20    4.53   1
  10  -3 -12    0.20    4.12   1
  10  -3 -11   20.07    3.76   1
  10  -3 -10   37.58    4.90   1
  10  -3  -9    1.39    3.49   1
  10  -3  -8    1.69    2.50   1
  10  -3  -7   45.16    3.36   1
  10  -3  -6    5.02    1.88   1
  10  -3  -5   40.96    2.69   1
  10  -3  -4   11.49    1.63   1
  10  -3  -3   72.76    3.58   1
  10  -3  -2   83.54    3.84   1
  10  -3  -1   32.83    2.52   1
  10  -3   0   54.91    2.22   1
  10  -3   1    4.41    1.09   1
  10  -3   2   36.48    1.81   1
  10  -3   3  153.76    4.71   1
  10  -3   4    3.20    1.29   1
  10  -3   5  157.25    6.02   1
  10  -3   6   15.21    1.64   1
  10  -3   7    0.59    1.79   1
  10  -3   8   48.86    4.33   1
  10  -3   9    1.99    1.89   1
  10  -3  12   56.70    6.33   1
  10  -2 -15    6.30    5.92   1
  10  -2 -14    6.71    5.59   1
  10  -2 -13   -1.39    3.28   1
  10  -2 -12   31.47    5.50   1
  10  -2 -11    7.08    3.30   1
  10  -2 -10   -4.80    3.59   1
  10  -2  -9   57.00    4.68   1
  10  -2  -8   39.69    4.16   1
  10  -2  -7   13.99    2.02   1
  10  -2  -6    3.50    1.80   1
  10  -2  -5   75.17    3.29   1
  10  -2  -3  112.36    4.24   1
  10  -2  -2   97.81    4.15   1
  10  -2  -1   36.72    3.15   1
  10  -2   0   35.40    1.78   1
  10  -2   1  222.01    6.56   1
  10  -2   2    4.58    1.20   1
  10  -2   3  278.56    7.34   1
  10  -2   4   10.63    1.43   1
  10  -2   5  186.60    5.46   1
  10  -2   6   51.27    2.58   1
  10  -2   7   62.57    3.16   1
  10  -2   8   20.07    3.32   1
  10  -2   9   36.60    3.63   1
  10  -2  10   20.61    2.72   1
  10  -2  11   13.99    3.29   1
  10  -2  13   30.91    4.89   1
  10  -1 -15   -3.10    4.29   1
  10  -1 -14   11.22    4.09   1
  10  -1 -13   10.82    5.20   1
  10  -1 -12   -0.20    3.92   1
  10  -1 -11   73.27    6.33   1
  10  -1 -10   61.78    5.03   1
  10  -1  -9    0.40    3.29   1
  10  -1  -8   99.20    5.18   1
  10  -1  -7   10.69    2.09   1
  10  -1  -6    5.90    1.99   1
  10  -1  -5   22.37    2.18   1
  10  -1  -4   17.81    1.94   1
  10  -1  -3   64.96    3.22   1
  10  -1  -2   13.10    1.67   1
  10  -1  -1   42.90    2.23   1
  10  -1   0   15.68    1.19   1
  10  -1   1    1.59    1.08   1
  10  -1   2    5.20    1.19   1
  10  -1   3  353.82    9.03   1
  10  -1   4    6.20    1.20   1
  10  -1   5  101.61    3.23   1
  10  -1   6   -0.40    1.10   1
  10  -1   7    7.02    2.23   1
  10  -1   8   23.52    2.13   1
  10  -1   9   -0.30    2.31   1
  10  -1  10    5.20    1.41   1
  10  -1  11   11.63    1.71   1
  10  -1  12   13.47    3.01   1
  10  -1  13   10.11    3.31   1
  10   0 -14   16.08    6.42   1
  10   0 -13    7.62    5.02   1
  10   0 -12   51.84    4.46   1
  10   0 -11    3.31    4.51   1
  10   0 -10    7.78    2.29   1
  10   0  -9    0.40    3.09   1
  10   0  -8  124.10    6.02   1
  10   0  -7   70.06    3.52   1
  10   0  -6  139.00    5.89   1
  10   0  -5   28.52    2.24   1
  10   0  -4   16.48    1.87   1
  10   0  -3   37.58    2.08   1
  10   0  -2   90.63    3.62   1
  10   0  -1    1.90    1.10   1
  10   0   0   68.23    2.64   1
  10   0   1   23.04    1.34   1
  10   0   2  208.80    6.07   1
  10   0   3    8.12    0.91   1
  10   0   4   11.09    1.00   1
  10   0   5  145.68    4.59   1
  10   0   6   21.16    1.47   1
  10   0   7  457.10   11.55   1
  10   0   8   25.20    1.51   1
  10   0   9   51.41    2.15   1
  10   0  10   11.42    1.49   1
  10   0  11   53.14    2.48   1
  10   0  12   49.42    3.23   1
  10   0  13   75.00    5.89   1
  10   1 -14   19.89    4.01   1
  10   1 -13   49.00    5.46   1
  10   1 -12   56.25    5.55   1
  10   1 -11   31.14    5.13   1
  10   1 -10   25.81    3.66   1
  10   1  -9   83.54    6.22   1
  10   1  -8    2.10    2.29   1
  10   1  -7   11.02    2.32   1
  10   1  -6   12.53    2.12   1
  10   1  -5   71.57    3.38   1
  10   1  -4  165.89    5.41   1
  10   1  -3  234.70    8.27   1
  10   1  -2   10.11    1.27   1
  10   1  -1    8.41    1.39   1
  10   1   0   91.58    3.25   1
  10   1   1  213.16    7.01   1
  10   1   2   88.55    2.82   1
  10   1   3  161.54    6.61   1
  10   1   4   62.25    1.89   1
  10   1   5  111.30    2.95   1
  10   1   6   57.30    1.82   1
  10   1   7   13.47    1.17   1
  10   1   8   79.57    2.85   1
  10   1   9    4.49    1.10   1
  10   1  10    7.67    1.27   1
  10   1  11    1.00    1.30   1
  10   1  12   14.06    1.80   1
  10   1  13   42.90    2.75   1
  10   2 -14   21.16    6.07   1
  10   2 -13    5.38    4.50   1
  10   2 -12   32.95    5.97   1
  10   2 -11   48.58    4.88   1
  10   2 -10   19.80    3.29   1
  10   2  -9   64.80    5.31   1
  10   2  -8   57.46    3.34   1
  10   2  -7   -0.50    2.00   1
  10   2  -6   64.16    3.52   1
  10   2  -5    4.08    1.70   1
  10   2  -4   16.08    1.60   1
  10   2  -3  120.78    4.40   1
  10   2  -2    6.40    1.32   1
  10   2  -1  141.37    4.99   1
  10   2   0  122.32    4.20   1
  10   2   1   14.82    1.39   1
  10   2   2    0.20    0.50   1
  10   2   3   80.64    2.33   1
  10   2   4  131.10    5.50   1
  10   2   5    6.30    0.80   1
  10   2   6   51.55    1.72   1
  10   2   7  435.56   11.69   1
  10   2   8    4.58    0.90   1
  10   2   9   25.70    1.32   1
  10   2  10   36.00    1.80   1
  10   2  11    3.31    1.42   1
  10   2  12   16.00    1.68   1
  10   2  13   11.97    1.73   1
  10   2  14    4.58    3.00   1
  10   3 -14    6.60    3.80   1
  10   3 -13   21.16    4.14   1
  10   3 -12   11.90    3.31   1
  10   3 -11   12.39    3.52   1
  10   3 -10   29.05    3.23   1
  10   3  -9   12.82    3.51   1
  10   3  -8   -1.99    3.19   1
  10   3  -7  254.72    8.94   1
  10   3  -6   30.36    2.42   1
  10   3  -5    8.88    1.79   1
  10   3  -4  234.70    8.27   1
  10   3  -3   57.91    2.44   1
  10   3  -2  153.76    5.21   1
  10   3  -1    8.82    1.13   1
  10   3   0   38.69    1.74   1
  10   3   1  133.40    3.93   1
  10   3   2   21.07    1.10   1
  10   3   3   19.01    2.27   1
  10   3   4   15.76    1.83   1
  10   3   5  123.88    4.90   1
  10   3   6  158.76    4.54   1
  10   3   7   22.09    1.60   1
  10   3   8   69.72    2.17   1
  10   3   9    1.80    0.80   1
  10   3  10   18.49    1.20   1
  10   3  11   48.16    1.94   1
  10   3  12    3.39    1.51   1
  10   3  13   -0.90    1.41   1
  10   3  14    0.20    2.62   1
  10   4 -13   -5.38    5.01   1
  10   4 -12   -1.90    4.00   1
  10   4 -11   10.37    3.80   1
  10   4 -10    2.50    3.60   1
  10   4  -9   99.40    6.38   1
  10   4  -8   55.06    5.05   1
  10   4  -7    0.10    1.72   1
  10   4  -6   55.95    3.14   1
  10   4  -5   51.41    2.87   1
  10   4  -4    8.88    1.61   1
  10   4  -3   76.91    3.16   1
  10   4  -2  135.26    6.51   1
  10   4  -1   17.14    1.24   1
  10   4   0  122.54    3.99   1
  10   4   1   29.05    1.51   1
  10   4   2  121.00    4.40   1
  10   4   3   10.82    1.97   1
  10   4   4  414.53   14.66   1
  10   4   5   52.13    3.03   1
  10   4   6  150.31    5.64   1
  10   4   7  139.24    5.19   1
  10   4   8   11.09    0.73   1
  10   4   9    4.00    0.68   1
  10   4  10    1.21    0.90   1
  10   4  11   71.06    2.53   1
  10   4  12    9.99    1.39   1
  10   4  13   99.60    3.99   1
  10   4  14    2.89    2.58   1
  10   4  15    6.20    2.49   1
  10   5 -13   47.06    5.49   1
  10   5 -12    8.53    3.50   1
  10   5 -11    8.53    3.80   1
  10   5 -10    4.28    4.10   1
  10   5  -9   51.84    5.62   1
  10   5  -8    5.52    3.01   1
  10   5  -7   18.49    2.58   1
  10   5  -6    3.50    1.98   1
  10   5  -5   81.00    3.78   1
  10   5  -4   69.22    3.33   1
  10   5  -3   80.46    3.23   1
  10   5  -2   55.65    2.98   1
  10   5  -1   64.96    2.58   1
  10   5   0  276.56    7.32   1
  10   5   1    3.20    0.50   1
  10   5   2  673.92   21.81   1
  10   5   3    1.90    1.60   1
  10   5   4  124.10    5.12   1
  10   5   5   66.10    3.41   1
  10   5   6  281.57   10.74   1
  10   5   7    0.71    1.41   1
  10   5   8   13.76    2.08   1
  10   5   9    2.40    0.59   1
  10   5  10   19.71    1.24   1
  10   5  11   33.76    2.09   1
  10   5  12   83.91    3.11   1
  10   5  13   37.45    2.20   1
  10   5  14   15.29    2.27   1
  10   5  15   71.40    5.07   1
  10   6 -13    2.40    4.31   1
  10   6 -12   40.96    6.14   1
  10   6 -11   12.18    4.68   1
  10   6 -10    2.31    2.71   1
  10   6  -9   80.46    7.18   1
  10   6  -8   62.09    5.83   1
  10   6  -7   26.01    3.67   1
  10   6  -6   -0.50    2.31   1
  10   6  -5   39.44    3.39   1
  10   6  -4   41.99    2.85   1
  10   6  -3    5.52    1.32   1
  10   6  -2   50.55    2.13   1
  10   6  -1   75.00    2.42   1
  10   6   0   56.85    2.11   1
  10   6   1  124.32    4.01   1
  10   6   2   99.00    4.58   1
  10   6   3   68.56    3.64   1
  10   6   4  140.19    6.39   1
  10   6   5   19.10    2.53   1
  10   6   6    4.28    1.78   1
  10   6   7   14.36    2.12   1
  10   6   8  165.38    6.43   1
  10   6   9  234.09    9.49   1
  10   6  10   89.49    2.84   1
  10   6  11   20.88    1.28   1
  10   6  12   13.62    1.40   1
  10   6  13   47.33    2.34   1
  10   6  14   35.64    3.22   1
  10   6  15    0.79    2.30   1
  10   7 -12   12.67    5.41   1
  10   7 -11   39.06    5.25   1
  10   7 -10    0.59    3.68   1
  10   7  -9   21.72    3.26   1
  10   7  -8   -0.59    2.68   1
  10   7  -7   72.76    5.63   1
  10   7  -6    6.10    2.12   1
  10   7  -5    7.02    1.59   1
  10   7  -4    0.79    1.58   1
  10   7  -3   52.85    2.47   1
  10   7  -2    0.59    1.09   1
  10   7  -1  132.48    4.37   1
  10   7   0    3.61    0.80   1
  10   7   1  114.49    3.42   1
  10   7   2   64.00    3.20   1
  10   7   3   16.00    2.08   1
  10   7   4    7.29    2.32   1
  10   7   5   57.46    3.34   1
  10   7   6  113.85    5.34   1
  10   7   7  156.00    6.49   1
  10   7   8   23.81    2.93   1
  10   7   9    8.41    2.09   1
  10   7  10   72.08    2.04   1
  10   7  11   37.58    1.47   1
  10   7  12  114.92    4.50   1
  10   7  13    2.89    1.29   1
  10   7  14    2.79    1.70   1
  10   7  15   25.70    3.04   1
  10   8 -11    2.79    4.98   1
  10   8 -10    0.20    2.72   1
  10   8  -9   44.36    5.99   1
  10   8  -8   20.70    4.37   1
  10   8  -7   -0.20    2.11   1
  10   8  -6   66.26    3.74   1
  10   8  -5  171.09    6.80   1
  10   8  -4   -2.99    1.70   1
  10   8  -3   57.76    2.43   1
  10   8  -2    1.90    1.30   1
  10   8  -1   63.52    2.39   1
  10   8   0   38.81    1.74   1
  10   8   1  113.21    4.26   1
  10   8   2  321.13    7.17   1
  10   8   3   56.25    3.15   1
  10   8   4    4.49    1.99   1
  10   8   5   85.38    4.44   1
  10   8   6   35.40    2.62   1
  10   8   7  111.30    5.06   1
  10   8   8   76.91    3.86   1
  10   8   9    5.62    2.09   1
  10   8  10   52.85    1.60   1
  10   8  11    2.31    0.79   1
  10   8  12   52.56    3.04   1
  10   8  13   12.60    1.70   1
  10   8  14   42.90    4.85   1
  10   8  15    3.39    2.61   1
  10   9 -11    3.88    5.59   1
  10   9 -10   75.69    6.96   1
  10   9  -9   49.14    5.89   1
  10   9  -8    6.10    3.61   1
  10   9  -7   74.13    6.72   1
  10   9  -6   30.58    3.10   1
  10   9  -5   27.25    2.71   1
  10   9  -4   67.73    5.76   1
  10   9  -3   14.98    1.70   1
  10   9  -2   -0.20    1.31   1
  10   9  -1  162.82    5.10   1
  10   9   0   61.31    2.35   1
  10   9   1   15.68    1.11   1
  10   9   2   32.72    1.26   1
  10   9   3  484.88   12.77   1
  10   9   4   26.42    2.67   1
  10   9   5  196.28    7.29   1
  10   9   6    4.58    2.48   1
  10   9   7   70.73    3.87   1
  10   9   8   68.06    3.96   1
  10   9   9   29.05    2.69   1
  10   9  10   26.94    1.04   1
  10   9  11   50.84    2.14   1
  10   9  12   79.92    3.58   1
  10   9  13    9.42    2.03   1
  10   9  14   13.62    2.51   1
  10  10  -9   23.04    3.94   1
  10  10  -8   75.00    6.41   1
  10  10  -7    1.80    2.60   1
  10  10  -6  145.44    9.65   1
  10  10  -5   72.76    5.80   1
  10  10  -4   33.64    2.78   1
  10  10  -3   19.10    1.84   1
  10  10  -2  185.23    5.99   1
  10  10  -1   37.21    2.20   1
  10  10   0    3.69    1.31   1
  10  10   1   71.74    2.54   1
  10  10   2   11.63    1.02   1
  10  10   3    1.49    0.71   1
  10  10   4    1.00    0.50   1
  10  10   5   49.84    3.67   1
  10  10   6   29.81    2.73   1
  10  10   7  136.19    5.84   1
  10  10   8   26.83    3.00   1
  10  10   9   13.10    2.53   1
  10  10  10    2.69    0.59   1
  10  10  11   10.69    1.50   1
  10  10  13   14.98    2.09   1
  10  10  14    8.82    2.49   1
  10  11  -7   13.76    4.23   1
  10  11  -6  121.88    9.05   1
  10  11  -5    7.78    3.57   1
  10  11  -4  120.34    7.24   1
  10  11  -3  121.88    5.74   1
  10  11  -2   19.36    2.02   1
  10  11  -1    0.10    1.32   1
  10  11   0  103.23    4.27   1
  10  11   1    1.69    1.30   1
  10  11   2    9.42    1.11   1
  10  11   3   35.05    1.89   1
  10  11   4    4.41    0.80   1
  10  11   5   85.19    2.95   1
  10  11   6   11.63    1.02   1
  10  11   7  123.88    6.01   1
  10  11   8   29.92    4.27   1
  10  11   9  265.04   15.63   1
  10  11  10   14.59    1.30   1
  10  11  11   38.94    2.75   1
  10  11  12   30.47    2.65   1
  10  11  13   87.61    6.74   1
  10  11  14   14.82    3.00   1
  10  12  -6    0.10    4.15   1
  10  12  -5    1.10    2.50   1
  10  12  -4   44.22    4.92   1
  10  12  -3   53.73    4.98   1
  10  12  -2   43.03    3.15   1
  10  12  -1   12.60    2.20   1
  10  12   0   19.10    2.01   1
  10  12   1   25.91    2.04   1
  10  12   2   63.52    2.87   1
  10  12   3    1.49    1.20   1
  10  12   4   10.18    1.08   1
  10  12   5  117.72    4.77   1
  10  12   6    1.69    0.81   1
  10  12   7   66.42    2.93   1
  10  12   8   27.25    1.57   1
  10  12   9    2.31    0.91   1
  10  12  10   15.21    1.79   1
  10  12  11   64.96    3.87   1
  10  12  12    6.92    2.21   1
  10  12  13    9.61    2.42   1
  10  13  -3   -2.19    2.19   1
  10  13  -2   11.83    2.27   1
  10  13  -1    5.71    1.91   1
  10  13   0    5.38    2.00   1
  10  13   1    8.53    1.81   1
  10  13   2   15.68    1.50   1
  10  13   3   33.18    2.07   1
  10  13   4    6.92    1.58   1
  10  13   5   -0.79    1.19   1
  10  13   6    2.69    1.08   1
  10  13   7   24.40    1.68   1
  10  13   8    1.59    1.49   1
  10  13   9   88.36    4.51   1
  10  13  10    5.29    1.61   1
  10  13  11   24.11    2.26   1
  10  13  12    7.02    2.28   1
  10  14   1   32.83    3.21   1
  10  14   2   16.48    2.52   1
  10  14   3    8.41    2.20   1
  10  14   4   10.37    2.13   1
  10  14   5   27.77    2.85   1
  10  14   6    7.29    2.00   1
  10  14   7   19.27    2.37   1
  10  14   8    4.88    1.50   1
  10  14   9    1.00    1.50   1
  10  14  10    3.61    2.01   1
  10  14  11  106.30    5.36   1
  10  15   1   19.54    5.13   1
  10  15   2   14.06    5.18   1
  10  15   3    0.30    2.51   1
  10  15   4   -1.39    2.10   1
  10  15   5   11.09    2.40   1
  10  15   6   27.77    2.74   1
  10  15   7    5.81    2.02   1
  10  15   8    2.19    2.31   1
  10  15   9   12.89    2.37   1
  10  15  10    7.40    3.81   1
  10  15  11    1.80    3.59   1
  10  16   0   23.81    3.90   1
  10  16   1    1.59    5.29   1
  10  16   2   19.10    5.59   1
  10  16   3   -1.00    4.40   1
  10  16   4   40.07    5.32   1
  10  16   5    4.41    5.12   1
  10  16   6    0.40    4.18   1
  10  16   7    3.50    3.10   1
  10  16   8   65.12    6.78   1
  10  16   9   18.32    6.16   1
  10  16  10   -5.90    5.10   1
  10  16  11    6.92    4.52   1
  10  17   1   27.35    5.33   1
  10  17   2   32.72    6.64   1
  10  17   3    0.59    3.57   1
  10  17   4    4.88    5.30   1
  10  17   5    9.92    5.29   1
  10  17   6   36.12    5.17   1
  10  17   7    9.61    5.70   1
  10  17   8   10.18    4.98   1
  10  17   9    0.90    3.61   1
  11 -12  -4    0.90    5.81   1
  11 -12  -3   15.13    4.59   1
  11 -12  -2   -4.80    5.78   1
  11 -12  -1    2.40    6.01   1
  11 -11  -7   -1.10    3.61   1
  11 -11  -6    6.30    5.52   1
  11 -11  -5   27.04    6.76   1
  11 -11  -4   15.37    5.49   1
  11 -11  -3    8.58    3.98   1
  11 -11  -2    6.71    5.70   1
  11 -11  -1   29.05    6.04   1
  11 -11   0    2.79    4.11   1
  11 -11   1   22.75    4.48   1
  11 -11   2    4.80    5.61   1
  11 -11   3   11.90    5.93   1
  11 -10  -9   19.80    5.61   1
  11 -10  -8    1.99    3.98   1
  11 -10  -7   13.99    5.61   1
  11 -10  -6    1.39    3.49   1
  11 -10  -5   14.06    5.10   1
  11 -10  -4    6.40    4.00   1
  11 -10  -3   34.46    5.87   1
  11 -10  -2   68.06    6.76   1
  11 -10  -1    1.21    5.02   1
  11 -10   0   -1.10    4.41   1
  11 -10   1   -6.71    4.82   1
  11 -10   2    3.88    3.19   1
  11 -10   3   45.83    5.55   1
  11 -10   4    2.69    3.71   1
  11 -10   5   10.11    3.82   1
  11  -9 -10   -2.10    5.71   1
  11  -9  -9    7.40    5.82   1
  11  -9  -8   31.25    5.70   1
  11  -9  -7    5.52    3.71   1
  11  -9  -6   28.84    5.48   1
  11  -9  -5    1.10    3.80   1
  11  -9  -4    3.20    4.01   1
  11  -9  -3   36.48    5.44   1
  11  -9  -2    9.12    4.23   1
  11  -9  -1   83.36    6.57   1
  11  -9   0   23.72    5.65   1
  11  -9   1   79.39    6.42   1
  11  -9   2   10.63    4.50   1
  11  -9   3   -0.30    4.11   1
  11  -9   4    8.01    4.58   1
  11  -9   5  102.62    8.71   1
  11  -9   6   61.15    7.66   1
  11  -9   7   64.16    7.37   1
  11  -8 -11   46.38    7.35   1
  11  -8 -10   31.81    6.32   1
  11  -8  -9    7.29    3.67   1
  11  -8  -8    9.00    4.08   1
  11  -8  -7    1.80    4.69   1
  11  -8  -6   37.95    4.19   1
  11  -8  -5    2.10    4.09   1
  11  -8  -4   92.54    4.62   1
  11  -8  -3   37.82    3.08   1
  11  -8  -2   58.98    3.99   1
  11  -8  -1    4.00    3.52   1
  11  -8   0  120.12    8.11   1
  11  -8   1   86.30    8.73   1
  11  -8   2   30.47    3.64   1
  11  -8   3   32.95    4.25   1
  11  -8   4    2.50    4.20   1
  11  -8   5   -3.69    4.19   1
  11  -8   6    7.08    3.99   1
  11  -8   7   17.81    4.98   1
  11  -8   8   -5.38    5.10   1
  11  -7 -12   -1.10    5.71   1
  11  -7 -11   -1.80    4.58   1
  11  -7 -10    6.81    3.60   1
  11  -7  -9   14.29    4.61   1
  11  -7  -8   10.30    4.62   1
  11  -7  -7    3.88    3.07   1
  11  -7  -6   26.63    4.85   1
  11  -7  -5    8.88    3.81   1
  11  -7  -4   61.94    5.67   1
  11  -7  -3   27.46    2.31   1
  11  -7  -2  140.19    8.05   1
  11  -7  -1  170.82    7.32   1
  11  -7   0   19.80    2.14   1
  11  -7   1    7.78    3.01   1
  11  -7   2   81.00    6.30   1
  11  -7   3    5.52    3.71   1
  11  -7   4   28.20    3.61   1
  11  -7   5    3.69    3.80   1
  11  -7   6    4.58    3.81   1
  11  -7   7   43.69    5.82   1
  11  -7   8    1.39    4.39   1
  11  -6 -12    7.62    6.18   1
  11  -6 -11   11.70    5.20   1
  11  -6 -10    8.29    4.20   1
  11  -6  -9    3.31    4.11   1
  11  -6  -8    3.31    2.80   1
  11  -6  -7   17.47    4.77   1
  11  -6  -6  278.22   17.68   1
  11  -6  -5   55.65    6.27   1
  11  -6  -4  176.36    9.03   1
  11  -6  -3    4.49    1.70   1
  11  -6  -2    0.50    1.31   1
  11  -6  -1    1.90    1.41   1
  11  -6   0   76.21    3.49   1
  11  -6   1    3.61    1.52   1
  11  -6   2   17.64    3.78   1
  11  -6   3   -0.50    3.01   1
  11  -6   4   56.10    5.84   1
  11  -6   5   34.93    4.26   1
  11  -6   6    3.69    3.19   1
  11  -6   7   14.36    3.26   1
  11  -6   8    3.10    2.82   1
  11  -6   9   60.22    5.90   1
  11  -5 -13   10.69    5.17   1
  11  -5 -12   18.23    4.27   1
  11  -5 -11   15.60    4.11   1
  11  -5 -10   25.20    4.32   1
  11  -5  -9   42.25    4.42   1
  11  -5  -8   71.06    5.40   1
  11  -5  -7   21.07    4.68   1
  11  -5  -6    9.18    4.30   1
  11  -5  -5   34.93    4.02   1
  11  -5  -4   20.79    3.37   1
  11  -5  -3   12.39    2.46   1
  11  -5  -2   11.22    1.61   1
  11  -5  -1    2.10    1.19   1
  11  -5   0    1.99    1.49   1
  11  -5   1   76.21    3.14   1
  11  -5   2  110.88    4.21   1
  11  -5   3   19.89    2.32   1
  11  -5   4   21.90    2.53   1
  11  -5   5   36.84    4.25   1
  11  -5   6   22.18    3.67   1
  11  -5   7    0.79    3.08   1
  11  -5   8    6.60    3.80   1
  11  -5  10    4.71    4.21   1
  11  -4 -13    1.39    6.49   1
  11  -4 -12    2.99    4.98   1
  11  -4 -11   -0.59    3.28   1
  11  -4 -10    2.99    2.49   1
  11  -4  -9   60.06    5.74   1
  11  -4  -8   -2.10    3.80   1
  11  -4  -7   28.73    4.40   1
  11  -4  -6   38.44    4.09   1
  11  -4  -5   -0.30    3.01   1
  11  -4  -4   48.30    3.34   1
  11  -4  -3   -1.99    1.89   1
  11  -4  -2    1.00    3.10   1
  11  -4  -1   19.10    1.57   1
  11  -4   0    3.88    1.38   1
  11  -4   1    3.50    1.38   1
  11  -4   2   31.92    1.92   1
  11  -4   3    1.30    1.39   1
  11  -4   4   71.23    3.54   1
  11  -4   5    1.10    1.99   1
  11  -4   6   43.16    2.76   1
  11  -4   7   51.27    5.30   1
  11  -4   8    7.51    3.01   1
  11  -4  10   57.61    6.07   1
  11  -3 -13    8.70    3.78   1
  11  -3 -12   -1.30    4.70   1
  11  -3 -11   12.60    4.83   1
  11  -3 -10   11.70    4.31   1
  11  -3  -9    2.10    3.80   1
  11  -3  -8   52.71    4.94   1
  11  -3  -7   54.61    5.03   1
  11  -3  -6   13.40    2.71   1
  11  -3  -5    6.10    2.32   1
  11  -3  -4    4.88    2.08   1
  11  -3  -3   -1.59    1.89   1
  11  -3  -2   32.72    2.52   1
  11  -3  -1    5.11    1.31   1
  11  -3   0   17.89    1.69   1
  11  -3   1    3.39    1.51   1
  11  -3   2  150.06    4.65   1
  11  -3   3    9.61    1.49   1
  11  -3   4    7.78    1.51   1
  11  -3   5    0.71    1.31   1
  11  -3   6   15.29    2.03   1
  11  -3   7    0.90    1.90   1
  11  -3   8    0.30    2.61   1
  11  -3   9   24.80    3.49   1
  11  -2 -13    6.30    4.92   1
  11  -2 -12    2.79    3.51   1
  11  -2 -11   -3.80    4.09   1
  11  -2 -10   52.85    5.23   1
  11  -2  -9   -0.20    3.73   1
  11  -2  -8   36.97    4.26   1
  11  -2  -7   26.83    3.83   1
  11  -2  -6    3.69    2.38   1
  11  -2  -5   13.69    2.00   1
  11  -2  -4    7.78    2.01   1
  11  -2  -3   22.37    1.70   1
  11  -2  -2   12.67    1.99   1
  11  -2  -1   86.49    3.91   1
  11  -2   0   15.52    1.50   1
  11  -2   1   20.61    1.54   1
  11  -2   2   14.98    1.39   1
  11  -2   3   37.45    1.71   1
  11  -2   4  104.04    3.47   1
  11  -2   5   13.99    1.42   1
  11  -2   6  122.32    6.41   1
  11  -2   7    5.71    1.48   1
  11  -2   8    9.99    2.91   1
  11  -2   9    2.89    3.20   1
  11  -2  10   33.06    4.37   1
  11  -2  11    9.18    3.09   1
  11  -1 -14    9.61    5.83   1
  11  -1 -13    5.20    3.60   1
  11  -1 -12    2.19    4.68   1
  11  -1 -11    2.10    3.31   1
  11  -1 -10    1.69    3.90   1
  11  -1  -9   18.40    3.86   1
  11  -1  -8    1.49    3.39   1
  11  -1  -7   32.95    3.90   1
  11  -1  -6   72.42    5.45   1
  11  -1  -5  277.89   11.00   1
  11  -1  -4    7.78    1.90   1
  11  -1  -3   24.30    1.97   1
  11  -1  -2    2.50    1.49   1
  11  -1  -1   -1.00    1.50   1
  11  -1   0    2.50    1.20   1
  11  -1   1    0.10    1.11   1
  11  -1   2   33.18    1.73   1
  11  -1   3    6.00    1.32   1
  11  -1   4  113.85    3.20   1
  11  -1   5   25.30    1.61   1
  11  -1   6   62.73    2.38   1
  11  -1   7    2.79    2.20   1
  11  -1   8   16.40    1.78   1
  11  -1   9   -0.20    1.41   1
  11  -1  10    2.19    1.98   1
  11  -1  11    2.10    2.81   1
  11   0 -13   29.81    6.77   1
  11   0 -12   17.22    4.98   1
  11   0 -11    1.59    3.38   1
  11   0 -10    0.40    3.59   1
  11   0  -9    0.30    3.52   1
  11   0  -8   41.86    4.79   1
  11   0  -7   94.28    5.83   1
  11   0  -6   31.36    2.35   1
  11   0  -5    9.00    1.98   1
  11   0  -4    0.30    1.21   1
  11   0  -3  271.26    9.22   1
  11   0  -2   14.82    1.62   1
  11   0  -1    3.69    1.31   1
  11   0   0    0.59    1.19   1
  11   0   1   24.50    1.58   1
  11   0   2   16.89    1.23   1
  11   0   3   27.98    1.38   1
  11   0   4    7.08    1.01   1
  11   0   5  111.72    3.38   1
  11   0   6   52.85    2.62   1
  11   0   7   69.72    3.17   1
  11   0   8   -1.90    1.10   1
  11   0   9   47.20    2.06   1
  11   0  10   97.22    3.75   1
  11   0  11    1.80    1.50   1
  11   1 -13    5.11    5.51   1
  11   1 -12   24.50    3.76   1
  11   1 -11   62.25    5.84   1
  11   1 -10   16.40    2.92   1
  11   1  -9  117.29    7.80   1
  11   1  -8   62.25    5.05   1
  11   1  -7   42.90    3.14   1
  11   1  -6   17.72    2.27   1
  11   1  -5   91.78    4.02   1
  11   1  -4   22.00    2.35   1
  11   1  -3   18.40    1.72   1
  11   1  -2  107.12    3.93   1
  11   1  -1   46.79    2.19   1
  11   1   0   13.99    1.42   1
  11   1   1  199.09    5.64   1
  11   1   2   49.14    1.96   1
  11   1   3    1.21    1.10   1
  11   1   4  157.50    6.28   1
  11   1   5  288.32    7.47   1
  11   1   6    4.08    0.81   1
  11   1   7    1.90    0.91   1
  11   1   8   11.97    1.11   1
  11   1   9    2.69    1.31   1
  11   1  10    6.81    1.41   1
  11   1  11   11.90    1.52   1
  11   1  12    0.50    1.60   1
  11   2 -13    5.20    6.02   1
  11   2 -12   48.44    6.82   1
  11   2 -11    6.92    3.79   1
  11   2 -10   16.32    3.31   1
  11   2  -9   -0.59    3.48   1
  11   2  -8   36.72    4.36   1
  11   2  -7    8.29    2.07   1
  11   2  -6  131.33    5.27   1
  11   2  -5   90.06    4.37   1
  11   2  -4    1.80    1.29   1
  11   2  -3  160.28    7.09   1
  11   2  -2   16.32    2.18   1
  11   2  -1   80.46    3.23   1
  11   2   0   25.00    1.50   1
  11   2   1   77.09    3.34   1
  11   2   2    2.99    0.69   1
  11   2   3   57.76    1.98   1
  11   2   4   20.88    1.19   1
  11   2   5   14.98    1.08   1
  11   2   6  145.93    4.11   1
  11   2   7   37.58    1.59   1
  11   2   8   24.50    1.58   1
  11   2   9  116.86    3.68   1
  11   2  10   22.56    1.62   1
  11   2  11    2.59    1.19   1
  11   2  12   48.72    2.37   1
  11   2  13    9.80    2.38   1
  11   3 -13    0.71    5.33   1
  11   3 -12    9.67    4.91   1
  11   3 -11   -1.10    3.21   1
  11   3 -10   16.16    3.78   1
  11   3  -9   -1.21    3.32   1
  11   3  -8   31.36    3.70   1
  11   3  -7    8.88    2.32   1
  11   3  -6   77.97    3.89   1
  11   3  -5  242.74    9.04   1
  11   3  -4   50.13    3.40   1
  11   3  -3  103.23    4.06   1
  11   3  -2   57.91    2.44   1
  11   3  -1   52.71    2.32   1
  11   3   0   19.62    1.77   1
  11   3   1  106.09    4.33   1
  11   3   2    6.71    0.78   1
  11   3   3   12.60    2.41   1
  11   3   4    5.52    1.69   1
  11   3   5  264.06   10.07   1
  11   3   6   16.89    2.30   1
  11   3   7  113.00    3.40   1
  11   3   8   20.07    1.43   1
  11   3   9  131.56    4.36   1
  11   3  10   19.36    1.32   1
  11   3  11   72.08    3.57   1
  11   3  12    7.08    1.38   1
  11   3  13    1.99    2.09   1
  11   3  14   20.98    3.39   1
  11   4 -13    7.67    5.82   1
  11   4 -12   53.44    6.58   1
  11   4 -11   -2.19    4.50   1
  11   4 -10   43.82    5.16   1
  11   4  -9   15.52    4.18   1
  11   4  -8   12.11    2.78   1
  11   4  -7    4.88    2.48   1
  11   4  -6   -1.00    2.80   1
  11   4  -5   26.42    2.06   1
  11   4  -4   94.67    3.70   1
  11   4  -3    2.50    1.90   1
  11   4  -2  239.01   10.20   1
  11   4  -1   71.06    2.53   1
  11   4   0  199.37   11.01   1
  11   4   1   76.39    3.67   1
  11   4   2   48.44    3.06   1
  11   4   3  301.37   14.24   1
  11   4   4    4.71    2.08   1
  11   4   5   -1.69    1.69   1
  11   4   6  355.70   12.82   1
  11   4   7   19.27    2.46   1
  11   4   8   21.81    2.52   1
  11   4   9   42.64    1.44   1
  11   4  10   -0.40    1.00   1
  11   4  11    4.80    1.01   1
  11   4  12   26.21    2.36   1
  11   4  13   22.47    2.65   1
  11   4  14    3.61    1.90   1
  11   5 -12   -3.31    3.09   1
  11   5 -11    7.62    4.03   1
  11   5 -10    9.92    4.41   1
  11   5  -9   21.44    4.26   1
  11   5  -8    9.49    2.71   1
  11   5  -7   30.36    3.86   1
  11   5  -6    6.20    1.99   1
  11   5  -5    2.69    1.80   1
  11   5  -4   -0.79    1.69   1
  11   5  -3   58.68    2.45   1
  11   5  -2  177.42    9.06   1
  11   5  -1   29.27    2.38   1
  11   5   0    7.40    1.41   1
  11   5   1    1.10    0.50   1
  11   5   2   67.73    3.46   1
  11   5   3   53.00    3.35   1
  11   5   4   33.18    2.65   1
  11   5   5   -1.39    1.89   1
  11   5   6    3.39    2.10   1
  11   5   7    8.82    2.49   1
  11   5   8    1.99    2.40   1
  11   5   9   34.69    2.59   1
  11   5  10    1.39    0.59   1
  11   5  11  145.20    5.78   1
  11   5  12   -1.30    1.30   1
  11   5  13   30.91    4.11   1
  11   5  14   42.12    3.24   1
  11   6 -12    4.20    5.08   1
  11   6 -11   -0.90    4.71   1
  11   6 -10   39.06    5.25   1
  11   6  -9   19.62    3.28   1
  11   6  -8   36.36    4.34   1
  11   6  -7   95.84    6.07   1
  11   6  -6   11.42    3.11   1
  11   6  -5    3.69    2.19   1
  11   6  -4   41.60    2.45   1
  11   6  -3   15.29    1.72   1
  11   6  -2   27.88    1.80   1
  11   6  -1    2.50    0.88   1
  11   6   0  122.77    3.77   1
  11   6   1   25.10    0.90   1
  11   6   2   24.80    2.89   1
  11   6   3  183.87    6.78   1
  11   6   4    4.49    1.78   1
  11   6   5  187.14    7.93   1
  11   6   6    1.30    2.51   1
  11   6   7   46.79    2.74   1
  11   6   8    6.20    1.79   1
  11   6   9  139.71    6.15   1
  11   6  10   25.60    2.73   1
  11   6  11   39.69    1.64   1
  11   6  12   -0.30    1.00   1
  11   6  13  220.82    8.92   1
  11   6  14   -2.99    1.80   1
  11   6  15   -1.49    2.88   1
  11   7 -11   52.71    5.23   1
  11   7 -10   26.21    5.22   1
  11   7  -9   35.28    5.70   1
  11   7  -8   86.12    6.12   1
  11   7  -7    6.50    3.31   1
  11   7  -6   18.49    3.53   1
  11   7  -5    9.30    2.07   1
  11   7  -4   21.90    1.97   1
  11   7  -3   63.04    3.18   1
  11   7  -2    6.00    1.32   1
  11   7  -1   42.51    1.96   1
  11   7   0   30.03    1.42   1
  11   7   1    2.69    0.59   1
  11   7   2   12.82    3.01   1
  11   7   3    4.08    2.10   1
  11   7   4  167.18    6.47   1
  11   7   5   73.44    4.46   1
  11   7   6   65.29    3.56   1
  11   7   7   50.41    3.27   1
  11   7   8   29.59    2.72   1
  11   7   9  143.52    5.75   1
  11   7  10   19.01    2.70   1
  11   7  11  119.03    8.73   1
  11   7  12   37.95    2.71   1
  11   7  13   11.29    1.68   1
  11   8  -9   39.56    4.65   1
  11   8  -8   -2.79    3.51   1
  11   8  -7   36.48    4.35   1
  11   8  -6   37.95    3.94   1
  11   8  -5   17.98    2.37   1
  11   8  -4    0.79    1.69   1
  11   8  -3   27.14    2.08   1
  11   8  -2   12.39    1.48   1
  11   8  -1    0.20    1.01   1
  11   8   0  157.50    5.02   1
  11   8   1   40.20    1.65   1
  11   8   2   45.83    3.66   1
  11   8   3    7.18    2.30   1
  11   8   4  179.02    8.03   1
  11   8   5  150.31    7.11   1
  11   8   6   77.26    4.39   1
  11   8   7    5.29    1.70   1
  11   8   8   14.36    2.43   1
  11   8   9   -0.30    1.80   1
  11   8  10    2.31    2.31   1
  11   8  11   81.90    7.42   1
  11   8  12   12.67    1.21   1
  11   8  13   48.30    3.75   1
  11   9  -7   37.45    4.41   1
  11   9  -6    9.00    3.00   1
  11   9  -5   30.14    4.06   1
  11   9  -4    2.40    2.11   1
  11   9  -3    6.20    1.99   1
  11   9  -2  145.93    5.32   1
  11   9  -1   24.30    1.68   1
  11   9   0    1.90    1.10   1
  11   9   1   24.90    1.60   1
  11   9   2  185.78    5.45   1
  11   9   3    4.58    3.00   1
  11   9   4   65.12    3.87   1
  11   9   5   26.52    2.78   1
  11   9   6   61.78    4.24   1
  11   9   7    6.71    2.80   1
  11   9   8   96.04    5.68   1
  11   9   9   40.45    3.82   1
  11   9  10   54.02    5.29   1
  11   9  11    0.00    1.00   1
  11   9  13   -0.50    1.41   1
  11  10  -6   59.14    5.69   1
  11  10  -5   12.11    3.20   1
  11  10  -4   -1.69    2.00   1
  11  10  -3   71.74    3.56   1
  11  10  -2    6.92    1.89   1
  11  10  -1   -1.39    1.49   1
  11  10   0   40.58    2.04   1
  11  10   1   73.44    2.91   1
  11  10   2   24.70    1.29   1
  11  10   3  152.28    6.42   1
  11  10   4  232.56    8.24   1
  11  10   5   40.83    3.96   1
  11  10   6  132.71    5.53   1
  11  10   7    8.18    4.52   1
  11  10   8   32.04    3.62   1
  11  10   9    4.80    3.11   1
  11  10  10    9.80    3.19   1
  11  10  11   -2.31    3.40   1
  11  11  -4   -3.20    2.79   1
  11  11  -3   60.37    3.57   1
  11  11  -2   11.22    1.88   1
  11  11  -1   64.64    3.54   1
  11  11   0   41.86    2.46   1
  11  11   1   10.69    1.50   1
  11  11   2   26.94    1.97   1
  11  11   3   63.84    3.68   1
  11  11   4   -0.59    4.08   1
  11  11   5    1.00    4.40   1
  11  11   6   -0.59    3.28   1
  11  11   7    1.49    3.39   1
  11  11   8  165.89   10.82   1
  11  11   9   -0.90    2.81   1
  11  11  10   13.10    4.63   1
  11  11  11   10.11    5.22   1
  11  12  -2    0.79    2.99   1
  11  12  -1    3.31    2.11   1
  11  12   0   -1.10    1.60   1
  11  12   1   14.82    1.77   1
  11  12   2    9.42    1.29   1
  11  12   3   41.47    2.19   1
  11  12   4   27.25    1.36   1
  11  12   5    8.12    0.91   1
  11  12   6    6.92    4.52   1
  11  12   7   79.57    6.07   1
  11  12   8    3.31    3.49   1
  11  12   9   13.47    4.70   1
  11  12  10   95.84    8.22   1
  11  12  11   45.43    6.07   1
  11  13  -1   67.08    6.88   1
  11  13   0    8.29    2.82   1
  11  13   1   41.86    3.49   1
  11  13   2   20.79    2.64   1
  11  13   3    3.50    1.68   1
  11  13   4   23.33    2.22   1
  11  13   5   21.62    2.23   1
  11  13   6  102.01    5.05   1
  11  13   7   23.52    4.36   1
  11  13   8   31.81    3.95   1
  11  13   9    5.29    4.88   1
  11  13  10   11.29    5.78   1
  11  13  11   -2.50    3.19   1
  11  14   1   34.46    3.17   1
  11  14   2    2.19    1.81   1
  11  14   3   20.88    2.47   1
  11  14   4    0.50    1.80   1
  11  14   5   -0.30    1.61   1
  11  14   6   -0.30    1.51   1
  11  14   7  124.32   10.93   1
  11  14   8   14.98    4.18   1
  11  14   9   46.79    6.70   1
  11  14  10   40.07    6.84   1
  11  14  11   10.82    4.21   1
  11  15   1   11.29    5.51   1
  11  15   2   18.49    5.76   1
  11  15   3    9.00    4.08   1
  11  15   4    1.69    4.89   1
  11  15   5   26.01    2.75   1
  11  15   6    0.79    3.28   1
  11  15   7   -0.50    4.81   1
  11  15   8    8.53    3.39   1
  11  15   9   37.09    4.87   1
  11  15  10    0.79    4.98   1
  11  15  11   24.90    4.29   1
  11  16   0   69.06    7.48   1
  11  16   1   44.89    7.10   1
  11  16   2   15.68    4.59   1
  11  16   3   10.50    5.51   1
  11  16   4    0.40    3.19   1
  11  16   5    4.49    5.09   1
  11  16   6   30.80    5.66   1
  11  16   7   88.74    7.16   1
  11  16   8   14.82    5.62   1
  11  16   9    6.92    4.21   1
  11  16  10    4.20    6.31   1
  12 -10  -6    2.10    5.51   1
  12 -10  -5   37.45    6.24   1
  12 -10  -4    8.12    4.33   1
  12 -10  -3   30.91    5.89   1
  12 -10  -2   11.70    5.68   1
  12 -10  -1    5.90    3.99   1
  12 -10   0   16.16    4.90   1
  12 -10   1   12.39    5.49   1
  12 -10   2   14.67    5.36   1
  12 -10   3   -5.20    5.61   1
  12  -9  -8    8.41    6.38   1
  12  -9  -7   22.18    4.52   1
  12  -9  -6    1.10    5.31   1
  12  -9  -5   29.27    4.65   1
  12  -9  -4   -1.30    4.49   1
  12  -9  -3   33.87    5.94   1
  12  -9  -2   39.19    5.88   1
  12  -9  -1   -4.58    3.30   1
  12  -9   0    0.30    3.41   1
  12  -9   1   13.76    4.08   1
  12  -9   2   -4.28    3.19   1
  12  -9   3   10.69    3.60   1
  12  -9   4    5.62    4.41   1
  12  -8  -9   -6.10    3.51   1
  12  -8  -8    5.20    5.70   1
  12  -8  -7   25.20    6.22   1
  12  -8  -6    2.79    3.61   1
  12  -8  -5    9.30    5.61   1
  12  -8  -4    9.80    5.07   1
  12  -8  -3   -2.10    4.09   1
  12  -8  -2    6.20    2.89   1
  12  -8  -1   38.32    4.58   1
  12  -8   0    7.90    5.11   1
  12  -8   1   10.69    4.97   1
  12  -8   2    0.50    4.02   1
  12  -8   3   11.09    4.33   1
  12  -8   4    9.49    4.62   1
  12  -8   5   16.89    4.60   1
  12  -7 -10   17.22    5.48   1
  12  -7  -9   15.52    5.83   1
  12  -7  -8   13.91    5.22   1
  12  -7  -7    6.71    3.11   1
  12  -7  -6   11.97    5.12   1
  12  -7  -5   66.91    6.71   1
  12  -7  -4    3.61    1.79   1
  12  -7  -3   17.31    2.33   1
  12  -7  -2    4.28    1.90   1
  12  -7  -1    7.02    1.80   1
  12  -7   0   12.82    2.00   1
  12  -7   1   60.22    5.43   1
  12  -7   2    8.82    3.80   1
  12  -7   3   69.72    5.34   1
  12  -7   4   23.33    4.64   1
  12  -7   5    6.71    4.09   1
  12  -7   6    7.62    4.69   1
  12  -6 -11   -0.30    4.02   1
  12  -6 -10   12.89    5.60   1
  12  -6  -9   25.00    5.10   1
  12  -6  -8   42.25    4.55   1
  12  -6  -7   54.76    5.62   1
  12  -6  -6    0.30    2.82   1
  12  -6  -5    1.10    3.70   1
  12  -6  -4   14.67    4.21   1
  12  -6  -3    3.31    1.89   1
  12  -6  -2   23.04    2.50   1
  12  -6  -1   52.13    3.90   1
  12  -6   0    4.71    1.61   1
  12  -6   1   26.01    2.24   1
  12  -6   2   14.06    3.53   1
  12  -6   3   89.68    7.01   1
  12  -6   4    8.53    3.50   1
  12  -6   5   20.07    4.03   1
  12  -6   6    7.90    3.09   1
  12  -6   7    7.18    3.11   1
  12  -5 -11   26.11    7.05   1
  12  -5 -10    7.62    4.31   1
  12  -5  -9    5.81    4.63   1
  12  -5  -8    9.67    4.29   1
  12  -5  -7    4.41    2.81   1
  12  -5  -6  102.62    7.09   1
  12  -5  -5   42.25    4.94   1
  12  -5  -4   22.00    4.60   1
  12  -5  -3    7.18    3.59   1
  12  -5  -2   66.26    3.58   1
  12  -5  -1    4.88    1.68   1
  12  -5   0    2.69    1.71   1
  12  -5   1   50.69    3.28   1
  12  -5   2   -0.59    1.79   1
  12  -5   3  122.77    6.87   1
  12  -5   4   -1.21    1.91   1
  12  -5   5   28.09    3.60   1
  12  -5   7   -2.50    3.19   1
  12  -4 -12    3.69    3.88   1
  12  -4 -11    5.81    5.30   1
  12  -4 -10   27.25    6.89   1
  12  -4  -9    1.69    4.39   1
  12  -4  -8   52.27    5.49   1
  12  -4  -7   50.27    5.25   1
  12  -4  -6   -2.10    3.60   1
  12  -4  -5    3.39    3.28   1
  12  -4  -4   81.90    5.97   1
  12  -4  -3    2.89    3.20   1
  12  -4  -2    5.90    1.90   1
  12  -4  -1   73.10    3.25   1
  12  -4   0   31.70    2.36   1
  12  -4   1   78.85    3.37   1
  12  -4   2   33.06    1.96   1
  12  -4   3   84.09    3.48   1
  12  -4   4    4.00    1.88   1
  12  -4   5   46.65    4.78   1
  12  -4   6   -1.00    2.40   1
  12  -4   8    4.00    3.40   1
  12  -3 -12   10.50    5.57   1
  12  -3 -11    6.71    3.42   1
  12  -3 -10   11.63    4.91   1
  12  -3  -9   49.84    5.37   1
  12  -3  -8   80.82    6.11   1
  12  -3  -7   32.26    4.77   1
  12  -3  -6  133.40    7.85   1
  12  -3  -5   20.70    3.28   1
  12  -3  -4   42.64    4.05   1
  12  -3  -3    4.00    2.00   1
  12  -3  -2   36.84    2.55   1
  12  -3  -1    3.39    1.29   1
  12  -3   0    6.60    1.49   1
  12  -3   1    1.90    1.30   1
  12  -3   2   24.60    1.98   1
  12  -3   3   65.45    2.43   1
  12  -3   4   43.96    2.25   1
  12  -3   5    0.90    1.41   1
  12  -3   6   19.01    2.62   1
  12  -3   7   33.18    2.65   1
  12  -2 -12    4.58    5.18   1
  12  -2 -11   31.81    5.75   1
  12  -2 -10    9.49    3.33   1
  12  -2  -9   23.52    4.27   1
  12  -2  -8   42.12    4.54   1
  12  -2  -7    7.51    3.73   1
  12  -2  -6    6.10    3.31   1
  12  -2  -5   19.89    2.68   1
  12  -2  -4   71.74    3.90   1
  12  -2  -3    3.61    1.90   1
  12  -2  -2    4.71    1.91   1
  12  -2  -1   12.67    1.42   1
  12  -2   0   88.55    3.58   1
  12  -2   1   28.09    1.91   1
  12  -2   2   45.83    2.03   1
  12  -2   3   84.27    3.12   1
  12  -2   4   22.56    1.71   1
  12  -2   5   42.77    2.22   1
  12  -2   6    5.52    1.79   1
  12  -2   7    3.10    1.90   1
  12  -2   8   -1.00    2.90   1
  12  -2   9   42.51    5.09   1
  12  -1 -12   14.29    4.91   1
  12  -1 -11   10.69    4.90   1
  12  -1 -10    5.62    4.41   1
  12  -1  -9   19.89    4.37   1
  12  -1  -8   54.91    5.78   1
  12  -1  -7    1.49    3.49   1
  12  -1  -6  185.78    9.81   1
  12  -1  -5    7.18    1.88   1
  12  -1  -4   10.50    2.27   1
  12  -1  -3   18.32    2.14   1
  12  -1  -2  131.79    5.74   1
  12  -1  -1   31.25    3.24   1
  12  -1   0    4.20    1.39   1
  12  -1   1   31.92    1.81   1
  12  -1   2   16.08    1.52   1
  12  -1   3    1.80    1.21   1
  12  -1   4   67.73    2.47   1
  12  -1   5   14.29    1.51   1
  12  -1   6   85.93    3.15   1
  12  -1   7   21.72    3.36   1
  12  -1   8    3.10    1.51   1
  12  -1   9   -1.90    1.71   1
  12  -1  10    2.99    2.80   1
  12   0 -12   -2.89    4.90   1
  12   0 -11    5.29    3.08   1
  12   0 -10    3.10    4.40   1
  12   0  -9   36.36    4.94   1
  12   0  -8   25.40    4.13   1
  12   0  -7  204.78   12.31   1
  12   0  -6   14.82    3.70   1
  12   0  -5   17.39    2.59   1
  12   0  -4    3.80    1.79   1
  12   0  -3   15.13    2.10   1
  12   0  -2   15.21    1.87   1
  12   0  -1   38.69    2.24   1
  12   0   0    7.02    1.33   1
  12   0   1    2.59    1.09   1
  12   0   2   37.95    2.09   1
  12   0   3   28.62    1.61   1
  12   0   4    8.88    1.07   1
  12   0   5  113.21    3.40   1
  12   0   6  183.87    7.59   1
  12   0   7   25.30    1.61   1
  12   0   8   19.71    1.86   1
  12   0   9   27.35    2.30   1
  12   0  10    8.88    1.91   1
  12   0  11   -2.40    2.29   1
  12   1 -12    8.41    4.70   1
  12   1 -11   14.21    4.98   1
  12   1 -10    3.31    4.11   1
  12   1  -9   16.56    4.07   1
  12   1  -8    0.71    3.11   1
  12   1  -7    8.88    3.22   1
  12   1  -6   76.56    3.85   1
  12   1  -5    4.20    2.09   1
  12   1  -4    7.78    1.62   1
  12   1  -3  194.04    7.24   1
  12   1  -2   57.91    3.04   1
  12   1  -1    3.61    1.29   1
  12   1   0   29.27    1.95   1
  12   1   1  115.13    3.86   1
  12   1   2   24.90    2.20   1
  12   1   3   -0.20    0.80   1
  12   1   4   86.30    3.34   1
  12   1   5   31.92    1.47   1
  12   1   6   40.58    2.42   1
  12   1   7    1.90    0.91   1
  12   1   8    6.40    1.52   1
  12   1   9    6.00    1.32   1
  12   1  10  173.45    6.85   1
  12   1  11    6.40    1.92   1
  12   1  12   22.94    2.68   1
  12   2 -12    3.61    5.81   1
  12   2 -11   14.36    5.00   1
  12   2 -10    6.81    3.18   1
  12   2  -9   24.01    4.61   1
  12   2  -8   19.36    4.40   1
  12   2  -7  208.80   10.40   1
  12   2  -6    1.59    2.19   1
  12   2  -5   79.39    3.74   1
  12   2  -4   45.16    2.82   1
  12   2  -3   37.33    3.06   1
  12   2  -2   89.11    3.96   1
  12   2  -1  197.40    7.59   1
  12   2   0  119.46    5.47   1
  12   2   1    1.59    0.91   1
  12   2   2   19.10    1.22   1
  12   2   3   18.84    1.22   1
  12   2   4   -5.29    3.08   1
  12   2   5    3.10    0.60   1
  12   2   6   80.28    2.33   1
  12   2   7   78.68    4.26   1
  12   2   8  118.37    4.13   1
  12   2   9    1.21    1.41   1
  12   2  10    6.30    1.31   1
  12   2  11    7.18    2.09   1
  12   2  12  122.10    6.41   1
  12   3 -11    4.88    3.49   1
  12   3 -10    2.31    3.71   1
  12   3  -9   54.91    5.04   1
  12   3  -8    5.62    3.41   1
  12   3  -7   -0.50    3.31   1
  12   3  -6   33.18    2.88   1
  12   3  -5  129.73    5.47   1
  12   3  -4    2.89    1.70   1
  12   3  -3   83.91    3.66   1
  12   3  -2   36.00    2.04   1
  12   3  -1   55.35    3.27   1
  12   3   0   15.52    1.97   1
  12   3   1  152.52    4.69   1
  12   3   2   19.01    1.31   1
  12   3   3   14.21    1.81   1
  12   3   4    8.53    1.99   1
  12   3   5   15.37    2.82   1
  12   3   6    1.99    1.69   1
  12   3   7   11.02    2.39   1
  12   3   8   85.19    3.14   1
  12   3   9   17.47    1.09   1
  12   3  10  363.28   12.58   1
  12   3  11   20.07    2.24   1
  12   3  12    4.49    3.48   1
  12   3  13    1.59    2.70   1
  12   4 -10   22.18    4.90   1
  12   4  -9   23.52    3.49   1
  12   4  -8   78.85    6.39   1
  12   4  -7   39.94    4.17   1
  12   4  -6   -3.39    1.80   1
  12   4  -5   22.56    3.14   1
  12   4  -4   16.97    2.80   1
  12   4  -3   43.16    3.55   1
  12   4  -2    8.01    1.30   1
  12   4  -1  126.11    6.51   1
  12   4   0   43.16    2.76   1
  12   4   1   10.18    1.08   1
  12   4   2    5.11    1.90   1
  12   4   3   75.86    4.36   1
  12   4   4   34.69    2.94   1
  12   4   5    0.50    1.70   1
  12   4   6   11.22    2.08   1
  12   4   7   45.97    2.98   1
  12   4   8  129.28    5.23   1
  12   4   9   18.66    2.59   1
  12   4  10    7.08    0.69   1
  12   4  11   36.48    2.66   1
  12   4  12   44.89    2.81   1
  12   4  13    1.80    3.48   1
  12   5 -10   -0.20    2.52   1
  12   5  -9    8.01    3.23   1
  12   5  -8   32.49    5.02   1
  12   5  -7   30.58    3.65   1
  12   5  -6   22.56    3.14   1
  12   5  -5   12.18    1.88   1
  12   5  -4   12.32    1.90   1
  12   5  -3   23.04    2.02   1
  12   5  -2    5.29    1.79   1
  12   5  -1    1.00    1.60   1
  12   5   0    3.31    0.91   1
  12   5   1  266.34    6.85   1
  12   5   2   26.21    2.97   1
  12   5   3   55.65    3.43   1
  12   5   4   47.06    3.29   1
  12   5   5  134.56    6.50   1
  12   5   6   -4.28    2.40   1
  12   5   7   -2.89    2.38   1
  12   5   8   25.20    3.31   1
  12   5   9   28.84    3.01   1
  12   5  10   53.88    4.55   1
  12   5  11   11.63    0.82   1
  12   5  12    6.50    1.48   1
  12   5  13    2.59    1.61   1
  12   6  -8   34.46    5.17   1
  12   6  -7   46.38    4.49   1
  12   6  -6    6.30    3.21   1
  12   6  -5    4.28    2.69   1
  12   6  -4   17.22    1.99   1
  12   6  -3   11.83    1.51   1
  12   6  -2   13.03    1.52   1
  12   6  -1   39.69    2.14   1
  12   6   0    3.80    1.09   1
  12   6   1   15.68    3.96   1
  12   6   2   19.62    2.30   1
  12   6   3   25.50    2.93   1
  12   6   4    9.12    2.90   1
  12   6   5   17.64    2.69   1
  12   6   6   73.44    4.63   1
  12   6   7    6.40    2.88   1
  12   6   8   37.70    3.56   1
  12   6   9   17.22    2.49   1
  12   6  10    7.29    3.02   1
  12   6  11    2.19    4.00   1
  12   6  12   34.46    5.05   1
  12   6  13    0.00    1.00   1
  12   7  -7    0.71    3.01   1
  12   7  -6    8.82    3.09   1
  12   7  -5   20.16    2.51   1
  12   7  -4   21.16    2.30   1
  12   7  -3    5.52    1.69   1
  12   7  -2   40.45    2.16   1
  12   7  -1    0.10    1.11   1
  12   7   0   21.53    1.67   1
  12   7   1  135.72    9.32   1
  12   7   2   43.16    3.29   1
  12   7   3  242.11    8.71   1
  12   7   4   14.36    2.58   1
  12   7   5   -1.30    2.51   1
  12   7   6   90.82    4.76   1
  12   7   7   43.16    3.42   1
  12   7   8   15.13    2.49   1
  12   7   9   43.30    3.16   1
  12   7  10   60.37    4.51   1
  12   7  11   17.47    4.77   1
  12   8  -6    3.20    3.11   1
  12   8  -5    0.71    2.60   1
  12   8  -4   12.67    1.99   1
  12   8  -3    4.28    1.78   1
  12   8  -2    0.90    1.31   1
  12   8  -1  149.08    6.11   1
  12   8   0   12.32    1.12   1
  12   8   1   64.48    2.73   1
  12   8   2   17.89    2.12   1
  12   8   3   73.44    3.77   1
  12   8   4    2.40    2.79   1
  12   8   5   86.68    4.66   1
  12   8   6    9.80    3.00   1
  12   8   7   38.07    4.07   1
  12   8   8   95.45    5.28   1
  12   8   9   37.58    5.52   1
  12   8  10    8.29    4.72   1
  12   9  -4    5.38    1.90   1
  12   9  -3   21.72    2.24   1
  12   9  -2   15.76    1.83   1
  12   9  -1    5.20    2.19   1
  12   9   0   28.09    1.91   1
  12   9   1  267.00   13.07   1
  12   9   2    2.10    2.41   1
  12   9   3   23.62    4.47   1
  12   9   4  152.28    9.87   1
  12   9   5   90.25    7.03   1
  12   9   6    5.81    4.48   1
  12   9   7   81.54    6.86   1
  12   9   8   55.06    5.64   1
  12   9   9   26.21    4.61   1
  12   9  10   21.90    3.37   1
  12   9  11   76.04    7.32   1
  12  10  -3    5.52    3.81   1
  12  10  -2    6.60    1.49   1
  12  10  -1   49.70    2.68   1
  12  10   0   14.98    1.63   1
  12  10   1    7.90    1.12   1
  12  10   2   87.05    5.78   1
  12  10   3   90.82    6.67   1
  12  10   4   17.72    4.88   1
  12  10   5   11.83    4.88   1
  12  10   6  173.98   10.02   1
  12  10   7   26.73    4.55   1
  12  10   8    6.71    3.32   1
  12  10   9   14.21    3.77   1
  12  10  10    9.92    4.98   1
  12  10  11   -5.20    5.20   1
  12  11  -2  119.68    8.31   1
  12  11  -1   13.32    2.77   1
  12  11   0    9.18    2.48   1
  12  11   1    8.82    1.90   1
  12  11   2    5.29    0.78   1
  12  11   3   -2.79    2.91   1
  12  11   4   43.96    5.04   1
  12  11   5    8.88    4.89   1
  12  11   6    8.41    2.90   1
  12  11   7    7.51    3.62   1
  12  11   8   51.70    5.90   1
  12  11   9   -0.10    4.45   1
  12  11  10    0.20    4.83   1
  12  11  11   60.37    6.37   1
  12  12  -1   12.11    2.99   1
  12  12   0   55.50    4.77   1
  12  12   1    3.39    1.80   1
  12  12   2   25.50    2.12   1
  12  12   3    0.90    1.01   1
  12  12   4   14.90    4.71   1
  12  12   5   13.47    4.77   1
  12  12   6   75.52    6.43   1
  12  12   7   74.13    6.54   1
  12  12   8   29.27    6.38   1
  12  12   9   13.91    5.60   1
  12  12  10   13.47    4.62   1
  12  12  11    6.71    3.88   1
  12  13   0   -2.89    2.48   1
  12  13   1    3.80    1.72   1
  12  13   2   12.18    2.30   1
  12  13   3   12.53    1.98   1
  12  13   4   30.58    5.09   1
  12  13   5   -7.08    4.68   1
  12  13   6    4.41    5.71   1
  12  13   7   19.01    4.01   1
  12  13   8   18.92    6.00   1
  12  13   9   11.02    5.18   1
  12  13  10   55.95    6.58   1
  12  13  11   -0.10    3.64   1
  12  14   2   43.30    5.26   1
  12  14   3    5.81    5.40   1
  12  14   4   -1.30    5.61   1
  12  14   5   -0.50    3.51   1
  12  14   6   65.77    6.97   1
  12  14   7    6.50    4.08   1
  12  14   8    1.80    3.89   1
  12  14   9    2.19    5.30   1
  12  14  10   22.37    4.73   1
  12  14  11    6.81    5.79   1
  12  15   0    2.89    3.71   1
  12  15   1   32.49    6.04   1
  12  15   2    4.58    5.69   1
  12  15   3    6.81    3.71   1
  12  15   4   11.02    4.98   1
  12  15   5   15.60    4.58   1
  12  15   6   10.50    5.38   1
  12  15   7    9.42    6.63   1
  12  15   8   21.90    5.05   1
  12  15   9    4.88    5.39   1
  12  15  10   76.56    7.17   1
  12  16   4    7.90    4.78   1
  12  16   5   28.62    6.42   1
  12  16   6   42.64    6.14   1
  13  -9  -4    1.49    5.27   1
  13  -9  -3   -2.31    5.62   1
  13  -9  -2   -4.00    3.72   1
  13  -8  -7   10.30    5.33   1
  13  -8  -6   -0.40    3.19   1
  13  -8  -5    5.90    4.81   1
  13  -8  -4   10.63    4.89   1
  13  -8  -3    0.10    3.34   1
  13  -8  -2    3.69    3.30   1
  13  -8  -1    2.50    3.60   1
  13  -8   0    6.92    3.00   1
  13  -7  -8    1.49    3.68   1
  13  -7  -7   15.37    5.80   1
  13  -7  -6   13.18    5.08   1
  13  -7  -5   14.67    5.21   1
  13  -7  -4   -2.19    2.78   1
  13  -7  -3    8.70    3.19   1
  13  -7  -2    1.90    3.09   1
  13  -7  -1   21.44    3.43   1
  13  -7   0   37.82    4.55   1
  13  -7   1    6.60    4.32   1
  13  -6  -9   12.32    5.19   1
  13  -6  -8    5.29    5.01   1
  13  -6  -7   -0.50    4.32   1
  13  -6  -6   -4.80    4.29   1
  13  -6  -5   61.47    5.33   1
  13  -6  -4    5.38    2.51   1
  13  -6  -3    0.71    2.02   1
  13  -6  -2   10.18    2.42   1
  13  -6  -1   12.67    2.21   1
  13  -6   0    1.21    1.91   1
  13  -6   1    2.10    2.00   1
  13  -6   2   38.81    4.86   1
  13  -6   3    6.92    4.10   1
  13  -5 -10   -1.30    5.11   1
  13  -5  -9   38.56    5.96   1
  13  -5  -8   -3.20    3.40   1
  13  -5  -7   17.72    4.80   1
  13  -5  -6   12.39    4.79   1
  13  -5  -5    8.29    4.20   1
  13  -5  -4    5.29    3.59   1
  13  -5  -3   43.16    3.29   1
  13  -5  -2   18.23    2.39   1
  13  -5  -1    9.61    1.98   1
  13  -5   0   -1.00    1.90   1
  13  -5   1    0.59    1.59   1
  13  -5   2    2.59    1.90   1
  13  -5   3   24.60    3.87   1
  13  -5   4   -0.71    3.11   1
  13  -4 -10   -4.20    3.61   1
  13  -4  -9    5.20    3.51   1
  13  -4  -8   30.58    5.09   1
  13  -4  -7   14.59    4.28   1
  13  -4  -6   42.25    5.72   1
  13  -4  -5   39.31    3.89   1
  13  -4  -4    1.80    2.60   1
  13  -4  -3   16.16    3.78   1
  13  -4  -2    5.52    2.11   1
  13  -4  -1   62.25    3.79   1
  13  -4   0    4.00    2.00   1
  13  -4   1   69.06    4.16   1
  13  -4   2   12.67    2.06   1
  13  -4   3    1.69    1.79   1
  13  -4   4   36.24    3.85   1
  13  -3 -10   32.38    5.35   1
  13  -3  -9   20.61    5.18   1
  13  -3  -8   15.37    4.70   1
  13  -3  -7    1.39    3.09   1
  13  -3  -6   15.76    3.89   1
  13  -3  -5    8.88    3.99   1
  13  -3  -4    1.39    2.90   1
  13  -3  -3   25.30    3.82   1
  13  -3  -2   32.72    2.75   1
  13  -3  -1   63.36    3.18   1
  13  -3   0    8.18    1.72   1
  13  -3   1    2.19    1.60   1
  13  -3   2   29.48    2.39   1
  13  -3   3   81.90    3.44   1
  13  -3   4    3.80    1.72   1
  13  -3   5    6.00    2.01   1
  13  -2 -11   12.67    4.91   1
  13  -2 -10   -0.40    5.08   1
  13  -2  -9    4.71    4.12   1
  13  -2  -8   39.31    4.89   1
  13  -2  -7    9.67    3.67   1
  13  -2  -6   88.92    6.04   1
  13  -2  -5   33.76    4.42   1
  13  -2  -4    9.42    3.38   1
  13  -2  -3    6.10    3.01   1
  13  -2  -2   15.13    2.41   1
  13  -2  -1   37.45    2.33   1
  13  -2   0   50.13    2.55   1
  13  -2   1   90.82    4.19   1
  13  -2   2   45.02    2.55   1
  13  -2   3    1.59    1.49   1
  13  -2   4   10.37    1.48   1
  13  -2   5   32.95    2.07   1
  13  -2   6    0.79    1.80   1
  13  -2   7   22.18    3.67   1
  13  -1 -10   26.01    4.39   1
  13  -1  -9    8.18    3.49   1
  13  -1  -8    2.31    3.50   1
  13  -1  -7    2.50    3.51   1
  13  -1  -6  140.90    9.97   1
  13  -1  -5    2.19    2.19   1
  13  -1  -4   25.50    3.64   1
  13  -1  -3    8.88    2.32   1
  13  -1  -2   15.92    2.07   1
  13  -1  -1   12.60    1.77   1
  13  -1   0   39.19    2.38   1
  13  -1   1    7.02    1.48   1
  13  -1   2   37.09    1.95   1
  13  -1   3   19.71    1.78   1
  13  -1   4   30.47    1.88   1
  13  -1   5   40.20    2.16   1
  13  -1   6   17.89    1.69   1
  13  -1   7   10.37    2.32   1
  13  -1   8    5.11    2.31   1
  13  -1   9   29.05    4.42   1
  13   0 -10   23.04    5.57   1
  13   0  -9   -0.50    4.02   1
  13   0  -8   13.03    4.12   1
  13   0  -7    2.79    3.91   1
  13   0  -6    6.71    3.42   1
  13   0  -5   16.08    3.13   1
  13   0  -4    0.20    2.11   1
  13   0  -3   16.89    2.22   1
  13   0  -2   27.35    2.62   1
  13   0  -1   27.67    2.10   1
  13   0   0   29.05    1.94   1
  13   0   1  104.86    3.69   1
  13   0   2    8.58    1.29   1
  13   0   3    3.20    1.22   1
  13   0   4    0.79    1.09   1
  13   0   5   94.48    4.28   1
  13   0   6   54.61    3.25   1
  13   0   7    5.71    1.48   1
  13   0   8    2.10    1.91   1
  13   0   9    8.12    2.28   1
  13   0  10   -1.21    2.20   1
  13   1  -9    8.41    4.58   1
  13   1  -8    1.99    3.69   1
  13   1  -7    5.62    3.32   1
  13   1  -6  147.14    8.25   1
  13   1  -5   39.19    2.75   1
  13   1  -4   -2.19    2.10   1
  13   1  -3    1.30    1.71   1
  13   1  -2   25.40    2.22   1
  13   1  -1    8.41    1.51   1
  13   1   0   57.30    2.57   1
  13   1   1  115.35    4.51   1
  13   1   2   23.52    2.13   1
  13   1   3   21.81    1.49   1
  13   1   4   18.92    1.83   1
  13   1   5   11.49    1.49   1
  13   1   6    6.50    1.58   1
  13   1   7   58.37    2.75   1
  13   1   8    5.62    1.99   1
  13   1   9   79.03    5.87   1
  13   1  10   -0.10    1.62   1
  13   2  -9    4.58    4.28   1
  13   2  -8   54.17    6.04   1
  13   2  -7   30.36    3.97   1
  13   2  -6    2.50    3.10   1
  13   2  -5   17.98    3.31   1
  13   2  -4   46.65    2.87   1
  13   2  -3   -0.50    1.60   1
  13   2  -2    4.58    1.58   1
  13   2  -1   45.16    2.55   1
  13   2   0    4.88    1.19   1
  13   2   1    1.10    0.90   1
  13   2   2   16.00    1.28   1
  13   2   3   79.39    3.21   1
  13   2   4    7.67    1.22   1
  13   2   5   24.60    1.29   1
  13   2   6   25.10    1.90   1
  13   2   7    3.61    0.80   1
  13   2   8   27.77    1.48   1
  13   2   9   42.12    2.86   1
  13   2  10    5.20    1.60   1
  13   2  11   48.72    4.75   1
  13   3  -8    0.71    3.41   1
  13   3  -7   16.40    3.73   1
  13   3  -6    0.40    2.19   1
  13   3  -5    3.61    1.90   1
  13   3  -4   10.69    2.09   1
  13   3  -3   22.75    2.19   1
  13   3  -2    7.18    1.98   1
  13   3  -1    8.01    1.58   1
  13   3   0  119.90    8.54   1
  13   3   1   23.33    1.55   1
  13   3   2  276.56   10.64   1
  13   3   3   16.08    4.33   1
  13   3   4   92.93    8.29   1
  13   3   5   24.50    2.87   1
  13   3   6   -1.21    1.91   1
  13   3   7    0.59    1.99   1
  13   3   8    4.71    2.30   1
  13   3   9   33.06    1.96   1
  13   3  10   23.33    2.03   1
  13   3  11   -0.71    3.51   1
  13   4  -7    5.71    3.39   1
  13   4  -6    3.61    3.31   1
  13   4  -5   51.12    3.29   1
  13   4  -4    4.41    1.89   1
  13   4  -3   22.47    2.09   1
  13   4  -2   20.61    1.91   1
  13   4  -1   81.00    3.96   1
  13   4   0    9.18    1.09   1
  13   4   1    6.40    1.52   1
  13   4   2  188.79    9.62   1
  13   4   3   27.88    2.75   1
  13   4   4  186.32    8.19   1
  13   4   5   60.53    3.73   1
  13   4   6    5.90    2.19   1
  13   4   7   37.58    2.94   1
  13   4   8   79.03    4.27   1
  13   4   9   31.47    3.48   1
  13   4  10   62.88    5.87   1
  13   4  11   -0.20    2.62   1
  13   4  12   13.40    4.61   1
  13   5  -6    8.12    3.02   1
  13   5  -5    7.90    2.08   1
  13   5  -4    0.00    1.00   1
  13   5  -3  137.83    5.40   1
  13   5  -2    7.51    2.52   1
  13   5  -1   10.69    1.70   1
  13   5   0  129.28    6.59   1
  13   5   1   16.00    4.16   1
  13   5   2   67.40    3.94   1
  13   5   3   18.32    3.42   1
  13   5   4   85.75    5.37   1
  13   5   5  139.24    7.32   1
  13   5   6   72.08    4.58   1
  13   5   7   22.56    3.42   1
  13   5   8    2.79    3.11   1
  13   5   9    3.39    2.69   1
  13   5  10  142.32    8.83   1
  13   5  11   26.83    4.56   1
  13   5  12   19.10    3.58   1
  13   6  -5    8.88    3.10   1
  13   6  -4   16.32    2.42   1
  13   6  -3    0.79    1.50   1
  13   6  -2   26.73    1.96   1
  13   6  -1   33.18    2.88   1
  13   6   0    2.79    0.80   1
  13   6   1   31.14    3.57   1
  13   6   2   95.65    5.28   1
  13   6   3    3.20    2.29   1
  13   6   4  207.65    9.51   1
  13   6   5    2.59    3.19   1
  13   6   6    8.18    3.09   1
  13   6   7    2.79    2.81   1
  13   6   8   62.73    4.75   1
  13   6   9    2.50    3.10   1
  13   6  10   23.72    3.51   1
  13   7  -4    9.61    3.29   1
  13   7  -3   19.71    2.13   1
  13   7  -2    4.20    1.60   1
  13   7  -1   11.09    1.53   1
  13   7   0  136.89    5.62   1
  13   7   1   42.51    5.09   1
  13   7   2    7.67    5.10   1
  13   7   3  170.30   11.22   1
  13   7   4  270.93   16.79   1
  13   7   5   66.26    7.65   1
  13   7   6  115.35    8.16   1
  13   7   7   37.82    4.43   1
  13   7   8    4.00    3.72   1
  13   7   9    0.79    3.19   1
  13   7  10    9.92    3.53   1
  13   8  -4   -2.69    2.79   1
  13   8  -3    2.50    3.00   1
  13   8  -2    6.81    2.51   1
  13   8  -1   89.87    4.55   1
  13   8   0    1.30    1.30   1
  13   8   1   37.45    5.14   1
  13   8   2   33.29    5.54   1
  13   8   3   22.37    5.49   1
  13   8   4    3.39    3.50   1
  13   8   5   69.06    5.98   1
  13   8   6   -0.90    3.31   1
  13   8   7   -1.00    5.00   1
  13   8   8   27.25    5.12   1
  13   8   9   19.98    5.10   1
  13   8  10   10.30    5.20   1
  13   8  11    1.30    3.60   1
  13   9  -3    8.82    2.79   1
  13   9  -2    2.50    2.59   1
  13   9  -1    1.21    2.00   1
  13   9   0   12.53    1.63   1
  13   9   1    4.08    3.27   1
  13   9   2   24.21    5.51   1
  13   9   3   43.16    5.52   1
  13   9   4   41.34    4.24   1
  13   9   5   17.47    5.10   1
  13   9   6   69.06    6.65   1
  13   9   7  109.62    7.96   1
  13   9   8   17.22    3.73   1
  13   9   9   19.71    4.80   1
  13   9  10    4.88    3.80   1
  13   9  11    5.29    5.89   1
  13  10  -2    4.28    2.82   1
  13  10  -1   16.97    2.72   1
  13  10   0    0.90    1.50   1
  13  10   1   27.56    4.30   1
  13  10   2   33.41    5.90   1
  13  10   3    6.00    3.18   1
  13  10   4   10.18    3.38   1
  13  10   5  212.28   13.40   1
  13  10   6   34.46    6.10   1
  13  10   7   25.00    4.80   1
  13  10   8   29.92    5.03   1
  13  10   9   85.75    8.52   1
  13  10  10    6.40    5.41   1
  13  10  11    0.50    4.12   1
  13  11  -1   18.92    3.39   1
  13  11   0    3.61    2.01   1
  13  11   1   -0.30    4.11   1
  13  11   2    5.90    5.49   1
  13  11   3   42.25    5.85   1
  13  11   4    2.99    3.91   1
  13  11   5    1.99    5.19   1
  13  11   6   14.29    5.29   1
  13  11   7   14.59    3.97   1
  13  11   8   38.56    6.96   1
  13  11   9   61.15    7.66   1
  13  11  10   -0.50    3.51   1
  13  11  11    9.92    5.48   1
  13  12   1   13.69    5.70   1
  13  12   2   17.47    5.10   1
  13  12   3   19.71    5.33   1
  13  12   4   21.16    4.23   1
  13  12   5   39.82    6.56   1
  13  12   6    0.50    5.82   1
  13  12   7   12.89    4.81   1
  13  12   8   13.91    6.12   1
  13  12   9   34.34    6.45   1
  13  12  10    4.08    4.40   1
  13  12  11  110.88   10.95   1
  13  13   2   -0.71    3.51   1
  13  13   3    5.29    5.89   1
  13  13   4   43.96    5.44   1
  13  13   5    4.20    5.82   1
  13  13   6   35.88    6.47   1
  13  13   7   55.65    6.86   1
  13  13   8    7.62    6.13   1
  13  13   9   18.23    6.40   1
  13  13  10    4.20    3.89   1
  13  14   1   15.92    4.47   1
  13  14   2   21.07    6.61   1
  13  14   3    5.62    4.50   1
  13  14   4   14.29    6.20   1
  13  14   5   17.39    4.17   1
  13  14   6    6.20    5.68   1
  13  14   7    1.59    3.78   1
  13  14   8   31.25    6.15   1
  13  15   4   42.51    9.91   1
  13  15   5    1.49    4.49   1
  14  -5  -4    9.18    3.39   1
  14  -5  -3    1.99    3.10   1
  14  -5  -2   21.44    3.80   1
  14  -5  -1    4.20    3.20   1
  14  -5   0    5.71    3.01   1
  14  -5   1    7.62    2.82   1
  14  -5   2   30.58    4.09   1
  14  -4  -3   17.64    4.20   1
  14  -4  -2   47.06    4.66   1
  14  -4  -1    1.39    2.19   1
  14  -4   0   30.91    5.45   1
  14  -4   1    4.58    2.91   1
  14  -4   2   -0.50    2.91   1
  14  -4   3    1.30    2.90   1
  14  -3  -4   11.49    3.53   1
  14  -3  -2    6.71    2.28   1
  14  -3  -1    8.88    2.92   1
  14  -3   0   -6.92    2.68   1
  14  -3   1   10.69    3.20   1
  14  -3   2   41.86    5.05   1
  14  -3   3   11.22    3.28   1
  14  -3   4   10.82    3.29   1
  14  -2  -4   -5.38    3.90   1
  14  -2  -3    2.89    3.09   1
  14  -2  -2   31.14    2.90   1
  14  -2  -1    1.49    2.20   1
  14  -2   0    8.53    1.69   1
  14  -2   1    1.90    2.10   1
  14  -2   2    9.67    2.11   1
  14  -2   3   13.47    2.28   1
  14  -2   4   64.48    3.53   1
  14  -2   5   20.70    2.82   1
  14  -1  -4    2.59    2.29   1
  14  -1  -3   -1.59    2.90   1
  14  -1  -2    7.67    2.11   1
  14  -1  -1  110.46    3.99   1
  14  -1   0    3.61    1.71   1
  14  -1   1   11.29    1.68   1
  14  -1   2   43.56    2.64   1
  14  -1   3   22.66    2.57   1
  14  -1   4   41.86    2.98   1
  14  -1   5   20.16    2.33   1
  14  -1   6   18.66    2.51   1
  14  -1   7    5.71    2.72   1
  14   0  -4   -2.19    2.90   1
  14   0  -3   31.92    2.83   1
  14   0  -2   27.25    2.40   1
  14   0  -1   -1.80    2.09   1
  14   0   0   53.73    2.64   1
  14   0   1   26.42    1.85   1
  14   0   2    3.10    1.30   1
  14   0   3    5.62    1.61   1
  14   0   4    3.80    1.60   1
  14   0   5   -1.10    1.60   1
  14   0   6    0.79    1.58   1
  14   0   7   20.07    2.06   1
  14   0   8   12.53    2.34   1
  14   1  -3    5.38    1.90   1
  14   1  -2   -0.20    2.02   1
  14   1  -1   11.22    1.88   1
  14   1   0    6.00    1.52   1
  14   1   1   53.29    2.63   1
  14   1   2    4.41    1.22   1
  14   1   3   32.95    1.95   1
  14   1   4    2.69    1.41   1
  14   1   5   73.62    3.95   1
  14   1   6   59.44    4.01   1
  14   1   7   -2.50    1.49   1
  14   1   8    4.20    1.80   1
  14   2  -4    2.19    2.99   1
  14   2  -3   66.26    5.21   1
  14   2  -2    6.20    1.59   1
  14   2  -1   29.92    2.19   1
  14   2   0    6.00    1.91   1
  14   2   1   84.82    3.87   1
  14   2   2   15.13    1.79   1
  14   2   3  108.16    5.20   1
  14   2   4   38.19    5.31   1
  14   2   5   -1.39    3.00   1
  14   2   6   19.27    3.60   1
  14   2   7   45.83    5.96   1
  14   3  -4   71.06    5.40   1
  14   3  -3   -4.00    2.40   1
  14   3  -2   34.11    2.34   1
  14   3  -1  114.92    6.22   1
  14   3   0    3.20    1.22   1
  14   3   1    4.49    0.89   1
  14   3   2   23.52    1.16   1
  14   3   3  108.99   11.90   1
  14   3   4   -0.79    2.79   1
  14   3   5    5.38    4.08   1
  14   3   6    9.42    4.42   1
  14   3   7   12.39    3.03   1
  14   3   8   24.40    3.06   1
  14   3   9   99.80    5.39   1
  14   3  10    0.59    4.47   1
  14   4  -4   -1.49    2.59   1
  14   4  -3    8.41    3.07   1
  14   4  -2   73.44    5.66   1
  14   4   0   76.74    3.85   1
  14   4   1  147.38    5.58   1
  14   4   2   27.77    5.16   1
  14   4   3    7.08    4.47   1
  14   4   4    5.81    3.90   1
  14   4   5    6.71    3.11   1
  14   4   6   11.42    3.58   1
  14   4   7   22.94    3.16   1
  14   4   8    1.39    2.50   1
  14   4   9   11.42    2.70   1
  14   4  10   -2.10    4.29   1
  14   5  -4    8.12    3.02   1
  14   5  -1   25.91    2.75   1
  14   5   0    4.80    1.31   1
  14   5   1    9.30    3.60   1
  14   5   2  100.00    6.80   1
  14   5   3   83.54   10.05   1
  14   5   4   29.05    5.39   1
  14   5   5   16.00    4.88   1
  14   5   6   26.52    5.46   1
  14   5   7   17.39    5.00   1
  14   5   8   11.02    4.18   1
  14   5   9  148.11   10.95   1
  14   5  10    5.62    3.70   1
  14   6  -4    5.02    3.72   1
  14   6  -3   40.07    4.18   1
  14   6  -2   73.27    5.48   1
  14   6  -1    9.92    1.89   1
  14   6   0   91.97    3.26   1
  14   6   1   12.67    3.99   1
  14   6   2    6.81    4.23   1
  14   6   3   19.10    4.98   1
  14   6   4   67.08    9.01   1
  14   6   5    5.71    3.39   1
  14   6   6    2.79    3.21   1
  14   6   7    7.08    3.40   1
  14   6   8   67.90    6.92   1
  14   6   9   30.36    5.29   1
  14   6  10   11.49    5.70   1
  14   7  -3    4.88    2.70   1
  14   7  -2    1.49    2.49   1
  14   7  -1   -0.90    1.31   1
  14   7   1    3.88    4.37   1
  14   7   2   91.20    8.21   1
  14   7   3   20.43    4.16   1
  14   7   4   -6.20    2.99   1
  14   7   5   -4.88    4.29   1
  14   7   6   55.95    5.83   1
  14   7   7    4.80    4.99   1
  14   7   8    0.30    3.31   1
  14   7   9   36.97    4.74   1
  14   7  10    2.79    4.88   1
  14   8  -3   13.40    2.71   1
  14   8  -2   17.39    2.67   1
  14   8  -1    2.31    1.70   1
  14   8   1   13.18    6.68   1
  14   8   2   11.22    3.48   1
  14   8   3   -1.30    3.60   1
  14   8   4   16.81    6.40   1
  14   8   5    0.40    4.38   1
  14   8   6   10.18    3.32   1
  14   8   7   16.48    3.98   1
  14   8   8   57.15    7.26   1
  14   8   9   13.03    5.49   1
  14   8  10   20.79    4.74   1
  14   8  11    7.90    3.71   1
  14   9  -2    5.38    2.27   1
  14   9   1    0.20    4.93   1
  14   9   2   90.06    7.59   1
  14   9   3    0.59    4.67   1
  14   9   4   40.20    6.34   1
  14   9   5    3.69    3.69   1
  14   9   6   24.11    4.71   1
  14   9   7   -9.42    4.73   1
  14   9   8   76.04    7.85   1
  14   9   9   28.84    5.16   1
  14   9  10   10.89    5.28   1
  14   9  11   -2.69    5.48   1
  14  10   1   72.93    7.52   1
  14  10   2    5.71    4.40   1
  14  10   3   19.01    5.41   1
  14  10   4   81.36    8.84   1
  14  10   5    5.71    4.11   1
  14  10   6    9.99    6.00   1
  14  10   7   18.49    6.36   1
  14  10   8    9.30    4.39   1
  14  10   9    3.50    5.68   1
  14  10  10  101.20   10.06   1
  14  10  11   -2.79    4.28   1
  14  11   2   18.40    4.80   1
  14  11   3    3.10    5.39   1
  14  11   4    1.30    5.70   1
  14  11   5   -2.99    3.60   1
  14  11   6   19.18    5.96   1
  14  11   7   -1.00    3.90   1
  14  11   8   78.32    9.03   1
  14  11   9   48.30    7.23   1
  14  11  10    4.20    3.81   1
  14  12   1   51.27    6.44   1
  14  12   3   16.97    4.86   1
  14  12   4   26.63    7.33   1
  14  12   5   16.81    5.17   1
  14  12   6    6.71    5.91   1
  14  12   7   31.02    5.24   1
  14  12   8   48.44    7.38   1
  14  12   9    4.28    5.38   1
  14  13   3   65.61    7.61   1
  14  13   4   -1.59    5.77   1
  14  13   5    9.67    4.60   1
  14  13   6   27.88    6.44   1
  14  13   7    6.30    5.22   1
  15  -4  -4    5.71    4.40   1
  15  -4  -3    0.71    4.12   1
  15  -4  -2   -4.28    3.89   1
  15  -4  -1   19.01    4.62   1
  15  -4   0   26.52    4.12   1
  15  -4   1    0.00    1.00   1
  15  -4   2    2.89    3.50   1
  15  -4   3   22.75    4.10   1
  15  -3  -3   12.82    3.29   1
  15  -3  -2    9.30    3.72   1
  15  -3  -1   18.66    4.06   1
  15  -3   0   23.62    4.47   1
  15  -3   1    5.52    3.38   1
  15  -3   2   -0.59    3.28   1
  15  -3   3    1.10    3.30   1
  15  -3   4   39.56    5.54   1
  15  -2  -2    2.50    3.79   1
  15  -2  -1   -3.10    3.59   1
  15  -2   0   47.75    8.84   1
  15  -2   1    4.28    3.39   1
  15  -2   2   52.27    7.52   1
  15  -2   3   23.04    4.51   1
  15  -2   4    9.00    2.82   1
  15  -2   5   11.29    4.17   1
  15  -1  -2   74.65    7.26   1
  15  -1  -1    3.50    4.30   1
  15  -1   0   -4.41    3.49   1
  15  -1   1   -2.40    3.01   1
  15  -1   2    9.99    2.09   1
  15  -1   3   -2.31    3.50   1
  15  -1   4   25.81    4.37   1
  15  -1   5   14.59    4.28   1
  15  -1   6    4.28    4.10   1
  15   0  -1   37.21    3.42   1
  15   0   0   64.48    3.85   1
  15   0   1    6.00    2.20   1
  15   0   2   63.36    4.78   1
  15   0   3   -0.10    1.82   1
  15   0   4    1.30    1.60   1
  15   0   5    5.38    1.81   1
  15   0   6    4.80    3.20   1
  15   0   7    1.80    4.21   1
  15   1  -2   53.44    4.68   1
  15   1  -1   14.36    2.43   1
  15   1   0    0.71    2.02   1
  15   1   1   21.90    2.34   1
  15   1   2   35.88    3.23   1
  15   1   3    0.20    1.51   1
  15   1   4   17.31    4.66   1
  15   1   5   -1.21    3.72   1
  15   1   6    4.00    4.68   1
  15   1   7   -3.39    4.20   1
  15   2  -2    9.80    2.82   1
  15   2  -1   18.66    3.97   1
  15   2   0   39.69    5.42   1
  15   2   1    2.79    1.60   1
  15   2   2   39.94    3.16   1
  15   2   3   26.21    5.84   1
  15   2   4   -3.10    3.80   1
  15   2   5   -2.19    4.00   1
  15   2   6   -2.40    4.09   1
  15   2   7    4.58    4.71   1
  15   2   8   13.10    5.07   1
  15   3  -2   40.45    4.20   1
  15   3  -1   75.86    6.27   1
  15   3   0   12.67    2.06   1
  15   3   1   54.76    5.62   1
  15   3   2   60.37    8.86   1
  15   3   3    1.99    3.50   1
  15   3   4    8.12    3.82   1
  15   3   5    1.39    4.08   1
  15   3   6   -0.90    4.31   1
  15   3   7   -2.99    4.60   1
  15   3   8   49.14    7.71   1
  15   3   9   -2.50    3.10   1
  15   4  -2   -1.49    1.90   1
  15   4   0   21.16    5.15   1
  15   4   1   11.70    4.99   1
  15   4   2    1.10    4.20   1
  15   4   3  133.40   12.94   1
  15   4   4   40.20    7.61   1
  15   4   5   36.00    6.36   1
  15   4   6    0.40    4.49   1
  15   4   7   74.48    7.42   1
  15   4   8   -6.00    4.61   1
  15   4   9    2.99    3.81   1
  15   5   0    1.21    4.93   1
  15   5   1  111.51    8.03   1
  15   5   2   14.36    4.93   1
  15   5   3   14.36    5.08   1
  15   5   4   -3.10    4.40   1
  15   5   5   23.23    4.92   1
  15   5   6    6.40    3.90   1
  15   5   7    2.31    4.32   1
  15   5   8   14.36    5.68   1
  15   5   9   10.11    5.60   1
  15   5  10    2.50    3.19   1
  15   6   0    9.49    3.88   1
  15   6   1   25.00    5.20   1
  15   6   2   -3.31    4.40   1
  15   6   3    1.10    3.21   1
  15   6   4   14.36    4.78   1
  15   6   5   -1.21    5.32   1
  15   6   6   -1.30    5.11   1
  15   6   7   21.72    4.57   1
  15   6   8    4.49    3.39   1
  15   6   9   10.11    4.90   1
  15   6  10   35.40    6.55   1
  15   7   0   -4.49    4.20   1
  15   7   1   25.30    5.73   1
  15   7   2   12.32    3.51   1
  15   7   3   15.92    5.27   1
  15   7   4   38.32    6.19   1
  15   7   5   34.22    5.15   1
  15   7   6    3.31    3.42   1
  15   7   7   47.75    6.63   1
  15   7   8   -4.58    5.31   1
  15   7   9    3.39    3.90   1
  15   7  10   20.61    6.54   1
  15   8   0   22.94    5.27   1
  15   8   1   13.76    5.57   1
  15   8   2   -2.69    3.71   1
  15   8   3    5.81    5.78   1
  15   8   4    3.50    3.70   1
  15   8   5   11.29    5.31   1
  15   8   6   17.98    5.51   1
  15   8   7   35.28    4.99   1
  15   8   8   -1.30    3.99   1
  15   8   9   45.16    7.26   1
  15   8  10    4.58    4.19   1
  15   9   0    4.28    4.18   1
  15   9   1    0.20    3.73   1
  15   9   3   11.42    6.42   1
  15   9   4   24.70    5.47   1
  15   9   5   39.31    7.15   1
  15   9   6   -5.62    3.79   1
  15   9   7   37.82    6.03   1
  15   9   8   16.08    6.58   1
  15   9   9    3.69    4.49   1
  15  10   0   66.26    7.98   1
  15  10   1    4.00    4.20   1
  15  10   3    8.41    4.70   1
  15  10   4   76.74    9.64   1
  15  10   5   11.22    6.70   1
  15  10   6   41.34    5.40   1
  15  10   7   38.32    7.55   1
  15  11   3   -1.21    4.03   1
  15  11   4    0.71    6.42   1
  15  11   5    2.79    3.71   1
  15  11   6    5.11    6.51   1
  16  -2  -2    6.30    3.51   1
  16  -2  -1   25.60    4.05   1
  16  -2   0    5.02    3.00   1
  16  -2   1    6.40    4.60   1
  16  -2   2    1.99    4.17   1
  16  -2   3    5.38    4.50   1
  16  -1  -3   14.67    5.52   1
  16  -1  -2   15.21    5.23   1
  16  -1  -1    8.58    4.57   1
  16  -1   0   10.11    4.90   1
  16  -1   1   26.32    5.44   1
  16  -1   2    7.78    4.07   1
  16  -1   3   23.91    5.28   1
  16  -1   4    1.69    4.29   1
  16  -1   5   -3.88    4.69   1
  16   0  -2   12.82    3.94   1
  16   0  -1   38.69    6.47   1
  16   0   0   13.03    4.19   1
  16   0   1   -0.59    4.28   1
  16   0   2    9.67    5.16   1
  16   0   3    9.00    4.68   1
  16   0   4    8.82    4.69   1
  16   0   5   18.23    5.29   1
  16   0   6   19.18    5.17   1
  16   1  -2   40.83    6.26   1
  16   1  -1    5.52    5.40   1
  16   1   0   51.27    6.30   1
  16   1   1    0.40    4.08   1
  16   1   2   -0.79    4.57   1
  16   1   3   27.56    5.36   1
  16   1   4   23.52    5.14   1
  16   1   5    0.00    1.00   1
  16   1   6   -1.39    3.40   1
  16   1   7   25.50    4.65   1
  16   2  -1    2.31    3.22   1
  16   2   0    5.29    4.09   1
  16   2   1   25.00    5.20   1
  16   2   2    5.90    4.81   1
  16   2   3    5.52    4.70   1
  16   2   4    0.50    3.62   1
  16   2   5   24.30    4.93   1
  16   2   6   -4.08    3.39   1
  16   2   7   -5.52    4.89   1
  16   3  -1    4.28    5.17   1
  16   3   0   91.39    9.75   1
  16   3   1   13.40    4.10   1
  16   3   2   10.30    5.39   1
  16   3   3    9.80    4.57   1
  16   3   4   17.89    5.08   1
  16   3   5   10.50    4.02   1
  16   3   6   23.23    4.34   1
  16   3   7   17.98    5.94   1
  16   3   8    8.82    5.41   1
  16   4  -1   35.52    5.24   1
  16   4   0    2.10    5.92   1
  16   4   1    3.69    4.68   1
  16   4   2   76.91    7.37   1
  16   4   3   -0.71    4.92   1
  16   4   4   -1.90    4.80   1
  16   4   5    0.90    5.21   1
  16   4   6   18.32    5.14   1
  16   4   7    4.58    3.60   1
  16   4   8   19.89    5.89   1
  16   5  -1    2.79    4.58   1
  16   5   0   92.54    9.43   1
  16   5   1   -3.69    3.69   1
  16   5   2   19.89    6.51   1
  16   5   3   29.70    4.69   1
  16   5   4   16.32    4.77   1
  16   5   5    8.53    5.43   1
  16   5   6   36.12    6.49   1
  16   5   7    2.79    3.61   1
  16   5   8    1.80    5.39   1
  16   6   0    2.50    3.41   1
  16   6   1   -0.50    5.52   1
  16   6   2   14.36    4.47   1
  16   6   3    1.21    4.93   1
  16   6   4   -2.50    5.59   1
  16   6   5    9.00    4.08   1
  16   6   6   29.05    6.36   1
  16   6   7    8.41    6.32   1
  16   6   8   27.67    5.58   1
  16   7   0   10.69    4.38   1
  16   7   1   30.03    5.37   1
  16   7   3   31.14    5.47   1
  16   7   4   -3.10    4.08   1
  16   7   5   -5.20    6.02   1
  16   7   6    3.39    3.79   1
  16   7   7    5.81    4.00   1
  16   7   8    5.52    6.30   1
  16   8   1    5.52    4.23   1
  16   8   2    6.40    6.38   1
  16   8   3   30.58    5.86   1
  16   8   4   21.81    6.63   1
  16   8   5   32.49    5.93   1
  16   8   6   32.49    7.64   1
  16   8   7    1.00    5.90   1
  16   9   3    8.58    4.22   1
  16   9   4    2.99    5.71   1
  16   9   5   -2.40    3.60   1
   0   0   0    0.00    0.00   0
;
_shelx_hkl_checksum              15340
_olex2_submission_special_instructions 'No special instructions were received'
loop_
_space_group_symop_operation_xyz
'x, y, z'
'-x, -y, -z'
loop_
_atom_site_label
_atom_site_type_symbol
_atom_site_fract_x
_atom_site_fract_y
_atom_site_fract_z
_atom_site_U_iso_or_equiv
_atom_site_adp_type
_atom_site_occupancy
_atom_site_site_symmetry_order
_atom_site_calc_flag
_atom_site_refinement_flags_posn
_atom_site_refinement_flags_adp
_atom_site_refinement_flags_occupancy
_atom_site_disorder_assembly
_atom_site_disorder_group
Cu1 Cu 0.47226(4) -0.21219(3) 0.89330(3) 0.03374(15) Uani 1 1 d . U . . .
Cu2 Cu 1.20031(3) 0.29870(3) 0.57471(3) 0.02833(14) Uani 1 1 d . U . . .
O1 O 0.5380(2) -0.1940(2) 0.98196(19) 0.0422(8) Uani 1 1 d . U . . .
O2 O 0.6164(2) -0.2932(2) 0.8623(2) 0.0447(8) Uani 1 1 d . U . . .
O3 O 0.4373(2) -0.3162(2) 0.9731(2) 0.0469(8) Uani 1 1 d . U . . .
O4 O 0.3360(2) -0.1390(2) 0.94009(19) 0.0455(8) Uani 1 1 d . U . . .
O5 O 1.2551(2) 0.38047(19) 0.48132(18) 0.0359(7) Uani 1 1 d . U . . .
O6 O 1.1425(2) 0.25342(19) 0.47205(19) 0.0365(7) Uani 1 1 d . U . . .
O7 O 1.3083(2) 0.2042(2) 0.55822(19) 0.0404(7) Uani 1 1 d . U . . .
O8 O 1.3155(2) 0.3259(2) 0.64800(19) 0.0396(7) Uani 1 1 d . U . . .
N1 N 0.5119(2) -0.1034(2) 0.8209(2) 0.0343(8) Uani 1 1 d . U . . .
N2 N 0.5932(3) 0.2371(2) 0.1928(2) 0.0345(8) Uani 1 1 d . U . . .
N3 N 1.1078(2) 0.3999(2) 0.5980(2) 0.0269(7) Uani 1 1 d . U . . .
N4 N 1.1466(2) 0.2190(2) 0.6737(2) 0.0302(8) Uani 1 1 d . U . . .
C1 C 0.5626(3) -0.1022(3) 0.7506(3) 0.0396(11) Uani 1 1 d . U . . .
H1 H 0.5639 -0.1478 0.7255 0.048 Uiso 1 1 calc R . . . .
C2 C 0.6137(3) -0.0370(3) 0.7126(3) 0.0406(11) Uani 1 1 d . U . . .
H2 H 0.6483 -0.0380 0.6620 0.049 Uiso 1 1 calc R . . . .
C3 C 0.6140(3) 0.0293(3) 0.7487(3) 0.0349(10) Uani 1 1 d . U . . .
C4 C 0.5564(3) 0.0300(3) 0.8188(3) 0.0425(11) Uani 1 1 d . U . . .
H4 H 0.5506 0.0765 0.8434 0.051 Uiso 1 1 calc R . . . .
C5 C 0.5075(3) -0.0363(3) 0.8528(3) 0.0450(12) Uani 1 1 d . U . . .
H5 H 0.4687 -0.0346 0.9013 0.054 Uiso 1 1 calc R . . . .
C6 C 0.6781(3) 0.0945(3) 0.7166(3) 0.0343(10) Uani 1 1 d . U . . .
C7 C 0.7678(3) 0.0715(3) 0.6804(3) 0.0415(11) Uani 1 1 d . U . . .
H7 H 0.7856 0.0160 0.6706 0.050 Uiso 1 1 calc R . . . .
C8 C 0.8318(3) 0.1290(3) 0.6582(3) 0.0392(11) Uani 1 1 d . U . . .
H8 H 0.8925 0.1123 0.6328 0.047 Uiso 1 1 calc R . . . .
C9 C 0.8091(3) 0.2097(3) 0.6722(2) 0.0295(9) Uani 1 1 d . U . . .
C10 C 0.7179(3) 0.2329(3) 0.7064(3) 0.0368(10) Uani 1 1 d . U . . .
H10 H 0.6995 0.2887 0.7153 0.044 Uiso 1 1 calc R . . . .
C11 C 0.6536(3) 0.1761(3) 0.7278(3) 0.0395(11) Uani 1 1 d . U . . .
H11 H 0.5916 0.1938 0.7505 0.047 Uiso 1 1 calc R . . . .
C12 C 0.8755(3) 0.2734(3) 0.6519(2) 0.0269(9) Uani 1 1 d . U . . .
H12 H 0.8715 0.3005 0.6985 0.032 Uiso 1 1 calc R . . . .
C13 C 0.8657(3) 0.3472(3) 0.5713(2) 0.0266(8) Uani 1 1 d . U . . .
H13 H 0.8308 0.4026 0.5819 0.032 Uiso 1 1 calc R . . . .
C14 C 0.9765(3) 0.3421(2) 0.5679(2) 0.0249(8) Uani 1 1 d . U . . .
H14 H 1.0063 0.3404 0.5125 0.030 Uiso 1 1 calc R . . . .
C15 C 0.9829(3) 0.2493(3) 0.6263(2) 0.0263(8) Uani 1 1 d . U . . .
H15 H 0.9878 0.2077 0.5918 0.032 Uiso 1 1 calc R . . . .
C16 C 0.8250(3) 0.3257(3) 0.5033(2) 0.0268(8) Uani 1 1 d . U . . .
C17 C 0.8745(3) 0.2723(3) 0.4557(2) 0.0288(9) Uani 1 1 d . U . . .
H17 H 0.9395 0.2473 0.4653 0.035 Uiso 1 1 calc R . . . .
C18 C 0.8307(3) 0.2548(3) 0.3947(3) 0.0307(9) Uani 1 1 d . U . . .
H18 H 0.8661 0.2181 0.3632 0.037 Uiso 1 1 calc R . . . .
C19 C 0.7358(3) 0.2902(3) 0.3787(3) 0.0302(9) Uani 1 1 d . U . . .
C20 C 0.6857(3) 0.3434(3) 0.4266(3) 0.0366(10) Uani 1 1 d . U . . .
H20 H 0.6206 0.3680 0.4174 0.044 Uiso 1 1 calc R . . . .
C21 C 0.7299(3) 0.3606(3) 0.4870(3) 0.0335(10) Uani 1 1 d . U . . .
H21 H 0.6945 0.3973 0.5185 0.040 Uiso 1 1 calc R . . . .
C22 C 0.6879(3) 0.2726(3) 0.3130(3) 0.0315(9) Uani 1 1 d . U . . .
C23 C 0.7167(4) 0.1991(3) 0.2861(3) 0.0491(13) Uani 1 1 d . U . . .
H23 H 0.7703 0.1587 0.3084 0.059 Uiso 1 1 calc R . . . .
C24 C 0.6685(4) 0.1837(3) 0.2272(3) 0.0503(13) Uani 1 1 d . U . . .
H24 H 0.6901 0.1322 0.2102 0.060 Uiso 1 1 calc R . . . .
C25 C 0.6101(3) 0.3304(3) 0.2752(3) 0.0390(11) Uani 1 1 d . U . . .
H25 H 0.5881 0.3831 0.2901 0.047 Uiso 1 1 calc R . . . .
C26 C 0.5659(3) 0.3106(3) 0.2165(3) 0.0376(10) Uani 1 1 d . U . . .
H26 H 0.5135 0.3507 0.1915 0.045 Uiso 1 1 calc R . . . .
C27 C 1.0107(3) 0.4073(2) 0.6004(2) 0.0250(8) Uani 1 1 d . U . . .
C28 C 0.9525(3) 0.4723(3) 0.6276(3) 0.0342(10) Uani 1 1 d . U . . .
H28 H 0.8849 0.4767 0.6292 0.041 Uiso 1 1 calc R . . . .
C29 C 0.9920(3) 0.5318(3) 0.6529(3) 0.0382(10) Uani 1 1 d . U . . .
H29 H 0.9519 0.5758 0.6735 0.046 Uiso 1 1 calc R . . . .
C30 C 1.0896(3) 0.5260(3) 0.6476(3) 0.0345(10) Uani 1 1 d . U . . .
H30 H 1.1184 0.5669 0.6628 0.041 Uiso 1 1 calc R . . . .
C31 C 1.1451(3) 0.4596(3) 0.6198(3) 0.0341(10) Uani 1 1 d . U . . .
H31 H 1.2127 0.4558 0.6158 0.041 Uiso 1 1 calc R . . . .
C32 C 1.0535(3) 0.2117(2) 0.6911(2) 0.0259(8) Uani 1 1 d . U . . .
C33 C 1.0236(3) 0.1623(3) 0.7652(3) 0.0355(10) Uani 1 1 d . U . . .
H33 H 0.9576 0.1592 0.7770 0.043 Uiso 1 1 calc R . . . .
C34 C 1.0891(4) 0.1179(3) 0.8218(3) 0.0462(12) Uani 1 1 d . U . . .
H34 H 1.0691 0.0836 0.8724 0.055 Uiso 1 1 calc R . . . .
C35 C 1.1843(4) 0.1243(3) 0.8033(3) 0.0456(12) Uani 1 1 d . U . . .
H35 H 1.2314 0.0935 0.8406 0.055 Uiso 1 1 calc R . . . .
C36 C 1.2098(3) 0.1756(3) 0.7304(3) 0.0384(10) Uani 1 1 d . U . . .
H36 H 1.2754 0.1811 0.7188 0.046 Uiso 1 1 calc R . . . .
C37 C 0.6785(3) -0.3196(3) 0.9123(3) 0.0411(11) Uani 1 1 d . U . . .
C38 C 0.6814(4) -0.2967(4) 0.9862(3) 0.0549(14) Uani 1 1 d . U . . .
H38 H 0.7336 -0.3243 1.0192 0.066 Uiso 1 1 calc R . . . .
C39 C 0.6136(3) -0.2374(3) 1.0129(3) 0.0446(11) Uani 1 1 d D U . . .
C40 C 0.7644(4) -0.3835(4) 0.8907(3) 0.0538(13) Uani 1 1 d . U . A 1
F1 F 0.7525(3) -0.4117(2) 0.8283(2) 0.0825(11) Uani 1 1 d D U . A 1
F2 F 0.8433(3) -0.3489(3) 0.8746(3) 0.1077(15) Uani 1 1 d D U . A 1
F3 F 0.7846(3) -0.4519(3) 0.9512(2) 0.0981(14) Uani 1 1 d D U . A 1
C41 C 0.6254(7) -0.2185(8) 1.0953(6) 0.059(2) Uani 0.59(3) 1 d D U P B 1
F4 F 0.5482(10) -0.2331(11) 1.1453(7) 0.068(3) Uani 0.59(3) 1 d D U P B 1
F5 F 0.7030(10) -0.2635(12) 1.1327(8) 0.074(4) Uani 0.59(3) 1 d D U P B 1
F6 F 0.6303(13) -0.1354(8) 1.0863(9) 0.069(3) Uani 0.59(3) 1 d D U P B 1
C41' C 0.6252(15) -0.2200(14) 1.0954(10) 0.059(2) Uani 0.130(19) 1 d D U P B 2
F4' F 0.674(3) -0.155(2) 1.079(2) 0.066(7) Uani 0.130(19) 1 d D U P B 2
F5' F 0.673(3) -0.2906(18) 1.143(2) 0.061(7) Uani 0.130(19) 1 d D U P B 2
F6' F 0.547(2) -0.199(3) 1.141(3) 0.067(8) Uani 0.130(19) 1 d D U P B 2
C41" C 0.6405(19) -0.2024(18) 1.0811(15) 0.068(5) Uani 0.28(2) 1 d D U P B 3
F4" F 0.7289(17) -0.233(2) 1.106(2) 0.087(7) Uani 0.28(2) 1 d D U P B 3
F5" F 0.631(3) -0.1171(17) 1.0579(18) 0.076(6) Uani 0.28(2) 1 d D U P B 3
F6" F 0.582(2) -0.220(2) 1.1466(16) 0.088(7) Uani 0.28(2) 1 d D U P B 3
C42 C 0.3876(4) -0.3162(3) 1.0381(3) 0.0467(11) Uani 1 1 d D U . . .
C43 C 0.3226(4) -0.2502(4) 1.0598(3) 0.0541(13) Uani 1 1 d . U . . .
H43 H 0.2903 -0.2619 1.1120 0.065 Uiso 1 1 calc R . . . .
C44 C 0.3017(3) -0.1677(4) 1.0097(3) 0.0474(11) Uani 1 1 d D U . . .
C45 C 0.4058(5) -0.4021(5) 1.1007(4) 0.0697(15) Uani 0.888(13) 1 d D U P C 1
F7 F 0.4014(7) -0.4665(3) 1.0698(4) 0.107(2) Uani 0.888(13) 1 d D U P C 1
F8 F 0.4931(4) -0.4164(5) 1.1268(4) 0.108(2) Uani 0.888(13) 1 d D U P C 1
F9 F 0.3455(6) -0.4086(4) 1.1654(4) 0.111(2) Uani 0.888(13) 1 d D U P C 1
C45' C 0.409(2) -0.4025(15) 1.1005(18) 0.0697(15) Uani 0.112(13) 1 d D U P C 2
F7' F 0.494(2) -0.451(3) 1.097(3) 0.078(8) Uani 0.112(13) 1 d D U P C 2
F8' F 0.398(4) -0.392(2) 1.175(2) 0.085(8) Uani 0.112(13) 1 d D U P C 2
F9' F 0.345(3) -0.450(3) 1.096(3) 0.078(8) Uani 0.112(13) 1 d D U P C 2
C46 C 0.2302(6) -0.1020(5) 1.0441(5) 0.070(2) Uani 0.79(2) 1 d D U P D 1
F10 F 0.1831(6) -0.0407(6) 0.9878(4) 0.092(3) Uani 0.79(2) 1 d D U P D 1
F11 F 0.1647(7) -0.1371(6) 1.0956(7) 0.122(4) Uani 0.79(2) 1 d D U P D 1
F12 F 0.2766(6) -0.0612(7) 1.0812(7) 0.118(4) Uani 0.79(2) 1 d D U P D 1
C46' C 0.2356(17) -0.0947(14) 1.0385(15) 0.077(6) Uani 0.21(2) 1 d D U P D 2
F10' F 0.159(2) -0.076(3) 0.9948(19) 0.101(9) Uani 0.21(2) 1 d D U P D 2
F11' F 0.204(2) -0.114(2) 1.1156(12) 0.086(7) Uani 0.21(2) 1 d D U P D 2
F12' F 0.265(2) -0.021(2) 1.031(2) 0.108(9) Uani 0.21(2) 1 d D U P D 2
C47 C 1.2805(3) 0.3705(3) 0.4113(3) 0.0325(9) Uani 1 1 d . U . . .
C48 C 1.2538(3) 0.3166(3) 0.3711(3) 0.0357(10) Uani 1 1 d . U . . .
H48 H 1.2833 0.3147 0.3189 0.043 Uiso 1 1 calc R . . . .
C49 C 1.1848(3) 0.2644(3) 0.4041(3) 0.0333(9) Uani 1 1 d D U . . .
C50 C 1.3483(3) 0.4320(3) 0.3650(3) 0.0402(11) Uani 1 1 d . U . . .
F13 F 1.4211(2) 0.4276(3) 0.4083(2) 0.0829(11) Uani 1 1 d . U . . .
F14 F 1.3849(2) 0.4173(2) 0.29503(19) 0.0617(8) Uani 1 1 d . U . . .
F15 F 1.3028(2) 0.51264(19) 0.3490(2) 0.0761(11) Uani 1 1 d . U . . .
C51 C 1.1570(8) 0.2170(7) 0.3454(7) 0.0449(13) Uani 0.60(4) 1 d D U P E 1
F16 F 1.2153(8) 0.2163(12) 0.2790(8) 0.071(3) Uani 0.60(4) 1 d D U P E 1
F17 F 1.0696(8) 0.2517(13) 0.3204(11) 0.068(4) Uani 0.60(4) 1 d D U P E 1
F18 F 1.1543(18) 0.1359(6) 0.3817(8) 0.081(4) Uani 0.60(4) 1 d D U P E 1
C51' C 1.1482(12) 0.2154(10) 0.3515(10) 0.0449(13) Uani 0.40(4) 1 d D U P E 2
F16' F 1.0860(16) 0.2688(14) 0.3009(16) 0.065(4) Uani 0.40(4) 1 d D U P E 2
F17' F 1.1068(18) 0.1503(11) 0.3929(9) 0.068(4) Uani 0.40(4) 1 d D U P E 2
F18' F 1.2185(11) 0.1826(17) 0.3059(17) 0.071(5) Uani 0.40(4) 1 d D U P E 2
C52 C 1.3970(3) 0.2085(3) 0.5494(3) 0.0462(12) Uani 1 1 d D U . . .
C53 C 1.4460(3) 0.2599(3) 0.5758(3) 0.0509(12) Uani 1 1 d . U . . .
H53 H 1.5132 0.2556 0.5638 0.061 Uiso 1 1 calc R . . . .
C54 C 1.3992(3) 0.3184(3) 0.6201(3) 0.0415(10) Uani 1 1 d D U . . .
C55 C 1.4584(6) 0.1558(6) 0.4925(6) 0.059(3) Uani 0.599(9) 1 d D U P F 1
F19 F 1.5226(7) 0.0958(6) 0.5370(6) 0.099(4) Uani 0.599(9) 1 d D U P F 1
F20 F 1.4049(9) 0.1146(8) 0.4623(6) 0.069(3) Uani 0.599(9) 1 d D U P F 1
F21 F 1.5049(6) 0.2007(5) 0.4309(5) 0.102(3) Uani 0.599(9) 1 d D U P F 1
C55' C 1.4500(10) 0.1296(9) 0.5171(9) 0.073(4) Uani 0.401(9) 1 d D U P F 2
F19' F 1.4421(8) 0.0530(6) 0.5620(7) 0.096(4) Uani 0.401(9) 1 d D U P F 2
F20' F 1.4195(16) 0.1366(15) 0.4450(10) 0.094(6) Uani 0.401(9) 1 d D U P F 2
F21' F 1.5431(8) 0.1351(11) 0.5052(12) 0.105(5) Uani 0.401(9) 1 d D U P F 2
C56 C 1.4588(7) 0.3800(6) 0.6354(7) 0.0506(12) Uani 0.544(15) 1 d D U P G 1
F22 F 1.5400(7) 0.3817(9) 0.5906(8) 0.078(3) Uani 0.544(15) 1 d D U P G 1
F23 F 1.4073(6) 0.4582(5) 0.6191(11) 0.072(3) Uani 0.544(15) 1 d D U P G 1
F24 F 1.4778(10) 0.3590(7) 0.7127(5) 0.070(3) Uani 0.544(15) 1 d D U P G 1
C56' C 1.4539(12) 0.3846(11) 0.6357(11) 0.0506(12) Uani 0.239(13) 1 d D U P G 2
F22' F 1.435(2) 0.4574(11) 0.5779(13) 0.060(5) Uani 0.239(13) 1 d D U P G 2
F23' F 1.4267(19) 0.408(2) 0.7051(12) 0.070(5) Uani 0.239(13) 1 d D U P G 2
F24' F 1.5489(11) 0.3633(14) 0.634(2) 0.059(5) Uani 0.239(13) 1 d D U P G 2
C56" C 1.4514(13) 0.3878(11) 0.6342(11) 0.0506(12) Uani 0.217(11) 1 d D U P G 3
F22" F 1.491(2) 0.4304(18) 0.5644(10) 0.071(6) Uani 0.217(11) 1 d D U P G 3
F23" F 1.3998(13) 0.4477(14) 0.6697(18) 0.054(5) Uani 0.217(11) 1 d D U P G 3
F24" F 1.5240(17) 0.3534(12) 0.6829(19) 0.057(5) Uani 0.217(11) 1 d D U P G 3
C57 C -0.0082(7) 0.4028(9) 0.8646(7) 0.073(4) Uani 0.581(17) 1 d D U P H 1
H57 H -0.0211 0.4622 0.8289 0.088 Uiso 0.581(17) 1 calc R . P H 1
Cl1 Cl 0.0864(6) 0.3437(7) 0.8231(6) 0.116(3) Uani 0.581(17) 1 d D U P H 1
Cl2 Cl 0.0158(6) 0.4068(8) 0.9611(6) 0.0827(19) Uani 0.581(17) 1 d D U P H 1
Cl3 Cl -0.1097(7) 0.3527(11) 0.8715(8) 0.145(5) Uani 0.581(17) 1 d D U P H 1
C57' C -0.0008(8) 0.3366(13) 0.8942(7) 0.069(5) Uani 0.419(17) 1 d D U P H 2
H57' H -0.0013 0.2741 0.9179 0.082 Uiso 0.419(17) 1 calc R . P H 2
Cl1' Cl 0.0893(4) 0.3482(5) 0.8169(4) 0.0441(19) Uani 0.419(17) 1 d D U P H 2
Cl2' Cl 0.0231(12) 0.3820(15) 0.9704(8) 0.125(6) Uani 0.419(17) 1 d D U P H 2
Cl3' Cl -0.1118(7) 0.3843(10) 0.8530(8) 0.092(3) Uani 0.419(17) 1 d D U P H 2
C58 C 0.1700(4) 0.5754(4) 0.8788(4) 0.0709(17) Uani 1 1 d . U . . .
H58 H 0.1413 0.5381 0.9279 0.085 Uiso 1 1 calc R . . . .
Cl4 Cl 0.24903(14) 0.50958(13) 0.82712(14) 0.0967(6) Uani 1 1 d . U . . .
Cl5 Cl 0.07762(13) 0.63361(14) 0.81704(11) 0.0868(5) Uani 1 1 d . U . . .
Cl6 Cl 0.22827(16) 0.64373(16) 0.91109(12) 0.1081(8) Uani 1 1 d . U . . .
C60 C 0.0413(14) 0.1619(17) 0.1262(9) 0.127(3) Uani 0.363(16) 1 d D U P I 1
H60 H 0.0189 0.2247 0.1201 0.152 Uiso 0.363(16) 1 calc R . P I 1
Cl10 Cl 0.0195(9) 0.1088(10) 0.2266(6) 0.103(3) Uani 0.363(16) 1 d D U P I 1
Cl11 Cl 0.1633(13) 0.1448(14) 0.0995(14) 0.182(7) Uani 0.363(16) 1 d D U P I 1
Cl12 Cl -0.0186(16) 0.1284(14) 0.0600(7) 0.202(7) Uani 0.363(16) 1 d D U P I 1
C60' C 0.0347(11) 0.1549(16) 0.1189(10) 0.127(3) Uani 0.302(7) 1 d D U P J 2
H60' H 0.0341 0.2100 0.1339 0.152 Uiso 0.302(7) 1 calc R . P J 2
Cl13 Cl 0.0978(11) 0.1585(8) 0.0252(7) 0.158(6) Uani 0.302(7) 1 d D U P J 2
Cl14 Cl 0.0934(11) 0.0708(9) 0.1922(8) 0.188(6) Uani 0.302(7) 1 d D U P J 2
Cl15 Cl -0.0831(8) 0.1403(10) 0.1183(10) 0.196(6) Uani 0.302(7) 1 d D U P J 2
C60" C 0.0688(12) 0.1571(17) 0.1237(10) 0.127(3) Uani 0.335(16) 1 d D U P K 3
H60" H 0.0572 0.2193 0.1236 0.152 Uiso 0.335(16) 1 calc R . P K 3
Cl16 Cl 0.0314(16) 0.1479(17) 0.0325(11) 0.195(9) Uani 0.335(16) 1 d D U P K 3
Cl17 Cl -0.0001(13) 0.1040(17) 0.2041(13) 0.179(8) Uani 0.335(16) 1 d D U P K 3
Cl18 Cl 0.1897(8) 0.1175(9) 0.1350(8) 0.121(4) Uani 0.335(16) 1 d D U P K 3
C59 C 0.2369(6) 0.0293(6) 0.5794(6) 0.050(2) Uani 0.502(4) 1 d D U P L 1
H59 H 0.2359 0.0895 0.5462 0.060 Uiso 0.502(4) 1 calc R . P L 1
Cl7 Cl 0.3354(2) 0.00110(19) 0.6419(2) 0.0721(12) Uani 0.502(4) 1 d D U P L 1
Cl8 Cl 0.2502(8) -0.0384(9) 0.5128(8) 0.0612(19) Uani 0.502(4) 1 d D U P L 1
Cl9 Cl 0.1262(4) 0.0239(5) 0.6368(5) 0.0698(18) Uani 0.502(4) 1 d D U P L 1
C59' C 0.1351(8) 0.0365(7) 0.5477(6) 0.072(3) Uani 0.498(4) 1 d D U P L 2
H59' H 0.1403 0.0984 0.5265 0.086 Uiso 0.498(4) 1 calc R . P L 2
Cl7' Cl 0.0336(3) 0.0183(4) 0.5109(4) 0.136(2) Uani 0.498(4) 1 d D U P L 2
Cl8' Cl 0.2389(10) -0.0258(10) 0.5143(10) 0.089(4) Uani 0.498(4) 1 d D U P L 2
Cl9' Cl 0.1308(8) 0.0113(6) 0.6547(6) 0.116(4) Uani 0.498(4) 1 d D U P L 2
loop_
_atom_site_aniso_label
_atom_site_aniso_U_11
_atom_site_aniso_U_22
_atom_site_aniso_U_33
_atom_site_aniso_U_23
_atom_site_aniso_U_13
_atom_site_aniso_U_12
Cu1 0.0331(3) 0.0406(3) 0.0315(3) -0.0068(2) -0.0054(2) -0.0170(2)
Cu2 0.0225(3) 0.0345(3) 0.0303(3) -0.0108(2) 0.0007(2) -0.0079(2)
O1 0.0374(17) 0.050(2) 0.0433(18) -0.0149(15) -0.0089(14) -0.0104(14)
O2 0.0416(17) 0.053(2) 0.0397(18) -0.0094(15) -0.0112(14) -0.0062(15)
O3 0.053(2) 0.047(2) 0.0427(19) -0.0042(15) -0.0086(15) -0.0210(16)
O4 0.0396(17) 0.058(2) 0.0370(18) -0.0073(15) 0.0000(14) -0.0110(15)
O5 0.0351(16) 0.0425(18) 0.0346(16) -0.0151(14) 0.0083(13) -0.0154(14)
O6 0.0296(15) 0.0422(18) 0.0395(17) -0.0127(14) 0.0007(13) -0.0082(13)
O7 0.0339(16) 0.0432(18) 0.0468(19) -0.0185(15) -0.0049(13) -0.0013(13)
O8 0.0303(15) 0.0498(19) 0.0426(18) -0.0155(15) -0.0037(13) -0.0103(14)
N1 0.0332(19) 0.038(2) 0.0352(19) -0.0095(16) 0.0015(15) -0.0159(16)
N2 0.0342(19) 0.036(2) 0.037(2) -0.0079(16) -0.0079(16) -0.0117(16)
N3 0.0258(16) 0.0296(18) 0.0272(18) -0.0076(14) 0.0010(13) -0.0098(13)
N4 0.0269(17) 0.0324(19) 0.0328(19) -0.0088(15) -0.0027(14) -0.0072(14)
C1 0.044(3) 0.045(3) 0.036(2) -0.012(2) 0.0020(19) -0.020(2)
C2 0.042(3) 0.047(3) 0.035(2) -0.009(2) 0.006(2) -0.019(2)
C3 0.028(2) 0.038(2) 0.039(2) -0.0076(19) -0.0011(18) -0.0108(18)
C4 0.043(3) 0.043(3) 0.047(3) -0.017(2) 0.008(2) -0.019(2)
C5 0.047(3) 0.047(3) 0.045(3) -0.016(2) 0.014(2) -0.020(2)
C6 0.034(2) 0.037(2) 0.034(2) -0.0085(18) 0.0015(18) -0.0123(18)
C7 0.040(2) 0.039(3) 0.052(3) -0.020(2) 0.010(2) -0.017(2)
C8 0.035(2) 0.043(2) 0.045(3) -0.020(2) 0.012(2) -0.0168(19)
C9 0.030(2) 0.035(2) 0.025(2) -0.0073(17) 0.0009(16) -0.0080(17)
C10 0.031(2) 0.034(2) 0.044(3) -0.009(2) 0.0076(18) -0.0071(18)
C11 0.028(2) 0.034(2) 0.053(3) -0.006(2) 0.007(2) -0.0070(18)
C12 0.0239(19) 0.032(2) 0.028(2) -0.0121(17) 0.0008(15) -0.0082(16)
C13 0.0208(18) 0.031(2) 0.032(2) -0.0124(17) -0.0005(15) -0.0062(16)
C14 0.0214(18) 0.028(2) 0.026(2) -0.0083(16) -0.0008(15) -0.0040(15)
C15 0.0244(19) 0.028(2) 0.028(2) -0.0077(16) 0.0003(15) -0.0081(15)
C16 0.0251(19) 0.026(2) 0.032(2) -0.0070(17) -0.0025(15) -0.0104(16)
C17 0.024(2) 0.030(2) 0.034(2) -0.0103(18) -0.0070(16) -0.0023(17)
C18 0.032(2) 0.028(2) 0.035(2) -0.0133(18) -0.0002(17) -0.0054(17)
C19 0.027(2) 0.031(2) 0.035(2) -0.0061(18) -0.0056(16) -0.0098(17)
C20 0.025(2) 0.047(3) 0.042(2) -0.016(2) -0.0059(18) -0.0059(19)
C21 0.026(2) 0.036(2) 0.042(2) -0.016(2) -0.0026(17) -0.0044(17)
C22 0.030(2) 0.034(2) 0.033(2) -0.0084(18) -0.0023(17) -0.0128(17)
C23 0.050(3) 0.039(3) 0.061(3) -0.018(2) -0.029(2) 0.006(2)
C24 0.057(3) 0.038(3) 0.063(3) -0.021(2) -0.024(3) -0.001(2)
C25 0.031(2) 0.047(3) 0.044(3) -0.020(2) -0.0063(19) -0.0053(19)
C26 0.028(2) 0.046(3) 0.041(3) -0.014(2) -0.0076(18) -0.0039(19)
C27 0.0265(19) 0.0237(19) 0.025(2) -0.0030(16) -0.0039(15) -0.0074(15)
C28 0.028(2) 0.032(2) 0.045(3) -0.014(2) -0.0047(18) -0.0037(17)
C29 0.040(2) 0.029(2) 0.048(3) -0.017(2) -0.005(2) -0.0013(18)
C30 0.041(2) 0.030(2) 0.034(2) -0.0048(19) -0.0075(18) -0.0131(18)
C31 0.030(2) 0.037(2) 0.040(3) -0.0102(19) -0.0014(18) -0.0160(18)
C32 0.0249(19) 0.026(2) 0.029(2) -0.0108(16) -0.0033(15) -0.0035(15)
C33 0.035(2) 0.040(2) 0.031(2) -0.0055(19) -0.0015(17) -0.0112(19)
C34 0.054(3) 0.044(3) 0.038(3) -0.001(2) -0.009(2) -0.012(2)
C35 0.047(3) 0.048(3) 0.040(3) -0.001(2) -0.017(2) -0.009(2)
C36 0.033(2) 0.041(3) 0.040(2) -0.004(2) -0.0115(18) -0.0072(19)
C37 0.041(2) 0.046(3) 0.035(2) -0.005(2) -0.0069(19) -0.009(2)
C38 0.044(3) 0.077(4) 0.045(3) -0.019(3) -0.017(2) 0.001(2)
C39 0.040(2) 0.056(3) 0.044(2) -0.017(2) -0.0104(19) -0.011(2)
C40 0.051(3) 0.065(3) 0.042(3) -0.011(2) -0.012(2) 0.000(2)
F1 0.092(3) 0.094(3) 0.060(2) -0.037(2) -0.0248(19) 0.023(2)
F2 0.050(2) 0.122(3) 0.157(4) -0.057(3) 0.019(2) -0.012(2)
F3 0.133(3) 0.081(3) 0.055(2) -0.0086(19) -0.024(2) 0.041(2)
C41 0.045(4) 0.087(5) 0.053(4) -0.034(4) -0.013(3) -0.002(3)
F4 0.066(5) 0.104(7) 0.044(4) -0.036(4) -0.004(4) -0.010(4)
F5 0.055(6) 0.118(8) 0.059(6) -0.043(5) -0.028(5) 0.005(5)
F6 0.064(6) 0.089(5) 0.074(7) -0.051(5) -0.023(5) -0.009(4)
C41' 0.045(4) 0.087(5) 0.053(4) -0.034(4) -0.013(3) -0.002(3)
F4' 0.053(14) 0.089(11) 0.069(13) -0.042(9) -0.012(10) -0.005(10)
F5' 0.054(14) 0.092(10) 0.046(9) -0.038(7) -0.014(9) 0.001(8)
F6' 0.051(9) 0.094(17) 0.061(12) -0.037(11) -0.010(8) 0.003(9)
C41" 0.063(10) 0.087(10) 0.068(8) -0.039(8) -0.025(7) -0.006(7)
F4" 0.067(9) 0.120(15) 0.090(14) -0.053(11) -0.036(8) -0.001(8)
F5" 0.092(12) 0.087(9) 0.065(12) -0.042(8) -0.031(10) -0.012(7)
F6" 0.076(12) 0.124(14) 0.071(8) -0.034(8) -0.024(8) -0.008(10)
C42 0.046(3) 0.055(3) 0.040(2) 0.002(2) -0.012(2) -0.027(2)
C43 0.044(3) 0.073(3) 0.041(3) 0.000(2) 0.004(2) -0.022(2)
C44 0.036(2) 0.069(3) 0.039(3) -0.010(2) -0.0028(19) -0.016(2)
C45 0.079(4) 0.063(3) 0.059(3) 0.012(2) -0.010(3) -0.025(3)
F7 0.158(6) 0.062(3) 0.096(4) 0.008(2) -0.010(4) -0.040(3)
F8 0.098(3) 0.106(5) 0.101(5) 0.028(3) -0.044(3) -0.020(3)
F9 0.131(5) 0.092(4) 0.074(3) 0.034(3) 0.020(3) -0.019(3)
C45' 0.079(4) 0.063(3) 0.059(3) 0.012(2) -0.010(3) -0.025(3)
F7' 0.087(8) 0.071(12) 0.067(16) 0.008(10) -0.012(8) -0.023(7)
F8' 0.120(18) 0.069(15) 0.055(7) 0.012(7) -0.013(7) -0.024(12)
F9' 0.091(12) 0.069(12) 0.072(16) 0.005(10) -0.007(10) -0.034(10)
C46 0.066(4) 0.092(5) 0.042(4) -0.013(3) 0.009(3) 0.001(3)
F10 0.086(5) 0.091(5) 0.073(4) -0.009(3) 0.000(3) 0.026(3)
F11 0.096(5) 0.124(6) 0.111(6) -0.008(4) 0.058(4) 0.002(4)
F12 0.134(5) 0.113(6) 0.122(7) -0.071(6) -0.039(5) 0.020(4)
C46' 0.077(11) 0.092(9) 0.052(10) -0.018(7) 0.005(7) 0.004(7)
F10' 0.091(11) 0.111(16) 0.092(13) -0.025(11) -0.018(9) 0.011(9)
F11' 0.081(14) 0.112(14) 0.052(9) -0.022(7) 0.008(7) 0.008(10)
F12' 0.132(17) 0.107(10) 0.088(15) -0.039(10) 0.024(11) -0.020(10)
C47 0.029(2) 0.034(2) 0.032(2) -0.0075(18) 0.0010(17) -0.0031(17)
C48 0.037(2) 0.040(2) 0.031(2) -0.0120(19) -0.0001(18) -0.0043(19)
C49 0.030(2) 0.031(2) 0.038(2) -0.0119(18) -0.0081(17) 0.0037(17)
C50 0.032(2) 0.043(3) 0.044(3) -0.012(2) 0.0101(19) -0.0097(19)
F13 0.062(2) 0.124(3) 0.068(2) -0.003(2) -0.0010(17) -0.058(2)
F14 0.0605(19) 0.068(2) 0.0560(18) -0.0180(15) 0.0291(15) -0.0227(16)
F15 0.068(2) 0.0410(17) 0.105(3) -0.0086(17) 0.0401(19) -0.0118(15)
C51 0.043(3) 0.045(3) 0.050(3) -0.020(2) -0.007(2) -0.003(2)
F16 0.081(5) 0.091(8) 0.058(5) -0.047(5) 0.014(4) -0.029(5)
F17 0.046(4) 0.096(9) 0.074(7) -0.044(5) -0.017(4) -0.004(4)
F18 0.126(10) 0.045(4) 0.081(5) -0.025(3) -0.015(6) -0.019(4)
C51' 0.043(3) 0.045(3) 0.050(3) -0.020(2) -0.007(2) -0.003(2)
F16' 0.073(8) 0.057(6) 0.071(8) -0.018(5) -0.031(6) -0.010(5)
F17' 0.085(9) 0.056(6) 0.080(6) -0.035(5) 0.006(6) -0.031(6)
F18' 0.057(5) 0.085(10) 0.089(9) -0.062(8) -0.003(5) -0.004(5)
C52 0.028(2) 0.051(3) 0.058(3) -0.019(2) -0.0024(19) 0.0064(19)
C53 0.030(2) 0.060(3) 0.063(3) -0.020(3) -0.002(2) -0.003(2)
C54 0.030(2) 0.046(2) 0.047(3) -0.007(2) -0.0091(18) -0.0072(18)
C55 0.039(5) 0.058(5) 0.079(5) -0.027(4) 0.009(4) 0.001(3)
F19 0.087(6) 0.086(6) 0.109(7) -0.039(5) -0.014(5) 0.046(5)
F20 0.065(4) 0.072(6) 0.079(5) -0.043(4) 0.025(4) -0.014(4)
F21 0.111(6) 0.104(5) 0.097(5) -0.048(4) 0.061(4) -0.042(4)
C55' 0.048(6) 0.079(7) 0.094(8) -0.045(6) -0.005(5) 0.020(5)
F19' 0.094(8) 0.067(5) 0.123(8) -0.042(5) -0.008(6) 0.023(5)
F20' 0.090(11) 0.105(12) 0.092(8) -0.051(7) -0.010(7) 0.013(8)
F21' 0.047(5) 0.114(12) 0.159(14) -0.074(10) 0.014(5) 0.017(5)
C56 0.033(2) 0.053(3) 0.069(3) -0.015(2) -0.010(2) -0.0099(19)
F22 0.042(4) 0.101(8) 0.103(7) -0.034(6) 0.006(4) -0.035(4)
F23 0.050(5) 0.044(3) 0.123(10) -0.015(5) -0.014(6) -0.013(3)
F24 0.069(6) 0.080(6) 0.075(4) -0.029(4) -0.020(4) -0.022(5)
C56' 0.033(2) 0.053(3) 0.069(3) -0.015(2) -0.010(2) -0.0099(19)
F22' 0.060(12) 0.047(6) 0.075(8) -0.017(5) -0.009(7) -0.009(6)
F23' 0.064(11) 0.085(13) 0.076(7) -0.033(8) -0.011(6) -0.029(9)
F24' 0.032(5) 0.067(9) 0.083(13) -0.017(10) -0.015(5) -0.019(4)
C56" 0.033(2) 0.053(3) 0.069(3) -0.015(2) -0.010(2) -0.0099(19)
F22" 0.069(12) 0.071(11) 0.079(7) -0.011(6) -0.003(6) -0.034(9)
F23" 0.046(8) 0.045(8) 0.073(11) -0.017(8) -0.016(8) -0.002(6)
F24" 0.043(8) 0.057(8) 0.081(10) -0.024(8) -0.024(7) -0.009(7)
C57 0.072(6) 0.080(9) 0.072(7) -0.033(6) -0.013(5) -0.001(5)
Cl1 0.107(5) 0.126(7) 0.121(6) -0.057(5) 0.020(4) -0.010(5)
Cl2 0.079(3) 0.118(4) 0.072(3) -0.050(3) 0.013(2) -0.042(3)
Cl3 0.083(4) 0.256(13) 0.155(9) -0.127(9) 0.020(4) -0.080(6)
C57' 0.072(7) 0.089(12) 0.047(7) -0.019(7) 0.010(5) -0.025(6)
Cl1' 0.043(3) 0.060(4) 0.033(3) -0.017(2) -0.002(2) -0.010(3)
Cl2' 0.150(8) 0.189(16) 0.061(5) -0.063(7) -0.009(4) -0.044(7)
Cl3' 0.055(4) 0.146(7) 0.082(4) -0.047(4) 0.001(3) -0.009(4)
C58 0.070(4) 0.077(4) 0.064(4) 0.004(3) -0.013(3) -0.032(3)
Cl4 0.0771(11) 0.0804(12) 0.1254(17) -0.0043(11) -0.0172(11) -0.0186(10)
Cl5 0.0855(12) 0.1143(15) 0.0620(10) -0.0289(10) -0.0207(9) -0.0012(10)
Cl6 0.1194(16) 0.161(2) 0.0703(12) -0.0262(12) 0.0000(11) -0.0936(16)
C60 0.165(7) 0.116(7) 0.105(5) -0.037(4) -0.001(4) -0.029(6)
Cl10 0.110(6) 0.119(6) 0.092(5) -0.038(4) -0.014(4) -0.026(5)
Cl11 0.182(9) 0.163(13) 0.214(17) -0.060(12) 0.046(9) -0.071(9)
Cl12 0.233(15) 0.314(17) 0.108(7) -0.064(9) 0.005(8) -0.157(14)
C60' 0.165(7) 0.116(7) 0.105(5) -0.037(4) -0.001(4) -0.029(6)
Cl13 0.211(14) 0.123(8) 0.136(8) -0.041(6) 0.027(8) -0.026(9)
Cl14 0.214(14) 0.178(10) 0.143(9) -0.009(8) -0.028(9) 0.003(10)
Cl15 0.161(9) 0.201(13) 0.221(15) -0.053(11) -0.016(8) -0.016(8)
C60" 0.165(7) 0.116(7) 0.105(5) -0.037(4) -0.001(4) -0.029(6)
Cl16 0.209(17) 0.28(2) 0.117(9) -0.073(12) -0.022(9) -0.058(14)
Cl17 0.190(14) 0.199(15) 0.142(11) -0.015(10) 0.025(10) -0.074(12)
Cl18 0.173(7) 0.092(7) 0.101(7) -0.024(5) -0.012(5) -0.026(5)
C59 0.061(5) 0.037(5) 0.054(5) -0.011(4) -0.001(4) -0.014(4)
Cl7 0.083(2) 0.0527(19) 0.077(2) 0.0024(15) -0.0230(17) -0.0190(15)
Cl8 0.068(3) 0.057(3) 0.062(4) -0.023(3) 0.005(3) -0.011(3)
Cl9 0.069(3) 0.051(3) 0.089(5) -0.025(3) 0.008(2) -0.005(2)
C59' 0.098(7) 0.037(6) 0.068(7) -0.004(5) 0.013(5) -0.003(5)
Cl7' 0.086(3) 0.151(5) 0.168(5) -0.031(4) 0.007(3) -0.033(3)
Cl8' 0.100(5) 0.088(7) 0.066(5) -0.023(4) 0.013(3) 0.009(3)
Cl9' 0.211(8) 0.047(3) 0.059(3) -0.009(2) 0.021(3) 0.035(3)
loop_
_atom_type_symbol
_atom_type_description
_atom_type_scat_dispersion_real
_atom_type_scat_dispersion_imag
_atom_type_scat_source
C C 0.0033 0.0016 'International Tables Vol C Tables 4.2.6.8 and 6.1.1.4'
H H 0.0000 0.0000 'International Tables Vol C Tables 4.2.6.8 and 6.1.1.4'
Cl Cl 0.1484 0.1585 'International Tables Vol C Tables 4.2.6.8 and 6.1.1.4'
Cu Cu 0.3201 1.2651 'International Tables Vol C Tables 4.2.6.8 and 6.1.1.4'
F F 0.0171 0.0103 'International Tables Vol C Tables 4.2.6.8 and 6.1.1.4'
N N 0.0061 0.0033 'International Tables Vol C Tables 4.2.6.8 and 6.1.1.4'
O O 0.0106 0.0060 'International Tables Vol C Tables 4.2.6.8 and 6.1.1.4'
loop_
_geom_angle_atom_site_label_1
_geom_angle_atom_site_label_2
_geom_angle_atom_site_label_3
_geom_angle
_geom_angle_site_symmetry_1
_geom_angle_site_symmetry_3
O1 Cu1 O2 86.11(12) . .
O1 Cu1 O3 86.48(13) . .
O1 Cu1 O4 87.90(13) . .
O1 Cu1 N1 88.31(14) . .
O1 Cu1 N2 176.92(14) . 2_656
O3 Cu1 O2 89.24(13) . .
O3 Cu1 O4 86.46(14) . .
O3 Cu1 N1 174.70(14) . .
O4 Cu1 O2 172.83(12) . .
N1 Cu1 O2 91.37(13) . .
N1 Cu1 O4 92.39(13) . .
N2 Cu1 O2 92.66(13) 2_656 .
N2 Cu1 O3 90.69(14) 2_656 .
N2 Cu1 O4 93.13(14) 2_656 .
N2 Cu1 N1 94.54(14) 2_656 .
O5 Cu2 O6 83.56(11) . .
O5 Cu2 O7 89.97(13) . .
O5 Cu2 O8 84.43(12) . .
O5 Cu2 N3 87.53(13) . .
O5 Cu2 N4 176.94(13) . .
O7 Cu2 O6 78.92(11) . .
O7 Cu2 O8 81.01(12) . .
O7 Cu2 N4 91.08(14) . .
O8 Cu2 O6 156.54(11) . .
N3 Cu2 O6 109.12(12) . .
N3 Cu2 O7 171.23(12) . .
N3 Cu2 O8 90.38(12) . .
N3 Cu2 N4 91.00(14) . .
N4 Cu2 O6 99.46(12) . .
N4 Cu2 O8 92.89(12) . .
C39 O1 Cu1 127.6(3) . .
C37 O2 Cu1 120.4(3) . .
C42 O3 Cu1 125.2(3) . .
C44 O4 Cu1 119.5(3) . .
C47 O5 Cu2 127.7(3) . .
C49 O6 Cu2 119.3(3) . .
C52 O7 Cu2 126.3(3) . .
C54 O8 Cu2 117.9(3) . .
C1 N1 Cu1 122.3(3) . .
C1 N1 C5 117.4(4) . .
C5 N1 Cu1 118.3(3) . .
C24 N2 Cu1 121.6(3) . 2_656
C24 N2 C26 116.9(4) . .
C26 N2 Cu1 121.5(3) . 2_656
C27 N3 Cu2 124.2(3) . .
C31 N3 Cu2 117.0(3) . .
C31 N3 C27 118.5(4) . .
C32 N4 Cu2 126.1(3) . .
C32 N4 C36 117.9(4) . .
C36 N4 Cu2 115.7(3) . .
N1 C1 H1 118.7 . .
N1 C1 C2 122.6(4) . .
C2 C1 H1 118.7 . .
C1 C2 H2 120.1 . .
C3 C2 C1 119.7(4) . .
C3 C2 H2 120.1 . .
C2 C3 C6 121.9(4) . .
C4 C3 C2 117.0(4) . .
C4 C3 C6 121.0(4) . .
C3 C4 H4 119.9 . .
C5 C4 C3 120.1(4) . .
C5 C4 H4 119.9 . .
N1 C5 C4 123.0(4) . .
N1 C5 H5 118.5 . .
C4 C5 H5 118.5 . .
C7 C6 C3 120.2(4) . .
C11 C6 C3 121.4(4) . .
C11 C6 C7 118.2(4) . .
C6 C7 H7 119.7 . .
C6 C7 C8 120.6(4) . .
C8 C7 H7 119.7 . .
C7 C8 H8 119.3 . .
C9 C8 C7 121.4(4) . .
C9 C8 H8 119.3 . .
C8 C9 C10 117.4(4) . .
C8 C9 C12 124.0(4) . .
C10 C9 C12 118.6(4) . .
C9 C10 H10 119.4 . .
C11 C10 C9 121.3(4) . .
C11 C10 H10 119.4 . .
C6 C11 C10 121.0(4) . .
C6 C11 H11 119.5 . .
C10 C11 H11 119.5 . .
C9 C12 H12 108.0 . .
C9 C12 C13 120.3(3) . .
C9 C12 C15 122.2(3) . .
C13 C12 H12 108.0 . .
C15 C12 H12 108.0 . .
C15 C12 C13 88.5(3) . .
C12 C13 H13 111.6 . .
C14 C13 C12 88.0(3) . .
C14 C13 H13 111.6 . .
C16 C13 C12 114.8(3) . .
C16 C13 H13 111.6 . .
C16 C13 C14 117.3(3) . .
C13 C14 H14 111.7 . .
C13 C14 C15 88.1(3) . .
C15 C14 H14 111.7 . .
C27 C14 C13 115.9(3) . .
C27 C14 H14 111.7 . .
C27 C14 C15 116.0(3) . .
C12 C15 C14 88.1(3) . .
C12 C15 H15 107.7 . .
C14 C15 H15 107.7 . .
C32 C15 C12 119.0(3) . .
C32 C15 C14 124.6(3) . .
C32 C15 H15 107.7 . .
C17 C16 C13 125.0(4) . .
C21 C16 C13 117.7(4) . .
C21 C16 C17 117.3(4) . .
C16 C17 H17 119.4 . .
C18 C17 C16 121.2(4) . .
C18 C17 H17 119.4 . .
C17 C18 H18 119.5 . .
C17 C18 C19 121.1(4) . .
C19 C18 H18 119.5 . .
C18 C19 C20 117.9(4) . .
C18 C19 C22 121.7(4) . .
C20 C19 C22 120.4(4) . .
C19 C20 H20 119.7 . .
C21 C20 C19 120.6(4) . .
C21 C20 H20 119.7 . .
C16 C21 H21 119.0 . .
C20 C21 C16 121.9(4) . .
C20 C21 H21 119.0 . .
C23 C22 C19 122.2(4) . .
C23 C22 C25 116.3(4) . .
C25 C22 C19 121.5(4) . .
C22 C23 H23 119.8 . .
C22 C23 C24 120.5(4) . .
C24 C23 H23 119.8 . .
N2 C24 C23 123.4(5) . .
N2 C24 H24 118.3 . .
C23 C24 H24 118.3 . .
C22 C25 H25 120.1 . .
C26 C25 C22 119.7(4) . .
C26 C25 H25 120.1 . .
N2 C26 C25 123.1(4) . .
N2 C26 H26 118.5 . .
C25 C26 H26 118.5 . .
N3 C27 C14 114.2(3) . .
N3 C27 C28 120.6(3) . .
C28 C27 C14 125.1(3) . .
C27 C28 H28 119.8 . .
C27 C28 C29 120.4(4) . .
C29 C28 H28 119.8 . .
C28 C29 H29 120.5 . .
C30 C29 C28 118.9(4) . .
C30 C29 H29 120.5 . .
C29 C30 H30 120.7 . .
C29 C30 C31 118.5(4) . .
C31 C30 H30 120.7 . .
N3 C31 C30 123.0(4) . .
N3 C31 H31 118.5 . .
C30 C31 H31 118.5 . .
N4 C32 C15 119.6(3) . .
N4 C32 C33 120.9(4) . .
C33 C32 C15 119.1(3) . .
C32 C33 H33 119.8 . .
C34 C33 C32 120.4(4) . .
C34 C33 H33 119.8 . .
C33 C34 H34 120.7 . .
C33 C34 C35 118.5(4) . .
C35 C34 H34 120.7 . .
C34 C35 H35 120.6 . .
C36 C35 C34 118.8(4) . .
C36 C35 H35 120.6 . .
N4 C36 C35 123.4(4) . .
N4 C36 H36 118.3 . .
C35 C36 H36 118.3 . .
O2 C37 C38 128.0(5) . .
O2 C37 C40 115.9(4) . .
C38 C37 C40 116.0(4) . .
C37 C38 H38 118.0 . .
C39 C38 C37 124.0(5) . .
C39 C38 H38 118.0 . .
O1 C39 C38 130.3(5) . .
O1 C39 C41 110.9(5) . .
O1 C39 C41' 111.3(8) . .
O1 C39 C41" 111.3(10) . .
C38 C39 C41 118.7(5) . .
C38 C39 C41' 118.3(8) . .
C38 C39 C41" 117.0(10) . .
F1 C40 C37 113.7(4) . .
F1 C40 F2 107.6(5) . .
F1 C40 F3 106.3(5) . .
F2 C40 C37 111.0(5) . .
F3 C40 C37 112.5(4) . .
F3 C40 F2 105.2(5) . .
F4 C41 C39 109.9(8) . .
F4 C41 F6 105.6(8) . .
F5 C41 C39 114.5(8) . .
F5 C41 F4 108.6(8) . .
F5 C41 F6 106.4(8) . .
F6 C41 C39 111.4(9) . .
F4' C41' C39 106(2) . .
F4' C41' F5' 112(2) . .
F5' C41' C39 109(2) . .
F6' C41' C39 118(3) . .
F6' C41' F4' 107(2) . .
F6' C41' F5' 104(2) . .
F4" C41" C39 115.4(18) . .
F4" C41" F5" 107.7(18) . .
F5" C41" C39 110.2(19) . .
F6" C41" C39 111(2) . .
F6" C41" F4" 105.9(17) . .
F6" C41" F5" 106.0(19) . .
O3 C42 C43 129.3(5) . .
O3 C42 C45 112.7(5) . .
O3 C42 C45' 111.6(14) . .
C43 C42 C45 118.0(5) . .
C43 C42 C45' 119.0(14) . .
C42 C43 H43 118.0 . .
C42 C43 C44 124.1(5) . .
C44 C43 H43 118.0 . .
O4 C44 C43 128.3(5) . .
O4 C44 C46 114.4(5) . .
O4 C44 C46' 109.1(10) . .
C43 C44 C46 117.2(5) . .
C43 C44 C46' 122.4(10) . .
F7 C45 C42 112.0(6) . .
F7 C45 F8 105.9(7) . .
F7 C45 F9 106.5(6) . .
F8 C45 C42 110.4(6) . .
F9 C45 C42 114.4(6) . .
F9 C45 F8 107.2(6) . .
F7' C45' C42 119(3) . .
F8' C45' C42 111(3) . .
F8' C45' F7' 105(2) . .
F9' C45' C42 109(2) . .
F9' C45' F7' 106(2) . .
F9' C45' F8' 106(2) . .
F10 C46 C44 113.7(7) . .
F10 C46 F12 104.8(8) . .
F11 C46 C44 112.6(7) . .
F11 C46 F10 106.5(7) . .
F11 C46 F12 109.2(8) . .
F12 C46 C44 109.6(6) . .
F10' C46' C44 105(2) . .
F10' C46' F12' 106(2) . .
F11' C46' C44 115.0(19) . .
F11' C46' F10' 107(2) . .
F11' C46' F12' 102.4(19) . .
F12' C46' C44 120(2) . .
O5 C47 C48 129.8(4) . .
O5 C47 C50 112.4(4) . .
C48 C47 C50 117.7(4) . .
C47 C48 H48 118.7 . .
C47 C48 C49 122.7(4) . .
C49 C48 H48 118.7 . .
O6 C49 C48 129.0(4) . .
O6 C49 C51 116.7(6) . .
O6 C49 C51' 111.0(7) . .
C48 C49 C51 114.3(6) . .
C48 C49 C51' 119.9(7) . .
F13 C50 C47 111.1(4) . .
F13 C50 F15 107.1(4) . .
F14 C50 C47 114.3(4) . .
F14 C50 F13 106.6(4) . .
F14 C50 F15 106.6(4) . .
F15 C50 C47 110.7(4) . .
F16 C51 C49 115.6(9) . .
F17 C51 C49 110.2(11) . .
F17 C51 F16 107.0(10) . .
F18 C51 C49 111.2(9) . .
F18 C51 F16 105.8(8) . .
F18 C51 F17 106.5(9) . .
F16' C51' C49 109.7(16) . .
F17' C51' C49 114.6(12) . .
F17' C51' F16' 108.3(14) . .
F17' C51' F18' 105.6(12) . .
F18' C51' C49 111.6(13) . .
F18' C51' F16' 106.6(15) . .
O7 C52 C53 129.5(5) . .
O7 C52 C55 116.0(5) . .
O7 C52 C55' 107.5(6) . .
C53 C52 C55 114.2(5) . .
C53 C52 C55' 122.0(6) . .
C52 C53 H53 119.2 . .
C52 C53 C54 121.6(4) . .
C54 C53 H53 119.2 . .
O8 C54 C53 127.6(4) . .
O8 C54 C56 116.2(6) . .
O8 C54 C56' 113.2(8) . .
O8 C54 C56" 112.0(8) . .
C53 C54 C56 116.2(5) . .
C53 C54 C56' 119.2(8) . .
C53 C54 C56" 120.3(8) . .
F19 C55 C52 108.1(8) . .
F20 C55 C52 111.2(9) . .
F20 C55 F19 106.7(9) . .
F21 C55 C52 115.0(7) . .
F21 C55 F19 108.1(8) . .
F21 C55 F20 107.3(9) . .
F19' C55' C52 117.7(11) . .
F19' C55' F20' 107.9(14) . .
F19' C55' F21' 108.1(14) . .
F20' C55' C52 108.5(15) . .
F20' C55' F21' 106.1(15) . .
F21' C55' C52 108.0(11) . .
F22 C56 C54 113.4(8) . .
F22 C56 F23 108.4(9) . .
F23 C56 C54 108.3(8) . .
F24 C56 C54 109.5(8) . .
F24 C56 F22 109.0(9) . .
F24 C56 F23 108.0(9) . .
F22' C56' C54 108.8(14) . .
F23' C56' C54 114.3(14) . .
F23' C56' F22' 104.6(16) . .
F24' C56' C54 115.9(15) . .
F24' C56' F22' 105.6(16) . .
F24' C56' F23' 106.7(16) . .
F22" C56" C54 111.3(14) . .
F22" C56" F23" 106.4(17) . .
F23" C56" C54 117.6(15) . .
F24" C56" C54 111.9(14) . .
F24" C56" F22" 105.4(17) . .
F24" C56" F23" 103.2(15) . .
Cl1 C57 H57 109.7 . .
Cl1 C57 Cl2 110.5(7) . .
Cl1 C57 Cl3 107.9(8) . .
Cl2 C57 H57 109.7 . .
Cl2 C57 Cl3 109.4(8) . .
Cl3 C57 H57 109.7 . .
Cl1' C57' H57' 108.8 . .
Cl1' C57' Cl2' 109.3(9) . .
Cl1' C57' Cl3' 109.0(8) . .
Cl2' C57' H57' 108.8 . .
Cl2' C57' Cl3' 112.2(10) . .
Cl3' C57' H57' 108.8 . .
Cl4 C58 H58 108.2 . .
Cl5 C58 H58 108.2 . .
Cl5 C58 Cl4 109.8(4) . .
Cl6 C58 H58 108.2 . .
Cl6 C58 Cl4 111.6(4) . .
Cl6 C58 Cl5 110.7(4) . .
Cl10 C60 H60 108.6 . .
Cl10 C60 Cl11 110.3(11) . .
Cl11 C60 H60 108.6 . .
Cl12 C60 H60 108.6 . .
Cl12 C60 Cl10 112.0(11) . .
Cl12 C60 Cl11 108.7(11) . .
Cl13 C60' H60' 108.7 . .
Cl13 C60' Cl14 108.9(11) . .
Cl14 C60' H60' 108.7 . .
Cl15 C60' H60' 108.7 . .
Cl15 C60' Cl13 113.0(12) . .
Cl15 C60' Cl14 108.7(11) . .
Cl16 C60" H60" 108.3 . .
Cl17 C60" H60" 108.3 . .
Cl17 C60" Cl16 108.9(11) . .
Cl18 C60" H60" 108.3 . .
Cl18 C60" Cl16 112.1(11) . .
Cl18 C60" Cl17 110.8(11) . .
Cl7 C59 H59 108.4 . .
Cl7 C59 Cl9 112.2(6) . .
Cl8 C59 H59 108.4 . .
Cl8 C59 Cl7 110.1(7) . .
Cl8 C59 Cl9 109.4(6) . .
Cl9 C59 H59 108.4 . .
Cl7' C59' H59' 108.6 . .
Cl7' C59' Cl8' 110.5(8) . .
Cl7' C59' Cl9' 112.4(7) . .
Cl8' C59' H59' 108.6 . .
Cl9' C59' H59' 108.6 . .
Cl9' C59' Cl8' 107.9(8) . .
Cl7' Cl7' C59' 164.3(8) 2_556 .
loop_
_geom_bond_atom_site_label_1
_geom_bond_atom_site_label_2
_geom_bond_distance
_geom_bond_site_symmetry_2
Cu1 O1 1.974(3) .
Cu1 O2 2.314(3) .
Cu1 O3 1.996(3) .
Cu1 O4 2.265(3) .
Cu1 N1 2.029(4) .
Cu1 N2 1.987(3) 2_656
Cu2 O5 1.994(3) .
Cu2 O6 2.349(3) .
Cu2 O7 2.018(3) .
Cu2 O8 2.337(3) .
Cu2 N3 2.011(3) .
Cu2 N4 2.028(3) .
O1 C39 1.255(6) .
O2 C37 1.232(5) .
O3 C42 1.253(6) .
O4 C44 1.244(6) .
O5 C47 1.256(5) .
O6 C49 1.236(5) .
O7 C52 1.270(5) .
O8 C54 1.232(5) .
N1 C1 1.333(6) .
N1 C5 1.339(6) .
N2 Cu1 1.987(3) 2_656
N2 C24 1.328(6) .
N2 C26 1.345(6) .
N3 C27 1.363(5) .
N3 C31 1.346(5) .
N4 C32 1.348(5) .
N4 C36 1.353(5) .
C1 H1 0.9500 .
C1 C2 1.389(6) .
C2 H2 0.9500 .
C2 C3 1.384(6) .
C3 C4 1.380(6) .
C3 C6 1.495(6) .
C4 H4 0.9500 .
C4 C5 1.372(6) .
C5 H5 0.9500 .
C6 C7 1.389(6) .
C6 C11 1.375(6) .
C7 H7 0.9500 .
C7 C8 1.391(6) .
C8 H8 0.9500 .
C8 C9 1.378(6) .
C9 C10 1.393(6) .
C9 C12 1.492(5) .
C10 H10 0.9500 .
C10 C11 1.385(6) .
C11 H11 0.9500 .
C12 H12 1.0000 .
C12 C13 1.575(6) .
C12 C15 1.551(5) .
C13 H13 1.0000 .
C13 C14 1.559(5) .
C13 C16 1.497(5) .
C14 H14 1.0000 .
C14 C15 1.579(5) .
C14 C27 1.502(5) .
C15 H15 1.0000 .
C15 C32 1.502(5) .
C16 C17 1.394(6) .
C16 C21 1.391(6) .
C17 H17 0.9500 .
C17 C18 1.385(6) .
C18 H18 0.9500 .
C18 C19 1.390(6) .
C19 C20 1.397(6) .
C19 C22 1.488(6) .
C20 H20 0.9500 .
C20 C21 1.377(6) .
C21 H21 0.9500 .
C22 C23 1.375(6) .
C22 C25 1.405(6) .
C23 H23 0.9500 .
C23 C24 1.375(7) .
C24 H24 0.9500 .
C25 H25 0.9500 .
C25 C26 1.373(6) .
C26 H26 0.9500 .
C27 C28 1.370(6) .
C28 H28 0.9500 .
C28 C29 1.391(6) .
C29 H29 0.9500 .
C29 C30 1.370(6) .
C30 H30 0.9500 .
C30 C31 1.378(6) .
C31 H31 0.9500 .
C32 C33 1.386(6) .
C33 H33 0.9500 .
C33 C34 1.377(6) .
C34 H34 0.9500 .
C34 C35 1.377(7) .
C35 H35 0.9500 .
C35 C36 1.366(7) .
C36 H36 0.9500 .
C37 C38 1.413(7) .
C37 C40 1.532(7) .
C38 H38 0.9500 .
C38 C39 1.367(7) .
C39 C41 1.548(10) .
C39 C41' 1.540(17) .
C39 C41" 1.536(15) .
C40 F1 1.304(6) .
C40 F2 1.327(7) .
C40 F3 1.320(6) .
C41 F4 1.340(10) .
C41 F5 1.328(9) .
C41 F6 1.346(10) .
C41' F4' 1.333(15) .
C41' F5' 1.333(15) .
C41' F6' 1.333(15) .
C41" F4" 1.331(14) .
C41" F5" 1.334(14) .
C41" F6" 1.323(14) .
C42 C43 1.385(8) .
C42 C45 1.526(8) .
C42 C45' 1.532(19) .
C43 H43 0.9500 .
C43 C44 1.395(8) .
C44 C46 1.526(9) .
C44 C46' 1.530(17) .
C45 F7 1.313(8) .
C45 F8 1.323(8) .
C45 F9 1.320(8) .
C45' F7' 1.324(15) .
C45' F8' 1.324(16) .
C45' F9' 1.322(16) .
C46 F10 1.326(9) .
C46 F11 1.321(9) .
C46 F12 1.329(9) .
C46' F10' 1.324(15) .
C46' F11' 1.323(15) .
C46' F12' 1.329(15) .
C47 C48 1.376(6) .
C47 C50 1.540(6) .
C48 H48 0.9500 .
C48 C49 1.404(6) .
C49 C51 1.540(10) .
C49 C51' 1.537(13) .
C50 F13 1.316(6) .
C50 F14 1.314(5) .
C50 F15 1.329(6) .
C51 F16 1.334(10) .
C51 F17 1.331(10) .
C51 F18 1.319(10) .
C51' F16' 1.329(13) .
C51' F17' 1.321(12) .
C51' F18' 1.322(12) .
C52 C53 1.375(7) .
C52 C55 1.558(10) .
C52 C55' 1.567(13) .
C53 H53 0.9500 .
C53 C54 1.403(7) .
C54 C56 1.524(10) .
C54 C56' 1.540(15) .
C54 C56" 1.552(15) .
C55 F19 1.339(10) .
C55 F20 1.326(11) .
C55 F21 1.313(10) .
C55' F19' 1.308(13) .
C55' F20' 1.318(13) .
C55' F21' 1.336(13) .
C56 F22 1.319(10) .
C56 F23 1.325(10) .
C56 F24 1.316(10) .
C56' F22' 1.336(14) .
C56' F23' 1.334(14) .
C56' F24' 1.330(13) .
C56" F22" 1.343(14) .
C56" F23" 1.346(14) .
C56" F24" 1.338(14) .
C57 H57 1.0000 .
C57 Cl1 1.707(10) .
C57 Cl2 1.739(10) .
C57 Cl3 1.774(12) .
C57' H57' 1.0000 .
C57' Cl1' 1.743(11) .
C57' Cl2' 1.748(12) .
C57' Cl3' 1.754(12) .
C58 H58 1.0000 .
C58 Cl4 1.743(7) .
C58 Cl5 1.743(6) .
C58 Cl6 1.738(6) .
C60 H60 1.0000 .
C60 Cl10 1.735(14) .
C60 Cl11 1.738(14) .
C60 Cl12 1.734(14) .
C60' H60' 1.0000 .
C60' Cl13 1.744(14) .
C60' Cl14 1.745(15) .
C60' Cl15 1.741(15) .
C60" H60" 1.0000 .
C60" Cl16 1.748(14) .
C60" Cl17 1.741(14) .
C60" Cl18 1.732(14) .
C59 H59 1.0000 .
C59 Cl7 1.768(9) .
C59 Cl8 1.760(11) .
C59 Cl9 1.772(9) .
C59' H59' 1.0000 .
C59' Cl7' 1.740(11) .
C59' Cl8' 1.762(12) .
C59' Cl9' 1.762(11) .
Cl7' Cl7' 1.350(10) 2_556
loop_
_geom_hbond_atom_site_label_D
_geom_hbond_atom_site_label_H
_geom_hbond_atom_site_label_A
_geom_hbond_distance_DH
_geom_hbond_distance_HA
_geom_hbond_distance_DA
_geom_hbond_angle_DHA
_geom_hbond_site_symmetry_A
C4 H4 F6' 0.95 2.27 3.09(4) 143.8 2_657
C14 H14 O6 1.00 2.33 3.083(5) 130.8 .
C23 H23 Cl9' 0.95 2.82 3.664(11) 149.2 2_656
C24 H24 O4 0.95 2.60 3.140(6) 116.1 2_656
C26 H26 O2 0.95 2.58 3.138(5) 118.2 2_656
C28 H28 F15 0.95 2.64 3.584(5) 173.7 2_766
C31 H31 O8 0.95 2.31 2.931(5) 122.2 .
C33 H33 F11 0.95 2.63 3.405(7) 138.7 2_657
C35 H35 F4' 0.95 2.52 3.18(4) 127.1 2_757
C36 H36 O8 0.95 2.51 3.080(6) 118.6 .
C57' H57' Cl13 1.00 2.58 3.34(2) 133.4 1_556
C58 H58 F3 1.00 2.39 3.125(7) 129.3 2_657
C58 H58 Cl2 1.00 2.96 3.753(11) 136.8 .
C58 H58 Cl2 1.00 2.94 3.628(10) 126.7 2_567
C60 H60 Cl5 1.00 2.87 3.77(3) 151.3 2_566
C59 H59 O7 1.00 2.37 3.144(10) 133.3 1_455
C59' H59' O6 1.00 2.47 3.472(12) 176.4 1_455
C59' H59' F17' 1.00 2.28 2.828(18) 112.9 1_455
loop_
_geom_torsion_atom_site_label_1
_geom_torsion_atom_site_label_2
_geom_torsion_atom_site_label_3
_geom_torsion_atom_site_label_4
_geom_torsion
_geom_torsion_site_symmetry_1
_geom_torsion_site_symmetry_4
Cu1 O1 C39 C38 14.4(8) . .
Cu1 O1 C39 C41 -163.9(6) . .
Cu1 O1 C39 C41' -163.1(10) . .
Cu1 O1 C39 C41" -179.5(13) . .
Cu1 O2 C37 C38 -10.6(7) . .
Cu1 O2 C37 C40 171.0(3) . .
Cu1 O3 C42 C43 21.8(7) . .
Cu1 O3 C42 C45 -156.8(4) . .
Cu1 O3 C42 C45' -155.6(13) . .
Cu1 O4 C44 C43 -15.8(7) . .
Cu1 O4 C44 C46 162.1(4) . .
Cu1 O4 C44 C46' 159.1(11) . .
Cu1 N1 C1 C2 -160.6(4) . .
Cu1 N1 C5 C4 161.0(4) . .
Cu1 N2 C24 C23 179.0(4) 2_656 .
Cu1 N2 C26 C25 -179.3(3) 2_656 .
Cu2 O5 C47 C48 21.5(7) . .
Cu2 O5 C47 C50 -161.3(3) . .
Cu2 O6 C49 C48 -14.6(6) . .
Cu2 O6 C49 C51 167.5(5) . .
Cu2 O6 C49 C51' 169.0(7) . .
Cu2 O7 C52 C53 25.8(8) . .
Cu2 O7 C52 C55 -146.7(5) . .
Cu2 O7 C52 C55' -166.1(6) . .
Cu2 O8 C54 C53 -33.9(7) . .
Cu2 O8 C54 C56 146.0(5) . .
Cu2 O8 C54 C56' 144.2(8) . .
Cu2 O8 C54 C56" 142.3(8) . .
Cu2 N3 C27 C14 -11.7(5) . .
Cu2 N3 C27 C28 170.9(3) . .
Cu2 N3 C31 C30 -171.2(3) . .
Cu2 N4 C32 C15 14.5(5) . .
Cu2 N4 C32 C33 -172.4(3) . .
Cu2 N4 C36 C35 174.9(4) . .
O1 C39 C41 F4 56.1(11) . .
O1 C39 C41 F5 178.7(11) . .
O1 C39 C41 F6 -60.5(11) . .
O1 C39 C41' F4' -90(3) . .
O1 C39 C41' F5' 149(2) . .
O1 C39 C41' F6' 30(3) . .
O1 C39 C41" F4" -166.7(17) . .
O1 C39 C41" F5" -44(2) . .
O1 C39 C41" F6" 73(2) . .
O2 C37 C38 C39 -1.9(9) . .
O2 C37 C40 F1 -10.5(7) . .
O2 C37 C40 F2 111.0(5) . .
O2 C37 C40 F3 -131.4(5) . .
O3 C42 C43 C44 -0.8(9) . .
O3 C42 C45 F7 -49.6(8) . .
O3 C42 C45 F8 68.1(8) . .
O3 C42 C45 F9 -171.0(7) . .
O3 C42 C45' F7' 27(3) . .
O3 C42 C45' F8' 148(3) . .
O3 C42 C45' F9' -95(3) . .
O4 C44 C46 F10 29.2(10) . .
O4 C44 C46 F11 150.5(9) . .
O4 C44 C46 F12 -87.7(9) . .
O4 C44 C46' F10' 71(3) . .
O4 C44 C46' F11' -172(2) . .
O4 C44 C46' F12' -49(3) . .
O5 C47 C48 C49 3.8(8) . .
O5 C47 C50 F13 52.2(5) . .
O5 C47 C50 F14 172.9(4) . .
O5 C47 C50 F15 -66.8(5) . .
O6 C49 C51 F16 -167.7(11) . .
O6 C49 C51 F17 70.8(13) . .
O6 C49 C51 F18 -47.1(13) . .
O6 C49 C51' F16' 99.7(18) . .
O6 C49 C51' F17' -22.3(16) . .
O6 C49 C51' F18' -142.3(15) . .
O7 C52 C53 C54 0.4(9) . .
O7 C52 C55 F19 -116.7(8) . .
O7 C52 C55 F20 0.2(11) . .
O7 C52 C55 F21 122.4(8) . .
O7 C52 C55' F19' -59.2(13) . .
O7 C52 C55' F20' 63.6(14) . .
O7 C52 C55' F21' 178.1(12) . .
O8 C54 C56 F22 -166.5(10) . .
O8 C54 C56 F23 -46.1(12) . .
O8 C54 C56 F24 71.5(11) . .
O8 C54 C56' F22' -83.9(19) . .
O8 C54 C56' F23' 32(2) . .
O8 C54 C56' F24' 157.2(18) . .
O8 C54 C56" F22" -126.4(19) . .
O8 C54 C56" F23" -3(2) . .
O8 C54 C56" F24" 116(2) . .
N1 C1 C2 C3 1.0(7) . .
N3 C27 C28 C29 0.2(6) . .
N4 C32 C33 C34 -1.7(7) . .
C1 N1 C5 C4 -3.5(7) . .
C1 C2 C3 C4 -4.9(7) . .
C1 C2 C3 C6 171.5(4) . .
C2 C3 C4 C5 4.7(7) . .
C2 C3 C6 C7 -32.7(7) . .
C2 C3 C6 C11 152.6(5) . .
C3 C4 C5 N1 -0.5(8) . .
C3 C6 C7 C8 -173.2(4) . .
C3 C6 C11 C10 172.4(4) . .
C4 C3 C6 C7 143.5(5) . .
C4 C3 C6 C11 -31.2(7) . .
C5 N1 C1 C2 3.3(7) . .
C6 C3 C4 C5 -171.7(5) . .
C6 C7 C8 C9 0.8(8) . .
C7 C6 C11 C10 -2.5(7) . .
C7 C8 C9 C10 -2.7(7) . .
C7 C8 C9 C12 178.3(4) . .
C8 C9 C10 C11 1.9(7) . .
C8 C9 C12 C13 98.7(5) . .
C8 C9 C12 C15 -10.7(6) . .
C9 C10 C11 C6 0.6(7) . .
C9 C12 C13 C14 -147.6(4) . .
C9 C12 C13 C16 -28.3(5) . .
C9 C12 C15 C14 145.7(4) . .
C9 C12 C15 C32 -85.2(5) . .
C10 C9 C12 C13 -80.2(5) . .
C10 C9 C12 C15 170.3(4) . .
C11 C6 C7 C8 1.8(7) . .
C12 C9 C10 C11 -179.0(4) . .
C12 C13 C14 C15 20.1(3) . .
C12 C13 C14 C27 -98.0(4) . .
C12 C13 C16 C17 -75.4(5) . .
C12 C13 C16 C21 103.6(4) . .
C12 C15 C32 N4 -155.9(4) . .
C12 C15 C32 C33 30.8(5) . .
C13 C12 C15 C14 20.2(3) . .
C13 C12 C15 C32 149.3(3) . .
C13 C14 C15 C12 -20.4(3) . .
C13 C14 C15 C32 -145.0(4) . .
C13 C14 C27 N3 178.7(3) . .
C13 C14 C27 C28 -4.0(6) . .
C13 C16 C17 C18 179.0(4) . .
C13 C16 C21 C20 -178.9(4) . .
C14 C13 C16 C17 25.9(6) . .
C14 C13 C16 C21 -155.2(4) . .
C14 C15 C32 N4 -46.2(6) . .
C14 C15 C32 C33 140.5(4) . .
C14 C27 C28 C29 -176.9(4) . .
C15 C12 C13 C14 -20.5(3) . .
C15 C12 C13 C16 98.8(3) . .
C15 C14 C27 N3 77.5(4) . .
C15 C14 C27 C28 -105.2(5) . .
C15 C32 C33 C34 171.5(4) . .
C16 C13 C14 C15 -96.9(4) . .
C16 C13 C14 C27 145.0(4) . .
C16 C17 C18 C19 0.1(6) . .
C17 C16 C21 C20 0.1(6) . .
C17 C18 C19 C20 -0.5(6) . .
C17 C18 C19 C22 179.6(4) . .
C18 C19 C20 C21 0.6(6) . .
C18 C19 C22 C23 25.9(7) . .
C18 C19 C22 C25 -154.4(4) . .
C19 C20 C21 C16 -0.5(7) . .
C19 C22 C23 C24 177.7(5) . .
C19 C22 C25 C26 -177.9(4) . .
C20 C19 C22 C23 -154.1(5) . .
C20 C19 C22 C25 25.6(6) . .
C21 C16 C17 C18 0.1(6) . .
C22 C19 C20 C21 -179.4(4) . .
C22 C23 C24 N2 0.3(9) . .
C22 C25 C26 N2 0.2(7) . .
C23 C22 C25 C26 1.8(7) . .
C24 N2 C26 C25 -2.0(7) . .
C25 C22 C23 C24 -2.1(7) . .
C26 N2 C24 C23 1.8(8) . .
C27 N3 C31 C30 2.7(6) . .
C27 C14 C15 C12 97.5(4) . .
C27 C14 C15 C32 -27.0(5) . .
C27 C28 C29 C30 2.1(7) . .
C28 C29 C30 C31 -2.0(7) . .
C29 C30 C31 N3 -0.4(7) . .
C31 N3 C27 C14 174.8(4) . .
C31 N3 C27 C28 -2.6(6) . .
C32 N4 C36 C35 0.9(7) . .
C32 C33 C34 C35 0.5(7) . .
C33 C34 C35 C36 1.3(7) . .
C34 C35 C36 N4 -2.1(8) . .
C36 N4 C32 C15 -172.2(4) . .
C36 N4 C32 C33 1.0(6) . .
C37 C38 C39 O1 1.6(10) . .
C37 C38 C39 C41 179.9(7) . .
C37 C38 C39 C41' 179.0(11) . .
C37 C38 C39 C41" -163.8(14) . .
C38 C37 C40 F1 171.0(5) . .
C38 C37 C40 F2 -67.6(6) . .
C38 C37 C40 F3 50.1(7) . .
C38 C39 C41 F4 -122.4(10) . .
C38 C39 C41 F5 0.1(13) . .
C38 C39 C41 F6 120.9(10) . .
C38 C39 C41' F4' 92(2) . .
C38 C39 C41' F5' -28(3) . .
C38 C39 C41' F6' -147(3) . .
C38 C39 C41" F4" 1(2) . .
C38 C39 C41" F5" 123.7(18) . .
C38 C39 C41" F6" -119.1(18) . .
C40 C37 C38 C39 176.4(5) . .
C42 C43 C44 O4 -0.6(9) . .
C42 C43 C44 C46 -178.4(6) . .
C42 C43 C44 C46' -174.9(13) . .
C43 C42 C45 F7 131.7(7) . .
C43 C42 C45 F8 -110.6(8) . .
C43 C42 C45 F9 10.3(9) . .
C43 C42 C45' F7' -151(3) . .
C43 C42 C45' F8' -29(3) . .
C43 C42 C45' F9' 87(3) . .
C43 C44 C46 F10 -152.7(8) . .
C43 C44 C46 F11 -31.4(11) . .
C43 C44 C46 F12 90.4(9) . .
C43 C44 C46' F10' -113(2) . .
C43 C44 C46' F11' 4(3) . .
C43 C44 C46' F12' 127(2) . .
C45 C42 C43 C44 177.7(5) . .
C45' C42 C43 C44 176.5(14) . .
C47 C48 C49 O6 -4.7(7) . .
C47 C48 C49 C51 173.3(6) . .
C47 C48 C49 C51' 171.5(8) . .
C48 C47 C50 F13 -130.3(5) . .
C48 C47 C50 F14 -9.6(6) . .
C48 C47 C50 F15 110.8(5) . .
C48 C49 C51 F16 14.1(13) . .
C48 C49 C51 F17 -107.4(13) . .
C48 C49 C51 F18 134.8(12) . .
C48 C49 C51' F16' -77.1(19) . .
C48 C49 C51' F17' 160.9(13) . .
C48 C49 C51' F18' 40.9(19) . .
C50 C47 C48 C49 -173.2(4) . .
C52 C53 C54 O8 8.2(9) . .
C52 C53 C54 C56 -171.7(6) . .
C52 C53 C54 C56' -169.7(9) . .
C52 C53 C54 C56" -167.7(9) . .
C53 C52 C55 F19 69.7(9) . .
C53 C52 C55 F20 -173.5(8) . .
C53 C52 C55 F21 -51.3(10) . .
C53 C52 C55' F19' 110.0(12) . .
C53 C52 C55' F20' -127.2(13) . .
C53 C52 C55' F21' -12.7(16) . .
C53 C54 C56 F22 13.4(13) . .
C53 C54 C56 F23 133.8(10) . .
C53 C54 C56 F24 -108.6(10) . .
C53 C54 C56' F22' 94(2) . .
C53 C54 C56' F23' -149.3(18) . .
C53 C54 C56' F24' -25(2) . .
C53 C54 C56" F22" 50(2) . .
C53 C54 C56" F23" 173.2(17) . .
C53 C54 C56" F24" -68(2) . .
C55 C52 C53 C54 173.0(6) . .
C55' C52 C53 C54 -166.3(8) . .
Cl8' C59' Cl7' Cl7' 46(3) . 2_556
Cl9' C59' Cl7' Cl7' -75(3) . 2_556
