#------------------------------------------------------------------------------
#$Date: 2019-11-26 13:37:28 +0200 (Tue, 26 Nov 2019) $
#$Revision: 243433 $
#$URL: file:///home/coder/svn-repositories/cod/cif/4/13/37/4133726.cif $
#------------------------------------------------------------------------------
#
# This file is available in the Crystallography Open Database (COD),
# http://www.crystallography.net/
#
# All data on this site have been placed in the public domain by the
# contributors.
#
data_4133726
loop_
_publ_author_name
'Barnett, Brandon R.'
'Parker, Surya T.'
'Paley, Maria V.'
'Gonzalez, Miguel I.'
'Biggins, Naomi'
'Oktawiec, Julia'
'Long, Jeffrey R.'
_publ_section_title
;
 Thermodynamic Separation of 1-Butene from 2-Butene in Metal-Organic
 Frameworks with Open Metal Sites.
;
_journal_issue                   45
_journal_name_full               'Journal of the American Chemical Society'
_journal_page_first              18325
_journal_page_last               18333
_journal_paper_doi               10.1021/jacs.9b09942
_journal_volume                  141
_journal_year                    2019
_chemical_formula_moiety         '(C8 H2 Co2 O6), 1.48(C4 H8)'
_chemical_formula_sum            'C13.93 H13.86 Co2 O6'
_chemical_formula_weight         395.13
_chemical_name_common            Co2(dobdc)(trans-2-butene)1.48
_space_group_crystal_system      trigonal
_space_group_IT_number           148
_space_group_name_Hall           '-R 3'
_space_group_name_H-M_alt        'R -3 :H'
_atom_sites_solution_hydrogens   geom
_atom_sites_solution_primary     direct
_atom_sites_solution_secondary   difmap
_audit_creation_date             2019-08-12
_audit_creation_method
;
Olex2 1.2
(compiled 2018.05.29 svn.r3510 for OlexSys, GUI svn.r5506)
;
_cell_angle_alpha                90
_cell_angle_beta                 90
_cell_angle_gamma                120
_cell_formula_units_Z            9
_cell_length_a                   25.8130(11)
_cell_length_b                   25.8130(11)
_cell_length_c                   6.8924(3)
_cell_measurement_reflns_used    9805
_cell_measurement_temperature    100(2)
_cell_measurement_theta_max      37.96
_cell_measurement_theta_min      3.37
_cell_volume                     3977.2(3)
_computing_cell_refinement       'SAINT V8.38A (?, 2016)'
_computing_data_collection       'Bruker APEX3'
_computing_data_reduction        'SAINT V8.38A (?, 2016)'
_computing_molecular_graphics    'Olex2 (Dolomanov et al., 2009)'
_computing_publication_material  'Olex2 (Dolomanov et al., 2009)'
_computing_structure_refinement  'ShelXL (Sheldrick, 2015)'
_computing_structure_solution    'ShelXS (Sheldrick, )'
_diffrn_ambient_temperature      100(2)
_diffrn_detector_area_resol_mean 10.42
_diffrn_measured_fraction_theta_full 0.997
_diffrn_measured_fraction_theta_max 0.994
_diffrn_measurement_device_type  'Bruker D8 with PHOTON100 CMOS detector'
_diffrn_measurement_method       '\f and \w shutterless scans'
_diffrn_radiation_monochromator  'silicon 111'
_diffrn_radiation_type           synchrotron
_diffrn_radiation_wavelength     0.7749
_diffrn_reflns_av_R_equivalents  0.0532
_diffrn_reflns_av_unetI/netI     0.0396
_diffrn_reflns_Laue_measured_fraction_full 0.997
_diffrn_reflns_Laue_measured_fraction_max 0.994
_diffrn_reflns_limit_h_max       19
_diffrn_reflns_limit_h_min       -40
_diffrn_reflns_limit_k_max       40
_diffrn_reflns_limit_k_min       0
_diffrn_reflns_limit_l_max       10
_diffrn_reflns_limit_l_min       0
_diffrn_reflns_number            41645
_diffrn_reflns_point_group_measured_fraction_full 0.997
_diffrn_reflns_point_group_measured_fraction_max 0.994
_diffrn_reflns_theta_full        27.706
_diffrn_reflns_theta_max         37.960
_diffrn_reflns_theta_min         3.372
_diffrn_source                   'Advanced Light Source station 11.3.1'
_diffrn_standards_number         0
_exptl_absorpt_coefficient_mu    2.405
_exptl_absorpt_correction_T_max  0.967
_exptl_absorpt_correction_T_min  0.358
_exptl_absorpt_correction_type   multi-scan
_exptl_absorpt_process_details
;
 TWINABS-2012/1 (Bruker,2012) was used for absorption correction.

Final HKLF 4 output contains 41645 reflections, Rint = 0.0532
 (29969 with I > 3sig(I), Rint = 0.0493)
;
_exptl_crystal_colour            violet
_exptl_crystal_colour_primary    violet
_exptl_crystal_density_diffrn    1.485
_exptl_crystal_density_method    'not measured'
_exptl_crystal_description       needle
_exptl_crystal_F_000             1795
_exptl_crystal_size_max          0.07
_exptl_crystal_size_mid          0.014
_exptl_crystal_size_min          0.014
_refine_diff_density_max         1.851
_refine_diff_density_min         -0.742
_refine_diff_density_rms         0.136
_refine_ls_extinction_method     none
_refine_ls_goodness_of_fit_ref   1.052
_refine_ls_hydrogen_treatment    constr
_refine_ls_matrix_type           full
_refine_ls_number_parameters     113
_refine_ls_number_reflns         3780
_refine_ls_number_restraints     16
_refine_ls_restrained_S_all      1.058
_refine_ls_R_factor_all          0.0551
_refine_ls_R_factor_gt           0.0455
_refine_ls_shift/su_max          0.002
_refine_ls_shift/su_mean         0.000
_refine_ls_structure_factor_coef Fsqd
_refine_ls_weighting_details
'w=1/[\s^2^(Fo^2^)+(0.0649P)^2^+12.8204P] where P=(Fo^2^+2Fc^2^)/3'
_refine_ls_weighting_scheme      calc
_refine_ls_wR_factor_gt          0.1188
_refine_ls_wR_factor_ref         0.1236
_reflns_Friedel_coverage         0.000
_reflns_number_gt                3304
_reflns_number_total             3780
_reflns_threshold_expression     'I > 2\s(I)'
_cod_data_source_file            ja9b09942_si_001.cif
_cod_data_source_block           Co2dobdc_trans-2-butene_1.48
_cod_original_cell_volume        3977.2(4)
_cod_original_sg_symbol_H-M      'R -3'
_cod_database_code               4133726
_shelx_shelxl_version_number     2018/3
_shelx_space_group_comment
;
The symmetry employed for this shelxl refinement is uniquely defined
by the following loop, which should always be used as a source of
symmetry information in preference to the above space-group names.
They are only intended as comments.
;
_shelx_estimated_absorpt_t_max   0.967
_shelx_estimated_absorpt_t_min   0.850
_olex2_refinement_description
;
1. Twinned data refinement
 Scales: 0.5771(16)
 0.4229(16)
2. Fixed Uiso
 At 1.2 times of:
  All C(H) groups
 At 1.5 times of:
  All C(H,H,H) groups
3. Restrained distances
 C5_$1-C6_$1 \\sim C8_$1-C7_$1
 with sigma of 0.02
4. Rigid body (RIGU) restrains
 C8, C7, C6, C5
 with sigma for 1-2 distances of 0.004 and sigma for 1-3 distances of 0.004
5. Others
 Sof(C7)=Sof(H7)=Sof(C8)=Sof(H8A)=Sof(H8B)=Sof(H8C)=Sof(C6)=Sof(H6)=Sof(C5)=
 Sof(H5A)=Sof(H5B)=Sof(H5C)=FVAR(1)
6.a Aromatic/amide H refined with riding coordinates:
 C3(H3), C7(H7), C6(H6)
6.b Idealised Me refined as rotating group:
 C8(H8A,H8B,H8C), C5(H5A,H5B,H5C)
;
_shelx_res_file
;
TITL twin4 in R-3
    twin4.res
    created by SHELXL-2018/3 at 11:53:02 on 12-Aug-2019
CELL 0.7749 25.813 25.813 6.8924 90 90 120
ZERR 9 0.0011 0.0011 0.0003 0 0 0
LATT 3
SYMM -Y,+X-Y,+Z
SYMM +Y-X,-X,+Z
SFAC C H Co O
DISP C 0.004 0.002 13.872
DISP Co 0.355 1.13 5089.307
DISP H -0 0 0.627
DISP O 0.014 0.007 40.889
UNIT 125.37 124.74 18 54
EQIV $1 0.667+Y-X,1.333-X,0.333+Z
SADI C5_$1 C6_$1 C8_$1 C7_$1
RIGU C8 C7 C6 C5

L.S. 10 0 0
PLAN  20
SIZE 0.07 0.014 0.014
TEMP -173(2)
BOND $H
LIST 6
MORE -1
CONF
fmap 2 53
acta
REM <olex2.extras>
REM <HklSrc "%./twin5.hkl">
REM </olex2.extras>

WGHT    0.064900   12.820400
BASF   0.42292
FVAR       0.29034   0.74122
CO1   3    0.648810    0.616484    0.641270    11.00000    0.01454    0.01558 =
         0.00679   -0.00042   -0.00055    0.00609
O1    4    0.726929    0.646774    0.502333    11.00000    0.01645    0.02315 =
         0.00968    0.00060   -0.00085    0.01115
O2    4    0.703535    0.673326    0.858607    11.00000    0.01589    0.02229 =
         0.00838   -0.00169   -0.00055    0.01069
O3    4    0.769309    0.695909    1.095993    11.00000    0.01750    0.02525 =
         0.00835   -0.00194   -0.00011    0.01210
C4    1    0.752687    0.680497    0.923779    11.00000    0.01551    0.01633 =
         0.00981   -0.00076    0.00017    0.00879
C2    1    0.792098    0.671955    0.787195    11.00000    0.01979    0.02154 =
         0.01014   -0.00026    0.00073    0.01299
C3    1    0.846523    0.680842    0.859445    11.00000    0.01934    0.02322 =
         0.00920   -0.00159    0.00021    0.01229
AFIX  43
H3    2    0.855305    0.690606    0.992793    11.00000   -1.20000
AFIX   0
C1    1    0.778191    0.657235    0.587557    11.00000    0.01846    0.02027 =
         0.00980   -0.00036   -0.00095    0.01114
C7    1    0.649496    0.513195    0.767889    21.00000    0.07303    0.09264 =
         0.16009    0.07565    0.06402    0.06024
AFIX  43
H7    2    0.610012    0.504603    0.738667    21.00000   -1.20000
AFIX   0
C8    1    0.671308    0.525093    0.969653    21.00000    0.07135    0.04815 =
         0.19524    0.03629    0.05732    0.03776
AFIX 137
H8A   2    0.713012    0.534282    0.973262    21.00000   -1.50000
H8B   2    0.646687    0.489709    1.049477    21.00000   -1.50000
H8C   2    0.668729    0.559201    1.020376    21.00000   -1.50000
AFIX   0
C6    1    0.683178    0.514458    0.635372    21.00000    0.08231    0.05878 =
         0.15875    0.02547    0.01773    0.03412
AFIX  43
H6    2    0.724128    0.529398    0.665839    21.00000   -1.20000
AFIX   0
C5    1    0.664207    0.494994    0.441989    21.00000    0.13852    0.07719 =
         0.20023   -0.06450   -0.03926    0.08073
AFIX 137
H5A   2    0.678468    0.529861    0.356626    21.00000   -1.50000
H5B   2    0.620419    0.471703    0.437615    21.00000   -1.50000
H5C   2    0.680663    0.470007    0.398473    21.00000   -1.50000
AFIX   0
HKLF 5




REM  twin4 in R-3
REM wR2 = 0.1236, GooF = S = 1.052, Restrained GooF = 1.058 for all data
REM R1 = 0.0455 for 3304 Fo > 4sig(Fo) and 0.0551 for all 3780 data
REM 113 parameters refined using 16 restraints

END

WGHT      0.0653     12.7509

REM Highest difference peak  1.851,  deepest hole -0.742,  1-sigma level  0.136
Q1    1   0.6510  0.5447  0.7628  11.00000  0.05    1.85
Q2    1   0.6414  0.5080  0.7108  11.00000  0.05    0.88
Q3    1   0.6803  0.5225  0.8259  11.00000  0.05    0.80
Q4    1   0.7227  0.5324  0.9285  11.00000  0.05    0.74
Q5    1   0.6667  0.3333  0.3333  10.16667  0.05    0.66
Q6    1   0.6667  0.3333  0.4251  10.33333  0.05    0.63
Q7    1   0.6588  0.5382  0.8549  11.00000  0.05    0.51
Q8    1   0.7331  0.6269  0.9753  11.00000  0.05    0.49
Q9    1   0.6667  0.3333  0.5307  10.33333  0.05    0.49
Q10   1   0.6689  0.3526  0.8013  11.00000  0.05    0.48
Q11   1   0.7772  0.6764  0.8750  11.00000  0.05    0.48
Q12   1   0.6775  0.6493  0.9731  11.00000  0.05    0.47
Q13   1   0.6514  0.6355  0.5925  11.00000  0.05    0.45
Q14   1   0.7182  0.6293  0.4392  11.00000  0.05    0.44
Q15   1   0.7476  0.5732  0.5229  11.00000  0.05    0.43
Q16   1   0.6923  0.6472  0.8907  11.00000  0.05    0.41
Q17   1   0.6945  0.6853  0.9093  11.00000  0.05    0.41
Q18   1   0.6667  0.3333  0.8333  10.16667  0.05    0.40
Q19   1   0.8045  0.6749  0.4994  11.00000  0.05    0.39
Q20   1   0.6715  0.6553  0.8534  11.00000  0.05    0.39
;
_shelx_res_checksum              71388
_shelx_hkl_file
;
  -2   4   0 1325.15 17.1254  -2
  -2   4   0 1325.15 17.1254   1
  -1   5   0 2165.17 32.2724  -2
  -4   5   0 2165.17 32.2724   1
  -4   5   0 1701.46 23.3130  -2
  -1   5   0 1701.46 23.3130   1
  -3   6   0 21.3843 1.13476  -2
  -3   6   0 21.3843 1.13476   1
  -2   7   0 2719.47 37.6158  -2
  -5   7   0 2719.47 37.6158   1
  -5   7   0 1966.12 25.3229  -2
  -2   7   0 1966.12 25.3229   1
  -1   8   0 2805.72 38.3958  -2
  -7   8   0 2805.72 38.3958   1
  -4   8   0 1162.91 15.1109  -2
  -4   8   0 1162.91 15.1109   1
  -7   8   0 2036.06 26.2136  -2
  -1   8   0 2036.06 26.2136   1
  -3   9   0 1298.75 17.5411  -2
  -6   9   0 1298.75 17.5411   1
  -6   9   0 1280.75 16.6362  -2
  -3   9   0 1280.75 16.6362   1
   0   9   0 21.5981 1.51771  -2
   0   9   0 21.5981 1.51771   1
  -2  10   0 1908.25 29.2773  -2
  -8  10   0 1908.25 29.2773   1
  -5  10   0 1167.88 15.2222  -2
  -5  10   0 1167.88 15.2222   1
  -8  10   0 1533.19 20.7037  -2
  -2  10   0 1533.19 20.7037   1
  -1  11   0 2273.52 31.5920  -2
 -10  11   0 2273.52 31.5920   1
  -4  11   0 1587.56 20.5807  -2
  -7  11   0 1587.56 20.5807   1
  -7  11   0 2006.71 26.9311  -2
  -4  11   0 2006.71 26.9311   1
 -10  11   0 2901.89 38.4903  -2
  -1  11   0 2901.89 38.4903   1
  -3  12   0 1891.13 26.6063  -2
  -9  12   0 1891.13 26.6063   1
  -6  12   0 192.012 3.19580  -2
  -6  12   0 192.012 3.19580   1
  -9  12   0 1563.46 21.9148  -2
  -3  12   0 1563.46 21.9148   1
   0  12   0 265.270 4.42572  -2
   0  12   0 265.270 4.42572   1
  -2  13   0 3201.25 44.3492  -2
 -11  13   0 3201.25 44.3492   1
  -5  13   0 611.689 9.12765  -2
  -8  13   0 611.689 9.12765   1
  -8  13   0 809.357 11.7123  -2
  -5  13   0 809.357 11.7123   1
 -11  13   0 2690.88 34.6552  -2
  -2  13   0 2690.88 34.6552   1
  -1  14   0 4091.67 52.4659  -2
 -13  14   0 4091.67 52.4659   1
  -4  14   0 2197.54 28.4227  -2
 -10  14   0 2197.54 28.4227   1
  -7  14   0 1458.98 20.7855  -2
  -7  14   0 1458.98 20.7855   1
 -10  14   0 3005.54 38.6495  -2
  -4  14   0 3005.54 38.6495   1
 -13  14   0 4751.47 67.9325  -2
  -1  14   0 4751.47 67.9325   1
  -3  15   0 1820.44 25.8167  -2
 -12  15   0 1820.44 25.8167   1
  -6  15   0 921.633 12.8890  -2
  -9  15   0 921.633 12.8890   1
  -9  15   0 867.203 13.1580  -2
  -6  15   0 867.203 13.1580   1
 -12  15   0 2179.35 31.8237  -2
  -3  15   0 2179.35 31.8237   1
   0  15   0 760.520 10.7737  -2
   0  15   0 760.520 10.7737   1
  -2  16   0 2336.26 34.1887  -2
 -14  16   0 2336.26 34.1887   1
  -5  16   0 637.733 8.90919  -2
 -11  16   0 637.733 8.90919   1
  -8  16   0 218.904 4.13902  -2
  -8  16   0 218.904 4.13902   1
 -11  16   0 621.488 9.12682  -2
  -5  16   0 621.488 9.12682   1
 -14  16   0 2137.97 27.8625  -2
  -2  16   0 2137.97 27.8625   1
  -1  17   0 2767.11 38.4660  -2
 -16  17   0 2767.11 38.4660   1
  -4  17   0 3486.16 46.3630  -2
 -13  17   0 3486.16 46.3630   1
  -7  17   0 958.914 13.4234  -2
 -10  17   0 958.914 13.4234   1
 -10  17   0 1285.49 17.5955  -2
  -7  17   0 1285.49 17.5955   1
 -13  17   0 4573.37 60.4486  -2
  -4  17   0 4573.37 60.4486   1
 -16  17   0 3344.32 44.5432  -2
  -1  17   0 3344.32 44.5432   1
  -3  18   0 785.200 11.6886  -2
 -15  18   0 785.200 11.6886   1
  -6  18   0 556.831 8.08343  -2
 -12  18   0 556.831 8.08343   1
  -9  18   0 69.7787 2.50017  -2
  -9  18   0 69.7787 2.50017   1
 -12  18   0 733.933 10.2041  -2
  -6  18   0 733.933 10.2041   1
 -15  18   0 1083.29 14.5663  -2
  -3  18   0 1083.29 14.5663   1
   0  18   0 115.867 3.23749  -2
   0  18   0 115.867 3.23749   1
  -2  19   0 420.833 6.84245  -2
 -17  19   0 420.833 6.84245   1
  -5  19   0 267.197 4.94862  -2
 -14  19   0 267.197 4.94862   1
  -8  19   0 31.7204 2.14869  -2
 -11  19   0 31.7204 2.14869   1
 -11  19   0 39.2049 2.48801  -2
  -8  19   0 39.2049 2.48801   1
 -14  19   0 380.382 6.02957  -2
  -5  19   0 380.382 6.02957   1
 -17  19   0 405.500 6.64857  -2
  -2  19   0 405.500 6.64857   1
  -1  20   0 175.852 4.07781  -2
 -19  20   0 175.852 4.07781   1
  -4  20   0 1258.39 18.6259  -2
 -16  20   0 1258.39 18.6259   1
  -7  20   0 677.212 9.71237  -2
 -13  20   0 677.212 9.71237   1
 -10  20   0 9.58328 2.23798  -2
 -10  20   0 9.58328 2.23798   1
 -13  20   0 800.923 11.2045  -2
  -7  20   0 800.923 11.2045   1
 -16  20   0 1467.59 20.0111  -2
  -4  20   0 1467.59 20.0111   1
 -19  20   0 223.942 4.35997  -2
  -1  20   0 223.942 4.35997   1
  -3  21   0 553.912 8.55756  -2
 -18  21   0 553.912 8.55756   1
  -6  21   0 978.552 13.8311  -2
 -15  21   0 978.552 13.8311   1
  -9  21   0 305.408 5.44917  -2
 -12  21   0 305.408 5.44917   1
 -12  21   0 280.443 5.53969  -2
  -9  21   0 280.443 5.53969   1
 -15  21   0 873.394 12.1383  -2
  -6  21   0 873.394 12.1383   1
 -18  21   0 660.088 9.84376  -2
  -3  21   0 660.088 9.84376   1
   0  21   0 380.181 7.11310  -2
   0  21   0 380.181 7.11310   1
  -2  22   0 512.064 8.08662  -2
 -20  22   0 512.064 8.08662   1
  -5  22   0 167.542 4.03614  -2
 -17  22   0 167.542 4.03614   1
  -8  22   0 100.911 3.20093  -2
 -14  22   0 100.911 3.20093   1
 -11  22   0 273.063 4.97162  -2
 -11  22   0 273.063 4.97162   1
 -14  22   0 109.757 3.40200  -2
  -8  22   0 109.757 3.40200   1
 -17  22   0 215.112 4.49933  -2
  -5  22   0 215.112 4.49933   1
 -20  22   0 717.843 10.6503  -2
  -2  22   0 717.843 10.6503   1
  -1  23   0 653.684 12.9096  -2
 -22  23   0 653.684 12.9096   1
  -4  23   0 387.587 6.90533  -2
 -19  23   0 387.587 6.90533   1
  -7  23   0 790.748 11.2286  -2
 -16  23   0 790.748 11.2286   1
 -10  23   0 797.184 12.1277  -2
 -13  23   0 797.184 12.1277   1
 -13  23   0 659.544 9.61254  -2
 -10  23   0 659.544 9.61254   1
 -16  23   0 630.336 9.59445  -2
  -7  23   0 630.336 9.59445   1
 -19  23   0 354.183 6.19557  -2
  -4  23   0 354.183 6.19557   1
 -22  23   0 617.384 15.2359  -2
  -1  23   0 617.384 15.2359   1
  -3  24   0 33.8584 3.72914  -2
 -21  24   0 33.8584 3.72914   1
  -6  24   0 1094.56 18.3869  -2
 -18  24   0 1094.56 18.3869   1
  -9  24   0 1822.94 25.6777  -2
 -15  24   0 1822.94 25.6777   1
 -12  24   0 518.113 8.24444  -2
 -12  24   0 518.113 8.24444   1
 -15  24   0 1364.22 19.5020  -2
  -9  24   0 1364.22 19.5020   1
 -18  24   0 801.974 12.6858  -2
  -6  24   0 801.974 12.6858   1
 -21  24   0 43.3245 3.90698  -2
  -3  24   0 43.3245 3.90698   1
   0  24   0 18.3868 4.74346  -2
   0  24   0 18.3868 4.74346   1
  -2  25   0 573.437 11.3172  -2
 -23  25   0 573.437 11.3172   1
  -5  25   0 260.879 6.04742  -2
 -20  25   0 260.879 6.04742   1
  -8  25   0 276.748 6.22302  -2
 -17  25   0 276.748 6.22302   1
 -11  25   0 143.664 4.57320  -2
 -14  25   0 143.664 4.57320   1
 -14  25   0 103.604 4.14444  -2
 -11  25   0 103.604 4.14444   1
 -17  25   0 221.035 5.97025  -2
  -8  25   0 221.035 5.97025   1
 -20  25   0 341.068 8.72856  -2
  -5  25   0 341.068 8.72856   1
 -23  25   0 597.330 16.8532  -2
  -2  25   0 597.330 16.8532   1
  -1  26   0 205.055 7.57838  -2
 -25  26   0 205.055 7.57838   1
  -4  26   0 197.263 6.28039  -2
 -22  26   0 197.263 6.28039   1
  -7  26   0 582.229 10.5329  -2
 -19  26   0 582.229 10.5329   1
 -10  26   0 604.475 9.56660  -2
 -16  26   0 604.475 9.56660   1
 -13  26   0 104.231 4.00665  -2
 -13  26   0 104.231 4.00665   1
 -16  26   0 555.369 10.0150  -2
 -10  26   0 555.369 10.0150   1
 -19  26   0 559.974 10.6997  -2
  -7  26   0 559.974 10.6997   1
 -22  26   0 255.303 7.11497  -2
  -4  26   0 255.303 7.11497   1
 -25  26   0 181.826 6.78896  -2
  -1  26   0 181.826 6.78896   1
  -3  27   0 118.934 5.58351  -2
 -24  27   0 118.934 5.58351   1
  -6  27   0 195.792 6.24415  -2
 -21  27   0 195.792 6.24415   1
  -9  27   0 1291.73 22.8173  -2
 -18  27   0 1291.73 22.8173   1
 -12  27   0 726.523 12.5627  -2
 -15  27   0 726.523 12.5627   1
 -15  27   0 568.849 10.2889  -2
 -12  27   0 568.849 10.2889   1
 -18  27   0 949.939 17.6035  -2
  -9  27   0 949.939 17.6035   1
 -21  27   0 151.207 6.31626  -2
  -6  27   0 151.207 6.31626   1
 -24  27   0 139.208 6.03659  -2
  -3  27   0 139.208 6.03659   1
   0  27   0 72.2700 5.31270  -2
   0  27   0 72.2700 5.31270   1
  -2  28   0 229.576 7.65440  -2
 -26  28   0 229.576 7.65440   1
  -5  28   0 474.974 12.9124  -2
 -23  28   0 474.974 12.9124   1
  -8  28   0 309.551 8.60285  -2
 -20  28   0 309.551 8.60285   1
 -11  28   0 217.874 6.46650  -2
 -17  28   0 217.874 6.46650   1
 -14  28   0 229.012 6.28463  -2
 -14  28   0 229.012 6.28463   1
 -17  28   0 185.163 5.21736  -2
 -11  28   0 185.163 5.21736   1
 -20  28   0 351.414 10.8832  -2
  -8  28   0 351.414 10.8832   1
 -23  28   0 575.448 13.5213  -2
  -5  28   0 575.448 13.5213   1
 -26  28   0 289.217 8.67740  -2
  -2  28   0 289.217 8.67740   1
  -1  29   0 27.7138 4.88334  -2
 -28  29   0 27.7138 4.88334   1
  -4  29   0 56.4476 4.89666  -2
 -25  29   0 56.4476 4.89666   1
  -7  29   0 199.122 9.52852  -2
 -22  29   0 199.122 9.52852   1
 -10  29   0 434.938 11.9517  -2
 -19  29   0 434.938 11.9517   1
 -13  29   0 25.7105 4.24302  -2
 -16  29   0 25.7105 4.24302   1
 -16  29   0 23.1940 4.00940  -2
 -13  29   0 23.1940 4.00940   1
 -19  29   0 385.069 12.2750  -2
 -10  29   0 385.069 12.2750   1
 -22  29   0 243.150 7.98438  -2
  -7  29   0 243.150 7.98438   1
 -25  29   0 55.7525 5.47611  -2
  -4  29   0 55.7525 5.47611   1
 -28  29   0 23.1080 5.35246  -2
  -1  29   0 23.1080 5.35246   1
  -3  30   0 57.7602 5.23439  -2
 -27  30   0 57.7602 5.23439   1
  -6  30   0 130.663 6.11635  -2
 -24  30   0 130.663 6.11635   1
  -9  30   0 192.029 8.63654  -2
 -21  30   0 192.029 8.63654   1
 -12  30   0 310.464 9.38552  -2
 -18  30   0 310.464 9.38552   1
 -15  30   0 183.363 6.59365  -2
 -15  30   0 183.363 6.59365   1
 -18  30   0 241.787 9.46777  -2
 -12  30   0 241.787 9.46777   1
 -21  30   0 154.706 6.68102  -2
  -9  30   0 154.706 6.68102   1
 -24  30   0 147.868 6.60235  -2
  -6  30   0 147.868 6.60235   1
 -27  30   0 69.6637 5.84345  -2
  -3  30   0 69.6637 5.84345   1
   0  30   0 118.542 6.47470  -2
   0  30   0 118.542 6.47470   1
  -2  31   0 117.568 6.48701  -2
 -29  31   0 117.568 6.48701   1
  -5  31   0 262.013 8.47259  -2
 -26  31   0 262.013 8.47259   1
  -8  31   0 277.940 9.27619  -2
 -23  31   0 277.940 9.27619   1
 -11  31   0 122.343 6.74971  -2
 -20  31   0 122.343 6.74971   1
 -14  31   0 128.529 6.61296  -2
 -17  31   0 128.529 6.61296   1
 -17  31   0 105.218 6.91738  -2
 -14  31   0 105.218 6.91738   1
 -20  31   0 179.784 7.22778  -2
 -11  31   0 179.784 7.22778   1
 -23  31   0 357.836 10.1176  -2
  -8  31   0 357.836 10.1176   1
 -26  31   0 317.274 9.44430  -2
  -5  31   0 317.274 9.44430   1
 -29  31   0 116.536 7.30245  -2
  -2  31   0 116.536 7.30245   1
  -1  32   0 14.9517 5.22746  -2
 -31  32   0 14.9517 5.22746   1
  -4  32   0 55.7165 5.33953  -2
 -28  32   0 55.7165 5.33953   1
  -7  32   0 109.458 6.84547  -2
 -25  32   0 109.458 6.84547   1
 -10  32   0 107.382 6.54481  -2
 -22  32   0 107.382 6.54481   1
 -13  32   0 13.0580 5.69014  -2
 -19  32   0 13.0580 5.69014   1
 -16  32   0 34.6655 5.64035  -2
 -16  32   0 34.6655 5.64035   1
 -19  32   0 24.9833 5.50944  -2
 -13  32   0 24.9833 5.50944   1
 -22  32   0 137.705 6.77703  -2
 -10  32   0 137.705 6.77703   1
 -25  32   0 111.840 6.48353  -2
  -7  32   0 111.840 6.48353   1
 -28  32   0 69.2373 5.95757  -2
  -4  32   0 69.2373 5.95757   1
 -31  32   0 20.2651 5.35444  -2
  -1  32   0 20.2651 5.35444   1
  -3  33   0 35.8777 5.41042  -2
 -30  33   0 35.8777 5.41042   1
  -6  33   0 19.4536 6.04416  -2
 -27  33   0 19.4536 6.04416   1
  -9  33   0 44.9342 6.11149  -2
 -24  33   0 44.9342 6.11149   1
 -12  33   0 43.6411 6.26620  -2
 -21  33   0 43.6411 6.26620   1
 -15  33   0 43.9970 6.17576  -2
 -18  33   0 43.9970 6.17576   1
 -18  33   0 43.2828 6.01633  -2
 -15  33   0 43.2828 6.01633   1
 -21  33   0 41.2319 5.96170  -2
 -12  33   0 41.2319 5.96170   1
 -24  33   0 33.6009 5.93656  -2
  -9  33   0 33.6009 5.93656   1
 -27  33   0 20.6047 5.78570  -2
  -6  33   0 20.6047 5.78570   1
 -30  33   0 24.2220 5.86718  -2
  -3  33   0 24.2220 5.86718   1
   0  33   0 16.4125 5.08316  -2
   0  33   0 16.4125 5.08316   1
  -2  34   0 65.8196 7.12544  -2
 -32  34   0 65.8196 7.12544   1
  -5  34   0 142.187 7.66243  -2
 -29  34   0 142.187 7.66243   1
  -8  34   0 100.746 7.64639  -2
 -26  34   0 100.746 7.64639   1
 -11  34   0 64.8116 7.08198  -2
 -23  34   0 64.8116 7.08198   1
 -14  34   0 94.4119 7.56647  -2
 -20  34   0 94.4119 7.56647   1
 -17  34   0 322.549 11.8193  -2
 -17  34   0 322.549 11.8193   1
 -20  34   0 96.1101 6.79344  -2
 -14  34   0 96.1101 6.79344   1
 -23  34   0 95.1928 6.70279  -2
 -11  34   0 95.1928 6.70279   1
 -26  34   0 127.568 6.94255  -2
  -8  34   0 127.568 6.94255   1
 -29  34   0 137.404 7.87964  -2
  -5  34   0 137.404 7.87964   1
 -32  34   0 42.1039 5.73593  -2
  -2  34   0 42.1039 5.73593   1
  -1  35   0 11.9373 10.1944  -2
 -34  35   0 11.9373 10.1944   1
  -4  35   0 20.6351 8.69680  -2
 -31  35   0 20.6351 8.69680   1
  -7  35   0 85.7784 7.78748  -2
 -28  35   0 85.7784 7.78748   1
 -10  35   0 40.5579 7.22406  -2
 -25  35   0 40.5579 7.22406   1
 -13  35   0 52.5411 7.18826  -2
 -22  35   0 52.5411 7.18826   1
 -16  35   0 331.306 11.9670  -2
 -19  35   0 331.306 11.9670   1
 -19  35   0 364.220 12.4739  -2
 -16  35   0 364.220 12.4739   1
 -22  35   0 41.3146 6.43646  -2
 -13  35   0 41.3146 6.43646   1
 -25  35   0 46.4860 6.38198  -2
 -10  35   0 46.4860 6.38198   1
 -28  35   0 115.940 6.97045  -2
  -7  35   0 115.940 6.97045   1
 -31  35   0 28.0690 6.12804  -2
  -4  35   0 28.0690 6.12804   1
 -34  35   0 3.36019 6.15236  -2
  -1  35   0 3.36019 6.15236   1
  -3  36   0 69.1389 8.68322  -2
 -33  36   0 69.1389 8.68322   1
  -6  36   0 113.290 15.8490  -2
 -30  36   0 113.290 15.8490   1
  -9  36   0 85.8530 7.86903  -2
 -27  36   0 85.8530 7.86903   1
 -12  36   0 50.7146 8.01492  -2
 -24  36   0 50.7146 8.01492   1
 -15  36   0 34.7424 7.69210  -2
 -21  36   0 34.7424 7.69210   1
 -18  36   0 59.9613 7.26731  -2
 -18  36   0 59.9613 7.26731   1
 -21  36   0 30.3750 6.89683  -2
 -15  36   0 30.3750 6.89683   1
 -24  36   0 44.8147 7.40402  -2
 -12  36   0 44.8147 7.40402   1
 -27  36   0 61.9641 6.63504  -2
  -9  36   0 61.9641 6.63504   1
 -30  36   0 94.5816 7.47892  -2
  -6  36   0 94.5816 7.47892   1
 -33  36   0 88.8722 7.30320  -2
  -3  36   0 88.8722 7.30320   1
  -5  37   0 225.229 13.0183  -2
 -32  37   0 225.229 13.0183   1
  -8  37   0 150.319 16.2112  -2
 -29  37   0 150.319 16.2112   1
 -11  37   0 103.639 18.9964  -2
 -26  37   0 103.639 18.9964   1
 -14  37   0 16.1466 7.52104  -2
 -23  37   0 16.1466 7.52104   1
 -17  37   0 185.925 9.56331  -2
 -20  37   0 185.925 9.56331   1
 -20  37   0 209.184 10.0000  -2
 -17  37   0 209.184 10.0000   1
 -23  37   0 22.5903 7.37534  -2
 -14  37   0 22.5903 7.37534   1
 -26  37   0 80.4519 7.85784  -2
 -11  37   0 80.4519 7.85784   1
 -29  37   0 141.672 10.8082  -2
  -8  37   0 141.672 10.8082   1
 -32  37   0 198.571 11.8263  -2
  -5  37   0 198.571 11.8263   1
  -7  38   0 31.2134 7.80108  -2
 -31  38   0 31.2134 7.80108   1
 -10  38   0 38.5865 7.87874  -2
 -28  38   0 38.5865 7.87874   1
 -13  38   0 19.4000 25.0761  -2
 -25  38   0 19.4000 25.0761   1
 -16  38   0 402.725 36.3052  -2
 -22  38   0 402.725 36.3052   1
 -19  38   0 804.640 26.2633  -2
 -19  38   0 804.640 26.2633   1
 -22  38   0 381.366 15.6201  -2
 -16  38   0 381.366 15.6201   1
 -25  38   0 68.1628 15.5350  -2
 -13  38   0 68.1628 15.5350   1
 -28  38   0 12.2692 12.1415  -2
 -10  38   0 12.2692 12.1415   1
 -31  38   0 40.9017 7.03070  -2
  -7  38   0 40.9017 7.03070   1
  -9  39   0 139.807 9.77740  -2
 -30  39   0 139.807 9.77740   1
 -12  39   0 112.716 9.03668  -2
 -27  39   0 112.716 9.03668   1
 -15  39   0 97.6656 8.83340  -2
 -24  39   0 97.6656 8.83340   1
 -18  39   0 123.009 14.7843  -2
 -21  39   0 123.009 14.7843   1
 -21  39   0 170.756 15.1338  -2
 -18  39   0 170.756 15.1338   1
 -24  39   0 79.5446 10.5246  -2
 -15  39   0 79.5446 10.5246   1
 -27  39   0 83.9298 10.8032  -2
 -12  39   0 83.9298 10.8032   1
 -30  39   0 150.409 10.6226  -2
  -9  39   0 150.409 10.6226   1
 -14  40   0 32.6406 8.03047  -2
 -26  40   0 32.6406 8.03047   1
 -17  40   0 58.2593 8.18634  -2
 -23  40   0 58.2593 8.18634   1
 -20  40   0 203.480 11.3503  -2
 -20  40   0 203.480 11.3503   1
 -23  40   0 76.4857 7.23857  -2
 -17  40   0 76.4857 7.23857   1
 -26  40   0 49.8774 8.35603  -2
 -14  40   0 49.8774 8.35603   1
  -1   1   1 337.378 4.39317   1
  -3   2   1 2276.14 33.9840   1
   0   2   1 446.754 6.53834   1
  -5   3   1 1587.12 20.3669   1
  -2   3   1 2022.38 33.2328   1
   1   3   1 47.9256 1.24947   1
  -7   4   1 826.889 10.8570   1
  -4   4   1 85.7714 1.63719   1
  -1   4   1 26.0773 1.08170   1
   2   4   1 154.836 2.59036   1
  -9   5   1 30.5665 1.14455   1
  -6   5   1 5695.41 109.918   1
  -3   5   1 1182.41 15.2306   1
   0   5   1 1742.34 27.4115   1
   3   5   1 656.103 8.73812   1
 -11   6   1 281.866 4.53578   1
  -8   6   1 7866.84 163.103   1
  -5   6   1 1606.80 20.6709   1
  -2   6   1 2965.99 45.9305   1
   1   6   1 847.849 12.4143   1
   4   6   1 1674.75 23.9383   1
 -13   7   1 1104.22 14.5374   1
 -10   7   1 3713.38 48.9431   1
  -7   7   1 15.8247 0.85294   1
  -4   7   1 113.988 1.97597   1
  -1   7   1 107.877 2.43286   1
   2   7   1 116.585 2.25143   1
   5   7   1 2207.24 28.4302   1
 -15   8   1 3460.13 44.4181   1
 -12   8   1 471.353 6.83558   1
  -9   8   1 1889.76 24.3445   1
  -6   8   1 839.196 11.0362   1
  -3   8   1 1430.73 21.4284   1
   0   8   1 669.801 10.4102   1
   3   8   1 474.773 7.11516   1
   6   8   1 323.986 5.05038   1
 -17   9   1 587.967 8.62452   1
 -14   9   1 5.26272 1.05550   1
 -11   9   1 2526.26 36.7029   1
  -8   9   1 2515.27 32.2647   1
  -5   9   1 1049.33 14.7609   1
  -2   9   1 3131.27 44.2507   1
   1   9   1 136.356 2.95684   1
   4   9   1 894.759 11.9121   1
   7   9   1 1881.38 24.4760   1
 -19  10   1 955.528 13.0598   1
 -16  10   1 1505.11 21.0186   1
 -13  10   1 542.154 7.57241   1
 -10  10   1 347.637 5.17432   1
  -7  10   1 467.653 6.47421   1
  -4  10   1 453.626 7.29328   1
  -1  10   1 30.1055 1.46516   1
   2  10   1 1416.37 18.4372   1
   5  10   1 4153.14 53.2099   1
   8  10   1 3099.77 40.0117   1
 -21  11   1 230.874 5.06002   1
 -18  11   1 2081.73 28.8598   1
 -15  11   1 543.508 7.96379   1
 -12  11   1 1658.54 21.5609   1
  -9  11   1 11.6661 0.87156   1
  -6  11   1 168.593 2.95355   1
  -3  11   1 264.054 4.48132   1
   0  11   1 1041.26 16.9345   1
   3  11   1 292.197 4.56590   1
   6  11   1 411.741 6.57730   1
   9  11   1 2.22356 1.48621   1
 -23  12   1 50.9440 2.49208   1
 -20  12   1 6.51247 1.41183   1
 -17  12   1 365.502 5.79621   1
 -14  12   1 308.588 5.28402   1
 -11  12   1 115.191 2.55477   1
  -8  12   1 344.333 5.41153   1
  -5  12   1 302.626 4.62900   1
  -2  12   1 91.3337 2.36368   1
   1  12   1 197.476 3.97382   1
   4  12   1 2494.90 32.2400   1
   7  12   1 827.367 11.4448   1
  10  12   1 88.1442 2.87568   1
 -25  13   1 5.35010 1.87359   1
 -22  13   1 2.61021 1.46280   1
 -19  13   1 2.80149 1.37052   1
 -16  13   1 168.524 3.51279   1
 -13  13   1 3063.43 42.0262   1
 -10  13   1 6.47345 1.09180   1
  -7  13   1 8.99720 1.14175   1
  -4  13   1 56.4592 1.92076   1
  -1  13   1 1074.02 16.5614   1
   2  13   1 2398.40 33.1186   1
   5  13   1 2584.81 33.4697   1
   8  13   1 129.745 3.36417   1
  11  13   1 137.845 3.64292   1
 -27  14   1 86.8881 3.57914   1
 -24  14   1 -0.7520 1.47724   1
 -21  14   1 50.3608 2.33815   1
 -18  14   1 3.41447 1.47660   1
 -15  14   1 2584.60 34.4186   1
 -12  14   1 1389.60 19.4237   1
  -9  14   1 74.1283 2.00620   1
  -6  14   1 81.2395 1.93796   1
  -3  14   1 291.761 5.24274   1
   0  14   1 147.654 3.82390   1
   3  14   1 78.7709 2.72072   1
   6  14   1 8.47694 1.40774   1
   9  14   1 89.7376 2.86512   1
  12  14   1 103.919 3.65287   1
 -29  15   1 1056.05 52.1761  -2
 -29  15   1 1056.05 52.1761   1
  12  14   1 205.964 18.1874  -2
 -26  15   1 205.964 18.1874   1
 -23  15   1 37.6482 1.95455   1
 -20  15   1 12.7841 1.43180   1
 -17  15   1 110.419 3.25532   1
 -14  15   1 96.8006 2.47836   1
 -11  15   1 235.706 4.34595   1
  -8  15   1 343.096 5.26866   1
  -5  15   1 3.95574 1.15478   1
  -2  15   1 287.793 5.20862   1
   1  15   1 965.676 14.4819   1
   4  15   1 1010.13 14.1858   1
   7  15   1 3.52585 1.45553   1
  10  15   1 44.8315 2.32974   1
 -28  16   1 180.041 18.0699  -2
  13  15   1 180.041 18.0699   1
 -31  16   1 137.916 13.4833  -2
 -31  16   1 137.916 13.4833   1
 -28  16   1 112.474 4.59724   1
  10  15   1 28.3494 12.1091  -2
 -25  16   1 28.3494 12.1091   1
 -22  16   1 192.654 4.10794   1
 -19  16   1 596.738 8.80215   1
 -16  16   1 2744.41 36.5676   1
 -13  16   1 794.554 12.6872   1
 -10  16   1 723.937 10.2127   1
  -7  16   1 316.930 5.13027   1
  -4  16   1 34.1626 1.86803   1
  -1  16   1 452.001 8.78374   1
   2  16   1 872.490 13.3062   1
   5  16   1 95.1904 3.13855   1
   8  16   1 91.5482 3.07976   1
 -27  17   1 144.944 16.3400  -2
  11  16   1 144.944 16.3400   1
  14  16   1 187.988 7.82018   1
 -33  17   1 569.180 25.2616  -2
 -33  17   1 569.180 25.2616   1
  14  16   1 410.183 25.5514  -2
 -30  17   1 410.183 25.5514   1
 -27  17   1 172.084 5.13194   1
 -24  17   1 33.3090 2.01790   1
 -21  17   1 346.590 5.90096   1
 -18  17   1 743.938 10.7818   1
 -15  17   1 462.236 7.39522   1
 -12  17   1 114.196 2.96182   1
  -9  17   1 454.249 6.65087   1
  -6  17   1 274.368 5.37886   1
  -3  17   1 346.076 6.13075   1
   0  17   1 12.8320 1.75642   1
   3  17   1 7.67775 1.74853   1
   6  17   1 352.846 6.31678   1
   9  17   1 -1.2329 2.01584   1
  12  17   1 307.756 8.75915   1
 -32  18   1 1003.92 54.3804  -2
  15  17   1 1003.92 54.3804   1
 -35  18   1 500.134 23.8475  -2
 -35  18   1 500.134 23.8475   1
  15  17   1 1043.18 37.5871  -2
 -32  18   1 1043.18 37.5871   1
 -29  18   1 663.018 13.1117   1
 -26  18   1 141.966 4.86217   1
 -23  18   1 55.4619 2.38275   1
 -20  18   1 32.4003 1.79638   1
 -17  18   1 1043.75 14.7347   1
 -14  18   1 26.7836 1.57100   1
 -11  18   1 251.569 4.49862   1
  -8  18   1 3.49298 1.04670   1
  -5  18   1 215.282 4.48809   1
  -2  18   1 504.821 8.82102   1
   1  18   1 87.9765 3.20967   1
   4  18   1 65.7948 3.06069   1
   7  18   1 109.144 4.20177   1
  10  18   1 13.4068 2.50874   1
 -31  19   1 47.7411 20.3000  -2
  13  18   1 47.7411 20.3000   1
 -34  19   1 27.5072 13.6289  -2
  16  18   1 27.5072 13.6289   1
 -37  19   1 -1.9902 15.8757  -2
 -37  19   1 -1.9902 15.8757   1
  16  18   1 12.6250 16.7610  -2
 -34  19   1 12.6250 16.7610   1
  13  18   1 66.6457 12.9014  -2
 -31  19   1 66.6457 12.9014   1
 -28  19   1 19.5525 2.55402   1
 -25  19   1 278.728 6.41029   1
 -22  19   1 901.726 12.6184   1
 -19  19   1 3072.31 41.1630   1
 -16  19   1 1398.84 20.0072   1
 -13  19   1 19.7757 1.55101   1
 -10  19   1 1185.62 17.1462   1
  -7  19   1 570.311 9.76428   1
  -4  19   1 159.759 4.07222   1
  -1  19   1 40.4975 5.30874   1
   2  19   1 15.7729 2.14503   1
   5  19   1 87.0372 3.94011   1
   8  19   1 4.77956 2.26075   1
  11  19   1 35.3292 3.74221   1
 -33  20   1 399.424 20.0909  -2
  14  19   1 399.424 20.0909   1
 -36  20   1 138.106 16.2086  -2
  17  19   1 138.106 16.2086   1
 -39  20   1 -10.373 17.5279  -2
 -39  20   1 -10.373 17.5279   1
  17  19   1 161.670 14.3084  -2
 -36  20   1 161.670 14.3084   1
  14  19   1 434.031 21.9145  -2
 -33  20   1 434.031 21.9145   1
 -30  20   1 266.251 7.86402   1
 -27  20   1 385.667 8.44453   1
 -24  20   1 263.809 5.39840   1
 -21  20   1 1101.23 15.9850   1
 -18  20   1 187.435 4.27785   1
 -15  20   1 72.6776 2.88274   1
 -12  20   1 148.661 4.13402   1
  -9  20   1 2177.20 30.5322   1
  -6  20   1 2065.49 31.4016   1
  -3  20   1 862.710 13.9495   1
   0  20   1 44.1825 2.40996   1
   3  20   1 593.248 12.7388   1
   6  20   1 306.228 7.11854   1
 -29  21   1 314.446 24.1092  -2
   9  20   1 314.446 24.1092   1
 -32  21   1 623.614 34.4696  -2
  12  20   1 623.614 34.4696   1
 -35  21   1 310.309 18.6211  -2
  15  20   1 310.309 18.6211   1
  15  20   1 422.581 28.0484  -2
 -35  21   1 422.581 28.0484   1
  12  20   1 771.942 24.9341  -2
 -32  21   1 771.942 24.9341   1
   9  20   1 389.156 24.6408  -2
 -29  21   1 389.156 24.6408   1
 -26  21   1 14.3838 2.56440   1
 -23  21   1 86.3843 3.47598   1
 -20  21   1 718.764 10.8026   1
 -17  21   1 653.109 10.1205   1
 -14  21   1 96.9293 2.96730   1
 -11  21   1 49.7071 2.03903   1
  -8  21   1 547.962 9.03304   1
  -5  21   1 408.065 7.24876   1
  -2  21   1 135.678 4.30862   1
   1  21   1 397.081 8.38272   1
   4  21   1 387.514 8.29115   1
   7  21   1 196.089 6.13942   1
  10  21   1 9.13106 3.75129   1
 -34  22   1 84.3630 17.5686  -2
  13  21   1 84.3630 17.5686   1
 -37  22   1 95.7074 18.4925  -2
  16  21   1 95.7074 18.4925   1
 -40  22   1 40.7066 13.1968  -2
  19  21   1 40.7066 13.1968   1
  19  21   1 22.6594 16.5461  -2
 -40  22   1 22.6594 16.5461   1
  16  21   1 87.3052 17.1628  -2
 -37  22   1 87.3052 17.1628   1
  13  21   1 147.628 18.6942  -2
 -34  22   1 147.628 18.6942   1
  10  21   1 192.008 18.7193  -2
 -31  22   1 192.008 18.7193   1
 -28  22   1 6.47704 2.80525   1
 -25  22   1 154.790 5.46872   1
 -22  22   1 1189.81 18.0822   1
 -19  22   1 1006.35 15.3989   1
 -16  22   1 270.082 5.25698   1
 -13  22   1 42.7360 2.06706   1
 -10  22   1 1227.40 17.6778   1
  -7  22   1 719.153 11.3607   1
  -4  22   1 218.641 4.85455   1
  -1  22   1 102.584 4.42599   1
   2  22   1 14.3331 2.47257   1
   5  22   1 7.76880 2.68572   1
   8  22   1 -0.1178 3.02828   1
 -33  23   1 13.7642 13.0989  -2
  11  22   1 13.7642 13.0989   1
 -36  23   1 107.431 18.8185  -2
  14  22   1 107.431 18.8185   1
 -39  23   1 178.726 20.7622  -2
  17  22   1 178.726 20.7622   1
  14  22   1 63.2441 13.1130  -2
 -36  23   1 63.2441 13.1130   1
  11  22   1 35.8029 16.9711  -2
 -33  23   1 35.8029 16.9711   1
   8  22   1 -8.5860 15.2367  -2
 -30  23   1 -8.5860 15.2367   1
 -27  23   1 -1.9443 2.70063   1
 -24  23   1 42.3251 3.72689   1
 -21  23   1 51.3753 2.83035   1
 -18  23   1 3.09597 1.63742   1
 -15  23   1 28.5233 1.95633   1
 -12  23   1 909.928 13.0241   1
  -9  23   1 2754.24 39.5437   1
  -6  23   1 1254.36 18.6839   1
  -3  23   1 344.486 7.66160   1
   0  23   1 508.405 11.8007   1
   3  23   1 912.723 21.0896   1
   6  23   1 529.879 14.2545   1
   9  23   1 263.676 9.05951   1
 -35  24   1 237.301 17.1083  -2
  12  23   1 237.301 17.1083   1
  15  23   1 39.6945 13.7173   1
 -38  24   1 -1.7724 9.72302   1
  12  23   1 221.936 15.0422  -2
 -35  24   1 221.936 15.0422   1
   9  23   1 319.127 20.6879  -2
 -32  24   1 319.127 20.6879   1
 -29  24   1 2.44409 3.04192   1
   3  23   1 681.985 36.1349  -2
 -26  24   1 681.985 36.1349   1
 -23  24   1 272.651 6.83239   1
 -20  24   1 153.747 4.17409   1
 -17  24   1 103.406 3.69421   1
 -14  24   1 62.6623 2.59702   1
 -11  24   1 89.7886 3.35303   1
  -8  24   1 266.911 5.53335   1
  -5  24   1 28.2638 2.71292   1
  -2  24   1 235.711 7.81512   1
   1  24   1 1099.51 23.0177   1
   4  24   1 1102.65 23.2939   1
 -31  25   1 997.312 57.5670  -2
   7  24   1 997.312 57.5670   1
 -34  25   1 262.303 22.0226  -2
  10  24   1 262.303 22.0226   1
  13  24   1 -1.5190 7.37072   1
 -40  25   1 44.2779 18.9339  -2
  16  24   1 44.2779 18.9339   1
  16  24   1 101.605 17.6676  -2
 -40  25   1 101.605 17.6676   1
  13  24   1 -0.6036 13.2671  -2
 -37  25   1 -0.6036 13.2671   1
  10  24   1 249.155 22.4851  -2
 -34  25   1 249.155 22.4851   1
   7  24   1 761.484 32.8829  -2
 -31  25   1 761.484 32.8829   1
   4  24   1 844.966 43.6744  -2
 -28  25   1 844.966 43.6744   1
 -25  25   1 246.842 7.11797   1
 -22  25   1 283.588 6.67428   1
 -19  25   1 278.512 5.58720   1
 -16  25   1 26.8169 1.92625   1
 -13  25   1 177.314 4.63580   1
 -10  25   1 762.431 12.9539   1
  -7  25   1 331.632 8.32785   1
  -4  25   1 415.534 10.3470   1
  -1  25   1 50.2666 3.90702   1
   2  25   1 135.873 6.10470   1
   5  25   1 197.068 7.34462   1
   8  25   1 52.3946 4.70233   1
 -36  26   1 -0.9176 16.0321  -2
  11  25   1 -0.9176 16.0321   1
 -39  26   1 90.2855 18.9257  -2
  14  25   1 90.2855 18.9257   1
  14  25   1 57.1257 20.0654  -2
 -39  26   1 57.1257 20.0654   1
  11  25   1 9.75001 12.0266  -2
 -36  26   1 9.75001 12.0266   1
   8  25   1 81.8249 12.5348  -2
 -33  26   1 81.8249 12.5348   1
   5  25   1 314.082 23.2415  -2
 -30  26   1 314.082 23.2415   1
 -27  26   1 -3.1410 3.31683   1
 -24  26   1 9.30503 2.47128   1
 -21  26   1 112.221 4.36088   1
 -18  26   1 94.4290 3.74458   1
 -15  26   1 53.7665 2.85937   1
 -12  26   1 496.303 9.70988   1
  -9  26   1 882.425 16.7419   1
  -6  26   1 482.519 11.5528   1
  -3  26   1 1.50834 2.83832   1
   0  26   1 241.538 7.56516   1
   3  26   1 267.926 8.30414   1
 -33  26   1 204.444 24.0004  -2
   6  26   1 204.444 24.0004   1
   9  26   1 76.0543 6.26215   1
  12  26   1 12.3930 6.70023   1
 -38  27   1 2.83458 10.1873   1
   9  26   1 53.6331 16.7256  -2
 -35  27   1 53.6331 16.7256   1
   6  26   1 191.524 21.9289  -2
 -32  27   1 191.524 21.9289   1
   3  26   1 269.133 21.7847  -2
 -29  27   1 269.133 21.7847   1
 -26  27   1 77.5027 4.45914   1
 -23  27   1 3.47666 2.56043   1
 -20  27   1 2.81105 2.52783   1
 -17  27   1 8.77898 2.18078   1
 -14  27   1 0.82090 2.18857   1
 -11  27   1 4.86555 2.37009   1
  -8  27   1 119.632 5.63332   1
  -5  27   1 14.9877 3.13174   1
  -2  27   1 115.326 5.69443   1
   1  27   1 606.026 14.1880   1
   4  27   1 603.337 16.2347   1
 -35  27   1 167.230 23.1005  -2
   7  27   1 167.230 23.1005   1
  10  27   1 4.08187 11.3382   1
  13  27   1 27.3594 10.2065   1
  10  27   1 6.20300 20.3564  -2
 -37  28   1 6.20300 20.3564   1
   7  27   1 187.892 14.5559  -2
 -34  28   1 187.892 14.5559   1
   4  27   1 532.570 20.0609  -2
 -31  28   1 532.570 20.0609   1
   1  27   1 441.819 28.2247  -2
 -28  28   1 441.819 28.2247   1
 -25  28   1 4.47583 2.89733   1
 -22  28   1 6.45847 3.12208   1
 -19  28   1 6.03475 2.67691   1
 -16  28   1 140.239 5.08461   1
 -13  28   1 206.608 6.21801   1
 -10  28   1 135.991 6.11553   1
  -7  28   1 57.9795 4.14227   1
  -4  28   1 5.00480 3.10034   1
  -1  28   1 0.98801 3.36952   1
   2  28   1 94.1509 5.74068   1
 -34  28   1 90.6121 21.1493  -2
   5  28   1 90.6121 21.1493   1
   8  28   1 0.79796 4.41995   1
  11  28   1 29.3053 5.55083   1
  11  28   1 46.3103 13.6272  -2
 -39  29   1 46.3103 13.6272   1
   8  28   1 107.372 18.0875  -2
 -36  29   1 107.372 18.0875   1
   5  28   1 517.910 20.8578  -2
 -33  29   1 517.910 20.8578   1
   2  28   1 393.473 27.0953  -2
 -30  29   1 393.473 27.0953   1
  -1  28   1 37.1364 16.5881  -2
 -27  29   1 37.1364 16.5881   1
 -24  29   1 5.55058 3.14928   1
 -21  29   1 61.6053 4.69743   1
 -18  29   1 2.15908 2.89998   1
 -15  29   1 19.6469 3.20876   1
 -12  29   1 49.2205 3.88523   1
  -9  29   1 185.734 6.84337   1
  -6  29   1 1.91023 3.04502   1
  -3  29   1 23.0418 3.58765   1
   0  29   1 145.149 6.61275   1
 -33  29   1 418.094 30.2884  -2
   3  29   1 418.094 30.2884   1
 -36  29   1 32.3313 22.3942  -2
   6  29   1 32.3313 22.3942   1
   9  29   1 8.62977 5.47984   1
 -38  30   1 12.5184 8.66144   1
   6  29   1 40.6907 13.0919  -2
 -35  30   1 40.6907 13.0919   1
   3  29   1 304.247 18.6313  -2
 -32  30   1 304.247 18.6313   1
   0  29   1 202.285 21.6712  -2
 -29  30   1 202.285 21.6712   1
  -3  29   1 26.2501 17.3984  -2
 -26  30   1 26.2501 17.3984   1
 -23  30   1 158.382 6.76460   1
 -20  30   1 181.012 8.06280   1
 -17  30   1 248.900 7.55862   1
 -14  30   1 40.0042 3.83879   1
 -11  30   1 16.8759 3.36568   1
  -8  30   1 34.5120 3.71990   1
  -5  30   1 -0.1661 3.29311   1
 -29  30   1 89.3856 20.2388  -2
  -2  30   1 89.3856 20.2388   1
 -32  30   1 343.113 26.6578  -2
   1  30   1 343.113 26.6578   1
 -35  30   1 42.6441 22.0365  -2
   4  30   1 42.6441 22.0365   1
   7  30   1 2.36959 4.49391   1
 -37  31   1 16.1784 7.27407   1
   4  30   1 201.438 16.9094  -2
 -34  31   1 201.438 16.9094   1
   1  30   1 125.392 19.9635  -2
 -31  31   1 125.392 19.9635   1
  -2  30   1 13.8857 18.4794  -2
 -28  31   1 13.8857 18.4794   1
  -5  30   1 34.8200 19.5420  -2
 -25  31   1 34.8200 19.5420   1
 -22  31   1 12.5147 3.52180   1
 -19  31   1 103.001 5.70440   1
 -16  31   1 87.0426 5.59688   1
 -13  31   1 -0.3684 3.22843   1
 -10  31   1 18.2406 3.45221   1
  -7  31   1 94.6054 6.40836   1
  -4  31   1 40.4728 4.04006   1
 -31  31   1 34.5760 19.3242  -2
  -1  31   1 34.5760 19.3242   1
 -34  31   1 145.317 23.1082  -2
   2  31   1 145.317 23.1082   1
   5  31   1 -1.8315 4.75571   1
   5  31   1 208.651 27.7154  -2
 -36  32   1 208.651 27.7154   1
   2  31   1 438.645 22.6968  -2
 -33  32   1 438.645 22.6968   1
  -1  31   1 101.736 21.0045  -2
 -30  32   1 101.736 21.0045   1
  -4  31   1 37.8035 19.9801  -2
 -27  32   1 37.8035 19.9801   1
 -24  32   1 193.137 8.95396   1
 -21  32   1 103.731 6.33315   1
 -18  32   1 109.339 5.96495   1
 -15  32   1 29.1802 3.86640   1
 -12  32   1 -2.1184 3.37945   1
  -9  32   1 7.85813 3.66758   1
  -6  32   1 32.6124 3.98172   1
 -30  32   1 127.182 21.0104  -2
  -3  32   1 127.182 21.0104   1
 -33  32   1 338.022 18.6481  -2
   0  32   1 338.022 18.6481   1
   3  32   1 1.71153 5.51370   1
 -35  33   1 27.9473 6.25325   1
   0  32   1 185.893 22.8873  -2
 -32  33   1 185.893 22.8873   1
  -3  32   1 1.68385 20.4692  -2
 -29  33   1 1.68385 20.4692   1
  -6  32   1 216.617 24.4826  -2
 -26  33   1 216.617 24.4826   1
 -23  33   1 430.981 12.8488   1
 -20  33   1 498.661 13.6307   1
 -17  33   1 308.512 9.53264   1
 -14  33   1 2.32672 3.75096   1
 -11  33   1 32.1174 4.04946   1
  -8  33   1 62.0745 4.40272   1
 -29  33   1 -14.530 15.3929  -2
  -5  33   1 -14.530 15.3929   1
  -2  33   1 3.71368 4.26029   1
   1  33   1 3.80279 5.88866   1
   4  33   1 5.32018 4.39704   1
 -34  34   1 49.6154 11.0389   1
  -2  33   1 -3.3400 20.7989  -2
 -31  34   1 -3.3400 20.7989   1
  -5  33   1 27.3755 22.3447  -2
 -28  34   1 27.3755 22.3447   1
 -25  34   1 28.5794 4.73718   1
 -22  34   1 198.657 9.36116   1
 -19  34   1 119.813 7.41603   1
 -16  34   1 3.02545 3.78116   1
 -13  34   1 56.7952 4.71133   1
 -10  34   1 142.414 6.89769   1
 -28  34   1 161.096 12.2909  -2
  -7  34   1 161.096 12.2909   1
 -31  34   1 41.8845 19.9942  -2
  -4  34   1 41.8845 19.9942   1
  -1  34   1 -3.6445 4.94159   1
   2  34   1 30.4125 5.95111   1
 -33  35   1 282.467 18.7211   1
  -4  34   1 -12.806 22.7852  -2
 -30  35   1 -12.806 22.7852   1
 -27  35   1 33.4409 5.99902   1
 -24  35   1 39.8946 5.44366   1
 -21  35   1 43.7350 5.12838   1
 -18  35   1 36.9470 4.67359   1
 -15  35   1 0.87571 3.72462   1
 -12  35   1 3.59358 3.88256   1
 -27  35   1 29.3548 13.6370  -2
  -9  35   1 29.3548 13.6370   1
 -30  35   1 0.48040 10.0971  -2
  -6  35   1 0.48040 10.0971   1
  -3  35   1 4.58190 4.50281   1
   0  35   1 30.5450 4.83357   1
  -3  35   1 40.1181 24.4868  -2
 -32  36   1 40.1181 24.4868   1
 -29  36   1 5.64794 6.47954   1
 -26  36   1 116.428 9.43422   1
 -23  36   1 407.253 14.0534   1
 -20  36   1 201.203 9.08977   1
 -17  36   1 2.01888 4.07720   1
 -14  36   1 121.605 6.76645   1
 -11  36   1 173.883 7.68135   1
  -8  36   1 127.678 8.97338   1
  -5  36   1 30.0923 7.44702   1
  -2  36   1 51.6598 5.44715   1
 -31  37   1 -5.2093 5.71208   1
 -28  37   1 -12.577 11.4534   1
 -25  37   1 65.5654 6.27814   1
 -22  37   1 83.2578 6.41889   1
 -19  37   1 -3.0759 4.89227   1
 -22  37   1 141.518 21.3215  -2
 -16  37   1 141.518 21.3215   1
 -13  37   1 293.332 11.0046   1
 -10  37   1 356.857 12.0490   1
 -31  37   1 184.749 23.2470  -2
  -7  37   1 184.749 23.2470   1
  -4  37   1 18.8517 4.54947   1
 -30  38   1 10.5535 5.93024   1
 -27  38   1 13.3369 6.02150   1
 -24  38   1 53.5407 7.78028   1
 -21  38   1 36.5861 6.45368   1
 -18  38   1 15.2705 6.74621   1
 -15  38   1 10.9514 5.58631   1
 -12  38   1 38.7021 7.44643   1
 -30  38   1 1.30822 20.2739  -2
  -9  38   1 1.30822 20.2739   1
 -29  39   1 -9.9441 5.94532   1
 -26  39   1 104.383 9.31118   1
 -23  39   1 187.097 9.90346   1
 -20  39   1 14.4962 5.15093   1
 -23  39   1 161.162 21.9535  -2
 -17  39   1 161.162 21.9535   1
 -26  39   1 231.720 23.5691  -2
 -14  39   1 231.720 23.5691   1
 -29  39   1 137.570 22.5454  -2
 -11  39   1 137.570 22.5454   1
 -25  40   1 22.0086 6.04053   1
 -22  40   1 19.5919 5.14518   1
 -22  40   1 -31.292 18.9158  -2
 -19  40   1 -31.292 18.9158   1
 -25  40   1 77.2178 20.0264  -2
 -16  40   1 77.2178 20.0264   1
 -13  40   1 217.216 19.9588   1
   0   1   2 3.30504 0.52643   1
  -2   2   2 149.883 2.23889   1
   1   2   2 664.543 9.01730   1
  -4   3   2 138.486 2.19993   1
  -1   3   2 19.8461 0.84333   1
   2   3   2 1087.03 15.1206   1
  -6   4   2 3191.41 42.0112   1
  -3   4   2 5.87453 0.54742   1
   0   4   2 1022.96 13.7464   1
   3   4   2 2865.09 36.6574   1
  -8   5   2 1120.46 15.5586   1
  -5   5   2 60.5633 1.39506   1
  -2   5   2 1199.86 15.9374   1
   1   5   2 6488.84 157.718   1
 -10   6   2 4624.12 59.0533   1
  -7   6   2 494.707 6.97294   1
  -4   6   2 103.664 1.82218   1
  -1   6   2 366.729 5.15755   1
   2   6   2 2215.61 30.8715   1
   5   6   2 42.9248 1.61283   1
 -12   7   2 2397.32 30.8857   1
  -9   7   2 6150.40 92.0959   1
  -6   7   2 671.023 9.19573   1
  -3   7   2 72.2673 1.56660   1
   0   7   2 2662.26 37.0612   1
   3   7   2 6023.57 86.4752   1
   6   7   2 2253.53 29.0894   1
 -14   8   2 7.13384 1.03551   1
 -11   8   2 395.683 5.91509   1
  -8   8   2 2924.88 37.4814   1
  -5   8   2 130.178 2.24867   1
  -2   8   2 1565.17 24.8622   1
   1   8   2 9999.99 300.025   1
   4   8   2 4560.43 60.6199   1
   7   8   2 401.254 5.98556   1
 -16   9   2 47.4316 1.98410   1
 -13   9   2 445.002 6.71083   1
 -10   9   2 342.743 5.28777   1
  -7   9   2 264.943 3.92341   1
  -4   9   2 88.2403 1.90260   1
  -1   9   2 181.994 3.78907   1
   2   9   2 414.683 7.19894   1
   5   9   2 37.5801 1.74880   1
   8   9   2 8.34083 1.32674   1
 -18  10   2 277.580 5.17851   1
 -15  10   2 3.18293 1.14650   1
 -12  10   2 787.032 11.1041   1
  -9  10   2 1579.74 21.1567   1
  -6  10   2 91.8970 1.84592   1
  -3  10   2 470.581 8.56838   1
   0  10   2 3252.80 51.1384   1
   3  10   2 1039.70 16.8963   1
   6  10   2 70.9790 2.26546   1
   9  10   2 1.16418 1.38713   1
 -20  11   2 1009.63 14.3419   1
 -17  11   2 677.249 9.61705   1
 -14  11   2 7.95584 1.08102   1
 -11  11   2 269.764 4.23970   1
  -8  11   2 1676.85 21.7248   1
  -5  11   2 4.79956 0.79121   1
  -2  11   2 1513.30 24.1891   1
   1  11   2 1615.72 28.0013   1
   4  11   2 912.818 13.0171   1
   7  11   2 6.84228 1.35511   1
  10  11   2 235.438 4.59834   1
 -22  12   2 86.6266 3.00070   1
 -19  12   2 93.0408 2.77101   1
 -16  12   2 3.00391 1.20888   1
 -13  12   2 30.6459 1.44389   1
 -10  12   2 216.435 3.71422   1
  -7  12   2 720.127 10.0639   1
  -4  12   2 4.66777 1.07079   1
  -1  12   2 39.7508 2.12772   1
   2  12   2 661.647 11.9286   1
   5  12   2 475.180 6.97229   1
   8  12   2 18.8325 1.69516   1
  11  12   2 428.411 7.28301   1
 -24  13   2 695.704 10.6560   1
 -21  13   2 899.616 13.3279   1
 -18  13   2 843.076 12.1194   1
 -15  13   2 1.96704 1.08016   1
 -12  13   2 5.91508 0.96134   1
  -9  13   2 160.412 2.98223   1
  -6  13   2 1.38503 0.83998   1
  -3  13   2 81.1260 3.08113   1
   0  13   2 6.58735 1.63167   1
   3  13   2 501.370 8.56617   1
   6  13   2 341.826 5.55850   1
   9  13   2 139.922 3.68589   1
  12  13   2 7.97060 2.11455   1
 -26  14   2 701.247 11.4448   1
 -23  14   2 1692.85 23.1152   1
 -20  14   2 1216.86 16.8989   1
 -17  14   2 86.7715 2.58717   1
 -14  14   2 141.185 3.01769   1
 -11  14   2 1389.56 18.8154   1
  -8  14   2 2581.74 35.5110   1
  -5  14   2 477.089 8.03624   1
  -2  14   2 408.051 7.68497   1
   1  14   2 13.1469 1.78319   1
   4  14   2 7.32407 1.82695   1
   7  14   2 449.740 7.26910   1
  10  14   2 202.888 5.14131   1
  13  14   2 150.708 5.85179   1
  12  16   2 1.07723 14.1244  -2
 -28  15   2 1.07723 14.1244   1
 -25  15   2 92.0038 3.35240   1
 -22  15   2 50.5692 2.28684   1
 -19  15   2 15.8086 1.65294   1
 -16  15   2 41.9182 2.03328   1
 -13  15   2 1188.90 16.3569   1
 -10  15   2 2261.27 32.7155   1
  -7  15   2 2678.24 40.0700   1
  -4  15   2 526.136 8.84240   1
  -1  15   2 81.0376 3.29222   1
   2  15   2 629.374 11.1314   1
   5  15   2 29.8507 2.71043   1
   8  15   2 3.25644 1.60109   1
  11  15   2 84.9762 3.96234   1
  14  15   2 17.7030 2.83441   1
 -30  16   2 41.2104 3.63939   1
 -27  16   2 392.757 9.10624   1
   7  17   2 963.403 53.9868  -2
 -24  16   2 963.403 53.9868   1
 -21  16   2 381.948 6.40894   1
 -18  16   2 33.0067 1.85396   1
 -15  16   2 17.7404 1.40967   1
 -12  16   2 54.8959 2.39957   1
  -9  16   2 47.3028 2.09233   1
  -6  16   2 55.4866 2.43280   1
  -3  16   2 141.273 4.26285   1
   0  16   2 303.522 6.02079   1
   3  16   2 463.793 8.30850   1
   6  16   2 463.796 8.33627   1
   9  16   2 10.0121 2.10063   1
 -28  15   2 -7.4251 14.1331  -2
  12  16   2 -7.4251 14.1331   1
  15  16   2 1.77580 3.45973   1
 -32  17   2 14.7229 3.94246   1
 -29  17   2 127.847 5.62540   1
 -26  17   2 1071.66 15.7794   1
   5  18   2 1153.01 63.6235  -2
 -23  17   2 1153.01 63.6235   1
 -20  17   2 45.8309 2.21713   1
 -17  17   2 2.44852 1.27084   1
 -14  17   2 918.151 12.9407   1
 -11  17   2 1702.04 22.2389   1
  -8  17   2 1446.98 21.0814   1
  -5  17   2 628.116 10.4131   1
  -2  17   2 279.927 6.19908   1
   1  17   2 6.62455 1.93421   1
   4  17   2 112.362 4.02598   1
   7  17   2 107.078 4.25974   1
 -27  16   2 327.330 23.5926  -2
  10  17   2 327.330 23.5926   1
  13  17   2 24.7682 3.66630   1
  16  17   2 226.239 20.9315  -2
  16  17   2 226.239 20.9315   1
  15  19   2 42.9631 17.6420  -2
 -34  18   2 42.9631 17.6420   1
 -31  18   2 40.9575 3.94161   1
 -28  18   2 2.05264 2.71414   1
 -25  18   2 56.5957 2.70744   1
 -22  18   2 9.81308 1.58055   1
 -19  18   2 26.9224 1.70156   1
 -16  18   2 490.863 7.49759   1
 -13  18   2 2220.86 30.0320   1
 -10  18   2 2494.16 32.2586   1
  -7  18   2 1141.07 16.8754   1
  -4  18   2 8.46826 2.10628   1
  -1  18   2 131.476 4.43284   1
   2  18   2 330.805 6.88307   1
   5  18   2 206.654 5.88201   1
   8  18   2 10.2472 2.28170   1
  11  18   2 45.5261 3.91097   1
  14  18   2 36.3951 4.29857   1
  17  18   2 20.5417 16.8708  -2
  17  18   2 20.5417 16.8708   1
  16  20   2 113.510 16.2645  -2
 -36  19   2 113.510 16.2645   1
  13  20   2 262.322 29.7862  -2
 -33  19   2 262.322 29.7862   1
 -30  19   2 251.427 7.77558   1
 -27  19   2 505.370 11.1489   1
 -24  19   2 313.824 5.78230   1
 -21  19   2 27.7081 1.80999   1
 -18  19   2 36.2274 2.49850   1
 -15  19   2 56.4819 2.49358   1
 -12  19   2 133.129 3.14089   1
  -9  19   2 98.3228 3.10209   1
  -6  19   2 132.272 4.01487   1
  -3  19   2 598.990 10.8342   1
   0  19   2 378.584 7.61634   1
   3  19   2 1053.25 24.9537   1
   6  19   2 157.133 5.33818   1
   9  19   2 29.1704 3.49141   1
 -31  18   2 108.260 19.6248  -2
  12  19   2 108.260 19.6248   1
  15  19   2 60.9517 4.72941   1
  18  19   2 26.0437 4.67630   1
 -38  20   2 10.7859 9.22158   1
  14  21   2 133.501 19.6174  -2
 -35  20   2 133.501 19.6174   1
 -32  20   2 40.0249 4.04609   1
 -29  20   2 109.506 5.46293   1
 -26  20   2 389.682 8.96840   1
 -23  20   2 50.3817 2.33928   1
 -20  20   2 2.66657 1.42317   1
 -17  20   2 228.708 4.85153   1
 -14  20   2 1350.44 18.6862   1
 -11  20   2 1060.14 14.7675   1
  -8  20   2 454.276 8.21918   1
  -5  20   2 94.0326 3.90424   1
  -2  20   2 15.2036 2.08097   1
   1  20   2 96.8087 4.19029   1
   4  20   2 3.60616 2.27456   1
   7  20   2 36.4320 3.32558   1
 -30  19   2 688.213 41.5866  -2
  10  20   2 688.213 41.5866   1
  13  20   2 316.313 10.3119   1
  16  20   2 97.3806 6.78441   1
  19  20   2 3.18646 5.36000   1
  18  22   2 23.8780 18.3586  -2
 -40  21   2 23.8780 18.3586   1
  15  22   2 54.3281 19.2595  -2
 -37  21   2 54.3281 19.2595   1
  12  22   2 107.352 26.5380  -2
 -34  21   2 107.352 26.5380   1
 -31  21   2 272.256 8.32986   1
 -28  21   2 60.3819 3.92155   1
 -25  21   2 8.59365 2.14858   1
 -22  21   2 219.727 4.94894   1
 -19  21   2 69.4981 2.89738   1
 -16  21   2 826.458 11.8344   1
 -13  21   2 2133.43 27.8315   1
 -10  21   2 803.138 13.0681   1
  -7  21   2 23.2097 2.28505   1
  -4  21   2 411.527 8.12545   1
  -1  21   2 81.0652 3.79613   1
   2  21   2 789.349 16.1280   1
   5  21   2 225.483 7.09294   1
   8  21   2 52.0817 3.79539   1
 -32  20   2 157.190 22.3493  -2
  11  21   2 157.190 22.3493   1
 -34  21   2 67.5963 24.6561  -2
  14  21   2 67.5963 24.6561   1
  17  21   2 -17.991 11.9532   1
 -39  22   2 4.75178 8.52719   1
  13  23   2 85.1726 13.9943  -2
 -36  22   2 85.1726 13.9943   1
  10  23   2 391.144 27.1427  -2
 -33  22   2 391.144 27.1427   1
 -30  22   2 337.952 8.60856   1
 -27  22   2 102.291 4.88058   1
 -24  22   2 45.7119 2.79786   1
 -21  22   2 14.0046 1.89654   1
 -18  22   2 39.7336 2.45480   1
 -15  22   2 83.4467 2.72663   1
 -12  22   2 280.145 5.87744   1
  -9  22   2 98.0211 4.22273   1
  -6  22   2 39.5104 2.57226   1
  -3  22   2 196.869 5.94355   1
   0  22   2 757.904 16.5405   1
   3  22   2 421.664 10.3877   1
   6  22   2 -0.9841 2.79545   1
   9  22   2 188.661 7.14001   1
  12  22   2 95.5468 6.80108   1
  15  22   2 38.5417 7.17460   1
 -40  21   2 1.70656 19.0695  -2
  18  22   2 1.70656 19.0695   1
 -35  23   2 165.257 11.9932   1
   8  24   2 126.100 45.6756  -2
 -32  23   2 126.100 45.6756   1
   5  24   2 19.6709 15.6412  -2
 -29  23   2 19.6709 15.6412   1
 -26  23   2 30.2844 3.30669   1
 -23  23   2 227.328 5.43315   1
 -20  23   2 1.36888 1.69623   1
 -17  23   2 29.9377 2.41841   1
 -14  23   2 147.518 3.58093   1
 -11  23   2 7.03531 1.89483   1
  -8  23   2 70.8417 3.49680   1
  -5  23   2 37.1357 3.20134   1
  -2  23   2 186.570 6.43893   1
   1  23   2 8.06663 2.84133   1
   4  23   2 18.8461 3.06206   1
 -30  22   2 457.315 31.5144  -2
   7  23   2 457.315 31.5144   1
  10  23   2 478.254 13.2477   1
 -36  22   2 122.947 18.5275  -2
  13  23   2 122.947 18.5275   1
 -35  23   2 243.742 27.1303  -2
  13  23   2 243.742 27.1303   1
 -39  22   2 -15.666 17.6256  -2
  16  23   2 -15.666 17.6256   1
 -40  24   2 55.7807 10.9344   1
 -37  24   2 127.794 12.3749   1
   9  25   2 489.192 30.8508  -2
 -34  24   2 489.192 30.8508   1
   6  25   2 395.363 23.0827  -2
 -31  24   2 395.363 23.0827   1
 -28  24   2 3.68174 2.99221   1
 -25  24   2 948.374 17.0202   1
  -3  25   2 976.034 57.4297  -2
 -22  24   2 976.034 57.4297   1
 -19  24   2 21.4922 1.97940   1
 -16  24   2 57.2248 2.69119   1
 -13  24   2 177.095 5.53103   1
 -10  24   2 0.73656 2.34618   1
  -7  24   2 63.2969 4.08942   1
  -4  24   2 35.7205 3.12779   1
  -1  24   2 132.014 5.81326   1
   2  24   2 211.065 7.00232   1
   5  24   2 7.94629 3.18490   1
 -32  23   2 108.570 20.3837  -2
   8  24   2 108.570 20.3837   1
  11  24   2 32.5349 4.48384   1
  14  24   2 7.12281 4.89149   1
  13  26   2 31.0104 18.4527  -2
 -39  25   2 31.0104 18.4527   1
  10  26   2 252.693 24.1477  -2
 -36  25   2 252.693 24.1477   1
   7  26   2 64.6699 17.6666  -2
 -33  25   2 64.6699 17.6666   1
   4  26   2 5.76165 17.1979  -2
 -30  25   2 5.76165 17.1979   1
 -27  25   2 352.375 9.16644   1
 -24  25   2 286.519 7.72536   1
  -5  26   2 387.123 33.0647  -2
 -21  25   2 387.123 33.0647   1
 -18  25   2 45.4497 2.84759   1
 -15  25   2 22.4472 2.43942   1
 -12  25   2 194.019 6.11935   1
  -9  25   2 153.030 5.60935   1
  -6  25   2 3.13853 2.83263   1
  -3  25   2 512.146 12.0161   1
 -24  25   2 532.632 31.5397  -2
   0  25   2 532.632 31.5397   1
   3  25   2 15.9002 3.10769   1
 -30  25   2 129.935 21.0578  -2
   6  25   2 129.935 21.0578   1
 -33  25   2 302.755 28.6521  -2
   9  25   2 302.755 28.6521   1
 -36  25   2 92.6314 25.4636  -2
  12  25   2 92.6314 25.4636   1
 -38  26   2 84.8994 11.4354   1
   8  27   2 323.725 25.4416  -2
 -35  26   2 323.725 25.4416   1
   5  27   2 276.379 22.9280  -2
 -32  26   2 276.379 22.9280   1
 -29  26   2 30.7347 3.92141   1
 -26  26   2 68.4702 4.69156   1
 -23  26   2 21.3184 3.44911   1
 -20  26   2 9.86101 2.22036   1
 -17  26   2 6.76836 2.53886   1
 -14  26   2 77.5209 3.98522   1
 -11  26   2 321.522 8.36219   1
  -8  26   2 245.466 7.53008   1
  -5  26   2 93.7458 5.13416   1
  -2  26   2 75.9498 4.81913   1
 -26  26   2 48.0360 17.6504  -2
   1  26   2 48.0360 17.6504   1
 -29  26   2 22.7472 18.4800  -2
   4  26   2 22.7472 18.4800   1
   7  26   2 82.4612 6.18476   1
 -35  26   2 514.485 24.4319  -2
  10  26   2 514.485 24.4319   1
  13  26   2 62.9153 6.51874   1
 -37  27   2 264.116 14.2292   1
   6  28   2 290.974 25.2515  -2
 -34  27   2 290.974 25.2515   1
   3  28   2 112.468 19.8750  -2
 -31  27   2 112.468 19.8750   1
 -28  27   2 399.954 9.36683   1
 -25  27   2 615.153 13.2189   1
 -22  27   2 500.326 10.4287   1
 -19  27   2 117.552 4.91169   1
 -16  27   2 61.8690 3.74336   1
 -13  27   2 3.96404 2.52895   1
 -10  27   2 23.6592 3.28551   1
  -7  27   2 22.6818 3.22663   1
  -4  27   2 30.9928 3.34621   1
 -25  27   2 412.587 27.3234  -2
  -1  27   2 412.587 27.3234   1
 -28  27   2 254.443 23.2776  -2
   2  27   2 254.443 23.2776   1
 -31  27   2 156.033 22.0396  -2
   5  27   2 156.033 22.0396   1
 -34  27   2 188.173 24.4425  -2
   8  27   2 188.173 24.4425   1
  11  27   2 58.3227 6.15912   1
 -39  28   2 15.9780 9.51464   1
   7  29   2 30.2845 20.0198  -2
 -36  28   2 30.2845 20.0198   1
   4  29   2 47.5692 19.1239  -2
 -33  28   2 47.5692 19.1239   1
   1  29   2 128.559 14.3458  -2
 -30  28   2 128.559 14.3458   1
 -27  28   2 369.309 9.59552   1
 -24  28   2 519.904 12.6765   1
 -21  28   2 457.673 10.6309   1
 -18  28   2 29.1517 3.49770   1
 -15  28   2 129.566 5.88213   1
 -12  28   2 457.863 11.2870   1
  -9  28   2 487.295 11.7637   1
  -6  28   2 5.28533 3.08437   1
  -3  28   2 14.0612 3.24539   1
 -27  28   2 263.973 23.2929  -2
   0  28   2 263.973 23.2929   1
 -30  28   2 87.8258 20.5905  -2
   3  28   2 87.8258 20.5905   1
 -33  28   2 52.6510 21.1445  -2
   6  28   2 52.6510 21.1445   1
   9  28   2 37.1870 5.14388   1
   8  30   2 91.7434 21.5707  -2
 -38  29   2 91.7434 21.5707   1
   5  30   2 210.434 23.9245  -2
 -35  29   2 210.434 23.9245   1
   2  30   2 265.592 24.7236  -2
 -32  29   2 265.592 24.7236   1
  -1  30   2 179.917 24.1015  -2
 -29  29   2 179.917 24.1015   1
 -26  29   2 6.14920 3.82571   1
 -23  29   2 10.1859 3.61648   1
 -20  29   2 -2.2325 3.39989   1
 -17  29   2 261.733 8.91842   1
 -14  29   2 548.472 13.0564   1
 -11  29   2 761.026 16.7995   1
  -8  29   2 21.8440 3.37514   1
  -5  29   2 -3.4443 3.04941   1
 -26  29   2 64.6603 18.3275  -2
  -2  29   2 64.6603 18.3275   1
 -29  29   2 52.4180 14.0539  -2
   1  29   2 52.4180 14.0539   1
 -32  29   2 167.624 22.7946  -2
   4  29   2 167.624 22.7946   1
 -35  29   2 140.256 23.4728  -2
   7  29   2 140.256 23.4728   1
 -37  30   2 148.660 16.0952   1
   3  31   2 96.2208 20.3749  -2
 -34  30   2 96.2208 20.3749   1
 -31  30   2 15.9962 4.79668   1
  -3  31   2 235.569 22.9629  -2
 -28  30   2 235.569 22.9629   1
 -25  30   2 281.935 9.20431   1
 -22  30   2 304.791 9.69579   1
 -19  30   2 120.524 6.06677   1
 -16  30   2 59.8729 4.32364   1
 -13  30   2 14.1648 3.34248   1
 -10  30   2 19.4952 3.39821   1
 -22  30   2 217.823 18.9192  -2
  -7  30   2 217.823 18.9192   1
  -4  30   2 40.8431 4.05913   1
 -28  30   2 399.567 28.1994  -2
  -1  30   2 399.567 28.1994   1
 -31  30   2 181.255 12.2714  -2
   2  30   2 181.255 12.2714   1
   5  30   2 37.6875 7.08811   1
 -37  30   2 104.326 18.3339  -2
   8  30   2 104.326 18.3339   1
 -36  31   2 14.8141 10.0782   1
 -33  31   2 24.3949 5.52833   1
 -30  31   2 12.7202 5.92907   1
  -5  32   2 284.078 24.1564  -2
 -27  31   2 284.078 24.1564   1
 -24  31   2 320.959 9.84558   1
 -21  31   2 101.778 6.14300   1
 -18  31   2 28.6845 3.85202   1
 -15  31   2 278.635 8.78331   1
 -12  31   2 417.820 10.8818   1
 -21  31   2 117.232 17.0950  -2
  -9  31   2 117.232 17.0950   1
 -24  31   2 244.603 20.5823  -2
  -6  31   2 244.603 20.5823   1
 -27  31   2 232.190 12.6719  -2
  -3  31   2 232.190 12.6719   1
 -30  31   2 30.6945 9.36269  -2
   0  31   2 30.6945 9.36269   1
 -33  31   2 22.5251 20.7376  -2
   3  31   2 22.5251 20.7376   1
 -36  31   2 -3.8062 17.7014  -2
   6  31   2 -3.8062 17.7014   1
 -35  32   2 -8.6761 8.26285   1
  -1  33   2 236.923 26.7449  -2
 -32  32   2 236.923 26.7449   1
 -29  32   2 14.7870 5.11737   1
  -7  33   2 48.6855 20.7948  -2
 -26  32   2 48.6855 20.7948   1
 -23  32   2 2.38824 4.10220   1
 -20  32   2 27.8872 4.13208   1
 -14  32   2 652.436 25.9560  -2
 -17  32   2 652.436 25.9560   1
 -14  32   2 484.489 12.1603   1
 -20  32   2 79.9779 16.5807  -2
 -11  32   2 79.9779 16.5807   1
 -23  32   2 8.53051 11.7076  -2
  -8  32   2 8.53051 11.7076   1
 -26  32   2 45.7724 11.0593  -2
  -5  32   2 45.7724 11.0593   1
 -29  32   2 140.780 11.7550  -2
  -2  32   2 140.780 11.7550   1
 -32  32   2 216.940 18.1278  -2
   1  32   2 216.940 18.1278   1
 -35  32   2 37.8575 12.2608  -2
   4  32   2 37.8575 12.2608   1
 -34  33   2 69.0066 8.49982   1
 -31  33   2 34.3829 5.94404   1
 -28  33   2 124.688 7.88805   1
 -25  33   2 60.3658 5.20661   1
 -22  33   2 49.1605 4.78566   1
 -13  33   2 7.64626 18.2100  -2
 -19  33   2 7.64626 18.2100   1
 -16  33   2 17.2082 16.5336  -2
 -16  33   2 17.2082 16.5336   1
 -19  33   2 -6.5992 16.5753  -2
 -13  33   2 -6.5992 16.5753   1
 -22  33   2 64.5218 16.8174  -2
 -10  33   2 64.5218 16.8174   1
 -25  33   2 96.2685 13.1419  -2
  -7  33   2 96.2685 13.1419   1
 -28  33   2 369.292 14.2127  -2
  -4  33   2 369.292 14.2127   1
 -31  33   2 341.527 15.7333  -2
  -1  33   2 341.527 15.7333   1
 -34  33   2 165.142 14.3067  -2
   2  33   2 165.142 14.3067   1
 -33  34   2 11.7458 6.29116   1
 -30  34   2 35.3631 6.09172   1
 -27  34   2 141.282 10.1025   1
 -24  34   2 19.3890 4.68416   1
 -12  34   2 34.9315 17.9399  -2
 -21  34   2 34.9315 17.9399   1
 -15  34   2 393.141 27.3521  -2
 -18  34   2 393.141 27.3521   1
 -18  34   2 390.481 26.6077  -2
 -15  34   2 390.481 26.6077   1
 -21  34   2 30.9858 16.6116  -2
 -12  34   2 30.9858 16.6116   1
 -24  34   2 78.5925 10.4349  -2
  -9  34   2 78.5925 10.4349   1
 -27  34   2 186.035 12.4178  -2
  -6  34   2 186.035 12.4178   1
 -30  34   2 61.3594 13.6595  -2
  -3  34   2 61.3594 13.6595   1
 -33  34   2 -2.4330 18.9112  -2
   0  34   2 -2.4330 18.9112   1
 -32  35   2 2.10300 7.93855   1
 -29  35   2 1.13904 5.86738   1
 -26  35   2 25.5629 5.87902   1
 -23  35   2 2.26719 4.52148   1
 -14  35   2 76.2476 19.0494  -2
 -20  35   2 76.2476 19.0494   1
 -17  35   2 540.323 33.3619  -2
 -17  35   2 540.323 33.3619   1
 -20  35   2 130.362 13.6135  -2
 -14  35   2 130.362 13.6135   1
 -23  35   2 60.3105 14.5660  -2
 -11  35   2 60.3105 14.5660   1
 -26  35   2 26.2441 12.4113  -2
  -8  35   2 26.2441 12.4113   1
 -29  35   2 46.2621 13.1122  -2
  -5  35   2 46.2621 13.1122   1
 -32  35   2 69.8588 14.0000  -2
  -2  35   2 69.8588 14.0000   1
 -31  36   2 -1.3182 7.05165   1
 -28  36   2 2.26741 6.09929   1
 -25  36   2 14.9645 5.67010   1
 -13  36   2 37.4237 19.3260  -2
 -22  36   2 37.4237 19.3260   1
 -16  36   2 -6.7523 18.5970  -2
 -19  36   2 -6.7523 18.5970   1
 -19  36   2 -18.715 12.6853  -2
 -16  36   2 -18.715 12.6853   1
 -22  36   2 45.9370 11.0151  -2
 -13  36   2 45.9370 11.0151   1
 -25  36   2 7.35663 12.0831  -2
 -10  36   2 7.35663 12.0831   1
  -7  36   2 76.8091 19.0712   1
 -31  36   2 88.4156 22.1028  -2
  -4  36   2 88.4156 22.1028   1
 -30  37   2 -0.1270 6.43309   1
 -27  37   2 1.76546 7.30104   1
 -24  37   2 10.3362 8.49509   1
 -15  37   2 1.31920 18.9815  -2
 -21  37   2 1.31920 18.9815   1
 -18  37   2 97.0170 19.9026  -2
 -18  37   2 97.0170 19.9026   1
 -21  37   2 -2.3341 18.1110  -2
 -15  37   2 -2.3341 18.1110   1
 -24  37   2 -7.8478 17.7545  -2
 -12  37   2 -7.8478 17.7545   1
  -9  37   2 19.5890 17.2577   1
 -30  37   2 1.63656 11.0846  -2
  -6  37   2 1.63656 11.0846   1
 -29  38   2 11.6830 6.22182   1
 -26  38   2 45.6063 7.76663   1
 -23  38   2 2.61365 6.93762   1
 -20  38   2 1.99062 5.68761   1
 -17  38   2 7.90184 4.97938   1
 -23  38   2 30.2181 13.7049  -2
 -14  38   2 30.2181 13.7049   1
 -26  38   2 62.7220 12.3449  -2
 -11  38   2 62.7220 12.3449   1
 -29  38   2 57.5190 10.1070  -2
  -8  38   2 57.5190 10.1070   1
 -28  39   2 28.7196 11.3775   1
 -13  39   2 181.317 23.6156  -2
 -25  39   2 181.317 23.6156   1
 -16  39   2 50.4793 19.9823  -2
 -22  39   2 50.4793 19.9823   1
 -19  39   2 -4.5632 18.5201  -2
 -19  39   2 -4.5632 18.5201   1
 -22  39   2 72.1113 19.9805  -2
 -16  39   2 72.1113 19.9805   1
 -25  39   2 202.222 14.5393  -2
 -13  39   2 202.222 14.5393   1
 -24  40   2 -6.4833 8.21977   1
 -18  40   2 18.3573 19.4157  -2
 -21  40   2 18.3573 19.4157   1
 -21  40   2 22.0501 19.3116  -2
 -18  40   2 22.0501 19.3116   1
   0   0   3 447.031 10.4224  -2
   0   0   3 447.031 10.4224   1
   1   1   3 951.568 13.2016  -2
   1   1   3 951.568 13.2016   1
  -1   2   3 2743.81 37.4909  -2
  -1   2   3 2743.81 37.4909   1
   2   2   3 8718.98 458.316  -2
   2   2   3 8718.98 458.316   1
   0   3   3 1921.91 26.5935  -2
  -3   3   3 1921.91 26.5935   1
  -3   3   3 1680.85 23.5419  -2
   0   3   3 1680.85 23.5419   1
   3   3   3 1281.69 18.5512  -2
   3   3   3 1281.69 18.5512   1
   1   4   3 1140.70 14.8247  -2
  -5   4   3 1140.70 14.8247   1
  -2   4   3 6.68235 0.64964  -2
  -2   4   3 6.68235 0.64964   1
  -5   4   3 1038.28 14.5303  -2
   1   4   3 1038.28 14.5303   1
   4   4   3 489.082 6.89101  -2
   4   4   3 489.082 6.89101   1
   2   5   3 2125.43 28.4922  -2
  -7   5   3 2125.43 28.4922   1
  -1   5   3 1435.56 19.1272  -2
  -4   5   3 1435.56 19.1272   1
  -4   5   3 1205.37 16.2882  -2
  -1   5   3 1205.37 16.2882   1
  -7   5   3 1650.98 22.9620  -2
   2   5   3 1650.98 22.9620   1
   5   5   3 61.5947 1.87331  -2
   5   5   3 61.5947 1.87331   1
   3   6   3 150.225 2.74276  -2
  -9   6   3 150.225 2.74276   1
   0   6   3 174.912 2.90720  -2
  -6   6   3 174.912 2.90720   1
  -3   6   3 1380.95 18.4316  -2
  -3   6   3 1380.95 18.4316   1
  -6   6   3 152.103 2.55103  -2
   0   6   3 152.103 2.55103   1
  -9   6   3 104.634 2.07473  -2
   3   6   3 104.634 2.07473   1
   6   6   3 1228.30 17.2103  -2
   6   6   3 1228.30 17.2103   1
   4   7   3 1446.96 19.4874  -2
 -11   7   3 1446.96 19.4874   1
   1   7   3 1373.73 20.4001  -2
  -8   7   3 1373.73 20.4001   1
  -2   7   3 315.514 4.81841  -2
  -5   7   3 315.514 4.81841   1
  -5   7   3 473.662 6.66036  -2
  -2   7   3 473.662 6.66036   1
  -8   7   3 1114.46 15.8207  -2
   1   7   3 1114.46 15.8207   1
 -11   7   3 1042.16 14.7965  -2
   4   7   3 1042.16 14.7965   1
   7   7   3 775.984 10.8723  -2
   7   7   3 775.984 10.8723   1
   5   8   3 72.1018 2.26401  -2
 -13   8   3 72.1018 2.26401   1
   2   8   3 413.183 6.14324  -2
 -10   8   3 413.183 6.14324   1
  -1   8   3 749.247 9.98828  -2
  -7   8   3 749.247 9.98828   1
  -4   8   3 4.63638 0.91512  -2
  -4   8   3 4.63638 0.91512   1
  -7   8   3 950.756 14.1151  -2
  -1   8   3 950.756 14.1151   1
 -10   8   3 312.024 4.98170  -2
   2   8   3 312.024 4.98170   1
 -13   8   3 59.9614 1.94274  -2
   5   8   3 59.9614 1.94274   1
   8   8   3 19.0601 1.83920  -2
   8   8   3 19.0601 1.83920   1
   6   9   3 1441.43 18.9871  -2
 -15   9   3 1441.43 18.9871   1
   3   9   3 1762.51 22.9425  -2
 -12   9   3 1762.51 22.9425   1
   0   9   3 816.818 11.8142  -2
  -9   9   3 816.818 11.8142   1
  -3   9   3 118.305 2.78507  -2
  -6   9   3 118.305 2.78507   1
  -6   9   3 153.114 2.79780  -2
  -3   9   3 153.114 2.79780   1
  -9   9   3 596.529 8.85175  -2
   0   9   3 596.529 8.85175   1
 -12   9   3 1238.62 16.9344  -2
   3   9   3 1238.62 16.9344   1
 -15   9   3 1090.19 15.1093  -2
   6   9   3 1090.19 15.1093   1
   9   9   3 369.781 6.03932  -2
   9   9   3 369.781 6.03932   1
   7  10   3 1494.66 19.7436  -2
 -17  10   3 1494.66 19.7436   1
   4  10   3 1871.19 25.4239  -2
 -14  10   3 1871.19 25.4239   1
   1  10   3 3343.19 44.7351  -2
 -11  10   3 3343.19 44.7351   1
  -2  10   3 3271.94 43.2862  -2
  -8  10   3 3271.94 43.2862   1
  -5  10   3 1149.85 16.0286  -2
  -5  10   3 1149.85 16.0286   1
  -8  10   3 4107.53 68.7581  -2
  -2  10   3 4107.53 68.7581   1
 -11  10   3 2628.70 38.3143  -2
   1  10   3 2628.70 38.3143   1
 -14  10   3 1418.28 19.3667  -2
   4  10   3 1418.28 19.3667   1
 -17  10   3 1158.27 16.0942  -2
   7  10   3 1158.27 16.0942   1
  10  10   3 383.169 6.61343  -2
  10  10   3 383.169 6.61343   1
   8  11   3 369.439 6.21383  -2
 -19  11   3 369.439 6.21383   1
   5  11   3 96.3069 2.69883  -2
 -16  11   3 96.3069 2.69883   1
   2  11   3 647.212 9.24929  -2
 -13  11   3 647.212 9.24929   1
  -1  11   3 1943.96 26.8196  -2
 -10  11   3 1943.96 26.8196   1
  -4  11   3 2996.23 39.6826  -2
  -7  11   3 2996.23 39.6826   1
  -7  11   3 3910.64 56.6691  -2
  -4  11   3 3910.64 56.6691   1
 -10  11   3 2777.30 43.8862  -2
  -1  11   3 2777.30 43.8862   1
 -13  11   3 868.284 14.4663  -2
   2  11   3 868.284 14.4663   1
 -16  11   3 107.599 2.67054  -2
   5  11   3 107.599 2.67054   1
 -19  11   3 317.374 5.66893  -2
   8  11   3 317.374 5.66893   1
  11  11   3 1592.28 22.7578  -2
  11  11   3 1592.28 22.7578   1
   9  12   3 371.583 6.17317  -2
 -21  12   3 371.583 6.17317   1
   6  12   3 281.854 5.00888  -2
 -18  12   3 281.854 5.00888   1
   3  12   3 854.587 11.6924  -2
 -15  12   3 854.587 11.6924   1
   0  12   3 2308.20 31.1486  -2
 -12  12   3 2308.20 31.1486   1
  -3  12   3 1432.09 19.9532  -2
  -9  12   3 1432.09 19.9532   1
  -6  12   3 383.804 6.27772  -2
  -6  12   3 383.804 6.27772   1
  -9  12   3 1053.07 18.2756  -2
  -3  12   3 1053.07 18.2756   1
 -12  12   3 1646.40 26.4456  -2
   0  12   3 1646.40 26.4456   1
 -15  12   3 621.724 10.9025  -2
   3  12   3 621.724 10.9025   1
 -18  12   3 208.080 4.08035  -2
   6  12   3 208.080 4.08035   1
 -21  12   3 402.361 6.78204  -2
   9  12   3 402.361 6.78204   1
  12  12   3 1709.46 35.9669  -2
  12  12   3 1709.46 35.9669   1
  10  13   3 94.4237 3.76921  -2
 -23  13   3 94.4237 3.76921   1
   7  13   3 25.0728 2.21432  -2
 -20  13   3 25.0728 2.21432   1
   4  13   3 780.180 10.8897  -2
 -17  13   3 780.180 10.8897   1
   1  13   3 2128.26 28.5401  -2
 -14  13   3 2128.26 28.5401   1
  -2  13   3 2903.67 37.4462  -2
 -11  13   3 2903.67 37.4462   1
  -5  13   3 2508.88 32.3895  -2
  -8  13   3 2508.88 32.3895   1
  -8  13   3 3497.73 57.8990  -2
  -5  13   3 3497.73 57.8990   1
 -11  13   3 3276.60 51.7274  -2
  -2  13   3 3276.60 51.7274   1
 -14  13   3 1944.55 31.1458  -2
   1  13   3 1944.55 31.1458   1
 -17  13   3 665.911 11.6876  -2
   4  13   3 665.911 11.6876   1
 -20  13   3 18.4590 2.15580  -2
   7  13   3 18.4590 2.15580   1
 -23  13   3 129.842 6.42858  -2
  10  13   3 129.842 6.42858   1
  13  13   3 55.1992 4.22256  -2
  13  13   3 55.1992 4.22256   1
  11  14   3 1530.28 27.5814  -2
 -25  14   3 1530.28 27.5814   1
   8  14   3 754.053 10.7319  -2
 -22  14   3 754.053 10.7319   1
   5  14   3 71.4037 2.62749  -2
 -19  14   3 71.4037 2.62749   1
   2  14   3 155.926 3.39984  -2
 -16  14   3 155.926 3.39984   1
  -1  14   3 1048.13 15.3540  -2
 -13  14   3 1048.13 15.3540   1
  -4  14   3 1845.55 24.8529  -2
 -10  14   3 1845.55 24.8529   1
  -7  14   3 3259.84 46.8182  -2
  -7  14   3 3259.84 46.8182   1
 -10  14   3 2414.97 38.3966  -2
  -4  14   3 2414.97 38.3966   1
 -13  14   3 1489.51 24.1331  -2
  -1  14   3 1489.51 24.1331   1
 -16  14   3 219.929 5.31230  -2
   2  14   3 219.929 5.31230   1
 -19  14   3 88.4375 3.57475  -2
   5  14   3 88.4375 3.57475   1
 -22  14   3 1082.82 20.2674  -2
   8  14   3 1082.82 20.2674   1
 -25  14   3 2106.04 42.0864  -2
  11  14   3 2106.04 42.0864   1
  14  14   3 640.595 14.3718  -2
  14  14   3 640.595 14.3718   1
  12  15   3 1264.37 28.3155  -2
 -27  15   3 1264.37 28.3155   1
   9  15   3 937.124 19.4039  -2
 -24  15   3 937.124 19.4039   1
   6  15   3 765.830 10.8649  -2
 -21  15   3 765.830 10.8649   1
   3  15   3 641.411 9.25203  -2
 -18  15   3 641.411 9.25203   1
   0  15   3 807.080 11.1883  -2
 -15  15   3 807.080 11.1883   1
  -3  15   3 1424.44 18.8160  -2
 -12  15   3 1424.44 18.8160   1
  -6  15   3 414.918 6.63714  -2
  -9  15   3 414.918 6.63714   1
  -9  15   3 309.635 6.67763  -2
  -6  15   3 309.635 6.67763   1
 -12  15   3 1047.08 17.3781  -2
  -3  15   3 1047.08 17.3781   1
 -15  15   3 597.107 11.2810  -2
   0  15   3 597.107 11.2810   1
 -18  15   3 600.275 10.7542  -2
   3  15   3 600.275 10.7542   1
 -21  15   3 1087.31 18.1811  -2
   6  15   3 1087.31 18.1811   1
 -24  15   3 1267.84 23.0700  -2
   9  15   3 1267.84 23.0700   1
 -27  15   3 1630.82 35.8451  -2
  12  15   3 1630.82 35.8451   1
  15  15   3 58.0134 4.95768  -2
  15  15   3 58.0134 4.95768   1
  13  16   3 21.3946 4.53256  -2
 -29  16   3 21.3946 4.53256   1
  10  16   3 106.067 4.11498  -2
 -26  16   3 106.067 4.11498   1
   7  16   3 51.0496 2.75589  -2
 -23  16   3 51.0496 2.75589   1
   4  16   3 299.227 5.20597  -2
 -20  16   3 299.227 5.20597   1
   1  16   3 785.494 11.0331  -2
 -17  16   3 785.494 11.0331   1
  -2  16   3 1358.68 18.0783  -2
 -14  16   3 1358.68 18.0783   1
  -5  16   3 982.823 14.4528  -2
 -11  16   3 982.823 14.4528   1
  -8  16   3 1498.08 22.9213  -2
  -8  16   3 1498.08 22.9213   1
 -11  16   3 1389.58 25.0364  -2
  -5  16   3 1389.58 25.0364   1
 -14  16   3 1507.07 24.5038  -2
  -2  16   3 1507.07 24.5038   1
 -17  16   3 746.805 12.9652  -2
   1  16   3 746.805 12.9652   1
 -20  16   3 403.820 7.87591  -2
   4  16   3 403.820 7.87591   1
 -23  16   3 47.5345 4.07804  -2
   7  16   3 47.5345 4.07804   1
 -26  16   3 101.166 5.57082  -2
  10  16   3 101.166 5.57082   1
 -29  16   3 16.9541 4.41035  -2
  13  16   3 16.9541 4.41035   1
  16  16   3 1.74558 5.31723  -2
  16  16   3 1.74558 5.31723   1
  14  17   3 10.4830 4.10408  -2
 -31  17   3 10.4830 4.10408   1
  11  17   3 710.431 15.8128  -2
 -28  17   3 710.431 15.8128   1
   8  17   3 972.797 16.3516  -2
 -25  17   3 972.797 16.3516   1
   5  17   3 415.620 7.14935  -2
 -22  17   3 415.620 7.14935   1
   2  17   3 35.9858 2.30577  -2
 -19  17   3 35.9858 2.30577   1
  -1  17   3 419.303 6.75057  -2
 -16  17   3 419.303 6.75057   1
  -4  17   3 743.307 10.7073  -2
 -13  17   3 743.307 10.7073   1
  -7  17   3 678.316 10.2640  -2
 -10  17   3 678.316 10.2640   1
 -10  17   3 697.579 12.1910  -2
  -7  17   3 697.579 12.1910   1
 -13  17   3 1049.58 17.5443  -2
  -4  17   3 1049.58 17.5443   1
 -16  17   3 600.031 10.8100  -2
  -1  17   3 600.031 10.8100   1
 -19  17   3 34.1402 2.56882  -2
   2  17   3 34.1402 2.56882   1
 -22  17   3 444.228 12.2041  -2
   5  17   3 444.228 12.2041   1
 -25  17   3 1185.44 26.5593  -2
   8  17   3 1185.44 26.5593   1
 -28  17   3 986.864 20.8998  -2
  11  17   3 986.864 20.8998   1
 -31  17   3 10.7359 4.76052  -2
  14  17   3 10.7359 4.76052   1
  17  17   3 2.19805 5.77650  -2
  17  17   3 2.19805 5.77650   1
  15  18   3 -0.7211 5.73229  -2
 -33  18   3 -0.7211 5.73229   1
  12  18   3 300.845 8.67323  -2
 -30  18   3 300.845 8.67323   1
   9  18   3 411.808 9.13799  -2
 -27  18   3 411.808 9.13799   1
   6  18   3 664.033 13.3259  -2
 -24  18   3 664.033 13.3259   1
   3  18   3 437.991 7.42782  -2
 -21  18   3 437.991 7.42782   1
   0  18   3 161.351 3.64774  -2
 -18  18   3 161.351 3.64774   1
  -3  18   3 72.7034 2.51537  -2
 -15  18   3 72.7034 2.51537   1
  -6  18   3 18.4301 2.05948  -2
 -12  18   3 18.4301 2.05948   1
  -9  18   3 448.174 8.42826  -2
  -9  18   3 448.174 8.42826   1
 -12  18   3 16.5262 2.55821  -2
  -6  18   3 16.5262 2.55821   1
 -15  18   3 59.4268 3.29570  -2
  -3  18   3 59.4268 3.29570   1
 -18  18   3 123.631 4.14783  -2
   0  18   3 123.631 4.14783   1
 -21  18   3 549.726 17.0102  -2
   3  18   3 549.726 17.0102   1
 -24  18   3 882.624 19.0179  -2
   6  18   3 882.624 19.0179   1
 -27  18   3 561.688 12.9829  -2
   9  18   3 561.688 12.9829   1
 -30  18   3 342.251 9.34353  -2
  12  18   3 342.251 9.34353   1
 -33  18   3 8.11839 5.18403  -2
  15  18   3 8.11839 5.18403   1
  18  18   3 174.544 8.13753  -2
  18  18   3 174.544 8.13753   1
  16  19   3 95.8127 6.86830  -2
 -35  19   3 95.8127 6.86830   1
  13  19   3 57.6384 6.24696  -2
 -32  19   3 57.6384 6.24696   1
  10  19   3 57.3338 4.71239  -2
 -29  19   3 57.3338 4.71239   1
   7  19   3 267.013 7.58912  -2
 -26  19   3 267.013 7.58912   1
   4  19   3 71.6979 3.40526  -2
 -23  19   3 71.6979 3.40526   1
   1  19   3 74.1094 2.91546  -2
 -20  19   3 74.1094 2.91546   1
  -2  19   3 195.241 3.98826  -2
 -17  19   3 195.241 3.98826   1
  -5  19   3 274.110 5.72641  -2
 -14  19   3 274.110 5.72641   1
  -8  19   3 904.831 13.9923  -2
 -11  19   3 904.831 13.9923   1
 -11  19   3 839.948 14.4510  -2
  -8  19   3 839.948 14.4510   1
 -14  19   3 364.938 7.49235  -2
  -5  19   3 364.938 7.49235   1
 -17  19   3 231.215 5.63129  -2
  -2  19   3 231.215 5.63129   1
 -20  19   3 106.379 7.49140  -2
   1  19   3 106.379 7.49140   1
 -23  19   3 70.5778 4.66596  -2
   4  19   3 70.5778 4.66596   1
 -26  19   3 205.188 6.69952  -2
   7  19   3 205.188 6.69952   1
 -29  19   3 66.7459 4.91924  -2
  10  19   3 66.7459 4.91924   1
 -32  19   3 80.5999 5.60328  -2
  13  19   3 80.5999 5.60328   1
 -35  19   3 87.0681 6.81842  -2
  16  19   3 87.0681 6.81842   1
  19  19   3 353.756 15.2294  -2
  19  19   3 353.756 15.2294   1
  17  20   3 8.06446 8.47113  -2
 -37  20   3 8.06446 8.47113   1
  14  20   3 -3.2991 6.09367  -2
 -34  20   3 -3.2991 6.09367   1
  11  20   3 203.299 8.10285  -2
 -31  20   3 203.299 8.10285   1
   8  20   3 530.829 12.6617  -2
 -28  20   3 530.829 12.6617   1
   5  20   3 912.712 15.3322  -2
 -25  20   3 912.712 15.3322   1
   2  20   3 174.869 4.74579  -2
 -22  20   3 174.869 4.74579   1
  -1  20   3 5.08958 2.22071  -2
 -19  20   3 5.08958 2.22071   1
  -4  20   3 271.942 5.38583  -2
 -16  20   3 271.942 5.38583   1
  -7  20   3 79.7220 2.97248  -2
 -13  20   3 79.7220 2.97248   1
 -10  20   3 14.4607 2.55363  -2
 -10  20   3 14.4607 2.55363   1
 -13  20   3 84.0731 3.80648  -2
  -7  20   3 84.0731 3.80648   1
 -16  20   3 303.091 6.93886  -2
  -4  20   3 303.091 6.93886   1
 -19  20   3 16.8801 6.26175  -2
  -1  20   3 16.8801 6.26175   1
 -22  20   3 169.365 6.00658  -2
   2  20   3 169.365 6.00658   1
 -25  20   3 874.987 18.6588  -2
   5  20   3 874.987 18.6588   1
 -28  20   3 569.508 13.1701  -2
   8  20   3 569.508 13.1701   1
 -31  20   3 184.314 6.93344  -2
  11  20   3 184.314 6.93344   1
 -34  20   3 3.48431 5.17278  -2
  14  20   3 3.48431 5.17278   1
 -37  20   3 10.7357 10.7407  -2
  17  20   3 10.7357 10.7407   1
  18  21   3 268.597 13.0720  -2
 -39  21   3 268.597 13.0720   1
  15  21   3 115.012 7.64057  -2
 -36  21   3 115.012 7.64057   1
  12  21   3 121.912 7.39411  -2
 -33  21   3 121.912 7.39411   1
   9  21   3 36.2526 5.16049  -2
 -30  21   3 36.2526 5.16049   1
   6  21   3 160.141 6.12119  -2
 -27  21   3 160.141 6.12119   1
   3  21   3 237.072 5.81668  -2
 -24  21   3 237.072 5.81668   1
   0  21   3 17.6573 2.51274  -2
 -21  21   3 17.6573 2.51274   1
  -3  21   3 77.3672 3.03725  -2
 -18  21   3 77.3672 3.03725   1
  -6  21   3 501.232 8.78447  -2
 -15  21   3 501.232 8.78447   1
  -9  21   3 1149.61 20.1137  -2
 -12  21   3 1149.61 20.1137   1
 -12  21   3 897.972 15.3305  -2
  -9  21   3 897.972 15.3305   1
 -15  21   3 357.147 7.72373  -2
  -6  21   3 357.147 7.72373   1
 -21  21   3 19.1305 3.71527  -2
   0  21   3 19.1305 3.71527   1
 -24  21   3 245.457 7.33769  -2
   3  21   3 245.457 7.33769   1
 -27  21   3 227.094 7.22423  -2
   6  21   3 227.094 7.22423   1
 -30  21   3 42.6859 4.62300  -2
   9  21   3 42.6859 4.62300   1
 -33  21   3 137.245 6.47033  -2
  12  21   3 137.245 6.47033   1
 -36  21   3 92.2291 6.93753  -2
  15  21   3 92.2291 6.93753   1
 -39  21   3 257.666 16.7686  -2
  18  21   3 257.666 16.7686   1
  16  22   3 254.342 12.2732  -2
 -38  22   3 254.342 12.2732   1
  13  22   3 63.2373 8.10065  -2
 -35  22   3 63.2373 8.10065   1
  10  22   3 80.4255 7.32061  -2
 -32  22   3 80.4255 7.32061   1
   7  22   3 201.507 7.02045  -2
 -29  22   3 201.507 7.02045   1
   4  22   3 269.662 7.26053  -2
 -26  22   3 269.662 7.26053   1
   1  22   3 66.1667 3.26973  -2
 -23  22   3 66.1667 3.26973   1
  -2  22   3 13.6359 3.36891  -2
 -20  22   3 13.6359 3.36891   1
  -5  22   3 21.0011 2.63742  -2
 -17  22   3 21.0011 2.63742   1
  -8  22   3 247.578 5.58830  -2
 -14  22   3 247.578 5.58830   1
 -11  22   3 414.142 9.21397  -2
 -11  22   3 414.142 9.21397   1
 -14  22   3 159.658 7.59967  -2
  -8  22   3 159.658 7.59967   1
 -17  22   3 14.0954 4.58440  -2
  -5  22   3 14.0954 4.58440   1
 -20  22   3 24.2189 3.80156  -2
  -2  22   3 24.2189 3.80156   1
 -23  22   3 56.6997 4.13223  -2
   1  22   3 56.6997 4.13223   1
 -26  22   3 193.853 6.68383  -2
   4  22   3 193.853 6.68383   1
 -29  22   3 159.064 6.41651  -2
   7  22   3 159.064 6.41651   1
 -32  22   3 66.5196 5.47441  -2
  10  22   3 66.5196 5.47441   1
 -35  22   3 57.2641 6.39817  -2
  13  22   3 57.2641 6.39817   1
 -38  22   3 219.204 11.8576  -2
  16  22   3 219.204 11.8576   1
  14  23   3 9.82679 8.62303  -2
 -37  23   3 9.82679 8.62303   1
  11  23   3 41.2556 6.83532  -2
 -34  23   3 41.2556 6.83532   1
   8  23   3 277.112 8.49379  -2
 -31  23   3 277.112 8.49379   1
   5  23   3 365.549 8.94685  -2
 -28  23   3 365.549 8.94685   1
   2  23   3 489.651 10.8180  -2
 -25  23   3 489.651 10.8180   1
  -1  23   3 1.67316 2.77290  -2
 -22  23   3 1.67316 2.77290   1
  -4  23   3 198.088 5.63226  -2
 -19  23   3 198.088 5.63226   1
  -7  23   3 459.387 11.1393  -2
 -16  23   3 459.387 11.1393   1
 -10  23   3 395.222 10.2278  -2
 -13  23   3 395.222 10.2278   1
 -13  23   3 277.154 9.22261  -2
 -10  23   3 277.154 9.22261   1
 -16  23   3 413.437 10.8873  -2
  -7  23   3 413.437 10.8873   1
 -19  23   3 187.549 6.57261  -2
  -4  23   3 187.549 6.57261   1
 -22  23   3 0.94443 3.55806  -2
  -1  23   3 0.94443 3.55806   1
 -25  23   3 351.791 9.29346  -2
   2  23   3 351.791 9.29346   1
 -28  23   3 272.005 8.12700  -2
   5  23   3 272.005 8.12700   1
 -31  23   3 212.386 7.47702  -2
   8  23   3 212.386 7.47702   1
 -34  23   3 43.8857 5.43948  -2
  11  23   3 43.8857 5.43948   1
 -37  23   3 15.9443 13.3546  -2
  14  23   3 15.9443 13.3546   1
  15  24   3 136.155 17.2067  -2
 -39  24   3 136.155 17.2067   1
  12  24   3 37.8665 7.53364  -2
 -36  24   3 37.8665 7.53364   1
   9  24   3 8.86730 6.14773  -2
 -33  24   3 8.86730 6.14773   1
   6  24   3 0.26315 5.38460  -2
 -30  24   3 0.26315 5.38460   1
   3  24   3 33.0394 4.86530  -2
 -27  24   3 33.0394 4.86530   1
   0  24   3 87.1646 5.17328  -2
 -24  24   3 87.1646 5.17328   1
  -3  24   3 521.854 11.6155  -2
 -21  24   3 521.854 11.6155   1
  -6  24   3 891.322 21.6743  -2
 -18  24   3 891.322 21.6743   1
  -9  24   3 1065.82 21.4535  -2
 -15  24   3 1065.82 21.4535   1
 -12  24   3 440.973 11.1332  -2
 -12  24   3 440.973 11.1332   1
 -15  24   3 796.414 17.3116  -2
  -9  24   3 796.414 17.3116   1
 -18  24   3 881.052 18.8670  -2
  -6  24   3 881.052 18.8670   1
 -21  24   3 547.163 12.6863  -2
  -3  24   3 547.163 12.6863   1
 -24  24   3 121.198 5.62954  -2
   0  24   3 121.198 5.62954   1
 -27  24   3 25.0121 4.14654  -2
   3  24   3 25.0121 4.14654   1
 -30  24   3 8.10994 4.19006  -2
   6  24   3 8.10994 4.19006   1
 -33  24   3 0.30500 5.06783  -2
   9  24   3 0.30500 5.06783   1
 -36  24   3 34.2837 9.42012  -2
  12  24   3 34.2837 9.42012   1
 -39  24   3 143.756 10.4702  -2
  15  24   3 143.756 10.4702   1
  13  25   3 33.0717 13.0214  -2
 -38  25   3 33.0717 13.0214   1
  10  25   3 39.2931 7.21485  -2
 -35  25   3 39.2931 7.21485   1
   7  25   3 303.816 9.06770  -2
 -32  25   3 303.816 9.06770   1
   4  25   3 225.173 7.35743  -2
 -29  25   3 225.173 7.35743   1
   1  25   3 463.157 12.1279  -2
 -26  25   3 463.157 12.1279   1
  -2  25   3 425.454 10.8138  -2
 -23  25   3 425.454 10.8138   1
  -5  25   3 502.653 10.5485  -2
 -20  25   3 502.653 10.5485   1
  -8  25   3 166.165 6.67569  -2
 -17  25   3 166.165 6.67569   1
 -11  25   3 6.73618 3.73141  -2
 -14  25   3 6.73618 3.73141   1
 -14  25   3 -0.1790 4.02082  -2
 -11  25   3 -0.1790 4.02082   1
 -17  25   3 201.085 6.90482  -2
  -8  25   3 201.085 6.90482   1
 -20  25   3 668.654 14.9499  -2
  -5  25   3 668.654 14.9499   1
 -23  25   3 508.237 12.0233  -2
  -2  25   3 508.237 12.0233   1
 -26  25   3 411.665 10.4363  -2
   1  25   3 411.665 10.4363   1
 -29  25   3 180.786 6.88962  -2
   4  25   3 180.786 6.88962   1
 -32  25   3 258.948 9.08026  -2
   7  25   3 258.948 9.08026   1
 -35  25   3 47.7951 5.65333  -2
  10  25   3 47.7951 5.65333   1
 -38  25   3 15.8820 7.71383  -2
  13  25   3 15.8820 7.71383   1
  11  26   3 34.7193 14.6696  -2
 -37  26   3 34.7193 14.6696   1
   8  26   3 91.1980 7.15062  -2
 -34  26   3 91.1980 7.15062   1
   5  26   3 284.944 8.75560  -2
 -31  26   3 284.944 8.75560   1
   2  26   3 378.976 10.0004  -2
 -28  26   3 378.976 10.0004   1
  -1  26   3 160.384 7.10540  -2
 -25  26   3 160.384 7.10540   1
  -4  26   3 170.290 7.46997  -2
 -22  26   3 170.290 7.46997   1
  -7  26   3 441.118 12.2429  -2
 -19  26   3 441.118 12.2429   1
 -10  26   3 854.790 18.7847  -2
 -16  26   3 854.790 18.7847   1
 -13  26   3 696.512 15.6036  -2
 -13  26   3 696.512 15.6036   1
 -16  26   3 603.393 15.0683  -2
 -10  26   3 603.393 15.0683   1
 -19  26   3 313.596 8.78248  -2
  -7  26   3 313.596 8.78248   1
 -22  26   3 123.254 6.76213  -2
  -4  26   3 123.254 6.76213   1
 -25  26   3 126.250 5.93959  -2
  -1  26   3 126.250 5.93959   1
 -28  26   3 269.169 8.21509  -2
   2  26   3 269.169 8.21509   1
 -31  26   3 232.367 7.89941  -2
   5  26   3 232.367 7.89941   1
 -34  26   3 110.656 6.22207  -2
   8  26   3 110.656 6.22207   1
 -37  26   3 25.2817 7.91550  -2
  11  26   3 25.2817 7.91550   1
   9  27   3 22.6906 11.2209  -2
 -36  27   3 22.6906 11.2209   1
   6  27   3 14.5673 6.13260  -2
 -33  27   3 14.5673 6.13260   1
   3  27   3 69.0263 7.00493  -2
 -30  27   3 69.0263 7.00493   1
   0  27   3 109.681 6.49503  -2
 -27  27   3 109.681 6.49503   1
  -3  27   3 366.582 10.1548  -2
 -24  27   3 366.582 10.1548   1
  -6  27   3 1126.55 23.9071  -2
 -21  27   3 1126.55 23.9071   1
  -9  27   3 929.009 20.1689  -2
 -18  27   3 929.009 20.1689   1
 -12  27   3 568.673 13.4249  -2
 -15  27   3 568.673 13.4249   1
 -15  27   3 427.255 10.8169  -2
 -12  27   3 427.255 10.8169   1
 -18  27   3 752.692 16.6053  -2
  -9  27   3 752.692 16.6053   1
 -21  27   3 1172.87 24.5012  -2
  -6  27   3 1172.87 24.5012   1
 -24  27   3 469.828 11.5174  -2
  -3  27   3 469.828 11.5174   1
 -27  27   3 144.841 6.33437  -2
   0  27   3 144.841 6.33437   1
 -30  27   3 78.8698 5.63094  -2
   3  27   3 78.8698 5.63094   1
 -33  27   3 10.7101 4.87973  -2
   6  27   3 10.7101 4.87973   1
 -36  27   3 -0.4840 6.51861  -2
   9  27   3 -0.4840 6.51861   1
   7  28   3 200.745 10.6128  -2
 -35  28   3 200.745 10.6128   1
   4  28   3 123.630 8.62066  -2
 -32  28   3 123.630 8.62066   1
   1  28   3 182.285 7.85078  -2
 -29  28   3 182.285 7.85078   1
  -2  28   3 379.542 10.7282  -2
 -26  28   3 379.542 10.7282   1
  -5  28   3 737.634 16.9562  -2
 -23  28   3 737.634 16.9562   1
  -8  28   3 630.002 14.7614  -2
 -20  28   3 630.002 14.7614   1
 -11  28   3 9.34389 4.65398  -2
 -17  28   3 9.34389 4.65398   1
 -14  28   3 20.9992 4.52540  -2
 -14  28   3 20.9992 4.52540   1
 -17  28   3 13.1244 4.37581  -2
 -11  28   3 13.1244 4.37581   1
 -20  28   3 822.074 17.9742  -2
  -8  28   3 822.074 17.9742   1
 -23  28   3 984.160 21.0000  -2
  -5  28   3 984.160 21.0000   1
 -26  28   3 470.859 11.6360  -2
  -2  28   3 470.859 11.6360   1
 -29  28   3 139.246 6.29599  -2
   1  28   3 139.246 6.29599   1
 -32  28   3 123.869 6.32550  -2
   4  28   3 123.869 6.32550   1
 -35  28   3 243.472 13.3232  -2
   7  28   3 243.472 13.3232   1
 -38  28   3 57.8920 13.8976  -2
  10  28   3 57.8920 13.8976   1
   8  29   3 168.085 18.8750  -2
 -37  29   3 168.085 18.8750   1
   5  29   3 122.849 10.4035  -2
 -34  29   3 122.849 10.4035   1
   2  29   3 292.552 9.79944  -2
 -31  29   3 292.552 9.79944   1
  -1  29   3 94.6271 7.13436  -2
 -28  29   3 94.6271 7.13436   1
  -4  29   3 11.4462 5.31667  -2
 -25  29   3 11.4462 5.31667   1
  -7  29   3 249.212 8.73948  -2
 -22  29   3 249.212 8.73948   1
 -10  29   3 369.461 10.4024  -2
 -19  29   3 369.461 10.4024   1
 -13  29   3 393.427 10.5765  -2
 -16  29   3 393.427 10.5765   1
 -16  29   3 330.780 9.37660  -2
 -13  29   3 330.780 9.37660   1
 -19  29   3 261.838 8.21524  -2
 -10  29   3 261.838 8.21524   1
 -22  29   3 175.313 6.96472  -2
  -7  29   3 175.313 6.96472   1
 -25  29   3 14.1081 4.55645  -2
  -4  29   3 14.1081 4.55645   1
 -28  29   3 64.0781 5.46088  -2
  -1  29   3 64.0781 5.46088   1
 -31  29   3 283.066 8.80359  -2
   2  29   3 283.066 8.80359   1
 -34  29   3 174.495 10.0430  -2
   5  29   3 174.495 10.0430   1
 -37  29   3 183.472 8.50991  -2
   8  29   3 183.472 8.50991   1
   3  30   3 29.6473 8.51444  -2
 -33  30   3 29.6473 8.51444   1
   0  30   3 93.1246 7.70746  -2
 -30  30   3 93.1246 7.70746   1
  -3  30   3 179.296 9.19265  -2
 -27  30   3 179.296 9.19265   1
  -6  30   3 442.249 12.0690  -2
 -24  30   3 442.249 12.0690   1
  -9  30   3 681.516 16.0228  -2
 -21  30   3 681.516 16.0228   1
 -12  30   3 296.389 9.24458  -2
 -18  30   3 296.389 9.24458   1
 -15  30   3 294.155 9.65679  -2
 -15  30   3 294.155 9.65679   1
 -18  30   3 212.011 7.54737  -2
 -12  30   3 212.011 7.54737   1
 -21  30   3 694.274 15.7719  -2
  -9  30   3 694.274 15.7719   1
 -24  30   3 571.983 13.6174  -2
  -6  30   3 571.983 13.6174   1
 -27  30   3 244.900 8.12537  -2
  -3  30   3 244.900 8.12537   1
 -30  30   3 116.914 6.23924  -2
   0  30   3 116.914 6.23924   1
 -33  30   3 26.9996 7.07247  -2
   3  30   3 26.9996 7.07247   1
 -36  30   3 13.8141 5.87237  -2
   6  30   3 13.8141 5.87237   1
   4  31   3 66.4536 20.4850  -2
 -35  31   3 66.4536 20.4850   1
   1  31   3 23.9073 7.86847  -2
 -32  31   3 23.9073 7.86847   1
  -2  31   3 50.5591 6.99593  -2
 -29  31   3 50.5591 6.99593   1
  -5  31   3 376.275 12.2056  -2
 -26  31   3 376.275 12.2056   1
  -8  31   3 367.222 10.9809  -2
 -23  31   3 367.222 10.9809   1
 -11  31   3 42.7816 5.53163  -2
 -20  31   3 42.7816 5.53163   1
 -14  31   3 31.9164 5.05271  -2
 -17  31   3 31.9164 5.05271   1
 -17  31   3 29.4710 5.03427  -2
 -14  31   3 29.4710 5.03427   1
 -20  31   3 46.6317 4.85895  -2
 -11  31   3 46.6317 4.85895   1
 -23  31   3 520.242 12.7229  -2
  -8  31   3 520.242 12.7229   1
 -26  31   3 478.546 11.9857  -2
  -5  31   3 478.546 11.9857   1
 -29  31   3 74.9491 5.83278  -2
  -2  31   3 74.9491 5.83278   1
 -32  31   3 25.9468 6.05308  -2
   1  31   3 25.9468 6.05308   1
 -35  31   3 134.691 7.78128  -2
   4  31   3 134.691 7.78128   1
   2  32   3 89.3880 11.1691  -2
 -34  32   3 89.3880 11.1691   1
  -1  32   3 51.4925 7.17396  -2
 -31  32   3 51.4925 7.17396   1
  -4  32   3 22.3361 6.54265  -2
 -28  32   3 22.3361 6.54265   1
  -7  32   3 8.08999 6.60314  -2
 -25  32   3 8.08999 6.60314   1
 -10  32   3 78.4090 6.23111  -2
 -22  32   3 78.4090 6.23111   1
 -13  32   3 22.0068 5.38621  -2
 -19  32   3 22.0068 5.38621   1
 -16  32   3 -1.2112 4.79791  -2
 -16  32   3 -1.2112 4.79791   1
 -19  32   3 39.4495 5.06199  -2
 -13  32   3 39.4495 5.06199   1
 -22  32   3 71.2079 5.37644  -2
 -10  32   3 71.2079 5.37644   1
 -25  32   3 2.55557 4.66442  -2
  -7  32   3 2.55557 4.66442   1
 -28  32   3 24.3371 5.26090  -2
  -4  32   3 24.3371 5.26090   1
 -31  32   3 38.2072 5.52955  -2
  -1  32   3 38.2072 5.52955   1
 -34  32   3 89.3378 6.67314  -2
   2  32   3 89.3378 6.67314   1
   0  33   3 59.7030 10.0163  -2
 -33  33   3 59.7030 10.0163   1
  -3  33   3 210.444 10.2699  -2
 -30  33   3 210.444 10.2699   1
  -6  33   3 306.490 11.3246  -2
 -27  33   3 306.490 11.3246   1
  -9  33   3 293.981 10.5611  -2
 -24  33   3 293.981 10.5611   1
 -12  33   3 33.8170 5.55243  -2
 -21  33   3 33.8170 5.55243   1
 -15  33   3 14.3970 5.14864  -2
 -18  33   3 14.3970 5.14864   1
 -18  33   3 27.1861 5.14660  -2
 -15  33   3 27.1861 5.14660   1
 -21  33   3 32.4730 4.85741  -2
 -12  33   3 32.4730 4.85741   1
 -24  33   3 340.396 9.81621  -2
  -9  33   3 340.396 9.81621   1
 -27  33   3 264.944 8.60488  -2
  -6  33   3 264.944 8.60488   1
 -30  33   3 145.893 8.53316  -2
  -3  33   3 145.893 8.53316   1
 -33  33   3 54.3922 5.87377  -2
   0  33   3 54.3922 5.87377   1
  -2  34   3 155.727 19.0804  -2
 -32  34   3 155.727 19.0804   1
  -5  34   3 440.917 13.8064  -2
 -29  34   3 440.917 13.8064   1
  -8  34   3 436.963 13.3806  -2
 -26  34   3 436.963 13.3806   1
 -11  34   3 49.6480 6.68346  -2
 -23  34   3 49.6480 6.68346   1
 -14  34   3 16.1952 5.51864  -2
 -20  34   3 16.1952 5.51864   1
 -17  34   3 112.284 6.58355  -2
 -17  34   3 112.284 6.58355   1
 -20  34   3 18.1244 4.87083  -2
 -14  34   3 18.1244 4.87083   1
 -23  34   3 45.4318 5.36016  -2
 -11  34   3 45.4318 5.36016   1
 -26  34   3 369.773 10.3548  -2
  -8  34   3 369.773 10.3548   1
 -29  34   3 357.416 20.6348  -2
  -5  34   3 357.416 20.6348   1
 -32  34   3 145.363 6.92886  -2
  -2  34   3 145.363 6.92886   1
  -4  35   3 58.7137 10.1504  -2
 -31  35   3 58.7137 10.1504   1
  -7  35   3 72.6997 8.26040  -2
 -28  35   3 72.6997 8.26040   1
 -10  35   3 60.7925 6.84336  -2
 -25  35   3 60.7925 6.84336   1
 -13  35   3 19.3895 6.10525  -2
 -22  35   3 19.3895 6.10525   1
 -16  35   3 33.7188 5.57171  -2
 -19  35   3 33.7188 5.57171   1
 -19  35   3 27.0815 5.14783  -2
 -16  35   3 27.0815 5.14783   1
 -22  35   3 38.2531 5.45397  -2
 -13  35   3 38.2531 5.45397   1
 -25  35   3 84.9329 6.18228  -2
 -10  35   3 84.9329 6.18228   1
 -28  35   3 60.1601 11.7603  -2
  -7  35   3 60.1601 11.7603   1
 -31  35   3 47.8292 5.38696  -2
  -4  35   3 47.8292 5.38696   1
  -6  36   3 45.7182 10.1333  -2
 -30  36   3 45.7182 10.1333   1
  -9  36   3 51.5574 9.55796  -2
 -27  36   3 51.5574 9.55796   1
 -12  36   3 11.9339 6.68222  -2
 -24  36   3 11.9339 6.68222   1
 -15  36   3 31.5929 5.98781  -2
 -21  36   3 31.5929 5.98781   1
 -18  36   3 34.3892 5.59972  -2
 -18  36   3 34.3892 5.59972   1
 -21  36   3 14.9150 6.56884  -2
 -15  36   3 14.9150 6.56884   1
 -24  36   3 5.65875 6.37966  -2
 -12  36   3 5.65875 6.37966   1
 -27  36   3 55.6746 8.86984  -2
  -9  36   3 55.6746 8.86984   1
 -30  36   3 50.9313 5.41425  -2
  -6  36   3 50.9313 5.41425   1
  -8  37   3 170.719 12.0055  -2
 -29  37   3 170.719 12.0055   1
 -11  37   3 67.0834 8.96410  -2
 -26  37   3 67.0834 8.96410   1
 -14  37   3 57.6607 9.08610  -2
 -23  37   3 57.6607 9.08610   1
 -17  37   3 197.963 11.2824  -2
 -20  37   3 197.963 11.2824   1
 -20  37   3 169.261 11.5460  -2
 -17  37   3 169.261 11.5460   1
 -23  37   3 58.7221 7.16434  -2
 -14  37   3 58.7221 7.16434   1
 -26  37   3 77.5040 7.00362  -2
 -11  37   3 77.5040 7.00362   1
 -29  37   3 153.902 7.05196  -2
  -8  37   3 153.902 7.05196   1
 -10  38   3 29.8878 22.8887  -2
 -28  38   3 29.8878 22.8887   1
 -13  38   3 7.51912 10.6343  -2
 -25  38   3 7.51912 10.6343   1
 -16  38   3 135.495 8.75629  -2
 -22  38   3 135.495 8.75629   1
 -19  38   3 98.3149 8.57804  -2
 -19  38   3 98.3149 8.57804   1
 -22  38   3 165.280 8.51190  -2
 -16  38   3 165.280 8.51190   1
 -25  38   3 22.1778 5.52371  -2
 -13  38   3 22.1778 5.52371   1
 -28  38   3 21.4454 14.5168  -2
 -10  38   3 21.4454 14.5168   1
 -15  39   3 1.09852 12.0797  -2
 -24  39   3 1.09852 12.0797   1
 -18  39   3 25.5488 6.95372  -2
 -21  39   3 25.5488 6.95372   1
 -21  39   3 27.1272 5.96614  -2
 -18  39   3 27.1272 5.96614   1
 -24  39   3 9.73183 7.29336  -2
 -15  39   3 9.73183 7.29336   1
  -1   1   4 7.34365 0.71763   1
  -3   2   4 341.184 4.85498   1
   0   2   4 418.450 6.01771   1
  -5   3   4 58.5239 1.66406   1
  -2   3   4 1432.80 20.0227   1
   1   3   4 1519.01 21.1745   1
  -7   4   4 32.8877 1.49501   1
  -4   4   4 60.7168 1.67818   1
  -1   4   4 174.348 3.00059   1
   2   4   4 322.104 4.79507   1
  -9   5   4 97.1143 2.25091   1
  -6   5   4 716.136 9.97330   1
  -3   5   4 1838.87 25.2728   1
   0   5   4 805.447 11.5121   1
   3   5   4 28.6254 1.41060   1
 -11   6   4 13.5318 1.11177   1
  -8   6   4 601.363 8.24343   1
  -5   6   4 2726.14 39.4859   1
  -2   6   4 2534.64 33.6256   1
   1   6   4 348.786 5.15734   1
   4   6   4 93.2140 2.29136   1
 -13   7   4 127.059 2.82803   1
 -10   7   4 61.8081 2.04744   1
  -7   7   4 58.4128 2.03627   1
  -4   7   4 5.16004 0.86305   1
  -1   7   4 22.0565 1.02704   1
   2   7   4 11.0319 0.90949   1
   5   7   4 210.509 3.73210   1
 -15   8   4 430.001 6.40339   1
 -12   8   4 48.9848 1.94429   1
  -9   8   4 1163.37 15.8092   1
  -6   8   4 3885.85 54.9762   1
  -3   8   4 2863.14 39.9596   1
   0   8   4 154.840 2.77407   1
   3   8   4 1.39841 1.00725   1
   6   8   4 3.58704 1.20783   1
 -17   9   4 16.6340 1.53954   1
 -14   9   4 2.90341 1.19306   1
 -11   9   4 87.8809 2.56881   1
  -8   9   4 3091.98 39.8069   1
  -5   9   4 3681.32 50.3349   1
  -2   9   4 941.276 12.9537   1
   1   9   4 33.8777 1.53832   1
   4   9   4 657.320 9.83271   1
   7   9   4 988.901 14.3682   1
 -19  10   4 423.696 6.75473   1
 -16  10   4 170.202 3.84121   1
 -13  10   4 41.3392 1.91447   1
 -10  10   4 35.0073 1.72982   1
  -7  10   4 41.1620 1.72706   1
  -4  10   4 12.1666 0.98750   1
  -1  10   4 22.7225 1.48909   1
   2  10   4 417.526 6.72925   1
   5  10   4 1259.72 17.9883   1
   8  10   4 995.954 14.5538   1
 -21  11   4 256.416 5.29012   1
 -18  11   4 273.909 5.00125   1
 -15  11   4 2.45454 1.24843   1
 -12  11   4 353.966 5.70477   1
  -9  11   4 3656.15 46.9561   1
  -6  11   4 3854.54 50.9297   1
  -3  11   4 850.137 13.4917   1
   0  11   4 4.80879 1.14088   1
   3  11   4 2.47852 1.12461   1
   6  11   4 4.68116 1.36482   1
   9  11   4 12.9350 1.79987   1
 -23  12   4 273.385 8.42085   1
 -20  12   4 5.31259 1.52055   1
 -17  12   4 3.43646 1.33597   1
 -14  12   4 27.5107 1.48769   1
 -11  12   4 1065.59 14.2535   1
  -8  12   4 3732.76 49.3850   1
  -5  12   4 2743.06 37.9601   1
  -2  12   4 144.277 3.61797   1
   1  12   4 324.388 6.57204   1
   4  12   4 1470.60 22.8615   1
   7  12   4 1223.86 19.2619   1
  10  12   4 759.330 17.8397   1
 -25  13   4 183.708 12.0852  -2
 -25  13   4 183.708 12.0852   1
 -22  13   4 422.221 7.96804   1
 -19  13   4 164.473 3.65047   1
 -16  13   4 11.7888 1.37760   1
 -13  13   4 115.649 3.02496   1
 -10  13   4 5.03611 1.10677   1
  -7  13   4 365.477 5.99189   1
  -4  13   4 369.039 6.66429   1
  -1  13   4 35.1554 2.14017   1
   2  13   4 660.941 12.1134   1
   5  13   4 1086.14 18.0616   1
   8  13   4 779.450 15.8448   1
 -24  14   4 1.02488 9.20840  -2
  11  13   4 1.02488 9.20840   1
 -27  14   4 169.268 12.3715  -2
 -27  14   4 169.268 12.3715   1
  11  13   4 0.68343 9.07758  -2
 -24  14   4 0.68343 9.07758   1
 -21  14   4 496.028 7.91838   1
   5  13   4 1373.24 75.5194  -2
 -18  14   4 1373.24 75.5194   1
 -15  14   4 326.615 5.30948   1
 -12  14   4 6.48636 1.23658   1
  -9  14   4 739.357 11.9169   1
  -6  14   4 152.518 3.62873   1
  -3  14   4 74.8535 3.36044   1
   0  14   4 117.296 4.01225   1
   3  14   4 7.30514 1.84290   1
   6  14   4 6.38953 2.86392   1
 -23  15   4 73.5316 14.8502  -2
   9  14   4 73.5316 14.8502   1
 -26  15   4 243.919 13.8974  -2
  12  14   4 243.919 13.8974   1
 -29  15   4 314.298 16.5831  -2
 -29  15   4 314.298 16.5831   1
  12  14   4 232.506 11.7051  -2
 -26  15   4 232.506 11.7051   1
 -23  15   4 19.7287 2.46654   1
 -20  15   4 775.926 12.5233   1
 -17  15   4 1391.13 18.5535   1
 -14  15   4 333.389 5.47179   1
 -11  15   4 25.4854 1.42643   1
  -8  15   4 781.050 11.5691   1
  -5  15   4 362.085 7.58537   1
  -2  15   4 15.4902 1.98456   1
   1  15   4 687.172 12.0471   1
   4  15   4 626.191 15.0282   1
   7  15   4 636.763 14.1958   1
 -25  16   4 50.5568 13.8243  -2
  10  15   4 50.5568 13.8243   1
 -28  16   4 6.74514 9.28912  -2
  13  15   4 6.74514 9.28912   1
 -31  16   4 67.8077 10.8888  -2
 -31  16   4 67.8077 10.8888   1
  13  15   4 -4.3168 9.29019  -2
 -28  16   4 -4.3168 9.29019   1
  10  15   4 37.0986 9.54368  -2
 -25  16   4 37.0986 9.54368   1
 -22  16   4 23.3952 1.99755   1
 -19  16   4 683.397 10.2624   1
   1  15   4 880.892 49.9544  -2
 -16  16   4 880.892 49.9544   1
 -13  16   4 150.994 3.29927   1
 -10  16   4 32.6709 2.08198   1
  -7  16   4 434.912 8.28679   1
  -4  16   4 549.224 9.98525   1
  -1  16   4 3.27456 1.76191   1
   2  16   4 402.252 8.52571   1
   5  16   4 546.407 12.5262   1
 -24  17   4 113.859 14.5309  -2
   8  16   4 113.859 14.5309   1
 -27  17   4 313.072 15.7718  -2
  11  16   4 313.072 15.7718   1
 -30  17   4 604.733 20.8821  -2
  14  16   4 604.733 20.8821   1
 -33  17   4 987.119 31.0228  -2
 -33  17   4 987.119 31.0228   1
  14  16   4 656.653 26.7012  -2
 -30  17   4 656.653 26.7012   1
  11  16   4 396.396 18.0628  -2
 -27  17   4 396.396 18.0628   1
 -24  17   4 11.5692 2.43040   1
   4  18   4 158.294 35.8514  -2
 -21  17   4 158.294 35.8514   1
   1  18   4 225.942 34.4640  -2
 -18  17   4 225.942 34.4640   1
   2  16   4 432.970 27.8566  -2
 -18  17   4 432.970 27.8566   1
 -15  17   4 100.996 2.86786   1
 -12  17   4 83.5607 2.85877   1
  -9  17   4 19.7286 1.88152   1
  -6  17   4 220.308 5.39649   1
  -3  17   4 371.678 7.43267   1
   0  17   4 110.209 4.58677   1
   3  17   4 26.0646 2.99616   1
 -23  18   4 142.048 16.5799  -2
   6  17   4 142.048 16.5799   1
 -26  18   4 24.0403 9.73635  -2
   9  17   4 24.0403 9.73635   1
 -29  18   4 281.654 13.3624  -2
  12  17   4 281.654 13.3624   1
 -32  18   4 392.676 16.5539  -2
  15  17   4 392.676 16.5539   1
 -35  18   4 522.381 23.8426  -2
 -35  18   4 522.381 23.8426   1
  15  17   4 445.874 17.9166  -2
 -32  18   4 445.874 17.9166   1
  12  17   4 339.222 14.7809  -2
 -29  18   4 339.222 14.7809   1
   9  17   4 31.3136 9.74416  -2
 -26  18   4 31.3136 9.74416   1
 -23  18   4 223.724 5.93350   1
 -20  18   4 1727.86 23.7011   1
 -17  18   4 1392.92 18.6956   1
 -14  18   4 670.144 9.99813   1
 -11  18   4 106.541 4.15100   1
  -8  18   4 132.762 4.47727   1
  -5  18   4 84.0946 3.63282   1
  -2  18   4 75.0835 4.59746   1
   1  18   4 59.8978 4.08463   1
   4  18   4 34.9463 3.22007   1
 -25  19   4 91.7713 15.7386  -2
   7  18   4 91.7713 15.7386   1
 -28  19   4 42.1178 9.55670  -2
  10  18   4 42.1178 9.55670   1
 -31  19   4 14.2206 8.65611  -2
  13  18   4 14.2206 8.65611   1
 -34  19   4 -4.7083 10.1089  -2
  16  18   4 -4.7083 10.1089   1
 -37  19   4 -2.2282 18.0821  -2
 -37  19   4 -2.2282 18.0821   1
  16  18   4 5.41651 22.4386  -2
 -34  19   4 5.41651 22.4386   1
  13  18   4 7.73280 17.4876  -2
 -31  19   4 7.73280 17.4876   1
  10  18   4 42.9421 9.78843  -2
 -28  19   4 42.9421 9.78843   1
   7  18   4 108.685 14.7289  -2
 -25  19   4 108.685 14.7289   1
 -22  19   4 688.403 10.8563   1
 -19  19   4 1172.52 16.0043   1
 -16  19   4 692.931 10.8986   1
 -13  19   4 14.4884 1.58389   1
 -10  19   4 3.14669 2.02281   1
  -7  19   4 1141.73 19.9032   1
  -4  19   4 697.342 37.5209   1
  -1  19   4 99.5851 5.05778   1
   2  19   4 39.6135 3.35077   1
   5  19   4 8.80860 2.78827   1
   8  19   4 8.29981 2.96254   1
 -30  20   4 274.878 13.6083  -2
  11  19   4 274.878 13.6083   1
 -33  20   4 332.651 14.5697  -2
  14  19   4 332.651 14.5697   1
 -34  19   4 75.1941 47.1915  -2
  14  19   4 75.1941 47.1915   1
  17  19   4 135.859 16.3773   1
  17  19   4 378.635 20.0144  -2
 -36  20   4 378.635 20.0144   1
  14  19   4 363.747 16.5730  -2
 -33  20   4 363.747 16.5730   1
  11  19   4 307.441 13.7923  -2
 -30  20   4 307.441 13.7923   1
   8  19   4 106.262 10.1699  -2
 -27  20   4 106.262 10.1699   1
   5  19   4 16.9993 12.5023  -2
 -24  20   4 16.9993 12.5023   1
 -21  20   4 36.0256 2.51115   1
 -18  20   4 6.15994 1.72808   1
 -15  20   4 53.3189 2.76638   1
 -12  20   4 136.355 5.08737   1
  -9  20   4 104.661 5.86823   1
  -6  20   4 649.292 17.4995   1
  -3  20   4 545.001 13.8333   1
   0  20   4 -0.3966 2.65552   1
   3  20   4 86.6183 4.79493   1
   6  20   4 113.874 5.51078   1
 -29  21   4 79.8395 17.5682  -2
   9  20   4 79.8395 17.5682   1
 -32  21   4 185.223 12.4983  -2
  12  20   4 185.223 12.4983   1
 -35  21   4 183.429 25.8068  -2
  15  20   4 183.429 25.8068   1
 -38  21   4 32.4651 19.0884  -2
  18  20   4 32.4651 19.0884   1
  18  20   4 49.7602 14.4611  -2
 -38  21   4 49.7602 14.4611   1
  15  20   4 185.385 16.6413  -2
 -35  21   4 185.385 16.6413   1
  12  20   4 249.311 10.5683  -2
 -32  21   4 249.311 10.5683   1
   9  20   4 86.5804 10.6265  -2
 -29  21   4 86.5804 10.6265   1
   6  20   4 105.460 11.3136  -2
 -26  21   4 105.460 11.3136   1
 -23  21   4 687.028 13.5251   1
 -20  21   4 1343.39 27.4652   1
 -17  21   4 700.602 17.3801   1
 -14  21   4 90.6737 4.65887   1
 -11  21   4 87.7674 5.48542   1
  -8  21   4 156.381 6.06685   1
  -5  21   4 17.5199 2.94219   1
  -2  21   4 25.2397 3.17385   1
   1  21   4 43.2351 3.52882   1
   4  21   4 196.677 6.82580   1
 -28  22   4 71.0367 16.8984  -2
   7  21   4 71.0367 16.8984   1
 -31  22   4 133.688 15.5540  -2
  10  21   4 133.688 15.5540   1
 -34  22   4 -1.6183 12.6365  -2
  13  21   4 -1.6183 12.6365   1
 -37  22   4 17.6650 51.2990  -2
  16  21   4 17.6650 51.2990   1
 -37  22   4 62.4210 21.3884   1
  13  21   4 14.7424 11.4830  -2
 -34  22   4 14.7424 11.4830   1
  10  21   4 118.405 11.6566  -2
 -31  22   4 118.405 11.6566   1
   7  21   4 32.1757 16.2933  -2
 -28  22   4 32.1757 16.2933   1
   4  21   4 395.674 24.7959  -2
 -25  22   4 395.674 24.7959   1
 -22  22   4 545.510 12.0931   1
 -19  22   4 744.269 19.3924   1
 -16  22   4 63.7676 4.73036   1
 -13  22   4 9.74910 3.41328   1
 -10  22   4 184.583 6.58285   1
  -7  22   4 1146.24 23.8621   1
  -4  22   4 760.885 16.6179   1
  -1  22   4 25.8462 3.15692   1
   2  22   4 0.82181 2.81698   1
   5  22   4 4.43983 3.01070   1
 -30  23   4 21.3224 13.7559  -2
   8  22   4 21.3224 13.7559   1
 -33  23   4 39.3945 12.6875  -2
  11  22   4 39.3945 12.6875   1
  14  22   4 2.45662 7.19914   1
 -36  23   4 48.6049 9.86120   1
  11  22   4 21.7325 11.9024  -2
 -33  23   4 21.7325 11.9024   1
   8  22   4 -11.150 12.4978  -2
 -30  23   4 -11.150 12.4978   1
   5  22   4 40.5652 14.8103  -2
 -27  23   4 40.5652 14.8103   1
 -24  23   4 55.6731 3.95592   1
 -21  23   4 26.0326 3.68606   1
 -18  23   4 0.36362 3.22185   1
 -15  23   4 5.43826 3.07419   1
 -12  23   4 333.148 8.98005   1
  -9  23   4 261.811 7.80173   1
  -6  23   4 763.979 16.7478   1
  -3  23   4 110.619 5.39884   1
   0  23   4 42.4245 3.53103   1
   3  23   4 161.398 6.48363   1
 -29  24   4 29.6654 17.2296  -2
   6  23   4 29.6654 17.2296   1
 -32  24   4 94.4755 12.7486  -2
   9  23   4 94.4755 12.7486   1
 -35  24   4 31.2135 21.0676  -2
  12  23   4 31.2135 21.0676   1
  12  23   4 47.8670 11.3347  -2
 -35  24   4 47.8670 11.3347   1
   9  23   4 91.5877 11.0123  -2
 -32  24   4 91.5877 11.0123   1
   6  23   4 11.5927 16.2236  -2
 -29  24   4 11.5927 16.2236   1
   3  23   4 341.335 23.6935  -2
 -26  24   4 341.335 23.6935   1
 -23  24   4 483.340 13.0834   1
 -20  24   4 301.492 9.48698   1
 -17  24   4 -2.2644 3.17963   1
  -9  23   4 175.680 26.2912  -2
 -14  24   4 175.680 26.2912   1
 -11  24   4 10.0633 3.05511   1
  -8  24   4 66.7489 4.33076   1
  -5  24   4 30.8136 3.43104   1
  -2  24   4 4.41530 2.87644   1
   1  24   4 112.422 5.68377   1
   4  24   4 63.0068 4.52681   1
 -31  25   4 97.1963 20.3307  -2
   7  24   4 97.1963 20.3307   1
 -34  25   4 30.2282 20.2744  -2
  10  24   4 30.2282 20.2744   1
 -37  25   4 62.3071 25.4620  -2
  13  24   4 62.3071 25.4620   1
  13  24   4 52.4221 19.9704  -2
 -37  25   4 52.4221 19.9704   1
  10  24   4 10.7926 13.0084  -2
 -34  25   4 10.7926 13.0084   1
   7  24   4 136.394 18.8950  -2
 -31  25   4 136.394 18.8950   1
   4  24   4 47.5286 17.2585  -2
 -28  25   4 47.5286 17.2585   1
 -25  25   4 37.8344 4.53937   1
 -22  25   4 199.607 9.49440   1
 -19  25   4 47.4109 3.85914   1
  -8  24   4 64.7642 23.6132  -2
 -16  25   4 64.7642 23.6132   1
 -13  25   4 274.460 8.25409   1
 -10  25   4 287.571 8.40917   1
  -7  25   4 814.776 19.2527   1
  -4  25   4 76.2118 4.68639   1
  -1  25   4 21.8222 3.19838   1
   2  25   4 13.8374 3.44459   1
   5  25   4 5.10195 3.35726   1
 -33  26   4 91.0801 21.1189  -2
   8  25   4 91.0801 21.1189   1
 -37  25   4 79.0961 48.3188  -2
  11  25   4 79.0961 48.3188   1
   8  25   4 33.1125 13.3721  -2
 -33  26   4 33.1125 13.3721   1
   5  25   4 55.8575 18.7284  -2
 -30  26   4 55.8575 18.7284   1
   2  25   4 98.5562 19.2080  -2
 -27  26   4 98.5562 19.2080   1
 -24  26   4 21.3443 4.39220   1
  -4  25   4 73.3230 24.1484  -2
 -21  26   4 73.3230 24.1484   1
  -7  25   4 804.953 50.2294  -2
 -18  26   4 804.953 50.2294   1
 -12  26   4 167.205 18.0237  -2
 -15  26   4 167.205 18.0237   1
 -12  26   4 268.478 8.17506   1
  -9  26   4 125.591 6.09689   1
  -6  26   4 86.9790 5.11202   1
  -3  26   4 22.3276 3.36484   1
   0  26   4 343.428 9.58171   1
   3  26   4 154.492 6.70544   1
   6  26   4 201.004 7.62134   1
 -36  26   4 87.2265 45.5360  -2
   9  26   4 87.2265 45.5360   1
   9  26   4 95.4598 48.4802  -2
 -35  27   4 95.4598 48.4802   1
   6  26   4 218.926 15.9715  -2
 -32  27   4 218.926 15.9715   1
   3  26   4 167.989 21.2417  -2
 -29  27   4 167.989 21.2417   1
 -26  27   4 106.563 7.88267   1
  -3  26   4 89.0037 24.6713  -2
 -23  27   4 89.0037 24.6713   1
  -6  26   4 61.6751 25.1839  -2
 -20  27   4 61.6751 25.1839   1
  -9  26   4 115.923 26.2100  -2
 -17  27   4 115.923 26.2100   1
 -14  27   4 48.2755 14.8609  -2
 -14  27   4 48.2755 14.8609   1
 -11  27   4 4.22109 3.28487   1
  -8  27   4 102.188 5.87649   1
  -5  27   4 3.45661 3.12970   1
  -2  27   4 42.7136 3.80889   1
   1  27   4 140.436 6.87092   1
   4  27   4 234.521 8.13472   1
   7  27   4 10.3983 3.88547   1
   7  27   4 158.697 22.2527  -2
 -34  28   4 158.697 22.2527   1
   4  27   4 389.978 20.1179  -2
 -31  28   4 389.978 20.1179   1
 -28  28   4 14.7237 5.57448   1
 -25  28   4 14.7220 6.72140   1
  -5  27   4 24.8495 25.6860  -2
 -22  28   4 24.8495 25.6860   1
  -8  27   4 158.080 27.6756  -2
 -19  28   4 158.080 27.6756   1
 -16  28   4 14.6143 3.58891   1
 -13  28   4 133.125 6.57267   1
 -10  28   4 83.1551 5.42239   1
  -7  28   4 51.3283 4.02391   1
  -4  28   4 18.5620 3.47116   1
  -1  28   4 41.4234 3.75149   1
   2  28   4 9.42624 3.57031   1
   5  28   4 -1.2732 4.99361   1
   8  28   4 65.5495 4.61251   1
   5  28   4 65.0181 15.6325  -2
 -33  29   4 65.0181 15.6325   1
 -30  29   4 179.218 12.2488   1
  -1  28   4 91.6702 15.9728  -2
 -27  29   4 91.6702 15.9728   1
  -4  28   4 6.19252 14.7898  -2
 -24  29   4 6.19252 14.7898   1
  -7  28   4 378.601 34.2361  -2
 -21  29   4 378.601 34.2361   1
 -18  29   4 117.423 6.75594   1
 -15  29   4 6.90681 3.49618   1
 -12  29   4 142.832 6.82523   1
  -9  29   4 4.82031 3.48363   1
  -6  29   4 3.62165 3.26773   1
  -3  29   4 40.9264 3.76019   1
   0  29   4 120.847 6.27558   1
   3  29   4 142.706 8.78831   1
   6  29   4 42.6934 4.43860   1
   3  29   4 164.989 23.2381  -2
 -32  30   4 164.989 23.2381   1
   0  29   4 85.8373 20.3317  -2
 -29  30   4 85.8373 20.3317   1
  -3  29   4 52.9134 16.1969  -2
 -26  30   4 52.9134 16.1969   1
  -6  29   4 99.5064 15.2055  -2
 -23  30   4 99.5064 15.2055   1
  -9  29   4 115.406 29.8360  -2
 -20  30   4 115.406 29.8360   1
 -11  30   4 122.101 18.9318  -2
 -20  30   4 122.101 18.9318   1
 -17  30   4 62.9290 4.98650   1
 -14  30   4 0.44170 3.52913   1
 -20  30   4 97.2598 17.0148  -2
 -11  30   4 97.2598 17.0148   1
 -23  30   4 83.6304 15.8423  -2
  -8  30   4 83.6304 15.8423   1
 -26  30   4 22.3303 14.8601  -2
  -5  30   4 22.3303 14.8601   1
  -2  30   4 -1.8414 3.52182   1
   1  30   4 225.837 10.4960   1
 -35  30   4 101.060 12.6243  -2
   4  30   4 101.060 12.6243   1
 -34  31   4 211.098 23.6062   1
   1  30   4 664.220 39.0030  -2
 -31  31   4 664.220 39.0030   1
  -2  30   4 89.7417 20.0172  -2
 -28  31   4 89.7417 20.0172   1
  -5  30   4 42.5959 16.0276  -2
 -25  31   4 42.5959 16.0276   1
  -8  30   4 58.2357 14.6723  -2
 -22  31   4 58.2357 14.6723   1
 -13  31   4 -8.0597 17.4418  -2
 -19  31   4 -8.0597 17.4418   1
 -16  31   4 10.3649 3.81694   1
 -19  31   4 8.55434 15.5506  -2
 -13  31   4 8.55434 15.5506   1
 -22  31   4 64.4705 13.8106  -2
 -10  31   4 64.4705 13.8106   1
 -25  31   4 34.2247 14.9591  -2
  -7  31   4 34.2247 14.9591   1
  -4  31   4 32.2876 3.93326   1
  -1  31   4 4.56788 4.99988   1
 -34  31   4 251.214 13.5688  -2
   2  31   4 251.214 13.5688   1
 -33  32   4 101.842 17.8816   1
  -1  31   4 201.898 23.0256  -2
 -30  32   4 201.898 23.0256   1
  -4  31   4 21.3746 19.4716  -2
 -27  32   4 21.3746 19.4716   1
  -7  31   4 323.943 37.7090  -2
 -24  32   4 323.943 37.7090   1
 -12  32   4 429.674 28.4949  -2
 -21  32   4 429.674 28.4949   1
 -15  32   4 108.454 18.1869  -2
 -18  32   4 108.454 18.1869   1
 -15  32   4 6.09668 3.86406   1
 -21  32   4 281.332 22.4478  -2
 -12  32   4 281.332 22.4478   1
 -24  32   4 172.716 18.8976  -2
  -9  32   4 172.716 18.8976   1
 -27  32   4 19.4974 15.2110  -2
  -6  32   4 19.4974 15.2110   1
  -3  32   4 2.60355 5.16879   1
 -33  32   4 155.003 13.9685  -2
   0  32   4 155.003 13.9685   1
 -32  33   4 27.0133 9.67607   1
  -3  32   4 22.9927 20.2670  -2
 -29  33   4 22.9927 20.2670   1
  -6  32   4 106.564 18.9435  -2
 -26  33   4 106.564 18.9435   1
  -9  32   4 177.396 36.0513  -2
 -23  33   4 177.396 36.0513   1
 -14  33   4 153.712 19.7817  -2
 -20  33   4 153.712 19.7817   1
 -17  33   4 36.7099 17.4347  -2
 -17  33   4 36.7099 17.4347   1
 -14  33   4 18.9936 4.96503   1
 -23  33   4 384.201 25.4284  -2
 -11  33   4 384.201 25.4284   1
 -26  33   4 270.387 21.1389  -2
  -8  33   4 270.387 21.1389   1
  -5  33   4 205.339 12.9515   1
 -32  33   4 18.0660 15.4542  -2
  -2  33   4 18.0660 15.4542   1
 -31  34   4 183.661 16.7984   1
  -5  33   4 151.242 22.4016  -2
 -28  34   4 151.242 22.4016   1
  -8  33   4 308.025 25.8890  -2
 -25  34   4 308.025 25.8890   1
 -22  34   4 124.191 8.81736   1
 -16  34   4 237.514 22.3330  -2
 -19  34   4 237.514 22.3330   1
 -16  34   4 151.778 8.58029   1
 -13  34   4 265.748 10.5090   1
 -25  34   4 496.827 29.8218  -2
 -10  34   4 496.827 29.8218   1
  -7  34   4 168.282 10.3302   1
 -31  34   4 178.985 15.0274  -2
  -4  34   4 178.985 15.0274   1
 -30  35   4 9.16757 7.51610   1
  -7  34   4 288.159 25.4281  -2
 -27  35   4 288.159 25.4281   1
 -10  34   4 787.896 43.1894  -2
 -24  35   4 787.896 43.1894   1
 -21  35   4 578.361 18.2540   1
 -18  35   4 343.757 12.2520   1
 -15  35   4 111.690 10.2629   1
 -12  35   4 15.2138 6.99875   1
  -9  35   4 4.96958 4.71876   1
 -30  35   4 27.8343 11.3686  -2
  -6  35   4 27.8343 11.3686   1
 -26  36   4 101.903 9.94845   1
 -23  36   4 301.056 12.6982   1
 -20  36   4 238.191 10.6779   1
 -17  36   4 14.2188 5.30225   1
 -14  36   4 18.2010 5.15950   1
 -26  36   4 291.118 22.6691  -2
 -11  36   4 291.118 22.6691   1
  -8  36   4 111.206 6.22579   1
 -11  36   4 170.777 32.5268  -2
 -25  37   4 170.777 32.5268   1
 -22  37   4 7.88869 4.66548   1
 -19  37   4 1.80688 5.27845   1
 -16  37   4 14.8815 5.11184   1
 -25  37   4 88.7307 17.7727  -2
 -13  37   4 88.7307 17.7727   1
 -18  38   4 118.330 20.2365  -2
 -21  38   4 118.330 20.2365   1
 -18  38   4 7.55549 5.13964   1
   0   1   5 159.063 2.83056   1
  -2   2   5 359.720 5.38509   1
   1   2   5 686.425 9.29267   1
  -4   3   5 2589.97 33.3593   1
  -1   3   5 71.4138 1.94277   1
   2   3   5 425.855 6.06023   1
  -6   4   5 1476.67 19.8731   1
  -3   4   5 83.2233 2.14135   1
   0   4   5 1622.74 21.9698   1
   3   4   5 3966.33 52.3916   1
  -8   5   5 924.480 14.3875   1
  -5   5   5 506.192 7.28663   1
  -2   5   5 743.642 10.7923   1
   1   5   5 1151.80 17.7888   1
   4   5   5 658.821 9.36040   1
 -10   6   5 1195.39 16.8766   1
  -7   6   5 2638.92 38.0051   1
  -4   6   5 754.958 10.1814   1
  -1   6   5 88.9952 2.39066   1
   2   6   5 650.391 9.92439   1
   5   6   5 37.3855 2.26500   1
 -12   7   5 338.963 5.60384   1
  -9   7   5 73.6893 2.43850   1
  -6   7   5 213.985 4.06210   1
  -3   7   5 201.781 3.39407   1
   0   7   5 2415.48 34.7425   1
   3   7   5 1138.21 15.5675   1
   6   7   5 688.898 10.3439   1
 -14   8   5 218.078 4.14223   1
 -11   8   5 76.7974 2.36587   1
  -8   8   5 423.979 6.44907   1
  -5   8   5 65.0258 2.16995   1
  -2   8   5 239.619 3.94542   1
   1   8   5 210.146 3.78362   1
   4   8   5 596.822 9.07198   1
   7   8   5 1.82493 1.30413   1
 -16   9   5 254.592 4.70959   1
 -13   9   5 532.672 7.69386   1
 -10   9   5 50.9732 2.03976   1
  -7   9   5 175.372 3.44191   1
  -4   9   5 67.8541 2.78857   1
  -1   9   5 998.169 13.2705   1
   2   9   5 45.5625 2.32053   1
   5   9   5 64.3155 2.53331   1
 -16   9   5 676.880 46.3492  -2
   8   9   5 676.880 46.3492   1
 -18  10   5 267.628 5.63506   1
 -15  10   5 12.4810 1.33729   1
 -12  10   5 164.976 3.39522   1
  -9  10   5 7.67948 1.21847   1
  -6  10   5 25.8379 1.35118   1
  -3  10   5 541.890 7.82911   1
   0  10   5 665.534 10.5274   1
   3  10   5 310.016 5.48566   1
   6  10   5 39.6888 2.14895   1
   9  10   5 2.13599 2.42472   1
 -20  11   5 406.232 10.4057   1
 -17  11   5 424.845 7.36932   1
 -14  11   5 28.9776 1.53862   1
 -11  11   5 360.603 5.62423   1
  -8  11   5 33.2303 2.38072   1
  -5  11   5 193.910 4.11299   1
  -2  11   5 28.2468 1.62306   1
   1  11   5 143.313 3.44625   1
 -14  11   5 118.673 25.0236  -2
   4  11   5 118.673 25.0236   1
   7  11   5 336.083 9.20196   1
  10  11   5 391.512 9.88713   1
   9  13   5 17.5292 13.1480  -2
 -22  12   5 17.5292 13.1480   1
 -19  12   5 2.53001 1.64389   1
 -16  12   5 68.5705 2.71676   1
 -13  12   5 68.8501 2.35587   1
 -10  12   5 533.995 8.23544   1
  -7  12   5 230.069 4.31617   1
  -4  12   5 811.888 12.5381   1
  -1  12   5 202.167 4.36851   1
   2  12   5 5.51884 1.47434   1
   5  12   5 9.63004 3.11653   1
 -20  11   5 518.176 31.8723  -2
   8  12   5 518.176 31.8723   1
  11  12   5 458.151 29.2301  -2
  11  12   5 458.151 29.2301   1
  10  14   5 519.459 21.4118  -2
 -24  13   5 519.459 21.4118   1
  11  12   5 624.290 47.6079  -2
 -24  13   5 624.290 47.6079   1
 -21  13   5 861.730 17.1844   1
 -18  13   5 489.713 8.32785   1
 -15  13   5 76.2921 2.69162   1
 -12  13   5 8.87204 1.30448   1
  -9  13   5 132.748 3.27692   1
  -6  13   5 86.7264 2.98679   1
  -3  13   5 202.075 4.70800   1
   0  13   5 306.524 6.08642   1
   3  13   5 -2.0025 2.46612   1
   6  13   5 41.7348 3.64054   1
 -22  12   5 17.8157 13.9813  -2
   9  13   5 17.8157 13.9813   1
  12  13   5 3.16125 10.0022  -2
  12  13   5 3.16125 10.0022   1
  11  15   5 123.132 17.5348  -2
 -26  14   5 123.132 17.5348   1
 -23  14   5 312.980 8.70051   1
 -20  14   5 520.160 9.15042   1
 -17  14   5 281.190 5.37347   1
 -14  14   5 191.569 4.30195   1
 -11  14   5 733.535 11.4853   1
  -8  14   5 45.0186 2.17759   1
  -5  14   5 99.4768 3.24856   1
  -2  14   5 229.082 5.23751   1
   1  14   5 553.376 21.0019   1
   4  14   5 89.6627 4.70347   1
   7  14   5 4.85115 2.67835   1
 -23  14   5 223.632 33.4820  -2
  10  14   5 223.632 33.4820   1
 -24  13   5 379.099 25.8978  -2
  10  14   5 379.099 25.8978   1
  13  14   5 13.6026 11.0015  -2
  13  14   5 13.6026 11.0015   1
  13  14   5 -11.708 37.2605  -2
 -28  15   5 -11.708 37.2605   1
  12  16   5 30.4092 16.3173  -2
 -28  15   5 30.4092 16.3173   1
   9  16   5 72.4629 10.4691  -2
 -25  15   5 72.4629 10.4691   1
  10  14   5 158.437 34.8869  -2
 -25  15   5 158.437 34.8869   1
 -22  15   5 98.7838 4.67549   1
 -19  15   5 11.9265 2.35577   1
 -16  15   5 110.536 3.45654   1
 -13  15   5 290.323 5.66390   1
 -10  15   5 509.501 8.55081   1
  -7  15   5 84.2939 3.31697   1
  -4  15   5 24.9795 2.77718   1
  -1  15   5 415.192 14.3271   1
   2  15   5 1360.39 27.9176   1
 -19  15   5 531.182 42.0838  -2
   5  15   5 531.182 42.0838   1
 -22  15   5 49.1922 30.6335  -2
   8  15   5 49.1922 30.6335   1
 -25  15   5 57.4902 33.0715  -2
  11  15   5 57.4902 33.0715   1
  14  15   5 -2.2731 16.8675  -2
  14  15   5 -2.2731 16.8675   1
  13  17   5 119.688 13.2208  -2
 -30  16   5 119.688 13.2208   1
  10  17   5 236.946 14.4289  -2
 -27  16   5 236.946 14.4289   1
  11  15   5 178.670 38.2197  -2
 -27  16   5 178.670 38.2197   1
 -24  16   5 672.366 15.0231   1
 -21  16   5 703.282 13.0486   1
   2  15   5 1244.13 73.3759  -2
 -18  16   5 1244.13 73.3759   1
 -15  16   5 51.3966 2.70782   1
 -12  16   5 376.328 7.63324   1
  -9  16   5 19.9202 1.99099   1
  -6  16   5 482.212 11.5425   1
  -3  16   5 244.507 8.50490   1
   0  16   5 367.015 9.32931   1
 -18  16   5 1134.22 67.5058  -2
   3  16   5 1134.22 67.5058   1
 -21  16   5 682.111 49.9062  -2
   6  16   5 682.111 49.9062   1
   9  16   5 0.32100 2.77376   1
 -27  16   5 206.624 37.9704  -2
  12  16   5 206.624 37.9704   1
  15  16   5 192.482 14.8144  -2
  15  16   5 192.482 14.8144   1
  14  18   5 7.20640 12.5695  -2
 -32  17   5 7.20640 12.5695   1
  11  18   5 -7.8140 11.3759  -2
 -29  17   5 -7.8140 11.3759   1
  12  16   5 -9.8849 41.1496  -2
 -29  17   5 -9.8849 41.1496   1
   8  18   5 160.156 18.2528  -2
 -26  17   5 160.156 18.2528   1
   5  18   5 587.330 31.9846  -2
 -23  17   5 587.330 31.9846   1
   3  16   5 865.719 57.8803  -2
 -20  17   5 865.719 57.8803   1
   0  16   5 427.857 38.0850  -2
 -17  17   5 427.857 38.0850   1
 -14  17   5 1268.23 19.0806   1
 -11  17   5 1765.69 32.1633   1
  -8  17   5 702.358 15.5411   1
  -5  17   5 431.763 12.8476   1
  -2  17   5 15.9702 2.77619   1
 -17  17   5 226.206 31.6815  -2
   1  17   5 226.206 31.6815   1
 -20  17   5 251.668 35.3892  -2
   4  17   5 251.668 35.3892   1
 -23  17   5 187.523 34.2110  -2
   7  17   5 187.523 34.2110   1
  10  17   5 15.1127 3.16876   1
 -30  16   5 153.787 18.0756  -2
  13  17   5 153.787 18.0756   1
  16  17   5 173.927 17.2952  -2
  16  17   5 173.927 17.2952   1
  15  19   5 289.880 27.5910  -2
 -34  18   5 289.880 27.5910   1
  12  19   5 428.301 20.8119  -2
 -31  18   5 428.301 20.8119   1
   9  19   5 137.637 11.4051  -2
 -28  18   5 137.637 11.4051   1
  10  17   5 67.9945 40.2805  -2
 -28  18   5 67.9945 40.2805   1
   6  19   5 124.790 16.8461  -2
 -25  18   5 124.790 16.8461   1
   7  17   5 41.9787 36.5503  -2
 -25  18   5 41.9787 36.5503   1
 -22  18   5 34.8497 3.01256   1
   1  17   5 259.255 35.0641  -2
 -19  18   5 259.255 35.0641   1
  -2  17   5 250.385 33.3624  -2
 -16  18   5 250.385 33.3624   1
 -13  18   5 533.555 13.9365   1
 -10  18   5 721.111 16.9957   1
 -12  19   5 230.205 28.4801  -2
  -7  18   5 230.205 28.4801   1
  -4  18   5 219.776 6.96171   1
  -1  18   5 1104.85 23.0611   1
 -19  18   5 2055.71 111.726  -2
   2  18   5 2055.71 111.726   1
 -22  18   5 326.538 37.1017  -2
   5  18   5 326.538 37.1017   1
 -26  17   5 84.8717 16.0939  -2
   8  18   5 84.8717 16.0939   1
 -29  17   5 -8.6200 10.9670  -2
  11  18   5 -8.6200 10.9670   1
 -32  17   5 13.1777 18.5769  -2
  14  18   5 13.1777 18.5769   1
  17  18   5 17.3341 21.5311  -2
  17  18   5 17.3341 21.5311   1
  16  20   5 113.464 16.2581  -2
 -36  19   5 113.464 16.2581   1
  14  18   5 -33.179 49.0416  -2
 -33  19   5 -33.179 49.0416   1
  13  20   5 279.890 17.8387  -2
 -33  19   5 279.890 17.8387   1
  10  20   5 175.858 14.7921  -2
 -30  19   5 175.858 14.7921   1
   7  20   5 253.696 15.2845  -2
 -27  19   5 253.696 15.2845   1
   5  18   5 707.948 54.9228  -2
 -24  19   5 707.948 54.9228   1
   4  20   5 444.118 26.6279  -2
 -24  19   5 444.118 26.6279   1
   2  18   5 1792.71 101.294  -2
 -21  19   5 1792.71 101.294   1
  -1  18   5 757.095 52.4276  -2
 -18  19   5 757.095 52.4276   1
 -15  19   5 85.9428 5.04945   1
 -12  19   5 129.650 6.16722   1
 -11  20   5 1021.13 59.9617  -2
  -9  19   5 1021.13 59.9617   1
  -6  19   5 651.366 14.5272   1
  -3  19   5 663.338 14.7861   1
 -18  19   5 904.870 56.8378  -2
   0  19   5 904.870 56.8378   1
 -21  19   5 906.587 58.4935  -2
   3  19   5 906.587 58.4935   1
   6  19   5 44.1938 4.52140   1
   9  19   5 78.0408 5.48600   1
 -31  18   5 498.327 22.2397  -2
  12  19   5 498.327 22.2397   1
  15  19   5 329.306 17.3921   1
 -35  20   5 50.4917 7.44321   1
  11  21   5 23.8916 9.19297  -2
 -32  20   5 23.8916 9.19297   1
   8  21   5 17.1261 13.3595  -2
 -29  20   5 17.1261 13.3595   1
   5  21   5 159.025 13.1065  -2
 -26  20   5 159.025 13.1065   1
 -23  20   5 298.581 9.86213   1
 -20  20   5 9.12728 2.46288   1
 -17  20   5 252.580 7.66074   1
 -14  20   5 748.437 17.8148   1
 -10  21   5 1554.32 84.3964  -2
 -11  20   5 1554.32 84.3964   1
  -8  20   5 371.879 9.65022   1
  -5  20   5 140.553 5.97678   1
 -17  20   5 155.632 31.3594  -2
  -2  20   5 155.632 31.3594   1
   1  20   5 153.827 6.21213   1
 -23  20   5 189.523 34.8479  -2
   4  20   5 189.523 34.8479   1
 -27  19   5 217.959 20.9778  -2
   7  20   5 217.959 20.9778   1
 -30  19   5 282.295 21.3808  -2
  10  20   5 282.295 21.3808   1
  13  20   5 320.612 12.3101   1
 -35  20   5 40.0460 48.0881  -2
  16  20   5 40.0460 48.0881   1
 -36  19   5 163.714 20.6915  -2
  16  20   5 163.714 20.6915   1
 -34  21   5 54.9982 7.87571   1
   9  22   5 261.888 16.9615  -2
 -31  21   5 261.888 16.9615   1
   6  22   5 64.4269 17.9053  -2
 -28  21   5 64.4269 17.9053   1
 -25  21   5 -0.1347 3.34881   1
 -22  21   5 2.94754 2.58355   1
 -19  21   5 0.96528 2.74455   1
 -16  21   5 143.102 8.12302   1
  -9  22   5 640.641 40.7718  -2
 -13  21   5 640.641 40.7718   1
 -12  22   5 444.063 32.8790  -2
 -10  21   5 444.063 32.8790   1
  -7  21   5 9.12543 2.93407   1
  -4  21   5 279.599 8.07940   1
  -1  21   5 1024.65 23.8902   1
   2  21   5 742.479 16.4956   1
   5  21   5 83.6414 5.12919   1
 -29  20   5 -6.1532 14.8731  -2
   8  21   5 -6.1532 14.8731   1
 -32  20   5 52.3682 17.1047  -2
  11  21   5 52.3682 17.1047   1
 -35  20   5 48.8051 17.3192  -2
  14  21   5 48.8051 17.3192   1
 -36  22   5 10.4007 5.07381   1
 -33  22   5 2.82225 20.2559   1
   7  23   5 85.0711 19.0237  -2
 -30  22   5 85.0711 19.0237   1
   4  23   5 50.7796 17.5466  -2
 -27  22   5 50.7796 17.5466   1
 -24  22   5 50.8380 3.78236   1
 -21  22   5 -2.6736 2.85449   1
 -18  22   5 72.6419 5.70138   1
  -8  23   5 56.2203 22.0049  -2
 -15  22   5 56.2203 22.0049   1
 -12  22   5 3.71194 3.10253   1
  -9  22   5 4.74128 2.87187   1
  -6  22   5 208.617 7.05705   1
 -18  22   5 413.365 38.8262  -2
  -3  22   5 413.365 38.8262   1
   0  22   5 255.498 7.96711   1
 -24  22   5 278.810 36.5954  -2
   3  22   5 278.810 36.5954   1
 -28  21   5 8.62046 16.5257  -2
   6  22   5 8.62046 16.5257   1
 -31  21   5 411.086 29.5400  -2
   9  22   5 411.086 29.5400   1
  12  22   5 492.173 19.2326   1
  11  24   5 214.466 21.6295  -2
 -35  23   5 214.466 21.6295   1
   8  24   5 36.5227 20.0267  -2
 -32  23   5 36.5227 20.0267   1
   5  24   5 20.9808 18.7650  -2
 -29  23   5 20.9808 18.7650   1
 -26  23   5 74.5743 5.25641   1
 -23  23   5 48.7892 4.36918   1
 -20  23   5 -2.1353 4.25515   1
 -17  23   5 83.1570 5.50608   1
 -10  24   5 169.565 24.6378  -2
 -14  23   5 169.565 24.6378   1
 -11  23   5 123.140 5.96367   1
  -8  23   5 4.29186 3.07185   1
  -5  23   5 1.51355 2.79110   1
 -20  23   5 92.7332 32.3502  -2
  -2  23   5 92.7332 32.3502   1
   1  23   5 16.2963 3.20151   1
 -27  22   5 40.2048 17.3629  -2
   4  23   5 40.2048 17.3629   1
 -26  23   5 40.4548 33.5511  -2
   4  23   5 40.4548 33.5511   1
 -30  22   5 139.728 20.1549  -2
   7  23   5 139.728 20.1549   1
 -32  23   5 289.195 26.1056  -2
  10  23   5 289.195 26.1056   1
 -34  24   5 75.1718 22.3749   1
   6  25   5 39.8046 21.1660  -2
 -31  24   5 39.8046 21.1660   1
 -28  24   5 28.2529 4.96975   1
 -25  24   5 130.099 8.81327   1
 -22  24   5 309.223 11.7920   1
 -19  24   5 103.268 6.29267   1
  -9  25   5 64.0972 23.7711  -2
 -16  24   5 64.0972 23.7711   1
 -13  24   5 99.5014 5.55177   1
 -10  24   5 14.8200 3.58368   1
  -7  24   5 29.2404 3.52112   1
  -4  24   5 238.579 7.71851   1
 -22  24   5 386.843 40.6254  -2
  -1  24   5 386.843 40.6254   1
   2  24   5 129.103 6.16037   1
 -29  23   5 31.5834 17.7115  -2
   5  24   5 31.5834 17.7115   1
 -32  23   5 30.0504 18.2252  -2
   8  24   5 30.0504 18.2252   1
 -31  24   5 -1.2532 20.9522  -2
   8  24   5 -1.2532 20.9522   1
  11  24   5 30.9157 5.08075   1
   7  26   5 20.1248 21.9776  -2
 -33  25   5 20.1248 21.9776   1
 -30  25   5 167.328 13.5463   1
 -27  25   5 45.6845 4.91287   1
 -24  25   5 203.271 10.2076   1
 -21  25   5 247.441 9.15183   1
 -18  25   5 85.0319 6.35105   1
 -15  25   5 37.1657 3.81727   1
 -12  25   5 61.2939 15.1194  -2
 -12  25   5 61.2939 15.1194   1
 -14  26   5 42.9261 27.6836  -2
 -12  25   5 42.9261 27.6836   1
  -9  25   5 44.7705 4.21529   1
  -6  25   5 10.5553 3.26090   1
  -3  25   5 21.1347 3.42876   1
 -24  25   5 189.780 35.2503  -2
   0  25   5 189.780 35.2503   1
 -27  25   5 104.529 34.0875  -2
   3  25   5 104.529 34.0875   1
 -30  25   5 197.481 20.2889  -2
   6  25   5 197.481 20.2889   1
 -33  25   5 237.595 26.3905  -2
   9  25   5 237.595 26.3905   1
 -35  26   5 254.078 12.3384   1
 -32  26   5 66.1704 11.0460   1
 -29  26   5 44.2204 5.41126   1
 -26  26   5 6.52284 5.78188   1
 -23  26   5 12.1689 4.26960   1
  -7  27   5 52.9557 26.1380  -2
 -20  26   5 52.9557 26.1380   1
  -8  26   5 81.5123 17.7894  -2
 -17  26   5 81.5123 17.7894   1
 -10  27   5 -9.9555 25.2432  -2
 -17  26   5 -9.9555 25.2432   1
 -13  27   5 44.2787 26.4978  -2
 -14  26   5 44.2787 26.4978   1
 -14  26   5 102.185 15.4574  -2
 -11  26   5 102.185 15.4574   1
 -16  27   5 111.947 30.3111  -2
 -11  26   5 111.947 30.3111   1
  -8  26   5 83.2440 5.56310   1
 -20  26   5 83.7180 13.6399  -2
  -5  26   5 83.7180 13.6399   1
  -2  26   5 -2.2748 3.18505   1
 -26  26   5 -3.8442 9.67569  -2
   1  26   5 -3.8442 9.67569   1
 -29  26   5 43.5453 13.6249  -2
   4  26   5 43.5453 13.6249   1
   7  26   5 22.4976 10.2748   1
   6  28   5 212.881 22.8622  -2
 -34  27   5 212.881 22.8622   1
 -31  27   5 38.2038 10.1163   1
 -28  27   5 19.5119 6.42012   1
  -3  28   5 254.856 17.7874  -2
 -25  27   5 254.856 17.7874   1
  -6  28   5 294.462 31.5929  -2
 -22  27   5 294.462 31.5929   1
  -9  28   5 89.4493 27.5328  -2
 -19  27   5 89.4493 27.5328   1
 -12  28   5 279.354 34.4809  -2
 -16  27   5 279.354 34.4809   1
 -10  27   5 46.9726 16.8964  -2
 -16  27   5 46.9726 16.8964   1
 -15  28   5 265.318 35.1872  -2
 -13  27   5 265.318 35.1872   1
 -13  27   5 10.4045 15.4646  -2
 -13  27   5 10.4045 15.4646   1
 -16  27   5 20.7934 14.5146  -2
 -10  27   5 20.7934 14.5146   1
 -19  27   5 51.7334 13.5492  -2
  -7  27   5 51.7334 13.5492   1
 -22  27   5 172.821 14.0253  -2
  -4  27   5 172.821 14.0253   1
  -1  27   5 3.92492 3.50883   1
 -28  27   5 11.1154 11.3118  -2
   2  27   5 11.1154 11.3118   1
   5  27   5 50.7252 7.15280   1
   4  29   5 39.1721 19.6421  -2
 -33  28   5 39.1721 19.6421   1
 -30  28   5 137.905 13.0235   1
  -2  29   5 181.116 17.3104  -2
 -27  28   5 181.116 17.3104   1
  -5  29   5 236.864 16.7506  -2
 -24  28   5 236.864 16.7506   1
  -8  29   5 238.472 30.4651  -2
 -21  28   5 238.472 30.4651   1
 -11  29   5 120.993 31.1385  -2
 -18  28   5 120.993 31.1385   1
 -12  28   5 513.289 30.6155  -2
 -15  28   5 513.289 30.6155   1
 -15  28   5 509.024 29.8015  -2
 -12  28   5 509.024 29.8015   1
 -18  28   5 104.001 15.2672  -2
  -9  28   5 104.001 15.2672   1
 -21  28   5 129.298 15.6587  -2
  -6  28   5 129.298 15.6587   1
 -24  28   5 153.938 13.2997  -2
  -3  28   5 153.938 13.2997   1
 -27  28   5 117.077 13.4319  -2
   0  28   5 117.077 13.4319   1
   3  28   5 -0.5412 6.72694   1
 -33  28   5 56.1077 9.16329  -2
   6  28   5 56.1077 9.16329   1
 -32  29   5 6.38351 9.18937   1
 -29  29   5 3.97256 5.99196   1
  -4  30   5 50.2365 14.9447  -2
 -26  29   5 50.2365 14.9447   1
  -7  30   5 23.9293 29.1139  -2
 -23  29   5 23.9293 29.1139   1
 -10  30   5 16.4456 29.9237  -2
 -20  29   5 16.4456 29.9237   1
  -8  29   5 72.7931 18.1349  -2
 -20  29   5 72.7931 18.1349   1
 -11  29   5 134.717 19.5463  -2
 -17  29   5 134.717 19.5463   1
 -14  29   5 458.405 28.3003  -2
 -14  29   5 458.405 28.3003   1
 -17  29   5 230.119 16.2759  -2
 -11  29   5 230.119 16.2759   1
 -20  29   5 79.4732 15.5383  -2
  -8  29   5 79.4732 15.5383   1
 -23  29   5 12.5770 11.9569  -2
  -5  29   5 12.5770 11.9569   1
 -26  29   5 59.7784 14.0394  -2
  -2  29   5 59.7784 14.0394   1
   1  29   5 84.3430 13.0171   1
 -32  29   5 12.5844 10.1699  -2
   4  29   5 12.5844 10.1699   1
 -31  30   5 49.9176 7.07773   1
 -28  30   5 48.5584 9.59681   1
  -6  31   5 160.916 16.7009  -2
 -25  30   5 160.916 16.7009   1
  -9  31   5 197.339 32.5268  -2
 -22  30   5 197.339 32.5268   1
 -12  31   5 240.088 37.1018  -2
 -19  30   5 240.088 37.1018   1
 -13  30   5 73.1321 18.0196  -2
 -16  30   5 73.1321 18.0196   1
 -16  30   5 52.0656 14.2862  -2
 -13  30   5 52.0656 14.2862   1
 -19  30   5 -9.5953 26.0864  -2
 -10  30   5 -9.5953 26.0864   1
 -22  30   5 107.853 13.0652  -2
  -7  30   5 107.853 13.0652   1
 -25  30   5 140.013 13.1714  -2
  -4  30   5 140.013 13.1714   1
  -1  30   5 47.4697 10.9096   1
 -31  30   5 100.576 11.4936  -2
   2  30   5 100.576 11.4936   1
 -30  31   5 49.8543 10.8645   1
  -5  32   5 78.7604 34.5597  -2
 -27  31   5 78.7604 34.5597   1
  -8  32   5 98.8474 33.1929  -2
 -24  31   5 98.8474 33.1929   1
 -11  32   5 164.989 36.3917  -2
 -21  31   5 164.989 36.3917   1
 -14  32   5 494.992 44.3504  -2
 -18  31   5 494.992 44.3504   1
 -12  31   5 464.428 29.6607  -2
 -18  31   5 464.428 29.6607   1
 -15  31   5 1276.76 46.5912  -2
 -15  31   5 1276.76 46.5912   1
 -18  31   5 457.661 27.6983  -2
 -12  31   5 457.661 27.6983   1
 -21  31   5 89.4428 11.1409  -2
  -9  31   5 89.4428 11.1409   1
 -24  31   5 62.8454 12.4920  -2
  -6  31   5 62.8454 12.4920   1
  -3  31   5 20.0734 7.72699   1
 -30  31   5 54.1796 11.2248  -2
   0  31   5 54.1796 11.2248   1
 -29  32   5 0.60044 12.2542   1
  -7  33   5 34.2146 35.5393  -2
 -26  32   5 34.2146 35.5393   1
 -10  33   5 40.6297 33.6669  -2
 -23  32   5 40.6297 33.6669   1
 -13  33   5 4.13903 33.8373  -2
 -20  32   5 4.13903 33.8373   1
 -14  32   5 557.688 26.3887  -2
 -17  32   5 557.688 26.3887   1
 -16  33   5 242.351 38.2812  -2
 -17  32   5 242.351 38.2812   1
 -17  32   5 547.005 31.8905  -2
 -14  32   5 547.005 31.8905   1
 -20  32   5 220.398 14.0395  -2
 -11  32   5 220.398 14.0395   1
  -8  32   5 -2.5554 6.93968   1
  -5  32   5 37.6716 9.59785   1
 -29  32   5 288.144 14.6445  -2
  -2  32   5 288.144 14.6445   1
  -6  34   5 46.5476 18.9956  -2
 -28  33   5 46.5476 18.9956   1
 -25  33   5 49.7489 15.5686   1
 -12  34   5 100.162 37.4975  -2
 -22  33   5 100.162 37.4975   1
 -15  34   5 182.430 39.4407  -2
 -19  33   5 182.430 39.4407   1
 -16  33   5 89.1366 17.4154  -2
 -16  33   5 89.1366 17.4154   1
 -19  33   5 -11.408 16.5706  -2
 -13  33   5 -11.408 16.5706   1
 -10  33   5 1.49539 8.15889   1
 -25  33   5 118.721 16.9059  -2
  -7  33   5 118.721 16.9059   1
 -28  33   5 119.428 11.3414  -2
  -4  33   5 119.428 11.3414   1
 -27  34   5 34.5693 6.10216   1
 -24  34   5 17.6743 6.79902   1
 -21  34   5 -2.3331 6.83787   1
 -18  34   5 229.848 13.4379   1
 -15  34   5 275.536 14.7126   1
 -12  34   5 71.2867 9.31571   1
 -24  34   5 19.7626 10.8022  -2
  -9  34   5 19.7626 10.8022   1
 -27  34   5 34.1340 10.4054  -2
  -6  34   5 34.1340 10.4054   1
 -26  35   5 5.71915 5.15489   1
 -23  35   5 -1.3064 6.76906   1
 -20  35   5 1.30585 5.84263   1
 -17  35   5 101.567 29.7306  -2
 -17  35   5 101.567 29.7306   1
 -20  35   5 161.530 18.9103  -2
 -14  35   5 161.530 18.9103   1
 -23  35   5 -0.8019 11.2457  -2
 -11  35   5 -0.8019 11.2457   1
 -22  36   5 4.10680 4.47010   1
 -19  36   5 83.6170 6.88958   1
 -19  36   5 100.546 28.4712  -2
 -16  36   5 100.546 28.4712   1
   0   0   6 1208.52 27.6814  -2
   0   0   6 1208.52 27.6814   1
   1   1   6 682.357 9.36368  -2
   1   1   6 682.357 9.36368   1
  -1   2   6 3536.71 45.4773  -2
  -1   2   6 3536.71 45.4773   1
   2   2   6 2216.18 28.7273  -2
   2   2   6 2216.18 28.7273   1
   0   3   6 1171.52 16.1516  -2
  -3   3   6 1171.52 16.1516   1
  -3   3   6 1219.34 16.7638  -2
   0   3   6 1219.34 16.7638   1
   3   3   6 1067.18 14.2053  -2
   3   3   6 1067.18 14.2053   1
   1   4   6 3.44759 1.04018  -2
  -5   4   6 3.44759 1.04018   1
  -2   4   6 31.1977 1.49676  -2
  -2   4   6 31.1977 1.49676   1
  -5   4   6 1.75590 1.08922  -2
   1   4   6 1.75590 1.08922   1
   4   4   6 66.4978 2.28959  -2
   4   4   6 66.4978 2.28959   1
   2   5   6 518.257 7.93625  -2
  -7   5   6 518.257 7.93625   1
  -1   5   6 505.651 7.39275  -2
  -4   5   6 505.651 7.39275   1
  -4   5   6 616.553 9.26665  -2
  -1   5   6 616.553 9.26665   1
  -7   5   6 652.366 8.99677  -2
   2   5   6 652.366 8.99677   1
   5   5   6 413.424 6.95044  -2
   5   5   6 413.424 6.95044   1
   3   6   6 577.971 8.73860  -2
  -9   6   6 577.971 8.73860   1
   0   6   6 535.192 7.87714  -2
  -6   6   6 535.192 7.87714   1
  -3   6   6 412.917 6.02358  -2
  -3   6   6 412.917 6.02358   1
  -6   6   6 745.235 10.5652  -2
   0   6   6 745.235 10.5652   1
  -9   6   6 398.897 6.61011  -2
   3   6   6 398.897 6.61011   1
   6   6   6 1051.40 18.7432  -2
   6   6   6 1051.40 18.7432   1
   4   7   6 371.785 7.40516  -2
 -11   7   6 371.785 7.40516   1
   1   7   6 207.235 3.96722  -2
  -8   7   6 207.235 3.96722   1
  -2   7   6 192.994 3.71134  -2
  -5   7   6 192.994 3.71134   1
  -5   7   6 222.221 3.85591  -2
  -2   7   6 222.221 3.85591   1
  -8   7   6 140.877 3.48197  -2
   1   7   6 140.877 3.48197   1
 -11   7   6 338.278 6.70395  -2
   4   7   6 338.278 6.70395   1
   7   7   6 170.629 4.46352  -2
   7   7   6 170.629 4.46352   1
   5   8   6 602.857 10.5821  -2
 -13   8   6 602.857 10.5821   1
   2   8   6 487.636 8.29146  -2
 -10   8   6 487.636 8.29146   1
  -1   8   6 87.2005 2.62312  -2
  -7   8   6 87.2005 2.62312   1
  -4   8   6 86.4272 2.54647  -2
  -4   8   6 86.4272 2.54647   1
  -7   8   6 93.7252 2.75836  -2
  -1   8   6 93.7252 2.75836   1
 -10   8   6 421.771 7.54983  -2
   2   8   6 421.771 7.54983   1
 -13   8   6 644.381 11.2403  -2
   5   8   6 644.381 11.2403   1
   8   8   6 180.926 5.60719  -2
   8   8   6 180.926 5.60719   1
   6   9   6 1491.24 25.3859  -2
 -15   9   6 1491.24 25.3859   1
   3   9   6 2205.18 34.6821  -2
 -12   9   6 2205.18 34.6821   1
   0   9   6 1014.41 14.5893  -2
  -9   9   6 1014.41 14.5893   1
  -3   9   6 134.092 3.13817  -2
  -6   9   6 134.092 3.13817   1
  -6   9   6 190.390 3.92941  -2
  -3   9   6 190.390 3.92941   1
  -9   9   6 684.624 12.5027  -2
   0   9   6 684.624 12.5027   1
 -12   9   6 1545.70 30.2223  -2
   3   9   6 1545.70 30.2223   1
 -15   9   6 1161.51 23.9840  -2
   6   9   6 1161.51 23.9840   1
   9   9   6 298.326 8.22913  -2
   9   9   6 298.326 8.22913   1
   7  10   6 449.162 9.97759  -2
 -17  10   6 449.162 9.97759   1
   4  10   6 1372.24 20.4482  -2
 -14  10   6 1372.24 20.4482   1
   1  10   6 1048.68 16.4740  -2
 -11  10   6 1048.68 16.4740   1
  -2  10   6 149.485 3.44692  -2
  -8  10   6 149.485 3.44692   1
  -5  10   6 463.587 8.42003  -2
  -5  10   6 463.587 8.42003   1
  -8  10   6 165.290 4.19851  -2
  -2  10   6 165.290 4.19851   1
 -11  10   6 1033.80 20.3307  -2
   1  10   6 1033.80 20.3307   1
 -14  10   6 1212.21 27.6709  -2
   4  10   6 1212.21 27.6709   1
 -17  10   6 335.822 8.82147  -2
   7  10   6 335.822 8.82147   1
  10  10   6 263.227 7.67815  -2
  10  10   6 263.227 7.67815   1
   8  11   6 56.1799 4.04047  -2
 -19  11   6 56.1799 4.04047   1
   5  11   6 257.291 5.82686  -2
 -16  11   6 257.291 5.82686   1
   2  11   6 370.881 6.37227  -2
 -13  11   6 370.881 6.37227   1
  -1  11   6 502.515 8.67820  -2
 -10  11   6 502.515 8.67820   1
  -4  11   6 58.1693 2.77341  -2
  -7  11   6 58.1693 2.77341   1
  -7  11   6 60.3458 3.48317  -2
  -4  11   6 60.3458 3.48317   1
 -10  11   6 559.145 12.4606  -2
  -1  11   6 559.145 12.4606   1
 -13  11   6 399.085 11.0004  -2
   2  11   6 399.085 11.0004   1
 -16  11   6 244.265 7.77705  -2
   5  11   6 244.265 7.77705   1
 -19  11   6 70.4593 4.58761  -2
   8  11   6 70.4593 4.58761   1
  11  11   6 263.630 7.81604  -2
  11  11   6 263.630 7.81604   1
   9  12   6 61.9018 4.53291  -2
 -21  12   6 61.9018 4.53291   1
   6  12   6 859.451 17.5567  -2
 -18  12   6 859.451 17.5567   1
   3  12   6 2138.07 31.2756  -2
 -15  12   6 2138.07 31.2756   1
   0  12   6 1273.07 19.7947  -2
 -12  12   6 1273.07 19.7947   1
  -3  12   6 95.6014 3.40534  -2
  -9  12   6 95.6014 3.40534   1
  -6  12   6 318.072 7.16968  -2
  -6  12   6 318.072 7.16968   1
  -9  12   6 72.8945 4.15474  -2
  -3  12   6 72.8945 4.15474   1
 -12  12   6 994.726 22.9470  -2
   0  12   6 994.726 22.9470   1
 -15  12   6 1629.36 36.2549  -2
   3  12   6 1629.36 36.2549   1
 -18  12   6 615.870 13.9596  -2
   6  12   6 615.870 13.9596   1
 -21  12   6 65.8554 4.66227  -2
   9  12   6 65.8554 4.66227   1
  12  12   6 80.9951 5.05377  -2
  12  12   6 80.9951 5.05377   1
  10  13   6 69.7053 4.89908  -2
 -23  13   6 69.7053 4.89908   1
   7  13   6 216.532 6.87414  -2
 -20  13   6 216.532 6.87414   1
   4  13   6 831.283 15.0228  -2
 -17  13   6 831.283 15.0228   1
   1  13   6 1640.12 24.2799  -2
 -14  13   6 1640.12 24.2799   1
  -2  13   6 1162.29 18.1640  -2
 -11  13   6 1162.29 18.1640   1
  -5  13   6 402.118 8.17945  -2
  -8  13   6 402.118 8.17945   1
  -8  13   6 472.335 11.1549  -2
  -5  13   6 472.335 11.1549   1
 -11  13   6 1464.19 41.8126  -2
  -2  13   6 1464.19 41.8126   1
 -14  13   6 1738.30 35.0917  -2
   1  13   6 1738.30 35.0917   1
 -17  13   6 751.947 16.4237  -2
   4  13   6 751.947 16.4237   1
 -20  13   6 160.314 6.16241  -2
   7  13   6 160.314 6.16241   1
 -23  13   6 70.6478 4.75419  -2
  10  13   6 70.6478 4.75419   1
  13  13   6 19.5782 4.13240  -2
  13  13   6 19.5782 4.13240   1
  11  14   6 221.585 7.45209  -2
 -25  14   6 221.585 7.45209   1
   8  14   6 126.826 5.44293  -2
 -22  14   6 126.826 5.44293   1
   5  14   6 57.2255 4.54278  -2
 -19  14   6 57.2255 4.54278   1
   2  14   6 250.074 5.63861  -2
 -16  14   6 250.074 5.63861   1
  -1  14   6 437.727 8.31516  -2
 -13  14   6 437.727 8.31516   1
  -4  14   6 696.854 12.8573  -2
 -10  14   6 696.854 12.8573   1
  -7  14   6 15.5457 2.19553  -2
  -7  14   6 15.5457 2.19553   1
 -10  14   6 897.810 26.5733  -2
  -4  14   6 897.810 26.5733   1
 -13  14   6 619.927 13.8921  -2
  -1  14   6 619.927 13.8921   1
 -16  14   6 258.012 7.59809  -2
   2  14   6 258.012 7.59809   1
 -19  14   6 36.1953 3.56375  -2
   5  14   6 36.1953 3.56375   1
 -22  14   6 151.036 6.14273  -2
   8  14   6 151.036 6.14273   1
 -25  14   6 198.913 7.15514  -2
  11  14   6 198.913 7.15514   1
  14  14   6 41.4688 4.68638  -2
  14  14   6 41.4688 4.68638   1
  12  15   6 109.564 5.80745  -2
 -27  15   6 109.564 5.80745   1
   9  15   6 30.9640 4.16905  -2
 -24  15   6 30.9640 4.16905   1
   6  15   6 53.3090 4.33845  -2
 -21  15   6 53.3090 4.33845   1
   3  15   6 628.933 12.7184  -2
 -18  15   6 628.933 12.7184   1
   0  15   6 729.116 12.7713  -2
 -15  15   6 729.116 12.7713   1
  -3  15   6 103.189 4.59928  -2
 -12  15   6 103.189 4.59928   1
  -6  15   6 196.131 6.01977  -2
  -9  15   6 196.131 6.01977   1
  -9  15   6 147.158 6.43117  -2
  -6  15   6 147.158 6.43117   1
 -12  15   6 115.480 5.38807  -2
  -3  15   6 115.480 5.38807   1
 -15  15   6 544.275 12.6320  -2
   0  15   6 544.275 12.6320   1
 -18  15   6 460.375 11.1955  -2
   3  15   6 460.375 11.1955   1
 -21  15   6 36.3776 4.17381  -2
   6  15   6 36.3776 4.17381   1
 -24  15   6 27.6153 3.97650  -2
   9  15   6 27.6153 3.97650   1
 -27  15   6 84.2508 5.41370  -2
  12  15   6 84.2508 5.41370   1
  15  15   6 86.8138 5.83873  -2
  15  15   6 86.8138 5.83873   1
  13  16   6 165.630 6.88511  -2
 -29  16   6 165.630 6.88511   1
  10  16   6 170.595 6.77600  -2
 -26  16   6 170.595 6.77600   1
   7  16   6 235.997 7.50044  -2
 -23  16   6 235.997 7.50044   1
   4  16   6 39.0247 3.85252  -2
 -20  16   6 39.0247 3.85252   1
   1  16   6 170.713 5.58507  -2
 -17  16   6 170.713 5.58507   1
  -2  16   6 884.302 17.6851  -2
 -14  16   6 884.302 17.6851   1
  -5  16   6 703.863 19.0667  -2
 -11  16   6 703.863 19.0667   1
  -8  16   6 206.838 7.68828  -2
  -8  16   6 206.838 7.68828   1
 -11  16   6 940.594 21.8927  -2
  -5  16   6 940.594 21.8927   1
 -14  16   6 989.664 20.8900  -2
  -2  16   6 989.664 20.8900   1
 -17  16   6 160.675 6.10116  -2
   1  16   6 160.675 6.10116   1
 -20  16   6 48.0710 4.60846  -2
   4  16   6 48.0710 4.60846   1
 -23  16   6 315.255 8.88574  -2
   7  16   6 315.255 8.88574   1
 -26  16   6 223.730 7.54129  -2
  10  16   6 223.730 7.54129   1
 -29  16   6 140.875 6.36913  -2
  13  16   6 140.875 6.36913   1
  16  16   6 302.084 14.4620  -2
  16  16   6 302.084 14.4620   1
  14  17   6 286.911 11.4525  -2
 -31  17   6 286.911 11.4525   1
  11  17   6 192.649 7.31737  -2
 -28  17   6 192.649 7.31737   1
   8  17   6 507.644 13.7294  -2
 -25  17   6 507.644 13.7294   1
   5  17   6 291.149 8.54826  -2
 -22  17   6 291.149 8.54826   1
   2  17   6 234.364 6.89960  -2
 -19  17   6 234.364 6.89960   1
  -1  17   6 56.4794 4.36478  -2
 -16  17   6 56.4794 4.36478   1
  -4  17   6 354.556 9.88278  -2
 -13  17   6 354.556 9.88278   1
  -7  17   6 271.781 9.08911  -2
 -10  17   6 271.781 9.08911   1
 -10  17   6 302.745 9.05309  -2
  -7  17   6 302.745 9.05309   1
 -13  17   6 396.362 10.0448  -2
  -4  17   6 396.362 10.0448   1
 -16  17   6 59.1685 4.62023  -2
  -1  17   6 59.1685 4.62023   1
 -19  17   6 191.399 6.74544  -2
   2  17   6 191.399 6.74544   1
 -22  17   6 349.905 9.47586  -2
   5  17   6 349.905 9.47586   1
 -25  17   6 711.611 15.9896  -2
   8  17   6 711.611 15.9896   1
 -28  17   6 246.856 8.09755  -2
  11  17   6 246.856 8.09755   1
 -31  17   6 381.789 16.1712  -2
  14  17   6 381.789 16.1712   1
  17  17   6 22.0322 5.39085  -2
  17  17   6 22.0322 5.39085   1
  15  18   6 59.6614 8.68088  -2
 -33  18   6 59.6614 8.68088   1
  12  18   6 240.390 8.97859  -2
 -30  18   6 240.390 8.97859   1
   9  18   6 133.667 6.74582  -2
 -27  18   6 133.667 6.74582   1
   6  18   6 40.2280 5.19550  -2
 -24  18   6 40.2280 5.19550   1
   3  18   6 38.6138 4.36006  -2
 -21  18   6 38.6138 4.36006   1
   0  18   6 255.581 8.29190  -2
 -18  18   6 255.581 8.29190   1
  -3  18   6 158.205 5.89005  -2
 -15  18   6 158.205 5.89005   1
  -6  18   6 261.882 8.39675  -2
 -12  18   6 261.882 8.39675   1
  -9  18   6 153.147 6.26354  -2
  -9  18   6 153.147 6.26354   1
 -12  18   6 244.816 7.55844  -2
  -6  18   6 244.816 7.55844   1
 -15  18   6 176.529 6.49474  -2
  -3  18   6 176.529 6.49474   1
 -18  18   6 183.213 8.20376  -2
   0  18   6 183.213 8.20376   1
 -21  18   6 49.9343 4.48202  -2
   3  18   6 49.9343 4.48202   1
 -24  18   6 73.7974 5.14265  -2
   6  18   6 73.7974 5.14265   1
 -27  18   6 159.917 6.62271  -2
   9  18   6 159.917 6.62271   1
 -30  18   6 224.910 7.90123  -2
  12  18   6 224.910 7.90123   1
 -33  18   6 44.7401 5.82951  -2
  15  18   6 44.7401 5.82951   1
  13  19   6 134.131 10.7683  -2
 -32  19   6 134.131 10.7683   1
  10  19   6 343.044 10.9403  -2
 -29  19   6 343.044 10.9403   1
   7  19   6 292.429 9.71457  -2
 -26  19   6 292.429 9.71457   1
   4  19   6 220.077 7.59947  -2
 -23  19   6 220.077 7.59947   1
   1  19   6 25.3136 3.84820  -2
 -20  19   6 25.3136 3.84820   1
  -2  19   6 237.460 7.90363  -2
 -17  19   6 237.460 7.90363   1
  -5  19   6 556.102 14.1478  -2
 -14  19   6 556.102 14.1478   1
  -8  19   6 348.024 9.77459  -2
 -11  19   6 348.024 9.77459   1
 -11  19   6 443.703 11.8748  -2
  -8  19   6 443.703 11.8748   1
 -14  19   6 630.822 14.3769  -2
  -5  19   6 630.822 14.3769   1
 -17  19   6 231.332 7.94544  -2
  -2  19   6 231.332 7.94544   1
 -20  19   6 25.3373 4.14457  -2
   1  19   6 25.3373 4.14457   1
 -23  19   6 193.060 7.05735  -2
   4  19   6 193.060 7.05735   1
 -26  19   6 277.587 8.50668  -2
   7  19   6 277.587 8.50668   1
 -29  19   6 253.015 8.30780  -2
  10  19   6 253.015 8.30780   1
 -32  19   6 185.708 10.1656  -2
  13  19   6 185.708 10.1656   1
  14  20   6 53.9082 7.24774  -2
 -34  20   6 53.9082 7.24774   1
  11  20   6 175.202 13.7878  -2
 -31  20   6 175.202 13.7878   1
   8  20   6 395.041 12.0032  -2
 -28  20   6 395.041 12.0032   1
   5  20   6 306.826 10.0043  -2
 -25  20   6 306.826 10.0043   1
   2  20   6 90.4406 5.73575  -2
 -22  20   6 90.4406 5.73575   1
  -1  20   6 23.9358 4.00307  -2
 -19  20   6 23.9358 4.00307   1
  -4  20   6 243.313 8.17459  -2
 -16  20   6 243.313 8.17459   1
  -7  20   6 834.523 19.6012  -2
 -13  20   6 834.523 19.6012   1
 -10  20   6 9.59417 3.66328  -2
 -10  20   6 9.59417 3.66328   1
 -13  20   6 634.106 14.5115  -2
  -7  20   6 634.106 14.5115   1
 -16  20   6 212.593 8.15920  -2
  -4  20   6 212.593 8.15920   1
 -19  20   6 23.2913 4.15929  -2
  -1  20   6 23.2913 4.15929   1
 -22  20   6 99.4224 5.59501  -2
   2  20   6 99.4224 5.59501   1
 -25  20   6 348.976 9.60823  -2
   5  20   6 348.976 9.60823   1
 -28  20   6 428.576 11.1143  -2
   8  20   6 428.576 11.1143   1
 -31  20   6 296.324 13.9840  -2
  11  20   6 296.324 13.9840   1
 -34  20   6 59.2710 6.47484  -2
  14  20   6 59.2710 6.47484   1
  12  21   6 -0.1543 6.43543  -2
 -33  21   6 -0.1543 6.43543   1
   9  21   6 442.066 13.0009  -2
 -30  21   6 442.066 13.0009   1
   6  21   6 106.643 6.62046  -2
 -27  21   6 106.643 6.62046   1
   3  21   6 96.3479 7.39387  -2
 -24  21   6 96.3479 7.39387   1
   0  21   6 79.0364 5.63387  -2
 -21  21   6 79.0364 5.63387   1
  -3  21   6 20.0675 4.13394  -2
 -18  21   6 20.0675 4.13394   1
  -6  21   6 119.141 6.23160  -2
 -15  21   6 119.141 6.23160   1
  -9  21   6 208.417 7.95143  -2
 -12  21   6 208.417 7.95143   1
 -12  21   6 210.417 7.33989  -2
  -9  21   6 210.417 7.33989   1
 -15  21   6 77.8102 5.26074  -2
  -6  21   6 77.8102 5.26074   1
 -18  21   6 16.3600 4.15718  -2
  -3  21   6 16.3600 4.15718   1
 -21  21   6 66.9589 5.18502  -2
   0  21   6 66.9589 5.18502   1
 -24  21   6 65.4891 5.28922  -2
   3  21   6 65.4891 5.28922   1
 -27  21   6 97.4490 5.78847  -2
   6  21   6 97.4490 5.78847   1
 -30  21   6 432.575 13.9741  -2
   9  21   6 432.575 13.9741   1
 -33  21   6 2.22324 4.47921  -2
  12  21   6 2.22324 4.47921   1
  10  22   6 103.732 7.09845  -2
 -32  22   6 103.732 7.09845   1
   7  22   6 789.614 20.0140  -2
 -29  22   6 789.614 20.0140   1
   4  22   6 512.282 17.2242  -2
 -26  22   6 512.282 17.2242   1
   1  22   6 272.198 9.42124  -2
 -23  22   6 272.198 9.42124   1
  -2  22   6 14.4678 4.37303  -2
 -20  22   6 14.4678 4.37303   1
  -5  22   6 150.287 7.05263  -2
 -17  22   6 150.287 7.05263   1
  -8  22   6 498.805 12.1329  -2
 -14  22   6 498.805 12.1329   1
 -11  22   6 2.71658 3.78686  -2
 -11  22   6 2.71658 3.78686   1
 -14  22   6 357.147 9.82975  -2
  -8  22   6 357.147 9.82975   1
 -17  22   6 89.4455 5.50332  -2
  -5  22   6 89.4455 5.50332   1
 -20  22   6 13.9197 4.28384  -2
  -2  22   6 13.9197 4.28384   1
 -23  22   6 199.810 7.29131  -2
   1  22   6 199.810 7.29131   1
 -26  22   6 362.588 9.94896  -2
   4  22   6 362.588 9.94896   1
 -29  22   6 566.487 13.6177  -2
   7  22   6 566.487 13.6177   1
 -32  22   6 68.7515 5.99913  -2
  10  22   6 68.7515 5.99913   1
   8  23   6 171.519 12.0119  -2
 -31  23   6 171.519 12.0119   1
   5  23   6 459.379 15.9494  -2
 -28  23   6 459.379 15.9494   1
   2  23   6 88.2912 7.07858  -2
 -25  23   6 88.2912 7.07858   1
  -1  23   6 52.5760 5.98479  -2
 -22  23   6 52.5760 5.98479   1
  -4  23   6 164.191 7.62339  -2
 -19  23   6 164.191 7.62339   1
  -7  23   6 930.199 21.9001  -2
 -16  23   6 930.199 21.9001   1
 -10  23   6 644.389 18.1025  -2
 -13  23   6 644.389 18.1025   1
 -13  23   6 500.240 12.4202  -2
 -10  23   6 500.240 12.4202   1
 -16  23   6 672.862 15.5021  -2
  -7  23   6 672.862 15.5021   1
 -19  23   6 165.437 6.81293  -2
  -4  23   6 165.437 6.81293   1
 -22  23   6 59.2986 5.14069  -2
  -1  23   6 59.2986 5.14069   1
 -25  23   6 53.4007 4.89785  -2
   2  23   6 53.4007 4.89785   1
 -28  23   6 298.036 9.02915  -2
   5  23   6 298.036 9.02915   1
 -31  23   6 172.708 10.9978  -2
   8  23   6 172.708 10.9978   1
   9  24   6 38.5352 6.73204  -2
 -33  24   6 38.5352 6.73204   1
   6  24   6 200.045 17.5592  -2
 -30  24   6 200.045 17.5592   1
   3  24   6 48.3361 7.40940  -2
 -27  24   6 48.3361 7.40940   1
   0  24   6 196.683 9.13534  -2
 -24  24   6 196.683 9.13534   1
  -3  24   6 312.453 10.3161  -2
 -21  24   6 312.453 10.3161   1
  -6  24   6 272.100 8.67874  -2
 -18  24   6 272.100 8.67874   1
  -9  24   6 82.1711 5.62943  -2
 -15  24   6 82.1711 5.62943   1
 -12  24   6 170.650 7.17859  -2
 -12  24   6 170.650 7.17859   1
 -15  24   6 49.1942 4.75481  -2
  -9  24   6 49.1942 4.75481   1
 -18  24   6 332.793 9.59170  -2
  -6  24   6 332.793 9.59170   1
 -21  24   6 360.502 9.97509  -2
  -3  24   6 360.502 9.97509   1
 -24  24   6 209.573 7.47138  -2
   0  24   6 209.573 7.47138   1
 -27  24   6 39.9623 4.76485  -2
   3  24   6 39.9623 4.76485   1
 -30  24   6 207.830 16.7566  -2
   6  24   6 207.830 16.7566   1
 -33  24   6 45.0499 5.13621  -2
   9  24   6 45.0499 5.13621   1
   7  25   6 269.659 12.7372  -2
 -32  25   6 269.659 12.7372   1
   4  25   6 829.995 46.4983  -2
 -29  25   6 829.995 46.4983   1
   1  25   6 164.836 12.7955  -2
 -26  25   6 164.836 12.7955   1
  -2  25   6 88.6925 7.26312  -2
 -23  25   6 88.6925 7.26312   1
  -5  25   6 110.296 6.53014  -2
 -20  25   6 110.296 6.53014   1
  -8  25   6 526.405 16.0066  -2
 -17  25   6 526.405 16.0066   1
 -11  25   6 422.358 11.3576  -2
 -14  25   6 422.358 11.3576   1
 -14  25   6 350.831 10.0524  -2
 -11  25   6 350.831 10.0524   1
 -17  25   6 420.402 11.1800  -2
  -8  25   6 420.402 11.1800   1
 -20  25   6 138.406 6.69603  -2
  -5  25   6 138.406 6.69603   1
 -23  25   6 95.1205 5.91162  -2
  -2  25   6 95.1205 5.91162   1
 -26  25   6 149.085 6.64290  -2
   1  25   6 149.085 6.64290   1
 -29  25   6 671.950 39.8954  -2
   4  25   6 671.950 39.8954   1
 -32  25   6 189.387 8.08817  -2
   7  25   6 189.387 8.08817   1
   5  26   6 121.840 11.2251  -2
 -31  26   6 121.840 11.2251   1
  -1  26   6 51.1780 6.74977  -2
 -25  26   6 51.1780 6.74977   1
  -4  26   6 160.282 7.55650  -2
 -22  26   6 160.282 7.55650   1
  -7  26   6 531.071 16.3989  -2
 -19  26   6 531.071 16.3989   1
 -10  26   6 1022.51 27.1606  -2
 -16  26   6 1022.51 27.1606   1
 -13  26   6 1160.62 24.8197  -2
 -13  26   6 1160.62 24.8197   1
 -16  26   6 796.100 17.9531  -2
 -10  26   6 796.100 17.9531   1
 -19  26   6 446.016 11.5378  -2
  -7  26   6 446.016 11.5378   1
 -22  26   6 126.663 6.55018  -2
  -4  26   6 126.663 6.55018   1
 -25  26   6 60.7932 4.96113  -2
  -1  26   6 60.7932 4.96113   1
 -28  26   6 157.906 17.9062  -2
   2  26   6 157.906 17.9062   1
 -31  26   6 84.3485 5.71759  -2
   5  26   6 84.3485 5.71759   1
   3  27   6 103.389 13.9991  -2
 -30  27   6 103.389 13.9991   1
   0  27   6 170.126 15.7412  -2
 -27  27   6 170.126 15.7412   1
  -3  27   6 245.810 9.58772  -2
 -24  27   6 245.810 9.58772   1
  -6  27   6 555.261 19.7245  -2
 -21  27   6 555.261 19.7245   1
  -9  27   6 118.372 7.45761  -2
 -18  27   6 118.372 7.45761   1
 -12  27   6 285.749 9.31183  -2
 -15  27   6 285.749 9.31183   1
 -15  27   6 223.007 8.26323  -2
 -12  27   6 223.007 8.26323   1
 -18  27   6 109.199 6.31995  -2
  -9  27   6 109.199 6.31995   1
 -21  27   6 499.997 12.6068  -2
  -6  27   6 499.997 12.6068   1
 -24  27   6 347.151 9.92792  -2
  -3  27   6 347.151 9.92792   1
 -27  27   6 245.200 22.0619  -2
   0  27   6 245.200 22.0619   1
 -30  27   6 58.1766 5.20745  -2
   3  27   6 58.1766 5.20745   1
   1  28   6 177.099 9.85417  -2
 -29  28   6 177.099 9.85417   1
  -2  28   6 22.9263 8.18777  -2
 -26  28   6 22.9263 8.18777   1
  -5  28   6 91.3406 8.22332  -2
 -23  28   6 91.3406 8.22332   1
  -8  28   6 44.9273 5.59780  -2
 -20  28   6 44.9273 5.59780   1
 -11  28   6 134.240 7.49944  -2
 -17  28   6 134.240 7.49944   1
 -14  28   6 81.5955 5.99899  -2
 -14  28   6 81.5955 5.99899   1
 -17  28   6 98.4149 6.33613  -2
 -11  28   6 98.4149 6.33613   1
 -20  28   6 42.4631 5.44718  -2
  -8  28   6 42.4631 5.44718   1
 -23  28   6 112.692 6.25826  -2
  -5  28   6 112.692 6.25826   1
 -26  28   6 84.6628 14.3851  -2
  -2  28   6 84.6628 14.3851   1
 -29  28   6 123.914 6.67438  -2
   1  28   6 123.914 6.67438   1
  -1  29   6 181.726 9.09064  -2
 -28  29   6 181.726 9.09064   1
  -4  29   6 30.9713 8.46546  -2
 -25  29   6 30.9713 8.46546   1
  -7  29   6 187.784 9.16922  -2
 -22  29   6 187.784 9.16922   1
 -10  29   6 188.479 8.39405  -2
 -19  29   6 188.479 8.39405   1
 -13  29   6 394.320 12.3497  -2
 -16  29   6 394.320 12.3497   1
 -16  29   6 317.376 9.83131  -2
 -13  29   6 317.376 9.83131   1
 -19  29   6 141.408 7.09110  -2
 -10  29   6 141.408 7.09110   1
 -22  29   6 156.905 7.24228  -2
  -7  29   6 156.905 7.24228   1
 -28  29   6 167.687 7.07884  -2
  -1  29   6 167.687 7.07884   1
  -3  30   6 198.231 13.9174  -2
 -27  30   6 198.231 13.9174   1
  -6  30   6 194.083 12.0071  -2
 -24  30   6 194.083 12.0071   1
  -9  30   6 96.7781 7.12802  -2
 -21  30   6 96.7781 7.12802   1
 -12  30   6 20.3280 4.98188  -2
 -18  30   6 20.3280 4.98188   1
 -15  30   6 138.433 7.40700  -2
 -15  30   6 138.433 7.40700   1
 -18  30   6 21.9854 5.76730  -2
 -12  30   6 21.9854 5.76730   1
 -21  30   6 85.6505 11.5538  -2
  -9  30   6 85.6505 11.5538   1
 -24  30   6 264.871 17.1673  -2
  -6  30   6 264.871 17.1673   1
 -27  30   6 208.351 7.73741  -2
  -3  30   6 208.351 7.73741   1
  -5  31   6 52.3382 7.92990  -2
 -26  31   6 52.3382 7.92990   1
  -8  31   6 22.7461 8.33990  -2
 -23  31   6 22.7461 8.33990   1
 -11  31   6 7.09675 5.77509  -2
 -20  31   6 7.09675 5.77509   1
 -14  31   6 3.78603 5.79618  -2
 -17  31   6 3.78603 5.79618   1
 -17  31   6 5.81564 7.36449  -2
 -14  31   6 5.81564 7.36449   1
 -20  31   6 10.7445 11.1045  -2
 -11  31   6 10.7445 11.1045   1
 -23  31   6 25.2566 5.18087  -2
  -8  31   6 25.2566 5.18087   1
 -26  31   6 51.7067 5.20243  -2
  -5  31   6 51.7067 5.20243   1
  -7  32   6 46.3569 6.68225  -2
 -25  32   6 46.3569 6.68225   1
 -10  32   6 36.9414 6.11181  -2
 -22  32   6 36.9414 6.11181   1
 -13  32   6 34.8457 6.81398  -2
 -19  32   6 34.8457 6.81398   1
 -16  32   6 17.9176 8.77931  -2
 -16  32   6 17.9176 8.77931   1
 -19  32   6 52.5665 6.35753  -2
 -13  32   6 52.5665 6.35753   1
 -22  32   6 58.3535 5.81781  -2
 -10  32   6 58.3535 5.81781   1
 -25  32   6 49.5019 5.28158  -2
  -7  32   6 49.5019 5.28158   1
  -9  33   6 63.1545 6.43389  -2
 -24  33   6 63.1545 6.43389   1
 -12  33   6 24.4786 5.45602  -2
 -21  33   6 24.4786 5.45602   1
 -15  33   6 7.47384 5.39033  -2
 -18  33   6 7.47384 5.39033   1
 -18  33   6 1.88954 5.21378  -2
 -15  33   6 1.88954 5.21378   1
 -21  33   6 7.83916 5.03900  -2
 -12  33   6 7.83916 5.03900   1
 -24  33   6 76.0959 5.76030  -2
  -9  33   6 76.0959 5.76030   1
 -14  34   6 86.2561 7.22784  -2
 -20  34   6 86.2561 7.22784   1
 -17  34   6 52.2867 5.88420  -2
 -17  34   6 52.2867 5.88420   1
 -20  34   6 92.9002 7.29140  -2
 -14  34   6 92.9002 7.29140   1
  -1   1   7 21.8241 1.41329   1
  -3   2   7 259.619 4.60293   1
   0   2   7 66.8226 2.46742   1
  -5   3   7 -0.2939 1.19139   1
  -2   3   7 103.666 3.00720   1
   1   3   7 435.227 7.06553   1
  -7   4   7 356.674 6.70805   1
  -4   4   7 237.029 4.33083   1
  -3   5   7 377.760 23.9859  -2
  -1   4   7 377.760 23.9859   1
   2   4   7 196.761 4.38044   1
  -9   5   7 106.062 3.97967   1
  -6   5   7 663.486 11.4577   1
  -3   5   7 484.391 7.78223   1
   0   5   7 198.124 4.11518   1
   3   5   7 2.97110 1.78875   1
   5   7   7 275.150 30.7232  -2
 -11   6   7 275.150 30.7232   1
  -8   6   7 2.42395 1.45345   1
  -5   6   7 51.6755 2.51954   1
  -2   6   7 131.606 3.49080   1
   1   6   7 25.7302 2.09937   1
   4   6   7 154.115 4.68082   1
 -13   7   7 1254.23 67.8110  -2
 -13   7   7 1254.23 67.8110   1
 -10   7   7 109.493 4.03406   1
  -7   7   7 816.421 13.4935   1
  -4   7   7 500.733 9.34142   1
  -1   7   7 339.805 7.31470   1
   2   7   7 181.641 5.83519   1
 -12   8   7 238.458 20.2614  -2
   5   7   7 238.458 20.2614   1
   7   9   7 1123.52 68.9496  -2
 -15   8   7 1123.52 68.9496   1
 -15   8   7 161.003 17.6643  -2
 -15   8   7 161.003 17.6643   1
   5   7   7 200.723 18.2145  -2
 -12   8   7 200.723 18.2145   1
   1   9   7 681.495 43.3415  -2
  -9   8   7 681.495 43.3415   1
  -2   9   7 1762.05 96.4870  -2
  -6   8   7 1762.05 96.4870   1
  -3   8   7 1415.81 25.6447   1
   0   8   7 406.320 9.70686   1
   3   8   7 4.94697 2.13658   1
   6   8   7 459.811 11.6892   1
 -17   9   7 1080.13 39.8245  -2
 -17   9   7 1080.13 39.8245   1
   8  10   7 652.450 47.8153  -2
 -17   9   7 652.450 47.8153   1
   5  10   7 583.657 42.9611  -2
 -14   9   7 583.657 42.9611   1
   6   8   7 756.514 43.2085  -2
 -14   9   7 756.514 43.2085   1
   3   8   7 13.6734 12.7687  -2
 -11   9   7 13.6734 12.7687   1
  -1  10   7 546.188 27.0022  -2
  -8   9   7 546.188 27.0022   1
  -4  10   7 845.301 50.1435  -2
  -5   9   7 845.301 50.1435   1
  -2   9   7 21.2942 1.98123   1
   1   9   7 122.798 4.98191   1
 -14   9   7 1539.38 85.2072  -2
   4   9   7 1539.38 85.2072   1
 -17   9   7 1948.56 106.761  -2
   7   9   7 1948.56 106.761   1
 -19  10   7 958.793 35.9356  -2
 -19  10   7 958.793 35.9356   1
   9  11   7 619.150 47.7980  -2
 -19  10   7 619.150 47.7980   1
   7   9   7 2013.32 105.874  -2
 -16  10   7 2013.32 105.874   1
   6  11   7 1056.76 64.5982  -2
 -16  10   7 1056.76 64.5982   1
   4   9   7 1012.89 55.5387  -2
 -13  10   7 1012.89 55.5387   1
   3  11   7 148.117 29.3913  -2
 -13  10   7 148.117 29.3913   1
   1   9   7 307.619 21.6834  -2
 -10  10   7 307.619 21.6834   1
   0  11   7 259.667 26.3867  -2
 -10  10   7 259.667 26.3867   1
  -3  11   7 1331.49 73.8370  -2
  -7  10   7 1331.49 73.8370   1
  -4  10   7 638.308 13.2860   1
  -1  10   7 680.285 16.1953   1
   2  10   7 578.569 14.1955   1
 -16  10   7 891.799 56.9577  -2
   5  10   7 891.799 56.9577   1
 -18  11   7 126.836 17.4427  -2
   8  10   7 126.836 17.4427   1
 -21  11   7 191.482 13.5900  -2
 -21  11   7 191.482 13.5900   1
  10  12   7 261.877 38.9953  -2
 -21  11   7 261.877 38.9953   1
   8  10   7 105.701 16.2844  -2
 -18  11   7 105.701 16.2844   1
   5  10   7 341.463 23.8951  -2
 -15  11   7 341.463 23.8951   1
   4  12   7 757.061 53.0669  -2
 -15  11   7 757.061 53.0669   1
   2  10   7 450.863 28.2423  -2
 -12  11   7 450.863 28.2423   1
  -2  12   7 629.993 40.8181  -2
  -9  11   7 629.993 40.8181   1
  -1  10   7 1164.33 62.7004  -2
  -9  11   7 1164.33 62.7004   1
  -6  11   7 1947.22 48.5712   1
  -3  11   7 694.418 16.2995   1
   0  11   7 189.654 6.76165   1
 -15  11   7 229.996 31.5649  -2
   3  11   7 229.996 31.5649   1
 -14  12   7 154.867 18.3951  -2
   3  11   7 154.867 18.3951   1
 -18  11   7 486.988 41.5113  -2
   6  11   7 486.988 41.5113   1
 -17  12   7 455.814 30.0928  -2
   6  11   7 455.814 30.0928   1
 -20  12   7 157.333 18.4169  -2
   9  11   7 157.333 18.4169   1
 -21  11   7 222.201 36.2936  -2
   9  11   7 222.201 36.2936   1
 -23  12   7 32.1488 10.4039  -2
 -23  12   7 32.1488 10.4039   1
  11  13   7 15.5981 34.9375  -2
 -23  12   7 15.5981 34.9375   1
   9  11   7 103.217 10.5750  -2
 -20  12   7 103.217 10.5750   1
   8  13   7 14.1239 34.2255  -2
 -20  12   7 14.1239 34.2255   1
   5  13   7 68.1142 32.6812  -2
 -17  12   7 68.1142 32.6812   1
   6  11   7 403.203 26.8422  -2
 -17  12   7 403.203 26.8422   1
   3  11   7 114.370 15.1711  -2
 -14  12   7 114.370 15.1711   1
   0  11   7 135.918 15.2681  -2
 -11  12   7 135.918 15.2681   1
  -1  13   7 138.520 28.3651  -2
 -11  12   7 138.520 28.3651   1
  -8  12   7 131.122 6.25668   1
  -5  12   7 118.969 4.84180   1
  -2  12   7 2.43396 2.87669   1
 -13  13   7 396.706 28.3598  -2
   1  12   7 396.706 28.3598   1
 -17  12   7 940.940 58.4697  -2
   4  12   7 940.940 58.4697   1
 -16  13   7 973.824 54.9271  -2
   4  12   7 973.824 54.9271   1
 -20  12   7 531.113 44.2290  -2
   7  12   7 531.113 44.2290   1
 -19  13   7 548.770 34.3334  -2
   7  12   7 548.770 34.3334   1
 -22  13   7 339.931 19.5824  -2
  10  12   7 339.931 19.5824   1
  12  14   7 97.5050 37.9272  -2
 -25  13   7 97.5050 37.9272   1
 -25  13   7 -0.2287 10.3772  -2
 -25  13   7 -0.2287 10.3772   1
  10  12   7 243.440 13.2014  -2
 -22  13   7 243.440 13.2014   1
   9  14   7 43.9557 35.6475  -2
 -22  13   7 43.9557 35.6475   1
   6  14   7 48.9352 34.3623  -2
 -19  13   7 48.9352 34.3623   1
   7  12   7 415.264 18.9445  -2
 -19  13   7 415.264 18.9445   1
   4  12   7 694.264 40.1720  -2
 -16  13   7 694.264 40.1720   1
   3  14   7 117.741 33.0609  -2
 -16  13   7 117.741 33.0609   1
   1  12   7 327.660 22.8665  -2
 -13  13   7 327.660 22.8665   1
 -10  13   7 264.958 9.68680   1
  -7  13   7 525.489 11.9509   1
  -4  13   7 121.955 6.30458   1
  -1  13   7 229.730 7.70216   1
 -15  14   7 147.229 19.1484  -2
   2  13   7 147.229 19.1484   1
 -16  13   7 140.024 29.8709  -2
   2  13   7 140.024 29.8709   1
 -19  13   7 62.1879 33.0539  -2
   5  13   7 62.1879 33.0539   1
 -18  14   7 131.782 17.9644  -2
   5  13   7 131.782 17.9644   1
 -21  14   7 78.5805 13.6788  -2
   8  13   7 78.5805 13.6788   1
 -22  13   7 98.8619 35.0475  -2
   8  13   7 98.8619 35.0475   1
 -24  14   7 13.2878 8.34918  -2
  11  13   7 13.2878 8.34918   1
 -27  14   7 821.039 22.7226  -2
 -27  14   7 821.039 22.7226   1
  11  13   7 14.4036 10.1956  -2
 -24  14   7 14.4036 10.1956   1
  10  15   7 123.063 38.3948  -2
 -24  14   7 123.063 38.3948   1
   8  13   7 45.9969 10.1441  -2
 -21  14   7 45.9969 10.1441   1
   7  15   7 91.1707 36.6643  -2
 -21  14   7 91.1707 36.6643   1
   5  13   7 31.9481 10.5539  -2
 -18  14   7 31.9481 10.5539   1
   2  13   7 106.967 14.9900  -2
 -15  14   7 106.967 14.9900   1
 -12  14   7 93.8164 5.15245   1
  -9  14   7 676.300 16.4990   1
  -6  14   7 437.492 11.3322   1
  -3  14   7 77.6017 4.95873   1
 -14  15   7 61.3373 17.9664  -2
   0  14   7 61.3373 17.9664   1
   3  14   7 155.915 6.59865   1
 -20  15   7 140.496 18.2098  -2
   6  14   7 140.496 18.2098   1
 -21  14   7 137.529 35.6913  -2
   6  14   7 137.529 35.6913   1
 -23  15   7 102.021 12.0015  -2
   9  14   7 102.021 12.0015   1
 -24  14   7 85.1603 34.3217  -2
   9  14   7 85.1603 34.3217   1
 -26  15   7 256.511 11.4477  -2
  12  14   7 256.511 11.4477   1
 -27  14   7 326.164 42.6293  -2
  12  14   7 326.164 42.6293   1
  11  16   7 172.219 40.4451  -2
 -26  15   7 172.219 40.4451   1
  12  14   7 276.844 14.3662  -2
 -26  15   7 276.844 14.3662   1
   8  16   7 36.1897 37.2923  -2
 -23  15   7 36.1897 37.2923   1
   9  14   7 54.6649 10.7610  -2
 -23  15   7 54.6649 10.7610   1
   6  14   7 145.420 12.5790  -2
 -20  15   7 145.420 12.5790   1
   5  16   7 79.9518 34.7345  -2
 -20  15   7 79.9518 34.7345   1
   3  14   7 185.134 17.9664  -2
 -17  15   7 185.134 17.9664   1
   2  16   7 40.7086 32.7727  -2
 -17  15   7 40.7086 32.7727   1
 -14  15   7 43.0372 3.71338   1
 -11  15   7 32.4787 3.12387   1
  -8  15   7 47.3165 3.60530   1
  -5  15   7 165.930 7.33548   1
  -2  15   7 5.78649 2.86151   1
 -17  15   7 167.579 33.1602  -2
   1  15   7 167.579 33.1602   1
 -19  16   7 243.583 22.3221  -2
   4  15   7 243.583 22.3221   1
 -23  15   7 209.747 35.9037  -2
   7  15   7 209.747 35.9037   1
 -22  16   7 215.484 16.0889  -2
   7  15   7 215.484 16.0889   1
 -26  15   7 165.485 36.1705  -2
  10  15   7 165.485 36.1705   1
 -25  16   7 82.0181 9.09663  -2
  10  15   7 82.0181 9.09663   1
 -28  16   7 94.3115 18.7500  -2
  13  15   7 94.3115 18.7500   1
 -31  16   7 28.3435 10.3011  -2
 -31  16   7 28.3435 10.3011   1
  10  15   7 56.2925 10.8469  -2
 -25  16   7 56.2925 10.8469   1
   7  15   7 139.814 13.0692  -2
 -22  16   7 139.814 13.0692   1
   4  15   7 225.475 19.5631  -2
 -19  16   7 225.475 19.5631   1
   3  17   7 59.2555 34.7455  -2
 -19  16   7 59.2555 34.7455   1
 -16  16   7 3.24266 3.34813   1
 -13  16   7 23.7119 3.75259   1
 -10  16   7 36.0614 2.97429   1
  -7  16   7 42.9472 4.21327   1
  -4  16   7 103.470 5.67156   1
  -1  16   7 9.49811 3.06844   1
   2  16   7 0.71686 3.10258   1
 -22  16   7 29.2786 34.8983  -2
   5  16   7 29.2786 34.8983   1
 -21  17   7 110.104 14.9258  -2
   5  16   7 110.104 14.9258   1
 -24  17   7 32.0943 10.1209  -2
   8  16   7 32.0943 10.1209   1
 -27  17   7 251.928 15.7374  -2
  11  16   7 251.928 15.7374   1
 -30  17   7 489.501 35.1102  -2
  14  16   7 489.501 35.1102   1
  14  16   7 569.062 38.0187  -2
 -30  17   7 569.062 38.0187   1
  11  16   7 340.213 18.4317  -2
 -27  17   7 340.213 18.4317   1
   8  16   7 27.3075 11.8743  -2
 -24  17   7 27.3075 11.8743   1
   4  18   7 112.916 38.7493  -2
 -21  17   7 112.916 38.7493   1
   5  16   7 128.445 16.7437  -2
 -21  17   7 128.445 16.7437   1
 -18  17   7 63.5860 6.45049   1
 -15  17   7 72.2523 5.03708   1
 -12  17   7 15.4709 3.14988   1
  -9  17   7 21.8576 3.34290   1
 -12  17   7 15.3578 15.5573  -2
  -6  17   7 15.3578 15.5573   1
  -3  17   7 140.277 6.51618   1
 -18  17   7 317.204 37.0786  -2
   0  17   7 317.204 37.0786   1
   3  17   7 6.52729 3.23767   1
 -23  18   7 80.2336 17.2726  -2
   6  17   7 80.2336 17.2726   1
 -24  17   7 -10.966 34.9820  -2
   6  17   7 -10.966 34.9820   1
 -26  18   7 4.00916 13.5859  -2
   9  17   7 4.00916 13.5859   1
  12  17   7 17.9700 6.46185   1
 -29  18   7 84.8716 12.7516   1
   9  17   7 -6.7509 19.1375  -2
 -26  18   7 -6.7509 19.1375   1
   6  17   7 166.585 18.2312  -2
 -23  18   7 166.585 18.2312   1
 -20  18   7 454.739 20.2876   1
 -17  18   7 209.146 8.89863   1
 -14  18   7 101.785 6.95770   1
 -11  18   7 11.4856 3.14007   1
  -8  18   7 66.4907 5.41996   1
 -14  18   7 150.982 16.9195  -2
  -5  18   7 150.982 16.9195   1
  -2  18   7 2.46146 3.20724   1
 -19  19   7 84.0923 19.7639  -2
   1  18   7 84.0923 19.7639   1
 -22  19   7 36.5521 17.5206  -2
   4  18   7 36.5521 17.5206   1
 -25  19   7 -2.4869 13.3276  -2
   7  18   7 -2.4869 13.3276   1
 -26  18   7 7.13598 34.3959  -2
   7  18   7 7.13598 34.3959   1
  10  18   7 111.745 17.9763   1
 -31  19   7 185.588 16.4536  -2
  13  18   7 185.588 16.4536   1
  13  18   7 240.013 15.6631  -2
 -31  19   7 240.013 15.6631   1
  10  18   7 157.019 22.6240  -2
 -28  19   7 157.019 22.6240   1
   7  18   7 -10.763 13.1595  -2
 -25  19   7 -10.763 13.1595   1
 -22  19   7 46.7901 6.99186   1
 -19  19   7 119.869 7.57059   1
 -16  19   7 15.2788 4.21023   1
 -13  19   7 25.3840 3.61364   1
 -10  19   7 285.682 10.2440   1
 -13  19   7 392.339 24.7788  -2
  -7  19   7 392.339 24.7788   1
 -16  19   7 328.768 21.7954  -2
  -4  19   7 328.768 21.7954   1
 -18  20   7 52.4235 20.4728  -2
  -1  19   7 52.4235 20.4728   1
 -21  20   7 122.452 19.9840  -2
   2  19   7 122.452 19.9840   1
 -24  20   7 83.0456 18.3461  -2
   5  19   7 83.0456 18.3461   1
   8  19   7 21.3419 6.08487   1
 -30  20   7 270.979 14.3894  -2
  11  19   7 270.979 14.3894   1
  11  19   7 415.163 29.7252  -2
 -30  20   7 415.163 29.7252   1
 -27  20   7 33.5213 9.84726   1
 -24  20   7 100.566 12.4063   1
 -21  20   7 153.591 12.2398   1
 -18  20   7 53.6743 6.36968   1
 -15  20   7 26.5018 3.78194   1
 -12  20   7 132.517 6.71719   1
 -10  19   7 399.672 35.3516  -2
  -9  20   7 399.672 35.3516   1
 -12  20   7 223.348 19.6781  -2
  -9  20   7 223.348 19.6781   1
 -15  20   7 154.709 17.2289  -2
  -6  20   7 154.709 17.2289   1
 -17  21   7 201.499 25.2711  -2
  -3  20   7 201.499 25.2711   1
 -21  20   7 123.300 16.3085  -2
   0  20   7 123.300 16.3085   1
 -23  21   7 273.863 24.6125  -2
   3  20   7 273.863 24.6125   1
   6  20   7 57.4567 6.35998   1
 -29  21   7 149.883 26.7736  -2
   9  20   7 149.883 26.7736   1
   9  20   7 131.080 17.4555  -2
 -29  21   7 131.080 17.4555   1
 -23  21   7 260.589 15.3876   1
 -20  21   7 439.207 16.5157   1
 -17  21   7 118.937 6.61202   1
 -14  21   7 161.404 7.36937   1
 -11  21   7 200.650 19.5897  -2
 -11  21   7 200.650 19.5897   1
 -14  21   7 294.093 21.9866  -2
  -8  21   7 294.093 21.9866   1
 -17  21   7 184.305 18.0743  -2
  -5  21   7 184.305 18.0743   1
 -19  22   7 83.1305 21.4186  -2
  -2  21   7 83.1305 21.4186   1
 -20  21   7 292.356 21.7870  -2
  -2  21   7 292.356 21.7870   1
 -22  22   7 12.0095 18.6771  -2
   1  21   7 12.0095 18.6771   1
 -23  21   7 201.527 18.3489  -2
   1  21   7 201.527 18.3489   1
 -26  21   7 38.4419 14.4558  -2
   4  21   7 38.4419 14.4558   1
 -28  22   7 249.357 29.7240  -2
   7  21   7 249.357 29.7240   1
   4  21   7 27.1225 14.2579  -2
 -25  22   7 27.1225 14.2579   1
 -22  22   7 32.7593 7.19175   1
 -19  22   7 103.084 10.2395   1
 -16  22   7 16.1473 3.78537   1
 -13  22   7 211.463 9.53377   1
 -13  22   7 899.011 45.9964  -2
 -10  22   7 899.011 45.9964   1
 -16  22   7 569.171 31.8258  -2
  -7  22   7 569.171 31.8258   1
  -4  22   7 218.568 8.29603   1
 -22  22   7 10.8555 15.0248  -2
  -1  22   7 10.8555 15.0248   1
 -24  23   7 167.590 21.2887  -2
   2  22   7 167.590 21.2887   1
 -25  22   7 27.1400 14.0538  -2
   2  22   7 27.1400 14.0538   1
   5  22   7 16.8082 6.08627   1
 -30  23   7 96.7193 25.7453  -2
   8  22   7 96.7193 25.7453   1
   8  22   7 121.596 17.0603  -2
 -30  23   7 121.596 17.0603   1
   2  22   7 230.565 20.8037  -2
 -24  23   7 230.565 20.8037   1
 -21  23   7 124.291 10.8674   1
  -4  22   7 179.437 20.5718  -2
 -18  23   7 179.437 20.5718   1
  -7  22   7 979.333 59.6255  -2
 -15  23   7 979.333 59.6255   1
 -12  23   7 181.493 19.4502  -2
 -12  23   7 181.493 19.4502   1
  -9  23   7 189.545 8.20575   1
  -6  23   7 68.9198 4.99149   1
 -21  23   7 72.3381 15.6538  -2
  -3  23   7 72.3381 15.6538   1
 -24  23   7 173.244 14.9233  -2
   0  23   7 173.244 14.9233   1
   3  23   7 273.288 13.2894   1
 -29  24   7 568.683 26.8814  -2
   6  23   7 568.683 26.8814   1
   6  23   7 449.227 29.0206  -2
 -29  24   7 449.227 29.0206   1
 -23  24   7 172.749 11.1815   1
  -3  23   7 294.972 22.7438  -2
 -20  24   7 294.972 22.7438   1
 -17  24   7 194.242 12.6659   1
 -11  24   7 132.754 19.5888  -2
 -14  24   7 132.754 19.5888   1
  -9  23   7 231.265 32.7125  -2
 -14  24   7 231.265 32.7125   1
 -14  24   7 175.456 18.4545  -2
 -11  24   7 175.456 18.4545   1
  -8  24   7 87.3832 6.13303   1
 -20  24   7 227.785 16.4593  -2
  -5  24   7 227.785 16.4593   1
 -23  24   7 148.203 14.9487  -2
  -2  24   7 148.203 14.9487   1
   1  24   7 42.9591 8.26563   1
 -28  25   7 295.077 26.0978  -2
   4  24   7 295.077 26.0978   1
 -29  24   7 260.958 20.4411  -2
   4  24   7 260.958 20.4411   1
   4  24   7 278.174 22.7162  -2
 -28  25   7 278.174 22.7162   1
 -25  25   7 2.75847 12.8872   1
  -2  24   7 37.9483 18.0262  -2
 -22  25   7 37.9483 18.0262   1
  -5  24   7 220.572 20.3290  -2
 -19  25   7 220.572 20.3290   1
 -16  25   7 54.5092 6.62572   1
 -11  24   7 325.426 34.9883  -2
 -13  25   7 325.426 34.9883   1
 -13  25   7 347.069 24.7252  -2
 -13  25   7 347.069 24.7252   1
 -16  25   7 584.085 32.7547  -2
 -10  25   7 584.085 32.7547   1
  -7  25   7 182.269 7.96994   1
 -22  25   7 62.0195 27.5580  -2
  -4  25   7 62.0195 27.5580   1
  -1  25   7 8.48727 8.19363   1
 -28  25   7 136.111 17.6113  -2
   2  25   7 136.111 17.6113   1
   2  25   7 170.255 20.1504  -2
 -27  26   7 170.255 20.1504   1
 -24  26   7 24.3322 9.28361   1
 -21  26   7 -8.7315 7.57387   1
 -18  26   7 25.9276 7.18156   1
 -12  26   7 33.2097 17.4088  -2
 -15  26   7 33.2097 17.4088   1
 -13  25   7 191.259 34.6383  -2
 -12  26   7 191.259 34.6383   1
 -15  26   7 -4.2265 16.0204  -2
 -12  26   7 -4.2265 16.0204   1
 -18  26   7 114.254 16.7889  -2
  -9  26   7 114.254 16.7889   1
  -6  26   7 8.88081 4.87668   1
  -3  26   7 37.3898 7.13527   1
 -26  27   7 304.946 27.2079  -2
   0  26   7 304.946 27.2079   1
 -27  26   7 305.396 21.7571  -2
   0  26   7 305.396 21.7571   1
   0  26   7 220.362 15.5923  -2
 -26  27   7 220.362 15.5923   1
 -23  27   7 24.7019 8.88970   1
 -20  27   7 109.920 10.0183   1
 -17  27   7 1.89723 5.63223   1
 -14  27   7 106.967 16.8460  -2
 -14  27   7 106.967 16.8460   1
 -15  26   7 140.258 33.3084  -2
 -11  27   7 140.258 33.3084   1
  -8  27   7 27.3213 5.50577   1
  -5  27   7 49.9777 6.86887   1
 -26  27   7 97.0326 12.5164  -2
  -2  27   7 97.0326 12.5164   1
 -25  28   7 80.4036 20.7004  -2
  -2  27   7 80.4036 20.7004   1
  -2  27   7 73.3255 18.9114  -2
 -25  28   7 73.3255 18.9114   1
 -22  28   7 103.159 11.1110   1
 -19  28   7 8.51948 6.25035   1
 -16  28   7 7.27575 6.57717   1
 -13  28   7 38.1342 6.37229   1
 -10  28   7 207.619 15.8393   1
 -22  28   7 165.959 18.1612  -2
  -7  28   7 165.959 18.1612   1
 -25  28   7 10.6620 14.3623  -2
  -4  28   7 10.6620 14.3623   1
  -4  28   7 55.9598 17.0009  -2
 -24  29   7 55.9598 17.0009   1
 -21  29   7 14.6635 11.1698   1
 -18  29   7 60.3621 9.28668   1
 -15  29   7 5.99742 7.08346   1
 -12  29   7 12.7458 6.30103   1
 -21  29   7 175.778 18.3440  -2
  -9  29   7 175.778 18.3440   1
 -24  29   7 37.6601 13.2512  -2
  -6  29   7 37.6601 13.2512   1
  -6  29   7 17.3904 29.0531  -2
 -23  30   7 17.3904 29.0531   1
 -20  30   7 11.7045 7.68485   1
 -17  30   7 33.5827 8.77776   1
 -17  30   7 15.7981 13.6201  -2
 -14  30   7 15.7981 13.6201   1
 -20  30   7 13.8877 26.7869  -2
 -11  30   7 13.8877 26.7869   1
 -23  30   7 46.7674 15.7910  -2
  -8  30   7 46.7674 15.7910   1
 -11  30   7 44.3329 32.0675  -2
 -19  31   7 44.3329 32.0675   1
 -14  30   7 32.7125 34.0416  -2
 -16  31   7 32.7125 34.0416   1
 -16  31   7 5.40822 14.0590  -2
 -16  31   7 5.40822 14.0590   1
 -19  31   7 29.2878 14.3235  -2
 -13  31   7 29.2878 14.3235   1
   0   1   8 17.8968 2.21389   1
  -2   2   8 11.3281 1.69475   1
   1   2   8 57.5337 3.15542   1
  -4   3   8 226.161 5.45815   1
  -1   3   8 34.1406 2.32536   1
   2   3   8 306.626 7.75024   1
  -6   4   8 43.1952 3.47803   1
  -3   4   8 3.61891 1.94024   1
  -4   3   8 874.382 48.9118  -2
   0   4   8 874.382 48.9118   1
   3   4   8 773.678 18.1720   1
  -8   5   8 168.466 5.85746   1
  -5   5   8 75.4179 3.79965   1
  -2   5   8 45.5390 2.63410   1
   1   5   8 77.8569 4.02957   1
   4   5   8 255.002 7.33319   1
 -10   6   8 659.876 16.0573   1
  -7   6   8 218.437 6.94857   1
  -4   6   8 1.87635 2.30503   1
  -1   6   8 385.599 9.25514   1
   2   6   8 247.094 7.82364   1
   5   6   8 106.698 4.97760   1
   5   6   8 212.617 31.2377  -2
 -12   7   8 212.617 31.2377   1
  -9   7   8 94.0934 5.55144   1
  -6   7   8 2.14078 2.45496   1
  -3   7   8 231.363 6.53645   1
   0   7   8 610.294 16.4664   1
 -10   6   8 1350.78 73.3315  -2
   3   7   8 1350.78 73.3315   1
   6   7   8 136.302 6.21840   1
   5   9   8 9.17991 14.1320  -2
 -14   8   8 9.17991 14.1320   1
 -11   8   8 147.602 5.92494   1
  -8   8   8 3.82107 2.66380   1
  -5   8   8 -0.5953 2.34273   1
  -2   8   8 3.53997 2.16317   1
   1   8   8 80.9798 5.09685   1
 -12   7   8 150.823 18.3093  -2
   4   8   8 150.823 18.3093   1
   7   8   8 -0.9078 2.63650   1
   6  10   8 38.6738 14.8348  -2
 -16   9   8 38.6738 14.8348   1
   4   8   8 194.973 32.1329  -2
 -13   9   8 194.973 32.1329   1
   3  10   8 433.017 28.3020  -2
 -13   9   8 433.017 28.3020   1
   1   8   8 249.184 30.2456  -2
 -10   9   8 249.184 30.2456   1
  -7   9   8 2.26956 2.34314   1
  -4   9   8 227.814 6.61689   1
  -1   9   8 282.822 9.35709   1
 -11   8   8 341.346 25.8941  -2
   2   9   8 341.346 25.8941   1
 -14   8   8 43.5064 15.9763  -2
   5   9   8 43.5064 15.9763   1
   8   9   8 90.3538 16.8853  -2
   8   9   8 90.3538 16.8853   1
 -18  10   8 341.840 10.8452   1
   4  11   8 142.251 16.8204  -2
 -15  10   8 142.251 16.8204   1
   5   9   8 24.8161 31.3013  -2
 -15  10   8 24.8161 31.3013   1
   2   9   8 170.718 31.7389  -2
 -12  10   8 170.718 31.7389   1
   1  11   8 115.386 16.2140  -2
 -12  10   8 115.386 16.2140   1
  -1   9   8 388.436 35.4450  -2
  -9  10   8 388.436 35.4450   1
  -6  10   8 -0.5415 2.13259   1
  -3  10   8 80.4884 4.97083   1
   0  10   8 400.117 10.9803   1
 -13   9   8 499.996 32.9883  -2
   3  10   8 499.996 32.9883   1
 -16   9   8 10.7462 15.7250  -2
   6  10   8 10.7462 15.7250   1
   9  10   8 448.973 30.2476  -2
   9  10   8 448.973 30.2476   1
   8  12   8 18.4265 10.6944  -2
 -20  11   8 18.4265 10.6944   1
   9  10   8 153.811 37.1586  -2
 -20  11   8 153.811 37.1586   1
   5  12   8 5.98305 15.1474  -2
 -17  11   8 5.98305 15.1474   1
   6  10   8 43.8175 34.1973  -2
 -17  11   8 43.8175 34.1973   1
   2  12   8 10.6930 14.1527  -2
 -14  11   8 10.6930 14.1527   1
   3  10   8 312.250 36.9284  -2
 -14  11   8 312.250 36.9284   1
   0  10   8 304.974 35.4190  -2
 -11  11   8 304.974 35.4190   1
  -3  10   8 310.847 32.9576  -2
  -8  11   8 310.847 32.9576   1
  -5  11   8 144.585 5.42065   1
  -2  11   8 -1.4434 2.95848   1
 -12  10   8 144.452 20.3477  -2
   1  11   8 144.452 20.3477   1
   4  11   8 182.018 7.25281   1
 -18  10   8 331.034 25.5911  -2
   7  11   8 331.034 25.5911   1
  10  11   8 841.536 34.4808  -2
  10  11   8 841.536 34.4808   1
   9  13   8 568.532 21.0311  -2
 -22  12   8 568.532 21.0311   1
   6  13   8 373.981 18.7618  -2
 -19  12   8 373.981 18.7618   1
   7  11   8 297.661 38.7963  -2
 -19  12   8 297.661 38.7963   1
   4  11   8 139.333 36.2124  -2
 -16  12   8 139.333 36.2124   1
   3  13   8 98.4838 16.3599  -2
 -16  12   8 98.4838 16.3599   1
   1  11   8 56.8221 32.2581  -2
 -13  12   8 56.8221 32.2581   1
  -2  11   8 0.59774 28.8209  -2
 -10  12   8 0.59774 28.8209   1
  -7  12   8 92.1830 4.65793   1
  -4  12   8 22.0692 3.60536   1
 -10  12   8 8.47785 14.8538  -2
  -1  12   8 8.47785 14.8538   1
   2  12   8 0.16647 2.87981   1
 -17  11   8 9.58178 16.7617  -2
   5  12   8 9.58178 16.7617   1
 -20  11   8 24.4777 16.7285  -2
   8  12   8 24.4777 16.7285   1
  11  12   8 41.2312 12.6205  -2
  11  12   8 41.2312 12.6205   1
  10  14   8 855.288 46.4059  -2
 -24  13   8 855.288 46.4059   1
   8  12   8 467.627 44.9082  -2
 -21  13   8 467.627 44.9082   1
   7  14   8 705.745 41.9788  -2
 -21  13   8 705.745 41.9788   1
   4  14   8 169.364 18.8130  -2
 -18  13   8 169.364 18.8130   1
   5  12   8 89.3571 34.4241  -2
 -18  13   8 89.3571 34.4241   1
   2  12   8 37.5716 33.7513  -2
 -15  13   8 37.5716 33.7513   1
 -12  13   8 106.118 6.53713   1
  -9  13   8 434.321 10.5404   1
  -6  13   8 213.040 7.39264   1
  -9  13   8 299.728 22.6448  -2
  -3  13   8 299.728 22.6448   1
 -12  13   8 108.121 16.8997  -2
   0  13   8 108.121 16.8997   1
   3  13   8 102.018 5.78386   1
 -18  13   8 162.915 28.4271  -2
   6  13   8 162.915 28.4271   1
 -19  12   8 286.074 24.2368  -2
   6  13   8 286.074 24.2368   1
 -22  12   8 529.105 19.9151  -2
   9  13   8 529.105 19.9151   1
  12  13   8 92.9299 8.96482   1
  11  15   8 111.259 14.4271  -2
 -26  14   8 111.259 14.4271   1
   8  15   8 96.5058 17.8195  -2
 -23  14   8 96.5058 17.8195   1
   9  13   8 108.413 37.0967  -2
 -23  14   8 108.413 37.0967   1
   6  13   8 75.5549 37.2255  -2
 -20  14   8 75.5549 37.2255   1
   5  15   8 135.968 18.2345  -2
 -20  14   8 135.968 18.2345   1
   3  13   8 -0.5243 36.2821  -2
 -17  14   8 -0.5243 36.2821   1
 -14  14   8 230.837 10.5612   1
 -11  14   8 582.167 16.5846   1
  -8  14   8 1225.88 25.4415   1
  -5  14   8 257.865 11.3283   1
 -11  14   8 403.205 26.2473  -2
  -2  14   8 403.205 26.2473   1
   1  14   8 125.821 7.71092   1
 -18  13   8 119.473 19.4242  -2
   4  14   8 119.473 19.4242   1
 -17  14   8 28.7064 14.4240  -2
   4  14   8 28.7064 14.4240   1
 -21  13   8 501.562 33.3273  -2
   7  14   8 501.562 33.3273   1
 -24  13   8 575.332 34.4757  -2
  10  14   8 575.332 34.4757   1
  13  14   8 205.911 16.9543  -2
  13  14   8 205.911 16.9543   1
 -25  15   8 314.557 20.4182   1
   6  16   8 378.362 27.0674  -2
 -22  15   8 378.362 27.0674   1
   7  14   8 218.521 39.6988  -2
 -22  15   8 218.521 39.6988   1
   4  14   8 119.756 38.4525  -2
 -19  15   8 119.756 38.4525   1
 -16  15   8 96.1842 7.97734   1
 -13  15   8 227.744 10.2379   1
 -10  15   8 129.368 6.39718   1
  -7  15   8 126.061 7.25852   1
 -10  15   8 106.758 18.6782  -2
  -4  15   8 106.758 18.6782   1
 -13  15   8 193.465 19.2651  -2
  -1  15   8 193.465 19.2651   1
 -16  15   8 73.0502 15.5470  -2
   2  15   8 73.0502 15.5470   1
 -19  15   8 179.428 28.5863  -2
   5  15   8 179.428 28.5863   1
 -20  14   8 178.855 21.3292  -2
   5  15   8 178.855 21.3292   1
   8  15   8 29.0380 4.40767   1
 -26  14   8 108.542 15.7619  -2
  11  15   8 108.542 15.7619   1
  10  17   8 260.774 23.8043  -2
 -27  16   8 260.774 23.8043   1
   8  15   8 543.733 51.2983  -2
 -24  16   8 543.733 51.2983   1
   5  15   8 232.813 42.8305  -2
 -21  16   8 232.813 42.8305   1
 -18  16   8 94.3550 7.99715   1
 -15  16   8 6.23226 4.99386   1
 -12  16   8 177.290 7.24471   1
  -9  16   8 499.394 13.1015   1
  -6  16   8 90.9022 5.74487   1
 -12  16   8 117.929 18.4071  -2
  -3  16   8 117.929 18.4071   1
 -15  16   8 28.7437 14.4431  -2
   0  16   8 28.7437 14.4431   1
 -19  15   8 92.2812 18.9970  -2
   3  16   8 92.2812 18.9970   1
 -18  16   8 63.7450 15.5632  -2
   3  16   8 63.7450 15.5632   1
 -22  15   8 309.387 25.4848  -2
   6  16   8 309.387 25.4848   1
 -24  16   8 420.713 32.1485  -2
   9  16   8 420.713 32.1485   1
   8  18   8 34.8240 16.9446  -2
 -26  17   8 34.8240 16.9446   1
 -23  17   8 59.7508 13.2606   1
 -20  17   8 63.0569 11.3087   1
 -17  17   8 42.5894 6.63164   1
 -14  17   8 555.023 18.8826   1
 -11  17   8 773.355 18.5858   1
  -8  17   8 591.885 16.9217   1
 -11  17   8 527.138 31.6816  -2
  -5  17   8 527.138 31.6816   1
 -14  17   8 597.448 33.6432  -2
  -2  17   8 597.448 33.6432   1
 -17  17   8 111.355 15.6840  -2
   1  17   8 111.355 15.6840   1
 -20  17   8 312.864 18.0285  -2
   4  17   8 312.864 18.0285   1
   7  17   8 86.0360 7.32645   1
 -27  16   8 168.363 15.0439  -2
  10  17   8 168.363 15.0439   1
   6  19   8 160.718 18.1687  -2
 -25  18   8 160.718 18.1687   1
 -22  18   8 6.09482 8.71943   1
 -19  18   8 7.31457 4.78615   1
 -16  18   8 68.6332 8.62849   1
 -13  18   8 116.367 6.31312   1
 -10  18   8 5.55514 3.91122   1
 -10  18   8 -10.949 16.9236  -2
  -7  18   8 -10.949 16.9236   1
 -13  18   8 157.614 18.4242  -2
  -4  18   8 157.614 18.4242   1
 -16  18   8 281.272 17.8161  -2
  -1  18   8 281.272 17.8161   1
 -20  17   8 456.556 33.1122  -2
   2  18   8 456.556 33.1122   1
   5  18   8 380.874 15.3366   1
 -26  17   8 43.5697 18.3262  -2
   8  18   8 43.5697 18.3262   1
 -27  19   8 65.8946 6.37148   1
   4  20   8 440.349 27.5792  -2
 -24  19   8 440.349 27.5792   1
 -18  19   8 9.85391 5.91943   1
 -15  19   8 172.463 8.30489   1
 -12  19   8 253.515 8.79306   1
  -9  19   8 255.098 10.0646   1
 -12  19   8 205.229 20.4498  -2
  -6  19   8 205.229 20.4498   1
 -15  19   8 114.263 17.3818  -2
  -3  19   8 114.263 17.3818   1
 -18  19   8 123.627 13.9349  -2
   0  19   8 123.627 13.9349   1
 -21  19   8 27.9513 12.7077  -2
   3  19   8 27.9513 12.7077   1
 -25  18   8 130.622 20.0124  -2
   6  19   8 130.622 20.0124   1
   5  21   8 65.5034 15.9359  -2
 -26  20   8 65.5034 15.9359   1
 -20  20   8 -2.2915 5.93739   1
 -17  20   8 194.402 8.87425   1
 -14  20   8 461.325 14.8904   1
 -11  20   8 291.360 11.0329   1
 -11  20   8 262.145 22.3595  -2
  -8  20   8 262.145 22.3595   1
 -14  20   8 415.190 26.7040  -2
  -5  20   8 415.190 26.7040   1
 -17  20   8 204.804 31.2850  -2
  -2  20   8 204.804 31.2850   1
 -20  20   8 149.096 14.4878  -2
   1  20   8 149.096 14.4878   1
   4  20   8 319.712 16.0960   1
   3  22   8 11.5310 15.8335  -2
 -25  21   8 11.5310 15.8335   1
 -22  21   8 29.4914 7.82118   1
 -19  21   8 12.4773 4.51569   1
 -16  21   8 1.66440 3.83862   1
  -7  21   8 85.8509 18.5459  -2
 -13  21   8 85.8509 18.5459   1
 -10  21   8 11.7798 17.2771  -2
 -10  21   8 11.7798 17.2771   1
 -13  21   8 12.9058 15.9869  -2
  -7  21   8 12.9058 15.9869   1
 -16  21   8 95.4463 14.3125  -2
  -4  21   8 95.4463 14.3125   1
  -1  21   8 478.010 20.5769   1
   2  21   8 240.291 18.1934   1
 -25  21   8 94.2964 12.9182  -2
   5  21   8 94.2964 12.9182   1
 -26  20   8 131.861 20.4532  -2
   5  21   8 131.861 20.4532   1
   1  23   8 117.276 16.5740  -2
 -24  22   8 117.276 16.5740   1
 -21  22   8 18.6566 6.68818   1
 -18  22   8 186.963 8.71420   1
 -15  22   8 129.725 8.50197   1
  -9  22   8 43.9027 17.3603  -2
 -12  22   8 43.9027 17.3603   1
 -12  22   8 14.8926 16.5268  -2
  -9  22   8 14.8926 16.5268   1
 -15  22   8 117.236 17.7962  -2
  -6  22   8 117.236 17.7962   1
 -18  22   8 124.687 31.0112  -2
  -3  22   8 124.687 31.0112   1
   0  22   8 48.0434 7.09369   1
 -25  21   8 15.1764 18.3499  -2
   3  22   8 15.1764 18.3499   1
 -24  22   8 38.6885 12.5538  -2
   3  22   8 38.6885 12.5538   1
  -1  24   8 328.053 17.7091  -2
 -23  23   8 328.053 17.7091   1
 -20  23   8 -2.1480 6.42190   1
 -17  23   8 82.8543 7.56761   1
 -14  23   8 136.603 7.73202   1
 -11  23   8 14.6282 6.07646   1
  -8  23   8 19.5742 5.93046   1
  -5  23   8 97.4960 9.42071   1
  -2  23   8 164.112 12.1741   1
 -23  23   8 108.637 13.9255  -2
   1  23   8 108.637 13.9255   1
 -24  22   8 111.976 21.8375  -2
   1  23   8 111.976 21.8375   1
  -3  25   8 133.313 19.5534  -2
 -22  24   8 133.313 19.5534   1
  -6  25   8 87.2940 17.7536  -2
 -19  24   8 87.2940 17.7536   1
 -16  24   8 6.33877 5.19247   1
 -13  24   8 34.9200 6.61789   1
 -10  24   8 19.2053 5.80505   1
  -7  24   8 3.55716 6.42018   1
 -19  24   8 282.197 21.0533  -2
  -4  24   8 282.197 21.0533   1
 -22  24   8 367.899 24.1970  -2
  -1  24   8 367.899 24.1970   1
  -5  26   8 95.6606 18.9747  -2
 -21  25   8 95.6606 18.9747   1
 -18  25   8 16.3463 10.5200   1
 -15  25   8 3.49377 6.53489   1
 -12  25   8 80.3051 9.13131   1
  -9  25   8 102.825 9.72693   1
 -18  25   8 17.9274 13.5154  -2
  -6  25   8 17.9274 13.5154   1
 -21  25   8 26.0347 13.5034  -2
  -3  25   8 26.0347 13.5034   1
 -20  26   8 142.583 12.1916   1
 -17  26   8 4.04692 10.1493   1
 -11  26   8 15.1494 16.7641  -2
 -14  26   8 15.1494 16.7641   1
 -14  26   8 37.0973 16.8366  -2
 -11  26   8 37.0973 16.8366   1
 -17  26   8 9.89980 13.8952  -2
  -8  26   8 9.89980 13.8952   1
 -20  26   8 179.448 15.8138  -2
  -5  26   8 179.448 15.8138   1
 -19  27   8 137.524 8.16432   1
 -16  27   8 -8.4565 7.37955   1
 -13  27   8 177.884 19.9468  -2
 -13  27   8 177.884 19.9468   1
 -16  27   8 95.7581 14.1272  -2
 -10  27   8 95.7581 14.1272   1
   0   0   9 15.9471 4.61432  -2
   0   0   9 15.9471 4.61432   1
   1   1   9 1173.16 24.5345  -2
   1   1   9 1173.16 24.5345   1
  -1   2   9 1362.43 25.9472  -2
  -1   2   9 1362.43 25.9472   1
   2   2   9 687.650 16.7487  -2
   2   2   9 687.650 16.7487   1
   0   3   9 8.74461 2.93482  -2
  -3   3   9 8.74461 2.93482   1
  -3   3   9 12.4675 2.60293  -2
   0   3   9 12.4675 2.60293   1
   3   3   9 111.346 5.60781  -2
   3   3   9 111.346 5.60781   1
   1   4   9 804.165 24.9910  -2
  -5   4   9 804.165 24.9910   1
  -2   4   9 848.930 16.8914  -2
  -2   4   9 848.930 16.8914   1
  -5   4   9 682.161 15.1789  -2
   1   4   9 682.161 15.1789   1
   4   4   9 182.548 6.53573  -2
   4   4   9 182.548 6.53573   1
   2   5   9 103.844 5.59895  -2
  -7   5   9 103.844 5.59895   1
  -1   5   9 778.812 18.5561  -2
  -4   5   9 778.812 18.5561   1
  -4   5   9 782.263 15.7475  -2
  -1   5   9 782.263 15.7475   1
  -7   5   9 77.6389 4.65582  -2
   2   5   9 77.6389 4.65582   1
   5   5   9 42.3179 3.62969  -2
   5   5   9 42.3179 3.62969   1
   3   6   9 22.1126 3.13841  -2
  -9   6   9 22.1126 3.13841   1
   0   6   9 106.551 6.68808  -2
  -6   6   9 106.551 6.68808   1
  -3   6   9 106.550 4.99385  -2
  -3   6   9 106.550 4.99385   1
  -6   6   9 115.923 5.87113  -2
   0   6   9 115.923 5.87113   1
  -9   6   9 14.1946 2.87494  -2
   3   6   9 14.1946 2.87494   1
   6   6   9 36.0395 3.79424  -2
   6   6   9 36.0395 3.79424   1
   4   7   9 16.7697 3.15048  -2
 -11   7   9 16.7697 3.15048   1
   1   7   9 170.206 7.60494  -2
  -8   7   9 170.206 7.60494   1
  -2   7   9 76.1755 4.83713  -2
  -5   7   9 76.1755 4.83713   1
  -5   7   9 53.5771 3.33923  -2
  -2   7   9 53.5771 3.33923   1
  -8   7   9 204.819 6.73186  -2
   1   7   9 204.819 6.73186   1
 -11   7   9 9.26388 3.36866  -2
   4   7   9 9.26388 3.36866   1
   7   7   9 33.3770 4.12663  -2
   7   7   9 33.3770 4.12663   1
   5   8   9 227.178 8.28667  -2
 -13   8   9 227.178 8.28667   1
   2   8   9 83.0516 5.93057  -2
 -10   8   9 83.0516 5.93057   1
  -1   8   9 19.1045 3.81772  -2
  -7   8   9 19.1045 3.81772   1
  -4   8   9 78.7909 4.74534  -2
  -4   8   9 78.7909 4.74534   1
  -7   8   9 15.9511 3.53142  -2
  -1   8   9 15.9511 3.53142   1
 -10   8   9 60.2533 4.50829  -2
   2   8   9 60.2533 4.50829   1
 -13   8   9 168.458 7.08410  -2
   5   8   9 168.458 7.08410   1
   8   8   9 261.689 8.99160  -2
   8   8   9 261.689 8.99160   1
   6   9   9 209.330 8.41804  -2
 -15   9   9 209.330 8.41804   1
   3   9   9 375.076 11.1520  -2
 -12   9   9 375.076 11.1520   1
   0   9   9 431.669 13.7595  -2
  -9   9   9 431.669 13.7595   1
  -3   9   9 93.3261 4.75300  -2
  -6   9   9 93.3261 4.75300   1
  -6   9   9 141.272 7.12538  -2
  -3   9   9 141.272 7.12538   1
  -9   9   9 494.242 12.1941  -2
   0   9   9 494.242 12.1941   1
 -12   9   9 248.492 8.08822  -2
   3   9   9 248.492 8.08822   1
 -15   9   9 132.436 6.43348  -2
   6   9   9 132.436 6.43348   1
   9   9   9 12.7783 3.77780  -2
   9   9   9 12.7783 3.77780   1
   7  10   9 68.1638 6.05884  -2
 -17  10   9 68.1638 6.05884   1
   4  10   9 20.8269 4.45303  -2
 -14  10   9 20.8269 4.45303   1
   1  10   9 292.676 10.8032  -2
 -11  10   9 292.676 10.8032   1
  -2  10   9 354.806 10.5784  -2
  -8  10   9 354.806 10.5784   1
  -5  10   9 62.5672 4.09202  -2
  -5  10   9 62.5672 4.09202   1
  -8  10   9 496.490 14.4337  -2
  -2  10   9 496.490 14.4337   1
 -11  10   9 373.639 10.1432  -2
   1  10   9 373.639 10.1432   1
 -14  10   9 32.5043 4.03880  -2
   4  10   9 32.5043 4.03880   1
 -17  10   9 54.6673 4.39172  -2
   7  10   9 54.6673 4.39172   1
  10  10   9 -0.8378 3.67122  -2
  10  10   9 -0.8378 3.67122   1
   8  11   9 93.7566 11.2336  -2
 -19  11   9 93.7566 11.2336   1
   5  11   9 520.320 16.0160  -2
 -16  11   9 520.320 16.0160   1
   2  11   9 656.431 17.0575  -2
 -13  11   9 656.431 17.0575   1
  -1  11   9 328.660 11.4193  -2
 -10  11   9 328.660 11.4193   1
  -4  11   9 81.5107 4.97437  -2
  -7  11   9 81.5107 4.97437   1
  -7  11   9 59.8542 5.56820  -2
  -4  11   9 59.8542 5.56820   1
 -10  11   9 205.252 7.45823  -2
  -1  11   9 205.252 7.45823   1
 -13  11   9 509.111 12.6116  -2
   2  11   9 509.111 12.6116   1
 -16  11   9 365.769 10.1900  -2
   5  11   9 365.769 10.1900   1
 -19  11   9 49.9596 5.91012  -2
   8  11   9 49.9596 5.91012   1
  11  11   9 113.136 6.93170  -2
  11  11   9 113.136 6.93170   1
   9  12   9 14.8139 4.97451  -2
 -21  12   9 14.8139 4.97451   1
   6  12   9 197.359 18.4604  -2
 -18  12   9 197.359 18.4604   1
   3  12   9 643.339 18.9875  -2
 -15  12   9 643.339 18.9875   1
   0  12   9 844.984 24.6186  -2
 -12  12   9 844.984 24.6186   1
  -3  12   9 419.887 12.7806  -2
  -9  12   9 419.887 12.7806   1
  -6  12   9 20.3313 3.93481  -2
  -6  12   9 20.3313 3.93481   1
  -9  12   9 558.954 13.4739  -2
  -3  12   9 558.954 13.4739   1
 -12  12   9 729.820 16.5669  -2
   0  12   9 729.820 16.5669   1
 -15  12   9 441.685 11.4782  -2
   3  12   9 441.685 11.4782   1
 -18  12   9 164.862 10.4623  -2
   6  12   9 164.862 10.4623   1
 -21  12   9 19.6045 4.18205  -2
   9  12   9 19.6045 4.18205   1
  10  13   9 176.205 8.68172  -2
 -23  13   9 176.205 8.68172   1
   7  13   9 16.7315 4.88339  -2
 -20  13   9 16.7315 4.88339   1
   4  13   9 9.31254 4.57092  -2
 -17  13   9 9.31254 4.57092   1
   1  13   9 343.742 13.0787  -2
 -14  13   9 343.742 13.0787   1
  -2  13   9 375.100 11.9034  -2
 -11  13   9 375.100 11.9034   1
  -5  13   9 299.815 8.43153  -2
  -8  13   9 299.815 8.43153   1
  -8  13   9 403.984 11.7162  -2
  -5  13   9 403.984 11.7162   1
 -11  13   9 530.147 12.9899  -2
  -2  13   9 530.147 12.9899   1
 -14  13   9 430.518 11.2572  -2
   1  13   9 430.518 11.2572   1
 -17  13   9 5.09646 3.71320  -2
   4  13   9 5.09646 3.71320   1
 -20  13   9 10.2114 4.15962  -2
   7  13   9 10.2114 4.15962   1
 -23  13   9 213.811 8.47999  -2
  10  13   9 213.811 8.47999   1
   8  14   9 283.033 11.5557  -2
 -22  14   9 283.033 11.5557   1
   5  14   9 340.961 19.7624  -2
 -19  14   9 340.961 19.7624   1
   2  14   9 582.100 18.9413  -2
 -16  14   9 582.100 18.9413   1
  -1  14   9 484.286 16.9626  -2
 -13  14   9 484.286 16.9626   1
  -4  14   9 154.908 6.75175  -2
 -10  14   9 154.908 6.75175   1
  -7  14   9 116.308 7.40429  -2
  -7  14   9 116.308 7.40429   1
 -10  14   9 103.422 6.22948  -2
  -4  14   9 103.422 6.22948   1
 -13  14   9 327.776 9.63246  -2
  -1  14   9 327.776 9.63246   1
 -16  14   9 386.025 10.5779  -2
   2  14   9 386.025 10.5779   1
 -19  14   9 338.244 13.2099  -2
   5  14   9 338.244 13.2099   1
 -22  14   9 340.732 10.5245  -2
   8  14   9 340.732 10.5245   1
   6  15   9 181.516 9.15160  -2
 -21  15   9 181.516 9.15160   1
   3  15   9 296.710 20.3971  -2
 -18  15   9 296.710 20.3971   1
   0  15   9 979.694 30.5647  -2
 -15  15   9 979.694 30.5647   1
  -3  15   9 619.770 17.5615  -2
 -12  15   9 619.770 17.5615   1
  -6  15   9 191.531 7.65064  -2
  -9  15   9 191.531 7.65064   1
  -9  15   9 260.068 8.63574  -2
  -6  15   9 260.068 8.63574   1
 -12  15   9 683.209 15.9172  -2
  -3  15   9 683.209 15.9172   1
 -15  15   9 854.099 19.0358  -2
   0  15   9 854.099 19.0358   1
 -18  15   9 223.210 9.76141  -2
   3  15   9 223.210 9.76141   1
 -21  15   9 224.023 8.63474  -2
   6  15   9 224.023 8.63474   1
   4  16   9 9.86211 4.83393  -2
 -20  16   9 9.86211 4.83393   1
   1  16   9 219.724 17.1031  -2
 -17  16   9 219.724 17.1031   1
  -2  16   9 527.443 15.4383  -2
 -14  16   9 527.443 15.4383   1
  -5  16   9 277.928 9.98512  -2
 -11  16   9 277.928 9.98512   1
  -8  16   9 263.015 9.39367  -2
  -8  16   9 263.015 9.39367   1
 -11  16   9 389.967 10.7504  -2
  -5  16   9 389.967 10.7504   1
 -14  16   9 681.726 15.8856  -2
  -2  16   9 681.726 15.8856   1
 -17  16   9 230.162 10.3802  -2
   1  16   9 230.162 10.3802   1
 -20  16   9 9.73369 4.08494  -2
   4  16   9 9.73369 4.08494   1
   5  17   9 253.325 11.0074  -2
 -22  17   9 253.325 11.0074   1
   2  17   9 87.6012 8.29733  -2
 -19  17   9 87.6012 8.29733   1
  -1  17   9 190.608 12.2326  -2
 -16  17   9 190.608 12.2326   1
  -4  17   9 47.2227 5.56508  -2
 -13  17   9 47.2227 5.56508   1
  -7  17   9 28.2859 4.94148  -2
 -10  17   9 28.2859 4.94148   1
 -10  17   9 21.6835 3.86100  -2
  -7  17   9 21.6835 3.86100   1
 -13  17   9 46.0097 4.17456  -2
  -4  17   9 46.0097 4.17456   1
 -16  17   9 107.009 7.97701  -2
  -1  17   9 107.009 7.97701   1
 -19  17   9 58.3107 4.99214  -2
   2  17   9 58.3107 4.99214   1
 -22  17   9 294.853 9.11569  -2
   5  17   9 294.853 9.11569   1
   3  18   9 4.99947 5.20477  -2
 -21  18   9 4.99947 5.20477   1
   0  18   9 108.070 8.86189  -2
 -18  18   9 108.070 8.86189   1
  -3  18   9 258.077 15.9139  -2
 -15  18   9 258.077 15.9139   1
  -6  18   9 184.616 10.3287  -2
 -12  18   9 184.616 10.3287   1
  -9  18   9 25.0287 4.10763  -2
  -9  18   9 25.0287 4.10763   1
 -12  18   9 185.866 8.22828  -2
  -6  18   9 185.866 8.22828   1
 -15  18   9 313.234 12.4006  -2
  -3  18   9 313.234 12.4006   1
 -18  18   9 87.1178 6.40655  -2
   0  18   9 87.1178 6.40655   1
 -21  18   9 1.68695 3.89835  -2
   3  18   9 1.68695 3.89835   1
   1  19   9 10.8579 5.43211  -2
 -20  19   9 10.8579 5.43211   1
  -2  19   9 83.0462 7.27266  -2
 -17  19   9 83.0462 7.27266   1
  -5  19   9 322.588 28.9995  -2
 -14  19   9 322.588 28.9995   1
  -8  19   9 35.5569 5.52592  -2
 -11  19   9 35.5569 5.52592   1
 -11  19   9 39.6073 4.99242  -2
  -8  19   9 39.6073 4.99242   1
 -14  19   9 321.009 12.9861  -2
  -5  19   9 321.009 12.9861   1
 -17  19   9 100.404 6.23560  -2
  -2  19   9 100.404 6.23560   1
 -20  19   9 7.56762 3.93169  -2
   1  19   9 7.56762 3.93169   1
  -1  20   9 19.4769 4.26157  -2
 -19  20   9 19.4769 4.26157   1
  -4  20   9 22.4512 6.70091  -2
 -16  20   9 22.4512 6.70091   1
  -7  20   9 22.3407 5.21380  -2
 -13  20   9 22.3407 5.21380   1
 -10  20   9 20.0134 5.56577  -2
 -10  20   9 20.0134 5.56577   1
 -13  20   9 12.2465 3.98594  -2
  -7  20   9 12.2465 3.98594   1
 -16  20   9 9.92728 3.97283  -2
  -4  20   9 9.92728 3.97283   1
 -19  20   9 12.4133 3.90276  -2
  -1  20   9 12.4133 3.90276   1
  -3  21   9 12.9676 6.84005  -2
 -18  21   9 12.9676 6.84005   1
  -6  21   9 48.6276 9.62725  -2
 -15  21   9 48.6276 9.62725   1
  -9  21   9 7.80598 5.18139  -2
 -12  21   9 7.80598 5.18139   1
 -12  21   9 0.73333 5.40970  -2
  -9  21   9 0.73333 5.40970   1
 -15  21   9 60.5167 5.67151  -2
  -6  21   9 60.5167 5.67151   1
 -18  21   9 6.50029 4.16336  -2
  -3  21   9 6.50029 4.16336   1
  -5  22   9 137.812 9.92168  -2
 -17  22   9 137.812 9.92168   1
  -8  22   9 143.854 10.8585  -2
 -14  22   9 143.854 10.8585   1
 -11  22   9 73.8462 6.12371  -2
 -11  22   9 73.8462 6.12371   1
 -14  22   9 99.2230 6.48187  -2
  -8  22   9 99.2230 6.48187   1
 -17  22   9 85.1260 5.98009  -2
  -5  22   9 85.1260 5.98009   1
 -10  23   9 183.761 9.54739  -2
 -13  23   9 183.761 9.54739   1
 -13  23   9 163.982 7.72400  -2
 -10  23   9 163.982 7.72400   1
  -1   1  10 7.72947 4.80225   1
  -3   2  10 3.14846 3.75157   1
   0   2  10 33.0004 3.76282   1
  -5   3  10 18.6227 3.36648   1
  -2   3  10 28.0508 4.35150   1
   1   3  10 11.5769 4.71874   1
  -7   4  10 71.4309 11.6382   1
  -4   4  10 349.206 12.9142   1
  -4   4  10 708.865 40.8622  -2
  -1   4  10 708.865 40.8622   1
   2   4  10 94.9573 8.53658   1
  -9   5  10 65.0256 10.7504   1
   1   6  10 484.004 41.9918  -2
  -6   5  10 484.004 41.9918   1
  -3   5  10 540.064 15.5232   1
  -6   5  10 521.212 33.1917  -2
   0   5  10 521.212 33.1917   1
  -8   6  10 152.009 21.0911  -2
   3   5  10 152.009 21.0911   1
 -11   6  10 97.9085 7.11287   1
   2   7  10 114.471 34.6210  -2
  -8   6  10 114.471 34.6210   1
  -1   7  10 166.742 35.4322  -2
  -5   6  10 166.742 35.4322   1
   0   5  10 266.867 25.4924  -2
  -5   6  10 266.867 25.4924   1
  -3   5  10 397.865 30.0610  -2
  -2   6  10 397.865 30.0610   1
  -5   6  10 46.0929 19.6536  -2
  -2   6  10 46.0929 19.6536   1
  -8   6  10 82.5785 20.9584  -2
   1   6  10 82.5785 20.9584   1
   4   6  10 7.06060 4.91771   1
 -13   7  10 112.881 19.9181  -2
 -13   7  10 112.881 19.9181   1
   3   8  10 106.019 37.0429  -2
 -10   7  10 106.019 37.0429   1
  -7   7  10 121.970 7.86797   1
  -4   7  10 442.364 29.7112  -2
  -4   7  10 442.364 29.7112   1
  -7   7  10 172.709 21.5721  -2
  -1   7  10 172.709 21.5721   1
   2   7  10 -0.4684 3.36833   1
   5   7  10 117.374 10.4044   1
 -15   8  10 20.5462 18.4541  -2
 -15   8  10 20.5462 18.4541   1
   4   9  10 124.775 40.5151  -2
 -12   8  10 124.775 40.5151   1
  -9   8  10 165.249 8.70303   1
  -6   8  10 298.275 11.8011   1
  -3   8  10 189.203 17.5287   1
   0   8  10 12.7298 3.66308   1
   3   8  10 95.7296 8.70942   1
 -14   9  10 561.050 37.3758  -2
   6   8  10 561.050 37.3758   1
 -14   9  10 10.1397 5.27038   1
 -11   9  10 15.9221 6.63288   1
  -8   9  10 -2.1807 3.74435   1
  -5   9  10 1.12784 18.0406  -2
  -5   9  10 1.12784 18.0406   1
  -2   9  10 -3.0947 4.08834   1
   1   9  10 64.6116 5.63664   1
 -13  10  10 168.507 23.3426  -2
   4   9  10 168.507 23.3426   1
 -16  10  10 247.190 24.6298  -2
   7   9  10 247.190 24.6298   1
 -16  10  10 4.40184 5.07871   1
 -13  10  10 2.75820 5.99254   1
 -10  10  10 133.066 13.1675   1
  -7  10  10 268.721 11.1462   1
  -7  10  10 342.368 26.3743  -2
  -4  10  10 342.368 26.3743   1
  -1  10  10 24.1473 5.44432   1
 -12  11  10 32.8784 21.2866  -2
   2  10  10 32.8784 21.2866   1
 -16  10  10 30.4762 35.0990  -2
   5  10  10 30.4762 35.0990   1
 -15  11  10 20.4821 20.1158  -2
   5  10  10 20.4821 20.1158   1
 -15  11  10 -4.9377 6.16756   1
 -12  11  10 46.2368 5.67565   1
  -9  11  10 165.701 11.3787   1
  -6  11  10 148.277 17.3952   1
  -3  11  10 48.8618 5.57575   1
   0  11  10 95.2533 8.09949   1
 -15  11  10 439.681 41.0946  -2
   3  11  10 439.681 41.0946   1
 -14  12  10 443.000 33.8229  -2
   3  11  10 443.000 33.8229   1
 -14  12  10 6.35189 6.42998   1
 -11  12  10 1.92312 4.19791   1
  -8  12  10 8.96347 5.38414   1
  -5  12  10 -6.6283 6.07135   1
  -2  12  10 11.8981 4.56181   1
 -13  13  10 330.069 30.7266  -2
   1  12  10 330.069 30.7266   1
   1  12  10 230.641 23.6220  -2
 -13  13  10 230.641 23.6220   1
 -10  13  10 157.780 11.5496   1
  -4  13  10 47.0966 5.83339   1
  -1  13  10 0.88406 4.78088   1
   2  13  10 13.3362 3.70633   1
  -1  13  10 14.9609 18.6691  -2
 -12  14  10 14.9609 18.6691   1
  -9  14  10 57.7449 20.4060   1
  -6  14  10 80.7938 8.33583   1
 -12  14  10 15.1437 16.5507  -2
  -3  14  10 15.1437 16.5507   1
   0  14  10 275.048 9.59211   1
 -11  15  10 4.05155 6.04416   1
  -8  15  10 -2.5200 10.8825   1
 -11  15  10 24.5369 17.8348  -2
  -5  15  10 24.5369 17.8348   1
  -2  15  10 2.80458 3.62810   1
 -10  16  10 -1.8105 11.4101   1
  -7  16  10 10.5062 6.02224   1
   0   0   0    0.00    0.00   0
;
_shelx_hkl_checksum              36802
_olex2_submission_special_instructions 'No special instructions were received'
loop_
_space_group_symop_operation_xyz
'x, y, z'
'-y, x-y, z'
'-x+y, -x, z'
'x+2/3, y+1/3, z+1/3'
'-y+2/3, x-y+1/3, z+1/3'
'-x+y+2/3, -x+1/3, z+1/3'
'x+1/3, y+2/3, z+2/3'
'-y+1/3, x-y+2/3, z+2/3'
'-x+y+1/3, -x+2/3, z+2/3'
'-x, -y, -z'
'y, -x+y, -z'
'x-y, x, -z'
'-x+2/3, -y+1/3, -z+1/3'
'y+2/3, -x+y+1/3, -z+1/3'
'x-y+2/3, x+1/3, -z+1/3'
'-x+1/3, -y+2/3, -z+2/3'
'y+1/3, -x+y+2/3, -z+2/3'
'x-y+1/3, x+2/3, -z+2/3'
loop_
_atom_site_label
_atom_site_type_symbol
_atom_site_fract_x
_atom_site_fract_y
_atom_site_fract_z
_atom_site_U_iso_or_equiv
_atom_site_adp_type
_atom_site_occupancy
_atom_site_site_symmetry_order
_atom_site_calc_flag
_atom_site_refinement_flags_posn
_atom_site_refinement_flags_adp
_atom_site_refinement_flags_occupancy
Co1 Co 0.64881(2) 0.61648(2) 0.64127(4) 0.01294(9) Uani 1 1 d . . .
O1 O 0.72693(7) 0.64677(8) 0.5023(2) 0.0159(3) Uani 1 1 d . . .
O2 O 0.70353(8) 0.67333(8) 0.8586(2) 0.0150(3) Uani 1 1 d . . .
O3 O 0.76931(8) 0.69591(8) 1.0960(2) 0.0164(3) Uani 1 1 d . . .
C4 C 0.75269(10) 0.68050(10) 0.9238(3) 0.0135(3) Uani 1 1 d . . .
C2 C 0.79210(11) 0.67196(11) 0.7872(3) 0.0160(4) Uani 1 1 d . . .
C3 C 0.84652(11) 0.68084(11) 0.8594(3) 0.0165(4) Uani 1 1 d . . .
H3 H 0.855305 0.690606 0.992793 0.020 Uiso 1 1 calc R . .
C1 C 0.77819(11) 0.65723(11) 0.5876(3) 0.0155(4) Uani 1 1 d . . .
C7 C 0.6495(4) 0.5132(4) 0.7679(18) 0.100(4) Uani 0.741(10) 1 d D U P
H7 H 0.610012 0.504603 0.738667 0.120 Uiso 0.741(10) 1 calc R . P
C8 C 0.6713(4) 0.5251(4) 0.9697(19) 0.101(3) Uani 0.741(10) 1 d D U P
H8A H 0.713012 0.534282 0.973262 0.152 Uiso 0.741(10) 1 calc GR . P
H8B H 0.646687 0.489709 1.049477 0.152 Uiso 0.741(10) 1 calc GR . P
H8C H 0.668729 0.559201 1.020376 0.152 Uiso 0.741(10) 1 calc GR . P
C6 C 0.6832(5) 0.5145(4) 0.6354(18) 0.100(3) Uani 0.741(10) 1 d D U P
H6 H 0.724128 0.529398 0.665839 0.121 Uiso 0.741(10) 1 calc R . P
C5 C 0.6642(6) 0.4950(5) 0.4420(19) 0.127(5) Uani 0.741(10) 1 d D U P
H5A H 0.678468 0.529861 0.356626 0.190 Uiso 0.741(10) 1 calc GR . P
H5B H 0.620419 0.471703 0.437615 0.190 Uiso 0.741(10) 1 calc GR . P
H5C H 0.680663 0.470007 0.398473 0.190 Uiso 0.741(10) 1 calc GR . P
loop_
_atom_site_aniso_label
_atom_site_aniso_U_11
_atom_site_aniso_U_22
_atom_site_aniso_U_33
_atom_site_aniso_U_23
_atom_site_aniso_U_13
_atom_site_aniso_U_12
Co1 0.01454(14) 0.01558(14) 0.00679(12) -0.00042(9) -0.00055(9) 0.00609(10)
O1 0.0165(7) 0.0231(8) 0.0097(6) 0.0006(5) -0.0009(5) 0.0112(6)
O2 0.0159(7) 0.0223(8) 0.0084(6) -0.0017(5) -0.0006(5) 0.0107(6)
O3 0.0175(7) 0.0253(8) 0.0083(6) -0.0019(6) -0.0001(5) 0.0121(7)
C4 0.0155(9) 0.0163(9) 0.0098(8) -0.0008(7) 0.0002(6) 0.0088(7)
C2 0.0198(9) 0.0215(10) 0.0101(8) -0.0003(7) 0.0007(7) 0.0130(8)
C3 0.0193(10) 0.0232(10) 0.0092(8) -0.0016(7) 0.0002(7) 0.0123(8)
C1 0.0185(9) 0.0203(10) 0.0098(8) -0.0004(7) -0.0009(7) 0.0111(8)
C7 0.073(5) 0.093(6) 0.160(8) 0.076(6) 0.064(5) 0.060(5)
C8 0.071(5) 0.048(4) 0.195(8) 0.036(6) 0.057(6) 0.038(4)
C6 0.082(7) 0.059(5) 0.159(8) 0.025(5) 0.018(6) 0.034(5)
C5 0.139(10) 0.077(6) 0.200(10) -0.064(7) -0.039(9) 0.081(7)
loop_
_atom_type_symbol
_atom_type_description
_atom_type_scat_dispersion_real
_atom_type_scat_dispersion_imag
_atom_type_scat_source
C C 0.0040 0.0020
'ANOMDisVal Program in PLATON Spek, A. L. J. Appl. Crystallogr. 2003, 36, 7-13'
H H 0.0000 0.0000
'ANOMDisVal Program in PLATON Spek, A. L. J. Appl. Crystallogr. 2003, 36, 7-13'
Co Co 0.3550 1.1300
'ANOMDisVal Program in PLATON Spek, A. L. J. Appl. Crystallogr. 2003, 36, 7-13'
O O 0.0140 0.0070
'ANOMDisVal Program in PLATON Spek, A. L. J. Appl. Crystallogr. 2003, 36, 7-13'
loop_
_geom_angle_atom_site_label_1
_geom_angle_atom_site_label_2
_geom_angle_atom_site_label_3
_geom_angle
_geom_angle_site_symmetry_1
_geom_angle_site_symmetry_3
O1 Co1 O1 162.51(8) . 6_565
O1 Co1 O2 82.70(6) . .
O1 Co1 O2 80.10(7) 6_565 .
O1 Co1 O2 79.54(7) . 8_654
O1 Co1 O2 95.02(7) 6_565 8_654
O1 Co1 O3 98.88(7) . 6_564
O1 Co1 O3 98.14(7) 6_565 6_564
O2 Co1 O2 82.41(2) . 8_654
O3 Co1 O2 95.03(7) 6_564 8_654
O3 Co1 O2 176.73(7) 6_564 .
Co1 O1 Co1 97.93(7) . 8_654
C1 O1 Co1 126.94(15) . 8_654
C1 O1 Co1 124.48(13) . .
Co1 O2 Co1 92.68(7) . 6_565
C4 O2 Co1 129.42(14) . .
C4 O2 Co1 134.48(14) . 6_565
C4 O3 Co1 124.45(15) . 8_655
O2 C4 C2 117.66(19) . .
O3 C4 O2 122.6(2) . .
O3 C4 C2 119.7(2) . .
C3 C2 C4 117.26(19) . .
C3 C2 C1 119.1(2) . .
C1 C2 C4 123.6(2) . .
C2 C3 H3 118.4 . .
C1 C3 C2 123.2(2) 13_666 .
C1 C3 H3 118.4 13_666 .
O1 C1 C2 124.5(2) . .
O1 C1 C3 117.85(19) . 13_666
C3 C1 C2 117.6(2) 13_666 .
C8 C7 H7 120.1 . .
C6 C7 H7 120.1 . .
C6 C7 C8 119.7(10) . .
C7 C8 H8A 109.5 . .
C7 C8 H8B 109.5 . .
C7 C8 H8C 109.5 . .
H8A C8 H8B 109.5 . .
H8A C8 H8C 109.5 . .
H8B C8 H8C 109.5 . .
C7 C6 H6 117.9 . .
C7 C6 C5 124.3(12) . .
C5 C6 H6 117.9 . .
C6 C5 H5A 109.5 . .
C6 C5 H5B 109.5 . .
C6 C5 H5C 109.5 . .
H5A C5 H5B 109.5 . .
H5A C5 H5C 109.5 . .
H5B C5 H5C 109.5 . .
loop_
_geom_bond_atom_site_label_1
_geom_bond_atom_site_label_2
_geom_bond_distance
_geom_bond_site_symmetry_2
Co1 O1 2.0045(16) .
Co1 O1 2.0077(16) 6_565
Co1 O2 2.0784(16) .
Co1 O2 2.1046(16) 8_654
Co1 O3 2.0203(16) 6_564
O1 C1 1.346(3) .
O2 C4 1.269(3) .
O3 C4 1.257(2) .
C4 C2 1.481(3) .
C2 C3 1.397(3) .
C2 C1 1.425(3) .
C3 H3 0.9500 .
C3 C1 1.391(3) 13_666
C7 H7 0.9500 .
C7 C8 1.474(14) .
C7 C6 1.250(14) .
C8 H8A 0.9800 .
C8 H8B 0.9800 .
C8 H8C 0.9800 .
C6 H6 0.9500 .
C6 C5 1.422(13) .
C5 H5A 0.9800 .
C5 H5B 0.9800 .
C5 H5C 0.9800 .
loop_
_geom_torsion_atom_site_label_1
_geom_torsion_atom_site_label_2
_geom_torsion_atom_site_label_3
_geom_torsion_atom_site_label_4
_geom_torsion
_geom_torsion_site_symmetry_1
_geom_torsion_site_symmetry_4
Co1 O1 C1 C2 -26.6(3) . .
Co1 O1 C1 C2 110.0(2) 8_654 .
Co1 O1 C1 C3 -71.0(3) 8_654 13_666
Co1 O1 C1 C3 152.43(18) . 13_666
Co1 O2 C4 O3 2.8(4) 6_565 .
Co1 O2 C4 O3 -150.39(17) . .
Co1 O2 C4 C2 31.6(3) . .
Co1 O2 C4 C2 -175.28(16) 6_565 .
Co1 O3 C4 O2 10.3(3) 8_655 .
Co1 O3 C4 C2 -171.71(16) 8_655 .
O2 C4 C2 C3 179.0(2) . .
O2 C4 C2 C1 1.1(3) . .
O3 C4 C2 C3 0.9(3) . .
O3 C4 C2 C1 -177.0(2) . .
C4 C2 C3 C1 -178.0(2) . 13_666
C4 C2 C1 O1 -3.2(4) . .
C4 C2 C1 C3 177.9(2) . 13_666
C3 C2 C1 O1 178.9(2) . .
C3 C2 C1 C3 0.0(4) . 13_666
C1 C2 C3 C1 0.0(4) . 13_666
C8 C7 C6 C5 170.1(9) . .
loop_
_twin_individual_id
_twin_individual_mass_fraction_refined
1 0.5771(16)
2 0.4229(16)
