#------------------------------------------------------------------------------
#$Date: 2019-11-26 13:37:28 +0200 (Tue, 26 Nov 2019) $
#$Revision: 243433 $
#$URL: file:///home/coder/svn-repositories/cod/cif/4/13/37/4133725.cif $
#------------------------------------------------------------------------------
#
# This file is available in the Crystallography Open Database (COD),
# http://www.crystallography.net/
#
# All data on this site have been placed in the public domain by the
# contributors.
#
data_4133725
loop_
_publ_author_name
'Barnett, Brandon R.'
'Parker, Surya T.'
'Paley, Maria V.'
'Gonzalez, Miguel I.'
'Biggins, Naomi'
'Oktawiec, Julia'
'Long, Jeffrey R.'
_publ_section_title
;
 Thermodynamic Separation of 1-Butene from 2-Butene in Metal-Organic
 Frameworks with Open Metal Sites.
;
_journal_issue                   45
_journal_name_full               'Journal of the American Chemical Society'
_journal_page_first              18325
_journal_page_last               18333
_journal_paper_doi               10.1021/jacs.9b09942
_journal_volume                  141
_journal_year                    2019
_chemical_formula_moiety         '0.11(C72 H18 Co18 O54), 1.6(C4 H8)'
_chemical_formula_sum            'C14.31 H14.61 Co2 O6'
_chemical_formula_weight         400.41
_chemical_name_common            Co2(dobdc)(cis-2-butene)1.6
_space_group_crystal_system      trigonal
_space_group_IT_number           148
_space_group_name_Hall           '-R 3'
_space_group_name_H-M_alt        'R -3 :H'
_atom_sites_solution_hydrogens   geom
_atom_sites_solution_primary     dual
_atom_sites_solution_secondary   difmap
_audit_creation_date             2019-08-04
_audit_creation_method
;
Olex2 1.2
(compiled May 18 2018 14:05:52 for OlexSys, GUI svn.r5506)
;
_cell_angle_alpha                90
_cell_angle_beta                 90
_cell_angle_gamma                120
_cell_formula_units_Z            9
_cell_length_a                   25.892(4)
_cell_length_b                   25.892(4)
_cell_length_c                   6.8480(14)
_cell_measurement_reflns_used    9858
_cell_measurement_temperature    100(2)
_cell_measurement_theta_max      33.13
_cell_measurement_theta_min      3.20
_cell_volume                     3975.8(12)
_computing_cell_refinement       'SAINT V8.38A (Bruker-AXS, Madison WI, 2016)'
_computing_data_collection       'BRUKER APEX3'
_computing_data_reduction        'SAINT V8.38A (Bruker-AXS, Madison WI, 2016)'
_computing_molecular_graphics    'Olex2 (Dolomanov et al., 2009)'
_computing_publication_material  'Olex2 (Dolomanov et al., 2009)'
_computing_structure_refinement  'ShelXL (Sheldrick, 2015)'
_computing_structure_solution    'SHELXT (Sheldrick, 2015)'
_diffrn_ambient_temperature      100
_diffrn_detector_area_resol_mean 7.39
_diffrn_measured_fraction_theta_full 0.998
_diffrn_measured_fraction_theta_max 0.997
_diffrn_measurement_device_type  'Bruker D8 with PHOTON II detector'
_diffrn_measurement_method       '\f and \w shutterless scans'
_diffrn_radiation_monochromator  'silicon 111'
_diffrn_radiation_type           synchrotron
_diffrn_radiation_wavelength     0.7288
_diffrn_reflns_av_R_equivalents  0.0923
_diffrn_reflns_av_unetI/netI     0.0422
_diffrn_reflns_Laue_measured_fraction_full 0.998
_diffrn_reflns_Laue_measured_fraction_max 0.997
_diffrn_reflns_limit_h_max       19
_diffrn_reflns_limit_h_min       -39
_diffrn_reflns_limit_k_max       39
_diffrn_reflns_limit_k_min       0
_diffrn_reflns_limit_l_max       10
_diffrn_reflns_limit_l_min       0
_diffrn_reflns_number            67234
_diffrn_reflns_point_group_measured_fraction_full 0.998
_diffrn_reflns_point_group_measured_fraction_max 0.997
_diffrn_reflns_theta_full        25.930
_diffrn_reflns_theta_max         34.097
_diffrn_reflns_theta_min         3.190
_diffrn_source
;
Advanced Light Source, station 12.2.1
;
_diffrn_standards_number         0
_exptl_absorpt_coefficient_mu    2.023
_exptl_absorpt_correction_T_max  0.920
_exptl_absorpt_correction_T_min  0.796
_exptl_absorpt_correction_type   multi-scan
_exptl_absorpt_process_details
;
 TWINABS-2012/1 (Bruker,2012) was used for absorption correction.

Final HKLF 4 output contains 67234 reflections, Rint = 0.0923
 (34576 with I > 3sig(I), Rint = 0.0739)
;
_exptl_crystal_colour            violet
_exptl_crystal_density_diffrn    1.505
_exptl_crystal_density_method    'not measured'
_exptl_crystal_description       needle
_exptl_crystal_F_000             1822
_exptl_crystal_size_max          0.112
_exptl_crystal_size_mid          0.07
_exptl_crystal_size_min          0.042
_refine_diff_density_max         0.835
_refine_diff_density_min         -0.801
_refine_diff_density_rms         0.128
_refine_ls_extinction_method     none
_refine_ls_goodness_of_fit_ref   1.051
_refine_ls_hydrogen_treatment    constr
_refine_ls_matrix_type           full
_refine_ls_number_parameters     113
_refine_ls_number_reflns         3355
_refine_ls_number_restraints     0
_refine_ls_restrained_S_all      1.051
_refine_ls_R_factor_all          0.0671
_refine_ls_R_factor_gt           0.0504
_refine_ls_shift/su_max          0.001
_refine_ls_shift/su_mean         0.000
_refine_ls_structure_factor_coef Fsqd
_refine_ls_weighting_details
'w=1/[\s^2^(Fo^2^)+(0.0447P)^2^+14.6271P] where P=(Fo^2^+2Fc^2^)/3'
_refine_ls_weighting_scheme      calc
_refine_ls_wR_factor_gt          0.1096
_refine_ls_wR_factor_ref         0.1181
_reflns_Friedel_coverage         0.000
_reflns_number_gt                2739
_reflns_number_total             3355
_reflns_threshold_expression     'I > 2\s(I)'
_cod_data_source_file            ja9b09942_si_001.cif
_cod_data_source_block           Co2dobdc_cis-2-butene_1.60
_cod_original_cell_volume        3976.0(14)
_cod_original_sg_symbol_H-M      'R -3'
_cod_database_code               4133725
_shelx_shelxl_version_number     2016/6
_shelx_space_group_comment
;
The symmetry employed for this shelxl refinement is uniquely defined
by the following loop, which should always be used as a source of
symmetry information in preference to the above space-group names.
They are only intended as comments.
;
_shelx_estimated_absorpt_t_max   0.920
_shelx_estimated_absorpt_t_min   0.805
_olex2_refinement_description
;
1. Twinned data refinement
 Scales: 0.5407(16)
 0.4593(16)
2. Fixed Uiso
 At 1.2 times of:
  All C(H) groups
 At 1.5 times of:
  All C(H,H,H) groups
3. Others
 Sof(C6)=Sof(H6)=Sof(C7)=Sof(H7)=Sof(C5)=Sof(H5A)=Sof(H5B)=Sof(H5C)=Sof(C8)=
 Sof(H8A)=Sof(H8B)=Sof(H8C)=FVAR(1)
4.a Aromatic/amide H refined with riding coordinates:
 C2(H2), C6(H6), C7(H7)
4.b Idealised Me refined as rotating group:
 C5(H5A,H5B,H5C), C8(H8A,H8B,H8C)
;
_shelx_res_file
;
TITL twin4_a.res in R-3
    twin4.res
    created by SHELXL-2016/6 at 11:44:55 on 04-Aug-2019
REM Old TITL twin4 in R-3
REM SHELXT solution in R-3
REM R1 0.171, Rweak 0.048, Alpha 0.061, Orientation as input
REM Formula found by SHELXT: C8 O3 Co
CELL 0.7288 25.8925 25.8925 6.848 90 90 120
ZERR 9 0.0037 0.0037 0.0014 0 0 0
LATT 3
SYMM -Y,+X-Y,+Z
SYMM +Y-X,-X,+Z
SFAC C H Co O
DISP C 0.0034 0.0017 11.9
DISP Co 0.3514 1.0223 4276.1
DISP H 0 0 0.7
DISP O 0.0115 0.0064 34.2
UNIT 128.76 131.52 18 54

L.S. 4
PLAN  20
SIZE 0.112 0.07 0.042
TEMP -173.15
MORE -1
BOND $H
list 4
fmap 2
acta
OMIT -3 6 0
OMIT -1 2 0
REM <olex2.extras>
REM <HklSrc "%./twin5.hkl">
REM </olex2.extras>

WGHT    0.044700   14.627101
BASF   0.45926
FVAR       0.28032   0.80142
CO1   3    0.949654    0.633701    0.524519    11.00000    0.02294    0.02677 =
         0.00800    0.00041    0.00053    0.01360
O2    4    0.703595    0.673568    0.358504    11.00000    0.02435    0.02952 =
         0.00993   -0.00189   -0.00025    0.01469
O1    4    0.939529    0.687103    0.333012    11.00000    0.02435    0.02908 =
         0.00984   -0.00064   -0.00155    0.01515
O3    4    0.770000    0.697930    0.595086    11.00000    0.02897    0.03644 =
         0.00858   -0.00195   -0.00132    0.02011
C4    1    0.752890    0.681466    0.422900    11.00000    0.02401    0.02616 =
         0.01072   -0.00030    0.00004    0.01401
C1    1    0.888256    0.676619    0.247426    11.00000    0.02609    0.02597 =
         0.01017   -0.00034   -0.00151    0.01608
C3    1    0.792281    0.672085    0.286894    11.00000    0.02606    0.02765 =
         0.01027   -0.00070   -0.00067    0.01539
C2    1    0.846378    0.681503    0.360228    11.00000    0.03006    0.02875 =
         0.00792   -0.00001    0.00035    0.01773
AFIX  43
H2    2    0.855109    0.691787    0.494120    11.00000   -1.20000
AFIX   0
PART 1
C6    1    0.855072    0.533082    0.316860    21.00000    0.04046    0.03176 =
         0.08070    0.00418   -0.01802    0.01482
AFIX  43
H6    2    0.856617    0.568725    0.274003    21.00000   -1.20000
AFIX   0
C7    1    0.842210    0.519777    0.498905    21.00000    0.03764    0.10887 =
         0.10226   -0.07865   -0.03023    0.04057
AFIX  43
H7    2    0.833965    0.545579    0.574494    21.00000   -1.20000
AFIX   0
C5    1    0.867498    0.500308    0.169106    21.00000    0.04217    0.09276 =
         0.05061   -0.01732   -0.00111    0.00485
AFIX 137
H5A   2    0.899016    0.528527    0.081877    21.00000   -1.50000
H5B   2    0.831269    0.475448    0.093234    21.00000   -1.50000
H5C   2    0.880570    0.474893    0.232768    21.00000   -1.50000
AFIX   0
C8    1    0.839126    0.466274    0.602825    21.00000    0.05412    0.17230 =
         0.04298    0.04253    0.00067    0.02008
AFIX 137
H8A   2    0.853968    0.446559    0.515701    21.00000   -1.50000
H8B   2    0.797691    0.438120    0.638611    21.00000   -1.50000
H8C   2    0.863736    0.479729    0.721008    21.00000   -1.50000
AFIX   0
HKLF 5




REM  twin4_a.res in R-3
REM R1 =  0.0504 for    2739 Fo > 4sig(Fo)  and  0.0671 for all    3355 data
REM    113 parameters refined using      0 restraints

END

WGHT      0.0447     14.6276

REM Highest difference peak  0.835,  deepest hole -0.801,  1-sigma level  0.128
Q1    1   0.8776  0.5567  0.3938  11.00000  0.05    0.84
Q2    1   0.6982  0.3444  0.3475  11.00000  0.05    0.79
Q3    1   0.8278  0.5020  0.6370  11.00000  0.05    0.65
Q4    1   0.6667  0.3333  0.7432  10.33333  0.05    0.61
Q5    1   0.6667  0.3333  0.8333  10.16667  0.05    0.60
Q6    1   0.8414  0.5424  0.4651  11.00000  0.05    0.60
Q7    1   0.7744  0.6763  0.3494  11.00000  0.05    0.56
Q8    1   0.8497  0.5277  0.7416  11.00000  0.05    0.56
Q9    1   0.6923  0.3466  0.8321  11.00000  0.05    0.55
Q10   1   0.9782  0.6632  0.5158  11.00000  0.05    0.51
Q11   1   0.7112  0.3368  0.7443  11.00000  0.05    0.50
Q12   1   0.8424  0.5147  0.3935  11.00000  0.05    0.49
Q13   1   0.9191  0.6327  0.5088  11.00000  0.05    0.49
Q14   1   0.6848  0.3687  0.4346  11.00000  0.05    0.49
Q15   1   0.6667  0.3333  0.4071  10.33333  0.05    0.48
Q16   1   0.7381  0.6292  0.5014  11.00000  0.05    0.47
Q17   1   0.6667  0.3333  0.5355  10.33333  0.05    0.46
Q18   1   0.7938  0.6814  0.1934  11.00000  0.05    0.46
Q19   1   0.8810  0.5288  0.7555  11.00000  0.05    0.46
Q20   1   0.8207  0.5281  0.6399  11.00000  0.05    0.45
;
_shelx_res_checksum              67182
_shelx_hkl_file
;
  -1   2   0 0.32458 0.35837  -2
  -1   2   0 0.32458 0.35837   1
  -2   4   0 903.019 7.96337  -2
  -2   4   0 903.019 7.96337   1
  -1   5   0 1737.09 14.4246  -2
  -4   5   0 1737.09 14.4246   1
  -4   5   0 1450.67 13.2409  -2
  -1   5   0 1450.67 13.2409   1
  -3   6   0 92.0793 2.13897  -2
  -3   6   0 92.0793 2.13897   1
   0   6   0 9999.99 170.413  -2
   0   6   0 9999.99 170.413   1
  -2   7   0 3350.70 30.2030  -2
  -5   7   0 3350.70 30.2030   1
  -5   7   0 2481.88 21.7372  -2
  -2   7   0 2481.88 21.7372   1
  -1   8   0 2550.74 25.0057  -2
  -7   8   0 2550.74 25.0057   1
  -4   8   0 410.520 5.65418  -2
  -4   8   0 410.520 5.65418   1
  -7   8   0 1906.09 19.3551  -2
  -1   8   0 1906.09 19.3551   1
  -3   9   0 863.385 9.70341  -2
  -6   9   0 863.385 9.70341   1
  -6   9   0 945.808 10.7672  -2
  -3   9   0 945.808 10.7672   1
   0   9   0 74.2689 2.72233  -2
   0   9   0 74.2689 2.72233   1
  -2  10   0 1452.19 15.1792  -2
  -8  10   0 1452.19 15.1792   1
  -5  10   0 746.080 9.27195  -2
  -5  10   0 746.080 9.27195   1
  -8  10   0 1256.04 13.8031  -2
  -2  10   0 1256.04 13.8031   1
  -1  11   0 2138.17 22.9796  -2
 -10  11   0 2138.17 22.9796   1
  -4  11   0 1478.73 15.9669  -2
  -7  11   0 1478.73 15.9669   1
  -7  11   0 1828.27 19.4128  -2
  -4  11   0 1828.27 19.4128   1
 -10  11   0 2661.64 26.6726  -2
  -1  11   0 2661.64 26.6726   1
  -3  12   0 1326.58 16.1571  -2
  -9  12   0 1326.58 16.1571   1
  -6  12   0 428.155 7.46546  -2
  -6  12   0 428.155 7.46546   1
  -9  12   0 1161.59 14.1316  -2
  -3  12   0 1161.59 14.1316   1
   0  12   0 696.669 10.2631  -2
   0  12   0 696.669 10.2631   1
  -2  13   0 2350.55 24.7934  -2
 -11  13   0 2350.55 24.7934   1
  -5  13   0 703.868 10.6898  -2
  -8  13   0 703.868 10.6898   1
  -8  13   0 903.558 11.6488  -2
  -5  13   0 903.558 11.6488   1
 -11  13   0 2181.39 22.8717  -2
  -2  13   0 2181.39 22.8717   1
  -1  14   0 3401.60 33.4057  -2
 -13  14   0 3401.60 33.4057   1
  -4  14   0 2091.00 26.1489  -2
 -10  14   0 2091.00 26.1489   1
  -7  14   0 1146.80 14.6900  -2
  -7  14   0 1146.80 14.6900   1
 -10  14   0 2781.71 30.9478  -2
  -4  14   0 2781.71 30.9478   1
 -13  14   0 3744.75 36.1416  -2
  -1  14   0 3744.75 36.1416   1
  -3  15   0 1413.70 17.4770  -2
 -12  15   0 1413.70 17.4770   1
  -6  15   0 566.185 8.57190  -2
  -9  15   0 566.185 8.57190   1
  -9  15   0 555.229 8.22248  -2
  -6  15   0 555.229 8.22248   1
 -12  15   0 1613.90 18.7431  -2
  -3  15   0 1613.90 18.7431   1
   0  15   0 458.367 8.94196  -2
   0  15   0 458.367 8.94196   1
  -2  16   0 1395.29 18.1466  -2
 -14  16   0 1395.29 18.1466   1
  -5  16   0 621.101 10.7434  -2
 -11  16   0 621.101 10.7434   1
  -8  16   0 162.996 4.51258  -2
  -8  16   0 162.996 4.51258   1
 -11  16   0 628.952 10.6578  -2
  -5  16   0 628.952 10.6578   1
 -14  16   0 1320.02 16.8696  -2
  -2  16   0 1320.02 16.8696   1
  -1  17   0 2478.26 27.8786  -2
 -16  17   0 2478.26 27.8786   1
  -4  17   0 2641.37 31.0744  -2
 -13  17   0 2641.37 31.0744   1
  -7  17   0 866.805 12.8289  -2
 -10  17   0 866.805 12.8289   1
 -10  17   0 1036.51 16.1558  -2
  -7  17   0 1036.51 16.1558   1
 -13  17   0 3209.14 33.5079  -2
  -4  17   0 3209.14 33.5079   1
 -16  17   0 2755.92 29.5697  -2
  -1  17   0 2755.92 29.5697   1
  -3  18   0 623.565 11.1074  -2
 -15  18   0 623.565 11.1074   1
  -6  18   0 567.118 10.0595  -2
 -12  18   0 567.118 10.0595   1
  -9  18   0 105.437 4.27989  -2
  -9  18   0 105.437 4.27989   1
 -12  18   0 680.553 11.9765  -2
  -6  18   0 680.553 11.9765   1
 -15  18   0 772.245 12.2089  -2
  -3  18   0 772.245 12.2089   1
   0  18   0 70.1868 4.15836  -2
   0  18   0 70.1868 4.15836   1
  -2  19   0 199.554 6.49321  -2
 -17  19   0 199.554 6.49321   1
  -5  19   0 321.361 7.92881  -2
 -14  19   0 321.361 7.92881   1
  -8  19   0 33.8459 3.15317  -2
 -11  19   0 33.8459 3.15317   1
 -11  19   0 37.1566 3.75336  -2
  -8  19   0 37.1566 3.75336   1
 -14  19   0 389.404 7.32121  -2
  -5  19   0 389.404 7.32121   1
 -17  19   0 201.259 6.21609  -2
  -2  19   0 201.259 6.21609   1
  -1  20   0 208.479 6.65119  -2
 -19  20   0 208.479 6.65119   1
  -4  20   0 833.939 13.4969  -2
 -16  20   0 833.939 13.4969   1
  -7  20   0 663.255 11.3680  -2
 -13  20   0 663.255 11.3680   1
 -10  20   0 4.74331 2.52615  -2
 -10  20   0 4.74331 2.52615   1
 -13  20   0 726.740 14.3722  -2
  -7  20   0 726.740 14.3722   1
 -16  20   0 909.463 14.4812  -2
  -4  20   0 909.463 14.4812   1
 -19  20   0 221.324 6.77590  -2
  -1  20   0 221.324 6.77590   1
  -3  21   0 546.834 11.5782  -2
 -18  21   0 546.834 11.5782   1
  -6  21   0 671.397 11.9741  -2
 -15  21   0 671.397 11.9741   1
  -9  21   0 273.285 8.36921  -2
 -12  21   0 273.285 8.36921   1
 -12  21   0 271.618 8.49444  -2
  -9  21   0 271.618 8.49444   1
 -15  21   0 638.396 13.3387  -2
  -6  21   0 638.396 13.3387   1
 -18  21   0 591.480 11.1512  -2
  -3  21   0 591.480 11.1512   1
   0  21   0 229.552 7.48683  -2
   0  21   0 229.552 7.48683   1
  -2  22   0 472.218 10.5392  -2
 -20  22   0 472.218 10.5392   1
  -5  22   0 108.638 5.44957  -2
 -17  22   0 108.638 5.44957   1
  -8  22   0 111.490 5.89286  -2
 -14  22   0 111.490 5.89286   1
 -11  22   0 273.585 8.61143  -2
 -11  22   0 273.585 8.61143   1
 -14  22   0 127.320 6.59243  -2
  -8  22   0 127.320 6.59243   1
 -17  22   0 122.734 6.33381  -2
  -5  22   0 122.734 6.33381   1
 -20  22   0 551.539 11.2931  -2
  -2  22   0 551.539 11.2931   1
  -1  23   0 391.489 10.2648  -2
 -22  23   0 391.489 10.2648   1
  -4  23   0 364.002 9.72000  -2
 -19  23   0 364.002 9.72000   1
  -7  23   0 601.096 11.6889  -2
 -16  23   0 601.096 11.6889   1
 -10  23   0 665.040 14.6049  -2
 -13  23   0 665.040 14.6049   1
 -13  23   0 642.832 13.8473  -2
 -10  23   0 642.832 13.8473   1
 -16  23   0 559.191 12.8280  -2
  -7  23   0 559.191 12.8280   1
 -19  23   0 380.851 9.99221  -2
  -4  23   0 380.851 9.99221   1
 -22  23   0 378.480 9.76738  -2
  -1  23   0 378.480 9.76738   1
  -3  24   0 51.0464 4.80984  -2
 -21  24   0 51.0464 4.80984   1
  -6  24   0 804.606 14.8617  -2
 -18  24   0 804.606 14.8617   1
  -9  24   0 1055.30 18.5790  -2
 -15  24   0 1055.30 18.5790   1
 -12  24   0 314.030 9.63595  -2
 -12  24   0 314.030 9.63595   1
 -15  24   0 904.578 17.6397  -2
  -9  24   0 904.578 17.6397   1
 -18  24   0 686.996 14.8793  -2
  -6  24   0 686.996 14.8793   1
 -21  24   0 50.1202 4.92117  -2
  -3  24   0 50.1202 4.92117   1
   0  24   0 1.96861 4.84256  -2
   0  24   0 1.96861 4.84256   1
  -2  25   0 397.168 10.9886  -2
 -23  25   0 397.168 10.9886   1
  -5  25   0 238.541 9.34253  -2
 -20  25   0 238.541 9.34253   1
  -8  25   0 207.946 8.86525  -2
 -17  25   0 207.946 8.86525   1
 -11  25   0 114.241 7.34391  -2
 -14  25   0 114.241 7.34391   1
 -14  25   0 99.6699 6.62028  -2
 -11  25   0 99.6699 6.62028   1
 -17  25   0 193.204 8.15519  -2
  -8  25   0 193.204 8.15519   1
 -20  25   0 275.819 9.96370  -2
  -5  25   0 275.819 9.96370   1
 -23  25   0 425.667 12.5246  -2
  -2  25   0 425.667 12.5246   1
  -1  26   0 73.0998 7.43313  -2
 -25  26   0 73.0998 7.43313   1
  -4  26   0 170.775 9.60936  -2
 -22  26   0 170.775 9.60936   1
  -7  26   0 373.682 10.0018  -2
 -19  26   0 373.682 10.0018   1
 -10  26   0 435.345 12.2121  -2
 -16  26   0 435.345 12.2121   1
 -13  26   0 35.0446 4.89644  -2
 -13  26   0 35.0446 4.89644   1
 -16  26   0 421.130 12.1382  -2
 -10  26   0 421.130 12.1382   1
 -19  26   0 358.110 11.4656  -2
  -7  26   0 358.110 11.4656   1
 -22  26   0 173.202 8.91016  -2
  -4  26   0 173.202 8.91016   1
 -25  26   0 68.6105 6.88743  -2
  -1  26   0 68.6105 6.88743   1
  -3  27   0 91.1376 8.76461  -2
 -24  27   0 91.1376 8.76461   1
  -6  27   0 112.353 8.86043  -2
 -21  27   0 112.353 8.86043   1
  -9  27   0 839.849 18.2016  -2
 -18  27   0 839.849 18.2016   1
 -12  27   0 367.972 11.6969  -2
 -15  27   0 367.972 11.6969   1
 -15  27   0 361.739 11.4610  -2
 -12  27   0 361.739 11.4610   1
 -18  27   0 735.885 18.9498  -2
  -9  27   0 735.885 18.9498   1
 -21  27   0 79.0177 6.99863  -2
  -6  27   0 79.0177 6.99863   1
 -24  27   0 86.2228 7.79185  -2
  -3  27   0 86.2228 7.79185   1
   0  27   0 59.5392 8.30904  -2
   0  27   0 59.5392 8.30904   1
  -2  28   0 122.534 10.9502  -2
 -26  28   0 122.534 10.9502   1
  -5  28   0 278.231 12.8808  -2
 -23  28   0 278.231 12.8808   1
  -8  28   0 199.325 10.3847  -2
 -20  28   0 199.325 10.3847   1
 -11  28   0 125.471 8.23090  -2
 -17  28   0 125.471 8.23090   1
 -14  28   0 118.751 8.12725  -2
 -14  28   0 118.751 8.12725   1
 -17  28   0 123.164 8.64822  -2
 -11  28   0 123.164 8.64822   1
 -20  28   0 209.817 9.89538  -2
  -8  28   0 209.817 9.89538   1
 -23  28   0 301.578 12.4615  -2
  -5  28   0 301.578 12.4615   1
 -26  28   0 139.876 10.5545  -2
  -2  28   0 139.876 10.5545   1
  -1  29   0 21.5373 9.18638  -2
 -28  29   0 21.5373 9.18638   1
  -4  29   0 50.0742 8.74736  -2
 -25  29   0 50.0742 8.74736   1
  -7  29   0 127.112 10.6384  -2
 -22  29   0 127.112 10.6384   1
 -10  29   0 252.888 11.4814  -2
 -19  29   0 252.888 11.4814   1
 -13  29   0 21.9448 5.35805  -2
 -16  29   0 21.9448 5.35805   1
 -16  29   0 8.91700 4.95522  -2
 -13  29   0 8.91700 4.95522   1
 -19  29   0 272.105 11.1102  -2
 -10  29   0 272.105 11.1102   1
 -22  29   0 136.881 9.36590  -2
  -7  29   0 136.881 9.36590   1
 -25  29   0 42.8153 7.27120  -2
  -4  29   0 42.8153 7.27120   1
 -28  29   0 20.2917 8.67098  -2
  -1  29   0 20.2917 8.67098   1
  -3  30   0 34.4671 9.21788  -2
 -27  30   0 34.4671 9.21788   1
  -6  30   0 61.9903 8.74336  -2
 -24  30   0 61.9903 8.74336   1
  -9  30   0 141.481 11.1229  -2
 -21  30   0 141.481 11.1229   1
 -12  30   0 152.594 9.80470  -2
 -18  30   0 152.594 9.80470   1
 -15  30   0 34.2541 7.54217  -2
 -15  30   0 34.2541 7.54217   1
 -18  30   0 157.091 9.32192  -2
 -12  30   0 157.091 9.32192   1
 -21  30   0 137.475 9.70793  -2
  -9  30   0 137.475 9.70793   1
 -24  30   0 46.5866 7.65534  -2
  -6  30   0 46.5866 7.65534   1
 -27  30   0 20.3039 9.74583  -2
  -3  30   0 20.3039 9.74583   1
   0  30   0 75.4597 11.6343  -2
   0  30   0 75.4597 11.6343   1
  -2  31   0 70.1212 11.3636  -2
 -29  31   0 70.1212 11.3636   1
  -5  31   0 132.284 14.1103  -2
 -26  31   0 132.284 14.1103   1
  -8  31   0 196.250 13.8420  -2
 -23  31   0 196.250 13.8420   1
 -11  31   0 134.042 10.7041  -2
 -20  31   0 134.042 10.7041   1
 -14  31   0 43.3346 7.84795  -2
 -17  31   0 43.3346 7.84795   1
 -17  31   0 62.4456 7.37153  -2
 -14  31   0 62.4456 7.37153   1
 -20  31   0 136.484 10.3017  -2
 -11  31   0 136.484 10.3017   1
 -23  31   0 212.029 12.1561  -2
  -8  31   0 212.029 12.1561   1
 -26  31   0 155.089 15.3540  -2
  -5  31   0 155.089 15.3540   1
 -29  31   0 56.9607 11.8762  -2
  -2  31   0 56.9607 11.8762   1
  -1  32   0 43.7259 10.3281  -2
 -31  32   0 43.7259 10.3281   1
  -4  32   0 41.1394 11.4327  -2
 -28  32   0 41.1394 11.4327   1
  -7  32   0 75.8067 11.5043  -2
 -25  32   0 75.8067 11.5043   1
 -10  32   0 80.0588 11.3493  -2
 -22  32   0 80.0588 11.3493   1
 -13  32   0 13.9835 6.40099  -2
 -19  32   0 13.9835 6.40099   1
 -16  32   0 36.8794 8.11714  -2
 -16  32   0 36.8794 8.11714   1
 -19  32   0 25.8133 7.02915  -2
 -13  32   0 25.8133 7.02915   1
 -22  32   0 97.7464 11.2277  -2
 -10  32   0 97.7464 11.2277   1
 -25  32   0 71.3108 12.0123  -2
  -7  32   0 71.3108 12.0123   1
 -28  32   0 28.9219 8.56629  -2
  -4  32   0 28.9219 8.56629   1
 -31  32   0 16.3946 10.3094  -2
  -1  32   0 16.3946 10.3094   1
  -3  33   0 29.3323 10.4908  -2
 -30  33   0 29.3323 10.4908   1
  -6  33   0 41.6737 11.4819  -2
 -27  33   0 41.6737 11.4819   1
  -9  33   0 17.4717 9.20608  -2
 -24  33   0 17.4717 9.20608   1
 -12  33   0 27.6183 7.98236  -2
 -21  33   0 27.6183 7.98236   1
 -15  33   0 18.4722 7.99877  -2
 -18  33   0 18.4722 7.99877   1
 -18  33   0 28.1274 7.88591  -2
 -15  33   0 28.1274 7.88591   1
 -21  33   0 25.7620 7.54924  -2
 -12  33   0 25.7620 7.54924   1
 -24  33   0 39.5220 10.8504  -2
  -9  33   0 39.5220 10.8504   1
 -27  33   0 8.81796 9.31225  -2
  -6  33   0 8.81796 9.31225   1
 -30  33   0 28.4163 10.0791  -2
  -3  33   0 28.4163 10.0791   1
   0  33   0 1.04998 9.85669  -2
   0  33   0 1.04998 9.85669   1
  -2  34   0 54.8149 12.9039  -2
 -32  34   0 54.8149 12.9039   1
  -5  34   0 95.2398 17.2428  -2
 -29  34   0 95.2398 17.2428   1
  -8  34   0 39.9101 10.4472  -2
 -26  34   0 39.9101 10.4472   1
 -11  34   0 31.9237 11.5500  -2
 -23  34   0 31.9237 11.5500   1
 -14  34   0 53.4312 10.7695  -2
 -20  34   0 53.4312 10.7695   1
 -17  34   0 120.821 11.9565  -2
 -17  34   0 120.821 11.9565   1
 -20  34   0 62.9371 10.4707  -2
 -14  34   0 62.9371 10.4707   1
 -23  34   0 39.9560 10.0685  -2
 -11  34   0 39.9560 10.0685   1
 -26  34   0 79.1194 13.0819  -2
  -8  34   0 79.1194 13.0819   1
 -29  34   0 106.053 15.2677  -2
  -5  34   0 106.053 15.2677   1
 -32  34   0 39.3068 12.7806  -2
  -2  34   0 39.3068 12.7806   1
  -4  35   0 25.4793 9.36399  -2
 -31  35   0 25.4793 9.36399   1
  -7  35   0 53.8849 12.8481  -2
 -28  35   0 53.8849 12.8481   1
 -10  35   0 30.6773 9.36773  -2
 -25  35   0 30.6773 9.36773   1
 -13  35   0 61.5649 12.3720  -2
 -22  35   0 61.5649 12.3720   1
 -16  35   0 185.008 16.8142  -2
 -19  35   0 185.008 16.8142   1
 -19  35   0 168.312 16.4783  -2
 -16  35   0 168.312 16.4783   1
 -22  35   0 40.0603 10.4769  -2
 -13  35   0 40.0603 10.4769   1
 -25  35   0 41.6085 12.7605  -2
 -10  35   0 41.6085 12.7605   1
 -28  35   0 14.1443 9.86662  -2
  -7  35   0 14.1443 9.86662   1
 -31  35   0 16.2477 12.4922  -2
  -4  35   0 16.2477 12.4922   1
  -6  36   0 92.6283 14.0151  -2
 -30  36   0 92.6283 14.0151   1
  -9  36   0 43.9044 10.4856  -2
 -27  36   0 43.9044 10.4856   1
 -12  36   0 9.11981 9.25733  -2
 -24  36   0 9.11981 9.25733   1
 -15  36   0 26.9028 8.94698  -2
 -21  36   0 26.9028 8.94698   1
 -18  36   0 45.9839 9.82504  -2
 -18  36   0 45.9839 9.82504   1
 -21  36   0 7.02852 8.39437  -2
 -15  36   0 7.02852 8.39437   1
 -24  36   0 34.2127 10.4241  -2
 -12  36   0 34.2127 10.4241   1
 -27  36   0 34.0841 11.0787  -2
  -9  36   0 34.0841 11.0787   1
 -30  36   0 83.0044 16.3910  -2
  -6  36   0 83.0044 16.3910   1
  -8  37   0 67.6538 11.8912  -2
 -29  37   0 67.6538 11.8912   1
 -11  37   0 35.1743 10.5570  -2
 -26  37   0 35.1743 10.5570   1
 -14  37   0 1.03887 10.3625  -2
 -23  37   0 1.03887 10.3625   1
 -17  37   0 102.910 13.6908  -2
 -20  37   0 102.910 13.6908   1
 -20  37   0 89.7152 13.4622  -2
 -17  37   0 89.7152 13.4622   1
 -23  37   0 17.2346 10.3246  -2
 -14  37   0 17.2346 10.3246   1
 -26  37   0 34.7715 10.0415  -2
 -11  37   0 34.7715 10.0415   1
 -29  37   0 22.5144 11.8822  -2
  -8  37   0 22.5144 11.8822   1
 -10  38   0 -11.519 8.64163  -2
 -28  38   0 -11.519 8.64163   1
 -13  38   0 19.6072 11.1338  -2
 -25  38   0 19.6072 11.1338   1
 -16  38   0 115.892 16.0854  -2
 -22  38   0 115.892 16.0854   1
 -19  38   0 452.334 24.5848  -2
 -19  38   0 452.334 24.5848   1
 -22  38   0 134.921 16.9401  -2
 -16  38   0 134.921 16.9401   1
 -25  38   0 47.8960 11.5947  -2
 -13  38   0 47.8960 11.5947   1
 -28  38   0 -1.8663 10.8449  -2
 -10  38   0 -1.8663 10.8449   1
 -15  39   0 32.0855 12.7082  -2
 -24  39   0 32.0855 12.7082   1
 -18  39   0 60.2696 12.8342  -2
 -21  39   0 60.2696 12.8342   1
 -21  39   0 55.5935 13.3616  -2
 -18  39   0 55.5935 13.3616   1
 -24  39   0 46.2178 12.1202  -2
 -15  39   0 46.2178 12.1202   1
  -1   1   1 476.485 4.66442   1
  -3   2   1 1518.11 12.3218   1
   0   2   1 469.768 4.72412   1
  -5   3   1 1804.55 15.5799   1
  -2   3   1 1828.77 13.9581   1
   1   3   1 4.50405 0.70783   1
  -7   4   1 741.322 9.05032   1
  -4   4   1 58.2524 1.65693   1
  -1   4   1 28.1143 1.25410   1
   2   4   1 63.4318 2.26747   1
  -9   5   1 56.4347 2.57444   1
  -6   5   1 6611.50 66.5621   1
  -3   5   1 1168.12 12.2985   1
   0   5   1 1327.65 12.4249   1
   3   5   1 928.001 10.7791   1
 -11   6   1 133.469 3.83282   1
  -8   6   1 7367.34 68.5987   1
  -5   6   1 877.355 9.55904   1
  -2   6   1 3038.22 25.2311   1
   1   6   1 349.982 5.19545   1
   4   6   1 1496.05 16.1292   1
 -13   7   1 1085.06 13.6559   1
 -10   7   1 3041.58 29.2498   1
  -7   7   1 43.6187 1.86666   1
  -4   7   1 111.076 2.55269   1
  -1   7   1 210.126 3.57706   1
   2   7   1 182.228 4.14037   1
   5   7   1 1290.74 15.1323   1
 -15   8   1 2567.18 26.6197   1
 -12   8   1 515.837 8.65783   1
  -9   8   1 1285.12 13.7958   1
  -6   8   1 646.231 8.39225   1
  -3   8   1 939.262 10.3351   1
   0   8   1 1018.16 11.7285   1
   3   8   1 210.519 5.17200   1
   6   8   1 441.131 8.12771   1
 -17   9   1 295.968 6.91224   1
 -14   9   1 61.9213 3.60019   1
 -11   9   1 2307.74 23.2817   1
  -8   9   1 2412.65 23.2760   1
  -5   9   1 885.391 10.5102   1
  -2   9   1 2319.01 21.9079   1
   1   9   1 219.458 4.92898   1
   4   9   1 676.811 10.7037   1
   7   9   1 1184.46 15.4467   1
 -19  10   1 581.498 10.5403   1
 -16  10   1 1069.87 14.7689   1
 -13  10   1 257.829 5.84159   1
 -10  10   1 397.776 6.90931   1
  -7  10   1 503.009 7.63249   1
  -4  10   1 306.651 6.34781   1
  -1  10   1 31.1792 2.13987   1
   2  10   1 1596.57 18.3469   1
   5  10   1 3492.15 34.1640   1
   8  10   1 2417.14 26.5507   1
 -21  11   1 173.839 5.91554   1
 -18  11   1 1230.13 16.8350   1
 -15  11   1 283.031 6.53083   1
 -12  11   1 1806.29 19.7380   1
  -9  11   1 14.3775 1.65376   1
  -6  11   1 92.1323 3.57430   1
  -3  11   1 271.459 6.40348   1
   0  11   1 758.249 10.4302   1
   3  11   1 255.821 6.08939   1
   6  11   1 368.238 8.33798   1
   9  11   1 2.01445 1.77648   1
 -23  12   1 30.7390 3.41112   1
 -20  12   1 11.1105 2.15376   1
 -17  12   1 324.592 7.63510   1
 -14  12   1 136.215 4.43883   1
 -11  12   1 57.5989 3.04465   1
  -8  12   1 227.021 4.84829   1
  -5  12   1 241.641 6.00023   1
  -2  12   1 95.1680 3.20473   1
   1  12   1 358.045 6.99325   1
   4  12   1 1583.17 20.0469   1
   7  12   1 843.717 13.4965   1
  10  12   1 31.4695 3.06955   1
 -25  13   1 28.4945 3.59678   1
 -22  13   1 9.30339 2.32391   1
 -19  13   1 10.2798 2.16157   1
 -16  13   1 140.847 5.03556   1
 -13  13   1 3028.68 30.2127   1
 -10  13   1 34.8559 2.33913   1
  -7  13   1 10.7613 1.76813   1
  -4  13   1 24.0524 2.57870   1
  -1  13   1 866.951 11.8007   1
   2  13   1 1722.99 19.9879   1
   5  13   1 1688.26 21.0757   1
   8  13   1 64.2914 4.23856   1
  11  13   1 80.8534 4.83234   1
 -27  14   1 63.7621 5.69657   1
 -24  14   1 3.58443 2.25425   1
 -21  14   1 94.4794 5.00552   1
 -18  14   1 9.00640 2.06878   1
 -15  14   1 1968.38 22.7913   1
 -12  14   1 741.448 10.8053   1
  -9  14   1 14.6011 1.55831   1
  -6  14   1 137.085 4.90073   1
  -3  14   1 122.862 4.20591   1
   0  14   1 281.836 6.39564   1
   3  14   1 12.2664 1.94638   1
   6  14   1 3.19728 1.75826   1
   9  14   1 19.4854 2.90678   1
  12  14   1 75.5562 5.18207   1
 -29  15   1 404.501 12.7979   1
 -26  15   1 96.8744 6.48133   1
 -23  15   1 9.59181 2.39664   1
 -20  15   1 6.85979 2.02573   1
 -17  15   1 101.975 4.79365   1
 -14  15   1 17.0856 2.07100   1
 -11  15   1 134.948 3.67669   1
  -8  15   1 262.183 6.87637   1
  -5  15   1 7.58673 1.72050   1
  -2  15   1 274.766 5.86660   1
   1  15   1 616.600 10.5128   1
   4  15   1 616.034 11.4844   1
   7  15   1 19.0210 2.67423   1
  10  15   1 29.0198 3.67916   1
  13  15   1 54.4532 6.07349   1
 -31  16   1 38.4956 6.62302   1
 -28  16   1 55.7750 5.71653   1
 -25  16   1 13.3482 2.89656   1
 -22  16   1 210.675 6.76942   1
 -19  16   1 635.222 11.4965   1
 -16  16   1 1983.47 22.9662   1
 -13  16   1 433.893 8.44076   1
 -10  16   1 576.054 11.1563   1
  -7  16   1 367.391 8.59187   1
  -4  16   1 85.6042 4.89146   1
  -1  16   1 338.631 7.33813   1
   2  16   1 746.598 12.3337   1
   5  16   1 74.7151 4.83964   1
   8  16   1 47.3735 4.06359   1
  11  16   1 8.54579 3.23519   1
  14  16   1 131.794 9.96567   1
 -33  17   1 131.572 11.0471   1
 -30  17   1 132.858 9.11551   1
 -27  17   1 88.0533 6.63062   1
 -24  17   1 61.0945 4.49886   1
 -21  17   1 253.593 7.62046   1
 -18  17   1 614.290 11.1452   1
 -15  17   1 418.185 8.46016   1
 -12  17   1 112.946 4.17698   1
  -9  17   1 353.605 8.53238   1
  -6  17   1 302.957 7.97753   1
  -3  17   1 273.176 6.12754   1
   0  17   1 12.7562 2.07895   1
   3  17   1 3.77480 1.97402   1
   6  17   1 203.966 6.95396   1
   9  17   1 1.46507 2.80062   1
  12  17   1 203.872 10.4448   1
  15  17   1 258.176 15.0621   1
 -35  18   1 80.7249 12.5211   1
 -32  18   1 291.008 14.8786   1
 -29  18   1 372.268 12.5546   1
 -26  18   1 51.8956 4.51012   1
 -23  18   1 47.4663 4.11543   1
 -20  18   1 96.0763 5.18457   1
 -17  18   1 707.214 12.0694   1
 -14  18   1 48.9763 3.41870   1
 -11  18   1 233.374 7.63703   1
  -8  18   1 8.36185 2.07530   1
  -5  18   1 177.581 6.59187   1
  -2  18   1 354.867 7.67687   1
   1  18   1 142.578 5.91675   1
   4  18   1 79.0209 5.01410   1
   7  18   1 21.6793 3.49166   1
  10  18   1 10.6923 3.79440   1
  13  18   1 30.7836 6.00579   1
  16  18   1 7.73603 7.20223   1
 -37  19   1 13.9419 8.32956   1
 -34  19   1 13.3041 6.64956   1
 -31  19   1 53.6344 6.97987   1
 -28  19   1 4.10806 3.68093   1
 -25  19   1 163.423 7.37164   1
 -22  19   1 593.628 11.8802   1
 -19  19   1 2298.48 26.9019   1
 -16  19   1 740.666 12.1834   1
 -13  19   1 45.2131 3.84508   1
 -10  19   1 955.899 16.0218   1
  -7  19   1 359.523 9.25916   1
  -4  19   1 165.208 6.66717   1
  -1  19   1 7.97612 2.34809   1
   2  19   1 22.0122 3.04299   1
   5  19   1 42.4869 4.10917   1
   8  19   1 12.2153 3.70774   1
  11  19   1 30.0224 5.66470   1
  14  19   1 52.2706 10.1164   1
  17  19   1 11.9930 7.95367   1
 -39  20   1 17.8458 8.80975   1
 -36  20   1 39.9701 10.7796   1
 -33  20   1 105.657 9.51929   1
 -30  20   1 101.863 8.24502   1
 -27  20   1 281.486 10.8528   1
 -24  20   1 99.5510 6.35721   1
 -21  20   1 818.588 14.2208   1
 -18  20   1 48.5537 3.81131   1
 -15  20   1 33.2124 3.19614   1
 -12  20   1 149.465 7.11247   1
  -9  20   1 1702.31 23.7665   1
  -6  20   1 1121.01 18.7685   1
  -3  20   1 625.607 13.2812   1
   0  20   1 6.91127 2.44746   1
   3  20   1 321.910 9.52417   1
   6  20   1 126.255 7.02121   1
   9  20   1 8.72323 4.25647   1
  12  20   1 45.9222 7.28834   1
  15  20   1 30.4422 8.87028   1
  18  20   1 11.2450 8.90124   1
 -38  21   1 23.7701 10.6959   1
 -35  21   1 183.453 16.1009   1
 -32  21   1 330.280 16.2447   1
 -29  21   1 224.121 10.9094   1
 -26  21   1 22.6463 4.00750   1
 -23  21   1 48.9177 4.57698   1
 -20  21   1 327.204 8.88081   1
 -17  21   1 452.615 9.39175   1
 -14  21   1 27.5767 3.33289   1
 -11  21   1 116.210 6.60230   1
  -8  21   1 369.682 9.89326   1
  -5  21   1 297.800 9.09044   1
  -2  21   1 94.0811 5.94207   1
   1  21   1 367.952 9.68003   1
   4  21   1 234.586 8.70200   1
   7  21   1 104.831 7.51057   1
  10  21   1 11.8601 5.32338   1
  13  21   1 14.5602 7.59180   1
  16  21   1 36.7913 10.3499   1
 -37  22   1 -1.0164 7.79213   1
 -34  22   1 70.9110 11.4307   1
 -31  22   1 75.3438 8.11074   1
 -28  22   1 1.53436 3.91402   1
 -25  22   1 106.998 7.01741   1
 -22  22   1 681.026 13.2946   1
 -19  22   1 633.929 12.2929   1
 -16  22   1 172.778 7.62826   1
 -13  22   1 95.2990 5.75758   1
 -10  22   1 710.369 14.3566   1
  -7  22   1 584.852 13.3977   1
  -4  22   1 90.0364 6.05444   1
  -1  22   1 38.9487 3.96226   1
   2  22   1 24.1912 3.80833   1
   5  22   1 14.9473 4.29684   1
 -30  23   1 11.3608 35.4736  -2
   8  22   1 11.3608 35.4736   1
  11  22   1 6.92373 6.77188   1
  14  22   1 49.2123 10.5803   1
  17  22   1 57.9877 13.0839   1
 -39  23   1 1.68768 9.39143   1
 -36  23   1 11.7317 8.72428   1
 -33  23   1 8.71873 6.11113   1
 -30  23   1 7.71647 4.82205   1
 -27  23   1 2.04441 3.82087   1
 -24  23   1 38.3680 4.80608   1
 -21  23   1 50.9441 4.48142   1
 -18  23   1 18.9128 3.07909   1
 -15  23   1 37.1855 4.16698   1
 -12  23   1 642.418 14.4851   1
  -9  23   1 1897.65 26.9697   1
  -6  23   1 816.854 16.2086   1
  -3  23   1 190.443 8.17675   1
   0  23   1 411.742 10.7872   1
   3  23   1 657.798 16.2718   1
 -29  24   1 429.582 64.4626  -2
   6  23   1 429.582 64.4626   1
   9  23   1 132.346 14.5494   1
  12  23   1 40.2373 10.4308   1
  15  23   1 24.2182 10.7559   1
 -38  24   1 20.4988 10.3115   1
 -35  24   1 46.4530 10.9165   1
 -32  24   1 10.3637 6.79767   1
 -29  24   1 2.64172 5.50926   1
 -26  24   1 26.3578 5.57346   1
 -23  24   1 131.422 7.46920   1
 -20  24   1 168.935 7.79634   1
 -17  24   1 50.5102 5.26271   1
 -14  24   1 72.8106 5.39939   1
 -11  24   1 57.5862 5.21797   1
  -8  24   1 116.969 7.15661   1
  -5  24   1 13.3726 3.51647   1
  -2  24   1 244.787 9.60336   1
   1  24   1 675.388 15.8561   1
 -28  25   1 802.769 86.1372  -2
   4  24   1 802.769 86.1372   1
   7  24   1 343.320 19.9046   1
  10  24   1 77.3451 14.7918   1
  13  24   1 -4.2698 7.97409   1
 -37  25   1 12.2049 8.34569   1
 -34  25   1 33.6111 9.60049   1
 -31  25   1 18.8211 7.98936   1
 -28  25   1 -6.3530 4.87292   1
 -25  25   1 112.908 9.14476   1
 -22  25   1 111.665 7.13043   1
 -19  25   1 196.328 9.16827   1
 -16  25   1 1.57644 2.74339   1
 -13  25   1 120.540 7.16842   1
 -10  25   1 539.482 13.8655   1
  -7  25   1 246.942 9.33875   1
  -4  25   1 343.192 11.2312   1
  -1  25   1 49.6380 5.22810   1
   2  25   1 89.1511 8.27354   1
   5  25   1 94.2242 10.2071   1
   8  25   1 16.8472 9.85663   1
  11  25   1 17.2799 9.02244   1
  14  25   1 40.6150 11.9676   1
 -36  26   1 -8.7669 7.96627   1
 -33  26   1 65.4098 10.8465   1
 -30  26   1 144.491 12.9466   1
 -27  26   1 11.6137 5.42260   1
 -24  26   1 4.63612 4.06549   1
 -21  26   1 61.5769 5.78036   1
 -18  26   1 42.8719 5.26752   1
 -15  26   1 69.3372 5.97842   1
 -12  26   1 225.579 8.97209   1
  -9  26   1 565.653 14.0151   1
  -6  26   1 178.462 8.89609   1
  -3  26   1 7.33572 3.94715   1
   0  26   1 164.548 9.90724   1
   3  26   1 118.117 11.3080   1
   6  26   1 59.9298 11.6719   1
   9  26   1 45.7308 11.3222   1
  12  26   1 -5.5056 8.23598   1
 -38  27   1 8.80522 10.3864   1
 -35  27   1 -4.3099 8.63939   1
 -32  27   1 65.0285 13.7459   1
 -29  27   1 27.5728 7.53415   1
 -26  27   1 17.8165 5.68291   1
 -23  27   1 4.85647 4.90064   1
 -20  27   1 27.0887 4.49476   1
 -17  27   1 4.78948 3.18831   1
 -14  27   1 13.1586 3.87822   1
 -11  27   1 12.7319 3.51998   1
  -8  27   1 56.6022 5.52423   1
  -5  27   1 24.5362 4.50413   1
  -2  27   1 74.6366 6.89216   1
   1  27   1 455.546 18.1382   1
   4  27   1 315.488 21.2345   1
   7  27   1 89.0915 14.4621   1
  10  27   1 19.1490 10.0856   1
 -37  28   1 -2.6116 10.2074   1
 -34  28   1 54.3870 11.5836   1
 -31  28   1 27.6835 8.98522   1
 -28  28   1 6.42876 6.40130   1
 -25  28   1 8.54075 4.70221   1
 -22  28   1 8.04036 4.02989   1
 -19  28   1 8.40421 3.86034   1
 -16  28   1 76.2153 6.71825   1
 -13  28   1 110.856 7.87908   1
 -10  28   1 40.7243 5.06900   1
  -7  28   1 27.3414 4.93648   1
  -4  28   1 10.7599 4.03860   1
  -1  28   1 1.63456 4.89124   1
   2  28   1 57.6401 10.6828   1
   5  28   1 16.5980 9.77750   1
   8  28   1 -5.1683 7.54509   1
 -36  29   1 28.4979 10.4343   1
 -33  29   1 219.433 20.5551   1
 -30  29   1 137.196 16.2116   1
  -3  29   1 19.1573 33.8520  -2
 -27  29   1 19.1573 33.8520   1
 -24  29   1 7.89983 5.07570   1
 -21  29   1 41.7654 5.97560   1
 -18  29   1 4.72961 4.23540   1
 -15  29   1 18.5026 4.46464   1
 -12  29   1 26.0610 4.95713   1
  -9  29   1 91.4807 7.11254   1
  -6  29   1 4.97851 4.01430   1
  -3  29   1 3.50692 4.97444   1
   0  29   1 89.5019 13.3790   1
   3  29   1 41.0729 11.6928   1
   6  29   1 19.2062 9.52114   1
 -35  30   1 21.9268 10.0987   1
 -32  30   1 94.8848 14.5154   1
 -29  30   1 26.5623 9.64177   1
 -26  30   1 19.9368 6.97617   1
 -23  30   1 88.4931 8.90806   1
 -20  30   1 100.743 8.52016   1
 -17  30   1 112.779 8.31240   1
 -14  30   1 21.5111 4.90968   1
 -11  30   1 34.1723 5.58791   1
  -8  30   1 20.4784 5.35655   1
  -5  30   1 4.41827 5.30520   1
  -2  30   1 8.67348 6.66013   1
   1  30   1 96.9240 14.2523   1
   4  30   1 23.3260 9.58218   1
   7  30   1 20.4797 9.17445   1
 -34  31   1 70.1379 14.5102   1
 -31  31   1 7.00521 9.42070   1
 -28  31   1 13.4374 7.37707   1
  -7  31   1 -16.305 33.9784  -2
 -25  31   1 -16.305 33.9784   1
 -22  31   1 26.1305 6.43437   1
 -19  31   1 44.3391 7.33423   1
 -16  31   1 69.6347 8.82547   1
 -13  31   1 6.72299 5.29012   1
 -10  31   1 20.2582 5.38561   1
  -7  31   1 36.0616 7.60179   1
  -4  31   1 15.5713 6.80517   1
  -1  31   1 -0.9898 7.88918   1
   2  31   1 -1.4357 8.94828   1
   5  31   1 1.18857 8.78192   1
 -36  32   1 100.395 14.4168   1
 -33  32   1 234.399 22.4767   1
 -30  32   1 24.8295 10.6729   1
 -27  32   1 11.0728 8.80567   1
 -24  32   1 101.314 11.3311   1
 -21  32   1 44.4824 8.10517   1
 -18  32   1 66.2757 8.31933   1
 -15  32   1 3.30240 5.24823   1
 -12  32   1 7.45346 4.89426   1
  -9  32   1 -0.0074 5.81747   1
  -6  32   1 27.3904 8.17015   1
  -3  32   1 41.0841 10.5732   1
   0  32   1 31.5745 11.4803   1
   3  32   1 -11.155 8.32555   1
 -35  33   1 41.0253 11.4460   1
 -32  33   1 42.4284 12.2781   1
 -29  33   1 11.7235 8.53721   1
 -26  33   1 138.885 14.5170   1
 -23  33   1 258.428 18.0265   1
 -20  33   1 328.465 19.6772   1
 -17  33   1 113.952 10.3167   1
 -14  33   1 1.90770 5.82906   1
 -11  33   1 9.34000 6.39314   1
  -8  33   1 17.0983 8.71214   1
  -5  33   1 8.59393 9.62887   1
  -2  33   1 3.74635 13.1605   1
   1  33   1 -3.4606 8.94987   1
 -34  34   1 53.1063 13.5045   1
 -31  34   1 26.5145 8.47481   1
 -28  34   1 7.70896 7.33401   1
 -25  34   1 35.8410 9.57908   1
 -22  34   1 93.4709 12.1190   1
 -19  34   1 59.1401 9.38246   1
 -16  34   1 -2.4332 5.65409   1
 -13  34   1 41.6734 8.84403   1
 -10  34   1 91.2045 13.4183   1
  -7  34   1 52.2701 11.2135   1
  -4  34   1 10.3238 9.93251   1
  -1  34   1 -19.293 9.06751   1
 -33  35   1 84.9928 14.0942   1
 -30  35   1 -10.891 7.37679   1
 -27  35   1 24.3102 9.79869   1
 -24  35   1 44.9163 10.8204   1
 -21  35   1 34.6261 9.93938   1
 -18  35   1 37.2146 8.26276   1
 -15  35   1 12.2841 7.59013   1
 -12  35   1 21.9747 8.52102   1
  -9  35   1 -4.3787 7.86614   1
  -6  35   1 -7.0673 8.16084   1
  -3  35   1 -4.8668 9.21463   1
 -32  36   1 31.1961 11.1166   1
 -29  36   1 8.09023 8.66348   1
 -11  36   1 168.160 51.4341  -2
 -26  36   1 168.160 51.4341   1
 -23  36   1 137.370 16.3753   1
 -20  36   1 86.6737 13.7140   1
 -17  36   1 0.98568 7.09369   1
 -14  36   1 67.1765 13.0566   1
 -11  36   1 100.633 15.5572   1
  -8  36   1 64.8848 13.6792   1
  -5  36   1 10.1898 10.0981   1
 -28  37   1 2.96115 9.25062   1
 -25  37   1 28.2796 9.61917   1
 -22  37   1 53.3722 12.8387   1
 -19  37   1 7.50866 6.65541   1
 -16  37   1 37.3878 9.77024   1
 -13  37   1 137.300 16.6908   1
 -10  37   1 120.741 17.3619   1
  -7  37   1 49.3075 12.9629   1
 -27  38   1 12.3377 10.4698   1
 -24  38   1 6.31644 8.87144   1
 -21  38   1 1.44426 9.00173   1
 -18  38   1 11.3194 8.84076   1
 -15  38   1 0.28013 8.03927   1
 -12  38   1 21.0040 10.8147   1
 -23  39   1 55.1883 12.3773   1
 -20  39   1 22.6926 9.59447   1
 -17  39   1 2.95396 8.51658   1
 -14  39   1 52.3510 13.0052   1
   0   1   2 113.655 3.28511   1
  -2   2   2 169.477 3.86886   1
   1   2   2 882.279 11.2091   1
  -4   3   2 46.7106 2.20911   1
  -1   3   2 215.565 4.21422   1
   2   3   2 707.230 8.74275   1
  -6   4   2 3488.81 32.6223   1
  -3   4   2 31.8297 1.94077   1
   0   4   2 469.377 7.48233   1
   3   4   2 2646.89 26.9285   1
  -8   5   2 844.299 10.7404   1
  -5   5   2 123.587 3.31302   1
  -2   5   2 1397.03 15.3355   1
   1   5   2 5005.92 47.2410   1
   4   5   2 9857.83 96.4868   1
 -10   6   2 3562.97 34.2064   1
  -7   6   2 255.571 5.09091   1
  -4   6   2 300.224 5.08939   1
  -1   6   2 422.111 6.86304   1
   2   6   2 2564.93 27.2908   1
   5   6   2 42.1517 3.05276   1
 -12   7   2 1716.90 19.1910   1
  -9   7   2 6182.11 52.2843   1
  -6   7   2 230.603 4.71376   1
  -3   7   2 75.3036 2.87983   1
   0   7   2 2543.95 25.8607   1
   3   7   2 5253.39 49.3712   1
   6   7   2 1378.63 16.8209   1
 -14   8   2 4.73901 1.53665   1
 -11   8   2 388.593 7.15900   1
  -8   8   2 2797.21 27.9538   1
  -5   8   2 51.0331 2.81357   1
  -2   8   2 1261.69 14.7765   1
   1   8   2 9774.51 88.0863   1
   4   8   2 3532.90 35.9810   1
   7   8   2 381.486 7.83366   1
 -16   9   2 22.6751 2.41268   1
 -13   9   2 522.200 8.97748   1
 -10   9   2 133.119 3.74641   1
  -7   9   2 140.616 4.13772   1
  -4   9   2 2.73477 0.93244   1
  -1   9   2 56.7306 2.92632   1
   2   9   2 228.956 6.12786   1
   5   9   2 42.0313 3.19369   1
   8   9   2 26.5785 2.55799   1
 -18  10   2 292.172 7.30728   1
 -15  10   2 11.0123 1.97411   1
 -12  10   2 575.758 8.90335   1
  -9  10   2 939.592 12.7893   1
  -6  10   2 246.506 5.23168   1
  -3  10   2 502.817 7.79999   1
   0  10   2 2140.54 22.2196   1
   3  10   2 1041.47 15.6991   1
   6  10   2 62.7145 3.65426   1
   9  10   2 17.9753 2.56524   1
 -20  11   2 728.124 12.7372   1
 -17  11   2 562.097 10.3031   1
 -14  11   2 5.35913 1.52012   1
 -11  11   2 166.626 5.07145   1
  -8  11   2 1344.65 16.2813   1
  -5  11   2 2.94053 1.01394   1
  -2  11   2 936.621 11.6594   1
   1  11   2 1275.74 15.5207   1
   4  11   2 492.284 9.02205   1
   7  11   2 5.17008 1.90560   1
  10  11   2 207.501 7.10584   1
 -22  12   2 71.0051 4.78915   1
 -19  12   2 64.6887 4.35376   1
 -16  12   2 0.40893 1.43957   1
 -13  12   2 14.5553 2.08169   1
 -10  12   2 188.839 5.24382   1
  -7  12   2 507.209 9.18077   1
  -4  12   2 21.5781 1.83648   1
  -1  12   2 2.34548 1.18085   1
   2  12   2 512.553 8.95808   1
   5  12   2 409.767 8.60344   1
   8  12   2 61.4312 4.13781   1
  11  12   2 319.616 9.12431   1
 -24  13   2 415.334 10.5333   1
 -21  13   2 585.096 11.5270   1
 -18  13   2 644.088 11.7940   1
 -15  13   2 20.3576 2.18423   1
 -12  13   2 3.96380 1.50251   1
  -9  13   2 120.237 3.90707   1
  -6  13   2 28.5218 2.02964   1
  -3  13   2 47.4372 2.47451   1
   0  13   2 22.5509 2.27779   1
   3  13   2 388.240 8.21972   1
   6  13   2 274.325 7.31977   1
   9  13   2 51.0211 4.25275   1
  12  13   2 6.44617 2.99836   1
 -26  14   2 489.435 12.0648   1
 -23  14   2 1138.10 17.7499   1
 -20  14   2 838.750 15.0374   1
 -17  14   2 44.4563 3.50987   1
 -14  14   2 132.768 5.00030   1
 -11  14   2 1011.83 14.2421   1
  -8  14   2 2203.75 25.4225   1
  -5  14   2 182.572 4.31623   1
  -2  14   2 494.378 9.10013   1
   1  14   2 15.5733 2.13757   1
   4  14   2 20.0682 2.57419   1
   7  14   2 305.548 8.47240   1
  10  14   2 133.776 7.18733   1
  13  14   2 114.758 7.45429   1
 -28  15   2 1.01958 4.00083   1
 -25  15   2 52.9480 4.83806   1
 -22  15   2 34.8847 3.79567   1
 -19  15   2 1.94176 1.95557   1
 -16  15   2 53.5620 3.90953   1
 -13  15   2 722.620 12.6869   1
 -10  15   2 2247.81 25.3435   1
  -7  15   2 1950.52 25.4768   1
  -4  15   2 502.575 8.47283   1
  -1  15   2 70.4687 3.72866   1
   2  15   2 439.062 8.90890   1
   5  15   2 19.3252 2.69043   1
   8  15   2 12.7008 2.94941   1
  11  15   2 46.3414 4.96784   1
  14  15   2 16.1577 4.79218   1
 -30  16   2 33.2528 6.28346   1
 -27  16   2 300.038 10.3705   1
 -24  16   2 617.304 13.1908   1
 -21  16   2 207.404 7.50092   1
 -18  16   2 38.3884 3.26998   1
 -15  16   2 18.1174 2.54019   1
 -12  16   2 68.5249 3.79959   1
  -9  16   2 101.453 6.13594   1
  -6  16   2 5.42012 1.74510   1
  -3  16   2 120.625 4.49367   1
   0  16   2 231.119 6.28938   1
   3  16   2 375.583 8.76769   1
   6  16   2 219.676 7.06297   1
   9  16   2 11.0939 3.16434   1
  12  16   2 0.62025 3.86837   1
  15  16   2 6.24769 5.51566   1
 -32  17   2 24.8445 6.53673   1
 -29  17   2 74.7700 6.44291   1
 -26  17   2 698.897 14.9845   1
 -23  17   2 491.279 11.4514   1
 -20  17   2 18.9924 2.92317   1
 -17  17   2 2.63074 1.96654   1
 -14  17   2 773.300 13.4495   1
 -11  17   2 1261.85 20.4701   1
  -8  17   2 1122.22 16.5734   1
  -5  17   2 523.934 11.0830   1
  -2  17   2 263.848 6.72589   1
   1  17   2 10.4132 2.16232   1
   4  17   2 120.002 5.62306   1
   7  17   2 51.7211 4.75061   1
  10  17   2 15.2520 3.94676   1
  13  17   2 14.4726 5.77812   1
  16  17   2 25.4070 9.03110   1
 -34  18   2 12.8738 7.13046   1
 -31  18   2 33.2323 6.82323   1
 -28  18   2 3.30299 3.85380   1
 -25  18   2 33.0105 4.30622   1
 -22  18   2 11.0737 2.78704   1
 -19  18   2 56.6410 4.13254   1
 -16  18   2 418.040 9.43059   1
 -13  18   2 1533.01 19.6158   1
 -10  18   2 1757.01 24.9270   1
  -7  18   2 436.539 10.2427   1
  -4  18   2 7.98798 2.37229   1
  -1  18   2 217.938 6.30742   1
   2  18   2 164.011 6.44901   1
   5  18   2 185.907 7.37404   1
   8  18   2 3.64738 3.39464   1
  11  18   2 55.0642 6.79852   1
  14  18   2 33.0673 7.15851   1
  17  18   2 12.0896 8.01445   1
 -36  19   2 46.7569 11.7853   1
 -33  19   2 21.9991 7.27274   1
 -30  19   2 132.777 9.49617   1
 -27  19   2 236.316 10.3631   1
 -24  19   2 176.448 7.52369   1
 -21  19   2 105.829 6.11245   1
 -18  19   2 50.1199 4.08886   1
 -15  19   2 4.89468 2.11801   1
 -12  19   2 137.032 6.98592   1
  -9  19   2 40.6835 4.12912   1
  -6  19   2 92.7331 5.59653   1
  -3  19   2 453.797 11.1718   1
   0  19   2 293.153 7.69191   1
   3  19   2 670.888 13.8356   1
   6  19   2 92.9653 5.98823   1
   9  19   2 51.1962 5.82639   1
  12  19   2 7.30630 5.52449   1
  15  19   2 29.9614 8.25982   1
  18  19   2 -1.4141 7.42924   1
 -38  20   2 -2.3171 8.37405   1
 -35  20   2 29.6385 9.17972   1
 -32  20   2 26.7446 6.95984   1
 -29  20   2 49.3230 6.73666   1
 -26  20   2 205.225 9.01721   1
 -23  20   2 19.9226 3.53391   1
 -20  20   2 7.73115 2.71079   1
 -17  20   2 126.938 5.92235   1
 -14  20   2 1036.70 18.4653   1
 -11  20   2 465.999 11.6393   1
  -8  20   2 351.384 9.56108   1
  -5  20   2 8.89545 2.52927   1
  -2  20   2 35.7492 4.09920   1
   1  20   2 47.0529 4.07269   1
   4  20   2 0.53192 2.80577   1
   7  20   2 30.4861 4.42333   1
  10  20   2 274.965 15.6591   1
  13  20   2 173.513 16.1037   1
  16  20   2 41.7689 10.6825   1
  19  20   2 10.8742 9.62431   1
 -37  21   2 -5.3316 10.8346   1
 -34  21   2 30.4517 9.09147   1
 -31  21   2 200.434 14.0485   1
 -28  21   2 25.7168 5.69386   1
 -25  21   2 24.0179 4.08506   1
 -22  21   2 167.986 7.69366   1
 -19  21   2 32.4998 3.83774   1
 -16  21   2 684.688 14.3367   1
 -13  21   2 1334.42 22.6585   1
 -10  21   2 546.315 12.9669   1
  -7  21   2 11.5690 2.82949   1
  -4  21   2 267.721 8.74669   1
  -1  21   2 42.8805 4.62926   1
   2  21   2 518.038 12.1405   1
   5  21   2 107.743 7.12964   1
   8  21   2 28.3027 5.72476   1
  11  21   2 96.3569 11.0341   1
  14  21   2 10.9271 8.77157   1
  17  21   2 2.46985 9.81110   1
 -36  22   2 -7.2554 8.46191   1
 -33  22   2 9.05107 7.15590   1
 -30  22   2 139.121 12.4968   1
 -27  22   2 32.3858 4.79756   1
 -24  22   2 35.1857 4.56090   1
 -21  22   2 18.8102 3.49065   1
 -18  22   2 47.3899 4.18944   1
 -15  22   2 78.2427 5.80578   1
 -12  22   2 198.813 8.13466   1
  -9  22   2 76.8360 5.50633   1
  -6  22   2 47.2671 4.69246   1
  -3  22   2 205.340 8.17601   1
   0  22   2 442.909 11.1188   1
   3  22   2 297.265 11.0223   1
   6  22   2 6.60008 4.73949   1
   9  22   2 87.3290 10.5044   1
  12  22   2 30.1870 9.26866   1
  15  22   2 22.2315 9.10038   1
 -38  23   2 11.3219 9.29484   1
 -35  23   2 93.1731 12.6943   1
 -32  23   2 60.1859 9.25612   1
 -29  23   2 0.11068 4.90733   1
 -26  23   2 27.7400 4.87789   1
 -23  23   2 76.7849 6.01583   1
 -20  23   2 4.39655 3.01087   1
 -17  23   2 45.9639 5.27007   1
 -14  23   2 84.5527 6.33542   1
 -11  23   2 7.82262 2.75353   1
  -8  23   2 50.2906 4.66142   1
  -5  23   2 7.89664 2.97731   1
  -2  23   2 137.233 8.07528   1
   1  23   2 15.9311 3.99240   1
   4  23   2 14.2868 4.86718   1
   7  23   2 70.9079 9.91118   1
  10  23   2 165.571 15.4630   1
  13  23   2 54.8750 12.4831   1
 -37  24   2 70.2833 12.2602   1
 -34  24   2 166.747 17.0645   1
 -31  24   2 163.631 15.2124   1
 -28  24   2 5.50896 5.63461   1
 -25  24   2 560.614 15.3109   1
 -22  24   2 280.530 9.88696   1
 -19  24   2 27.0668 3.96275   1
 -16  24   2 48.0487 4.83164   1
 -13  24   2 52.4100 4.93784   1
 -10  24   2 7.15975 2.84296   1
  -7  24   2 127.962 7.57263   1
  -4  24   2 18.2069 3.93473   1
  -1  24   2 180.669 9.57669   1
   2  24   2 95.5302 8.28794   1
   5  24   2 7.12355 5.56214   1
   8  24   2 -2.4267 6.84578   1
  11  24   2 13.6365 8.67645   1
  14  24   2 17.8283 11.6082   1
 -36  25   2 23.1402 9.08675   1
 -33  25   2 -1.4499 6.97792   1
 -30  25   2 6.58307 6.62409   1
 -27  25   2 310.683 17.3297   1
 -24  25   2 140.336 9.13309   1
 -21  25   2 284.452 10.8629   1
 -18  25   2 13.4146 3.77438   1
 -15  25   2 3.15090 2.98670   1
 -12  25   2 141.816 8.11595   1
  -9  25   2 62.8104 5.46706   1
  -6  25   2 7.86561 3.29515   1
  -3  25   2 348.972 12.5852   1
   0  25   2 139.943 10.2032   1
   3  25   2 5.47421 5.44697   1
   6  25   2 50.8648 11.7837   1
   9  25   2 214.904 22.0764   1
  12  25   2 2.32962 11.1656   1
 -38  26   2 43.3718 12.6297   1
 -35  26   2 113.016 14.5712   1
 -32  26   2 107.308 14.8525   1
 -29  26   2 37.5593 8.40159   1
 -26  26   2 40.1104 6.65871   1
 -23  26   2 7.31359 4.00967   1
 -20  26   2 5.77393 3.60987   1
 -17  26   2 35.3551 4.69689   1
 -14  26   2 63.4105 5.73498   1
 -11  26   2 312.578 10.9948   1
  -8  26   2 103.265 6.96521   1
  -5  26   2 51.4024 5.40215   1
  -2  26   2 50.7283 6.28984   1
   1  26   2 5.98790 5.39748   1
   4  26   2 -9.3873 6.74896   1
   7  26   2 65.4104 13.2801   1
  10  26   2 158.963 21.1793   1
 -37  27   2 120.035 17.1483   1
 -34  27   2 76.1973 14.1553   1
 -31  27   2 23.8469 8.32980   1
 -28  27   2 249.499 15.9872   1
 -25  27   2 326.535 14.4375   1
 -22  27   2 279.395 12.3598   1
 -19  27   2 95.9837 7.50773   1
 -16  27   2 25.8841 4.73417   1
 -13  27   2 4.45485 3.39355   1
 -10  27   2 9.82976 3.82399   1
  -7  27   2 18.4347 4.21080   1
  -4  27   2 9.31215 4.26654   1
  -1  27   2 4.13057 5.21050   1
   2  27   2 4.87452 6.96292   1
   5  27   2 4.38771 8.43151   1
   8  27   2 -9.2096 11.2831   1
 -36  28   2 9.94456 8.37786   1
 -33  28   2 6.35079 8.55254   1
 -30  28   2 62.2927 11.2825   1
 -27  28   2 220.480 15.7140   1
 -24  28   2 229.449 13.3853   1
 -21  28   2 192.514 10.6613   1
 -18  28   2 6.65608 4.26278   1
 -15  28   2 119.578 8.50444   1
 -12  28   2 281.663 11.5546   1
  -9  28   2 262.842 11.6573   1
  -6  28   2 1.96157 5.41615   1
  -3  28   2 21.2471 5.38895   1
   0  28   2 16.0202 6.77585   1
   3  28   2 7.66732 8.20943   1
   6  28   2 58.4523 13.4029   1
   9  28   2 43.6269 13.4588   1
 -35  29   2 40.1238 11.3507   1
 -32  29   2 66.5655 13.6659   1
 -29  29   2 11.8800 7.58628   1
 -26  29   2 -1.4476 5.33465   1
 -23  29   2 3.60574 4.40306   1
 -20  29   2 3.16859 4.72094   1
 -17  29   2 166.214 10.3259   1
 -14  29   2 365.866 13.8388   1
 -11  29   2 382.386 14.7109   1
  -8  29   2 12.6623 4.92524   1
  -5  29   2 8.97045 4.86288   1
  -2  29   2 30.4376 7.57935   1
   1  29   2 30.7528 9.20976   1
   4  29   2 22.7843 10.8345   1
   7  29   2 32.5156 11.6708   1
 -34  30   2 10.7151 9.21972   1
 -31  30   2 7.30905 7.94434   1
 -28  30   2 104.351 12.3839   1
 -25  30   2 121.585 11.4593   1
 -22  30   2 128.837 9.60936   1
 -19  30   2 83.8415 8.23020   1
 -16  30   2 19.3303 5.31750   1
 -13  30   2 13.8862 5.66304   1
 -10  30   2 32.1699 6.22550   1
  -7  30   2 7.98629 6.34997   1
  -4  30   2 33.7487 8.77786   1
  -1  30   2 120.026 14.2345   1
   2  30   2 67.7958 14.1865   1
   5  30   2 8.26681 10.2469   1
 -36  31   2 11.2591 9.38149   1
 -33  31   2 14.4459 9.49725   1
 -30  31   2 7.71984 8.40994   1
 -27  31   2 159.780 16.3871   1
 -24  31   2 100.337 10.4864   1
 -21  31   2 58.0783 7.11278   1
 -18  31   2 8.26525 5.44586   1
 -15  31   2 119.041 9.56351   1
 -12  31   2 182.092 11.9524   1
  -9  31   2 37.2258 6.33520   1
  -6  31   2 18.6111 8.32307   1
  -3  31   2 16.3679 8.63547   1
   0  31   2 15.1544 8.60345   1
   3  31   2 -2.2504 8.20115   1
 -35  32   2 -6.2653 8.96132   1
 -32  32   2 4.03054 8.03757   1
  -2  32   2 23.2025 43.2565  -2
 -29  32   2 23.2025 43.2565   1
 -26  32   2 7.86937 6.02358   1
 -23  32   2 4.50365 5.57043   1
 -20  32   2 21.4677 6.41131   1
 -17  32   2 196.639 13.3990   1
 -14  32   2 251.531 14.9189   1
 -11  32   2 34.8561 7.65903   1
  -8  32   2 -2.0891 6.36143   1
  -5  32   2 14.7945 8.98189   1
  -2  32   2 32.2372 11.6337   1
   1  32   2 79.0511 18.4202   1
 -34  33   2 36.3622 12.4966   1
 -31  33   2 37.3675 11.0298   1
 -28  33   2 41.8297 11.5134   1
 -25  33   2 37.9872 9.62771   1
 -22  33   2 30.5887 7.78241   1
 -19  33   2 18.9589 6.78914   1
 -16  33   2 13.4615 7.62061   1
 -13  33   2 -2.6282 6.00420   1
 -10  33   2 4.23150 6.83854   1
  -7  33   2 67.5148 11.6557   1
  -4  33   2 130.906 18.1436   1
  -1  33   2 130.237 20.0110   1
 -33  34   2 4.60441 10.3875   1
 -30  34   2 15.9179 9.47671   1
 -27  34   2 65.0238 13.0745   1
 -24  34   2 7.93070 7.38182   1
 -21  34   2 -2.0850 6.92448   1
 -18  34   2 92.7517 12.2901   1
 -15  34   2 136.501 16.1329   1
 -12  34   2 5.46949 6.56976   1
  -9  34   2 35.9890 10.5052   1
  -6  34   2 40.9913 11.1409   1
  -3  34   2 28.6989 11.5256   1
 -32  35   2 3.45188 9.39140   1
  -5  35   2 28.8155 42.1455  -2
 -29  35   2 28.8155 42.1455   1
  -8  35   2 45.9602 43.9080  -2
 -26  35   2 45.9602 43.9080   1
 -23  35   2 0.26200 7.14532   1
 -20  35   2 21.3681 7.99259   1
 -17  35   2 137.337 14.8583   1
 -14  35   2 50.1851 10.9340   1
 -11  35   2 9.82417 8.52996   1
  -8  35   2 -3.1374 8.04926   1
  -5  35   2 6.34024 10.2371   1
 -31  36   2 6.81616 7.94640   1
  -7  36   2 26.8291 43.4724  -2
 -28  36   2 26.8291 43.4724   1
 -25  36   2 21.4678 9.08301   1
 -22  36   2 13.2986 8.25814   1
 -19  36   2 7.22839 7.32323   1
 -16  36   2 5.85991 7.40573   1
 -13  36   2 21.3270 9.78611   1
 -10  36   2 5.97850 8.26511   1
  -7  36   2 22.2586 10.4345   1
 -27  37   2 1.82370 7.51350   1
 -24  37   2 -1.4970 7.58075   1
 -21  37   2 -7.9514 6.75920   1
 -18  37   2 21.6803 8.92891   1
 -15  37   2 8.84435 8.83785   1
 -12  37   2 20.0245 9.74731   1
  -9  37   2 11.3476 8.01585   1
 -26  38   2 52.5946 13.1883   1
 -23  38   2 0.60424 8.82887   1
 -20  38   2 5.81953 7.22249   1
 -17  38   2 10.6870 8.52738   1
 -14  38   2 6.29129 8.59068   1
 -19  39   2 5.71342 8.80642   1
   0   0   3 399.589 13.1916  -2
   0   0   3 399.589 13.1916   1
   1   1   3 1153.46 14.2985  -2
   1   1   3 1153.46 14.2985   1
  -1   2   3 3086.51 32.9593  -2
  -1   2   3 3086.51 32.9593   1
   2   2   3 5778.20 54.9542  -2
   2   2   3 5778.20 54.9542   1
   0   3   3 1702.91 19.0888  -2
  -3   3   3 1702.91 19.0888   1
  -3   3   3 1587.17 18.5631  -2
   0   3   3 1587.17 18.5631   1
   3   3   3 1193.54 14.8944  -2
   3   3   3 1193.54 14.8944   1
   1   4   3 1123.66 14.3330  -2
  -5   4   3 1123.66 14.3330   1
  -2   4   3 259.279 5.63193  -2
  -2   4   3 259.279 5.63193   1
  -5   4   3 1080.61 13.4402  -2
   1   4   3 1080.61 13.4402   1
   4   4   3 175.314 5.16831  -2
   4   4   3 175.314 5.16831   1
   2   5   3 1978.18 21.6969  -2
  -7   5   3 1978.18 21.6969   1
  -1   5   3 1307.30 15.2678  -2
  -4   5   3 1307.30 15.2678   1
  -4   5   3 1254.27 15.4798  -2
  -1   5   3 1254.27 15.4798   1
  -7   5   3 1732.87 19.6010  -2
   2   5   3 1732.87 19.6010   1
   5   5   3 81.9232 4.06842  -2
   5   5   3 81.9232 4.06842   1
   3   6   3 55.2280 2.90691  -2
  -9   6   3 55.2280 2.90691   1
   0   6   3 132.281 4.17109  -2
  -6   6   3 132.281 4.17109   1
  -3   6   3 1339.73 16.7588  -2
  -3   6   3 1339.73 16.7588   1
  -6   6   3 122.571 4.04292  -2
   0   6   3 122.571 4.04292   1
  -9   6   3 42.7704 2.96977  -2
   3   6   3 42.7704 2.96977   1
   6   6   3 907.306 14.0417  -2
   6   6   3 907.306 14.0417   1
   4   7   3 1405.40 18.1271  -2
 -11   7   3 1405.40 18.1271   1
   1   7   3 1075.99 14.5889  -2
  -8   7   3 1075.99 14.5889   1
  -2   7   3 340.243 6.56594  -2
  -5   7   3 340.243 6.56594   1
  -5   7   3 378.332 7.41603  -2
  -2   7   3 378.332 7.41603   1
  -8   7   3 939.386 14.4062  -2
   1   7   3 939.386 14.4062   1
 -11   7   3 1204.01 16.5741  -2
   4   7   3 1204.01 16.5741   1
   7   7   3 818.112 13.6282  -2
   7   7   3 818.112 13.6282   1
   5   8   3 58.3112 3.83647  -2
 -13   8   3 58.3112 3.83647   1
   2   8   3 242.143 5.88874  -2
 -10   8   3 242.143 5.88874   1
  -1   8   3 1012.99 13.7953  -2
  -7   8   3 1012.99 13.7953   1
  -4   8   3 24.7719 2.32247  -2
  -4   8   3 24.7719 2.32247   1
  -7   8   3 1119.74 14.9717  -2
  -1   8   3 1119.74 14.9717   1
 -10   8   3 221.618 5.93008  -2
   2   8   3 221.618 5.93008   1
 -13   8   3 63.7998 3.91442  -2
   5   8   3 63.7998 3.91442   1
   8   8   3 9.20854 2.54974  -2
   8   8   3 9.20854 2.54974   1
   6   9   3 1269.60 18.3115  -2
 -15   9   3 1269.60 18.3115   1
   3   9   3 1460.06 17.9763  -2
 -12   9   3 1460.06 17.9763   1
   0   9   3 769.947 11.5416  -2
  -9   9   3 769.947 11.5416   1
  -3   9   3 150.917 4.28630  -2
  -6   9   3 150.917 4.28630   1
  -6   9   3 164.788 4.79422  -2
  -3   9   3 164.788 4.79422   1
  -9   9   3 675.829 12.0738  -2
   0   9   3 675.829 12.0738   1
 -12   9   3 1225.80 17.3890  -2
   3   9   3 1225.80 17.3890   1
 -15   9   3 1153.09 17.1425  -2
   6   9   3 1153.09 17.1425   1
   9   9   3 350.070 9.17522  -2
   9   9   3 350.070 9.17522   1
   7  10   3 1274.43 18.8823  -2
 -17  10   3 1274.43 18.8823   1
   4  10   3 1393.56 18.3190  -2
 -14  10   3 1393.56 18.3190   1
   1  10   3 2786.64 28.4214  -2
 -11  10   3 2786.64 28.4214   1
  -2  10   3 3131.75 33.8834  -2
  -8  10   3 3131.75 33.8834   1
  -5  10   3 1382.92 16.6170  -2
  -5  10   3 1382.92 16.6170   1
  -8  10   3 3553.96 36.4371  -2
  -2  10   3 3553.96 36.4371   1
 -11  10   3 2425.45 29.2846  -2
   1  10   3 2425.45 29.2846   1
 -14  10   3 1194.11 17.7025  -2
   4  10   3 1194.11 17.7025   1
 -17  10   3 1146.10 17.6310  -2
   7  10   3 1146.10 17.6310   1
  10  10   3 185.080 7.07968  -2
  10  10   3 185.080 7.07968   1
   8  11   3 265.687 8.23450  -2
 -19  11   3 265.687 8.23450   1
   5  11   3 81.8985 4.30749  -2
 -16  11   3 81.8985 4.30749   1
   2  11   3 506.739 9.70914  -2
 -13  11   3 506.739 9.70914   1
  -1  11   3 1469.22 19.4446  -2
 -10  11   3 1469.22 19.4446   1
  -4  11   3 2879.72 32.3466  -2
  -7  11   3 2879.72 32.3466   1
  -7  11   3 3259.04 33.9625  -2
  -4  11   3 3259.04 33.9625   1
 -10  11   3 1781.20 23.5584  -2
  -1  11   3 1781.20 23.5584   1
 -13  11   3 579.903 10.7474  -2
   2  11   3 579.903 10.7474   1
 -16  11   3 74.8468 4.64560  -2
   5  11   3 74.8468 4.64560   1
 -19  11   3 257.180 8.04059  -2
   8  11   3 257.180 8.04059   1
  11  11   3 1130.36 19.0104  -2
  11  11   3 1130.36 19.0104   1
   9  12   3 300.207 9.14298  -2
 -21  12   3 300.207 9.14298   1
   6  12   3 159.432 5.74648  -2
 -18  12   3 159.432 5.74648   1
   3  12   3 425.163 8.81220  -2
 -15  12   3 425.163 8.81220   1
   0  12   3 1672.36 21.3048  -2
 -12  12   3 1672.36 21.3048   1
  -3  12   3 864.615 13.0400  -2
  -9  12   3 864.615 13.0400   1
  -6  12   3 393.187 8.84819  -2
  -6  12   3 393.187 8.84819   1
  -9  12   3 710.505 11.7885  -2
  -3  12   3 710.505 11.7885   1
 -12  12   3 1394.78 21.1703  -2
   0  12   3 1394.78 21.1703   1
 -15  12   3 362.887 8.96128  -2
   3  12   3 362.887 8.96128   1
 -18  12   3 145.425 6.25442  -2
   6  12   3 145.425 6.25442   1
 -21  12   3 285.047 8.90813  -2
   9  12   3 285.047 8.90813   1
  12  12   3 1213.65 20.5612  -2
  12  12   3 1213.65 20.5612   1
  10  13   3 124.754 6.79655  -2
 -23  13   3 124.754 6.79655   1
   7  13   3 26.7942 3.37197  -2
 -20  13   3 26.7942 3.37197   1
   4  13   3 577.597 11.1579  -2
 -17  13   3 577.597 11.1579   1
   1  13   3 1586.24 20.6867  -2
 -14  13   3 1586.24 20.6867   1
  -2  13   3 2282.89 26.1103  -2
 -11  13   3 2282.89 26.1103   1
  -5  13   3 2155.58 24.8673  -2
  -8  13   3 2155.58 24.8673   1
  -8  13   3 2535.69 28.3389  -2
  -5  13   3 2535.69 28.3389   1
 -11  13   3 2370.27 26.4639  -2
  -2  13   3 2370.27 26.4639   1
 -14  13   3 1491.44 20.6191  -2
   1  13   3 1491.44 20.6191   1
 -17  13   3 504.600 11.1780  -2
   4  13   3 504.600 11.1780   1
 -20  13   3 17.8403 3.90308  -2
   7  13   3 17.8403 3.90308   1
 -23  13   3 136.144 6.89818  -2
  10  13   3 136.144 6.89818   1
  13  13   3 39.8263 5.88279  -2
  13  13   3 39.8263 5.88279   1
  11  14   3 1147.10 20.5379  -2
 -25  14   3 1147.10 20.5379   1
   8  14   3 633.122 13.8398  -2
 -22  14   3 633.122 13.8398   1
   5  14   3 60.6579 4.26975  -2
 -19  14   3 60.6579 4.26975   1
   2  14   3 138.150 5.80782  -2
 -16  14   3 138.150 5.80782   1
  -1  14   3 1046.56 16.4824  -2
 -13  14   3 1046.56 16.4824   1
  -4  14   3 1555.44 20.4212  -2
 -10  14   3 1555.44 20.4212   1
  -7  14   3 2962.44 32.5463  -2
  -7  14   3 2962.44 32.5463   1
 -10  14   3 1740.05 23.1039  -2
  -4  14   3 1740.05 23.1039   1
 -13  14   3 1247.28 16.7038  -2
  -1  14   3 1247.28 16.7038   1
 -16  14   3 148.103 5.80342  -2
   2  14   3 148.103 5.80342   1
 -19  14   3 72.3353 4.94419  -2
   5  14   3 72.3353 4.94419   1
 -22  14   3 736.883 15.4627  -2
   8  14   3 736.883 15.4627   1
 -25  14   3 1350.16 22.6762  -2
  11  14   3 1350.16 22.6762   1
  14  14   3 310.212 13.0882  -2
  14  14   3 310.212 13.0882   1
  12  15   3 839.788 17.9132  -2
 -27  15   3 839.788 17.9132   1
   9  15   3 722.455 15.5752  -2
 -24  15   3 722.455 15.5752   1
   6  15   3 656.756 13.0009  -2
 -21  15   3 656.756 13.0009   1
   3  15   3 491.664 10.7592  -2
 -18  15   3 491.664 10.7592   1
   0  15   3 740.440 13.0364  -2
 -15  15   3 740.440 13.0364   1
  -3  15   3 961.693 15.5770  -2
 -12  15   3 961.693 15.5770   1
  -6  15   3 333.791 7.74271  -2
  -9  15   3 333.791 7.74271   1
  -9  15   3 280.023 6.76517  -2
  -6  15   3 280.023 6.76517   1
 -12  15   3 877.455 13.7039  -2
  -3  15   3 877.455 13.7039   1
 -15  15   3 640.283 13.2023  -2
   0  15   3 640.283 13.2023   1
 -18  15   3 489.106 11.4374  -2
   3  15   3 489.106 11.4374   1
 -21  15   3 771.342 14.8846  -2
   6  15   3 771.342 14.8846   1
 -24  15   3 852.300 18.0152  -2
   9  15   3 852.300 18.0152   1
 -27  15   3 914.420 20.0309  -2
  12  15   3 914.420 20.0309   1
  15  15   3 6.06039 7.33455  -2
  15  15   3 6.06039 7.33455   1
  13  16   3 21.4477 7.17806  -2
 -29  16   3 21.4477 7.17806   1
  10  16   3 129.627 8.24151  -2
 -26  16   3 129.627 8.24151   1
   7  16   3 26.7797 4.45387  -2
 -23  16   3 26.7797 4.45387   1
   4  16   3 352.484 10.0035  -2
 -20  16   3 352.484 10.0035   1
   1  16   3 632.894 12.4326  -2
 -17  16   3 632.894 12.4326   1
  -2  16   3 1134.54 17.2811  -2
 -14  16   3 1134.54 17.2811   1
  -5  16   3 848.583 14.0570  -2
 -11  16   3 848.583 14.0570   1
  -8  16   3 1061.40 15.0476  -2
  -8  16   3 1061.40 15.0476   1
 -11  16   3 1023.49 15.0865  -2
  -5  16   3 1023.49 15.0865   1
 -14  16   3 1197.25 16.0680  -2
  -2  16   3 1197.25 16.0680   1
 -17  16   3 609.454 12.8478  -2
   1  16   3 609.454 12.8478   1
 -20  16   3 420.431 11.4171  -2
   4  16   3 420.431 11.4171   1
 -23  16   3 25.7897 4.31685  -2
   7  16   3 25.7897 4.31685   1
 -26  16   3 98.5430 7.55899  -2
  10  16   3 98.5430 7.55899   1
 -29  16   3 17.8197 7.63728  -2
  13  16   3 17.8197 7.63728   1
  16  16   3 9.07180 7.81879  -2
  16  16   3 9.07180 7.81879   1
  14  17   3 8.55395 8.01872  -2
 -31  17   3 8.55395 8.01872   1
  11  17   3 452.234 15.2718  -2
 -28  17   3 452.234 15.2718   1
   8  17   3 852.153 19.0083  -2
 -25  17   3 852.153 19.0083   1
   5  17   3 350.415 10.0329  -2
 -22  17   3 350.415 10.0329   1
   2  17   3 41.8080 4.27929  -2
 -19  17   3 41.8080 4.27929   1
  -1  17   3 276.960 8.00899  -2
 -16  17   3 276.960 8.00899   1
  -4  17   3 585.589 11.1995  -2
 -13  17   3 585.589 11.1995   1
  -7  17   3 582.269 10.5274  -2
 -10  17   3 582.269 10.5274   1
 -10  17   3 583.280 11.2388  -2
  -7  17   3 583.280 11.2388   1
 -13  17   3 709.647 11.5276  -2
  -4  17   3 709.647 11.5276   1
 -16  17   3 326.947 7.91376  -2
  -1  17   3 326.947 7.91376   1
 -19  17   3 43.5050 4.39873  -2
   2  17   3 43.5050 4.39873   1
 -22  17   3 345.451 10.4022  -2
   5  17   3 345.451 10.4022   1
 -25  17   3 915.023 19.2501  -2
   8  17   3 915.023 19.2501   1
 -28  17   3 492.945 15.6259  -2
  11  17   3 492.945 15.6259   1
 -31  17   3 24.7054 8.66097  -2
  14  17   3 24.7054 8.66097   1
  17  17   3 -1.3542 9.50924  -2
  17  17   3 -1.3542 9.50924   1
  15  18   3 7.98400 8.43853  -2
 -33  18   3 7.98400 8.43853   1
  12  18   3 178.870 13.8809  -2
 -30  18   3 178.870 13.8809   1
   9  18   3 361.132 12.9795  -2
 -27  18   3 361.132 12.9795   1
   6  18   3 636.041 13.8694  -2
 -24  18   3 636.041 13.8694   1
   3  18   3 385.011 10.2253  -2
 -21  18   3 385.011 10.2253   1
   0  18   3 96.4406 5.40149  -2
 -18  18   3 96.4406 5.40149   1
  -3  18   3 22.7933 3.16573  -2
 -15  18   3 22.7933 3.16573   1
  -6  18   3 8.54873 2.38947  -2
 -12  18   3 8.54873 2.38947   1
  -9  18   3 349.188 9.71451  -2
  -9  18   3 349.188 9.71451   1
 -12  18   3 7.18797 2.81882  -2
  -6  18   3 7.18797 2.81882   1
 -15  18   3 24.5613 2.94974  -2
  -3  18   3 24.5613 2.94974   1
 -18  18   3 90.8902 5.71666  -2
   0  18   3 90.8902 5.71666   1
 -21  18   3 459.428 11.7108  -2
   3  18   3 459.428 11.7108   1
 -24  18   3 735.845 16.4805  -2
   6  18   3 735.845 16.4805   1
 -27  18   3 468.864 13.9148  -2
   9  18   3 468.864 13.9148   1
 -30  18   3 189.007 13.2522  -2
  12  18   3 189.007 13.2522   1
 -33  18   3 26.5118 12.0810  -2
  15  18   3 26.5118 12.0810   1
  18  18   3 127.517 15.6670  -2
  18  18   3 127.517 15.6670   1
  16  19   3 44.0119 11.6048  -2
 -35  19   3 44.0119 11.6048   1
  13  19   3 31.5534 9.37211  -2
 -32  19   3 31.5534 9.37211   1
  10  19   3 60.9177 8.51549  -2
 -29  19   3 60.9177 8.51549   1
   7  19   3 167.768 8.93410  -2
 -26  19   3 167.768 8.93410   1
   4  19   3 22.7533 4.42153  -2
 -23  19   3 22.7533 4.42153   1
   1  19   3 51.8531 4.74663  -2
 -20  19   3 51.8531 4.74663   1
  -2  19   3 114.168 5.79027  -2
 -17  19   3 114.168 5.79027   1
  -5  19   3 192.960 6.71792  -2
 -14  19   3 192.960 6.71792   1
  -8  19   3 769.760 15.3835  -2
 -11  19   3 769.760 15.3835   1
 -11  19   3 728.743 14.7285  -2
  -8  19   3 728.743 14.7285   1
 -14  19   3 215.248 7.77427  -2
  -5  19   3 215.248 7.77427   1
 -17  19   3 121.948 5.40308  -2
  -2  19   3 121.948 5.40308   1
 -20  19   3 60.1375 4.97819  -2
   1  19   3 60.1375 4.97819   1
 -23  19   3 20.5559 4.88589  -2
   4  19   3 20.5559 4.88589   1
 -26  19   3 152.924 8.36791  -2
   7  19   3 152.924 8.36791   1
 -29  19   3 72.5203 8.94980  -2
  10  19   3 72.5203 8.94980   1
 -32  19   3 31.2477 8.16910  -2
  13  19   3 31.2477 8.16910   1
 -35  19   3 44.3414 10.9290  -2
  16  19   3 44.3414 10.9290   1
  19  19   3 238.799 21.7732  -2
  19  19   3 238.799 21.7732   1
  17  20   3 17.6097 11.3245  -2
 -37  20   3 17.6097 11.3245   1
  14  20   3 -10.706 8.34164  -2
 -34  20   3 -10.706 8.34164   1
  11  20   3 122.013 13.1070  -2
 -31  20   3 122.013 13.1070   1
   8  20   3 377.201 14.1955  -2
 -28  20   3 377.201 14.1955   1
   5  20   3 584.007 15.4378  -2
 -25  20   3 584.007 15.4378   1
   2  20   3 117.548 7.12521  -2
 -22  20   3 117.548 7.12521   1
  -1  20   3 30.0340 4.20404  -2
 -19  20   3 30.0340 4.20404   1
  -4  20   3 268.834 8.09374  -2
 -16  20   3 268.834 8.09374   1
  -7  20   3 123.423 6.62049  -2
 -13  20   3 123.423 6.62049   1
 -10  20   3 22.9466 4.13669  -2
 -10  20   3 22.9466 4.13669   1
 -13  20   3 114.889 6.18370  -2
  -7  20   3 114.889 6.18370   1
 -16  20   3 277.635 8.82619  -2
  -4  20   3 277.635 8.82619   1
 -19  20   3 28.0498 3.93672  -2
  -1  20   3 28.0498 3.93672   1
 -22  20   3 110.626 6.73153  -2
   2  20   3 110.626 6.73153   1
 -25  20   3 591.179 16.0975  -2
   5  20   3 591.179 16.0975   1
 -28  20   3 352.278 14.9311  -2
   8  20   3 352.278 14.9311   1
 -31  20   3 122.984 13.3169  -2
  11  20   3 122.984 13.3169   1
 -34  20   3 1.78456 7.69671  -2
  14  20   3 1.78456 7.69671   1
 -37  20   3 -9.8787 8.65990  -2
  17  20   3 -9.8787 8.65990   1
  15  21   3 47.2233 12.3295  -2
 -36  21   3 47.2233 12.3295   1
  12  21   3 56.9716 11.9985  -2
 -33  21   3 56.9716 11.9985   1
   9  21   3 5.65384 7.82249  -2
 -30  21   3 5.65384 7.82249   1
   6  21   3 127.360 9.27536  -2
 -27  21   3 127.360 9.27536   1
   3  21   3 153.066 8.33042  -2
 -24  21   3 153.066 8.33042   1
   0  21   3 20.2648 4.00074  -2
 -21  21   3 20.2648 4.00074   1
  -3  21   3 81.4520 5.26461  -2
 -18  21   3 81.4520 5.26461   1
  -6  21   3 338.492 10.4567  -2
 -15  21   3 338.492 10.4567   1
  -9  21   3 903.359 17.5268  -2
 -12  21   3 903.359 17.5268   1
 -12  21   3 783.661 16.8249  -2
  -9  21   3 783.661 16.8249   1
 -15  21   3 296.706 9.39811  -2
  -6  21   3 296.706 9.39811   1
 -18  21   3 68.2811 6.00917  -2
  -3  21   3 68.2811 6.00917   1
 -21  21   3 10.5489 4.30347  -2
   0  21   3 10.5489 4.30347   1
 -24  21   3 163.833 9.55253  -2
   3  21   3 163.833 9.55253   1
 -27  21   3 143.917 9.64785  -2
   6  21   3 143.917 9.64785   1
 -30  21   3 0.28760 6.64312  -2
   9  21   3 0.28760 6.64312   1
 -33  21   3 40.1547 10.4371  -2
  12  21   3 40.1547 10.4371   1
 -36  21   3 72.2921 14.7834  -2
  15  21   3 72.2921 14.7834   1
  16  22   3 80.7199 30.7703  -2
 -38  22   3 80.7199 30.7703   1
  13  22   3 33.6254 10.7041  -2
 -35  22   3 33.6254 10.7041   1
  10  22   3 63.4451 11.3220  -2
 -32  22   3 63.4451 11.3220   1
   7  22   3 87.2619 9.73713  -2
 -29  22   3 87.2619 9.73713   1
   4  22   3 187.236 11.6311  -2
 -26  22   3 187.236 11.6311   1
   1  22   3 23.8700 5.13832  -2
 -23  22   3 23.8700 5.13832   1
  -2  22   3 11.1095 3.84778  -2
 -20  22   3 11.1095 3.84778   1
  -5  22   3 18.8426 3.62925  -2
 -17  22   3 18.8426 3.62925   1
  -8  22   3 131.597 7.17161  -2
 -14  22   3 131.597 7.17161   1
 -11  22   3 303.324 9.94892  -2
 -11  22   3 303.324 9.94892   1
 -14  22   3 107.782 6.74247  -2
  -8  22   3 107.782 6.74247   1
 -17  22   3 12.9563 3.86393  -2
  -5  22   3 12.9563 3.86393   1
 -20  22   3 8.26161 4.76119  -2
  -2  22   3 8.26161 4.76119   1
 -23  22   3 18.4584 5.36428  -2
   1  22   3 18.4584 5.36428   1
 -26  22   3 165.626 10.7000  -2
   4  22   3 165.626 10.7000   1
 -29  22   3 87.5812 10.4994  -2
   7  22   3 87.5812 10.4994   1
 -32  22   3 59.8407 11.9206  -2
  10  22   3 59.8407 11.9206   1
 -35  22   3 25.8059 13.2955  -2
  13  22   3 25.8059 13.2955   1
 -38  22   3 80.9064 38.6524  -2
  16  22   3 80.9064 38.6524   1
  14  23   3 21.7351 10.2152  -2
 -37  23   3 21.7351 10.2152   1
  11  23   3 48.8724 10.5774  -2
 -34  23   3 48.8724 10.5774   1
   8  23   3 165.402 15.6805  -2
 -31  23   3 165.402 15.6805   1
   5  23   3 218.087 13.5050  -2
 -28  23   3 218.087 13.5050   1
   2  23   3 323.770 13.2994  -2
 -25  23   3 323.770 13.2994   1
  -1  23   3 3.46137 4.27650  -2
 -22  23   3 3.46137 4.27650   1
  -4  23   3 81.9056 5.64930  -2
 -19  23   3 81.9056 5.64930   1
  -7  23   3 347.901 11.0907  -2
 -16  23   3 347.901 11.0907   1
 -10  23   3 163.063 7.90077  -2
 -13  23   3 163.063 7.90077   1
 -13  23   3 159.759 8.40740  -2
 -10  23   3 159.759 8.40740   1
 -16  23   3 332.557 11.0144  -2
  -7  23   3 332.557 11.0144   1
 -19  23   3 54.5937 5.79198  -2
  -4  23   3 54.5937 5.79198   1
 -22  23   3 10.3545 4.62512  -2
  -1  23   3 10.3545 4.62512   1
 -25  23   3 287.769 13.6497  -2
   2  23   3 287.769 13.6497   1
 -28  23   3 188.518 13.5658  -2
   5  23   3 188.518 13.5658   1
 -31  23   3 131.099 15.6107  -2
   8  23   3 131.099 15.6107   1
 -34  23   3 43.6617 11.0955  -2
  11  23   3 43.6617 11.0955   1
 -37  23   3 3.89715 10.4115  -2
  14  23   3 3.89715 10.4115   1
  12  24   3 28.0838 9.97067  -2
 -36  24   3 28.0838 9.97067   1
   9  24   3 34.6988 10.8798  -2
 -33  24   3 34.6988 10.8798   1
   6  24   3 -1.4376 8.28975  -2
 -30  24   3 -1.4376 8.28975   1
   3  24   3 27.4894 8.07453  -2
 -27  24   3 27.4894 8.07453   1
   0  24   3 48.0334 6.73897  -2
 -24  24   3 48.0334 6.73897   1
  -3  24   3 358.042 13.1284  -2
 -21  24   3 358.042 13.1284   1
  -6  24   3 720.048 19.0531  -2
 -18  24   3 720.048 19.0531   1
  -9  24   3 716.650 16.6859  -2
 -15  24   3 716.650 16.6859   1
 -12  24   3 311.221 10.6162  -2
 -12  24   3 311.221 10.6162   1
 -15  24   3 622.358 16.1753  -2
  -9  24   3 622.358 16.1753   1
 -18  24   3 721.147 16.8334  -2
  -6  24   3 721.147 16.8334   1
 -21  24   3 352.582 13.4230  -2
  -3  24   3 352.582 13.4230   1
 -24  24   3 42.3626 6.97364  -2
   0  24   3 42.3626 6.97364   1
 -27  24   3 18.7113 7.89647  -2
   3  24   3 18.7113 7.89647   1
 -30  24   3 6.75082 7.39289  -2
   6  24   3 6.75082 7.39289   1
 -33  24   3 2.94538 8.16760  -2
   9  24   3 2.94538 8.16760   1
 -36  24   3 -2.4201 9.30682  -2
  12  24   3 -2.4201 9.30682   1
  10  25   3 21.9802 11.2215  -2
 -35  25   3 21.9802 11.2215   1
   7  25   3 189.216 18.4048  -2
 -32  25   3 189.216 18.4048   1
   4  25   3 116.992 13.5252  -2
 -29  25   3 116.992 13.5252   1
   1  25   3 283.541 14.0368  -2
 -26  25   3 283.541 14.0368   1
  -2  25   3 324.050 13.9692  -2
 -23  25   3 324.050 13.9692   1
  -5  25   3 405.514 14.0791  -2
 -20  25   3 405.514 14.0791   1
  -8  25   3 173.146 9.22214  -2
 -17  25   3 173.146 9.22214   1
 -11  25   3 8.85711 4.00842  -2
 -14  25   3 8.85711 4.00842   1
 -14  25   3 16.4313 4.70632  -2
 -11  25   3 16.4313 4.70632   1
 -17  25   3 190.144 10.6706  -2
  -8  25   3 190.144 10.6706   1
 -20  25   3 459.004 15.9314  -2
  -5  25   3 459.004 15.9314   1
 -23  25   3 361.644 13.8558  -2
  -2  25   3 361.644 13.8558   1
 -26  25   3 285.767 15.0627  -2
   1  25   3 285.767 15.0627   1
 -29  25   3 93.1754 13.3140  -2
   4  25   3 93.1754 13.3140   1
 -32  25   3 171.424 16.4709  -2
   7  25   3 171.424 16.4709   1
 -35  25   3 5.51093 10.1849  -2
  10  25   3 5.51093 10.1849   1
  11  26   3 30.1691 11.3927  -2
 -37  26   3 30.1691 11.3927   1
   8  26   3 52.8533 13.2273  -2
 -34  26   3 52.8533 13.2273   1
   5  26   3 98.8157 13.5628  -2
 -31  26   3 98.8157 13.5628   1
   2  26   3 260.893 16.8450  -2
 -28  26   3 260.893 16.8450   1
  -1  26   3 80.3480 10.2371  -2
 -25  26   3 80.3480 10.2371   1
  -4  26   3 150.785 10.7096  -2
 -22  26   3 150.785 10.7096   1
  -7  26   3 303.280 13.7977  -2
 -19  26   3 303.280 13.7977   1
 -10  26   3 585.860 16.4793  -2
 -16  26   3 585.860 16.4793   1
 -13  26   3 423.122 14.1744  -2
 -13  26   3 423.122 14.1744   1
 -16  26   3 508.782 15.7681  -2
 -10  26   3 508.782 15.7681   1
 -19  26   3 263.179 12.5448  -2
  -7  26   3 263.179 12.5448   1
 -22  26   3 111.242 8.77058  -2
  -4  26   3 111.242 8.77058   1
 -25  26   3 62.7370 8.42222  -2
  -1  26   3 62.7370 8.42222   1
 -28  26   3 233.019 19.5658  -2
   2  26   3 233.019 19.5658   1
 -31  26   3 111.232 16.7084  -2
   5  26   3 111.232 16.7084   1
 -34  26   3 79.7137 15.8194  -2
   8  26   3 79.7137 15.8194   1
 -37  26   3 14.4528 12.4096  -2
  11  26   3 14.4528 12.4096   1
   9  27   3 -3.3716 10.5955  -2
 -36  27   3 -3.3716 10.5955   1
   6  27   3 -2.0378 10.0786  -2
 -33  27   3 -2.0378 10.0786   1
   3  27   3 44.4260 10.5050  -2
 -30  27   3 44.4260 10.5050   1
   0  27   3 76.8664 11.4050  -2
 -27  27   3 76.8664 11.4050   1
  -3  27   3 239.587 13.8253  -2
 -24  27   3 239.587 13.8253   1
  -6  27   3 686.184 18.9758  -2
 -21  27   3 686.184 18.9758   1
  -9  27   3 655.956 19.5819  -2
 -18  27   3 655.956 19.5819   1
 -12  27   3 322.409 13.0101  -2
 -15  27   3 322.409 13.0101   1
 -15  27   3 279.881 12.2686  -2
 -12  27   3 279.881 12.2686   1
 -18  27   3 562.307 18.7618  -2
  -9  27   3 562.307 18.7618   1
 -21  27   3 701.244 21.3479  -2
  -6  27   3 701.244 21.3479   1
 -24  27   3 274.523 13.6944  -2
  -3  27   3 274.523 13.6944   1
 -27  27   3 75.3252 12.2761  -2
   0  27   3 75.3252 12.2761   1
 -30  27   3 73.8227 12.4279  -2
   3  27   3 73.8227 12.4279   1
 -33  27   3 5.05290 9.91697  -2
   6  27   3 5.05290 9.91697   1
 -36  27   3 -0.7967 10.6124  -2
   9  27   3 -0.7967 10.6124   1
   7  28   3 96.0363 15.2309  -2
 -35  28   3 96.0363 15.2309   1
   4  28   3 70.4401 13.5929  -2
 -32  28   3 70.4401 13.5929   1
   1  28   3 38.9535 10.0795  -2
 -29  28   3 38.9535 10.0795   1
  -2  28   3 159.834 14.1995  -2
 -26  28   3 159.834 14.1995   1
  -5  28   3 492.471 17.1104  -2
 -23  28   3 492.471 17.1104   1
  -8  28   3 451.823 17.2995  -2
 -20  28   3 451.823 17.2995   1
 -11  28   3 29.6747 6.84360  -2
 -17  28   3 29.6747 6.84360   1
 -14  28   3 23.4853 5.87952  -2
 -14  28   3 23.4853 5.87952   1
 -17  28   3 26.1809 6.59631  -2
 -11  28   3 26.1809 6.59631   1
 -20  28   3 515.368 18.5102  -2
  -8  28   3 515.368 18.5102   1
 -23  28   3 562.693 19.5009  -2
  -5  28   3 562.693 19.5009   1
 -26  28   3 246.992 20.6350  -2
  -2  28   3 246.992 20.6350   1
 -29  28   3 42.6929 9.94743  -2
   1  28   3 42.6929 9.94743   1
 -32  28   3 73.7920 14.9338  -2
   4  28   3 73.7920 14.9338   1
 -35  28   3 123.449 20.8257  -2
   7  28   3 123.449 20.8257   1
   5  29   3 136.980 17.2601  -2
 -34  29   3 136.980 17.2601   1
   2  29   3 141.261 17.6331  -2
 -31  29   3 141.261 17.6331   1
  -1  29   3 57.3222 10.5022  -2
 -28  29   3 57.3222 10.5022   1
  -4  29   3 18.4571 7.56368  -2
 -25  29   3 18.4571 7.56368   1
  -7  29   3 147.510 11.1021  -2
 -22  29   3 147.510 11.1021   1
 -10  29   3 127.762 11.3741  -2
 -19  29   3 127.762 11.3741   1
 -13  29   3 225.423 12.3630  -2
 -16  29   3 225.423 12.3630   1
 -16  29   3 208.895 13.4293  -2
 -13  29   3 208.895 13.4293   1
 -19  29   3 146.318 11.3775  -2
 -10  29   3 146.318 11.3775   1
 -22  29   3 103.379 10.6847  -2
  -7  29   3 103.379 10.6847   1
 -25  29   3 11.3302 9.15661  -2
  -4  29   3 11.3302 9.15661   1
 -28  29   3 36.7419 11.1527  -2
  -1  29   3 36.7419 11.1527   1
 -31  29   3 174.380 19.4770  -2
   2  29   3 174.380 19.4770   1
 -34  29   3 159.792 19.8010  -2
   5  29   3 159.792 19.8010   1
   3  30   3 21.5107 11.3602  -2
 -33  30   3 21.5107 11.3602   1
   0  30   3 37.7384 11.4823  -2
 -30  30   3 37.7384 11.4823   1
  -3  30   3 136.893 15.1590  -2
 -27  30   3 136.893 15.1590   1
  -6  30   3 289.616 18.2937  -2
 -24  30   3 289.616 18.2937   1
  -9  30   3 413.699 18.4564  -2
 -21  30   3 413.699 18.4564   1
 -12  30   3 160.226 12.9576  -2
 -18  30   3 160.226 12.9576   1
 -15  30   3 128.446 11.3904  -2
 -15  30   3 128.446 11.3904   1
 -18  30   3 137.615 10.7475  -2
 -12  30   3 137.615 10.7475   1
 -21  30   3 403.832 18.0919  -2
  -9  30   3 403.832 18.0919   1
 -24  30   3 329.432 18.6878  -2
  -6  30   3 329.432 18.6878   1
 -27  30   3 145.365 15.7870  -2
  -3  30   3 145.365 15.7870   1
 -30  30   3 71.2454 16.4483  -2
   0  30   3 71.2454 16.4483   1
 -33  30   3 26.8721 11.8445  -2
   3  30   3 26.8721 11.8445   1
   1  31   3 16.8370 11.0338  -2
 -32  31   3 16.8370 11.0338   1
  -2  31   3 36.9141 11.1744  -2
 -29  31   3 36.9141 11.1744   1
  -5  31   3 210.578 18.4911  -2
 -26  31   3 210.578 18.4911   1
  -8  31   3 278.640 18.4508  -2
 -23  31   3 278.640 18.4508   1
 -11  31   3 53.4153 8.86681  -2
 -20  31   3 53.4153 8.86681   1
 -14  31   3 14.2838 7.41003  -2
 -17  31   3 14.2838 7.41003   1
 -17  31   3 24.3685 8.10764  -2
 -14  31   3 24.3685 8.10764   1
 -20  31   3 51.9581 11.6171  -2
 -11  31   3 51.9581 11.6171   1
 -23  31   3 346.170 20.4079  -2
  -8  31   3 346.170 20.4079   1
 -26  31   3 245.041 19.3478  -2
  -5  31   3 245.041 19.3478   1
 -29  31   3 21.7634 10.3203  -2
  -2  31   3 21.7634 10.3203   1
 -32  31   3 19.7625 10.0472  -2
   1  31   3 19.7625 10.0472   1
   2  32   3 67.1500 32.4077  -2
 -34  32   3 67.1500 32.4077   1
  -1  32   3 25.4440 9.67339  -2
 -31  32   3 25.4440 9.67339   1
  -4  32   3 12.8184 9.14816  -2
 -28  32   3 12.8184 9.14816   1
  -7  32   3 20.5814 8.99222  -2
 -25  32   3 20.5814 8.99222   1
 -10  32   3 59.7245 11.0038  -2
 -22  32   3 59.7245 11.0038   1
 -13  32   3 19.6940 8.33328  -2
 -19  32   3 19.6940 8.33328   1
 -16  32   3 14.3767 7.28522  -2
 -16  32   3 14.3767 7.28522   1
 -19  32   3 30.5638 8.77992  -2
 -13  32   3 30.5638 8.77992   1
 -22  32   3 62.4167 11.4911  -2
 -10  32   3 62.4167 11.4911   1
 -25  32   3 10.3371 8.80383  -2
  -7  32   3 10.3371 8.80383   1
 -28  32   3 15.8657 10.6908  -2
  -4  32   3 15.8657 10.6908   1
 -31  32   3 18.0246 10.9421  -2
  -1  32   3 18.0246 10.9421   1
 -34  32   3 46.5302 30.1843  -2
   2  32   3 46.5302 30.1843   1
   0  33   3 27.8938 11.2492  -2
 -33  33   3 27.8938 11.2492   1
  -3  33   3 92.5539 14.9860  -2
 -30  33   3 92.5539 14.9860   1
  -6  33   3 145.383 16.2701  -2
 -27  33   3 145.383 16.2701   1
  -9  33   3 145.271 15.4296  -2
 -24  33   3 145.271 15.4296   1
 -12  33   3 1.69352 7.63788  -2
 -21  33   3 1.69352 7.63788   1
 -15  33   3 15.4823 7.95602  -2
 -18  33   3 15.4823 7.95602   1
 -18  33   3 12.4171 9.87856  -2
 -15  33   3 12.4171 9.87856   1
 -21  33   3 17.4244 9.19094  -2
 -12  33   3 17.4244 9.19094   1
 -24  33   3 161.887 16.6643  -2
  -9  33   3 161.887 16.6643   1
 -27  33   3 117.007 14.9720  -2
  -6  33   3 117.007 14.9720   1
 -30  33   3 89.3812 13.3185  -2
  -3  33   3 89.3812 13.3185   1
 -33  33   3 35.8856 14.6857  -2
   0  33   3 35.8856 14.6857   1
  -2  34   3 128.726 38.2962  -2
 -32  34   3 128.726 38.2962   1
  -5  34   3 292.213 24.6889  -2
 -29  34   3 292.213 24.6889   1
  -8  34   3 222.118 20.3248  -2
 -26  34   3 222.118 20.3248   1
 -11  34   3 35.0105 10.4245  -2
 -23  34   3 35.0105 10.4245   1
 -14  34   3 16.4617 9.17388  -2
 -20  34   3 16.4617 9.17388   1
 -17  34   3 53.8388 12.2335  -2
 -17  34   3 53.8388 12.2335   1
 -20  34   3 12.1709 10.5219  -2
 -14  34   3 12.1709 10.5219   1
 -23  34   3 24.5619 9.86521  -2
 -11  34   3 24.5619 9.86521   1
 -26  34   3 171.372 17.7356  -2
  -8  34   3 171.372 17.7356   1
 -29  34   3 258.478 20.6788  -2
  -5  34   3 258.478 20.6788   1
 -32  34   3 75.5113 32.0587  -2
  -2  34   3 75.5113 32.0587   1
  -7  35   3 35.6504 12.2449  -2
 -28  35   3 35.6504 12.2449   1
 -10  35   3 43.3480 11.2971  -2
 -25  35   3 43.3480 11.2971   1
 -13  35   3 29.0409 9.60236  -2
 -22  35   3 29.0409 9.60236   1
 -16  35   3 41.6091 11.0920  -2
 -19  35   3 41.6091 11.0920   1
 -19  35   3 19.7839 10.0817  -2
 -16  35   3 19.7839 10.0817   1
 -22  35   3 -7.0614 7.81882  -2
 -13  35   3 -7.0614 7.81882   1
 -25  35   3 18.3879 9.69643  -2
 -10  35   3 18.3879 9.69643   1
 -28  35   3 22.8655 9.98218  -2
  -7  35   3 22.8655 9.98218   1
  -9  36   3 47.4406 12.4081  -2
 -27  36   3 47.4406 12.4081   1
 -12  36   3 -2.2134 7.75026  -2
 -24  36   3 -2.2134 7.75026   1
 -15  36   3 12.0166 8.58483  -2
 -21  36   3 12.0166 8.58483   1
 -18  36   3 6.37603 8.22257  -2
 -18  36   3 6.37603 8.22257   1
 -21  36   3 -2.6227 8.56378  -2
 -15  36   3 -2.6227 8.56378   1
 -24  36   3 16.2334 8.68120  -2
 -12  36   3 16.2334 8.68120   1
 -27  36   3 33.3410 11.5567  -2
  -9  36   3 33.3410 11.5567   1
 -11  37   3 16.7480 11.0212  -2
 -26  37   3 16.7480 11.0212   1
 -14  37   3 32.4614 10.2324  -2
 -23  37   3 32.4614 10.2324   1
 -17  37   3 116.961 15.6144  -2
 -20  37   3 116.961 15.6144   1
 -20  37   3 94.0762 12.9808  -2
 -17  37   3 94.0762 12.9808   1
 -23  37   3 54.2263 12.2864  -2
 -14  37   3 54.2263 12.2864   1
 -26  37   3 19.0819 9.43338  -2
 -11  37   3 19.0819 9.43338   1
 -16  38   3 85.8366 26.2336  -2
 -22  38   3 85.8366 26.2336   1
 -19  38   3 72.8630 14.2107  -2
 -19  38   3 72.8630 14.2107   1
 -22  38   3 108.071 28.6445  -2
 -16  38   3 108.071 28.6445   1
  -1   1   4 60.3400 4.19458   1
  -3   2   4 363.502 8.21540   1
   0   2   4 427.876 8.93588   1
  -5   3   4 84.0679 4.65399   1
  -2   3   4 1512.19 19.7545   1
   1   3   4 937.594 13.6022   1
  -7   4   4 16.9504 2.27687   1
  -4   4   4 60.1889 3.74021   1
  -1   4   4 270.931 6.56559   1
   2   4   4 196.321 5.55363   1
  -9   5   4 173.985 5.31648   1
  -6   5   4 496.512 9.87691   1
  -3   5   4 1847.00 21.2470   1
   0   5   4 561.161 10.0443   1
   3   5   4 104.015 4.35636   1
 -11   6   4 10.4192 2.12756   1
  -8   6   4 267.653 6.83470   1
  -5   6   4 2577.28 30.8854   1
  -2   6   4 2195.79 25.3783   1
   1   6   4 274.932 7.39388   1
   4   6   4 15.8584 2.49643   1
 -13   7   4 120.621 5.95499   1
 -10   7   4 3.64736 1.56349   1
  -7   7   4 18.6604 2.34033   1
  -4   7   4 22.5441 2.82620   1
  -1   7   4 4.19125 1.64575   1
   2   7   4 5.52444 1.64233   1
   5   7   4 177.288 6.48995   1
 -15   8   4 282.365 8.36176   1
 -12   8   4 3.18689 1.83244   1
  -9   8   4 993.881 15.1385   1
  -6   8   4 2819.49 29.4084   1
  -3   8   4 1877.08 23.3660   1
   0   8   4 215.141 6.47035   1
   3   8   4 3.13526 1.81059   1
   6   8   4 26.5504 3.13008   1
 -17   9   4 24.1622 3.36642   1
 -14   9   4 29.6316 3.38219   1
 -11   9   4 91.6095 4.66971   1
  -8   9   4 3075.93 32.1420   1
  -5   9   4 2914.25 31.7339   1
  -2   9   4 808.185 13.0408   1
   1   9   4 120.070 6.12896   1
   4   9   4 457.184 10.1432   1
   7   9   4 870.038 15.5375   1
 -19  10   4 215.695 8.03021   1
 -16  10   4 74.4760 5.20430   1
 -13  10   4 53.4467 3.81030   1
 -10  10   4 59.6413 4.33688   1
  -7  10   4 10.5967 2.05316   1
  -4  10   4 5.59167 1.67931   1
  -1  10   4 10.6550 1.92650   1
   2  10   4 336.441 10.1747   1
   5  10   4 1183.44 18.4071   1
   8  10   4 821.675 15.5074   1
 -21  11   4 200.124 8.05347   1
 -18  11   4 173.572 7.55486   1
 -15  11   4 2.99343 2.13924   1
 -12  11   4 299.280 8.09569   1
  -9  11   4 3601.37 36.1267   1
  -6  11   4 3019.72 34.4675   1
  -3  11   4 672.825 12.3669   1
   0  11   4 3.99766 2.42835   1
   3  11   4 13.6974 2.39954   1
   6  11   4 5.69471 2.34164   1
   9  11   4 22.7757 3.54054   1
 -23  12   4 160.711 8.62907   1
 -20  12   4 4.64767 2.68618   1
 -17  12   4 11.3286 2.71263   1
 -14  12   4 2.00629 2.07739   1
 -11  12   4 768.306 13.2513   1
  -8  12   4 2648.26 32.1507   1
  -5  12   4 2015.15 24.4911   1
  -2  12   4 210.889 6.43164   1
   1  12   4 367.234 9.79986   1
   4  12   4 841.272 15.5102   1
   7  12   4 1040.60 18.0755   1
  10  12   4 492.037 12.6312   1
 -25  13   4 56.3956 5.52675   1
 -22  13   4 279.338 9.77379   1
 -19  13   4 84.0421 5.83952   1
 -16  13   4 20.7318 3.06437   1
 -13  13   4 59.6912 4.41581   1
 -10  13   4 2.93603 1.71181   1
  -7  13   4 181.895 6.73177   1
  -4  13   4 353.608 8.36469   1
  -1  13   4 3.25633 2.29107   1
   2  13   4 495.875 12.2453   1
   5  13   4 726.225 14.8845   1
   8  13   4 512.494 13.0397   1
  11  13   4 6.85336 3.58566   1
 -27  14   4 76.2552 7.42049   1
 -24  14   4 8.04649 3.51105   1
 -21  14   4 338.144 10.3958   1
 -18  14   4 400.516 10.6398   1
 -15  14   4 208.831 7.09004   1
 -12  14   4 16.1823 2.59694   1
  -9  14   4 417.296 9.77808   1
  -6  14   4 92.8796 4.92329   1
  -3  14   4 114.964 5.31384   1
   0  14   4 33.0001 3.71740   1
   3  14   4 3.25342 2.70823   1
   6  14   4 6.54074 3.09535   1
   9  14   4 24.4358 4.18183   1
  12  14   4 94.0857 9.04128   1
 -29  15   4 94.6073 10.0191   1
 -26  15   4 84.0248 6.78627   1
 -23  15   4 19.3216 3.47529   1
 -20  15   4 516.990 12.8818   1
 -17  15   4 922.654 15.9474   1
 -14  15   4 207.839 7.11450   1
 -11  15   4 7.27128 2.20431   1
  -8  15   4 674.324 12.8678   1
  -5  15   4 191.821 6.30017   1
  -2  15   4 24.8481 3.57254   1
   1  15   4 578.443 13.5726   1
   4  15   4 457.789 11.7840   1
   7  15   4 406.144 11.4851   1
  10  15   4 5.17317 3.66811   1
  13  15   4 -5.6616 4.91788   1
 -31  16   4 5.68549 7.33763   1
 -28  16   4 -2.0131 4.88863   1
 -25  16   4 20.9992 4.19535   1
 -22  16   4 34.2536 4.44255   1
 -19  16   4 557.841 12.7476   1
 -16  16   4 293.699 8.62477   1
 -13  16   4 78.2516 5.07532   1
 -10  16   4 12.9170 2.52875   1
  -7  16   4 415.637 9.84227   1
  -4  16   4 496.555 10.9509   1
  -1  16   4 18.6118 3.10203   1
   2  16   4 293.794 9.90301   1
   5  16   4 475.292 12.6869   1
   8  16   4 78.8696 6.05371   1
  11  16   4 41.6353 6.18979   1
  14  16   4 159.433 15.8798   1
 -33  17   4 294.486 24.5793   1
 -30  17   4 180.736 13.0811   1
 -27  17   4 220.066 11.8204   1
 -24  17   4 8.73337 3.77540   1
 -21  17   4 17.0959 3.71068   1
 -18  17   4 116.607 6.51698   1
 -15  17   4 28.5482 3.49676   1
 -12  17   4 81.9981 5.35830   1
  -9  17   4 69.8839 4.84003   1
  -6  17   4 214.285 7.17968   1
  -3  17   4 227.057 7.95377   1
   0  17   4 92.1388 6.20738   1
   3  17   4 17.2268 3.96389   1
   6  17   4 4.71194 3.34136   1
   9  17   4 -2.1587 3.83968   1
  12  17   4 53.6129 9.32961   1
  15  17   4 113.712 14.4970   1
 -35  18   4 92.2835 15.1436   1
 -32  18   4 124.963 14.7885   1
 -29  18   4 127.587 10.6884   1
 -26  18   4 0.63416 4.35227   1
 -23  18   4 154.254 8.53011   1
 -20  18   4 1426.30 21.9908   1
 -17  18   4 945.734 16.6470   1
 -14  18   4 595.511 12.7321   1
 -11  18   4 102.099 5.88446   1
  -8  18   4 141.837 6.25507   1
  -5  18   4 38.9259 3.51676   1
  -2  18   4 18.4460 3.47070   1
   1  18   4 51.1941 5.28546   1
   4  18   4 24.0807 4.80735   1
   7  18   4 5.12560 4.10622   1
  10  18   4 4.79243 5.39205   1
  13  18   4 2.80735 6.89430   1
  16  18   4 0.30144 7.61781   1
 -34  19   4 16.9776 9.56887   1
 -31  19   4 18.3699 6.97870   1
 -28  19   4 20.4105 5.48665   1
 -25  19   4 115.994 8.37692   1
 -22  19   4 528.573 13.5875   1
 -19  19   4 963.715 17.5844   1
 -16  19   4 441.161 11.1353   1
 -13  19   4 21.5499 3.35121   1
 -10  19   4 6.12514 2.33223   1
  -7  19   4 669.923 13.5658   1
  -4  19   4 583.334 12.2410   1
  -1  19   4 36.2910 4.44346   1
   2  19   4 11.2759 3.89097   1
   5  19   4 9.05238 4.04962   1
   8  19   4 7.48672 5.24055   1
  11  19   4 69.1049 10.0664   1
  14  19   4 62.6812 12.2854   1
  17  19   4 21.5180 10.2724   1
 -36  20   4 127.670 18.4846   1
 -33  20   4 138.224 16.6568   1
 -30  20   4 55.9401 9.94191   1
 -27  20   4 35.4986 6.79086   1
 -24  20   4 8.53918 3.86195   1
 -21  20   4 28.2325 4.04491   1
 -18  20   4 8.86360 2.96771   1
 -15  20   4 75.9783 5.65818   1
 -12  20   4 166.732 7.53685   1
  -9  20   4 149.010 8.41010   1
  -6  20   4 485.228 13.0886   1
  -3  20   4 374.300 11.0509   1
   0  20   4 1.92016 3.43595   1
   3  20   4 56.8022 6.23389   1
   6  20   4 45.1200 6.10603   1
   9  20   4 21.4329 6.53362   1
  12  20   4 5.11430 8.12226   1
  15  20   4 48.4550 12.7786   1
 -35  21   4 57.5956 12.2728   1
 -32  21   4 139.846 16.5062   1
 -29  21   4 18.3898 6.02789   1
 -26  21   4 12.8321 5.41446   1
 -23  21   4 439.568 14.7541   1
 -20  21   4 800.553 16.4084   1
 -17  21   4 365.995 10.9026   1
 -14  21   4 44.1263 4.44685   1
 -11  21   4 72.3805 6.32092   1
  -8  21   4 98.7077 7.18013   1
  -5  21   4 4.26110 3.21329   1
  -2  21   4 21.9496 4.52821   1
   1  21   4 39.3883 5.56734   1
   4  21   4 107.266 8.59405   1
   7  21   4 31.8454 7.85224   1
  10  21   4 67.1444 11.5410   1
  13  21   4 15.8940 11.3513   1
 -34  22   4 12.7322 7.03015   1
 -31  22   4 13.4824 8.86327   1
 -28  22   4 -4.6071 6.02110   1
 -25  22   4 106.928 10.2652   1
 -22  22   4 361.784 13.4268   1
 -19  22   4 368.018 12.0024   1
 -16  22   4 41.3369 4.47132   1
 -13  22   4 42.6689 5.04044   1
 -10  22   4 161.669 8.41059   1
  -7  22   4 870.136 20.1120   1
  -4  22   4 545.612 17.3116   1
  -1  22   4 15.4772 4.59408   1
   2  22   4 10.7167 4.95967   1
   5  22   4 -4.7920 5.33094   1
   8  22   4 -1.6127 7.81124   1
  11  22   4 -2.2860 9.65720   1
  14  22   4 23.2403 12.8140   1
 -36  23   4 27.7803 10.2988   1
 -33  23   4 22.7534 10.5883   1
 -30  23   4 3.58294 7.04447   1
 -27  23   4 10.4989 5.64365   1
 -24  23   4 24.1320 5.77110   1
 -21  23   4 0.38731 3.73085   1
 -18  23   4 5.62644 4.29531   1
 -15  23   4 2.43602 3.78560   1
 -12  23   4 272.339 10.6480   1
  -9  23   4 123.683 7.81595   1
  -6  23   4 555.016 18.1058   1
  -3  23   4 45.5708 5.90914   1
   0  23   4 25.6937 5.84561   1
   3  23   4 69.4620 8.91149   1
   6  23   4 27.1668 8.22451   1
   9  23   4 7.29381 8.92944   1
  12  23   4 -1.7469 8.07907   1
 -35  24   4 29.9625 10.2773   1
 -32  24   4 22.2457 9.45653   1
 -29  24   4 -5.9840 6.41767   1
 -26  24   4 200.517 14.5550   1
 -23  24   4 235.198 13.4432   1
 -20  24   4 159.143 9.83712   1
 -17  24   4 0.95198 3.87143   1
 -14  24   4 6.27076 3.69231   1
 -11  24   4 4.71822 3.62824   1
  -8  24   4 42.3935 5.94458   1
  -5  24   4 19.4582 4.66129   1
  -2  24   4 9.49438 5.18591   1
   1  24   4 62.3886 8.71927   1
   4  24   4 37.9822 9.80321   1
   7  24   4 23.6606 10.2655   1
  10  24   4 6.50782 9.02472   1
 -34  25   4 49.0038 12.7928   1
 -31  25   4 33.6180 11.0354   1
 -28  25   4 -0.8775 6.76528   1
 -25  25   4 37.0514 7.15110   1
 -22  25   4 110.758 10.1490   1
 -19  25   4 40.2546 5.95461   1
 -16  25   4 10.7087 4.42330   1
 -13  25   4 123.311 8.70181   1
 -10  25   4 175.481 10.4172   1
  -7  25   4 379.165 14.4424   1
  -4  25   4 25.4686 6.09816   1
  -1  25   4 21.5230 6.73377   1
   2  25   4 -2.1089 7.15538   1
   5  25   4 13.4752 7.82035   1
   8  25   4 55.1520 14.1120   1
 -33  26   4 -2.3300 7.22341   1
 -30  26   4 73.5757 12.4087   1
 -27  26   4 55.7343 10.1540   1
 -24  26   4 13.0503 7.05995   1
 -21  26   4 14.4848 5.46930   1
 -18  26   4 66.9767 7.67433   1
 -15  26   4 11.8854 4.56081   1
 -12  26   4 211.856 12.0187   1
  -9  26   4 71.5058 8.01876   1
  -6  26   4 48.2915 7.16257   1
  -3  26   4 17.2453 5.81786   1
   0  26   4 238.104 21.9164   1
   3  26   4 87.5441 14.0975   1
   6  26   4 57.0489 12.8750   1
   9  26   4 39.0189 11.5389   1
 -35  27   4 9.71545 9.29207   1
 -32  27   4 16.8648 10.7584   1
 -29  27   4 17.6873 8.61411   1
 -26  27   4 72.6933 11.9583   1
 -23  27   4 23.7170 6.88844   1
 -20  27   4 17.5420 6.07311   1
 -17  27   4 11.4242 4.67534   1
 -14  27   4 4.08975 4.39587   1
 -11  27   4 -0.6166 4.49792   1
  -8  27   4 60.0858 7.59227   1
  -5  27   4 10.7505 5.53270   1
  -2  27   4 35.1185 8.28712   1
   1  27   4 100.929 14.8720   1
   4  27   4 101.200 15.8644   1
   7  27   4 3.43978 10.2474   1
 -34  28   4 39.7210 12.6431   1
 -31  28   4 97.1064 15.9081   1
 -28  28   4 28.4960 9.11840   1
 -25  28   4 -11.167 6.33845   1
 -22  28   4 27.2362 7.29674   1
 -19  28   4 16.0682 6.64790   1
 -16  28   4 15.9461 6.85401   1
 -13  28   4 106.391 9.27110   1
 -10  28   4 47.8103 7.13371   1
  -7  28   4 38.4496 7.74534   1
  -4  28   4 12.3926 6.94291   1
  -1  28   4 18.7649 8.23898   1
   2  28   4 0.19057 9.45368   1
   5  28   4 -4.4497 11.4510   1
 -33  29   4 43.9355 12.1729   1
 -30  29   4 124.520 17.5364   1
 -27  29   4 28.2750 8.99061   1
 -24  29   4 35.9682 8.90625   1
 -21  29   4 218.525 17.1502   1
 -18  29   4 68.8614 8.83636   1
 -15  29   4 22.3528 6.34820   1
 -12  29   4 81.4018 10.0209   1
  -9  29   4 9.75476 6.11133   1
  -6  29   4 -3.3906 5.58900   1
  -3  29   4 61.8267 11.7281   1
   0  29   4 103.514 14.2011   1
   3  29   4 57.1183 16.1797   1
 -32  30   4 39.3242 10.5925   1
 -29  30   4 3.81488 7.63927   1
 -26  30   4 6.14214 8.02858   1
 -23  30   4 90.2109 13.8510   1
 -20  30   4 70.3931 11.4670   1
 -17  30   4 60.1012 8.91831   1
 -14  30   4 6.74556 6.03769   1
 -11  30   4 4.93974 7.46468   1
  -8  30   4 14.6478 6.86436   1
  -5  30   4 -0.4616 7.45776   1
  -2  30   4 7.44926 7.51395   1
   1  30   4 128.032 16.5220   1
  -1  31   4 355.553 69.1148  -2
 -31  31   4 355.553 69.1148   1
 -28  31   4 48.7952 11.1134   1
 -25  31   4 -3.5036 7.31132   1
 -22  31   4 32.2104 9.36285   1
 -19  31   4 0.66811 6.58878   1
 -16  31   4 -5.8944 7.87256   1
 -13  31   4 2.76681 6.49607   1
 -10  31   4 31.9542 8.04634   1
  -7  31   4 29.0770 9.58555   1
  -4  31   4 15.7456 8.81441   1
  -1  31   4 9.29477 9.65669   1
  -3  32   4 206.807 54.0183  -2
 -30  32   4 206.807 54.0183   1
 -27  32   4 8.81591 9.03094   1
 -24  32   4 164.840 16.6632   1
 -21  32   4 173.153 17.9137   1
 -18  32   4 61.9445 11.0605   1
 -15  32   4 10.5664 7.63071   1
 -12  32   4 16.4198 8.52398   1
  -9  32   4 -12.390 8.28100   1
  -6  32   4 14.9327 8.76337   1
  -3  32   4 8.06619 8.51409   1
 -29  33   4 -6.1869 8.38200   1
 -26  33   4 22.0311 9.36396   1
 -23  33   4 73.1689 13.2737   1
 -20  33   4 27.9562 9.35887   1
 -17  33   4 0.43146 6.63423   1
 -14  33   4 21.3482 9.21365   1
 -11  33   4 166.459 19.0039   1
  -8  33   4 136.910 16.9357   1
  -5  33   4 66.4271 12.9794   1
 -28  34   4 23.4101 9.34465   1
 -25  34   4 37.4939 10.2830   1
 -22  34   4 49.4077 11.1517   1
 -19  34   4 39.8508 10.2990   1
 -16  34   4 123.443 15.0051   1
 -13  34   4 140.350 17.9830   1
 -10  34   4 200.755 19.7257   1
  -7  34   4 45.8354 12.3333   1
 -27  35   4 70.3117 13.0324   1
 -24  35   4 279.701 22.8260   1
 -21  35   4 204.924 18.9206   1
 -18  35   4 134.749 16.3595   1
 -15  35   4 120.055 15.9087   1
 -12  35   4 12.1581 8.91089   1
  -9  35   4 4.93627 8.80159   1
 -23  36   4 147.835 16.9473   1
 -20  36   4 99.0663 13.8654   1
 -17  36   4 16.4498 9.53103   1
 -14  36   4 29.8373 10.4485   1
   0   1   5 147.146 6.25269   1
  -2   2   5 270.452 8.00521   1
   1   2   5 835.166 15.3314   1
  -4   3   5 2415.50 28.5410   1
  -1   3   5 69.1779 4.49071   1
   2   3   5 309.277 7.94444   1
  -6   4   5 1112.40 17.5044   1
  -3   4   5 42.9926 3.47919   1
   0   4   5 1260.81 17.7802   1
   3   4   5 3518.19 36.9177   1
  -8   5   5 904.916 14.5445   1
  -5   5   5 295.242 8.23173   1
  -2   5   5 715.550 12.4725   1
   1   5   5 1028.37 16.3795   1
   4   5   5 423.304 9.15928   1
 -10   6   5 788.506 13.3135   1
  -7   6   5 1847.04 25.8409   1
  -4   6   5 408.983 9.12000   1
  -1   6   5 29.2153 3.16932   1
   2   6   5 575.561 10.9754   1
   5   6   5 3.54521 2.19102   1
 -12   7   5 305.831 9.10737   1
  -9   7   5 136.712 5.95806   1
  -6   7   5 188.404 6.69914   1
  -3   7   5 148.567 6.18904   1
   0   7   5 1714.08 23.4238   1
   3   7   5 936.067 17.3748   1
   6   7   5 386.870 11.2933   1
 -14   8   5 217.284 7.70614   1
 -11   8   5 47.7749 3.94518   1
  -8   8   5 228.086 7.15369   1
  -5   8   5 125.567 6.14525   1
  -2   8   5 103.668 5.46527   1
   1   8   5 412.784 9.37897   1
   4   8   5 378.065 9.85468   1
   7   8   5 9.57735 2.85739   1
 -16   9   5 262.793 8.79749   1
 -13   9   5 457.599 11.4100   1
 -10   9   5 41.1789 3.81770   1
  -7   9   5 157.484 6.77678   1
  -4   9   5 30.5947 3.34792   1
  -1   9   5 664.066 12.5410   1
   2   9   5 7.27230 2.29664   1
   5   9   5 65.8701 5.25684   1
   8   9   5 333.366 9.95872   1
 -18  10   5 184.514 7.76146   1
 -15  10   5 3.89259 2.57093   1
 -12  10   5 122.741 6.21114   1
  -9  10   5 29.1714 3.20962   1
  -6  10   5 19.4240 2.84728   1
  -3  10   5 537.982 11.2376   1
   0  10   5 460.323 11.3700   1
   3  10   5 217.133 8.64975   1
   6  10   5 52.8164 5.16682   1
   9  10   5 6.69603 2.95640   1
 -20  11   5 386.440 11.8379   1
 -17  11   5 314.717 9.64376   1
 -14  11   5 41.2636 3.76269   1
 -11  11   5 392.174 9.65518   1
  -8  11   5 27.8283 3.36756   1
  -5  11   5 121.784 5.93395   1
  -2  11   5 38.8013 3.67477   1
   1  11   5 166.550 7.77280   1
   4  11   5 11.2183 2.81633   1
   7  11   5 257.480 9.99335   1
  10  11   5 383.310 11.9710   1
 -22  12   5 18.2578 4.28482   1
 -19  12   5 8.63223 3.25573   1
 -16  12   5 50.1766 4.67762   1
 -13  12   5 110.753 5.53414   1
 -10  12   5 653.850 12.7207   1
  -7  12   5 178.698 7.00334   1
  -4  12   5 1005.69 16.3893   1
  -1  12   5 80.5124 5.95124   1
   2  12   5 6.43954 2.64664   1
   5  12   5 13.9352 3.50877   1
   8  12   5 160.911 8.90073   1
  11  12   5 173.451 9.93085   1
 -24  13   5 288.613 11.6343   1
 -21  13   5 581.794 14.5499   1
 -18  13   5 372.705 11.2030   1
 -15  13   5 36.2743 3.93299   1
 -12  13   5 6.87071 2.41624   1
  -9  13   5 71.4186 4.77646   1
  -6  13   5 87.0409 5.53532   1
  -3  13   5 168.828 7.14298   1
   0  13   5 203.477 8.29670   1
   3  13   5 6.26354 2.61029   1
   6  13   5 73.6952 6.46360   1
   9  13   5 6.25034 3.68669   1
  12  13   5 0.86806 4.28325   1
 -26  14   5 45.7108 7.11404   1
 -23  14   5 208.251 11.2363   1
 -20  14   5 380.659 11.6913   1
 -17  14   5 156.999 8.31952   1
 -14  14   5 177.386 7.14035   1
 -11  14   5 517.955 12.3349   1
  -8  14   5 82.7574 5.09107   1
  -5  14   5 34.0087 3.53191   1
  -2  14   5 112.413 6.71665   1
   1  14   5 514.402 12.7205   1
   4  14   5 21.0276 3.92597   1
   7  14   5 13.0872 4.00679   1
  10  14   5 16.6977 4.85086   1
  13  14   5 5.20276 5.73306   1
 -28  15   5 2.29572 5.66790   1
 -25  15   5 45.3039 6.14015   1
 -22  15   5 26.9515 4.55230   1
 -19  15   5 13.8005 3.60057   1
 -16  15   5 89.1449 5.84211   1
 -13  15   5 210.322 8.32184   1
 -10  15   5 410.271 11.2402   1
  -7  15   5 28.2644 3.61391   1
  -4  15   5 24.9950 3.53102   1
  -1  15   5 475.284 12.1135   1
   2  15   5 988.534 18.7969   1
   5  15   5 312.082 11.5666   1
   8  15   5 1.41384 3.59624   1
  11  15   5 11.7187 5.86679   1
  14  15   5 -1.7266 6.81898   1
 -30  16   5 17.4239 8.73784   1
 -27  16   5 130.408 10.9199   1
 -24  16   5 405.044 13.6524   1
 -21  16   5 478.531 13.8174   1
 -18  16   5 180.690 8.18767   1
 -15  16   5 50.1241 4.86459   1
 -12  16   5 202.393 8.31264   1
  -9  16   5 13.7992 2.84636   1
  -6  16   5 287.267 8.95490   1
  -3  16   5 210.439 8.96416   1
   0  16   5 244.340 9.29307   1
   3  16   5 702.845 17.2007   1
   6  16   5 129.780 8.28326   1
   9  16   5 9.15174 4.96962   1
  12  16   5 10.1112 6.77553   1
  15  16   5 71.0344 14.8024   1
 -32  17   5 10.9637 8.79957   1
 -29  17   5 10.0036 7.10922   1
 -26  17   5 88.1321 8.28326   1
 -23  17   5 192.933 10.1938   1
 -20  17   5 230.833 10.5032   1
 -17  17   5 123.321 7.52578   1
 -14  17   5 886.768 18.9104   1
 -11  17   5 1169.82 20.0310   1
  -8  17   5 560.678 12.9735   1
  -5  17   5 212.429 8.95248   1
  -2  17   5 7.29186 3.19534   1
   1  17   5 110.490 7.54830   1
   4  17   5 -1.1503 3.42463   1
   7  17   5 1.00429 5.15098   1
  10  17   5 10.5244 6.08540   1
  13  17   5 93.4104 13.6225   1
  16  17   5 16.8711 8.12333   1
 -34  18   5 -0.0888 9.84927   1
 -31  18   5 13.1150 8.88756   1
 -28  18   5 35.5994 8.07014   1
 -25  18   5 33.4453 6.14322   1
 -22  18   5 24.5643 4.80164   1
 -19  18   5 72.4185 5.80312   1
 -16  18   5 232.602 10.3503   1
 -13  18   5 353.708 10.4406   1
 -10  18   5 720.601 14.8136   1
  -7  18   5 7.48365 2.73046   1
  -4  18   5 100.746 7.44211   1
  -1  18   5 898.806 18.8754   1
   2  18   5 1126.36 21.2106   1
   5  18   5 141.928 9.09081   1
   8  18   5 17.3437 6.21109   1
  11  18   5 6.79178 7.24693   1
  14  18   5 7.81889 8.15668   1
  17  18   5 23.1015 13.3645   1
 -33  19   5 -0.9162 10.1266   1
 -30  19   5 3.93188 7.02177   1
 -27  19   5 103.901 11.1609   1
 -24  19   5 231.830 13.1554   1
 -21  19   5 295.568 12.1517   1
 -18  19   5 4.00437 3.21095   1
 -15  19   5 64.8546 6.46160   1
 -12  19   5 67.9099 5.61579   1
  -9  19   5 105.930 6.29940   1
  -6  19   5 491.443 12.2403   1
  -3  19   5 491.357 13.3126   1
   0  19   5 703.680 19.0354   1
   3  19   5 355.012 14.0994   1
   6  19   5 38.6595 7.10643   1
   9  19   5 39.2648 9.18627   1
  12  19   5 247.550 20.2726   1
  15  19   5 128.875 17.6856   1
 -32  20   5 3.05574 9.57125   1
 -29  20   5 3.69003 7.34120   1
 -26  20   5 47.4402 8.44652   1
 -23  20   5 109.454 8.89792   1
 -20  20   5 1.84489 4.16046   1
 -17  20   5 198.886 9.44033   1
 -14  20   5 482.467 13.5133   1
 -11  20   5 702.030 16.3375   1
  -8  20   5 311.650 10.4441   1
  -5  20   5 84.4953 7.20124   1
  -2  20   5 5.12154 3.68769   1
   1  20   5 83.7540 8.57751   1
   4  20   5 6.72030 5.70357   1
   7  20   5 21.3599 8.25681   1
  10  20   5 191.317 19.2895   1
  13  20   5 140.515 19.5231   1
 -34  21   5 50.0022 12.9502   1
 -31  21   5 -0.8684 7.73813   1
 -28  21   5 9.02049 6.55039   1
 -25  21   5 -2.0566 5.07008   1
 -22  21   5 3.49588 4.99239   1
 -19  21   5 8.29027 4.47342   1
 -16  21   5 109.355 8.88004   1
 -13  21   5 276.642 12.7611   1
 -10  21   5 228.818 10.9438   1
  -7  21   5 36.4294 5.11485   1
  -4  21   5 253.239 13.0302   1
  -1  21   5 721.357 21.1411   1
   2  21   5 480.427 16.8465   1
   5  21   5 32.6168 8.00613   1
   8  21   5 3.43331 6.23546   1
  11  21   5 10.7095 9.44974   1
 -33  22   5 1.27491 9.01620   1
 -30  22   5 -5.8572 6.73970   1
 -27  22   5 7.23045 7.20785   1
 -24  22   5 29.6721 7.14722   1
 -21  22   5 15.4651 5.90497   1
 -18  22   5 16.4877 4.93466   1
 -15  22   5 6.97162 3.81585   1
 -12  22   5 3.45662 3.87249   1
  -9  22   5 22.4796 4.69097   1
  -6  22   5 114.872 8.88820   1
  -3  22   5 287.186 14.0193   1
   0  22   5 164.570 12.3909   1
   3  22   5 104.817 11.7065   1
 -28  21   5 -21.724 30.0732  -2
   6  22   5 -21.724 30.0732   1
   9  22   5 164.430 16.5812   1
  12  22   5 285.345 25.2248   1
 -32  23   5 19.1893 10.4253   1
 -29  23   5 28.4714 8.78022   1
 -26  23   5 44.9666 10.1573   1
 -23  23   5 13.5413 6.78204   1
 -20  23   5 4.36457 4.56571   1
 -17  23   5 46.7835 6.16551   1
 -14  23   5 67.4505 6.62156   1
 -11  23   5 65.1406 7.22071   1
  -8  23   5 3.93478 4.24029   1
  -5  23   5 3.23137 4.39296   1
  -2  23   5 24.4445 6.68536   1
   1  23   5 28.1995 7.63692   1
 -27  22   5 18.8639 30.0855  -2
   4  23   5 18.8639 30.0855   1
   7  23   5 81.3550 12.4247   1
  10  23   5 123.454 27.5170   1
 -34  24   5 48.8477 14.4091   1
 -31  24   5 12.9438 9.28251   1
 -28  24   5 38.3620 10.6826   1
 -25  24   5 110.375 14.2577   1
 -22  24   5 232.770 18.1673   1
 -19  24   5 65.7206 8.10760   1
 -16  24   5 36.3907 5.94585   1
 -13  24   5 37.2711 6.79279   1
 -10  24   5 23.7978 4.88695   1
  -7  24   5 29.3306 5.78085   1
  -4  24   5 104.650 10.1072   1
  -1  24   5 106.415 13.2890   1
   2  24   5 48.6940 11.1825   1
 -29  23   5 -36.198 30.9491  -2
   5  24   5 -36.198 30.9491   1
   8  24   5 14.9114 8.51357   1
 -33  25   5 14.6145 10.0163   1
 -30  25   5 97.0821 14.1935   1
 -27  25   5 33.7602 10.5406   1
 -24  25   5 153.212 14.8085   1
 -21  25   5 142.100 13.8813   1
 -18  25   5 32.8530 7.56443   1
 -15  25   5 32.3584 6.22826   1
 -12  25   5 15.9116 5.38746   1
  -9  25   5 19.1332 5.22631   1
  -6  25   5 7.80394 5.55558   1
  -3  25   5 15.6206 6.94799   1
   0  25   5 55.7659 10.6916   1
   3  25   5 14.9022 7.34061   1
   6  25   5 26.1086 10.0463   1
 -32  26   5 14.3320 9.64155   1
 -29  26   5 -0.4789 8.14909   1
 -26  26   5 9.25062 7.40185   1
 -23  26   5 -0.7813 6.72769   1
 -20  26   5 8.96941 6.41970   1
 -17  26   5 1.36024 7.42210   1
 -14  26   5 26.2317 6.64707   1
 -11  26   5 57.9565 8.40490   1
  -8  26   5 26.4203 6.43062   1
  -5  26   5 21.1456 6.29136   1
  -2  26   5 7.48526 6.54881   1
   1  26   5 12.5237 8.35983   1
   4  26   5 9.14497 9.27712   1
   7  26   5 10.9210 10.4034   1
 -31  27   5 24.7991 9.24408   1
 -28  27   5 20.3826 10.0582   1
 -25  27   5 121.534 15.0042   1
 -22  27   5 167.742 18.1015   1
 -19  27   5 3.58791 6.65229   1
 -16  27   5 30.6832 8.07296   1
 -13  27   5 -1.6502 5.38901   1
 -10  27   5 3.32906 6.45831   1
  -7  27   5 32.8701 8.25766   1
  -4  27   5 15.4348 7.66127   1
  -1  27   5 6.46196 8.20630   1
   2  27   5 4.42790 9.77841   1
   5  27   5 38.3498 14.4959   1
 -30  28   5 73.7263 11.7892   1
 -27  28   5 88.9150 13.9518   1
 -24  28   5 133.490 16.1529   1
 -21  28   5 122.595 13.6983   1
 -18  28   5 11.2626 7.28059   1
 -15  28   5 171.165 16.8908   1
 -12  28   5 230.533 19.9798   1
  -9  28   5 31.1980 8.95532   1
  -6  28   5 12.6555 8.31851   1
 -25  27   5 138.270 41.2036  -2
  -3  28   5 138.270 41.2036   1
   0  28   5 -1.3773 7.76456   1
 -31  27   5 77.8388 43.0887  -2
   3  28   5 77.8388 43.0887   1
 -29  29   5 12.5465 7.84421   1
 -26  29   5 1.60591 6.97165   1
 -23  29   5 7.75940 7.56682   1
 -20  29   5 2.69917 7.72830   1
 -17  29   5 20.2897 8.45042   1
 -14  29   5 231.054 17.9722   1
 -11  29   5 98.5886 12.5283   1
  -8  29   5 26.2668 9.43143   1
 -24  28   5 144.607 43.9294  -2
  -5  29   5 144.607 43.9294   1
 -27  28   5 158.594 44.8335  -2
  -2  29   5 158.594 44.8335   1
 -30  28   5 167.041 48.3212  -2
   1  29   5 167.041 48.3212   1
 -28  30   5 42.6333 10.6912   1
 -25  30   5 82.6047 11.9618   1
 -22  30   5 58.4128 12.1275   1
 -19  30   5 16.6310 7.54500   1
 -16  30   5 39.1797 10.0744   1
 -13  30   5 17.6698 8.93684   1
 -10  30   5 1.85536 7.65203   1
  -7  30   5 17.6729 8.31801   1
 -26  29   5 64.4867 38.4322  -2
  -4  30   5 64.4867 38.4322   1
 -29  29   5 46.5022 41.8165  -2
  -1  30   5 46.5022 41.8165   1
 -27  31   5 23.9890 11.1280   1
 -24  31   5 34.9916 10.5662   1
 -21  31   5 11.6694 8.38832   1
 -18  31   5 140.147 16.3911   1
 -15  31   5 321.177 22.8554   1
 -12  31   5 141.975 16.0670   1
  -9  31   5 29.5002 9.00654   1
  -6  31   5 19.5731 9.33109   1
 -28  30   5 65.2410 42.2964  -2
  -3  31   5 65.2410 42.2964   1
 -26  32   5 7.25772 8.50515   1
 -23  32   5 16.5248 8.10427   1
 -20  32   5 29.5312 10.2515   1
 -17  32   5 105.828 16.1959   1
 -14  32   5 191.872 20.7134   1
 -11  32   5 56.9276 11.6365   1
  -8  32   5 11.7322 7.24091   1
  -5  32   5 32.9684 10.8266   1
 -25  33   5 47.9137 10.6466   1
 -22  33   5 15.2017 8.17025   1
 -19  33   5 7.21183 9.45727   1
 -16  33   5 28.8911 9.43830   1
 -13  33   5 4.15326 7.47298   1
 -10  33   5 8.69708 7.07335   1
  -7  33   5 7.49464 8.29279   1
 -24  34   5 28.7843 9.05730   1
 -21  34   5 -0.4995 7.32353   1
 -18  34   5 119.452 14.9376   1
 -15  34   5 125.548 16.5301   1
 -12  34   5 26.9730 10.0494   1
 -17  35   5 14.5119 11.6829   1
   0   0   6 1534.84 39.1825  -2
   0   0   6 1534.84 39.1825   1
   1   1   6 445.187 11.1915  -2
   1   1   6 445.187 11.1915   1
  -1   2   6 2900.73 34.4339  -2
  -1   2   6 2900.73 34.4339   1
   2   2   6 2301.75 30.1033  -2
   2   2   6 2301.75 30.1033   1
   0   3   6 1114.50 17.6576  -2
  -3   3   6 1114.50 17.6576   1
  -3   3   6 1104.24 18.0398  -2
   0   3   6 1104.24 18.0398   1
   3   3   6 979.907 17.0540  -2
   3   3   6 979.907 17.0540   1
   1   4   6 9.27062 2.53926  -2
  -5   4   6 9.27062 2.53926   1
  -2   4   6 38.7129 3.71039  -2
  -2   4   6 38.7129 3.71039   1
  -5   4   6 10.2926 2.44817  -2
   1   4   6 10.2926 2.44817   1
   4   4   6 67.7863 4.84252  -2
   4   4   6 67.7863 4.84252   1
   2   5   6 495.167 11.1434  -2
  -7   5   6 495.167 11.1434   1
  -1   5   6 335.716 8.92391  -2
  -4   5   6 335.716 8.92391   1
  -4   5   6 349.335 8.82959  -2
  -1   5   6 349.335 8.82959   1
  -7   5   6 550.267 11.6131  -2
   2   5   6 550.267 11.6131   1
   5   5   6 468.733 10.4435  -2
   5   5   6 468.733 10.4435   1
   3   6   6 451.636 10.6456  -2
  -9   6   6 451.636 10.6456   1
   0   6   6 645.238 13.8592  -2
  -6   6   6 645.238 13.8592   1
  -3   6   6 328.736 8.60199  -2
  -3   6   6 328.736 8.60199   1
  -6   6   6 702.379 13.9766  -2
   0   6   6 702.379 13.9766   1
  -9   6   6 394.768 10.1343  -2
   3   6   6 394.768 10.1343   1
   6   6   6 829.871 16.7717  -2
   6   6   6 829.871 16.7717   1
   4   7   6 354.488 9.10427  -2
 -11   7   6 354.488 9.10427   1
   1   7   6 141.836 6.33627  -2
  -8   7   6 141.836 6.33627   1
  -2   7   6 214.256 7.07960  -2
  -5   7   6 214.256 7.07960   1
  -5   7   6 231.901 7.65133  -2
  -2   7   6 231.901 7.65133   1
  -8   7   6 126.435 6.36499  -2
   1   7   6 126.435 6.36499   1
 -11   7   6 338.336 10.4233  -2
   4   7   6 338.336 10.4233   1
   7   7   6 172.722 8.31635  -2
   7   7   6 172.722 8.31635   1
   5   8   6 390.604 11.1389  -2
 -13   8   6 390.604 11.1389   1
   2   8   6 357.664 9.50047  -2
 -10   8   6 357.664 9.50047   1
  -1   8   6 69.4940 5.29878  -2
  -7   8   6 69.4940 5.29878   1
  -4   8   6 26.4390 3.20223  -2
  -4   8   6 26.4390 3.20223   1
  -7   8   6 73.2169 5.08954  -2
  -1   8   6 73.2169 5.08954   1
 -10   8   6 339.212 10.2567  -2
   2   8   6 339.212 10.2567   1
 -13   8   6 391.623 11.4544  -2
   5   8   6 391.623 11.4544   1
   8   8   6 205.606 8.96355  -2
   8   8   6 205.606 8.96355   1
   6   9   6 1171.93 20.5596  -2
 -15   9   6 1171.93 20.5596   1
   3   9   6 1622.56 22.9171  -2
 -12   9   6 1622.56 22.9171   1
   0   9   6 760.044 15.5630  -2
  -9   9   6 760.044 15.5630   1
  -3   9   6 120.748 6.52994  -2
  -6   9   6 120.748 6.52994   1
  -6   9   6 150.946 6.93140  -2
  -3   9   6 150.946 6.93140   1
  -9   9   6 675.763 13.3110  -2
   0   9   6 675.763 13.3110   1
 -12   9   6 1423.94 23.6275  -2
   3   9   6 1423.94 23.6275   1
 -15   9   6 1049.72 20.0995  -2
   6   9   6 1049.72 20.0995   1
   9   9   6 257.473 10.6271  -2
   9   9   6 257.473 10.6271   1
   7  10   6 452.536 13.4983  -2
 -17  10   6 452.536 13.4983   1
   4  10   6 965.646 18.9881  -2
 -14  10   6 965.646 18.9881   1
   1  10   6 813.356 15.0760  -2
 -11  10   6 813.356 15.0760   1
  -2  10   6 119.375 6.84008  -2
  -8  10   6 119.375 6.84008   1
  -5  10   6 310.414 8.97672  -2
  -5  10   6 310.414 8.97672   1
  -8  10   6 115.565 6.28170  -2
  -2  10   6 115.565 6.28170   1
 -11  10   6 786.365 16.0770  -2
   1  10   6 786.365 16.0770   1
 -14  10   6 948.814 18.9826  -2
   4  10   6 948.814 18.9826   1
 -17  10   6 363.912 11.9906  -2
   7  10   6 363.912 11.9906   1
  10  10   6 106.253 8.55526  -2
  10  10   6 106.253 8.55526   1
   8  11   6 75.7633 6.96812  -2
 -19  11   6 75.7633 6.96812   1
   5  11   6 209.860 9.45880  -2
 -16  11   6 209.860 9.45880   1
   2  11   6 249.721 8.42798  -2
 -13  11   6 249.721 8.42798   1
  -1  11   6 557.555 13.1297  -2
 -10  11   6 557.555 13.1297   1
  -4  11   6 117.928 6.47197  -2
  -7  11   6 117.928 6.47197   1
  -7  11   6 121.726 6.17640  -2
  -4  11   6 121.726 6.17640   1
 -10  11   6 564.486 13.4054  -2
  -1  11   6 564.486 13.4054   1
 -13  11   6 257.856 9.34876  -2
   2  11   6 257.856 9.34876   1
 -16  11   6 204.337 8.65514  -2
   5  11   6 204.337 8.65514   1
 -19  11   6 71.0722 6.28868  -2
   8  11   6 71.0722 6.28868   1
  11  11   6 145.973 10.6762  -2
  11  11   6 145.973 10.6762   1
   9  12   6 84.5391 8.45751  -2
 -21  12   6 84.5391 8.45751   1
   6  12   6 629.654 15.6332  -2
 -18  12   6 629.654 15.6332   1
   3  12   6 1510.37 25.9022  -2
 -15  12   6 1510.37 25.9022   1
   0  12   6 799.399 17.1853  -2
 -12  12   6 799.399 17.1853   1
  -3  12   6 77.5330 5.47289  -2
  -9  12   6 77.5330 5.47289   1
  -6  12   6 300.008 9.18440  -2
  -6  12   6 300.008 9.18440   1
  -9  12   6 71.8597 5.08695  -2
  -3  12   6 71.8597 5.08695   1
 -12  12   6 719.621 15.5812  -2
   0  12   6 719.621 15.5812   1
 -15  12   6 1369.10 22.9923  -2
   3  12   6 1369.10 22.9923   1
 -18  12   6 566.304 15.2011  -2
   6  12   6 566.304 15.2011   1
 -21  12   6 77.7876 7.88653  -2
   9  12   6 77.7876 7.88653   1
  12  12   6 62.1291 9.58126  -2
  12  12   6 62.1291 9.58126   1
  10  13   6 53.7032 7.54880  -2
 -23  13   6 53.7032 7.54880   1
   7  13   6 166.997 9.38537  -2
 -20  13   6 166.997 9.38537   1
   4  13   6 629.358 15.4845  -2
 -17  13   6 629.358 15.4845   1
   1  13   6 1497.90 26.0358  -2
 -14  13   6 1497.90 26.0358   1
  -2  13   6 1094.74 22.2262  -2
 -11  13   6 1094.74 22.2262   1
  -5  13   6 424.767 11.2463  -2
  -8  13   6 424.767 11.2463   1
  -8  13   6 469.243 11.2847  -2
  -5  13   6 469.243 11.2847   1
 -11  13   6 1167.82 20.5770  -2
  -2  13   6 1167.82 20.5770   1
 -14  13   6 1493.98 25.1830  -2
   1  13   6 1493.98 25.1830   1
 -17  13   6 585.122 15.4038  -2
   4  13   6 585.122 15.4038   1
 -20  13   6 154.367 8.72413  -2
   7  13   6 154.367 8.72413   1
 -23  13   6 24.1682 7.98848  -2
  10  13   6 24.1682 7.98848   1
  13  13   6 9.43027 9.37792  -2
  13  13   6 9.43027 9.37792   1
  11  14   6 157.587 12.1332  -2
 -25  14   6 157.587 12.1332   1
   8  14   6 41.8353 7.12307  -2
 -22  14   6 41.8353 7.12307   1
   5  14   6 26.0458 5.54422  -2
 -19  14   6 26.0458 5.54422   1
   2  14   6 214.682 10.5534  -2
 -16  14   6 214.682 10.5534   1
  -1  14   6 406.406 13.1737  -2
 -13  14   6 406.406 13.1737   1
  -4  14   6 576.279 14.0049  -2
 -10  14   6 576.279 14.0049   1
  -7  14   6 33.7197 4.37815  -2
  -7  14   6 33.7197 4.37815   1
 -10  14   6 632.951 13.1794  -2
  -4  14   6 632.951 13.1794   1
 -13  14   6 461.894 12.8098  -2
  -1  14   6 461.894 12.8098   1
 -16  14   6 232.632 9.81506  -2
   2  14   6 232.632 9.81506   1
 -19  14   6 32.9072 5.00786  -2
   5  14   6 32.9072 5.00786   1
 -22  14   6 63.2538 7.61511  -2
   8  14   6 63.2538 7.61511   1
 -25  14   6 151.610 12.8942  -2
  11  14   6 151.610 12.8942   1
  14  14   6 9.68888 13.1557  -2
  14  14   6 9.68888 13.1557   1
  12  15   6 71.5209 13.8551  -2
 -27  15   6 71.5209 13.8551   1
   9  15   6 14.1574 6.41789  -2
 -24  15   6 14.1574 6.41789   1
   6  15   6 16.7941 5.84739  -2
 -21  15   6 16.7941 5.84739   1
   3  15   6 484.890 14.6800  -2
 -18  15   6 484.890 14.6800   1
   0  15   6 532.453 15.7247  -2
 -15  15   6 532.453 15.7247   1
  -3  15   6 78.4035 6.39673  -2
 -12  15   6 78.4035 6.39673   1
  -6  15   6 107.127 6.74197  -2
  -9  15   6 107.127 6.74197   1
  -9  15   6 97.0143 6.74090  -2
  -6  15   6 97.0143 6.74090   1
 -12  15   6 80.4206 6.35504  -2
  -3  15   6 80.4206 6.35504   1
 -15  15   6 469.178 13.2218  -2
   0  15   6 469.178 13.2218   1
 -18  15   6 439.695 12.9815  -2
   3  15   6 439.695 12.9815   1
 -21  15   6 29.5958 6.64935  -2
   6  15   6 29.5958 6.64935   1
 -24  15   6 -3.1042 6.91608  -2
   9  15   6 -3.1042 6.91608   1
 -27  15   6 95.9714 12.8434  -2
  12  15   6 95.9714 12.8434   1
  15  15   6 5.41013 9.89513  -2
  15  15   6 5.41013 9.89513   1
  13  16   6 175.053 18.0794  -2
 -29  16   6 175.053 18.0794   1
  10  16   6 95.1515 11.7698  -2
 -26  16   6 95.1515 11.7698   1
   7  16   6 175.480 12.7762  -2
 -23  16   6 175.480 12.7762   1
   4  16   6 30.9948 6.20248  -2
 -20  16   6 30.9948 6.20248   1
   1  16   6 120.988 9.08844  -2
 -17  16   6 120.988 9.08844   1
  -2  16   6 594.665 15.9126  -2
 -14  16   6 594.665 15.9126   1
  -5  16   6 545.689 14.3408  -2
 -11  16   6 545.689 14.3408   1
  -8  16   6 192.754 9.99479  -2
  -8  16   6 192.754 9.99479   1
 -11  16   6 605.094 17.0735  -2
  -5  16   6 605.094 17.0735   1
 -14  16   6 622.434 15.7973  -2
  -2  16   6 622.434 15.7973   1
 -17  16   6 124.992 7.54155  -2
   1  16   6 124.992 7.54155   1
 -20  16   6 17.9518 5.94718  -2
   4  16   6 17.9518 5.94718   1
 -23  16   6 158.329 12.1986  -2
   7  16   6 158.329 12.1986   1
 -26  16   6 107.454 12.7622  -2
  10  16   6 107.454 12.7622   1
 -29  16   6 111.090 14.3598  -2
  13  16   6 111.090 14.3598   1
  16  16   6 152.042 19.7970  -2
  16  16   6 152.042 19.7970   1
  14  17   6 191.539 23.7255  -2
 -31  17   6 191.539 23.7255   1
  11  17   6 110.194 14.7808  -2
 -28  17   6 110.194 14.7808   1
   8  17   6 370.100 19.6635  -2
 -25  17   6 370.100 19.6635   1
   5  17   6 262.884 14.6255  -2
 -22  17   6 262.884 14.6255   1
   2  17   6 163.601 10.1047  -2
 -19  17   6 163.601 10.1047   1
  -1  17   6 27.7552 5.35481  -2
 -16  17   6 27.7552 5.35481   1
  -4  17   6 240.977 10.0377  -2
 -13  17   6 240.977 10.0377   1
  -7  17   6 305.182 11.2920  -2
 -10  17   6 305.182 11.2920   1
 -10  17   6 331.005 13.2201  -2
  -7  17   6 331.005 13.2201   1
 -13  17   6 245.097 10.4275  -2
  -4  17   6 245.097 10.4275   1
 -16  17   6 32.2431 5.19890  -2
  -1  17   6 32.2431 5.19890   1
 -19  17   6 161.357 10.2057  -2
   2  17   6 161.357 10.2057   1
 -22  17   6 292.784 14.3423  -2
   5  17   6 292.784 14.3423   1
 -25  17   6 457.178 20.5242  -2
   8  17   6 457.178 20.5242   1
 -28  17   6 168.050 17.6471  -2
  11  17   6 168.050 17.6471   1
 -31  17   6 189.566 19.2451  -2
  14  17   6 189.566 19.2451   1
  12  18   6 179.846 18.0473  -2
 -30  18   6 179.846 18.0473   1
   9  18   6 136.438 15.8920  -2
 -27  18   6 136.438 15.8920   1
   6  18   6 39.8039 8.32993  -2
 -24  18   6 39.8039 8.32993   1
   3  18   6 23.3079 6.69235  -2
 -21  18   6 23.3079 6.69235   1
   0  18   6 130.391 10.3040  -2
 -18  18   6 130.391 10.3040   1
  -3  18   6 107.597 8.32871  -2
 -15  18   6 107.597 8.32871   1
  -6  18   6 272.178 9.96504  -2
 -12  18   6 272.178 9.96504   1
  -9  18   6 92.5363 7.15659  -2
  -9  18   6 92.5363 7.15659   1
 -12  18   6 240.605 11.6407  -2
  -6  18   6 240.605 11.6407   1
 -15  18   6 94.7489 7.58547  -2
  -3  18   6 94.7489 7.58547   1
 -18  18   6 122.487 9.24980  -2
   0  18   6 122.487 9.24980   1
 -21  18   6 35.1799 7.66463  -2
   3  18   6 35.1799 7.66463   1
 -24  18   6 31.3594 7.85464  -2
   6  18   6 31.3594 7.85464   1
 -27  18   6 154.750 15.8925  -2
   9  18   6 154.750 15.8925   1
 -30  18   6 183.709 18.7634  -2
  12  18   6 183.709 18.7634   1
  13  19   6 72.7757 18.5039  -2
 -32  19   6 72.7757 18.5039   1
  10  19   6 230.772 19.3826  -2
 -29  19   6 230.772 19.3826   1
   7  19   6 158.450 15.2842  -2
 -26  19   6 158.450 15.2842   1
   4  19   6 222.369 15.5594  -2
 -23  19   6 222.369 15.5594   1
   1  19   6 9.15673 5.95376  -2
 -20  19   6 9.15673 5.95376   1
  -2  19   6 170.114 10.8375  -2
 -17  19   6 170.114 10.8375   1
  -5  19   6 430.184 14.7890  -2
 -14  19   6 430.184 14.7890   1
  -8  19   6 330.193 13.9097  -2
 -11  19   6 330.193 13.9097   1
 -11  19   6 391.747 14.6390  -2
  -8  19   6 391.747 14.6390   1
 -14  19   6 397.162 16.2537  -2
  -5  19   6 397.162 16.2537   1
 -17  19   6 197.603 15.6606  -2
  -2  19   6 197.603 15.6606   1
 -20  19   6 7.27429 5.95323  -2
   1  19   6 7.27429 5.95323   1
 -23  19   6 182.430 14.1974  -2
   4  19   6 182.430 14.1974   1
 -26  19   6 214.142 16.6963  -2
   7  19   6 214.142 16.6963   1
 -29  19   6 199.757 20.1930  -2
  10  19   6 199.757 20.1930   1
 -32  19   6 110.207 15.0934  -2
  13  19   6 110.207 15.0934   1
  11  20   6 156.569 17.9562  -2
 -31  20   6 156.569 17.9562   1
   8  20   6 271.741 21.2152  -2
 -28  20   6 271.741 21.2152   1
   5  20   6 260.261 18.3307  -2
 -25  20   6 260.261 18.3307   1
   2  20   6 51.7437 8.37105  -2
 -22  20   6 51.7437 8.37105   1
  -1  20   6 5.00243 5.48298  -2
 -19  20   6 5.00243 5.48298   1
  -4  20   6 167.495 10.8296  -2
 -16  20   6 167.495 10.8296   1
  -7  20   6 571.805 19.0662  -2
 -13  20   6 571.805 19.0662   1
 -10  20   6 15.1803 5.64816  -2
 -10  20   6 15.1803 5.64816   1
 -13  20   6 498.205 17.7861  -2
  -7  20   6 498.205 17.7861   1
 -16  20   6 135.777 12.2086  -2
  -4  20   6 135.777 12.2086   1
 -19  20   6 8.63111 5.50185  -2
  -1  20   6 8.63111 5.50185   1
 -22  20   6 53.9509 10.4169  -2
   2  20   6 53.9509 10.4169   1
 -25  20   6 249.673 20.6444  -2
   5  20   6 249.673 20.6444   1
 -28  20   6 255.623 21.3585  -2
   8  20   6 255.623 21.3585   1
 -31  20   6 160.708 22.3102  -2
  11  20   6 160.708 22.3102   1
   9  21   6 227.064 20.6513  -2
 -30  21   6 227.064 20.6513   1
   6  21   6 69.2985 12.1524  -2
 -27  21   6 69.2985 12.1524   1
   3  21   6 50.9035 10.1981  -2
 -24  21   6 50.9035 10.1981   1
   0  21   6 34.3806 9.00255  -2
 -21  21   6 34.3806 9.00255   1
  -3  21   6 7.65736 6.01984  -2
 -18  21   6 7.65736 6.01984   1
  -6  21   6 46.4293 7.57257  -2
 -15  21   6 46.4293 7.57257   1
  -9  21   6 152.636 11.2504  -2
 -12  21   6 152.636 11.2504   1
 -12  21   6 177.759 12.4961  -2
  -9  21   6 177.759 12.4961   1
 -15  21   6 45.4118 6.56581  -2
  -6  21   6 45.4118 6.56581   1
 -18  21   6 6.39721 5.63352  -2
  -3  21   6 6.39721 5.63352   1
 -21  21   6 38.8137 9.64627  -2
   0  21   6 38.8137 9.64627   1
 -24  21   6 58.8250 12.0752  -2
   3  21   6 58.8250 12.0752   1
 -27  21   6 60.2392 15.5313  -2
   6  21   6 60.2392 15.5313   1
 -30  21   6 192.985 20.0643  -2
   9  21   6 192.985 20.0643   1
   7  22   6 480.861 29.0122  -2
 -29  22   6 480.861 29.0122   1
   4  22   6 369.023 23.4047  -2
 -26  22   6 369.023 23.4047   1
   1  22   6 124.749 14.5779  -2
 -23  22   6 124.749 14.5779   1
  -2  22   6 5.55176 7.50252  -2
 -20  22   6 5.55176 7.50252   1
  -5  22   6 95.3790 11.4984  -2
 -17  22   6 95.3790 11.4984   1
  -8  22   6 255.498 15.5062  -2
 -14  22   6 255.498 15.5062   1
 -11  22   6 8.97089 5.32718  -2
 -11  22   6 8.97089 5.32718   1
 -14  22   6 213.079 14.3487  -2
  -8  22   6 213.079 14.3487   1
 -17  22   6 94.5565 11.7260  -2
  -5  22   6 94.5565 11.7260   1
 -20  22   6 22.3740 8.39475  -2
  -2  22   6 22.3740 8.39475   1
 -23  22   6 128.933 14.1992  -2
   1  22   6 128.933 14.1992   1
 -26  22   6 346.586 24.4228  -2
   4  22   6 346.586 24.4228   1
 -29  22   6 425.188 29.4152  -2
   7  22   6 425.188 29.4152   1
   8  23   6 123.815 16.0853  -2
 -31  23   6 123.815 16.0853   1
   5  23   6 187.092 18.0287  -2
 -28  23   6 187.092 18.0287   1
   2  23   6 71.3834 10.9005  -2
 -25  23   6 71.3834 10.9005   1
  -1  23   6 36.5370 9.77000  -2
 -22  23   6 36.5370 9.77000   1
  -4  23   6 78.8002 11.9413  -2
 -19  23   6 78.8002 11.9413   1
  -7  23   6 676.291 26.9438  -2
 -16  23   6 676.291 26.9438   1
 -10  23   6 314.038 18.2253  -2
 -13  23   6 314.038 18.2253   1
 -13  23   6 328.604 17.0379  -2
 -10  23   6 328.604 17.0379   1
 -16  23   6 606.609 24.5561  -2
  -7  23   6 606.609 24.5561   1
 -19  23   6 83.8248 11.6791  -2
  -4  23   6 83.8248 11.6791   1
 -22  23   6 24.1757 8.68090  -2
  -1  23   6 24.1757 8.68090   1
 -25  23   6 44.0259 10.2370  -2
   2  23   6 44.0259 10.2370   1
 -28  23   6 181.201 17.6035  -2
   5  23   6 181.201 17.6035   1
 -31  23   6 153.440 19.6564  -2
   8  23   6 153.440 19.6564   1
   6  24   6 98.1823 18.5997  -2
 -30  24   6 98.1823 18.5997   1
   3  24   6 26.8622 10.3633  -2
 -27  24   6 26.8622 10.3633   1
   0  24   6 128.895 14.6399  -2
 -24  24   6 128.895 14.6399   1
  -3  24   6 247.758 18.5685  -2
 -21  24   6 247.758 18.5685   1
  -6  24   6 300.755 20.3118  -2
 -18  24   6 300.755 20.3118   1
  -9  24   6 51.4359 9.10161  -2
 -15  24   6 51.4359 9.10161   1
 -12  24   6 113.597 14.5454  -2
 -12  24   6 113.597 14.5454   1
 -15  24   6 57.4749 10.1590  -2
  -9  24   6 57.4749 10.1590   1
 -18  24   6 281.110 19.2245  -2
  -6  24   6 281.110 19.2245   1
 -21  24   6 273.080 22.5788  -2
  -3  24   6 273.080 22.5788   1
 -24  24   6 192.503 19.9257  -2
   0  24   6 192.503 19.9257   1
 -27  24   6 42.5196 10.8930  -2
   3  24   6 42.5196 10.8930   1
 -30  24   6 76.6633 12.5867  -2
   6  24   6 76.6633 12.5867   1
   4  25   6 399.396 27.4145  -2
 -29  25   6 399.396 27.4145   1
   1  25   6 92.5628 14.8204  -2
 -26  25   6 92.5628 14.8204   1
  -2  25   6 34.4585 10.0590  -2
 -23  25   6 34.4585 10.0590   1
  -5  25   6 66.6148 11.8957  -2
 -20  25   6 66.6148 11.8957   1
  -8  25   6 403.343 22.8517  -2
 -17  25   6 403.343 22.8517   1
 -11  25   6 259.626 20.2491  -2
 -14  25   6 259.626 20.2491   1
 -14  25   6 271.931 18.3081  -2
 -11  25   6 271.931 18.3081   1
 -17  25   6 351.126 20.5108  -2
  -8  25   6 351.126 20.5108   1
 -20  25   6 83.9874 13.7017  -2
  -5  25   6 83.9874 13.7017   1
 -23  25   6 58.1344 12.4610  -2
  -2  25   6 58.1344 12.4610   1
 -26  25   6 100.817 14.9337  -2
   1  25   6 100.817 14.9337   1
 -29  25   6 390.378 27.3743  -2
   4  25   6 390.378 27.3743   1
   2  26   6 69.1084 12.6672  -2
 -28  26   6 69.1084 12.6672   1
  -1  26   6 73.5351 12.7858  -2
 -25  26   6 73.5351 12.7858   1
  -4  26   6 132.157 15.1258  -2
 -22  26   6 132.157 15.1258   1
  -7  26   6 400.758 22.9911  -2
 -19  26   6 400.758 22.9911   1
 -10  26   6 666.633 29.8776  -2
 -16  26   6 666.633 29.8776   1
 -13  26   6 800.127 32.4253  -2
 -13  26   6 800.127 32.4253   1
 -16  26   6 638.399 28.8934  -2
 -10  26   6 638.399 28.8934   1
 -19  26   6 353.838 21.9549  -2
  -7  26   6 353.838 21.9549   1
 -22  26   6 79.2796 12.8146  -2
  -4  26   6 79.2796 12.8146   1
 -25  26   6 47.3000 11.5262  -2
  -1  26   6 47.3000 11.5262   1
 -28  26   6 99.1087 16.7789  -2
   2  26   6 99.1087 16.7789   1
   0  27   6 85.2735 13.0889  -2
 -27  27   6 85.2735 13.0889   1
  -3  27   6 206.315 19.8632  -2
 -24  27   6 206.315 19.8632   1
  -6  27   6 332.987 23.0771  -2
 -21  27   6 332.987 23.0771   1
  -9  27   6 107.277 13.7086  -2
 -18  27   6 107.277 13.7086   1
 -12  27   6 115.181 14.8798  -2
 -15  27   6 115.181 14.8798   1
 -15  27   6 131.172 14.4130  -2
 -12  27   6 131.172 14.4130   1
 -18  27   6 147.652 15.9704  -2
  -9  27   6 147.652 15.9704   1
 -21  27   6 335.339 21.8585  -2
  -6  27   6 335.339 21.8585   1
 -24  27   6 223.523 19.5734  -2
  -3  27   6 223.523 19.5734   1
 -27  27   6 103.655 15.3396  -2
   0  27   6 103.655 15.3396   1
  -2  28   6 8.67906 9.22927  -2
 -26  28   6 8.67906 9.22927   1
  -5  28   6 52.1118 10.6882  -2
 -23  28   6 52.1118 10.6882   1
  -8  28   6 35.4397 11.0464  -2
 -20  28   6 35.4397 11.0464   1
 -11  28   6 95.6415 13.6934  -2
 -17  28   6 95.6415 13.6934   1
 -14  28   6 56.1509 11.3742  -2
 -14  28   6 56.1509 11.3742   1
 -17  28   6 91.6212 12.7781  -2
 -11  28   6 91.6212 12.7781   1
 -20  28   6 43.7836 12.4311  -2
  -8  28   6 43.7836 12.4311   1
 -23  28   6 58.1632 10.4313  -2
  -5  28   6 58.1632 10.4313   1
 -26  28   6 30.3811 10.2925  -2
  -2  28   6 30.3811 10.2925   1
  -4  29   6 15.8060 9.79399  -2
 -25  29   6 15.8060 9.79399   1
  -7  29   6 140.021 16.5301  -2
 -22  29   6 140.021 16.5301   1
 -10  29   6 88.2173 12.6823  -2
 -19  29   6 88.2173 12.6823   1
 -13  29   6 201.412 18.2834  -2
 -16  29   6 201.412 18.2834   1
 -16  29   6 199.414 18.2885  -2
 -13  29   6 199.414 18.2885   1
 -19  29   6 103.717 14.2886  -2
 -10  29   6 103.717 14.2886   1
 -22  29   6 100.430 14.8325  -2
  -7  29   6 100.430 14.8325   1
 -25  29   6 4.35663 8.89680  -2
  -4  29   6 4.35663 8.89680   1
  -6  30   6 97.8417 14.6236  -2
 -24  30   6 97.8417 14.6236   1
  -9  30   6 32.9379 11.0854  -2
 -21  30   6 32.9379 11.0854   1
 -12  30   6 31.1285 9.71800  -2
 -18  30   6 31.1285 9.71800   1
 -15  30   6 44.4333 11.0474  -2
 -15  30   6 44.4333 11.0474   1
 -18  30   6 42.4187 10.3049  -2
 -12  30   6 42.4187 10.3049   1
 -21  30   6 79.2577 13.5165  -2
  -9  30   6 79.2577 13.5165   1
 -24  30   6 176.878 20.2598  -2
  -6  30   6 176.878 20.2598   1
  -8  31   6 20.9825 10.2139  -2
 -23  31   6 20.9825 10.2139   1
 -11  31   6 9.81005 7.85186  -2
 -20  31   6 9.81005 7.85186   1
 -14  31   6 6.20483 8.28056  -2
 -17  31   6 6.20483 8.28056   1
 -17  31   6 7.57990 6.81093  -2
 -14  31   6 7.57990 6.81093   1
 -20  31   6 -7.0919 8.00876  -2
 -11  31   6 -7.0919 8.00876   1
 -23  31   6 6.94264 10.2036  -2
  -8  31   6 6.94264 10.2036   1
 -10  32   6 44.7950 32.2683  -2
 -22  32   6 44.7950 32.2683   1
 -13  32   6 43.0170 10.6883  -2
 -19  32   6 43.0170 10.6883   1
 -16  32   6 3.54074 9.15439  -2
 -16  32   6 3.54074 9.15439   1
 -19  32   6 32.9022 10.3942  -2
 -13  32   6 32.9022 10.3942   1
 -22  32   6 64.7859 30.5605  -2
 -10  32   6 64.7859 30.5605   1
  -1   1   7 6.73188 2.99535   1
  -3   2   7 167.710 7.75736   1
   0   2   7 73.7162 5.47035   1
  -5   3   7 6.53026 2.86615   1
  -2   3   7 145.158 7.60159   1
   1   3   7 408.608 11.1194   1
  -7   4   7 282.836 9.89580   1
  -4   4   7 199.814 8.52879   1
  -1   4   7 15.8359 3.65794   1
   2   4   7 220.361 9.45249   1
  -9   5   7 82.1372 5.96999   1
  -6   5   7 591.840 14.2946   1
  -3   5   7 400.253 11.4202   1
   0   5   7 231.737 8.96430   1
   3   5   7 3.73230 2.47741   1
 -11   6   7 88.0858 7.29082   1
  -8   6   7 6.32016 3.24194   1
  -5   6   7 58.3091 5.39850   1
  -2   6   7 165.789 8.84714   1
   1   6   7 11.2379 2.98216   1
   4   6   7 97.0810 7.00537   1
 -13   7   7 443.453 14.7892   1
 -10   7   7 55.1539 5.61416   1
  -7   7   7 601.201 13.7925   1
  -4   7   7 337.899 10.6147   1
  -1   7   7 257.894 9.69812   1
   2   7   7 160.403 8.41998   1
   5   7   7 194.107 10.2073   1
 -15   8   7 54.8732 7.76805   1
 -12   8   7 24.4965 4.72122   1
  -9   8   7 349.611 11.8469   1
  -6   8   7 1471.62 26.7283   1
  -3   8   7 915.867 18.3849   1
   0   8   7 311.027 9.89403   1
   3   8   7 22.7938 4.24901   1
   6   8   7 331.576 14.3979   1
 -17   9   7 345.218 16.5354   1
 -14   9   7 306.629 14.2214   1
 -11   9   7 5.83274 3.35354   1
  -8   9   7 106.966 7.68374   1
  -5   9   7 312.308 10.2893   1
  -2   9   7 20.9634 4.06815   1
   1   9   7 133.380 8.12855   1
   4   9   7 893.815 19.9393   1
   7   9   7 1084.07 26.6636   1
 -19  10   7 266.573 15.4009   1
 -16  10   7 547.352 19.9403   1
 -13  10   7 35.0465 5.80908   1
 -10  10   7 159.769 9.76996   1
  -7  10   7 424.550 12.7161   1
  -4  10   7 494.643 13.7114   1
  -1  10   7 532.112 14.3984   1
   2  10   7 419.340 13.1108   1
   5  10   7 276.113 12.7051   1
   8  10   7 62.4877 7.09708   1
 -21  11   7 82.1871 9.69303   1
 -18  11   7 29.1358 6.02312   1
 -15  11   7 39.0479 6.27586   1
 -12  11   7 22.0744 4.44871   1
  -9  11   7 386.145 12.6673   1
  -6  11   7 1483.91 28.2700   1
  -3  11   7 498.555 15.7932   1
   0  11   7 125.134 7.91802   1
   3  11   7 84.4761 7.27184   1
   6  11   7 282.762 13.1061   1
   9  11   7 69.5224 7.83452   1
 -23  12   7 20.1247 8.90011   1
 -20  12   7 5.79530 5.65746   1
 -17  12   7 19.8367 5.38301   1
 -14  12   7 11.0290 4.39810   1
 -11  12   7 3.97712 3.73430   1
  -8  12   7 121.740 8.21202   1
  -5  12   7 77.6220 6.81906   1
  -2  12   7 8.12347 4.02248   1
   1  12   7 287.936 11.7607   1
   4  12   7 655.830 19.1021   1
   7  12   7 325.853 13.3658   1
  10  12   7 189.948 15.5616   1
 -25  13   7 -2.3051 7.95372   1
 -22  13   7 12.2134 6.92688   1
 -19  13   7 12.6804 6.01551   1
 -16  13   7 5.11102 4.81638   1
 -13  13   7 61.4972 7.18716   1
 -10  13   7 163.872 10.1690   1
  -7  13   7 404.020 13.5524   1
  -4  13   7 71.7276 6.31879   1
  -1  13   7 269.616 11.9988   1
   2  13   7 100.303 7.60171   1
   5  13   7 72.3634 7.71627   1
   8  13   7 24.2148 7.98756   1
  11  13   7 -1.8802 6.26067   1
 -27  14   7 336.207 26.2707   1
 -24  14   7 16.6032 8.58510   1
 -21  14   7 -0.8879 5.52579   1
 -18  14   7 16.0039 5.33962   1
 -15  14   7 10.9273 4.62430   1
 -12  14   7 102.484 9.19750   1
  -9  14   7 433.098 13.8213   1
  -6  14   7 292.878 12.7579   1
  -3  14   7 53.0402 5.54941   1
   0  14   7 13.0331 4.15513   1
   3  14   7 76.6934 7.51062   1
   6  14   7 63.9761 8.88459   1
   9  14   7 64.6059 11.1292   1
  12  14   7 84.0232 13.0274   1
 -29  15   7 132.949 15.0675   1
 -26  15   7 113.545 16.4642   1
 -23  15   7 -3.9157 8.12672   1
 -20  15   7 56.4308 9.63479   1
 -17  15   7 38.2421 6.53108   1
 -14  15   7 16.4436 4.68554   1
 -11  15   7 12.1857 4.90286   1
  -8  15   7 48.2906 6.09419   1
  -5  15   7 115.976 8.68831   1
  -2  15   7 12.2011 4.19331   1
   1  15   7 93.7507 9.11727   1
   4  15   7 106.873 10.2481   1
   7  15   7 144.620 13.1628   1
  10  15   7 29.8879 8.61850   1
  13  15   7 20.1175 8.91855   1
 -28  16   7 23.1051 11.4163   1
 -25  16   7 5.82913 7.09267   1
 -22  16   7 20.0916 7.36908   1
 -19  16   7 81.2948 9.75271   1
 -16  16   7 0.53415 4.87277   1
 -13  16   7 20.8988 4.99560   1
 -10  16   7 22.7709 5.77575   1
  -7  16   7 40.7167 5.85063   1
  -4  16   7 47.7157 6.89740   1
  -1  16   7 1.99470 5.65060   1
   2  16   7 17.3177 5.60560   1
   5  16   7 29.5596 7.70181   1
   8  16   7 14.1868 7.45774   1
  11  16   7 29.4754 10.0423   1
 -27  17   7 163.784 19.0352   1
 -24  17   7 11.2125 7.38056   1
 -21  17   7 68.9429 10.7320   1
 -18  17   7 24.0311 7.80089   1
 -15  17   7 57.1597 9.07128   1
 -12  17   7 15.4703 5.35107   1
  -9  17   7 41.6920 6.28447   1
  -6  17   7 14.0395 5.07459   1
  -3  17   7 76.4797 9.39031   1
   0  17   7 50.0098 8.40268   1
   3  17   7 2.57137 5.93807   1
   6  17   7 -9.3699 6.82255   1
   9  17   7 7.63709 7.29126   1
  12  17   7 3.87036 9.57131   1
 -29  18   7 32.8774 12.8991   1
 -26  18   7 -8.5287 7.55322   1
 -23  18   7 102.886 14.9734   1
 -20  18   7 351.229 23.3687   1
 -17  18   7 120.407 12.8813   1
 -14  18   7 61.2140 9.73331   1
 -11  18   7 16.1995 5.57055   1
  -8  18   7 52.4310 8.37597   1
  -5  18   7 37.0422 7.34463   1
  -2  18   7 10.9109 5.48475   1
   1  18   7 13.9717 6.63494   1
   4  18   7 -3.7741 6.01718   1
   7  18   7 2.78036 8.00178   1
  10  18   7 70.4047 14.7767   1
 -28  19   7 40.8340 11.3438   1
 -25  19   7 13.2829 7.90779   1
 -22  19   7 13.3091 8.22875   1
 -19  19   7 107.210 12.1539   1
 -16  19   7 10.3040 6.24160   1
 -13  19   7 20.1197 6.28562   1
 -10  19   7 319.374 19.0062   1
  -7  19   7 246.211 18.4051   1
  -4  19   7 211.524 20.2237   1
  -1  19   7 9.14429 7.51637   1
   2  19   7 -8.7323 5.92551   1
 -24  20   7 115.356 40.9404  -2
   5  19   7 115.356 40.9404   1
   8  19   7 21.7481 10.2171   1
 -27  20   7 14.7700 8.93810   1
 -24  20   7 77.3951 12.1976   1
 -21  20   7 97.9929 12.6320   1
 -18  20   7 30.3150 8.71860   1
 -15  20   7 25.5460 7.27450   1
 -12  20   7 87.5370 13.0608   1
  -9  20   7 83.5039 12.1923   1
  -6  20   7 84.6701 12.0329   1
  -3  20   7 59.2518 11.5813   1
   0  20   7 13.2291 10.2247   1
   3  20   7 18.3913 10.1360   1
   6  20   7 27.2687 13.5222   1
   9  20   7 22.1540 14.6497   1
 -26  21   7 10.0740 8.28017   1
 -23  21   7 172.209 22.5402   1
 -20  21   7 288.440 22.6258   1
 -17  21   7 131.173 16.7033   1
 -14  21   7 57.1746 10.3885   1
 -11  21   7 98.5425 13.2299   1
  -8  21   7 121.625 15.6668   1
  -5  21   7 101.263 12.4974   1
  -2  21   7 19.5675 9.98143   1
   1  21   7 7.25149 9.42063   1
 -25  22   7 56.5920 39.0955  -2
   4  21   7 56.5920 39.0955   1
   7  21   7 107.227 18.6326   1
 -28  22   7 10.3817 8.42383   1
 -25  22   7 8.57996 9.63680   1
 -22  22   7 27.7215 9.09349   1
 -19  22   7 62.9813 13.8813   1
 -16  22   7 14.1552 7.79022   1
 -13  22   7 145.794 16.4103   1
 -10  22   7 504.199 29.2233   1
  -7  22   7 408.943 23.3449   1
  -4  22   7 92.0676 13.7197   1
  -1  22   7 7.12987 7.11735   1
 -24  23   7 120.529 40.5620  -2
   2  22   7 120.529 40.5620   1
   5  22   7 1.81311 7.32860   1
 -27  23   7 8.52027 7.85812   1
 -24  23   7 28.4474 10.7743   1
 -21  23   7 90.7642 14.8501   1
 -18  23   7 1.35466 7.54195   1
 -15  23   7 254.347 20.8909   1
 -12  23   7 78.9331 12.8084   1
  -9  23   7 99.2952 13.9554   1
  -6  23   7 105.116 13.3474   1
  -3  23   7 4.34635 8.17676   1
   0  23   7 40.6571 10.9848   1
   3  23   7 269.885 27.8411   1
 -26  24   7 17.0747 8.25721   1
 -23  24   7 77.5900 12.7028   1
 -20  24   7 138.849 16.4124   1
 -17  24   7 178.212 19.0669   1
 -14  24   7 -2.7874 6.26415   1
 -11  24   7 145.500 16.2885   1
  -8  24   7 34.4812 10.1405   1
  -5  24   7 39.8414 7.96638   1
  -2  24   7 25.6942 9.45681   1
   1  24   7 3.85965 8.71274   1
 -25  25   7 10.7637 8.43223   1
 -22  25   7 5.07146 7.81602   1
 -19  25   7 74.1348 12.6885   1
 -16  25   7 53.9794 10.0650   1
 -13  25   7 76.9566 12.8311   1
 -10  25   7 293.664 21.7732   1
  -7  25   7 146.482 17.0007   1
  -4  25   7 3.36423 7.01253   1
  -1  25   7 18.0829 9.34697   1
 -24  26   7 14.8163 9.84724   1
 -21  26   7 -7.9567 6.83122   1
 -18  26   7 22.9093 9.83528   1
 -15  26   7 -0.3213 7.38770   1
 -12  26   7 12.9536 8.60427   1
  -9  26   7 57.1873 11.7150   1
  -6  26   7 -7.7636 6.47187   1
  -3  26   7 33.7919 10.0445   1
 -23  27   7 11.8582 8.35828   1
 -20  27   7 49.9809 11.1317   1
 -17  27   7 -0.2574 6.19689   1
 -14  27   7 19.5017 8.10781   1
 -11  27   7 67.3939 11.9075   1
  -8  27   7 15.0251 7.82151   1
 -22  28   7 49.7115 38.8028  -2
  -5  27   7 49.7115 38.8028   1
 -22  28   7 80.8739 12.4497   1
 -19  28   7 -7.0888 8.48749   1
 -16  28   7 2.39516 7.70994   1
 -13  28   7 15.5888 8.43346   1
 -10  28   7 84.3017 13.3483   1
  -7  28   7 39.0732 10.3913   1
 -18  29   7 27.3093 9.90159   1
 -15  29   7 4.04091 7.91482   1
 -12  29   7 11.9028 10.3735   1
  -9  29   7 68.1195 16.0372   1
   0   1   8 9.78994 3.88180   1
  -2   2   8 8.98764 4.68401   1
   1   2   8 79.6728 7.80339   1
  -4   3   8 183.491 11.2713   1
  -1   3   8 21.2776 4.49582   1
   2   3   8 233.300 12.0468   1
  -6   4   8 51.9615 6.66204   1
  -3   4   8 1.25426 3.79214   1
   0   4   8 544.581 18.0676   1
   3   4   8 642.915 21.4221   1
  -8   5   8 96.3851 8.52801   1
  -5   5   8 32.0961 6.19134   1
  -2   5   8 40.2428 6.45891   1
   1   5   8 63.7869 7.73259   1
   4   5   8 232.024 12.9722   1
 -10   6   8 575.612 21.0362   1
  -7   6   8 148.521 11.3074   1
  -4   6   8 6.37110 4.14121   1
  -1   6   8 298.554 13.5997   1
   2   6   8 196.407 12.6873   1
   5   6   8 73.0724 9.14528   1
 -12   7   8 50.0512 8.77768   1
  -9   7   8 89.1793 9.49152   1
  -6   7   8 1.46157 4.10464   1
  -3   7   8 196.382 13.3522   1
   0   7   8 465.870 17.8249   1
   3   7   8 582.918 18.4812   1
   6   7   8 105.687 10.2252   1
 -14   8   8 1.35789 6.00336   1
 -11   8   8 138.390 10.8267   1
  -8   8   8 -1.9400 4.09154   1
  -5   8   8 12.6931 5.08213   1
  -2   8   8 8.04667 4.41964   1
   1   8   8 80.4818 7.96500   1
   4   8   8 117.310 9.62859   1
   7   8   8 2.86848 6.29702   1
 -16   9   8 10.7356 7.27755   1
 -13   9   8 49.2297 9.30243   1
 -10   9   8 93.0518 9.75533   1
  -7   9   8 8.23380 4.51783   1
  -4   9   8 199.102 12.2875   1
  -1   9   8 209.881 11.5517   1
   2   9   8 108.365 9.12624   1
   5   9   8 3.07558 5.53635   1
   8   9   8 23.4186 7.37910   1
 -18  10   8 249.559 22.2700   1
 -15  10   8 3.36272 6.54382   1
 -12  10   8 21.1839 6.27889   1
  -9  10   8 90.4966 10.0948   1
  -6  10   8 5.98586 4.81452   1
  -3  10   8 60.0286 7.03658   1
   0  10   8 357.743 14.8735   1
   3  10   8 277.840 15.1515   1
   6  10   8 40.2845 7.50329   1
   9  10   8 163.497 15.5805   1
 -20  11   8 30.1604 9.23052   1
 -17  11   8 20.1843 8.22746   1
 -14  11   8 7.91242 7.22135   1
 -11  11   8 4.27495 5.13915   1
  -8  11   8 125.490 10.0726   1
  -5  11   8 121.749 11.4270   1
  -2  11   8 13.2260 5.17268   1
   1  11   8 82.9136 8.44816   1
   4  11   8 120.901 11.8411   1
   7  11   8 69.4785 11.1905   1
  10  11   8 334.015 24.3165   1
 -22  12   8 219.594 21.9597   1
 -19  12   8 138.096 17.3534   1
 -16  12   8 0.24977 6.59044   1
 -13  12   8 -7.0930 5.15413   1
 -10  12   8 4.89124 5.32436   1
  -7  12   8 32.6072 7.35160   1
  -4  12   8 22.2263 6.53044   1
  -1  12   8 -4.1058 4.39977   1
   2  12   8 -0.5963 5.53528   1
   5  12   8 -1.8346 6.64557   1
   8  12   8 -4.4458 6.26105   1
  11  12   8 20.8011 8.35974   1
 -24  13   8 416.165 24.4384   1
 -21  13   8 375.613 27.4992   1
 -18  13   8 110.584 13.5371   1
 -15  13   8 2.23964 6.20430   1
 -12  13   8 78.3452 10.7291   1
  -9  13   8 356.865 19.0780   1
  -6  13   8 185.273 14.6219   1
  -3  13   8 6.65359 5.55964   1
   0  13   8 32.7031 7.19785   1
   3  13   8 74.1607 10.1005   1
   6  13   8 72.3131 12.5881   1
   9  13   8 108.404 14.5570   1
  12  13   8 107.716 15.2412   1
 -23  14   8 48.4059 12.2050   1
 -20  14   8 6.19354 7.24589   1
 -17  14   8 8.06152 6.69531   1
 -14  14   8 262.527 20.2984   1
 -11  14   8 397.752 23.0414   1
  -8  14   8 979.703 33.5279   1
  -5  14   8 121.041 13.8859   1
  -2  14   8 2.08938 6.67426   1
   1  14   8 56.5114 11.2087   1
   4  14   8 24.8449 9.58780   1
   7  14   8 6.85434 7.34562   1
  10  14   8 89.0173 14.7689   1
 -25  15   8 120.151 18.6636   1
 -22  15   8 149.501 18.1761   1
 -19  15   8 50.2103 10.1105   1
 -16  15   8 74.9425 13.0099   1
 -13  15   8 184.571 17.3541   1
 -10  15   8 149.674 17.8641   1
  -7  15   8 104.192 13.9451   1
  -4  15   8 2.53448 7.42781   1
  -1  15   8 33.8012 8.47932   1
   2  15   8 11.7510 8.02090   1
   5  15   8 113.486 15.7794   1
   8  15   8 24.0550 10.0695   1
 -24  16   8 428.893 27.3869   1
 -21  16   8 159.066 17.5369   1
 -18  16   8 15.6177 8.41552   1
 -15  16   8 6.21588 6.65522   1
 -12  16   8 135.016 15.2389   1
  -9  16   8 293.848 20.6374   1
  -6  16   8 28.9967 8.72398   1
  -3  16   8 -4.4148 7.52992   1
   0  16   8 20.9097 7.41759   1
   3  16   8 6.20050 8.01026   1
   6  16   8 16.3724 9.63364   1
   9  16   8 15.6644 9.58807   1
 -23  17   8 54.3333 11.4908   1
 -20  17   8 21.2085 10.0982   1
 -17  17   8 27.3165 9.21294   1
 -14  17   8 444.463 26.0088   1
 -11  17   8 541.440 30.1537   1
  -8  17   8 349.880 22.8839   1
  -5  17   8 12.7891 8.06618   1
  -2  17   8 139.543 14.6200   1
   1  17   8 39.2191 10.1875   1
   4  17   8 230.265 21.6008   1
   7  17   8 68.4171 16.0610   1
 -25  18   8 52.7473 14.9680   1
 -22  18   8 1.98535 8.00954   1
 -19  18   8 10.1500 7.60787   1
 -16  18   8 56.7784 10.7208   1
 -13  18   8 70.9167 11.7383   1
 -10  18   8 25.3368 7.70398   1
  -7  18   8 -2.2308 7.00773   1
  -4  18   8 55.6218 11.4710   1
  -1  18   8 219.450 21.6647   1
   2  18   8 163.961 18.9103   1
   5  18   8 294.007 29.3472   1
 -24  19   8 76.5316 13.8908   1
 -21  19   8 29.0508 9.18495   1
 -18  19   8 6.18189 7.33689   1
 -15  19   8 144.889 16.3561   1
 -12  19   8 170.568 21.3373   1
  -9  19   8 155.771 15.9362   1
  -6  19   8 15.7004 11.4082   1
  -3  19   8 -3.7664 8.87081   1
   0  19   8 125.690 14.6868   1
   3  19   8 -4.7859 7.72011   1
 -23  20   8 65.2812 13.0210   1
 -20  20   8 10.5466 9.14029   1
 -17  20   8 100.236 15.6996   1
 -14  20   8 340.692 22.9213   1
 -11  20   8 144.794 15.1021   1
  -8  20   8 8.32554 8.45415   1
  -5  20   8 81.4586 15.4379   1
  -2  20   8 46.4575 14.5134   1
   1  20   8 76.8475 14.9531   1
   4  20   8 148.461 22.1702   1
 -22  21   8 38.8531 11.6508   1
 -19  21   8 1.90561 8.75874   1
 -16  21   8 14.9552 7.39865   1
 -13  21   8 30.8433 9.64770   1
 -10  21   8 23.0228 8.59203   1
  -7  21   8 2.11690 7.33648   1
  -4  21   8 90.3305 13.1422   1
  -1  21   8 343.338 35.0572   1
 -23  20   8 268.773 61.2137  -2
   2  21   8 268.773 61.2137   1
 -21  22   8 32.0099 11.1302   1
 -18  22   8 119.434 15.9680   1
 -15  22   8 75.7674 13.0737   1
 -12  22   8 11.1644 8.12321   1
  -9  22   8 3.38775 7.46245   1
  -6  22   8 42.3601 10.8391   1
  -3  22   8 31.1992 8.80231   1
   0  22   8 25.5752 10.7123   1
 -20  23   8 12.9375 9.89627   1
 -17  23   8 80.8808 12.9648   1
 -14  23   8 72.5572 10.9165   1
 -11  23   8 -1.8751 6.82093   1
  -8  23   8 0.15448 7.50718   1
  -5  23   8 64.5929 13.5809   1
  -2  23   8 72.2959 12.2788   1
 -19  24   8 69.4537 12.6003   1
 -16  24   8 17.5812 7.80111   1
 -13  24   8 24.0773 8.61426   1
 -10  24   8 18.5508 8.45860   1
  -7  24   8 4.00723 11.3294   1
  -4  24   8 98.0901 14.0784   1
 -18  25   8 10.6094 14.1617   1
 -15  25   8 11.1318 7.93279   1
 -12  25   8 72.2674 13.4196   1
  -9  25   8 89.4016 14.5770   1
   0   0   9 40.3877 15.7991  -2
   0   0   9 40.3877 15.7991   1
   1   1   9 875.474 32.5034  -2
   1   1   9 875.474 32.5034   1
  -1   2   9 1095.22 36.8868  -2
  -1   2   9 1095.22 36.8868   1
   2   2   9 635.305 27.5154  -2
   2   2   9 635.305 27.5154   1
   0   3   9 12.2320 7.32429  -2
  -3   3   9 12.2320 7.32429   1
  -3   3   9 31.4920 8.27820  -2
   0   3   9 31.4920 8.27820   1
   3   3   9 116.207 12.7848  -2
   3   3   9 116.207 12.7848   1
   1   4   9 623.640 25.6526  -2
  -5   4   9 623.640 25.6526   1
  -2   4   9 648.044 27.5184  -2
  -2   4   9 648.044 27.5184   1
  -5   4   9 601.900 25.0080  -2
   1   4   9 601.900 25.0080   1
   4   4   9 153.641 12.7162  -2
   4   4   9 153.641 12.7162   1
   2   5   9 82.0790 11.6426  -2
  -7   5   9 82.0790 11.6426   1
  -1   5   9 609.316 24.8879  -2
  -4   5   9 609.316 24.8879   1
  -4   5   9 695.269 28.7517  -2
  -1   5   9 695.269 28.7517   1
  -7   5   9 96.3063 11.6919  -2
   2   5   9 96.3063 11.6919   1
   5   5   9 38.6538 8.61053  -2
   5   5   9 38.6538 8.61053   1
   3   6   9 13.9615 7.35869  -2
  -9   6   9 13.9615 7.35869   1
   0   6   9 123.851 12.7928  -2
  -6   6   9 123.851 12.7928   1
  -3   6   9 96.5274 11.2161  -2
  -3   6   9 96.5274 11.2161   1
  -6   6   9 118.872 12.4276  -2
   0   6   9 118.872 12.4276   1
  -9   6   9 19.4663 7.84337  -2
   3   6   9 19.4663 7.84337   1
   6   6   9 42.5118 11.3666  -2
   6   6   9 42.5118 11.3666   1
   4   7   9 40.8281 9.77104  -2
 -11   7   9 40.8281 9.77104   1
   1   7   9 170.265 15.0847  -2
  -8   7   9 170.265 15.0847   1
  -2   7   9 90.3529 12.4249  -2
  -5   7   9 90.3529 12.4249   1
  -5   7   9 78.7421 11.7373  -2
  -2   7   9 78.7421 11.7373   1
  -8   7   9 184.187 15.9417  -2
   1   7   9 184.187 15.9417   1
 -11   7   9 35.5879 9.15373  -2
   4   7   9 35.5879 9.15373   1
   7   7   9 16.3369 8.82174  -2
   7   7   9 16.3369 8.82174   1
   5   8   9 154.390 17.2011  -2
 -13   8   9 154.390 17.2011   1
   2   8   9 72.2178 12.5313  -2
 -10   8   9 72.2178 12.5313   1
  -1   8   9 22.9606 9.16417  -2
  -7   8   9 22.9606 9.16417   1
  -4   8   9 77.8701 11.7036  -2
  -4   8   9 77.8701 11.7036   1
  -7   8   9 24.4995 8.79947  -2
  -1   8   9 24.4995 8.79947   1
 -10   8   9 48.8192 11.2601  -2
   2   8   9 48.8192 11.2601   1
 -13   8   9 137.504 15.7070  -2
   5   8   9 137.504 15.7070   1
   8   8   9 250.731 19.1697  -2
   8   8   9 250.731 19.1697   1
   6   9   9 195.098 18.9249  -2
 -15   9   9 195.098 18.9249   1
   3   9   9 303.763 22.0772  -2
 -12   9   9 303.763 22.0772   1
   0   9   9 399.164 24.3504  -2
  -9   9   9 399.164 24.3504   1
  -3   9   9 129.063 17.0333  -2
  -6   9   9 129.063 17.0333   1
  -6   9   9 77.6963 11.9436  -2
  -3   9   9 77.6963 11.9436   1
  -9   9   9 395.535 24.0643  -2
   0   9   9 395.535 24.0643   1
 -12   9   9 242.365 19.6997  -2
   3   9   9 242.365 19.6997   1
 -15   9   9 153.972 17.6464  -2
   6   9   9 153.972 17.6464   1
   9   9   9 15.8518 10.1352  -2
   9   9   9 15.8518 10.1352   1
   7  10   9 15.6054 9.67555  -2
 -17  10   9 15.6054 9.67555   1
   4  10   9 6.18992 7.95005  -2
 -14  10   9 6.18992 7.95005   1
   1  10   9 243.060 21.8019  -2
 -11  10   9 243.060 21.8019   1
  -2  10   9 409.497 24.7458  -2
  -8  10   9 409.497 24.7458   1
  -5  10   9 59.3407 11.8852  -2
  -5  10   9 59.3407 11.8852   1
  -8  10   9 356.563 23.8275  -2
  -2  10   9 356.563 23.8275   1
 -11  10   9 241.146 20.5152  -2
   1  10   9 241.146 20.5152   1
 -14  10   9 39.1613 11.6276  -2
   4  10   9 39.1613 11.6276   1
 -17  10   9 42.6762 12.6804  -2
   7  10   9 42.6762 12.6804   1
  10  10   9 16.5901 8.68491  -2
  10  10   9 16.5901 8.68491   1
   8  11   9 50.8543 11.4623  -2
 -19  11   9 50.8543 11.4623   1
   5  11   9 349.963 22.6073  -2
 -16  11   9 349.963 22.6073   1
   2  11   9 442.938 29.8337  -2
 -13  11   9 442.938 29.8337   1
  -1  11   9 242.140 20.7788  -2
 -10  11   9 242.140 20.7788   1
  -4  11   9 74.2194 13.5172  -2
  -7  11   9 74.2194 13.5172   1
  -7  11   9 62.9487 10.5580  -2
  -4  11   9 62.9487 10.5580   1
 -10  11   9 192.445 19.0712  -2
  -1  11   9 192.445 19.0712   1
 -13  11   9 421.716 28.1898  -2
   2  11   9 421.716 28.1898   1
 -16  11   9 274.575 19.7224  -2
   5  11   9 274.575 19.7224   1
 -19  11   9 15.9300 10.6711  -2
   8  11   9 15.9300 10.6711   1
   6  12   9 118.159 13.2317  -2
 -18  12   9 118.159 13.2317   1
   3  12   9 399.155 25.6513  -2
 -15  12   9 399.155 25.6513   1
   0  12   9 628.401 35.7655  -2
 -12  12   9 628.401 35.7655   1
  -3  12   9 372.892 23.0312  -2
  -9  12   9 372.892 23.0312   1
  -6  12   9 17.8430 10.2883  -2
  -6  12   9 17.8430 10.2883   1
  -9  12   9 368.600 24.2100  -2
  -3  12   9 368.600 24.2100   1
 -12  12   9 562.203 27.8918  -2
   0  12   9 562.203 27.8918   1
 -15  12   9 382.164 26.0549  -2
   3  12   9 382.164 26.0549   1
 -18  12   9 163.221 21.1198  -2
   6  12   9 163.221 21.1198   1
   7  13   9 19.3391 7.32884  -2
 -20  13   9 19.3391 7.32884   1
   4  13   9 10.8826 9.36622  -2
 -17  13   9 10.8826 9.36622   1
   1  13   9 304.683 21.8322  -2
 -14  13   9 304.683 21.8322   1
  -2  13   9 366.083 24.7218  -2
 -11  13   9 366.083 24.7218   1
  -5  13   9 284.343 20.7283  -2
  -8  13   9 284.343 20.7283   1
  -8  13   9 328.069 23.6812  -2
  -5  13   9 328.069 23.6812   1
 -11  13   9 376.344 24.5453  -2
  -2  13   9 376.344 24.5453   1
 -14  13   9 301.924 24.3443  -2
   1  13   9 301.924 24.3443   1
 -17  13   9 14.9512 8.90457  -2
   4  13   9 14.9512 8.90457   1
 -20  13   9 12.0947 7.56240  -2
   7  13   9 12.0947 7.56240   1
   5  14   9 292.522 23.0454  -2
 -19  14   9 292.522 23.0454   1
   2  14   9 352.922 24.7076  -2
 -16  14   9 352.922 24.7076   1
  -1  14   9 258.777 19.2782  -2
 -13  14   9 258.777 19.2782   1
  -4  14   9 103.876 15.7149  -2
 -10  14   9 103.876 15.7149   1
  -7  14   9 82.5327 12.4048  -2
  -7  14   9 82.5327 12.4048   1
 -10  14   9 142.900 24.6453  -2
  -4  14   9 142.900 24.6453   1
 -13  14   9 294.403 23.0987  -2
  -1  14   9 294.403 23.0987   1
 -16  14   9 340.741 23.5378  -2
   2  14   9 340.741 23.5378   1
 -19  14   9 300.147 23.0250  -2
   5  14   9 300.147 23.0250   1
   3  15   9 140.625 18.1801  -2
 -18  15   9 140.625 18.1801   1
   0  15   9 631.180 29.9317  -2
 -15  15   9 631.180 29.9317   1
  -3  15   9 481.921 25.6337  -2
 -12  15   9 481.921 25.6337   1
  -6  15   9 183.352 22.1756  -2
  -9  15   9 183.352 22.1756   1
  -9  15   9 216.159 20.5159  -2
  -6  15   9 216.159 20.5159   1
 -12  15   9 434.053 26.1521  -2
  -3  15   9 434.053 26.1521   1
 -15  15   9 598.060 28.9868  -2
   0  15   9 598.060 28.9868   1
 -18  15   9 191.615 18.5698  -2
   3  15   9 191.615 18.5698   1
   1  16   9 185.944 20.6188  -2
 -17  16   9 185.944 20.6188   1
  -2  16   9 460.016 26.9980  -2
 -14  16   9 460.016 26.9980   1
  -5  16   9 235.712 20.0342  -2
 -11  16   9 235.712 20.0342   1
  -8  16   9 208.506 19.9178  -2
  -8  16   9 208.506 19.9178   1
 -11  16   9 319.894 21.4696  -2
  -5  16   9 319.894 21.4696   1
 -14  16   9 432.530 30.3138  -2
  -2  16   9 432.530 30.3138   1
 -17  16   9 107.802 13.6575  -2
   1  16   9 107.802 13.6575   1
  -1  17   9 95.1489 14.4562  -2
 -16  17   9 95.1489 14.4562   1
  -4  17   9 38.2555 10.6604  -2
 -13  17   9 38.2555 10.6604   1
  -7  17   9 24.4327 11.7398  -2
 -10  17   9 24.4327 11.7398   1
 -10  17   9 39.5474 12.5816  -2
  -7  17   9 39.5474 12.5816   1
 -13  17   9 87.6264 15.3726  -2
  -4  17   9 87.6264 15.3726   1
 -16  17   9 78.7592 11.8212  -2
  -1  17   9 78.7592 11.8212   1
  -3  18   9 224.011 23.0311  -2
 -15  18   9 224.011 23.0311   1
  -6  18   9 121.664 15.4510  -2
 -12  18   9 121.664 15.4510   1
  -9  18   9 35.9455 11.4788  -2
  -9  18   9 35.9455 11.4788   1
 -12  18   9 147.566 18.6359  -2
  -6  18   9 147.566 18.6359   1
 -15  18   9 278.344 33.9250  -2
  -3  18   9 278.344 33.9250   1
  -5  19   9 270.950 23.1307  -2
 -14  19   9 270.950 23.1307   1
  -8  19   9 22.6952 9.40637  -2
 -11  19   9 22.6952 9.40637   1
 -11  19   9 20.2731 9.21934  -2
  -8  19   9 20.2731 9.21934   1
 -14  19   9 281.758 27.8168  -2
  -5  19   9 281.758 27.8168   1
  -7  20   9 25.9531 10.0789  -2
 -13  20   9 25.9531 10.0789   1
 -10  20   9 27.8784 10.3763  -2
 -10  20   9 27.8784 10.3763   1
 -13  20   9 17.0368 7.92822  -2
  -7  20   9 17.0368 7.92822   1
  -1   1  10 11.8949 8.24346   1
  -3   2  10 5.65138 7.98820   1
   0   2  10 13.6506 7.73271   1
  -5   3  10 16.0761 8.11112   1
  -2   3  10 28.0381 9.86277   1
   1   3  10 7.41089 8.19524   1
  -7   4  10 59.7826 11.5737   1
  -4   4  10 272.285 22.2791   1
  -1   4  10 326.340 21.5071   1
   2   4  10 75.6148 14.2585   1
  -9   5  10 51.4593 12.5933   1
  -6   5  10 354.399 25.0230   1
  -3   5  10 420.542 26.5015   1
   0   5  10 195.805 17.9749   1
   3   5  10 27.8790 10.5221   1
 -11   6  10 67.3428 14.1688   1
  -8   6  10 157.789 19.0676   1
  -5   6  10 68.7033 11.6008   1
  -2   6  10 45.8560 10.8002   1
   1   6  10 13.2649 10.1588   1
   4   6  10 16.8512 9.85238   1
 -10   7  10 13.2514 8.57094   1
  -7   7  10 95.7784 15.1927   1
  -4   7  10 142.840 16.7488   1
  -1   7  10 44.0783 12.3530   1
   2   7  10 1.94819 8.87321   1
   5   7  10 71.3491 13.9505   1
 -12   8  10 8.24794 15.2975   1
  -9   8  10 175.516 18.9300   1
  -6   8  10 292.877 23.5342   1
  -3   8  10 197.806 25.3037   1
   0   8  10 26.3000 9.01753   1
   3   8  10 59.8948 13.3966   1
 -11   9  10 10.4800 8.00385   1
  -8   9  10 14.4365 7.72737   1
  -5   9  10 13.2980 8.48348   1
  -2   9  10 -8.8662 5.79358   1
   1   9  10 72.7919 15.7647   1
 -10  10  10 60.0190 12.0843   1
  -7  10  10 223.006 24.4425   1
  -4  10  10 104.888 15.6392   1
  -1  10  10 19.0019 10.8752   1
  -9  11  10 110.273 15.2647   1
  -6  11  10 72.6500 12.2550   1
  -3  11  10 57.2911 12.1974   1
  -8  12  10 0.76895 11.3905   1
  -5  12  10 7.72204 8.02258   1
   0   0   0    0.00    0.00   0
;
_shelx_hkl_checksum              4659
_olex2_submission_special_instructions 'No special instructions were received'
loop_
_space_group_symop_operation_xyz
'x, y, z'
'-y, x-y, z'
'-x+y, -x, z'
'x+2/3, y+1/3, z+1/3'
'-y+2/3, x-y+1/3, z+1/3'
'-x+y+2/3, -x+1/3, z+1/3'
'x+1/3, y+2/3, z+2/3'
'-y+1/3, x-y+2/3, z+2/3'
'-x+y+1/3, -x+2/3, z+2/3'
'-x, -y, -z'
'y, -x+y, -z'
'x-y, x, -z'
'-x+2/3, -y+1/3, -z+1/3'
'y+2/3, -x+y+1/3, -z+1/3'
'x-y+2/3, x+1/3, -z+1/3'
'-x+1/3, -y+2/3, -z+2/3'
'y+1/3, -x+y+2/3, -z+2/3'
'x-y+1/3, x+2/3, -z+2/3'
loop_
_atom_site_label
_atom_site_type_symbol
_atom_site_fract_x
_atom_site_fract_y
_atom_site_fract_z
_atom_site_U_iso_or_equiv
_atom_site_adp_type
_atom_site_occupancy
_atom_site_site_symmetry_order
_atom_site_calc_flag
_atom_site_refinement_flags_posn
_atom_site_refinement_flags_occupancy
_atom_site_disorder_assembly
_atom_site_disorder_group
Co1 Co 0.94965(2) 0.63370(2) 0.52452(5) 0.01871(10) Uani 1 1 d . . . .
O2 O 0.70359(9) 0.67357(9) 0.3585(3) 0.0207(4) Uani 1 1 d . . . .
O1 O 0.93953(9) 0.68710(9) 0.3330(2) 0.0203(4) Uani 1 1 d . . . .
O3 O 0.77000(9) 0.69793(10) 0.5951(3) 0.0230(4) Uani 1 1 d . . . .
C4 C 0.75289(12) 0.68147(13) 0.4229(4) 0.0196(5) Uani 1 1 d . . . .
C1 C 0.88826(13) 0.67662(13) 0.2474(3) 0.0194(5) Uani 1 1 d . . . .
C3 C 0.79228(13) 0.67209(13) 0.2869(4) 0.0205(5) Uani 1 1 d . . . .
C2 C 0.84638(13) 0.68150(13) 0.3602(3) 0.0209(5) Uani 1 1 d . . . .
H2 H 0.855109 0.691787 0.494120 0.025 Uiso 1 1 calc R . . .
C6 C 0.8551(2) 0.5331(2) 0.3169(10) 0.0524(15) Uani 0.801(8) 1 d . P A 1
H6 H 0.856617 0.568725 0.274003 0.063 Uiso 0.801(8) 1 calc R P A 1
C7 C 0.8422(3) 0.5198(4) 0.4989(12) 0.081(3) Uani 0.801(8) 1 d . P A 1
H7 H 0.833965 0.545579 0.574494 0.097 Uiso 0.801(8) 1 calc R P A 1
C5 C 0.8675(3) 0.5003(4) 0.1691(9) 0.075(2) Uani 0.801(8) 1 d . P A 1
H5A H 0.899016 0.528527 0.081877 0.112 Uiso 0.801(8) 1 calc GR P A 1
H5B H 0.831269 0.475448 0.093234 0.112 Uiso 0.801(8) 1 calc GR P A 1
H5C H 0.880570 0.474893 0.232768 0.112 Uiso 0.801(8) 1 calc GR P A 1
C8 C 0.8391(3) 0.4663(5) 0.6028(10) 0.106(4) Uani 0.801(8) 1 d . P A 1
H8A H 0.853968 0.446559 0.515701 0.159 Uiso 0.801(8) 1 calc GR P A 1
H8B H 0.797691 0.438120 0.638611 0.159 Uiso 0.801(8) 1 calc GR P A 1
H8C H 0.863736 0.479729 0.721008 0.159 Uiso 0.801(8) 1 calc GR P A 1
loop_
_atom_site_aniso_label
_atom_site_aniso_U_11
_atom_site_aniso_U_22
_atom_site_aniso_U_33
_atom_site_aniso_U_23
_atom_site_aniso_U_13
_atom_site_aniso_U_12
Co1 0.02294(19) 0.0268(2) 0.00800(13) 0.00041(13) 0.00053(12) 0.01360(16)
O2 0.0243(9) 0.0295(10) 0.0099(7) -0.0019(7) -0.0002(7) 0.0147(8)
O1 0.0243(10) 0.0291(10) 0.0098(7) -0.0006(7) -0.0016(6) 0.0151(8)
O3 0.0290(10) 0.0364(11) 0.0086(7) -0.0019(7) -0.0013(7) 0.0201(9)
C4 0.0240(13) 0.0262(13) 0.0107(10) -0.0003(9) 0.0000(9) 0.0140(11)
C1 0.0261(13) 0.0260(13) 0.0102(9) -0.0003(9) -0.0015(9) 0.0161(11)
C3 0.0261(13) 0.0277(13) 0.0103(10) -0.0007(9) -0.0007(9) 0.0154(11)
C2 0.0301(14) 0.0287(13) 0.0079(9) 0.0000(9) 0.0003(9) 0.0177(12)
C6 0.040(3) 0.032(2) 0.081(4) 0.004(3) -0.018(3) 0.015(2)
C7 0.038(3) 0.109(6) 0.102(6) -0.079(5) -0.030(3) 0.041(4)
C5 0.042(3) 0.093(5) 0.051(3) -0.017(3) -0.001(3) 0.005(3)
C8 0.054(4) 0.172(10) 0.043(3) 0.043(5) 0.001(3) 0.020(5)
loop_
_atom_type_symbol
_atom_type_description
_atom_type_scat_dispersion_real
_atom_type_scat_dispersion_imag
_atom_type_scat_source
C C 0.0034 0.0017
'ANOMDisVal Program in PLATON Spek, A. L. J. Appl. Crystallogr. 2003, 36, 7-13'
H H 0.0000 0.0000
'ANOMDisVal Program in PLATON Spek, A. L. J. Appl. Crystallogr. 2003, 36, 7-13'
Co Co 0.3514 1.0223
'ANOMDisVal Program in PLATON Spek, A. L. J. Appl. Crystallogr. 2003, 36, 7-13'
O O 0.0115 0.0064
'ANOMDisVal Program in PLATON Spek, A. L. J. Appl. Crystallogr. 2003, 36, 7-13'
loop_
_geom_angle_atom_site_label_1
_geom_angle_atom_site_label_2
_geom_angle_atom_site_label_3
_geom_angle
_geom_angle_site_symmetry_1
_geom_angle_site_symmetry_3
O2 Co1 O2 81.93(2) 17 12_656
O1 Co1 O2 93.97(8) . 12_656
O1 Co1 O2 83.03(7) 5_655 17
O1 Co1 O2 80.07(8) 5_655 12_656
O1 Co1 O2 81.11(8) . 17
O1 Co1 O1 163.71(8) 5_655 .
O1 Co1 O3 97.68(8) . 13_666
O1 Co1 O3 97.98(8) 5_655 13_666
O3 Co1 O2 95.46(8) 13_666 12_656
O3 Co1 O2 177.02(9) 13_666 17
Co1 O2 Co1 92.55(8) 18_545 11_566
C4 O2 Co1 134.80(17) . 11_566
C4 O2 Co1 129.32(17) . 18_545
Co1 O1 Co1 97.42(8) 9_664 .
C1 O1 Co1 126.67(17) . .
C1 O1 Co1 124.32(15) . 9_664
C4 O3 Co1 123.96(18) . 13_666
O2 C4 C3 118.2(2) . .
O3 C4 O2 122.5(2) . .
O3 C4 C3 119.2(2) . .
O1 C1 C3 124.1(2) . 13_665
O1 C1 C2 118.4(2) . .
C2 C1 C3 117.6(2) . 13_665
C1 C3 C4 123.5(2) 13_665 .
C2 C3 C4 117.3(2) . .
C2 C3 C1 119.2(2) . 13_665
C1 C2 C3 123.2(2) . .
C1 C2 H2 118.4 . .
C3 C2 H2 118.4 . .
C7 C6 H6 115.9 . .
C7 C6 C5 128.2(6) . .
C5 C6 H6 115.9 . .
C6 C7 H7 117.2 . .
C6 C7 C8 125.6(6) . .
C8 C7 H7 117.2 . .
C6 C5 H5A 109.5 . .
C6 C5 H5B 109.5 . .
C6 C5 H5C 109.5 . .
H5A C5 H5B 109.5 . .
H5A C5 H5C 109.5 . .
H5B C5 H5C 109.5 . .
C7 C8 H8A 109.5 . .
C7 C8 H8B 109.5 . .
C7 C8 H8C 109.5 . .
H8A C8 H8B 109.5 . .
H8A C8 H8C 109.5 . .
H8B C8 H8C 109.5 . .
loop_
_geom_bond_atom_site_label_1
_geom_bond_atom_site_label_2
_geom_bond_distance
_geom_bond_site_symmetry_2
Co1 O2 2.117(2) 12_656
Co1 O2 2.0702(19) 17
Co1 O1 2.0111(19) 5_655
Co1 O1 2.0157(19) .
Co1 O3 2.0216(19) 13_666
O2 C4 1.267(3) .
O1 C1 1.349(3) .
O3 C4 1.257(3) .
C4 C3 1.488(4) .
C1 C3 1.428(3) 13_665
C1 C2 1.388(4) .
C3 C2 1.390(4) .
C2 H2 0.9500 .
C6 H6 0.9500 .
C6 C7 1.292(10) .
C6 C5 1.456(9) .
C7 H7 0.9500 .
C7 C8 1.524(12) .
C5 H5A 0.9800 .
C5 H5B 0.9800 .
C5 H5C 0.9800 .
C8 H8A 0.9800 .
C8 H8B 0.9800 .
C8 H8C 0.9800 .
loop_
_twin_individual_id
_twin_individual_mass_fraction_refined
1 0.5407(16)
2 0.4593(16)
