#------------------------------------------------------------------------------
#$Date: 2019-12-24 02:06:54 +0200 (Tue, 24 Dec 2019) $
#$Revision: 245527 $
#$URL: file:///home/coder/svn-repositories/cod/cif/4/13/38/4133829.cif $
#------------------------------------------------------------------------------
#
# This file is available in the Crystallography Open Database (COD),
# http://www.crystallography.net/
#
# All data on this site have been placed in the public domain by the
# contributors.
#
data_4133829
loop_
_publ_author_name
'Garc\'ia-S\'anchez, Alba'
'Gomez-Mendoza, Miguel'
'Barawi, Mariam'
'Villar-Garcia, Ignacio Jose'
'Liras, Marta'
'G\'andara, Felipe'
'de la Pe\~na O'Shea, V\'ictor A'
_publ_section_title
;
 Fundamental Insights in Photoelectrocatalytic Hydrogen Production with a
 Hole-transport Bismuth Metal-organic Framework.
;
_journal_name_full               'Journal of the American Chemical Society'
_journal_paper_doi               10.1021/jacs.9b10261
_journal_year                    2019
_chemical_formula_moiety         '2(C40 H8 Bi2 O16 S12)'
_chemical_formula_sum            'C80 H Bi4 O32 S24'
_chemical_formula_weight         3079.17
_space_group_crystal_system      orthorhombic
_space_group_IT_number           62
_space_group_name_Hall           '-P 2ac 2n'
_space_group_name_H-M_alt        'P n m a'
_atom_sites_solution_hydrogens   geom
_atom_sites_solution_primary     direct
_audit_creation_date             2019-08-27
_audit_creation_method
;
Olex2 1.2
(compiled 2018.05.29 svn.r3508 for OlexSys, GUI svn.r5506)
;
_cell_angle_alpha                90
_cell_angle_beta                 90
_cell_angle_gamma                90
_cell_formula_units_Z            1
_cell_length_a                   24.257(5)
_cell_length_b                   15.144(3)
_cell_length_c                   10.676(2)
_cell_measurement_reflns_used    9970
_cell_measurement_temperature    293(2)
_cell_measurement_theta_max      65.17
_cell_measurement_theta_min      4.52
_cell_volume                     3921.8(13)
_computing_cell_refinement       'SAINT v8.37A (Bruker, 2015)'
_computing_data_reduction        'SAINT v8.37A (Bruker, 2015)'
_computing_molecular_graphics    'Olex2 (Dolomanov et al., 2009)'
_computing_publication_material  'Olex2 (Dolomanov et al., 2009)'
_computing_structure_refinement  'XL (Sheldrick, 2008)'
_computing_structure_solution    'ShelXS (Sheldrick, 2008)'
_diffrn_ambient_temperature      293(2)
_diffrn_measured_fraction_theta_full 0.991
_diffrn_measured_fraction_theta_max 0.991
_diffrn_measurement_device_type  'Bruker APEX-II CCD'
_diffrn_measurement_method       '\f and \w scans'
_diffrn_radiation_type           CuK\a
_diffrn_radiation_wavelength     1.54184
_diffrn_reflns_av_R_equivalents  0.0494
_diffrn_reflns_av_unetI/netI     0.0352
_diffrn_reflns_Laue_measured_fraction_full 0.991
_diffrn_reflns_Laue_measured_fraction_max 0.991
_diffrn_reflns_limit_h_max       28
_diffrn_reflns_limit_h_min       -27
_diffrn_reflns_limit_k_max       17
_diffrn_reflns_limit_k_min       -17
_diffrn_reflns_limit_l_max       12
_diffrn_reflns_limit_l_min       -12
_diffrn_reflns_number            21678
_diffrn_reflns_point_group_measured_fraction_full 0.991
_diffrn_reflns_point_group_measured_fraction_max 0.991
_diffrn_reflns_theta_full        65.333
_diffrn_reflns_theta_max         65.333
_diffrn_reflns_theta_min         4.525
_diffrn_standards_number         0
_exptl_absorpt_coefficient_mu    12.071
_exptl_absorpt_correction_T_max  0.5835
_exptl_absorpt_correction_T_min  0.3005
_exptl_absorpt_correction_type   multi-scan
_exptl_absorpt_process_details
'SADABS-2016/2 (Bruker,2016/2) was used for absorption correction. wR2(int) was 0.1413 before and 0.0800 after correction. The Ratio of minimum to maximum transmission is 0.5150. The \l/2 correction factor is Not present.'
_exptl_crystal_density_diffrn    1.304
_exptl_crystal_F_000             1453
_refine_diff_density_max         4.825
_refine_diff_density_min         -2.289
_refine_diff_density_rms         0.274
_refine_ls_extinction_method     none
_refine_ls_goodness_of_fit_ref   1.181
_refine_ls_hydrogen_treatment    constr
_refine_ls_matrix_type           full
_refine_ls_number_parameters     182
_refine_ls_number_reflns         3472
_refine_ls_number_restraints     5
_refine_ls_restrained_S_all      1.180
_refine_ls_R_factor_all          0.0802
_refine_ls_R_factor_gt           0.0761
_refine_ls_shift/su_max          0.000
_refine_ls_shift/su_mean         0.000
_refine_ls_structure_factor_coef Fsqd
_refine_ls_weighting_details
'w=1/[\s^2^(Fo^2^)+(0.1178P)^2^+77.7462P] where P=(Fo^2^+2Fc^2^)/3'
_refine_ls_weighting_scheme      calc
_refine_ls_wR_factor_gt          0.2404
_refine_ls_wR_factor_ref         0.2441
_reflns_Friedel_coverage         0.000
_reflns_number_gt                3203
_reflns_number_total             3472
_reflns_threshold_expression     'I > 2\s(I)'
_cod_data_source_file            ja9b10261_si_002.cif
_cod_data_source_block           ag125_a_0m_a
_cod_original_cell_volume        3921.9(13)
_cod_database_code               4133829
_shelx_shelxl_version_number     2018/3
_shelx_space_group_comment
;
The symmetry employed for this shelxl refinement is uniquely defined
by the following loop, which should always be used as a source of
symmetry information in preference to the above space-group names.
They are only intended as comments.
;
_olex2_refinement_description
;
1. Fixed Uiso
 At 1.2 times of:
  All C(H) groups
2. Rigid bond restraints
 C00C, C00F, C00J, C00G
 with sigma for 1-2 distances of 0.005 and sigma for 1-3 distances of 0.005
3.a Aromatic/amide H refined with riding coordinates:
 C00J(H00J), C00M(H00M), C00R(H00R)
;
_shelx_res_file
;
TITL AG125_A_0m_a.res in Pnma
    ag125_a_0m_a.res
    created by SHELXL-2018/3 at 12:28:05 on 27-Aug-2019
REM Old TITL Integration of AG125_A
REM SHELXT solution in Pnma
REM R1 0.166, Rweak 0.007, Alpha 0.041, Orientation a'=c, b'=-b, c'=a
REM Formula found by SHELXT: C20 Bi N O7 S6
CELL 1.54184 24.2566 15.1439 10.6764 90 90 90
ZERR 1 0.005 0.003 0.002 0 0 0
LATT 1
SYMM 0.5-X,-Y,0.5+Z
SYMM -X,0.5+Y,-Z
SYMM 0.5+X,0.5-Y,0.5-Z
SFAC Bi C O S H
UNIT 4 80 32 24 1
DELU 0.005 0.005 C00C C00F C00J C00G

L.S. 20
PLAN  100
LIST 6
fmap 2
acta
REM <olex2.extras>
REM <HklSrc "%.\\1.hkl">
REM </olex2.extras>

WGHT    0.117800   77.746193
FVAR       0.06726
BI01  1    0.732021    0.750000    0.624609    10.50000    0.05494    0.02019 =
         0.03547    0.00000    0.00400    0.00000
S002  4    0.716001    0.380716    0.751001    11.00000    0.08883    0.01839 =
         0.03952    0.00000    0.01068    0.00210
S003  4    0.787870    0.250000    0.446486    10.50000    0.09011    0.02089 =
         0.03642    0.00000    0.01138    0.00000
S004  4    0.405886    0.750000    0.151562    10.50000    0.05070    0.11192 =
         0.05646    0.00000   -0.00144    0.00000
S005  4    0.531621    0.750000    0.377634    10.50000    0.05138    0.15716 =
         0.05494    0.00000   -0.00268    0.00000
S006  4    0.562947    0.750000   -0.007192    10.50000    0.05576    0.22943 =
         0.05993    0.00000    0.00397    0.00000
O007  3    0.302920    0.750000    0.013185    10.50000    0.04965    0.03860 =
         0.05234    0.00000    0.00140    0.00000
O008  3    0.691971    0.750000    0.438350    10.50000    0.06182    0.06625 =
         0.03901    0.00000   -0.00622    0.00000
O009  3    0.745739    0.601385    0.576030    11.00000    0.17285    0.00576 =
         0.05171    0.01632    0.03965    0.01718
O00A  3    0.703808    0.581860    0.756681    11.00000    0.12482    0.02587 =
         0.05740   -0.00840    0.02835   -0.00503
C00B  2    0.728835    0.555454    0.664324    11.00000    0.03897
C00C  2    0.739768    0.297575    0.654404    11.00000    0.07249    0.01199 =
         0.03349    0.00127   -0.01020   -0.00100
O00D  3    0.335968    0.750000   -0.176556    10.50000    0.05653    0.15828 =
         0.07468    0.00000   -0.00840    0.00000
O00E  3    0.621001    0.750000    0.572168    10.50000    0.05610    0.21575 =
         0.05762    0.00000   -0.00016    0.00000
C00F  2    0.763522    0.331446    0.547461    11.00000    0.06984    0.01167 =
         0.03789   -0.00618    0.00332   -0.00128
C00G  2    0.739038    0.459044    0.644492    11.00000    0.08815    0.02002 =
         0.03169   -0.00940    0.00744   -0.01089
C00H  2    0.342893    0.750000   -0.061284    10.50000    0.05201    0.08008 =
         0.05358    0.00000   -0.01710    0.00000
C00I  2    0.638728    0.750000    0.462984    10.50000    0.05231    0.07943 =
         0.04310    0.00000   -0.01047    0.00000
C00J  2    0.763368    0.420606    0.542450    11.00000    0.07954    0.01393 =
         0.03377   -0.01333    0.00627   -0.01505
AFIX  43
H00J  5    0.778293    0.452640    0.476318    11.00000   -1.20000
AFIX   0
C00K  2    0.521695    0.750000    0.218061    10.50000    0.05464    0.10593 =
         0.05123    0.00000   -0.00055    0.00000
C00L  2    0.603340    0.750000    0.355847    10.50000    0.05276    0.10209 =
         0.04788    0.00000   -0.00535    0.00000
C00M  2    0.617242    0.750000    0.234000    10.50000    0.06483    0.11762 =
         0.04440    0.00000   -0.00455    0.00000
AFIX  43
H00M  5    0.653282    0.750000    0.204284    10.50000   -1.20000
AFIX   0
C00N  2    0.478056    0.750000    0.135764    10.50000    0.04039    0.09690 =
         0.07208    0.00000    0.00819    0.00000
C00O  2    0.398502    0.750000   -0.008086    10.50000    0.05357    0.09071 =
         0.05975    0.00000    0.01025    0.00000
C00P  2    0.569977    0.750000    0.157193    10.50000    0.05580    0.12119 =
         0.06994    0.00000   -0.00733    0.00000
C00Q  2    0.490457    0.750000    0.012737    10.50000    0.05216    0.11032 =
         0.06893    0.00000   -0.00231    0.00000
C00R  2    0.446742    0.750000   -0.070448    10.50000    0.06163    0.15080 =
         0.06466    0.00000   -0.01237    0.00000
AFIX  43
H00R  5    0.450186    0.750000   -0.157203    10.50000   -1.20000
AFIX   0
HKLF 4




REM  AG125_A_0m_a.res in Pnma
REM wR2 = 0.244063, GooF = S = 1.18073, Restrained GooF = 1.18038 for all data
REM R1 = 0.076068 for 3203 Fo > 4sig(Fo) and 0.080196 for all 3472 data
REM 182 parameters refined using 5 restraints

END

WGHT      0.1116     71.0188

REM Highest difference peak  4.825,  deepest hole -2.289,  1-sigma level  0.274
Q1    1   0.7707  0.7500  0.6155  10.50000  0.05    4.83
Q2    1   0.7077  0.7500  0.5563  10.50000  0.05    2.70
Q3    1   0.7394  0.7500  0.7124  10.50000  0.05    1.84
Q4    1   0.6913  0.7500  0.6433  10.50000  0.05    1.74
Q5    1   0.6095  0.4411  0.4229  11.00000  0.05    1.72
Q6    1   0.3845  0.8635 -0.4381  11.00000  0.05    1.49
Q7    1   0.7546  0.3811  0.7371  11.00000  0.05    1.39
Q8    1   0.6439  0.4981  0.3554  11.00000  0.05    1.35
Q9    1   0.7550  0.5704  0.6461  11.00000  0.05    1.17
Q10   1   0.7580  0.2500  0.3921  10.50000  0.05    1.17
Q11   1   0.5208  0.8220 -0.3196  11.00000  0.05    1.05
Q12   1   0.7067  0.5544  0.6808  11.00000  0.05    0.93
Q13   1   0.5000  1.0000  0.0000  10.50000  0.05    0.92
Q14   1   0.4012  0.7500  0.5026  10.50000  0.05    0.84
Q15   1   0.4075  0.8040  0.4745  11.00000  0.05    0.73
Q16   1   0.7300  0.6318  0.6777  11.00000  0.05    0.72
Q17   1   0.7011  0.3655  0.6933  11.00000  0.05    0.69
Q18   1   0.5202  0.7500 -0.3020  10.50000  0.05    0.69
Q19   1   0.7241  0.6156  0.4635  11.00000  0.05    0.69
Q20   1   0.7584  0.6129  0.7449  11.00000  0.05    0.67
Q21   1   0.7868  0.5847  0.5151  11.00000  0.05    0.67
Q22   1   0.5294  0.9894 -0.0534  11.00000  0.05    0.67
Q23   1   0.7441  0.6416  0.5610  11.00000  0.05    0.67
Q24   1   0.9060  0.4945  0.4114  11.00000  0.05    0.65
Q25   1   0.6876  0.2500  0.4419  10.50000  0.05    0.64
Q26   1   0.6498  0.7500  0.5801  10.50000  0.05    0.63
Q27   1   0.8018  0.3965  0.7408  11.00000  0.05    0.61
Q28   1   0.5850  0.4295  0.5712  11.00000  0.05    0.61
Q29   1   0.7116  0.7500  0.3782  10.50000  0.05    0.61
Q30   1   0.8055  0.2500  0.3869  10.50000  0.05    0.57
Q31   1   0.5018  0.7500  0.4607  10.50000  0.05    0.54
Q32   1   0.5923  0.4944  0.5252  11.00000  0.05    0.54
Q33   1   0.5668  0.7500  0.1020  10.50000  0.05    0.53
Q34   1   0.4616  0.7500  0.1302  10.50000  0.05    0.53
Q35   1   0.7100  0.3805  0.8244  11.00000  0.05    0.52
Q36   1   0.8436  0.2500  0.4449  10.50000  0.05    0.52
Q37   1   0.7903  0.2142  0.3218  11.00000  0.05    0.51
Q38   1   0.7355  0.3836  0.8554  11.00000  0.05    0.48
Q39   1   0.7677  0.4629  0.5597  11.00000  0.05    0.48
Q40   1   0.7880  0.2153  0.4804  11.00000  0.05    0.48
Q41   1   0.5538  0.8146  0.0274  11.00000  0.05    0.47
Q42   1   0.3273  0.7500  0.0584  10.50000  0.05    0.46
Q43   1   0.7867  0.3766  0.4709  11.00000  0.05    0.46
Q44   1   0.3770  0.7500  0.2072  10.50000  0.05    0.45
Q45   1   0.7297  0.2500  0.6598  10.50000  0.05    0.45
Q46   1   0.3204  0.8795  0.0353  11.00000  0.05    0.45
Q47   1   0.7515  0.7500  0.3706  10.50000  0.05    0.44
Q48   1   0.6462  0.7500  0.6623  10.50000  0.05    0.43
Q49   1   0.7792  0.4480  0.6762  11.00000  0.05    0.42
Q50   1   0.7854  0.6202  0.8126  11.00000  0.05    0.42
Q51   1   0.5284  0.7999  0.3245  11.00000  0.05    0.42
Q52   1   0.5070  0.7500  0.2914  10.50000  0.05    0.41
Q53   1   0.7993  0.6200  0.7614  11.00000  0.05    0.40
Q54   1   0.7310  0.4797  0.6859  11.00000  0.05    0.40
Q55   1   0.7737  0.2941  0.6142  11.00000  0.05    0.40
Q56   1   0.7778  0.2831  0.6545  11.00000  0.05    0.39
Q57   1   0.7116  0.7500  0.1884  10.50000  0.05    0.39
Q58   1   0.6924  0.2825  0.6940  11.00000  0.05    0.39
Q59   1   0.5164  0.7500 -0.0028  10.50000  0.05    0.38
Q60   1   0.6111  0.7500  0.3065  10.50000  0.05    0.38
Q61   1   0.8408  0.2500  0.5285  10.50000  0.05    0.38
Q62   1   0.7409  0.4523  0.5765  11.00000  0.05    0.37
Q63   1   0.7334  0.5506  0.4183  11.00000  0.05    0.37
Q64   1   0.7946  0.3490  0.8036  11.00000  0.05    0.37
Q65   1   0.5790  0.5461  0.7780  11.00000  0.05    0.36
Q66   1   0.6621  0.7500  0.3749  10.50000  0.05    0.35
Q67   1   0.7056  0.2500  0.5603  10.50000  0.05    0.34
Q68   1   0.7451  0.3185  0.7704  11.00000  0.05    0.33
Q69   1   0.3094  0.7500 -0.0270  10.50000  0.05    0.33
Q70   1   0.5417  0.7500  0.4740  10.50000  0.05    0.33
Q71   1   0.4354  0.7500  0.2022  10.50000  0.05    0.33
Q72   1   0.7754  0.4863  0.5947  11.00000  0.05    0.33
Q73   1   0.7731  0.6455  0.4654  11.00000  0.05    0.33
Q74   1   0.3246  0.8030 -0.3012  11.00000  0.05    0.33
Q75   1   0.6333  0.3515  0.6146  11.00000  0.05    0.32
Q76   1   0.7058  0.5908  0.6048  11.00000  0.05    0.32
Q77   1   0.5093  0.7783  0.5509  11.00000  0.05    0.32
Q78   1   0.7207  0.2500  0.5954  10.50000  0.05    0.31
Q79   1   0.7430  0.3538  0.4840  11.00000  0.05    0.31
Q80   1   0.6614  0.2500  0.6415  10.50000  0.05    0.30
Q81   1   0.6713  0.4192  0.7576  11.00000  0.05    0.30
Q82   1   0.5510  0.8009  0.1989  11.00000  0.05    0.29
Q83   1   0.6923  0.4172  0.7985  11.00000  0.05    0.29
Q84   1   0.6580  0.3480  0.5637  11.00000  0.05    0.29
Q85   1   0.6993  0.5439  0.5034  11.00000  0.05    0.28
Q86   1   0.7496  0.5004  0.3373  11.00000  0.05    0.28
Q87   1   0.6945  0.3126  0.5971  11.00000  0.05    0.28
Q88   1   0.6733  0.7500  0.4772  10.50000  0.05    0.28
Q89   1   0.4539  0.7500  0.3845  10.50000  0.05    0.28
Q90   1   0.4876  0.7980  0.0570  11.00000  0.05    0.27
Q91   1   0.7023  0.8302  0.4077  11.00000  0.05    0.27
Q92   1   0.6730  0.8655  0.3523  11.00000  0.05    0.27
Q93   1   0.6597  0.7500  0.1453  10.50000  0.05    0.27
Q94   1   0.7306  0.4307  0.6328  11.00000  0.05    0.26
Q95   1   0.4667  0.8654  0.3944  11.00000  0.05    0.26
Q96   1   0.5765  0.7500  0.3464  10.50000  0.05    0.26
Q97   1   0.5070  0.8498  0.5507  11.00000  0.05    0.26
Q98   1   0.6936  0.4942  0.8294  11.00000  0.05    0.25
Q99   1   0.2635  0.7853  0.0801  11.00000  0.05    0.25
Q100  1   0.6313  0.3781  0.8121  11.00000  0.05    0.25
;
_shelx_res_checksum              60722
_shelx_hkl_file
;
   0   0   1   -0.04    0.04
   0   0   1    0.05    0.09
   0   0  -1   -0.02    0.05
   0   0  -1    0.17    0.09
   0   0   2   48.56    3.46
   0   0  -2   47.74    3.44
   0   0  -2   49.80    3.47
   0   0   3   -0.39    0.23
   0   0  -3   -0.12    0.24
   0   0  -3    0.10    0.13
   0   0  -4  169.91   11.50
   0   0   4  159.98   11.50
   0   0  -4  158.90   11.46
   0   0  -5    0.08    0.41
   0   0  -5   -0.31    0.20
   0   0  -6    7.96    1.06
   0   0  -6    6.90    0.78
   0   0  -7   -0.15    0.30
   0   0  -7   -0.18    0.27
   0   0   7    0.02    0.12
   0   0  -8  150.27   10.96
   0   0  -8  165.33   10.98
   0   0   8  153.20   10.94
   0   0   8  153.48   10.94
   0   0   9   -0.32    0.36
   0   0  -9   -0.24    0.30
   0   0  -9   -0.43    0.33
   0   0  10   43.40    2.77
   0   0 -10   38.04    2.82
   0   0 -10   34.48    2.81
   0   0  11   -0.19    0.15
   0   1   0    0.04    0.03
   0  -1   0    0.05    0.03
   0   1  -1   39.28    2.84
   0  -1  -1   42.17    2.84
   0   1   1   40.38    2.84
   0  -1   1   39.72    2.84
   0   1  -2   -0.07    0.12
   0   1  -2   -0.04    0.08
   0  -1   2   -0.14    0.12
   0  -1  -2    0.14    0.13
   0  -1  -2   -0.04    0.10
   0   1   2    0.03    0.08
   0   1  -3  346.28   23.87
   0   1  -3  334.78   23.85
   0  -1  -3  300.68   23.84
   0  -1  -3  361.53   23.88
   0  -1   3  355.64   23.87
   0   1  -4    0.00    0.32
   0  -1  -4    0.01    0.17
   0  -1  -4   -0.53    0.29
   0  -1   4    0.61    0.33
   0   1  -4    0.11    0.16
   0   1  -5   40.07    2.86
   0   1  -5   37.34    2.76
   0  -1   5   37.54    2.85
   0  -1  -5   40.15    2.77
   0  -1  -5   37.16    2.84
   0  -1  -6    0.15    0.60
   0  -1  -6    0.17    0.34
   0   1   6    0.03    0.14
   0   1  -6   -0.02    0.31
   0  -1   6   -0.06    0.12
   0   1  -6    0.60    0.71
   0  -1   6    0.44    0.73
   0  -1   7   25.07    1.92
   0   1   7   25.72    1.92
   0  -1  -7   29.82    1.99
   0  -1  -8   -0.25    0.30
   0   1  -8   -0.30    0.27
   0  -1   8   -0.01    0.13
   0   1   8   -0.22    0.13
   0   1   8   -0.07    0.27
   0  -1  -8   -0.21    0.32
   0  -1   9    2.40    0.31
   0   1  -9    2.45    0.60
   0   1   9    2.63    0.31
   0  -1  -9    3.47    0.56
   0   1  10   -0.09    0.15
   0   1 -10   -0.46    0.37
   0   1 -10   -0.39    0.34
   0   1  11   22.54    1.74
   0   1 -11   23.94    1.87
   0  -1  11   23.48    1.74
   0  -1 -11   24.48    1.86
   0  -1 -11   25.15    1.81
   0   1 -11   24.68    1.82
   0  -1  12   -0.18    0.15
   0  -2   1   -0.01    0.07
   0   2  -1    0.04    0.08
   0  -2  -1    0.07    0.04
   0  -2   2  168.62   11.38
   0  -2  -2  159.37   11.37
   0   2   2  145.73   11.37
   0   2  -2  174.39   11.39
   0   2  -3    0.00    0.11
   0  -2  -3    0.30    0.19
   0   2   3    0.05    0.10
   0  -2  -3   -0.05    0.13
   0  -2   3   -0.25    0.19
   0   2  -3    0.06    0.19
   0   2  -4  273.96   18.57
   0  -2  -4  245.54   18.57
   0  -2  -4  258.07   18.62
   0   2  -4  279.26   18.61
   0  -2   5    1.56    0.54
   0  -2  -5   -0.12    0.28
   0   2  -5   -0.50    0.52
   0  -2  -5    0.47    0.49
   0  -2  -6   12.24    0.98
   0  -2   6    7.89    1.44
   0   2  -6   10.56    1.44
   0   2  -6   10.98    0.95
   0  -2  -6    8.19    1.32
   0   2   7   -0.19    0.14
   0  -2   7   -0.01    0.12
   0   2  -7   -0.18    0.32
   0  -2  -7   -0.24    0.33
   0  -2  -8   86.16    6.15
   0  -2   8   88.83    6.12
   0   2  -8   86.30    6.16
   0  -2   8   82.70    6.14
   0  -2  -8   86.30    6.15
   0   2   8   86.02    6.13
   0   2   8   89.99    6.12
   0   2   9   -0.07    0.14
   0   2  -9   -0.46    0.35
   0  -2  -9   -0.16    0.31
   0  -2   9   -0.37    0.30
   0  -2   9   -0.08    0.14
   0   2  -9   -0.45    0.30
   0  -2  10    1.63    0.30
   0   2  10    1.94    0.30
   0  -2 -10    1.11    0.39
   0  -2 -10    2.80    0.55
   0   2 -10    0.99    0.40
   0  -2  11   -0.21    0.14
   0  -2 -11    0.10    0.36
   0  -2  12   29.90    2.14
   0   3   0    0.09    0.09
   0   3   0    0.08    0.04
   0  -3   0    0.16    0.09
   0   3   1    9.30    0.66
   0   3  -1    9.57    0.69
   0  -3  -1    9.29    0.66
   0  -3   1    9.25    0.69
   0  -3  -1    8.72    0.69
   0   3   2    0.12    0.07
   0   3  -2    0.07    0.13
   0  -3  -2    0.09    0.07
   0  -3   2    0.01    0.12
   0  -3  -3  130.49    9.53
   0  -3   3  136.32    9.55
   0   3   3  119.52    9.52
   0  -3  -3  147.43    9.55
   0   3  -3  143.84    9.56
   0  -3   4    0.02    0.35
   0  -3  -4   -0.13    0.32
   0  -3  -4    0.23    0.20
   0   3  -4    0.06    0.16
   0   3  -4   -0.02    0.38
   0   3  -5    5.13    0.82
   0   3  -5    4.37    0.48
   0  -3   5    3.70    0.76
   0  -3  -5    4.27    0.53
   0  -3  -5    5.30    0.87
   0  -3  -6   -0.09    0.36
   0  -3   6   -0.08    0.14
   0  -3   6   -0.18    0.20
   0   3   6    0.08    0.18
   0   3  -6   -0.89    1.09
   0   3  -6   -0.13    0.33
   0   3   7   59.38    4.34
   0  -3   7   57.64    4.32
   0   3  -7   66.11    4.37
   0  -3  -8    0.17    0.38
   0   3   8   -0.10    0.15
   0  -3   8    0.05    0.27
   0  -3  -8   -0.14    0.31
   0   3   8    0.02    0.35
   0  -3   8    0.22    0.14
   0   3  -8   -0.22    0.37
   0  -3  -9   27.56    2.21
   0   3  -9   27.02    2.24
   0   3   9   35.00    2.17
   0   3  -9   30.52    2.22
   0  -3  -9   31.46    2.24
   0  -3   9   28.21    2.19
   0   3  10   -0.22    0.15
   0  -3  10    0.00    0.15
   0  -3 -10    0.31    0.38
   0   3 -10   -0.02    0.34
   0  -3 -10   -0.15    0.32
   0   3 -11   15.00    1.31
   0  -3 -11   16.26    1.24
   0   3 -11   15.23    1.31
   0   4   1    0.16    0.06
   0  -4  -1    0.21    0.06
   0   4  -1    0.27    0.14
   0  -4   1    0.25    0.12
   0  -4   2  213.69   14.20
   0   4  -2  209.18   14.20
   0  -4  -2  188.47   14.17
   0   4   2  190.93   14.17
   0  -4  -2  207.38   14.20
   0  -4  -3    0.20    0.12
   0   4   3    0.05    0.11
   0  -4   3    0.40    0.21
   0   4  -3    0.05    0.24
   0   4  -4  651.35   41.51
   0  -4  -4  592.89   41.45
   0   4  -4  507.00   41.45
   0  -4  -4  640.74   41.49
   0  -4   4  622.85   41.49
   0   4   4  529.86   41.44
   0   4  -5    0.56    0.74
   0   4  -5   -0.17    0.28
   0  -4  -5    0.29    0.37
   0  -4  -5    0.72    0.64
   0  -4   5   -0.59    0.76
   0   4   6   86.40    5.59
   0  -4   6   72.84    5.57
   0   4  -6   71.48    5.61
   0  -4   6   89.45    5.58
   0   4   6   79.65    5.60
   0  -4  -6   72.82    5.61
   0  -4  -7   -0.18    0.31
   0  -4   7    0.05    0.14
   0   4   7    0.04    0.17
   0  -4   7    0.18    0.22
   0  -4  -7   -0.37    0.38
   0   4   7   -0.11    0.34
   0   4  -7    0.27    0.34
   0   4   8   54.05    4.28
   0  -4   8   57.13    4.17
   0   4   8   63.39    4.18
   0  -4   8   60.25    4.16
   0  -4  -8   60.89    4.22
   0   4  -8   55.89    4.21
   0  -4  -8   58.64    4.20
   0   4  -9   -0.42    0.37
   0  -4  -9   -0.44    0.34
   0  -4   9   -0.53    0.31
   0  -4   9   -0.24    0.15
   0   4 -11   -0.40    0.36
   0  -4 -11    0.29    0.33
   0  -4  12   39.54    2.72
   0   4 -12   36.72    2.91
   0   5   0    0.08    0.07
   0   5   0    0.15    0.17
   0  -5   0    0.14    0.16
   0  -5   1  268.94   19.11
   0   5   1  254.82   19.08
   0   5  -1  287.43   19.11
   0  -5  -1  276.68   19.11
   0  -5   2    0.00    0.17
   0   5  -2   -0.05    0.19
   0  -5  -2    0.05    0.08
   0   5   2    0.16    0.08
   0  -5  -2    0.05    0.18
   0  -5  -3   68.90    4.84
   0  -5  -3   77.43    4.90
   0   5   3   65.75    4.84
   0   5  -3   67.04    5.01
   0  -5   3   64.12    4.98
   0  -5  -4    0.27    0.44
   0   5  -4    0.20    0.22
   0   5  -4    0.35    0.44
   0   5   4   -0.05    0.18
   0  -5  -4    0.16    0.23
   0  -5   4    0.40    0.44
   0  -5  -4   -0.29    0.40
   0  -5   5    2.99    0.32
   0  -5   5    2.71    0.41
   0   5  -5    2.74    0.66
   0  -5  -5    2.16    0.78
   0  -5  -5    2.72    0.49
   0   5  -5    1.95    0.95
   0  -5   5    1.66    0.93
   0  -5  -5    2.00    0.40
   0  -5  -6   -0.02    0.31
   0  -5  -6    0.19    0.40
   0   5  -6    0.00    0.37
   0   5   6    0.26    0.35
   0  -5   6   -0.13    0.16
   0  -5  -7   70.01    4.49
   0  -5   7   62.01    4.41
   0   5   7   63.24    4.44
   0  -5  -7   53.33    4.46
   0  -5   8    0.34    0.17
   0   5  -8   -0.06    0.38
   0  -5   8    0.27    0.25
   0  -5  -8    0.29    0.36
   0  -5  -8    0.13    0.31
   0  -5   9   22.74    1.65
   0  -5  -9   21.56    1.66
   0  -5  -9   23.95    1.73
   0   5  -9   19.48    1.70
   0   5 -10   -0.33    0.31
   0  -5 -10   -0.01    0.52
   0  -5 -11    6.66    0.66
   0   5 -11    7.13    0.75
   0  -5  11    4.92    0.50
   0  -5  12   -0.24    0.14
   0   6  -1    0.17    0.22
   0  -6   1    0.14    0.19
   0   6   1    0.23    0.09
   0  -6  -1   -0.04    0.20
   0   6  -2   11.42    0.84
   0  -6   2   10.41    0.81
   0   6   2    8.35    0.72
   0  -6  -2    9.89    0.81
   0   6   3    0.11    0.14
   0  -6  -3   -0.40    0.33
   0  -6   3   -0.17    0.32
   0   6  -3    0.85    0.36
   0  -6  -3    0.22    0.15
   0  -6  -4  136.95    9.53
   0   6  -4  136.43    9.62
   0   6   4  130.84    9.53
   0   6  -4  126.89    9.55
   0  -6  -4  141.37    9.64
   0  -6   4  139.39    9.61
   0   6  -5   -0.41    1.09
   0   6   5    0.34    0.32
   0  -6   5   -0.16    0.18
   0  -6  -5   -0.06    0.47
   0  -6  -5    0.15    0.32
   0  -6  -6    6.39    0.71
   0  -6   6    6.93    0.62
   0  -6  -7    0.09    0.30
   0   6  -7   -0.54    0.37
   0  -6  -7    0.30    0.38
   0  -6   7    0.01    0.24
   0   6   7   -0.41    0.35
   0  -6   7   -0.08    0.17
   0  -6  -8  100.79    6.91
   0  -6   8   98.76    6.86
   0   6  -8   91.29    6.89
   0  -6   8   94.88    6.85
   0  -6  -8   99.45    6.89
   0  -6   9   -0.16    0.15
   0  -6  -9   -0.31    0.39
   0  -6  -9   -0.07    0.28
   0  -6   9   -0.39    0.31
   0   6  -9   -0.16    0.43
   0   6 -10    5.25    0.62
   0   6 -10    3.89    0.79
   0  -6 -10    4.28    0.55
   0  -6 -11   -0.44    0.32
   0   6 -11   -0.02    0.34
   0  -7   0    0.43    0.25
   0   7   0    0.34    0.28
   0   7  -1   58.94    4.38
   0   7  -1   66.04    4.45
   0  -7   1   60.23    4.48
   0  -7  -1   62.98    4.44
   0   7   1   62.17    4.38
   0   7   2    0.26    0.12
   0   7  -2    0.17    0.34
   0  -7   2    0.39    0.31
   0  -7  -2    0.21    0.30
   0  -7   3  361.97   25.28
   0   7  -3  360.37   25.29
   0   7   3  346.49   25.22
   0  -7  -3  368.71   25.30
   0  -7   4    0.24    0.13
   0  -7   4    1.40    0.76
   0   7  -4   -0.42    0.74
   0   7  -4    0.30    0.42
   0  -7   4    0.17    0.14
   0  -7  -4    0.02    0.22
   0  -7  -4   -0.48    0.41
   0  -7  -5   41.63    3.09
   0  -7   5   42.97    3.04
   0   7  -5   40.66    3.13
   0  -7   5   46.40    3.05
   0  -7  -5   45.75    3.10
   0   7   5   38.77    3.12
   0   7  -6   -0.22    0.40
   0  -7   6   -0.09    0.22
   0   7   6    0.42    0.35
   0  -7  -6    0.25    0.35
   0  -7   7   15.57    1.14
   0  -7  -7   13.32    1.28
   0  -7   8   -0.10    0.26
   0  -7  -8    0.61    0.32
   0  -7  -8    0.16    0.40
   0   7  -8   -0.14    0.42
   0  -7   8   -0.13    0.16
   0   7  -9    5.11    0.84
   0  -7  -9    6.17    0.63
   0  -7   9    5.40    0.67
   0  -7  10   -0.17    0.14
   0   7 -10   -0.39    0.29
   0  -7 -10   -0.25    0.25
   0  -7  11   13.90    1.03
   0   8   0  894.92   66.43
   0   8   0 1000.00   66.51
   0  -8   1    0.91    0.39
   0  -8  -1    0.51    0.41
   0   8   1    0.32    0.15
   0   8  -1    0.08    0.42
   0   8  -1    0.13    0.18
   0  -8   2    2.54    0.26
   0   8  -2    2.07    0.31
   0  -8   2    1.59    0.50
   0   8  -2    2.29    0.29
   0   8   2    2.26    0.28
   0  -8   2    2.64    0.26
   0   8  -2    2.30    0.56
   0  -8  -2    2.18    0.29
   0  -8  -3    0.01    0.16
   0  -8   3   -0.07    0.12
   0   8  -3   -0.24    0.63
   0  -8   3    0.00    0.12
   0   8   3   -0.05    0.20
   0   8  -3   -0.01    0.40
   0   8  -3    0.15    0.14
   0   8   4   84.26    5.94
   0  -8   4   84.42    5.91
   0  -8   4   79.88    5.90
   0  -8  -4   81.08    5.93
   0   8  -4   80.45    5.99
   0  -8  -4   92.55    5.94
   0  -8  -5   -0.20    0.29
   0   8   5    0.20    0.31
   0  -8   5    0.11    0.17
   0   8  -5    0.18    0.43
   0  -8   5    0.05    0.13
   0  -8  -5    0.03    0.25
   0  -8   6   12.07    0.99
   0  -8  -6   12.80    1.19
   0   8   6   14.29    1.14
   0  -8  -7   -0.32    0.29
   0   8  -7    0.37    0.43
   0  -8   7   -0.17    0.17
   0  -8   7   -0.20    0.25
   0  -8  -7   -0.26    0.40
   0  -8   8  101.92    7.07
   0   8  -8   94.88    7.11
   0  -8  -8  100.38    7.09
   0  -8   8   98.34    7.07
   0  -8  -8  104.97    7.13
   0  -8   9   -0.18    0.33
   0  -8  -9    0.04    0.32
   0  -8  10    4.75    0.41
   0   8 -10    4.21    0.59
   0  -8 -10    3.72    0.52
   0   8 -11   -0.11    0.32
   0  -9   0    0.52    0.54
   0  -9   0   -0.01    0.14
   0  -9   0   -0.05    0.11
   0   9   0   -0.06    0.13
   0  -9   0   -0.02    0.11
   0   9  -1   28.76    2.30
   0  -9   1   28.35    2.05
   0  -9   1   26.96    2.06
   0   9  -1   29.49    2.17
   0   9  -1   27.01    2.06
   0  -9  -1   25.21    2.08
   0  -9   1   31.60    2.08
   0  -9   1   32.59    2.31
   0   9   1   27.59    2.06
   0  -9  -1   30.88    2.07
   0  -9   2    0.08    0.11
   0  -9  -2    0.21    0.17
   0   9   2    0.09    0.16
   0   9  -2   -0.44    0.74
   0  -9   2    0.04    0.12
   0  -9  -2    0.07    0.12
   0   9  -2    0.40    0.41
   0  -9   2    0.59    0.88
   0  -9   3  188.94   13.58
   0   9   3  205.37   13.64
   0  -9  -3  216.59   13.61
   0   9  -3  191.31   13.65
   0  -9  -3  178.35   13.60
   0   9  -3  188.96   13.60
   0  -9   3  184.30   13.59
   0   9   4   -0.20    0.24
   0  -9   4    0.01    0.13
   0  -9  -4    0.11    0.20
   0  -9   4    0.11    0.12
   0   9  -4    0.20    0.48
   0  -9  -4    0.09    0.22
   0  -9   5   50.54    3.65
   0  -9  -5   50.67    3.69
   0  -9  -5   53.00    3.70
   0  -9   5   51.67    3.66
   0  -9  -6   -0.14    0.27
   0  -9   6    0.02    0.21
   0  -9   6    0.11    0.16
   0  -9  -6    0.22    0.36
   0   9  -6   -0.20    0.44
   0  -9  -7   10.37    0.86
   0  -9  -7    8.04    1.00
   0  -9   7    9.09    0.82
   0  -9   8    0.19    0.27
   0   9  -8   -0.66    0.65
   0  -9  -8   -0.17    0.42
   0  -9  -8   -0.05    0.26
   0  -9   8   -0.22    0.15
   0  -9  -9    8.03    0.78
   0  -9   9   10.29    0.73
   0   9 -10    0.17    0.28
   0  -9  10   -0.05    0.14
   0 -10   0  343.02   24.01
   0  10   0  336.66   24.02
   0 -10   0  338.56   24.02
   0 -10   0  350.21   24.01
   0 -10   1    0.15    0.13
   0  10  -1    0.35    0.55
   0 -10  -1   -0.11    0.13
   0 -10   1   -0.15    0.10
   0  10   1   -0.05    0.15
   0 -10  -1    0.03    0.12
   0 -10   1   -0.02    0.11
   0  10   2   21.48    1.54
   0  10  -2   23.26    1.79
   0 -10  -2   18.96    1.53
   0  10  -2   20.56    1.53
   0 -10   2   21.67    1.52
   0 -10   2   19.06    1.52
   0 -10  -2   22.82    1.53
   0 -10   3   -0.06    0.12
   0 -10  -3    0.17    0.18
   0 -10   3    0.13    0.12
   0  10   3    0.12    0.20
   0  10  -3   -0.04    0.14
   0  10  -3    0.25    0.58
   0 -10  -3    0.13    0.16
   0  10   4  143.22   11.25
   0 -10   4  157.93   11.22
   0  10  -4  155.41   11.35
   0 -10  -4  181.56   11.26
   0 -10   4  158.29   11.23
   0 -10  -4  160.88   11.25
   0 -10  -5    0.09    0.24
   0 -10  -5    0.06    0.29
   0  10   5    0.29    0.33
   0  10  -5    1.12    0.54
   0 -10   5    0.27    0.14
   0 -10   5    0.07    0.16
   0  10  -6    9.82    1.19
   0 -10   6   12.67    0.89
   0 -10   6   10.94    0.91
   0 -10  -6   10.86    1.04
   0 -10   7   -0.37    0.25
   0 -10   7    0.01    0.17
   0 -10  -7   -0.03    0.28
   0 -10  -7    0.13    0.39
   0 -10  -8   32.71    2.40
   0 -10   8   33.00    2.39
   0 -10   8   33.15    2.38
   0 -10  -9    0.04    0.23
   0 -10   9    0.02    0.14
   0  11   0    0.08    0.15
   0 -11   0    0.19    0.14
   0 -11   0    0.25    0.13
   0 -11  -1  161.79   10.77
   0 -11  -1  150.99   10.76
   0 -11   1  151.84   10.76
   0  11  -1  153.56   10.77
   0  11   1  151.94   10.77
   0 -11   1  147.42   10.76
   0  11   2    0.07    0.19
   0 -11  -2    0.01    0.14
   0 -11   2   -0.16    0.12
   0 -11  -2    0.04    0.13
   0  11  -2   -0.10    0.15
   0 -11  -3   14.45    1.17
   0 -11   3   13.76    1.14
   0  11  -3   15.09    1.16
   0  11  -3   18.20    1.94
   0 -11   3   18.08    1.14
   0  11   3   14.49    1.18
   0 -11   4    0.26    0.14
   0 -11  -4    0.23    0.21
   0 -11   4   -0.02    0.13
   0  11  -4   -0.19    0.80
   0  11   4    0.14    0.29
   0 -11  -4    0.26    0.19
   0 -11  -5   18.75    1.36
   0 -11   5   17.74    1.29
   0 -11   5   16.90    1.29
   0 -11  -5   16.02    1.33
   0 -11   6    0.02    0.16
   0 -11  -6    0.06    0.34
   0 -11   6    0.40    0.22
   0 -11  -6    0.12    0.26
   0 -11   7   47.17    3.76
   0 -11  -7   59.29    3.80
   0 -11  -7   51.87    3.83
   0 -11   8   -0.37    0.31
   0 -11   8    0.38    0.16
   0 -11  -8    0.21    0.23
   0 -11   9   33.88    2.12
   0 -11  -9   25.10    2.14
   0  12   0  187.56   13.04
   0 -12   0  183.50   13.02
   0 -12   0  189.01   13.03
   0 -12   0  181.15   13.03
   0  12  -1   -0.13    0.15
   0 -12   1    0.11    0.12
   0 -12  -1   -0.14    0.13
   0 -12   1    0.00    0.14
   0  12   1   -0.14    0.18
   0 -12  -1   -0.11    0.12
   0 -12   2   41.94    2.90
   0 -12  -2   41.68    2.90
   0  12   2   40.28    2.93
   0 -12  -2   42.93    2.90
   0 -12  -2   38.15    2.91
   0  12  -2   39.06    2.91
   0 -12   3    0.02    0.13
   0  12  -3   -0.04    0.16
   0 -12  -3   -0.14    0.17
   0 -12  -3    0.21    0.16
   0 -12   3   -0.06    0.13
   0  12   3    0.06    0.25
   0 -12  -4   88.44    6.14
   0 -12   4   83.88    6.12
   0 -12  -4   88.05    6.15
   0 -12   4   86.24    6.13
   0 -12   5    0.15    0.16
   0 -12   5    0.10    0.18
   0 -12  -5   -0.06    0.23
   0 -12  -5    0.32    0.27
   0 -12   6    3.88    0.45
   0 -12   6    3.90    0.52
   0 -12   7   -0.14    0.17
   0 -12  -7    0.04    0.44
   0 -12  -7    0.36    0.23
   0 -12   7   -0.02    0.27
   0 -12  -8   10.79    0.95
   0 -12   8   13.53    0.93
   0 -12   9    0.07    0.14
   0 -13   0    0.10    0.12
   0 -13   0    0.15    0.15
   0 -13   0    0.01    0.12
   0  13   0    0.05    0.20
   0 -13  -1   70.78    5.03
   0 -13  -1   73.40    5.03
   0  13  -1   69.68    5.04
   0 -13   1   74.00    5.03
   0 -13   1   68.74    5.03
   0  13   1   72.65    5.05
   0 -13  -1   68.53    5.04
   0 -13   2    0.04    0.13
   0 -13  -2    0.02    0.14
   0 -13  -2   -0.25    0.16
   0  13  -2    0.02    0.17
   0  13   2    0.36    0.25
   0 -13   2    0.18    0.14
   0 -13  -2    0.08    0.14
   0 -13  -3   53.52    3.64
   0 -13   3   51.27    3.62
   0 -13   3   48.14    3.63
   0 -13  -3   47.93    3.64
   0 -13  -3   54.12    3.63
   0 -13  -4   -0.23    0.24
   0  13  -4    0.65    0.26
   0 -13   4   -0.05    0.15
   0 -13   4    0.11    0.16
   0 -13  -4   -0.04    0.20
   0 -13   5   13.75    1.06
   0 -13  -5   14.78    1.13
   0 -13   5   14.01    1.07
   0 -13  -5   11.44    1.07
   0 -13  -6    0.73    0.35
   0 -13  -6    0.01    0.23
   0 -13   6    0.22    0.18
   0 -13   6   -0.11    0.23
   0 -13  -7   32.51    2.28
   0 -13   7   29.06    2.28
   0 -13   7   33.52    2.30
   0 -13   8   -0.05    0.16
   0  14   0  207.84   14.66
   0 -14   0  210.43   14.63
   0 -14   0  206.38   14.64
   0  14  -1    0.02    0.20
   0 -14   1    0.05    0.14
   0 -14  -1   -0.22    0.15
   0 -14   1    0.19    0.13
   0 -14  -1    0.17    0.15
   0 -14  -1   -0.09    0.12
   0 -14   2    5.90    0.54
   0 -14  -2    5.79    0.56
   0 -14  -2    7.02    0.54
   0 -14  -3    0.18    0.25
   0 -14  -3   -0.01    0.19
   0 -14   3    0.10    0.15
   0 -14  -3    0.05    0.15
   0 -14   3    0.02    0.15
   0 -14  -4   57.79    3.96
   0 -14   4   55.58    3.93
   0 -14  -4   51.23    3.93
   0 -14   4   56.45    3.92
   0 -14  -5    0.01    0.32
   0 -14   5    0.11    0.17
   0 -14  -5   -0.05    0.23
   0 -14  -5    0.15    0.20
   0 -14   5    0.26    0.22
   0 -14  -6    8.49    0.78
   0 -14   6    9.80    0.82
   0 -14  -6    9.41    0.79
   0 -14   7    0.15    0.17
   0 -14  -7    0.24    0.19
   0 -15   0   -0.13    0.14
   0  15   0    0.12    0.30
   0 -15   1   12.55    0.97
   0 -15  -1   12.12    0.97
   0 -15   1   13.57    0.99
   0 -15  -2    0.12    0.14
   0 -15   2    0.06    0.15
   0 -15  -2    0.07    0.18
   0 -15   2    0.06    0.13
   0 -15  -3   99.76    6.92
   0 -15  -3  105.29    6.90
   0 -15  -3   92.35    6.90
   0  15  -3   90.98    6.92
   0 -15   3   95.04    6.90
   0 -15   3  102.93    6.89
   0 -15  -4    0.08    0.25
   0 -15  -4    0.21    0.27
   0 -15  -4    0.12    0.16
   0 -15   4    0.26    0.18
   0 -15   4    0.09    0.16
   0 -15   5   37.22    2.66
   0 -15  -5   36.92    2.67
   0 -15   5   34.40    2.66
   0 -15  -5   39.92    2.73
   0 -15   6    0.01    0.17
   0 -15   6   -0.14    0.38
   0 -15  -6    0.04    0.20
   0 -16   0  130.78    9.18
   0 -16   0  129.79    9.17
   0 -16   1   -0.02    0.15
   0 -16   1    0.04    0.13
   0 -16  -1   -0.06    0.13
   0 -16   2    6.11    0.48
   0 -16   2    5.14    0.49
   0 -16  -2    5.56    0.47
   0 -16  -2    4.61    0.53
   0  16  -3    0.40    0.22
   0 -16  -3   -0.01    0.14
   0 -16  -3    0.28    0.24
   0 -16   3   -0.21    0.16
   0 -16   3   -0.10    0.15
   0 -16   4   20.48    1.51
   0 -16   4   18.71    1.51
   0 -16  -4   22.73    1.52
   0 -16  -4   20.56    1.65
   0 -16   5    0.53    0.33
   0 -16   5    0.30    0.20
   0 -17   0   -0.09    0.13
   0 -17   0    0.21    0.18
   0 -17  -1   23.44    1.69
   0 -17  -1   23.62    1.77
   0 -17   1   23.18    1.70
   0  17  -1   24.16    1.74
   0 -17   1   22.99    1.69
   0 -17  -2    0.24    0.14
   0  17  -2    0.28    0.25
   0 -17   2    0.06    0.17
   0 -17   2    0.42    0.17
   0 -17  -2   -0.10    0.23
   0 -17  -3   25.75    1.91
   0 -17   3   24.60    1.84
   0 -17  -3   27.40    1.84
   0 -17   3   24.11    1.86
   1   0   0    0.01    0.01
  -1   0   0   -0.01    0.01
   1   0  -1    2.42    0.18
   1   0   1    2.36    0.22
  -1   0  -1    2.23    0.21
   1   0  -1    2.50    0.24
  -1   0   1    2.28    0.18
  -1   0   1    2.23    0.23
   1   0  -2  824.08   55.58
  -1   0   2  781.70   55.57
   1   0   2  771.03   55.57
  -1   0   3   23.12    1.70
  -1   0  -3   22.88    1.69
   1   0  -3   23.80    1.70
   1   0   3   22.47    1.69
  -1   0  -3   23.07    1.64
   1   0  -3   21.92    1.65
   1   0   4    1.68    0.41
  -1   0   4    0.98    0.36
   1   0  -4    2.05    0.38
  -1   0  -5   60.14    4.11
   1   0  -5   56.08    4.05
  -1   0  -5   52.26    4.04
   1   0  -5   59.16    4.11
   1   0   6  165.05   11.52
   1   0  -6  171.77   11.56
  -1   0  -6  160.29   11.61
  -1   0  -6  160.24   11.55
   1   0  -6  160.17   11.62
  -1   0   6  165.54   11.52
  -1   0   7    0.74    0.22
   1   0  -7    0.90    0.34
  -1   0  -7    0.46    0.32
   1   0   7    0.80    0.29
   1   0  -7    0.67    0.31
  -1   0  -7   -0.20    0.33
  -1   0   7    0.41    0.14
   1   0   7    0.47    0.14
  -1   0   8    2.43    0.42
   1   0  -8    2.41    0.47
   1   0   8    2.08    0.28
  -1   0   8    2.26    0.28
  -1   0  -9   -0.54    0.35
  -1   0   9   -0.39    0.29
   1   0   9    0.11    0.13
   1   0  -9    0.51    0.34
  -1   0  -9    0.44    0.35
   1   0  -9    0.02    0.27
  -1   0   9    0.10    0.15
  -1   0 -10   33.16    2.39
   1   0  10   27.95    2.23
   1   0 -10   32.66    2.30
  -1   0 -11    1.00    0.40
   1   0 -11    0.93    0.35
   1   0  11    0.64    0.17
   1   0 -11    0.92    0.42
  -1   0  11    0.64    0.17
   1   0 -12   -0.38    0.46
  -1   1   0    0.01    0.03
  -1   1   0    0.00    0.02
  -1  -1   0    0.02    0.03
   1  -1   0    0.02    0.03
   1  -1  -2   12.57    0.91
   1  -1  -2   12.69    0.93
  -1   1  -2   12.24    0.92
  -1  -1   2   13.23    0.94
   1   1  -2   12.58    0.92
  -1  -1  -2   12.93    0.93
   1  -1   2   12.06    0.92
   1   1  -2   12.35    0.94
  -1  -1  -2   12.27    0.91
  -1   1   2   12.81    0.90
  -1   1  -3  241.14   17.54
   1  -1  -3  248.07   17.55
  -1  -1   3  242.78   17.55
  -1   1  -3  233.07   17.52
   1  -1  -3  230.06   17.53
   1  -1   3  234.84   17.54
   1   1  -3  286.44   17.53
  -1  -1  -3  275.92   17.53
  -1  -1  -3  253.46   17.55
   1   1  -3  248.19   17.55
  -1   1   3  250.92   17.52
   1  -1  -4   15.58    1.26
  -1   1  -4   15.70    1.17
  -1  -1   4   14.90    1.25
   1  -1  -4   15.49    1.18
   1   1  -4   16.72    1.17
   1   1  -4   15.63    1.26
   1  -1   4   15.07    1.29
  -1  -1  -4   15.78    1.32
  -1  -1  -4   17.41    1.18
  -1   1  -5  146.54   11.50
   1  -1  -5  171.34   11.56
  -1  -1   5  164.40   11.56
   1  -1  -5  150.29   11.52
  -1   1  -5  180.17   11.57
   1   1  -5  155.49   11.51
   1   1  -5  176.07   11.57
   1  -1   5  164.91   11.56
  -1  -1  -5  168.93   11.55
  -1  -1  -5  156.59   11.51
  -1  -1   6    2.08    0.76
  -1   1  -6   -1.00    0.70
  -1   1  -6    0.20    0.33
   1  -1  -6    0.36    0.67
   1  -1   6    1.17    1.36
   1   1  -6   -0.95    0.70
  -1  -1  -6    0.32    0.36
   1   1  -6    0.40    0.35
  -1  -1  -6   -0.15    0.62
  -1  -1   7   64.29    4.79
  -1   1  -7   63.78    4.83
   1   1   7   66.42    4.81
   1  -1  -7   68.76    4.83
   1   1   7   72.80    4.79
  -1  -1   7   70.97    4.79
   1   1  -7   65.31    4.83
  -1  -1  -7   63.89    4.83
  -1   1   7   72.72    4.79
  -1   1   7   65.74    4.79
   1  -1   7   72.24    4.79
   1  -1   7   65.90    4.80
   1  -1  -8    0.24    0.26
  -1   1  -8   -0.56    0.31
  -1  -1   8   -0.41    0.38
   1   1   8   -0.01    0.12
   1  -1  -8   -0.04    0.30
  -1  -1   8    0.00    0.13
   1   1  -8    0.05    0.23
  -1  -1  -8    0.31    0.31
  -1   1   8   -0.06    0.13
   1  -1   8   -0.20    0.12
  -1   1   8   -0.01    0.24
   1  -1   8   -0.48    0.29
  -1  -1  -8   -0.18    0.36
   1   1  -8   -0.15    0.32
  -1   1  -9   43.05    3.18
  -1  -1   9   43.58    3.14
   1   1   9   41.90    3.12
  -1  -1   9   40.02    3.12
   1  -1  -9   48.26    3.18
   1  -1  -9   42.00    3.16
  -1   1  -9   50.11    3.20
   1   1  -9   43.08    3.16
  -1   1   9   44.33    3.15
  -1  -1  -9   40.58    3.23
   1   1  -9   48.96    3.19
  -1  -1  -9   47.53    3.18
  -1   1   9   39.95    3.12
   1  -1   9   41.12    3.12
  -1  -1  10   -0.24    0.15
   1  -1 -10   -0.27    0.36
   1   1  10   -0.05    0.15
  -1   1 -10   -0.46    0.39
   1  -1 -10   -0.47    0.30
   1  -1  10   -0.22    0.14
   1   1 -10    0.01    0.31
  -1  -1 -10   -0.21    0.35
   1   1  11    9.96    0.77
   1  -1 -11    8.99    0.96
  -1  -1  11    9.55    0.77
   1  -1  11   10.55    0.77
  -1   1  11    9.81    0.77
   1  -1 -12    0.65    0.50
  -1  -1  12    0.40    0.16
   1  -1  12    0.39    0.15
   1   1 -12    0.02    0.45
   1   2   0    0.55    0.09
  -1   2   0    0.50    0.10
   1  -2   0    0.34    0.07
  -1   2   0    0.32    0.05
  -1   2  -1   21.50    1.51
   1  -2  -1   21.00    1.50
  -1  -2   1   20.91    1.51
   1   2   1   22.24    1.50
  -1   2   1   22.15    1.50
  -1  -2  -1   20.87    1.51
   1   2  -1   20.30    1.51
  -1  -2  -1   19.81    1.50
   1  -2   1   22.64    1.51
  -1  -2   2  292.24   20.78
   1   2   2  313.67   20.77
  -1   2  -2  301.61   20.78
   1   2  -2  287.97   20.78
   1   2  -2  301.64   20.78
   1  -2   2  290.02   20.78
  -1   2   2  285.40   20.77
  -1  -2   3    8.41    0.72
  -1   2  -3    9.05    0.71
   1  -2  -3    9.20    0.66
   1  -2  -3    8.46    0.70
  -1  -2  -3    7.31    0.66
   1  -2   3    8.97    0.71
  -1   2   3    8.55    0.65
   1   2  -3    8.70    0.72
  -1  -2  -3    9.39    0.70
   1   2  -3    9.01    0.66
   1  -2  -4   13.87    0.92
  -1   2  -4   12.54    1.01
   1  -2  -4   11.24    1.00
  -1  -2   4   10.93    1.02
   1  -2   4   10.99    1.00
   1   2  -4   11.25    1.02
  -1  -2  -4   10.85    0.99
   1  -2  -5   39.51    3.05
  -1  -2   5   42.54    3.07
   1  -2  -5   37.35    2.96
  -1   2  -5   43.85    3.08
  -1  -2  -5   38.30    2.95
   1   2  -5   44.10    3.08
  -1  -2  -5   41.39    3.04
   1  -2   5   42.70    3.07
  -1   2  -6  168.60   12.00
   1  -2  -6  190.29   12.01
  -1   2  -6  176.49   12.12
  -1  -2   6  157.76   11.96
   1  -2  -6  168.33   12.10
  -1  -2   6  163.91   12.11
   1   2   6  173.05   11.97
  -1  -2   6  159.05   11.96
   1  -2   6  156.72   11.96
   1   2  -6  170.88   12.00
  -1  -2  -6  182.40   12.00
  -1   2   6  167.82   11.97
   1   2  -6  177.84   12.12
   1   2   7    0.64    0.16
  -1  -2   7    0.93    0.22
  -1   2  -7    0.91    0.33
   1  -2  -7    1.28    0.35
  -1  -2   7    0.73    0.15
   1   2   7    1.50    0.34
  -1   2   7    0.38    0.26
   1  -2   7    0.86    0.15
  -1  -2  -7    0.86    0.32
   1   2  -7    0.92    0.36
  -1   2   7    0.99    0.18
   1  -2  -8    7.27    0.70
  -1  -2   8    5.72    0.51
   1   2   8    5.73    0.51
   1  -2   8    5.52    0.50
  -1   2   8    5.88    0.51
   1  -2   8    6.95    0.67
  -1  -2   9   -0.01    0.27
  -1   2  -9    0.12    0.34
  -1  -2   9    0.14    0.16
   1  -2  -9    0.28    0.28
   1   2   9    0.36    0.15
   1  -2  -9    0.64    0.34
   1   2  -9    0.63    0.38
   1   2  -9    0.06    0.27
   1  -2   9    0.54    0.16
  -1   2   9    0.19    0.31
  -1   2   9    0.27    0.16
  -1   2 -10   44.00    3.14
   1   2  10   42.07    3.07
  -1   2 -10   45.41    3.13
   1  -2 -10   43.87    3.11
  -1  -2  10   41.42    3.07
   1  -2 -10   42.10    3.11
   1   2 -10   43.46    3.11
  -1   2  10   40.76    3.07
   1  -2  10   41.84    3.06
  -1  -2 -10   44.39    3.12
   1   2 -10   43.80    3.13
  -1   2 -11    0.56    0.41
   1  -2 -11    1.02    0.38
  -1  -2  11    0.49    0.17
   1  -2 -11    0.27    0.36
   1  -2  11    0.62    0.17
   1   2 -11    0.06    0.34
  -1  -2 -11    1.23    0.36
  -1  -2  12    0.24    0.14
   1  -2  12    0.35    0.15
   1   2 -12    0.70    0.44
   1   3   0    0.11    0.09
   1  -3   0    0.00    0.08
  -1   3   0    0.02    0.05
  -1   3   0    0.07    0.09
  -1  -3   0    0.08    0.08
   1   3   0    0.02    0.04
  -1   3  -2    0.24    0.13
  -1  -3   2    0.21    0.13
   1  -3  -2    0.28    0.08
   1   3   2    0.42    0.09
  -1   3   2    0.22    0.07
  -1  -3  -2    0.27    0.07
   1   3  -2    0.23    0.13
   1  -3   2    0.19    0.12
   1  -3  -3  169.50   11.60
   1  -3  -3  173.57   11.58
  -1   3  -3  159.23   11.60
  -1  -3   3  155.14   11.60
   1   3   3  172.59   11.57
   1  -3   3  156.67   11.59
  -1  -3  -3  165.65   11.60
   1   3  -3  160.83   11.58
  -1   3   3  161.72   11.57
  -1  -3  -3  174.62   11.58
   1   3  -3  162.37   11.60
   1  -3  -4   16.77    1.37
   1  -3  -4   17.57    1.30
  -1   3  -4   16.62    1.28
  -1   3  -4   18.43    1.40
   1   3  -4   18.69    1.30
  -1   3   4   17.36    1.28
  -1  -3  -4   16.95    1.37
   1  -3   4   17.23    1.38
   1   3  -4   18.31    1.43
  -1   3  -5   88.28    5.89
  -1  -3   5   81.18    5.89
   1  -3  -5   69.34    5.78
  -1   3  -5   79.69    5.77
   1  -3  -5   81.08    5.87
   1   3  -5   83.17    5.77
   1   3  -5   86.22    5.90
   1  -3   5   84.17    5.89
  -1  -3  -5   79.49    5.77
   1  -3  -6    2.19    0.41
  -1  -3   6    2.49    0.30
  -1  -3   6    1.81    0.37
   1   3   6    2.83    0.36
  -1  -3   6    1.88    1.27
  -1  -3  -6    2.10    0.40
  -1   3   6    2.48    0.35
  -1   3   6    2.37    0.36
   1  -3   6    2.17    0.45
   1   3  -6    1.85    0.40
   1  -3   6    2.58    0.29
   1   3  -6    1.13    1.07
  -1  -3   7   87.23    5.90
   1  -3  -7   86.04    5.93
   1  -3  -7   81.62    5.93
  -1  -3   7   76.40    5.89
  -1   3  -7   76.60    5.93
   1   3   7   95.14    5.91
   1   3  -7   75.02    5.93
  -1  -3  -7   78.61    5.93
  -1   3   7   84.85    5.91
  -1   3   7   95.57    5.91
   1  -3   7   77.01    5.89
   1  -3   7   87.53    5.89
  -1   3  -8   -0.09    0.35
  -1  -3   8    0.09    0.14
   1  -3  -8   -0.12    0.31
   1   3   8    0.07    0.15
   1  -3  -8   -0.33    0.52
  -1  -3   8   -0.08    0.23
  -1   3   8   -0.11    0.35
  -1  -3  -8    0.20    0.31
  -1   3   8    0.09    0.15
   1  -3   8   -0.08    0.13
   1   3  -8    0.24    0.34
   1  -3  -9   42.98    3.29
  -1  -3   9   40.06    3.24
  -1   3  -9   45.86    3.31
  -1  -3   9   48.87    3.27
   1  -3   9   40.37    3.24
   1   3  -9   53.05    3.32
   1   3  -9   46.26    3.29
  -1   3   9   47.20    3.29
   1  -3 -10   -0.47    0.32
  -1  -3  10   -0.14    0.16
  -1   3 -10    0.13    0.40
  -1   3 -10   -0.41    0.39
   1  -3 -10    0.24    0.33
  -1   3  10   -0.08    0.15
   1  -3  10    0.10    0.16
   1   3 -10    0.19    0.31
  -1  -3 -10    0.20    0.35
  -1  -3  11   21.69    1.48
   1  -3 -11   17.46    1.56
   1  -3 -11   20.41    1.59
  -1   3 -11   20.78    1.67
   1   3 -11   21.61    1.57
   1  -3  11   22.17    1.48
  -1  -3 -11   18.04    1.54
  -1  -3  12    0.04    0.15
   1  -3  12    0.22    0.15
   1   3 -12   -0.14    0.40
  -1   4   0    1.68    0.18
   1  -4   0    2.55    0.25
   1   4   0    2.55    0.26
  -1  -4   1   51.92    3.59
  -1   4  -1   53.42    3.59
   1  -4  -1   48.74    3.59
   1   4   1   50.01    3.56
   1  -4  -1   48.48    3.56
  -1  -4  -1   48.93    3.59
  -1   4   1   49.60    3.56
   1   4  -1   53.09    3.59
   1  -4   1   51.53    3.59
  -1  -4   2  220.57   14.65
   1  -4  -2  194.86   14.62
   1  -4  -2  210.45   14.65
  -1   4  -2  214.89   14.65
   1   4   2  207.13   14.62
  -1  -4  -2  194.99   14.62
   1  -4   2  213.91   14.65
   1   4  -2  209.73   14.65
  -1  -4  -2  213.59   14.65
  -1   4   2  203.64   14.62
   1  -4  -3    5.54    0.45
   1   4   3    5.46    0.44
  -1   4   3    5.68    0.44
  -1  -4  -3    5.69    0.44
  -1   4  -4   49.33    3.74
   1  -4  -4   59.13    3.68
   1  -4  -4   48.17    3.72
  -1   4  -4   54.09    3.67
  -1  -4   4   45.65    3.73
  -1  -4  -4   51.19    3.75
  -1   4   4   56.56    3.67
   1   4  -4   59.34    3.69
   1  -4   4   48.07    3.72
  -1  -4  -4   47.27    3.72
   1   4  -4   47.78    3.75
  -1  -4   5   33.40    2.54
   1  -4  -5   33.17    2.48
   1  -4  -5   27.97    2.29
  -1   4  -5   28.97    2.27
  -1   4  -5   35.23    2.55
  -1  -4  -5   26.09    2.27
   1   4  -5   32.03    2.53
   1  -4   5   35.53    2.52
  -1  -4  -5   31.28    2.44
   1   4  -5   29.59    2.26
  -1   4  -6  223.39   14.48
   1  -4  -6  221.63   14.48
   1  -4  -6  194.79   14.47
   1   4   6  177.32   14.44
  -1  -4   6  207.48   14.50
  -1  -4   6  206.05   14.47
   1   4  -6  219.76   14.49
   1  -4   6  186.52   14.43
  -1  -4  -6  228.75   14.48
   1  -4   6  203.22   14.43
  -1   4   6  175.77   14.44
  -1   4   6  219.93   14.45
  -1  -4   7    0.01    0.14
   1  -4  -7    0.50    0.34
  -1  -4   7   -0.09    0.21
   1   4   7    0.07    0.17
   1  -4  -7   -0.09    0.32
  -1   4  -7   -0.06    0.34
   1  -4   7    0.16    0.24
  -1   4   7    0.55    0.27
  -1   4   7    0.14    0.18
   1  -4   7    0.06    0.13
  -1  -4  -7    0.17    0.31
   1   4  -7    0.16    0.35
  -1  -4   8    2.14    0.29
   1   4   8    2.06    0.32
   1  -4  -8    2.46    0.37
  -1   4   8    1.73    0.33
   1  -4   8    1.69    0.29
  -1  -4   9    0.61    0.29
  -1  -4   9    0.34    0.17
  -1   4  -9    0.54    0.40
   1  -4  -9    0.36    0.31
   1  -4  -9    0.51    0.32
  -1  -4  -9    0.65    0.34
  -1   4   9    0.69    0.18
   1   4  -9   -0.02    0.42
   1  -4   9    0.42    0.16
   1  -4 -10   44.85    3.24
  -1   4 -10   44.04    3.18
  -1   4 -10   47.08    3.27
   1  -4 -10   42.37    3.15
  -1  -4  10   44.84    3.12
  -1  -4 -10   43.47    3.16
   1   4 -10   37.17    3.27
   1  -4  10   45.92    3.12
   1  -4 -11    0.48    0.36
  -1   4 -11    0.73    0.43
  -1   4 -11    0.15    0.45
   1  -4 -11    0.67    0.38
  -1  -4  11    0.49    0.16
   1   4 -11    0.50    0.32
  -1  -4 -11    0.87    0.33
   1  -4  11    0.47    0.16
   1   4 -12    0.49    0.38
   1   5   0    0.09    0.06
   1  -5   0    0.15    0.15
  -1   5   0    0.18    0.17
   1   5   0    0.12    0.15
  -1   5   0    0.08    0.08
  -1  -5   0    0.25    0.15
   1   5   1  273.85   21.13
  -1  -5   1  311.60   21.17
  -1   5  -1  320.40   21.18
   1  -5  -1  305.24   21.17
  -1   5   1  267.29   21.14
  -1  -5  -1  310.01   21.17
   1  -5   1  302.35   21.17
   1   5  -1  320.44   21.18
  -1   5  -2    0.23    0.22
   1   5   2    0.37    0.09
  -1  -5   2    0.38    0.18
   1  -5  -2    0.42    0.10
   1  -5  -2    0.13    0.21
  -1   5   2    0.27    0.10
   1   5  -2    0.34    0.21
  -1  -5  -2    0.49    0.10
   1  -5   2    0.33    0.18
  -1  -5  -2    0.31    0.19
   1   5   3  160.64   11.10
   1  -5  -3  157.07   11.11
  -1  -5   3  159.55   11.14
  -1   5  -3  157.39   11.15
   1  -5  -3  154.71   11.15
   1   5  -3  156.48   11.15
  -1  -5  -3  153.51   11.14
   1  -5   3  158.88   11.14
  -1  -5  -3  159.71   11.10
   1   5  -3  155.94   11.12
  -1   5   3  163.89   11.10
  -1   5  -4    9.51    0.99
  -1  -5   4   10.78    1.01
  -1   5  -4    9.89    0.79
   1  -5  -4   10.37    0.81
   1  -5  -4    9.63    1.01
   1  -5  -4    9.81    0.98
   1   5  -4    9.56    0.82
  -1  -5  -4   10.58    1.00
   1   5  -4   10.02    1.08
  -1  -5  -4   10.57    0.81
  -1  -5  -4   10.98    1.00
  -1   5   4   10.30    0.79
   1  -5   4    9.89    0.99
   1  -5  -5   75.62    5.47
  -1  -5   5   71.15    5.41
  -1  -5   5   75.79    5.41
   1  -5  -5   81.31    5.59
  -1   5  -5   84.10    5.65
  -1  -5   5   86.60    5.67
  -1   5  -5   75.20    5.47
   1  -5  -5   71.23    5.45
  -1  -5  -5   64.80    5.45
   1   5  -5   86.08    5.83
   1  -5   5   72.76    5.40
   1  -5   5   80.52    5.64
   1   5  -5   74.90    5.46
  -1  -5  -5   75.09    5.45
   1   5   6    2.94    0.46
  -1  -5   6    2.91    0.43
  -1   5  -6    2.43    0.47
   1  -5  -6    3.11    0.64
   1  -5  -6    2.17    0.40
   1  -5   6    2.71    0.53
   1   5  -6    2.62    0.42
  -1  -5  -6    2.75    0.59
   1  -5  -7   65.77    4.82
  -1   5  -7   63.34    4.91
   1  -5  -7   68.53    4.80
  -1  -5   7   64.04    4.75
   1   5  -7   58.17    4.83
  -1   5   7   72.58    4.77
   1  -5   7   75.61    4.77
  -1  -5  -7   67.77    4.81
   1  -5   7   66.61    4.75
   1  -5  -8   -0.17    0.29
  -1   5  -8   -0.20    0.38
  -1  -5   8    0.10    0.15
  -1  -5   8    0.34    0.23
   1  -5  -8    0.40    0.31
   1  -5   8   -0.13    0.28
  -1  -5  -8   -0.15    0.30
   1   5  -8    0.21    0.38
   1  -5   8   -0.03    0.15
  -1   5   8   -0.19    0.32
   1  -5  -9   27.07    2.38
  -1   5  -9   35.73    2.41
   1  -5  -9   33.31    2.37
  -1  -5   9   29.85    2.34
   1   5  -9   33.45    2.40
  -1  -5  -9   34.28    2.37
   1  -5 -10   -0.35    0.32
  -1  -5  10   -0.14    0.29
  -1   5 -10   -0.62    0.43
   1  -5 -10   -0.24    0.34
   1   5 -10   -0.27    0.29
   1  -5  10    0.04    0.29
  -1  -5 -10   -0.11    0.51
  -1   5 -11    8.28    0.92
  -1  -5  11    8.43    0.63
   1  -5 -11    7.43    0.99
  -1  -5 -11    6.31    0.73
   1  -5  11    8.66    0.63
   1   5 -11    7.26    0.79
  -1  -5  12    0.02    0.14
   1   5 -12    0.09    0.36
   1  -5  12    0.01    0.15
  -1  -6   0   10.47    0.83
   1  -6  -1    0.38    0.22
  -1  -6   1    0.80    0.22
  -1   6  -1    0.86    0.14
   1   6   1    0.85    0.12
  -1   6  -1    0.94    0.25
  -1   6   1    0.87    0.14
   1  -6   1    0.82    0.22
   1   6  -1    1.12    0.25
  -1  -6  -1    0.54    0.22
   1   6   2  262.11   19.35
  -1  -6   2  282.80   19.40
  -1   6  -2  269.41   19.43
   1  -6  -2  273.50   19.40
  -1  -6  -2  277.23   19.40
   1  -6   2  275.16   19.40
  -1   6   2  283.66   19.36
   1   6  -2  282.78   19.40
   1  -6  -3    2.66    0.54
   1   6   3    2.22    0.27
  -1  -6   3    2.35    0.42
  -1   6  -3    2.63    0.53
   1  -6  -3    2.59    0.31
   1  -6   3    3.17    0.49
  -1   6   3    2.42    0.29
  -1  -6  -3    2.82    0.29
   1   6  -3    2.50    0.45
  -1  -6  -3    2.28    0.42
   1   6  -3    2.78    0.32
  -1  -6   4    2.59    0.63
  -1   6  -4    3.95    0.75
   1  -6  -4    2.59    0.48
   1  -6  -4    2.09    0.66
  -1   6  -4    3.21    0.36
   1  -6  -4    3.12    0.41
   1   6  -4    3.26    0.47
   1  -6   4    2.94    0.63
  -1   6   4    3.14    0.39
  -1  -6  -4    3.42    0.41
  -1  -6  -4    1.58    0.64
   1   6  -4    2.01    0.63
  -1  -6   5   18.51    2.17
  -1   6  -5   19.01    1.53
   1  -6  -5   16.36    1.34
  -1  -6   5   17.58    1.25
   1  -6  -5   17.50    1.34
   1  -6  -5   16.39    1.40
   1   6  -5   14.69    1.95
  -1   6   5   14.01    1.30
   1   6  -5   17.33    1.39
   1  -6   5   17.68    1.26
  -1  -6  -5   15.74    1.40
   1  -6  -6  146.31   10.37
   1  -6  -6  130.18   10.37
  -1  -6   6  154.49   10.34
  -1  -6   6  147.75   10.33
  -1   6  -6  151.22   10.38
  -1   6   6  142.36   10.35
   1  -6   6  145.22   10.33
  -1  -6  -6  139.08   10.37
   1  -6   6  157.33   10.34
   1   6  -6  153.38   10.37
  -1  -6   7    0.02    0.16
  -1  -6   7   -0.02    0.22
   1  -6  -7    0.27    0.31
  -1   6  -7    0.05    0.37
   1  -6  -7    0.15    0.43
   1   6  -7    0.49    0.38
   1  -6   7    0.18    0.44
  -1  -6  -7    0.30    0.30
   1  -6   7   -0.02    0.17
   1  -6  -8    5.11    0.71
  -1  -6   8    4.78    0.58
  -1   6   8    5.21    0.72
   1   6  -8    6.19    0.78
   1  -6   8    6.08    0.64
  -1  -6   9    0.89    0.28
  -1  -6   9    0.30    0.17
  -1   6  -9    0.88    0.42
   1  -6  -9    0.31    0.35
   1  -6  -9    0.84    0.31
  -1  -6  -9    0.68    0.29
   1   6  -9    0.50    0.48
   1  -6   9    0.40    0.16
   1  -6 -10   30.18    2.24
  -1  -6  10   30.24    2.21
  -1   6 -10   30.84    2.27
  -1   6 -10   30.94    2.29
   1  -6 -10   30.00    2.28
  -1  -6 -10   31.25    2.24
   1   6 -10   31.07    2.25
   1  -6  10   31.31    2.21
  -1  -6  11    0.07    0.14
  -1   6 -11    0.24    0.41
   1   6 -11    0.37    0.30
   1  -6  11    0.13    0.13
  -1  -6 -11    0.36    0.29
  -1  -7   0   -0.17    0.24
  -1   7   0    0.10    0.11
  -1   7   0   -0.24    0.30
   1   7   0    0.00    0.09
   1   7   0   -0.15    0.27
  -1  -7   1  405.90   28.29
  -1   7  -1  425.62   28.30
   1  -7  -1  402.67   28.30
   1   7  -1  424.34   28.30
  -1   7   1  383.64   28.24
   1  -7   1  404.39   28.29
   1   7  -1  369.72   28.24
  -1  -7  -1  404.21   28.29
  -1  -7   2    2.41    0.48
  -1   7  -2    2.57    0.43
  -1   7   2    2.84    0.27
   1  -7   2    2.22    0.39
   1   7  -2    1.56    0.51
  -1  -7  -2    2.94    0.47
   1  -7  -3  135.16    9.00
  -1  -7   3  123.69    9.06
   1   7   3  136.44    8.99
  -1   7  -3  118.29    9.07
   1  -7  -3  119.14    9.07
   1   7  -3  134.88    9.02
   1  -7   3  122.84    9.06
  -1  -7  -3  122.49    9.07
  -1   7   3  144.67    9.00
   1   7  -3  119.50    9.07
  -1   7  -4    5.48    0.47
   1  -7  -4    4.64    0.59
  -1  -7   4    6.33    1.20
  -1  -7   4    4.97    0.44
  -1   7  -4    5.80    0.90
  -1   7  -4    4.72    0.73
  -1  -7   4    5.08    0.45
   1  -7  -4    5.43    0.52
  -1  -7  -4    5.74    0.55
   1  -7   4    4.66    0.45
  -1   7   4    5.83    0.57
   1  -7   4    5.23    0.44
  -1   7   4    4.25    0.57
   1   7  -4    5.80    0.98
   1   7  -4    4.78    0.72
   1  -7   4    6.35    1.14
   1   7  -4    4.61    0.84
  -1   7  -5  105.22    7.06
  -1  -7   5   93.49    6.98
   1  -7  -5  107.40    7.03
   1  -7  -5   98.88    7.03
  -1  -7   5  100.83    6.98
  -1  -7  -5  103.44    7.03
  -1   7   5   83.11    7.01
   1  -7   5   91.55    6.98
   1  -7   5  101.47    6.98
   1   7  -5  104.93    7.05
  -1  -7   6    2.44    0.40
   1  -7  -6    1.83    0.37
  -1   7  -6    2.37    0.61
  -1   7   6    1.86    0.36
   1   7  -6    2.11    0.44
   1  -7   6    3.07    0.45
  -1  -7   7   52.43    3.86
  -1  -7   7   56.60    3.87
  -1   7  -7   53.30    3.92
   1  -7  -7   53.47    3.91
   1  -7  -7   53.46    3.98
   1   7  -7   52.50    3.91
   1  -7   7   52.19    3.86
  -1   7   7   54.86    3.89
  -1  -7  -7   55.21    3.91
   1  -7   7   57.94    3.87
   1  -7  -8    0.02    0.34
   1  -7  -8    0.22    0.30
  -1  -7   8   -0.09    0.24
  -1   7  -8   -0.50    0.41
  -1  -7   8   -0.12    0.16
   1  -7   8    0.30    0.29
   1   7  -8   -0.02    0.45
  -1  -7  -8   -0.37    0.29
   1  -7   8   -0.03    0.15
  -1   7  -9   28.19    2.01
   1  -7  -9   25.81    2.03
   1  -7  -9   28.72    1.95
  -1  -7   9   26.34    1.94
  -1  -7   9   24.03    1.91
   1   7  -9   24.60    2.18
  -1  -7  -9   28.17    1.96
   1  -7   9   24.76    1.91
  -1  -7  10    0.21    0.15
  -1   7 -10   -0.79    0.55
   1  -7 -10   -0.15    0.33
  -1   7 -10   -0.11    0.33
   1  -7 -10    0.54    0.29
  -1  -7 -10    0.10    0.25
   1   7 -10   -0.03    0.28
   1  -7  10   -0.10    0.14
  -1  -7  11   14.56    1.00
  -1   7 -11   12.60    1.19
   1  -7  11   13.89    0.99
   1   7 -11   12.09    1.10
  -1  -8   0    6.51    0.72
  -1   8   0    4.33    0.44
   1   8   0    5.30    0.42
  -1  -8   1    3.78    0.62
   1  -8  -1    2.74    0.48
  -1   8  -1    3.11    0.33
  -1   8  -1    2.81    0.53
   1   8  -1    2.59    0.31
  -1  -8  -1    2.34    0.50
   1   8  -1    3.94    0.65
   1  -8   1    3.47    0.61
   1  -8  -2   98.23    6.85
  -1  -8   2   96.61    6.84
  -1   8  -2   97.97    6.94
  -1  -8   2  101.98    6.93
  -1  -8   2   91.48    6.83
  -1   8  -2   99.00    6.88
  -1   8  -2   96.55    6.86
  -1   8  -2   92.92    6.84
   1  -8  -2  102.41    6.94
  -1  -8  -2   99.53    6.94
   1  -8   2   91.69    6.83
   1   8  -2   99.40    6.94
   1   8  -2   96.31    6.87
   1  -8   2   96.26    6.92
  -1   8  -3    0.78    0.33
  -1  -8   3    0.84    0.67
   1  -8  -3    0.77    0.19
  -1  -8   3    1.47    0.23
  -1   8  -3    1.08    0.20
  -1  -8   3    0.97    0.16
  -1   8  -3    0.70    0.65
  -1  -8  -3    0.88    0.20
  -1   8   3    1.10    0.22
   1  -8   3    1.89    0.65
   1  -8   3    0.92    0.16
   1   8  -3    1.24    0.42
   1   8  -3    0.30    0.73
   1   8  -3    1.82    0.53
   1  -8   3    1.43    0.21
   1   8  -3    1.10    0.19
   1  -8  -4    2.69    0.39
   1  -8  -4    2.09    0.43
  -1   8  -4    2.60    0.34
   1   8   4    3.21    0.52
  -1  -8   4    3.01    0.31
  -1  -8   4    3.59    0.33
  -1   8  -4    2.72    0.66
  -1  -8  -4    3.45    0.66
   1  -8   4    3.03    0.30
   1  -8   4    2.77    0.32
  -1   8   4    2.92    0.54
  -1  -8  -4    3.19    0.41
  -1  -8   5    7.36    0.59
   1  -8  -5    8.07    0.71
  -1  -8   5    7.17    0.60
   1  -8  -5    6.92    0.69
   1   8   5    6.09    0.77
  -1   8  -5    6.31    0.89
  -1   8   5    6.48    0.72
   1   8  -5    6.68    0.95
  -1  -8  -5    7.41    0.71
   1  -8   5    7.44    0.61
   1  -8   5    8.18    0.59
  -1  -8   6  131.26    8.85
  -1  -8   6  121.77    8.84
  -1   8  -6  131.81    8.90
   1  -8   6  125.97    8.84
  -1  -8  -6  107.63    8.88
   1  -8   6  131.52    8.85
   1   8  -6  127.99    8.88
   1  -8  -7   -0.27    0.36
  -1  -8   7    0.05    0.23
  -1  -8   7    0.07    0.18
  -1   8  -7   -0.12    0.39
   1  -8  -7    0.29    0.30
   1   8  -7    0.03    0.47
  -1   8   7    0.31    0.34
   1  -8   7    0.04    0.26
  -1  -8  -7    0.13    0.32
   1  -8   7    0.01    0.17
   1  -8  -8   22.39    1.55
  -1  -8   8   17.59    1.51
  -1   8  -8   21.91    1.62
  -1  -8  -8   22.72    1.56
   1  -8   8   17.44    1.53
   1   8  -8   19.41    1.67
  -1  -8   9    0.46    0.22
   1  -8  -9    0.89    0.31
  -1   8  -9    0.98    0.49
   1  -8  -9    0.84    0.35
   1  -8   9    0.69    0.22
  -1  -8  -9    1.03    0.36
   1  -8 -10   31.35    2.38
  -1   8 -10   30.02    2.20
  -1  -8  10   30.56    2.14
   1  -8 -10   27.57    2.16
   1  -8  10   29.67    2.14
   1   8 -10   31.05    2.18
  -1  -8 -10   29.15    2.16
  -1  -8  11    0.16    0.14
  -1   8 -11    0.61    0.40
   1   8 -11   -0.25    0.29
   1  -8  11    0.02    0.13
   1  -9   0   -0.44    0.54
  -1  -9   0   -0.13    0.11
   1   9   0    0.03    0.15
   1  -9   0    0.17    0.11
   1  -9   0    0.04    0.13
   1  -9   0    0.06    0.11
  -1   9   0   -0.05    0.13
  -1   9   0    0.11    0.27
  -1  -9   0    0.00    0.11
   1   9   1  128.02    9.65
  -1  -9   1  152.36    9.66
  -1  -9   1  125.60    9.65
   1  -9  -1  146.45    9.77
  -1   9  -1  135.61    9.68
  -1   9  -1  135.13    9.65
   1  -9  -1  140.54    9.65
  -1   9  -1  151.20    9.80
   1  -9  -1  126.47    9.65
  -1   9  -1  140.99    9.68
   1  -9   1  137.50    9.64
  -1  -9  -1  134.34    9.70
   1  -9   1  139.08    9.65
   1   9  -1  130.79    9.65
   1   9  -1  131.26    9.96
   1  -9   1  144.93    9.77
   1  -9   1  132.77    9.65
  -1   9   1  135.82    9.65
  -1  -9   2    1.09    0.20
  -1   9  -2    0.84    0.74
  -1   9  -2    0.68    0.33
   1  -9  -2    0.89    0.17
  -1  -9   2    0.93    0.16
   1   9   2    0.59    0.20
  -1  -9   2    1.39    0.20
  -1   9  -2    0.45    0.39
   1  -9  -2    0.93    0.22
  -1   9  -2    1.27    0.23
   1  -9   2   -0.23    0.76
  -1  -9  -2    0.91    0.17
  -1   9   2    0.79    0.18
   1  -9   2    1.12    0.21
   1   9  -2    0.29    0.64
  -1  -9   3   96.84    6.60
   1   9   3   96.68    6.62
  -1   9  -3   87.24    6.65
   1  -9  -3   97.31    6.61
  -1  -9   3   88.88    6.59
  -1   9  -3   93.28    6.60
   1   9  -3   89.90    6.76
  -1   9   3  100.86    6.62
   1  -9   3   89.86    6.59
  -1  -9  -3   98.49    6.61
   1   9  -3   89.78    6.61
  -1  -9  -3   90.79    6.61
   1  -9   3   96.58    6.60
   1  -9  -4    3.38    0.44
  -1  -9   4    4.31    0.37
  -1   9  -4    3.27    0.57
  -1   9  -4    3.54    0.39
  -1  -9   4    3.53    0.36
   1  -9  -4    4.29    0.44
   1   9   4    3.78    0.56
   1  -9   4    3.76    0.35
  -1  -9  -4    3.93    0.43
  -1  -9  -4    3.93    0.52
  -1   9   4    3.20    0.48
   1  -9   4    3.33    0.37
   1   9  -4    4.11    0.93
   1  -9  -5   41.81    3.09
   1  -9  -5   45.43    3.09
  -1  -9   5   37.51    3.04
  -1   9  -5   45.66    3.16
  -1  -9   5   42.83    3.04
   1   9  -5   47.88    3.17
   1  -9   5   42.75    3.04
  -1  -9  -5   46.45    3.10
  -1  -9  -5   39.87    3.15
   1  -9   5   37.39    3.04
  -1   9  -6    2.44    0.50
  -1  -9   6    2.83    0.37
   1  -9  -6    2.99    0.59
  -1  -9   6    3.11    0.42
   1   9  -6    2.41    0.56
  -1   9   6    2.63    0.56
   1  -9   6    2.59    0.46
   1  -9   6    2.74    0.35
  -1  -9   7   46.83    3.29
  -1   9  -7   46.11    3.35
   1  -9  -7   44.95    3.32
   1  -9  -7   49.26    3.36
  -1  -9   7   43.04    3.29
   1  -9   7   45.81    3.29
   1   9  -7   46.26    3.43
  -1  -9  -7   45.45    3.33
   1  -9   7   45.58    3.29
  -1   9  -8    0.71    0.50
  -1  -9   8    0.13    0.17
   1  -9  -8    0.52    0.37
   1  -9  -8    0.19    0.28
  -1  -9   8    0.09    0.26
   1  -9   8   -0.36    0.32
  -1  -9  -8   -0.16    0.28
   1  -9   8   -0.04    0.15
   1  -9  -9   25.21    1.88
  -1  -9   9   22.34    1.79
   1  -9  -9   26.31    1.82
  -1  -9   9   24.93    1.84
  -1  -9  -9   27.61    1.83
   1  -9   9   22.71    1.79
  -1   9 -10   -0.03    0.31
   1   9 -10   -0.37    0.26
  -1  -9 -10   -0.24    0.25
   1  -9  10    0.16    0.14
  -1  10   0    5.45    0.46
  -1  10   0    6.13    0.80
   1  10   0    5.06    0.48
  -1 -10   1    0.12    0.11
  -1 -10   1    0.20    0.11
  -1  10  -1    0.06    0.13
   1 -10  -1    0.07    0.12
   1 -10  -1   -0.06    0.12
  -1  10  -1    0.07    0.33
   1  10   1   -0.11    0.16
  -1 -10   1    0.33    0.14
   1  10  -1    0.21    0.15
  -1  10   1   -0.21    0.13
  -1 -10  -1   -0.05    0.12
  -1  10   1   -0.50    0.40
   1 -10   1    0.07    0.12
   1 -10   1   -0.07    0.11
   1 -10   1    0.03    0.11
   1 -10  -2  113.04    7.71
   1  10   2  106.84    7.72
  -1  10  -2  110.33    7.77
  -1  10  -2  111.15    7.72
   1 -10  -2  104.74    7.71
  -1 -10   2  107.72    7.71
  -1 -10   2  108.41    7.70
   1 -10   2  109.91    7.71
  -1 -10  -2  104.80    7.72
  -1  10   2  114.47    7.72
  -1 -10  -2  114.92    7.71
   1 -10   2  110.05    7.70
   1  10  -2  106.02    7.71
  -1 -10   3    1.20    0.24
   1  10   3    1.26    0.27
   1 -10  -3    1.49    0.27
   1 -10  -3    1.15    0.22
  -1  10  -3    1.27    0.26
  -1 -10   3    1.16    0.19
  -1  10  -3    1.16    0.47
   1  10  -3    0.31    0.79
  -1 -10  -3    1.19    0.23
   1 -10   3    1.37    0.23
   1  10  -3    1.07    0.21
   1 -10   3    1.28    0.24
  -1 -10  -3    1.37    0.24
  -1  10   3    1.74    0.34
  -1 -10   4   15.62    1.13
   1 -10  -4   15.37    1.17
  -1  10  -4   13.63    1.15
  -1  10  -4   15.22    1.44
  -1 -10   4   16.22    1.14
  -1 -10  -4   15.30    1.20
   1  10  -4   14.71    1.60
   1 -10   4   16.20    1.14
  -1 -10  -4   15.92    1.18
   1 -10   4   14.90    1.13
  -1 -10   5    4.71    0.44
  -1 -10   5    3.78    0.42
  -1  10  -5    5.67    0.86
   1 -10  -5    4.65    0.55
   1 -10  -5    4.08    0.56
   1 -10   5    4.89    0.46
  -1  10   5    3.18    0.59
   1  10  -5    4.14    0.82
  -1 -10  -5    4.36    0.64
   1 -10   5    4.26    0.41
  -1 -10  -5    4.66    0.55
  -1 -10   6   96.55    6.81
  -1 -10   6   97.81    6.82
   1 -10  -6  103.07    6.86
  -1  10  -6  109.59    6.88
   1 -10  -6   82.11    6.84
   1 -10   6   96.73    6.82
   1 -10   6   98.25    6.81
  -1  10   6   96.19    6.84
  -1 -10  -6   87.63    6.85
  -1  10  -7    0.40    0.50
   1 -10  -7    0.04    0.34
  -1 -10   7   -0.42    0.24
   1 -10  -7    0.13    0.28
  -1 -10   7   -0.20    0.18
   1 -10   7   -0.17    0.27
  -1 -10  -7    0.47    0.29
   1 -10   7    0.08    0.17
  -1 -10   8    1.43    0.28
   1 -10  -8    0.67    0.37
   1 -10   8    0.92    0.35
   1 -10   8    1.53    0.30
  -1 -10   9    0.48    0.16
   1 -10  -9    0.74    0.26
   1 -10  -9    0.24    0.36
   1 -10   9    0.58    0.16
  -1 -10  -9    0.75    0.23
  -1  10 -10   28.25    2.04
  -1 -10  10   28.91    1.98
  -1 -10 -10   23.45    2.01
   1 -10  10   28.57    1.98
   1  10 -10   29.14    2.09
  -1  11   0    0.08    0.14
   1 -11   0   -0.05    0.12
   1 -11   0    0.28    0.13
   1  11   0    0.24    0.17
  -1 -11   0    0.01    0.15
   1 -11  -1   55.18    4.16
   1  11   1   57.42    4.17
   1 -11  -1   61.44    4.17
  -1 -11   1   63.16    4.17
  -1 -11   1   56.09    4.16
  -1  11  -1   61.24    4.29
  -1 -11  -1   60.92    4.17
   1 -11   1   56.58    4.16
  -1  11   1   58.19    4.17
  -1 -11  -1   62.51    4.17
  -1 -11  -1   55.01    4.16
   1 -11   1   56.83    4.15
   1  11  -1   58.44    4.17
   1  11   2    1.40    0.27
  -1  11  -2    1.73    0.28
  -1  11  -2    2.13    0.60
   1 -11  -2    1.75    0.26
  -1 -11   2    2.12    0.25
  -1 -11  -2    1.31    0.22
   1 -11   2    1.91    0.26
   1 -11   2    1.76    0.25
  -1 -11  -2    1.50    0.26
   1 -11  -3  118.55    7.94
  -1  11  -3  112.04    7.94
   1 -11  -3  111.37    7.94
  -1 -11   3  110.58    7.92
  -1  11  -3  109.77    8.03
  -1 -11   3  113.75    7.93
  -1  11   3  114.04    7.95
  -1 -11  -3  120.39    7.94
   1 -11   3  112.22    7.93
   1 -11   3  108.96    7.92
   1  11  -3  105.21    7.93
   1 -11  -4    1.21    0.24
  -1 -11   4    1.33    0.27
   1 -11  -4    1.27    0.25
  -1 -11   4    1.24    0.26
   1 -11   4    1.41    0.28
  -1 -11  -4    1.23    0.25
  -1  11   4    0.76    0.28
   1 -11   4    1.53    0.25
  -1 -11  -4    1.21    0.28
   1 -11  -5   34.39    2.54
   1 -11  -5   35.86    2.55
  -1 -11   5   31.73    2.51
  -1 -11   5   35.93    2.50
  -1 -11  -5   37.24    2.55
  -1 -11  -5   36.47    2.58
   1 -11   5   35.33    2.51
   1 -11   5   32.63    2.50
   1 -11  -6    1.40    0.31
   1 -11  -6    1.80    0.37
  -1  11  -6    2.10    0.60
  -1 -11   6    1.65    0.34
  -1 -11   6    1.41    0.26
   1 -11   6    1.88    0.31
  -1 -11  -6    1.23    0.32
   1 -11   6    1.36    0.28
   1 -11  -7   71.52    4.57
  -1 -11   7   69.12    4.55
   1 -11  -7   57.92    4.54
  -1 -11   7   54.27    4.58
  -1 -11  -7   61.37    4.52
   1 -11   7   65.45    4.51
  -1 -11   8    0.15    0.16
   1 -11  -8    0.20    0.24
  -1 -11   8    0.15    0.27
   1 -11  -8    0.35    0.33
   1 -11   8   -0.01    0.15
  -1 -11  -8    0.44    0.23
  -1 -11   9   20.59    1.58
  -1 -11  -9   24.13    1.60
   1 -11   9   20.95    1.58
  -1  12   0    5.76    0.52
   1  12   0    5.88    0.55
   1  12   1    0.06    0.21
  -1  12  -1    0.20    0.16
  -1 -12   1    0.56    0.15
   1 -12  -1    0.10    0.14
  -1 -12   1    0.05    0.12
   1 -12  -1    0.24    0.13
   1 -12  -1    0.18    0.13
  -1 -12   1    0.28    0.12
   1  12  -1    0.50    0.19
  -1  12   1    0.17    0.18
   1 -12   1    0.35    0.13
   1 -12   1    0.43    0.13
  -1 -12  -1    0.17    0.13
  -1 -12  -1    0.26    0.16
  -1 -12  -1    0.08    0.13
  -1 -12   2   69.58    4.89
  -1  12  -2   66.20    4.89
   1 -12  -2   70.94    4.89
   1 -12  -2   69.87    4.89
  -1 -12   2   70.72    4.88
   1  12   2   66.44    4.91
   1 -12  -2   67.35    4.89
  -1 -12  -2   70.63    4.89
   1 -12   2   70.59    4.88
   1 -12   2   70.00    4.89
  -1  12   2   71.17    4.90
   1  12  -2   66.38    4.90
  -1 -12  -2   65.87    4.90
  -1 -12  -2   70.91    4.89
   1 -12  -3    0.70    0.18
   1 -12  -3    0.71    0.18
  -1  12  -3    0.53    0.18
  -1 -12   3    0.50    0.15
  -1 -12   3    0.90    0.18
   1 -12   3    0.85    0.16
  -1  12   3    0.60    0.25
  -1 -12  -3    0.70    0.19
   1 -12   3    0.67    0.16
  -1 -12  -3    0.90    0.22
   1 -12  -4    3.65    0.46
  -1 -12   4    4.22    0.40
   1 -12   4    4.48    0.40
  -1  12   4    3.20    0.56
  -1 -12  -4    3.29    0.52
  -1 -12   5    2.20    0.35
   1 -12  -5    1.31    0.31
   1 -12  -5    2.10    0.43
  -1 -12   5    2.03    0.32
  -1 -12  -5    1.49    0.37
  -1 -12  -5    1.54    0.31
   1 -12   5    1.80    0.37
   1 -12   5    2.15    0.30
  -1 -12   6   46.26    3.19
   1 -12  -6   39.93    3.20
  -1 -12   6   48.22    3.20
  -1 -12  -6   40.56    3.21
   1 -12   6   48.11    3.19
   1 -12   6   43.78    3.21
  -1 -12   7    0.07    0.25
   1 -12  -7    0.96    0.34
  -1 -12   7    0.22    0.18
   1 -12  -7    0.57    0.25
   1 -12   7    0.11    0.17
   1 -12   7    0.12    0.30
  -1 -12  -7    0.36    0.24
   1 -12  -8    1.18    0.37
  -1 -12   8    0.78    0.31
  -1 -12   8    1.00    0.20
  -1 -12   9    0.29    0.15
   1 -12   9    0.39    0.15
  -1  13   0   -0.02    0.17
  -1 -13   0    0.00    0.15
   1 -13   0    0.10    0.12
   1 -13   0   -0.09    0.13
   1  13   0   -0.06    0.22
  -1 -13   0   -0.04    0.13
  -1 -13   0    0.11    0.12
  -1  13  -1   54.54    4.02
  -1 -13   1   54.47    4.02
   1 -13  -1   59.05    4.02
   1 -13  -1   54.05    4.02
  -1 -13   1   60.33    4.01
   1  13   1   55.07    4.04
   1 -13  -1   57.50    4.01
  -1 -13  -1   52.63    4.02
  -1  13   1   57.95    4.04
   1 -13   1   54.60    4.02
   1 -13   1   59.16    4.01
  -1 -13  -1   59.94    4.02
  -1 -13  -1   57.72    4.01
   1  13  -1   55.43    4.03
   1 -13  -2    0.83    0.18
   1 -13  -2    0.46    0.17
  -1  13  -2    0.71    0.19
   1 -13  -2    0.82    0.17
  -1 -13   2    0.51    0.15
   1  13   2    0.49    0.37
  -1 -13   2    0.73    0.17
  -1 -13  -2    0.73    0.17
  -1  13   2    0.36    0.23
   1 -13   2    0.67    0.16
  -1 -13  -2    0.47    0.16
  -1 -13  -2    0.59    0.20
   1 -13   2    0.65    0.16
   1 -13  -3   54.64    3.82
   1 -13  -3   54.32    3.82
  -1 -13   3   56.10    3.82
  -1 -13   3   53.14    3.81
   1 -13  -3   53.79    3.83
  -1 -13  -3   52.35    3.84
   1 -13   3   52.15    3.81
   1 -13   3   56.04    3.82
  -1 -13  -3   55.06    3.82
  -1 -13  -3   56.60    3.83
  -1  13   3   46.58    3.84
  -1 -13   4    0.70    0.17
   1 -13  -4    0.44    0.23
   1 -13  -4    0.70    0.22
  -1  13  -4    0.19    0.41
  -1 -13   4    0.67    0.18
  -1  13   4    0.88    0.35
  -1 -13  -4    0.50    0.21
   1 -13   4    0.63    0.18
   1  13  -4    0.60    0.25
  -1 -13  -4    0.38    0.29
   1 -13   4    0.72    0.16
  -1 -13   5   33.13    2.70
  -1 -13   5   35.90    2.64
   1 -13  -5   38.27    2.68
  -1 -13  -5   41.15    2.74
  -1 -13  -5   34.02    2.64
   1 -13   5   35.77    2.62
   1 -13  -6    1.06    0.25
  -1 -13   6    1.35    0.26
  -1 -13   6    1.85    0.35
  -1 -13  -6    0.73    0.25
   1 -13   6    0.97    0.29
   1 -13   6    1.18    0.22
   1 -13  -7   31.26    2.24
  -1 -13   7   31.93    2.18
  -1 -13   7   27.52    2.18
   1 -13   7   31.81    2.18
  -1 -13  -7   28.24    2.18
  -1 -13   8   -0.07    0.16
   1 -13   8    0.06    0.15
   1 -14  -1   -0.03    0.14
  -1  14  -1   -0.13    0.19
  -1 -14   1    0.10    0.15
   1 -14  -1   -0.17    0.13
  -1 -14   1    0.19    0.13
  -1 -14  -1   -0.17    0.17
   1 -14   1    0.20    0.14
   1 -14   1    0.29    0.13
  -1 -14  -1   -0.08    0.13
  -1 -14  -1   -0.03    0.14
  -1  14   1   -0.34    0.22
   1 -14  -2   78.35    5.39
  -1 -14   2   75.61    5.40
   1 -14  -2   78.34    5.39
  -1 -14   2   77.16    5.38
   1 -14  -2   76.56    5.40
  -1  14  -2   71.50    5.40
   1 -14   2   76.43    5.38
  -1 -14  -2   78.73    5.39
   1 -14   2   76.57    5.39
  -1 -14  -2   75.63    5.41
  -1  14   2   71.31    5.42
  -1 -14  -2   78.50    5.39
  -1 -14   3    0.43    0.16
   1 -14  -3    0.63    0.18
   1 -14  -3    0.17    0.23
  -1 -14   3    0.36    0.17
   1 -14  -3    0.35    0.22
   1  14  -3    0.65    0.23
  -1 -14  -3    0.54    0.19
  -1 -14  -3    0.46    0.17
   1 -14   3    0.61    0.16
   1 -14   3    0.49    0.17
   1 -14  -4    5.04    0.58
  -1 -14   4    5.98    0.51
  -1 -14   4    4.61    0.51
   1 -14  -4    6.29    0.57
  -1 -14  -4    6.24    0.61
   1 -14   4    5.68    0.52
  -1 -14  -4    4.58    0.65
   1 -14  -5    1.12    0.30
   1 -14  -5    0.43    0.22
  -1 -14   5    0.77    0.22
  -1 -14   5    0.85    0.20
  -1 -14  -5    1.14    0.23
   1 -14   5    0.93    0.18
  -1 -14   6   56.02    3.80
   1 -14  -6   48.87    3.80
  -1 -14   6   53.14    3.80
   1 -14  -6   59.02    3.85
   1 -14   6   57.22    3.80
  -1 -14  -6   50.87    3.81
  -1 -14  -6   49.94    3.79
   1 -14   6   51.58    3.80
   1 -14  -7    0.15    0.20
  -1 -14   7    0.05    0.17
   1 -14  -7    0.91    0.44
  -1 -14   7   -0.22    0.34
  -1 -14  -7    0.34    0.20
   1 -14   7   -0.02    0.15
  -1 -15   0   -0.08    0.16
  -1  15   0    0.01    0.26
   1 -15   0   -0.01    0.14
  -1 -15   1   41.17    2.78
   1 -15  -1   38.21    2.77
  -1  15  -1   38.75    2.79
  -1 -15   1   38.05    2.77
   1 -15  -1   39.54    2.78
  -1 -15  -1   39.51    2.82
  -1 -15  -1   37.25    2.77
   1 -15   1   40.16    2.77
   1 -15   1   38.13    2.76
  -1  15   1   36.00    2.81
  -1 -15   2    0.64    0.17
   1 -15  -2    0.76    0.17
   1 -15  -2    0.94    0.19
  -1 -15   2    0.74    0.16
   1 -15   2    0.89    0.17
   1 -15   2    0.67    0.16
  -1 -15  -2    0.56    0.16
  -1 -15  -2    0.88    0.22
  -1 -15  -2    0.70    0.19
   1 -15  -3   46.69    3.23
  -1 -15   3   47.17    3.22
   1 -15  -3   47.35    3.25
  -1  15  -3   40.60    3.24
  -1 -15   3   44.46    3.23
   1  15  -3   41.83    3.25
   1 -15   3   46.44    3.22
   1 -15   3   46.02    3.22
  -1 -15  -3   47.37    3.23
  -1 -15  -3   42.47    3.23
  -1 -15  -3   47.44    3.26
  -1 -15   4    0.63    0.18
  -1 -15   4    0.44    0.18
   1 -15  -4    0.39    0.18
   1 -15  -4    0.24    0.24
   1 -15   4    0.61    0.17
  -1 -15  -4    0.68    0.37
   1 -15   4    0.34    0.20
  -1 -15  -4    0.41    0.18
  -1 -15  -4    0.64    0.22
   1 -15  -5   18.67    1.54
   1 -15  -5   22.29    1.49
  -1 -15   5   20.88    1.48
  -1 -15   5   18.73    1.48
   1 -15   5   18.54    1.47
  -1 -15  -5   17.87    1.49
   1 -15   5   20.44    1.50
  -1 -15  -5   23.01    1.50
   1 -15  -6    0.96    0.34
  -1 -15   6    0.37    0.35
   1  15   6    1.04    0.26
  -1 -15   6    1.12    0.21
   1 -15  -6    0.57    0.21
   1 -15   6    0.88    0.19
  -1 -15  -6    0.65    0.22
  -1 -16   1    0.30    0.17
   1 -16  -1    0.01    0.13
  -1 -16   1    0.04    0.13
   1 -16  -1    0.11    0.16
  -1 -16  -1    0.03    0.13
   1 -16   1    0.30    0.13
   1 -16   1    0.21    0.14
  -1 -16   2   39.98    2.85
   1 -16  -2   40.72    2.85
  -1 -16   2   38.33    2.86
   1 -16  -2   40.16    2.87
   1 -16   2   39.38    2.85
  -1 -16  -2   42.04    2.89
   1 -16   2   38.87    2.86
  -1 -16  -2   41.14    2.85
   1  16  -2   39.97    2.89
  -1 -16   3    0.53    0.17
  -1 -16   3    0.60    0.18
   1 -16  -3    0.79    0.22
   1 -16  -3    0.55    0.16
  -1  16  -3    0.13    0.24
   1  16  -3    0.34    0.21
  -1 -16  -3    0.76    0.31
  -1 -16  -3    0.27    0.15
   1 -16   3    0.27    0.16
   1 -16  -4    4.18    0.44
  -1 -16   4    4.17    0.46
   1 -16  -4    3.29    0.71
  -1 -16   4    4.73    0.45
   1 -16   4    3.08    0.52
  -1 -16  -4    4.92    0.44
   1 -16   4    4.31    0.43
  -1 -16   5    0.22    0.29
   1 -16  -5    0.55    0.32
   1 -16  -5   -0.11    0.18
  -1 -16  -5    0.26    0.18
   1 -16   5    0.68    0.19
   1 -17   0    0.12    0.16
   1 -17   0    0.06    0.14
  -1 -17   0   -0.43    0.32
  -1 -17   0    0.00    0.13
   1  17   0    0.34    0.22
   1 -17  -1   17.41    1.24
  -1 -17   1   17.32    1.24
   1 -17  -1   16.72    1.27
  -1 -17   1   15.81    1.30
  -1  17  -1   16.90    1.29
  -1 -17  -1   16.29    1.32
   1 -17   1   16.92    1.25
   1 -17   1   17.57    1.24
   1  17  -1   17.13    1.30
  -1 -17  -1   17.77    1.24
  -1 -17   2    0.46    0.16
   1 -17  -2    0.20    0.36
   1 -17  -2    0.29    0.15
   1  17  -2    0.14    0.21
   1 -17   2    0.51    0.23
  -1 -17  -2    0.84    0.30
   1 -17   2    0.52    0.17
  -1 -17  -2    0.41    0.15
   1 -17  -3   29.34    1.99
  -1 -17   3   24.88    1.97
   1  17   3   31.61    2.02
   1 -17  -3   26.67    1.96
  -1 -17   3   26.52    1.96
  -1 -17  -3   28.23    1.95
   1 -17   3   22.85    1.96
   2   0   1    8.97    0.68
  -2   0  -1    9.55    0.67
   2   0  -1    8.97    0.70
  -2   0   1    9.18    0.66
   2   0  -1    9.55    0.66
  -2   0   1    9.49    0.69
   2   0  -2   10.18    0.74
  -2   0   2    8.37    0.72
  -2   0  -2    8.67    0.69
   2   0   2    8.71    0.70
  -2   0   3   11.32    0.85
   2   0  -3   11.72    0.95
  -2   0  -3   10.56    0.85
  -2   0  -3   11.57    0.91
   2   0   3   12.93    0.93
  -2   0   3   11.85    0.95
   2   0  -4  114.05    7.66
  -2   0  -4   97.83    7.61
   2   0   4  113.40    7.66
   2   0  -4   97.11    7.62
  -2   0  -4  114.23    7.65
  -2   0   4  111.85    7.67
  -2   0  -5    0.31    0.20
  -2   0  -5   -0.44    0.41
   2   0  -5   -0.49    0.41
   2   0  -5    0.31    0.27
  -2   0  -6   52.49    3.59
  -2   0   6   44.49    3.54
   2   0  -6   52.78    3.71
  -2   0  -7    8.55    0.84
   2   0  -7    7.58    0.73
   2   0  -7    9.01    0.85
   2   0   7    8.70    0.66
  -2   0   7    8.64    0.72
  -2   0   7    8.72    0.67
  -2   0   8   52.94    4.13
  -2   0  -8   64.93    4.19
   2   0   8   53.64    4.12
   2   0  -8   54.10    4.25
   2   0  -8   65.88    4.18
  -2   0   9    6.70    0.72
   2   0  -9    7.52    0.72
  -2   0   9    8.32    0.64
   2   0   9    8.69    0.63
  -2   0  -9    6.95    0.81
   2   0 -10   25.96    2.26
  -2   0 -10   28.14    2.26
  -2   0  10   29.68    2.24
   2   0 -10   30.95    2.24
   2   0  10   34.51    2.20
  -2   0  10   33.59    2.20
  -2   0 -11   -0.15    0.37
  -2   0  11    0.03    0.15
   2   0  11   -0.01    0.14
   2   0 -11   -0.13    0.31
  -2   0 -12   10.56    1.07
   2   0 -12   11.57    1.48
  -2   0  12   13.13    0.91
  -2  -1   0   24.98    1.72
   2  -1   0   24.59    1.72
  -2   1   0   23.63    1.72
   2  -1   0   22.64    1.72
  -2   1   0   24.81    1.72
   2   1   0   25.74    1.72
  -2  -1   1  258.04   18.02
  -2   1  -1  256.91   18.01
   2  -1   1  251.00   18.01
   2   1  -1  261.33   18.02
  -2   1  -2    4.24    0.35
  -2  -1   2    4.23    0.41
   2  -1  -2    4.65    0.34
   2  -1  -2    4.49    0.39
  -2  -1   2    4.71    0.35
   2   1  -2    4.25    0.40
  -2   1   2    4.49    0.33
  -2  -1  -2    4.18    0.34
   2  -1   2    4.13    0.36
  -2  -1  -2    4.61    0.39
   2   1  -2    3.64    0.35
   2  -1  -3  394.55   26.50
   2  -1  -3  342.60   26.47
  -2  -1   3  412.27   26.50
  -2   1  -3  403.01   26.49
   2  -1   3  376.14   26.48
  -2  -1  -3  422.96   26.49
  -2   1   3  332.62   26.46
  -2  -1  -3  361.17   26.46
   2   1  -3  396.88   26.50
   2   1  -3  329.32   26.47
  -2   1  -4    2.86    0.52
  -2   1  -4    3.15    0.32
   2  -1  -4    3.04    0.37
  -2  -1   4    3.02    0.54
   2  -1  -4    3.35    0.55
  -2   1   4    3.66    0.32
   2  -1   4    3.19    0.53
   2   1  -4    4.19    0.56
   2   1  -4    3.76    0.36
  -2  -1  -4    2.95    0.52
  -2  -1  -4    3.76    0.35
  -2   1  -5  214.18   14.42
  -2  -1   5  188.76   14.46
   2  -1  -5  195.06   14.47
   2  -1  -5  213.62   14.44
  -2   1  -5  205.30   14.47
   2   1  -5  205.55   14.47
  -2  -1  -5  194.56   14.45
  -2  -1  -5  221.43   14.42
   2  -1   5  184.81   14.45
   2   1  -5  225.57   14.43
   2  -1  -6    4.52    0.81
  -2   1  -6    4.85    0.68
   2  -1  -6    5.19    0.72
  -2  -1   6    7.19    1.18
  -2   1  -6    4.94    1.04
   2   1  -6    4.97    0.72
  -2  -1  -6    4.39    0.69
   2   1  -6    5.36    0.90
  -2   1   6    4.22    0.51
  -2   1  -7   67.07    4.33
  -2  -1   7   53.76    4.27
   2  -1  -7   58.96    4.30
   2   1   7   55.61    4.27
  -2  -1   7   60.75    4.27
  -2   1   7   53.38    4.27
   2  -1   7   53.46    4.27
   2   1  -7   70.95    4.33
   2  -1   7   58.33    4.35
  -2  -1  -7   69.18    4.33
  -2   1   7   63.22    4.28
  -2  -1   8    2.24    0.45
   2  -1  -8    2.36    0.57
   2   1   8    2.12    0.27
  -2  -1   8    2.38    0.28
  -2   1  -8    2.22    0.41
   2   1  -8    2.06    0.41
  -2  -1  -8    2.06    0.38
  -2   1   8    2.15    0.29
   2  -1   8    1.97    0.27
  -2  -1   9   15.77    1.24
  -2   1  -9   15.68    1.33
   2  -1  -9   17.96    1.27
   2   1  -9   17.48    1.26
  -2   1   9   16.31    1.25
  -2  -1  -9   14.61    1.31
   2  -1 -10   -0.05    0.37
  -2  -1  10   -0.07    0.16
   2   1  10   -0.16    0.15
  -2   1 -10    0.04    0.37
  -2   1  10   -0.22    0.14
   2  -1  10   -0.19    0.14
  -2   1  10   -0.32    0.34
  -2  -1 -10    0.46    0.36
   2   1 -10    0.07    0.40
  -2  -1  11   22.98    1.73
   2   1  11   22.63    1.72
  -2   1 -11   26.91    1.81
   2  -1 -11   25.10    1.99
   2  -1 -11   24.40    1.80
  -2   1  11   22.03    1.73
   2  -1  11   23.44    1.73
   2   1 -11   23.68    1.80
  -2  -1  12    3.99    0.39
   2  -1 -12    3.26    0.59
  -2   1 -12    2.70    0.75
  -2  -1 -12    3.22    0.66
   2  -1  12    3.86    0.38
  -2  -2   1    0.39    0.09
  -2   2  -1    0.64    0.10
   2  -2  -1    0.38    0.08
  -2  -2  -1    0.60    0.10
   2   2  -1    0.52    0.10
  -2   2   1    0.41    0.07
   2   2  -1    0.73    0.13
   2  -2   1    0.59    0.10
   2  -2  -2   37.16    2.63
  -2  -2   2   36.95    2.65
  -2   2  -2   38.36    2.64
   2   2  -2   39.42    2.65
  -2   2   2   36.45    2.63
   2   2  -2   36.03    2.65
   2  -2   2   37.60    2.64
  -2  -2  -2   36.23    2.63
   2  -2  -3   29.11    1.89
   2  -2  -3   24.66    1.91
  -2  -2   3   24.72    1.92
  -2   2  -3   26.37    1.91
  -2   2   3   27.67    1.87
  -2  -2  -3   26.33    1.88
   2  -2   3   25.04    1.90
  -2  -2  -3   24.90    1.90
   2   2  -3   24.71    1.92
   2   2  -3   29.39    1.89
   2  -2  -4  190.78   14.55
   2  -2  -4  218.45   14.59
  -2   2  -4  184.13   14.53
  -2  -2   4  210.47   14.59
  -2   2  -4  228.91   14.59
  -2   2   4  191.10   14.54
   2  -2   4  207.78   14.58
  -2  -2  -4  203.99   14.56
   2   2  -4  219.05   14.60
  -2  -2  -4  213.65   14.58
   2   2  -4  207.39   14.55
  -2   2  -5   12.73    0.91
   2  -2  -5   10.51    0.94
  -2   2  -5   10.67    1.17
   2  -2  -5    9.44    1.13
  -2  -2   5    9.23    1.15
  -2  -2  -5   11.73    1.10
   2   2  -5   10.93    1.19
   2  -2   5    9.72    1.15
   2   2  -5   13.02    0.92
  -2  -2  -5   13.17    0.90
   2  -2  -6   13.06    1.52
  -2   2  -6   12.33    1.07
  -2  -2   6   11.72    1.52
   2  -2  -6   11.72    1.07
  -2  -2  -6   12.17    1.06
   2   2  -6   12.35    1.54
   2   2  -6   10.74    1.06
  -2  -2   7    0.79    0.21
   2  -2  -7    1.08    0.35
   2  -2  -7    0.67    0.27
  -2   2  -7    0.83    0.36
   2   2   7    1.09    0.18
  -2  -2   7    0.99    0.16
  -2   2   7    0.72    0.23
   2  -2   7    0.88    0.32
   2   2  -7    0.29    0.33
   2  -2   7    0.86    0.15
  -2  -2  -7    0.59    0.34
  -2   2   7    0.81    0.17
  -2  -2   8   26.13    1.88
  -2  -2   8   25.34    1.90
   2  -2  -8   26.61    2.06
   2   2   8   26.16    1.88
  -2   2  -8   26.63    1.98
   2  -2  -8   27.57    1.96
   2  -2   8   26.54    1.88
   2   2  -8   24.97    1.92
  -2   2   8   25.62    1.93
   2   2  -8   24.94    1.96
  -2  -2  -8   26.38    1.95
  -2   2   8   26.24    1.89
  -2  -2   9    1.71    0.22
   2   2   9    1.62    0.28
   2  -2  -9    1.29    0.30
   2  -2  -9    0.92    0.37
  -2  -2  -9    1.22    0.35
   2   2  -9    1.44    0.30
   2  -2   9    2.02    0.28
  -2   2   9    1.84    0.30
  -2  -2  10    0.74    0.19
   2  -2 -10    0.65    0.29
   2   2  10    0.83    0.18
   2   2 -10    0.20    0.43
  -2   2  10    1.02    0.19
   2   2 -10    0.49    0.28
  -2  -2  11    0.31    0.17
  -2   2 -11    0.72    0.40
   2  -2 -11    0.40    0.30
   2  -2 -11    0.41    0.54
   2  -2  11    0.30    0.16
   2   2 -11    0.33    0.32
  -2  -2 -11    0.66    0.37
  -2  -2  12   27.55    1.96
   2  -2 -12   27.87    2.07
   2  -2  12   28.99    1.96
  -2  -2 -12   24.98    2.06
   2   2 -12   27.18    2.13
  -2   3   0  116.48    8.09
   2   3   0  116.40    8.09
  -2  -3   0  123.17    8.09
  -2   3   0  109.26    8.08
   2  -3   0  110.06    8.09
   2   3  -1  568.68   39.89
  -2  -3   2   10.70    0.80
   2  -3  -2   10.01    0.77
  -2   3  -2   11.07    0.80
   2   3  -2   10.72    0.79
  -2   3   2   10.48    0.77
  -2  -3  -2   10.49    0.76
  -2  -3  -2   10.68    0.79
   2  -3   2   11.40    0.80
   2   3  -2   10.36    0.80
   2  -3  -3  156.99   11.20
   2  -3  -3  164.41   11.22
  -2  -3   3  157.33   11.22
  -2   3  -3  164.42   11.22
  -2  -3  -3  155.98   11.19
   2   3  -3  157.96   11.21
   2  -3   3  162.31   11.21
  -2  -3  -3  164.15   11.21
  -2   3   3  143.79   11.19
   2   3  -3  165.34   11.23
  -2  -3   4    6.35    0.71
   2  -3  -4    5.63    0.74
   2  -3  -4    4.90    0.49
  -2  -3  -4    5.78    0.62
   2   3  -4    5.21    0.47
  -2   3   4    4.62    0.45
   2   3  -4    6.99    0.76
   2  -3   4    6.68    0.66
  -2  -3  -4    4.51    0.48
   2  -3  -5   70.26    5.52
  -2  -3   5   71.36    5.53
   2  -3  -5   69.43    5.44
  -2   3  -5   80.19    5.43
  -2  -3  -5   86.01    5.43
   2  -3   5   72.12    5.53
   2   3  -5   73.51    5.54
  -2   3   5   84.61    5.43
   2   3  -5   85.53    5.43
  -2  -3  -5   69.09    5.49
   2   3   6    7.92    0.70
   2  -3  -6    8.24    0.78
  -2  -3   6    7.02    0.62
  -2  -3   6    8.58    0.67
   2  -3  -6    7.68    1.53
  -2  -3   6    7.71    1.60
   2  -3   6    7.81    0.64
  -2   3   6    7.27    0.65
  -2   3  -7   92.66    6.07
  -2  -3   7   84.21    6.01
   2   3   7   79.75    6.02
   2  -3  -7   82.27    6.04
   2  -3   7   83.06    6.03
  -2   3   7   88.94    6.02
   2  -3   7   73.64    6.00
  -2   3   7   77.58    6.02
  -2  -3  -7   96.20    6.06
   2   3  -7   93.43    6.06
   2  -3  -8    6.41    0.74
   2  -3  -8    6.09    0.67
  -2   3  -8    7.50    0.80
   2   3   8    7.65    0.58
  -2  -3   8    6.56    0.62
  -2  -3   8    6.81    0.56
  -2   3   8    6.94    0.58
  -2  -3  -8    6.62    0.71
  -2   3   8    6.48    0.65
   2   3  -8    6.75    0.77
   2  -3   8    6.74    0.56
   2  -3  -9   70.14    5.09
  -2  -3   9   79.34    5.07
  -2   3  -9   67.63    5.11
  -2   3  -9   72.01    5.13
   2  -3  -9   65.97    5.09
  -2  -3   9   69.14    5.07
   2   3   9   79.55    5.07
  -2   3   9   76.09    5.07
  -2   3   9   68.88    5.07
   2   3  -9   61.53    5.10
   2   3  -9   72.59    5.09
   2  -3   9   81.82    5.07
  -2  -3  -9   64.67    5.09
   2  -3 -10    0.03    0.29
   2  -3 -10    0.10    0.34
  -2  -3  10   -0.47    0.31
  -2  -3  10   -0.04    0.16
  -2   3 -10   -0.27    0.41
   2   3 -10   -0.19    0.29
   2  -3  10    0.20    0.15
  -2   3  10    0.05    0.16
  -2  -3 -10   -0.34    0.33
  -2  -3  11   11.65    0.95
   2  -3 -11   13.13    1.06
   2   3 -11   14.27    1.06
   2  -3  11   11.60    0.94
   2  -3 -12    1.38    0.42
  -2  -3  12    1.21    0.19
  -2  -3 -12    0.34    0.58
   2  -3  12    1.34    0.19
   2   3 -12    0.81    0.37
  -2   4   0    8.96    0.66
  -2   4   0    7.46    0.62
   2   4   0    8.92    0.65
  -2  -4   0    9.11    0.65
   2  -4   0    8.41    0.65
  -2   4  -1   10.66    0.79
   2  -4  -1   10.03    0.79
  -2  -4   1   10.18    0.78
   2  -4  -1   10.65    0.76
   2  -4   1   10.30    0.79
   2   4  -1   10.76    0.79
  -2   4   1   10.82    0.76
  -2  -4  -1   10.31    0.78
   2   4   2   38.23    3.07
   2  -4  -2   37.14    3.08
   2  -4  -2   46.51    3.11
  -2  -4   2   48.63    3.11
  -2   4  -2   48.24    3.11
  -2  -4  -2   48.14    3.10
  -2  -4  -2   38.12    3.07
  -2   4   2   38.60    3.08
   2  -4   2   47.37    3.10
   2   4  -2   45.59    3.11
   2  -4  -3   58.75    4.10
  -2   4  -3   53.00    4.17
  -2  -4   3   57.18    4.13
   2  -4   3   58.98    4.13
  -2   4   3   59.96    4.10
   2   4  -3   58.75    4.14
  -2  -4  -3   55.70    4.13
  -2  -4  -3   61.43    4.09
  -2  -4   4  399.94   29.66
   2  -4  -4  413.14   29.52
   2  -4  -4  437.36   29.56
  -2   4  -4  460.84   29.57
  -2  -4  -4  434.46   29.55
   2   4  -4  430.30   29.72
  -2   4   4  390.69   29.51
  -2  -4  -4  393.67   29.51
   2  -4   4  439.98   29.55
   2   4  -4  403.50   29.52
   2  -4  -5   16.44    2.17
   2  -4  -5   16.22    1.32
  -2  -4   5   17.70    1.72
  -2   4  -5   16.37    1.64
   2  -4   5   15.60    1.62
   2   4  -5   16.92    1.27
   2   4  -5   14.61    1.69
  -2  -4  -5   15.61    1.53
  -2   4   5   18.26    1.28
  -2  -4  -5   15.46    1.28
   2  -4  -6   16.76    1.27
  -2  -4   6   15.68    1.21
  -2   4  -6   15.87    1.32
   2   4  -6   11.55    2.36
  -2   4   6   17.92    1.25
   2  -4   6   13.99    1.21
  -2  -4  -6   15.94    1.30
  -2   4  -7    0.39    0.37
   2   4   7    0.37    0.19
  -2  -4   7    0.23    0.21
  -2  -4   7    0.39    0.16
   2  -4  -7    0.71    0.34
   2  -4  -7    1.02    0.31
  -2  -4  -7    0.78    0.32
   2  -4   7    0.60    0.28
   2   4  -7    0.39    0.37
   2  -4   7    0.45    0.15
  -2   4   7    0.60    0.20
  -2   4   7    0.29    0.27
   2   4   8   16.16    1.21
   2  -4  -8   17.18    1.30
  -2  -4   8   16.27    1.20
  -2  -4   8   16.33    1.23
  -2   4  -8   16.49    1.34
   2  -4  -8   15.77    1.27
  -2   4   8   16.58    1.22
  -2  -4  -8   16.60    1.28
   2   4  -8   14.56    1.32
   2  -4   8   15.81    1.19
  -2   4   8   15.92    1.26
   2  -4  -9    0.34    0.27
   2  -4  -9    0.31    0.33
  -2  -4   9    0.11    0.27
  -2   4  -9    0.19    0.40
  -2  -4   9    0.68    0.18
   2  -4   9    0.58    0.17
  -2   4   9    0.75    0.33
  -2  -4  -9    0.64    0.32
  -2   4   9    0.44    0.19
   2  -4 -11    1.06    0.35
  -2   4 -11    1.58    0.44
  -2  -4  11    1.55    0.30
  -2  -4 -11    1.78    0.35
   2  -4  11    1.79    0.29
   2   4 -11    2.05    0.34
   2  -4 -12   34.29    2.51
  -2  -4  12   34.88    2.38
   2  -4  12   34.58    2.38
  -2  -4 -12   29.28    2.43
   2   4 -12   34.15    2.44
  -2   5   0   88.42    6.53
   2   5   0   95.08    6.56
  -2   5   0   96.76    6.56
   2  -5   0   90.57    6.55
  -2  -5   0   93.37    6.55
  -2   5  -1  588.94   40.20
  -2  -5   1  580.09   40.20
   2  -5  -1  550.55   40.20
   2   5  -1  593.90   40.20
   2  -5   1  550.73   40.20
  -2  -5  -1  572.81   40.20
  -2  -5   2    0.50    0.20
  -2   5  -2    0.43    0.23
   2  -5  -2    0.18    0.20
   2  -5  -2    0.52    0.11
  -2  -5  -2    0.32    0.19
   2   5  -2    0.43    0.14
   2   5  -2    0.44    0.21
   2  -5   2    0.54    0.22
  -2   5   2    0.39    0.11
  -2  -5   3  100.74    6.64
  -2   5  -3   96.33    6.64
   2  -5  -3   84.94    6.60
   2  -5  -3   95.86    6.65
  -2  -5  -3   87.64    6.58
   2  -5   3   96.16    6.63
  -2  -5  -3   96.81    6.64
   2   5  -3   95.01    6.64
   2   5  -3   89.50    6.61
   2  -5  -4    0.43    0.46
   2  -5  -4    0.43    0.25
  -2   5  -4    0.06    0.44
   2  -5  -4    0.51    0.51
  -2  -5   4    0.84    0.49
   2   5  -4   -0.01    0.51
   2  -5   4    0.51    0.45
  -2  -5  -4    0.52    0.44
  -2  -5  -4    0.53    0.24
  -2   5   4    0.26    0.21
   2   5  -4    0.09    0.25
  -2  -5  -4   -0.15    0.44
  -2   5  -5   39.61    3.13
   2  -5  -5   46.02    3.13
  -2  -5   5   44.39    3.04
  -2  -5   5   49.41    3.05
   2  -5  -5   38.80    3.09
  -2   5  -5   41.93    3.32
   2  -5  -5   39.40    3.29
  -2  -5   5   40.34    3.43
  -2   5   5   46.72    3.08
  -2  -5  -5   48.13    3.11
   2   5  -5   37.96    3.42
   2   5  -5   40.67    3.11
  -2   5   5   39.64    3.07
  -2  -5   6    8.55    0.70
   2  -5  -6    8.41    0.82
  -2  -5   6    7.52    0.68
   2  -5   6    7.59    0.66
  -2   5   6    8.95    0.79
  -2   5  -7   83.47    5.52
   2  -5  -7   69.24    5.48
   2  -5  -7   76.05    5.55
   2   5  -7   82.11    5.50
   2  -5   7   74.50    5.45
  -2  -5  -7   83.41    5.50
   2  -5   7   65.98    5.44
  -2   5   7   81.45    5.47
   2  -5  -8    6.58    0.71
   2  -5  -8    6.62    0.69
  -2  -5   8    6.49    0.56
  -2   5  -8    6.11    0.81
  -2  -5   8    5.76    0.61
   2  -5   8    4.79    0.85
   2  -5   8    6.98    0.56
  -2   5   8    7.34    0.71
   2   5  -8    5.90    0.81
  -2  -5  -8    6.72    0.70
   2  -5  -9   44.88    3.35
  -2  -5   9   54.42    3.33
   2  -5  -9   48.89    3.36
  -2   5  -9   45.44    3.39
  -2  -5   9   46.40    3.32
  -2  -5  -9   45.04    3.35
   2   5  -9   40.18    3.38
  -2   5   9   46.89    3.34
  -2  -5  10    0.48    0.21
   2  -5 -10   -0.02    0.29
   2  -5 -10    0.60    0.31
  -2  -5  10    0.05    0.30
  -2   5 -10   -0.14    0.45
  -2   5 -10   -0.11    0.42
   2  -5  10    0.75    0.22
  -2  -5 -10    0.94    0.53
   2   5 -10    0.06    0.27
   2  -5 -11    5.90    0.72
  -2  -5  11    4.88    0.49
  -2   5 -11    5.49    0.76
   2  -5  11    5.55    0.49
   2   5 -11    6.22    0.65
  -2  -5 -11    6.43    0.62
  -2  -5  12    0.83    0.19
   2   5 -12    1.10    0.33
  -2  -6   0  683.80   48.98
  -2   6   0  718.35   48.99
   2  -6   0  677.17   48.98
   2   6   0  712.62   48.98
  -2   6  -1   14.86    1.10
  -2   6  -1   16.18    1.17
   2  -6  -1   14.37    1.15
  -2  -6   1   15.13    1.14
  -2   6   1   15.03    1.09
   2   6  -1   15.47    1.16
  -2  -6  -1   14.76    1.14
   2  -6  -2    2.76    0.30
  -2   6  -2    4.22    0.47
   2  -6  -2    4.24    0.46
  -2  -6   2    4.22    0.44
   2   6  -2    2.92    0.33
  -2  -6  -2    3.83    0.43
  -2   6   2    2.82    0.30
   2  -6   2    4.27    0.43
   2  -6  -3    2.12    0.44
   2  -6  -3    2.27    0.28
  -2   6  -3    2.06    0.42
   2   6  -3    2.10    0.35
  -2  -6  -3    1.86    0.27
  -2   6   3    2.60    0.27
   2   6  -3    1.40    0.47
  -2  -6  -3    1.79    0.39
   2  -6   3    2.50    0.49
   2  -6  -4  104.71    6.86
  -2  -6   4  102.23    6.95
   2  -6  -4   97.08    6.96
  -2   6  -4   97.61    6.95
   2  -6  -4   90.47    6.85
  -2   6  -4   91.59    6.87
  -2   6  -4   91.32    6.84
  -2  -6   4   89.70    6.82
   2   6  -4   97.52    6.95
  -2  -6  -4  102.55    6.84
  -2   6   4   97.11    6.85
   2   6  -4   95.61    6.87
   2  -6   4   94.39    6.84
  -2  -6  -4  104.97    6.96
   2  -6   4   97.77    6.93
  -2  -6   5    3.26    1.35
  -2   6  -5    1.24    0.44
  -2  -6   5    1.47    0.22
   2  -6  -5    1.02    0.31
   2  -6  -5    1.14    0.61
   2  -6  -5    1.55    0.30
  -2  -6   5    1.16    0.24
   2   6  -5   -0.10    1.13
   2  -6   5    1.64    0.24
   2  -6   5    1.56    0.27
   2   6  -5    1.16    0.44
  -2   6   5    1.64    0.43
  -2   6   5    1.19    0.31
  -2  -6   6   19.03    1.34
   2  -6  -6   16.43    1.40
   2  -6   6   18.13    1.37
  -2   6   6   17.72    1.39
  -2   6  -7    3.52    0.69
   2  -6  -7    2.73    0.56
  -2  -6   7    3.00    0.44
  -2  -6   7    2.75    0.37
   2  -6  -7    1.92    0.47
   2  -6   7    2.48    0.36
  -2   6   7    3.09    0.54
  -2  -6  -7    3.17    0.57
   2   6  -7    3.07    0.51
  -2   6  -8   44.59    3.25
   2  -6  -8   46.78    3.22
   2  -6  -8   45.56    3.22
  -2  -6   8   44.03    3.18
  -2  -6   8   44.81    3.17
  -2   6   8   44.65    3.19
   2   6  -8   38.84    3.23
  -2  -6  -8   46.25    3.22
   2  -6   8   44.50    3.22
   2  -6   8   43.72    3.17
   2  -6  -9    4.11    0.61
  -2  -6   9    4.12    0.40
  -2  -6   9    2.93    0.49
  -2   6  -9    2.51    0.52
   2  -6  -9    3.69    0.54
   2  -6   9    3.53    0.38
   2   6  -9    1.83    0.81
  -2  -6  -9    3.07    0.54
  -2  -6  10    3.84    0.60
  -2   6 -10    3.52    0.70
  -2  -6  10    3.84    0.41
   2  -6 -10    3.50    0.58
   2  -6  10    4.59    0.40
  -2  -6 -10    3.57    0.53
   2   6 -10    3.65    0.55
  -2  -6  11    0.00    0.14
   2  -6 -11   -0.37    0.33
   2   6 -11   -0.45    0.27
   2  -6  11   -0.03    0.13
  -2  -6 -11   -0.06    0.30
  -2   7   0   11.44    0.97
  -2  -7   0   11.55    0.94
   2  -7   0   11.21    0.95
   2   7   0   12.13    0.97
  -2   7  -1  227.78   16.28
   2  -7  -1  226.57   16.32
  -2  -7   1  234.25   16.32
  -2   7  -1  246.09   16.34
   2   7  -1  221.56   16.27
   2   7  -1  237.17   16.33
  -2   7   1  232.31   16.28
   2  -7   1  228.12   16.32
  -2  -7  -1  232.04   16.32
   2  -7  -2    5.46    0.66
  -2   7  -2    6.26    0.69
  -2  -7   2    5.62    0.65
  -2   7   2    6.69    0.49
   2  -7   2    5.48    0.64
   2   7  -2    5.44    0.67
  -2  -7  -2    5.77    0.63
   2  -7  -3  336.74   25.29
  -2  -7   3  340.66   25.28
  -2   7  -3  380.10   25.32
   2  -7  -3  349.38   25.36
  -2  -7   3  384.60   25.36
  -2   7  -3  351.72   25.29
   2   7  -3  366.18   25.32
  -2  -7  -3  369.68   25.35
   2  -7   3  350.22   25.34
   2   7  -3  357.64   25.36
  -2   7   3  375.64   25.29
  -2  -7   4   13.12    0.94
  -2   7  -4   13.16    0.97
   2  -7  -4   11.39    0.97
  -2   7  -4   11.39    2.09
  -2  -7   4   12.25    0.93
  -2   7  -4   12.95    1.12
  -2  -7   4   12.34    1.50
   2  -7  -4    8.90    1.48
   2  -7  -4   13.03    0.97
   2  -7  -4   11.44    1.02
  -2   7   4   12.63    1.05
   2   7  -4   12.05    1.23
  -2   7   4   12.49    0.98
  -2  -7  -4   13.28    1.00
   2   7  -4   11.57    1.08
   2   7  -4   12.64    1.49
   2  -7   4   12.49    0.93
   2  -7   4   12.42    0.92
   2  -7  -5  105.06    7.71
  -2  -7   5  121.02    7.69
  -2  -7   5  107.56    7.67
   2  -7  -5  117.54    7.72
  -2   7  -5   96.40    7.74
   2  -7   5  109.40    7.68
   2   7  -5  106.73    7.73
  -2  -7  -5  104.50    7.72
   2  -7   5  122.33    7.68
  -2   7   5   98.97    7.70
  -2   7  -6    1.72    0.73
   2  -7  -6    0.70    0.31
  -2  -7  -6    1.49    0.44
   2  -7   6    1.38    0.28
  -2   7   6    1.01    0.32
   2   7  -6    1.66    0.46
   2  -7  -7   25.95    1.86
  -2  -7   7   23.86    1.80
   2  -7  -7   20.32    1.85
  -2   7   7   24.18    1.83
   2   7  -7   27.86    1.92
   2  -7   7   24.59    1.82
  -2  -7   8    0.39    0.18
  -2   7  -8    0.38    0.42
   2  -7  -8    0.63    0.30
  -2  -7   8    0.58    0.24
   2  -7  -8    0.46    0.32
   2  -7   8    0.63    0.18
   2   7  -8    0.37    0.55
  -2  -7  -8    1.12    0.32
  -2   7   8    0.56    0.33
   2  -7   8    0.93    0.42
  -2  -7   9   14.32    1.16
  -2   7  -9   13.86    1.27
   2  -7  -9   16.39    1.27
   2  -7  -9   14.47    1.18
  -2  -7  -9   15.77    1.20
  -2   7 -10   -0.45    0.47
   2  -7 -10    0.01    0.30
   2  -7 -10    0.10    0.30
  -2  -7  10   -0.29    0.34
  -2  -7  10    0.12    0.16
  -2   7 -10    0.84    0.40
   2  -7  10    0.13    0.14
   2   7 -10    0.15    0.26
  -2  -7 -10    0.54    0.26
  -2  -7  11   12.35    1.03
   2  -7 -11   14.19    1.18
  -2  -7 -11   15.60    1.09
   2  -7  11   12.87    1.03
   2   7 -11   15.15    1.11
  -2  -8   0  242.99   16.48
  -2   8   0  210.53   16.41
   2  -8   0  226.25   16.47
   2   8   0  240.46   16.48
  -2   8   0  248.13   16.49
  -2  -8   1    6.06    0.87
   2  -8  -1    6.40    0.76
  -2   8  -1    6.51    0.56
  -2   8  -1    6.70    0.80
   2  -8   1    6.92    0.77
   2   8  -1    7.59    0.81
   2   8  -1    6.39    0.53
  -2   8   1    6.94    0.55
  -2  -8  -1    6.87    0.77
  -2   8  -2    2.29    0.29
  -2   8  -2    3.51    0.42
   2  -8  -2    1.99    0.53
  -2  -8   2    2.73    0.27
   2  -8  -2    2.65    0.30
  -2   8  -2    2.34    0.61
  -2  -8   2    2.37    0.27
  -2   8  -2    2.17    0.37
  -2  -8   2    4.41    0.74
   2  -8   2    3.02    0.29
  -2   8   2    3.18    0.36
   2  -8   2    2.70    0.28
  -2  -8  -2    2.51    0.30
  -2   8   2    3.12    0.33
   2   8  -2    1.99    0.58
   2  -8   2    1.98    0.53
  -2  -8  -2    2.01    0.54
  -2   8  -3    3.35    0.52
  -2   8  -3    3.79    0.74
  -2  -8   3    2.78    0.33
   2  -8  -3    3.08    0.36
   2  -8  -3    2.84    0.35
  -2  -8   3    3.21    0.82
   2   8  -3    2.63    0.36
   2  -8   3    3.21    0.32
   2   8  -3    3.26    0.64
  -2  -8  -3    3.29    0.37
  -2   8   3    3.57    0.39
   2  -8   3    2.73    0.29
  -2   8   3    3.34    0.54
   2   8  -3    2.32    0.73
   2  -8  -4   62.28    4.10
  -2   8  -4   57.17    4.08
  -2  -8   4   57.52    4.08
  -2  -8   4   52.34    4.06
  -2   8  -4   56.29    4.14
  -2  -8  -4   63.59    4.11
   2   8  -4   60.29    4.21
   2  -8   4   54.93    4.07
  -2   8   4   58.07    4.10
   2  -8   4   53.12    4.07
  -2   8  -5   -0.03    0.42
  -2  -8   5    0.30    0.17
   2  -8  -5    0.34    0.24
   2  -8  -5    0.29    0.25
  -2  -8   5    0.23    0.16
   2  -8   5    0.11    0.19
   2   8  -5   -0.30    0.49
  -2   8   5    0.39    0.27
   2  -8   5    0.34    0.13
  -2  -8  -5    0.24    0.28
   2  -8  -6   27.94    2.18
  -2  -8   6   24.86    2.12
   2  -8  -6   27.06    2.18
  -2  -8  -6   33.93    2.21
   2  -8   6   33.57    2.14
  -2   8   6   28.56    2.16
  -2  -8   7    3.24    0.46
  -2  -8   7    2.61    0.40
  -2   8  -7    2.88    0.50
   2  -8  -7    3.43    0.57
   2  -8  -7    1.94    0.42
  -2  -8  -7    3.60    0.59
   2  -8   7    2.79    0.55
   2   8  -7    3.20    0.65
   2  -8   7    2.76    0.38
   2  -8  -8   63.66    4.38
   2  -8  -8   60.47    4.35
  -2  -8   8   59.76    4.33
  -2   8  -8   60.77    4.39
  -2  -8   8   58.84    4.33
   2  -8   8   59.57    4.33
  -2   8   8   60.32    4.37
  -2  -8  -8   64.16    4.37
  -2   8  -9    2.30    0.51
  -2  -8   9    2.19    0.34
   2  -8  -9    3.38    0.57
   2  -8  -9    3.35    0.51
  -2  -8  -9    2.42    0.58
  -2  -8  10    3.20    0.36
   2  -8 -10    3.41    0.60
   2  -8  10    3.24    0.34
  -2  -8 -10    2.96    0.44
   2   8 -10    3.18    0.49
  -2  -8  11   -0.11    0.14
  -2  -8 -11    0.01    0.29
   2   8 -11   -0.11    0.26
   2  -8  11   -0.15    0.12
   2  -9   0    3.73    0.36
   2  -9   0    4.47    0.72
   2  -9   0    4.01    0.35
  -2  -9   0    3.83    0.36
  -2  -9   0    4.06    0.36
  -2   9   0    3.52    0.36
   2  -9   0    4.10    0.35
  -2   9   0    4.10    0.46
   2   9   0    3.54    0.42
  -2   9   0    3.85    0.49
   2  -9  -1   76.57    5.54
   2  -9  -1   77.30    5.53
   2  -9  -1   77.10    5.68
  -2   9  -1   79.89    5.56
  -2   9  -1   81.41    5.69
  -2   9   1   80.33    5.54
   2  -9   1   81.07    5.54
  -2   9   1   81.88    5.57
   2  -9   1   76.20    5.53
   2   9  -1   74.54    5.54
   2  -9   1   79.14    5.54
   2  -9   1   75.86    5.67
  -2  -9   2    5.19    0.42
  -2  -9   2    4.64    0.45
   2  -9  -2    5.58    0.44
  -2   9  -2    5.13    0.58
   2   9   2    5.41    0.52
  -2  -9   2    5.24    0.42
  -2   9  -2    5.47    0.44
  -2   9  -2    5.28    0.56
   2  -9  -2    4.29    0.44
   2  -9   2    4.54    0.43
   2   9  -2    5.23    0.48
  -2  -9  -2    5.28    0.45
   2  -9   2    4.64    0.43
  -2   9  -3  178.90   12.40
   2   9   3  165.87   12.41
   2  -9  -3  192.75   12.41
   2  -9  -3  167.13   12.40
  -2  -9   3  167.77   12.40
  -2  -9   3  171.59   12.39
  -2   9  -3  184.64   12.44
   2  -9   3  178.11   12.39
   2   9  -3  164.49   12.40
  -2   9   3  190.08   12.41
   2  -9   3  163.36   12.39
  -2  -9  -3  191.00   12.41
  -2  -9   4   12.80    0.98
  -2   9  -4   12.51    0.98
  -2  -9   4   11.94    0.96
   2  -9  -4   13.75    1.01
   2  -9  -4   12.14    1.00
  -2   9  -4   12.74    1.16
  -2  -9  -4   14.12    1.02
  -2   9   4   12.93    1.02
   2  -9   4   12.35    0.96
   2  -9   4   13.36    0.97
   2   9  -4   15.31    1.56
  -2  -9   5   79.10    5.81
   2  -9  -5   81.68    5.85
  -2   9  -5   79.55    5.90
  -2  -9   5   87.43    5.82
  -2  -9  -5   82.43    5.85
   2  -9   5   85.70    5.81
   2   9  -5   80.52    6.01
   2  -9   5   81.54    5.82
  -2   9  -6   -0.15    0.43
  -2  -9   6    0.12    0.18
   2  -9  -6   -0.08    0.28
  -2  -9   6    0.52    0.20
   2  -9  -6    0.40    0.30
  -2   9   6    0.64    0.29
  -2  -9  -6    0.06    0.28
   2  -9   6   -0.02    0.14
   2  -9   6    0.12    0.25
  -2   9  -7   14.60    1.19
   2  -9  -7   13.48    1.10
  -2  -9   7   11.91    1.04
   2  -9  -7   10.09    1.12
   2  -9   7   13.21    1.07
  -2  -9  -7   14.51    1.10
  -2   9   7   13.61    1.10
  -2  -9   8    0.38    0.19
  -2   9  -8   -0.01    0.45
   2  -9  -8    0.50    0.33
  -2  -9   8    0.03    0.24
   2  -9  -8    0.41    0.29
  -2  -9  -8    0.34    0.27
   2  -9   8    0.22    0.16
  -2  -9   9   18.05    1.17
   2  -9  -9   13.25    1.20
   2  -9  -9   16.79    1.25
  -2  -9   9   15.45    1.20
  -2  -9  -9   14.46    1.19
  -2  -9  10    0.01    0.15
   2  -9 -10   -0.59    0.62
  -2   9 -10   -0.53    0.41
   2  -9  10    0.06    0.13
  -2  -9 -10   -0.16    0.27
   2   9 -10    0.11    0.24
   2 -10   0  130.96    9.41
   2 -10   0  128.03    9.42
  -2  10   0  130.92    9.42
  -2 -10   0  144.89    9.42
  -2 -10   0  124.85    9.43
   2 -10   0  141.38    9.42
  -2  10   0  141.76    9.46
   2  10   0  127.99    9.43
  -2  10  -1    1.22    0.30
  -2  10  -1    1.30    0.23
  -2 -10   1    1.14    0.22
  -2 -10   1    1.04    0.20
   2 -10  -1    1.08    0.21
   2 -10  -1    1.28    0.22
  -2 -10   1    1.21    0.32
  -2  10   1    0.92    0.31
  -2 -10  -1    0.86    0.20
   2 -10   1    0.88    0.21
   2 -10   1    1.08    0.21
   2 -10   1    1.07    0.21
  -2 -10  -1    1.27    0.22
   2  10  -1    1.46    0.30
  -2  10   1    1.06    0.18
  -2 -10   2   14.28    1.00
   2 -10  -2   11.43    1.00
  -2  10  -2   14.78    1.11
   2 -10  -2   14.43    1.01
  -2 -10   2   11.22    1.01
  -2  10  -2   13.57    1.01
  -2 -10   2   14.16    0.99
   2  10   2   12.51    1.06
  -2 -10  -2   14.82    1.01
   2 -10   2   12.67    1.00
   2 -10   2   15.05    1.00
  -2  10   2   13.76    1.02
   2  10  -2   12.74    1.02
  -2 -10   3    7.14    0.60
  -2  10  -3    7.40    0.64
   2 -10  -3    7.79    0.62
  -2  10  -3    7.18    0.84
   2 -10  -3    6.91    0.61
  -2  10   3    7.15    0.64
   2 -10   3    7.88    0.59
   2 -10   3    7.69    0.59
   2 -10  -4  116.06    8.59
  -2 -10   4  119.23    8.57
  -2  10  -4  117.26    8.63
  -2 -10   4  115.99    8.55
   2 -10  -4  133.71    8.58
  -2  10  -4  120.48    8.57
   2 -10   4  114.57    8.56
  -2  10   4  118.54    8.58
  -2 -10  -4  137.58    8.59
   2 -10   4  121.72    8.56
  -2 -10   5    6.44    0.57
   2 -10  -5    5.81    0.65
  -2  10  -5    6.01    0.91
  -2 -10   5    7.66    0.58
   2 -10  -5    7.78    0.65
   2 -10   5    6.32    0.60
  -2 -10  -5    6.38    0.67
   2 -10   5    7.35    0.56
  -2  10   5    5.87    0.69
  -2 -10   6    7.57    0.60
   2 -10  -6    5.52    0.68
  -2 -10   6    6.78    0.59
  -2  10   6    5.24    0.71
   2 -10   6    6.65    0.55
  -2 -10  -6    5.37    0.67
   2 -10   6    6.54    0.65
  -2 -10   7    0.06    0.19
  -2  10  -7    0.24    0.45
  -2 -10   7    0.34    0.24
   2 -10  -7    0.37    0.32
   2 -10  -7    0.67    0.29
   2 -10   7    0.03    0.30
  -2  10   7    0.35    0.41
   2 -10   7    0.26    0.17
  -2 -10  -7    0.32    0.30
   2 -10  -8   21.31    1.62
  -2 -10   8   21.06    1.61
   2 -10  -8   22.34    1.66
  -2  10  -8   21.63    1.75
  -2 -10   8   21.83    1.60
   2 -10   8   20.67    1.59
  -2 -10  -8   23.24    1.64
  -2 -10   9    0.09    0.29
  -2 -10   9    0.47    0.17
   2 -10  -9    1.01    0.32
   2 -10   9    0.81    0.16
  -2 -10  -9    0.77    0.24
  -2 -10  10    2.46    0.32
  -2 -10 -10    2.46    0.48
   2 -10  10    2.57    0.30
   2  11   0   26.84    1.93
  -2 -11   0   26.58    1.94
   2 -11   0   25.16    1.90
  -2  11   0   24.37    2.02
   2 -11   0   26.80    1.91
  -2 -11   0   29.54    1.94
  -2 -11   0   26.50    1.92
   2 -11  -1  191.01   13.81
   2 -11  -1  195.99   13.82
  -2  11  -1  203.29   13.86
  -2 -11   1  196.63   13.82
  -2 -11   1  206.13   13.81
   2 -11  -1  196.20   13.83
  -2 -11   1  201.12   13.81
   2  11   1  192.65   13.82
  -2 -11  -1  199.19   13.81
   2  11  -1  189.22   13.82
  -2 -11  -1  186.26   13.82
  -2 -11  -1  200.24   13.81
  -2 -11   2    1.88    0.26
  -2  11  -2    1.93    0.29
   2  11   2    1.54    0.32
   2 -11  -2    2.09    0.28
  -2 -11   2    2.52    0.32
  -2  11   2    2.57    0.32
  -2 -11  -2    1.88    0.37
  -2 -11  -2    1.82    0.27
   2 -11   2    2.00    0.28
   2 -11   2    2.13    0.26
  -2  11  -3   18.54    1.40
  -2  11  -3   20.37    1.60
   2 -11  -3   16.11    1.39
  -2 -11   3   20.50    1.38
  -2 -11   3   16.26    1.39
   2 -11  -3   20.56    1.40
   2 -11   3   16.63    1.38
   2 -11   3   20.25    1.38
  -2 -11  -3   21.10    1.40
  -2  11   3   19.46    1.42
  -2 -11   4    0.58    0.17
   2 -11  -4    0.55    0.19
  -2  11  -4    0.20    0.17
   2 -11  -4    0.39    0.21
  -2  11  -4    0.05    0.51
  -2 -11   4    0.45    0.15
  -2 -11  -4    0.68    0.21
   2  11  -4    0.24    0.24
  -2  11   4    0.36    0.24
   2 -11   4    0.58    0.17
   2 -11   4    0.68    0.14
  -2 -11   5   33.78    2.43
  -2  11  -5   30.97    2.57
   2 -11  -5   29.42    2.46
  -2 -11   5   36.79    2.44
   2 -11  -5   37.55    2.48
   2 -11   5   32.45    2.43
   2 -11   5   36.40    2.43
  -2 -11  -5   33.26    2.47
  -2 -11   6    3.40    0.43
   2 -11  -6    3.61    0.58
  -2 -11   6    4.03    0.45
  -2  11  -6    3.77    0.59
   2 -11  -6    3.38    0.54
  -2 -11  -6    3.06    0.54
   2 -11   6    3.41    0.40
   2 -11   6    3.87    0.52
  -2  11   6    3.37    0.59
   2 -11  -7   50.07    3.85
  -2 -11   7   50.77    3.90
   2 -11   7   58.95    3.83
  -2 -11  -7   59.96    3.85
   2 -11   7   46.96    3.81
  -2 -11   8    3.23    0.49
  -2 -11   8    3.71    0.42
   2 -11  -8    3.64    0.51
   2 -11   8    3.39    0.39
  -2 -11  -8    4.63    0.48
  -2 -11   9   39.13    2.61
   2 -11   9   39.23    2.61
  -2 -11  -9   31.56    2.62
  -2  12   0   86.85    6.02
   2 -12   0   84.49    6.01
   2 -12   0   90.14    6.01
   2  12   0   82.03    6.02
  -2 -12   0   80.16    6.02
  -2 -12   0   89.47    6.01
   2 -12   0   81.80    6.00
  -2 -12   0   85.91    6.01
   2 -12  -1    0.41    0.14
  -2 -12   1    0.55    0.13
   2  12   1    0.06    0.27
   2 -12  -1    0.40    0.15
  -2  12  -1    0.80    0.70
   2 -12  -1    0.34    0.13
  -2 -12   1    0.49    0.13
  -2 -12   1    0.56    0.17
  -2  12  -1    0.46    0.15
  -2 -12  -1    0.52    0.19
  -2  12   1    0.46    0.17
   2 -12   1    0.52    0.14
  -2 -12  -1    0.30    0.14
   2  12  -1    0.42    0.22
   2 -12   1    0.50    0.14
  -2 -12  -1    0.44    0.13
  -2  12  -2   32.51    2.48
   2 -12  -2   27.95    2.19
   2 -12  -2   32.21    2.19
  -2  12  -2   29.34    2.19
  -2 -12   2   28.26    2.19
   2 -12  -2   31.56    2.19
  -2 -12   2   33.25    2.18
  -2  12   2   30.66    2.21
  -2 -12  -2   27.57    2.20
  -2 -12  -2   32.39    2.19
  -2 -12  -2   32.73    2.19
   2  12  -2   27.70    2.21
   2 -12   2   28.60    2.18
   2 -12   2   31.88    2.18
  -2  12  -3    5.55    0.52
   2 -12  -3    5.46    0.51
  -2  12  -3    6.46    1.19
  -2 -12   3    6.19    0.53
   2 -12  -3    6.08    0.53
  -2 -12   3    5.87    0.49
  -2 -12  -3    5.75    0.62
   2 -12   3    5.53    0.50
  -2  12   3    5.61    0.57
   2 -12   3    5.64    0.49
  -2 -12  -3    6.06    0.52
  -2 -12   4   69.48    5.03
   2 -12  -4   73.13    5.05
  -2  12  -4   70.51    5.15
   2 -12  -4   69.74    5.04
  -2 -12   4   70.30    5.02
   2 -12   4   69.38    5.02
  -2 -12  -4   75.97    5.05
   2 -12   4   71.49    5.03
   2  12  -4   68.74    5.05
   2 -12  -5    2.14    0.46
   2 -12  -5    2.89    0.47
  -2 -12   5    3.69    0.40
  -2  12  -5    2.73    0.65
  -2 -12   5    3.27    0.39
   2 -12   5    3.47    0.35
  -2 -12  -5    2.59    0.46
   2 -12   5    3.34    0.44
  -2  12   5    3.16    0.57
  -2 -12  -6    3.25    0.49
   2 -12   6    2.48    0.38
   2 -12  -7    0.64    0.27
  -2 -12   7    0.24    0.20
   2 -12  -7   -0.05    0.28
  -2 -12   7    0.18    0.25
   2 -12   7   -0.01    0.16
  -2 -12  -7    0.23    0.23
   2 -12  -8    8.89    0.81
  -2 -12   8    8.66    0.68
  -2 -12   8    7.59    0.75
  -2 -12  -8    8.00    0.71
   2 -12   8    8.56    0.67
  -2  13   0   10.56    0.83
  -2 -13   0   10.63    0.84
  -2 -13   0   10.41    0.80
   2  13   0    9.36    0.91
  -2 -13   0   11.23    0.81
   2 -13   0   10.68    0.81
   2 -13   0   10.72    0.81
  -2  13  -1   82.45    6.02
   2 -13  -1   80.99    6.01
   2 -13  -1   85.29    6.01
  -2 -13   1   89.55    6.01
   2 -13  -1   85.11    6.00
  -2 -13   1   83.79    6.01
  -2 -13  -1   87.33    6.01
   2 -13   1   86.57    6.00
  -2  13   1   87.92    6.02
  -2 -13  -1   87.44    6.01
   2  13  -1   80.27    6.03
  -2 -13  -1   83.23    6.02
   2 -13   1   85.72    6.01
   2 -13  -2    0.07    0.13
  -2 -13   2    0.09    0.16
  -2  13  -2    0.12    0.16
   2 -13  -2   -0.09    0.16
   2 -13  -2    0.06    0.14
  -2 -13   2    0.07    0.12
  -2 -13  -2    0.08    0.21
   2 -13   2    0.21    0.13
  -2  13   2   -0.08    0.19
  -2 -13  -2   -0.08    0.14
  -2 -13  -2    0.18    0.14
   2 -13   2    0.14    0.13
   2 -13  -3   53.90    3.60
   2 -13  -3   52.30    3.60
  -2 -13   3   52.25    3.58
  -2 -13   3   47.80    3.59
  -2  13  -3   46.95    3.60
   2 -13  -3   48.14    3.60
  -2 -13  -3   54.19    3.60
  -2 -13  -3   55.93    3.61
   2 -13   3   48.54    3.59
  -2 -13  -3   47.99    3.62
  -2  13   3   45.15    3.61
   2 -13   3   52.21    3.58
   2 -13  -4    1.10    0.26
  -2 -13   4    1.35    0.22
   2 -13  -4    1.49    0.26
  -2 -13   4    1.76    0.31
  -2  13   4    1.14    0.32
  -2 -13  -4    1.42    0.26
   2 -13   4    1.83    0.34
   2  13  -4    1.26    0.28
   2 -13   4    1.92    0.27
   2 -13  -5   19.35    1.50
  -2 -13   5   18.15    1.43
   2 -13   5   21.26    1.42
  -2 -13  -5   16.75    1.44
   2 -13  -6    0.55    0.53
  -2 -13   6    1.40    0.26
   2 -13  -6    0.81    0.30
  -2 -13   6    1.06    0.24
  -2 -13  -6    2.21    0.41
   2 -13   6    1.65    0.34
   2 -13   6    1.63    0.32
  -2 -13   7   28.35    2.17
  -2 -13   7   32.49    2.18
   2 -13  -7   28.70    2.22
  -2 -13  -7   32.76    2.18
   2 -13   7   27.87    2.16
  -2 -13   8    1.17    0.20
   2 -13  -8    1.33    0.31
  -2 -13   8    0.41    0.34
   2 -13   8    1.21    0.19
  -2 -13  -8    1.18    0.29
   2 -14   0  143.38    9.91
  -2  14   0  140.75    9.93
   2 -14   0  138.87    9.92
  -2 -14   0  134.35    9.92
  -2 -14   0  143.15    9.91
  -2 -14   0  144.36    9.91
  -2  14  -1    2.51    0.37
  -2 -14   1    2.78    0.38
   2 -14  -1    2.48    0.32
  -2 -14   1    3.23    0.32
   2 -14  -1    2.69    0.34
   2 -14   1    3.36    0.33
   2 -14   1    3.34    0.32
  -2 -14  -1    2.61    0.41
  -2 -14  -1    2.93    0.33
  -2 -14  -1    2.60    0.33
  -2  14   1    2.80    0.41
  -2 -14   2    5.65    0.51
  -2  14  -2    5.22    0.51
  -2  14   2    5.85    0.57
  -2 -14  -2    4.88    0.56
   2 -14  -3    2.37    0.33
  -2 -14   3    2.26    0.32
  -2 -14   3    2.64    0.37
   2 -14  -3    1.94    0.39
   2  14  -3    1.73    0.33
  -2 -14  -3    2.10    0.34
   2 -14   3    2.01    0.30
   2 -14   3    1.59    0.33
  -2 -14  -3    2.05    0.33
   2 -14  -4   53.88    3.54
  -2 -14   4   45.12    3.52
   2 -14  -4   50.72    3.55
  -2 -14   4   50.21    3.52
  -2 -14  -4   55.42    3.55
   2 -14   4   48.79    3.52
  -2 -14  -4   48.27    3.53
   2  14  -4   47.10    3.55
   2 -14   4   45.76    3.51
   2 -14  -5    0.59    0.26
   2 -14  -5    0.48    0.22
  -2 -14   5    0.85    0.21
  -2 -14   5    0.53    0.20
  -2 -14  -5    0.29    0.20
   2 -14   5    0.58    0.17
   2 -14  -6    7.37    0.82
   2 -14  -6    8.58    0.76
  -2 -14  -6   10.29    0.77
  -2 -14  -6    9.98    0.74
   2 -14   6    7.42    0.72
  -2 -14   7    0.62    0.20
   2 -14  -7    0.84    0.31
   2 -14  -7    0.33    0.21
   2 -14   7    0.76    0.18
  -2 -14  -7    0.97    0.41
  -2 -15   0    0.45    0.19
   2 -15   0    0.57    0.16
  -2  15   0    0.27    0.23
   2 -15   0    0.53    0.15
   2 -15  -1   16.78    1.28
  -2 -15   1   18.89    1.30
  -2  15  -1   17.04    1.30
   2 -15  -1   17.21    1.27
  -2 -15   1   16.75    1.29
  -2  15   1   15.55    1.32
  -2 -15  -1   17.65    1.31
  -2 -15  -1   17.34    1.29
   2 -15   1   18.08    1.27
   2 -15   1   17.52    1.27
   2 -15  -2    2.66    0.35
   2 -15  -2    2.62    0.32
  -2 -15   2    2.28    0.35
  -2 -15   2    2.42    0.31
  -2 -15  -2    2.31    0.49
  -2 -15  -2    2.43    0.32
   2  15  -2    2.91    0.40
   2 -15   2    2.92    0.31
  -2 -15  -2    2.55    0.34
   2 -15   2    2.51    0.32
  -2 -15   3   81.19    6.27
   2 -15  -3   91.81    6.29
  -2 -15   3   91.87    6.27
   2 -15  -3   97.20    6.28
   2 -15   3   86.66    6.26
   2  15  -3   79.71    6.29
  -2 -15  -3   95.19    6.28
   2 -15   3   85.44    6.27
  -2 -15  -3   90.21    6.28
   2 -15  -4    7.47    0.68
   2 -15  -4    7.80    0.63
  -2 -15   4    7.12    0.64
  -2 -15   4    7.26    0.61
  -2 -15  -4    7.82    0.63
   2 -15   4    7.40    0.61
   2 -15   4    7.59    0.65
  -2 -15  -4    6.22    0.64
  -2 -15   5   34.29    2.63
  -2 -15   5   38.61    2.65
   2 -15  -5   35.50    2.64
   2 -15  -5   38.52    2.67
  -2 -15  -5   37.94    2.65
   2 -15   5   33.64    2.77
   2 -15   5   38.72    2.64
  -2 -15   6    0.34    0.20
   2 -15  -6    0.41    0.28
   2  15   6    0.26    0.25
  -2 -15  -6    0.20    0.31
  -2 -15  -6    0.27    0.21
   2 -16   0   94.13    6.67
   2 -16   0   94.63    6.68
  -2 -16   0   93.88    6.67
  -2 -16   0   96.22    6.69
  -2 -16   1    3.46    0.45
   2 -16  -1    3.90    0.41
  -2 -16   1    3.96    0.37
   2 -16  -1    3.46    0.38
   2 -16   1    4.04    0.38
   2 -16   1    3.69    0.38
  -2 -16  -1    4.13    0.52
   2  16  -1    4.71    0.49
  -2 -16  -1    3.74    0.38
  -2 -16   2    6.18    0.48
   2 -16  -2    5.69    0.49
   2 -16  -2    4.84    0.51
  -2 -16  -2    5.49    0.48
   2 -16   2    6.20    0.50
   2 -16   2    4.94    0.48
  -2  16  -3    0.45    0.24
  -2 -16   3    0.33    0.20
   2 -16  -3    0.56    0.17
  -2 -16   3    0.71    0.17
   2 -16  -3    0.52    0.20
   2 -16   3    0.45    0.15
  -2 -16  -3    0.75    0.16
   2 -16   3    0.57    0.21
   2  16  -3    0.48    0.21
   2 -16  -4   19.96    1.47
  -2 -16   4   18.19    1.44
   2 -16  -4   20.06    1.43
  -2 -16   4   19.05    1.42
  -2 -16  -4   20.47    1.43
   2 -16   4   19.03    1.42
  -2 -16   5    0.00    0.24
   2 -16  -5    0.38    0.19
   2  16   5    0.08    0.20
   2 -16  -5   -0.40    0.26
  -2 -16   5   -0.05    0.21
  -2 -16  -5    0.15    0.18
   2 -16   5    0.06    0.17
  -2 -17   0    2.95    0.32
  -2 -17   0    2.72    0.36
   2 -17   0    3.01    0.35
   2  17   0    3.58    0.49
   2 -17   0    3.00    0.36
   2  17   1   23.32    1.81
  -2 -17   1   22.13    1.77
   2 -17  -1   24.74    1.74
   2 -17  -1   24.68    1.73
  -2 -17   1   24.01    1.72
   2 -17   1   23.26    1.73
   2 -17   1   23.53    1.73
   2  17  -1   25.34    1.78
  -2 -17  -1   24.48    1.72
  -2  17  -2    0.23    0.24
  -2 -17   2    0.44    0.22
  -2 -17   2    0.18    0.15
   2  17   2    0.01    0.23
   2 -17  -2    0.31    0.15
   2 -17   2    0.02    0.14
   2 -17   2   -0.09    0.24
   2  17  -2    0.00    0.21
  -2 -17  -2    0.28    0.14
  -2 -17   3   20.26    1.65
   2 -17  -3   24.00    1.66
   2  17   3   26.06    1.70
  -2 -17  -3   25.96    1.64
   2  17  -3   19.30    1.70
   2 -17   3   19.45    1.66
  -3   0   0    0.04    0.03
   3   0   0    0.08    0.04
  -3   0   1   84.33    6.28
   3   0  -1   89.42    6.28
  -3   0   1   94.49    6.29
  -3   0   3   16.11    1.22
   3   0  -3   17.09    1.23
   3   0   3   16.39    1.19
   3   0  -3   13.49    1.14
  -3   0   3   15.33    1.13
  -3   0  -3   15.63    1.17
  -3   0  -4    2.30    0.28
   3   0   4    2.54    0.50
  -3   0   4    2.62    0.47
  -3   0  -4    2.81    0.47
   3   0  -4    2.59    0.53
   3   0  -4    2.63    0.34
  -3   0   4    2.61    0.27
   3   0  -5   11.46    1.14
  -3   0  -5   13.13    0.95
  -3   0  -5   11.69    1.12
   3   0  -6  280.37   17.78
  -3   0  -6  237.83   17.77
  -3   0   6  243.91   17.73
  -3   0   6  246.20   17.74
   3   0   6  254.69   17.74
   3   0  -7    6.76    0.77
  -3   0   7    6.35    0.56
  -3   0  -7    5.37    0.71
   3   0  -7    6.05    0.58
  -3   0   8   14.60    1.12
   3   0  -8   16.34    1.16
  -3   0  -8   13.69    1.22
   3   0  -9    3.40    0.65
  -3   0   9    2.24    0.33
   3   0  -9    2.85    0.46
  -3   0   9    2.74    0.46
  -3   0  10   48.49    3.40
  -3   0  10   42.27    3.38
   3   0 -10   47.10    3.41
   3   0  10   44.30    3.38
  -3   0 -10   54.57    3.45
   3   0 -10   48.72    3.44
   3   0 -11    0.36    0.28
  -3   0  11    0.36    0.16
  -3   0 -11    0.03    0.36
   3   0  11    0.12    0.15
   3   0 -12   -0.42    0.41
  -3   0  12    0.25    0.16
  -3   0 -12    0.02    0.39
   3   1   0    0.02    0.03
   3  -1   0    0.03    0.04
  -3  -1   0   -0.01    0.03
   3  -1   0    0.01    0.05
  -3   1   0    0.03    0.04
  -3  -1   1   75.00    5.49
   3  -1  -1   72.39    5.49
  -3   1  -1   86.38    5.50
  -3  -1   1   85.11    5.51
   3   1  -1   76.42    5.49
  -3   1   1   72.61    5.49
   3  -1   1   79.51    5.49
  -3  -1   2   20.70    1.30
  -3  -1   2   16.96    1.34
   3  -1  -2   17.58    1.32
  -3   1  -2   16.21    1.30
   3  -1  -2   19.67    1.30
   3   1  -2   16.76    1.33
  -3  -1  -2   18.12    1.32
   3  -1   2   16.10    1.30
  -3   1   2   19.08    1.29
   3   1  -2   19.57    1.30
   3  -1  -3   39.86    3.00
   3  -1  -3   44.95    2.97
  -3  -1   3   41.07    3.01
  -3  -1   3   45.61    2.96
  -3   1  -3   39.97    2.98
  -3  -1  -3   44.25    2.99
   3   1  -3   39.87    3.01
  -3  -1  -3   41.51    2.95
   3  -1   3   38.06    2.98
  -3   1   3   41.72    2.95
  -3   1  -4    0.77    0.16
   3  -1  -4    1.18    0.27
  -3  -1   4    1.52    0.38
   3  -1  -4    1.27    0.38
   3   1  -4    1.74    0.40
  -3  -1  -4    1.62    0.32
   3  -1   4    1.68    0.36
  -3   1   4    0.85    0.18
  -3  -1  -4    0.84    0.21
   3   1  -4    0.89    0.23
  -3   1  -5   71.32    5.25
  -3  -1   5   73.78    5.25
  -3  -1  -5   72.89    5.23
   3   1  -5   75.20    5.26
   3  -1   5   71.76    5.24
   3   1   6   51.66    3.43
  -3   1  -6   44.60    3.50
   3  -1  -6   42.83    3.63
   3  -1  -6   52.55    3.51
  -3  -1   6   48.61    3.43
   3  -1  -6   50.49    3.47
  -3  -1   6   45.86    3.43
  -3  -1  -6   44.22    3.48
   3   1  -6   49.76    3.50
  -3   1   6   49.78    3.43
  -3   1   6   50.95    3.44
   3  -1   6   47.80    3.42
   3  -1  -7   43.57    3.10
  -3   1  -7   38.73    3.10
  -3  -1   7   39.84    3.04
  -3  -1   7   45.92    3.04
   3   1   7   47.07    3.04
   3  -1  -7   42.65    3.06
  -3   1   7   40.89    3.04
  -3  -1  -7   38.35    3.09
   3  -1   7   45.70    3.04
  -3   1   7   45.67    3.04
   3   1  -7   41.71    3.11
   3   1   8    0.41    0.14
   3  -1  -8    1.17    0.37
   3  -1  -8    0.75    0.24
  -3  -1   8    0.51    0.22
  -3  -1   8    0.48    0.15
  -3   1  -8    1.19    0.36
   3  -1   8    0.58    0.14
  -3   1   8    0.53    0.15
   3   1  -8    0.88    0.38
   3   1  -8    0.38    0.21
  -3  -1  -8    1.09    0.34
   3  -1  -9   67.67    4.91
  -3   1  -9   78.34    4.96
  -3  -1   9   61.94    4.89
   3  -1  -9   75.30    4.94
   3   1   9   63.26    4.89
  -3  -1   9   68.88    4.90
   3   1  -9   73.88    4.94
  -3  -1  -9   75.18    4.95
  -3   1   9   62.67    4.89
   3   1  -9   68.01    4.91
   3  -1   9   62.62    4.88
  -3   1   9   71.97    4.90
   3   1  10    7.65    0.64
  -3   1 -10    8.34    0.85
   3  -1 -10    7.54    0.73
   3  -1 -10    6.44    0.85
  -3  -1  10    6.17    0.76
  -3  -1  10    8.36    0.65
  -3   1  10    8.05    0.65
   3  -1  10    7.54    0.63
   3   1 -10    7.72    0.73
  -3  -1 -10    8.54    0.80
  -3   1  10    7.83    0.76
   3  -1 -11    3.89    0.57
  -3  -1  11    3.96    0.40
   3   1  11    4.25    0.39
  -3   1  11    4.38    0.41
  -3  -1 -11    2.89    0.60
   3   1 -11    2.70    0.56
   3  -1  11    3.80    0.39
  -3   1 -12    0.65    0.43
   3   1 -12    0.79    0.40
  -3  -1 -12    1.40    0.40
  -3   2   0    0.25    0.08
   3  -2   0    0.26    0.08
  -3   2   0    0.32    0.07
  -3  -2   0    0.38    0.08
  -3   2  -1    0.46    0.10
  -3  -2   1    0.22    0.09
   3  -2  -1    0.29    0.07
  -3  -2   1    0.35    0.09
  -3   2   1    0.32    0.07
   3  -2   1    0.44    0.09
  -3  -2  -1    0.56    0.11
   3   2  -1    0.36    0.09
   3   2  -1    0.39    0.08
   3  -2  -2  222.30   16.19
  -3   2  -2  238.96   16.20
  -3  -2   2  239.00   16.20
  -3   2   2  230.83   16.19
  -3  -2  -2  245.98   16.19
   3   2  -2  237.93   16.20
   3  -2   2  235.18   16.19
   3   2  -2  195.05   16.19
   3  -2  -3    3.21    0.37
   3  -2  -3    2.38    0.27
  -3  -2   3    2.85    0.42
  -3   2   3    2.49    0.24
   3  -2   3    2.96    0.34
   3   2  -3    3.20    0.42
  -3  -2  -3    3.04    0.35
  -3  -2  -3    2.44    0.26
  -3   2  -4   18.02    1.43
   3  -2  -4   17.01    1.46
   3  -2  -4   21.58    1.38
  -3  -2   4   16.44    1.46
  -3  -2  -4   17.47    1.42
   3  -2   4   16.49    1.42
  -3   2   4   22.19    1.35
   3   2  -4   17.03    1.47
   3  -2  -5    7.88    1.00
  -3  -2   5    8.63    1.02
   3  -2  -5    6.78    0.78
   3  -2   5    8.26    1.02
  -3  -2  -5    8.07    0.99
   3   2  -5    9.42    0.73
   3   2  -5   10.25    1.09
  -3  -2  -5    8.43    0.69
  -3   2  -6  228.36   16.52
   3  -2  -6  236.65   16.49
   3   2   6  241.66   16.48
  -3  -2   6  219.51   16.47
  -3  -2   6  222.26   16.61
   3  -2  -6  225.99   16.61
  -3  -2   6  226.07   16.47
   3  -2  -6  246.76   16.52
   3   2  -6  250.95   16.51
  -3   2   6  244.95   16.48
  -3   2   6  235.23   16.48
   3   2  -6  241.67   16.69
   3  -2   6  222.14   16.47
  -3  -2  -6  241.09   16.51
  -3  -2   7    1.98    0.28
   3  -2  -7    2.58    0.33
  -3   2  -7    2.04    0.42
   3  -2  -7    2.66    0.44
   3   2   7    2.90    0.32
  -3  -2   7    2.56    0.31
  -3  -2  -7    2.35    0.56
   3  -2   7    2.90    0.28
   3   2  -7    2.14    0.43
  -3   2   7    2.71    0.40
  -3   2  -8    1.14    0.40
   3  -2  -8    1.00    0.24
   3  -2  -8    0.46    0.36
  -3  -2   8    1.23    0.19
  -3   2   8    1.15    0.24
   3   2  -8    0.97    0.25
  -3  -2  -8    0.76    0.32
  -3   2   8    1.57    0.27
  -3  -2   9    5.15    0.59
   3  -2  -9    6.16    0.58
   3   2   9    5.04    0.49
  -3  -2   9    5.50    0.50
  -3   2  -9    5.91    0.75
  -3   2   9    5.35    0.59
  -3   2   9    5.10    0.50
   3  -2   9    5.39    0.48
   3   2  -9    5.61    0.59
   3   2  10   58.98    4.11
   3  -2 -10   58.51    4.14
  -3  -2  10   56.96    4.12
  -3   2 -10   61.53    4.18
   3  -2 -10   55.40    4.14
  -3  -2  10   59.10    4.11
   3   2 -10   50.49    4.22
  -3  -2 -10   58.76    4.16
  -3   2  10   57.35    4.13
   3  -2  10   61.26    4.11
   3   2 -10   59.24    4.14
  -3   2  10   57.21    4.11
   3  -2 -11    0.38    0.29
  -3   2 -11    0.26    0.39
  -3  -2  11    0.53    0.17
   3  -2  11    0.49    0.17
   3   2 -11    0.53    0.29
  -3  -2 -11    0.87    0.37
  -3   2 -12    2.50    0.73
   3  -2 -12    0.51    0.39
   3   2 -12    0.48    0.60
  -3   3   0    0.10    0.07
   3   3   0    0.08    0.09
   3  -3   0    0.12    0.10
  -3  -3   0    0.17    0.09
  -3   3   0   -0.02    0.10
  -3  -3   1   17.69    1.28
   3  -3  -1   14.95    1.27
   3  -3  -1   17.98    1.29
  -3   3  -1   19.44    1.29
   3  -3   1   18.35    1.28
   3   3  -1   18.39    1.29
  -3  -3  -1   18.13    1.28
  -3   3  -2    5.41    0.44
  -3  -3   2    5.16    0.45
   3  -3  -2    5.44    0.41
   3  -3   2    5.46    0.44
  -3  -3  -2    5.08    0.43
  -3  -3  -2    5.81    0.40
   3   3  -2    4.64    0.43
  -3   3   2    5.85    0.41
   3   3  -2    5.05    0.45
   3  -3  -3   23.64    1.74
  -3   3  -3   20.60    1.75
   3  -3  -3   25.69    1.71
  -3  -3   3   22.72    1.74
   3   3  -3   25.64    1.72
  -3   3   3   25.66    1.69
   3  -3   3   22.08    1.76
   3   3  -3   23.00    1.75
  -3  -3  -3   21.29    1.75
  -3  -3  -3   25.88    1.70
   3  -3  -4    2.24    0.33
   3  -3  -4    1.37    0.42
  -3  -3   4    2.04    0.46
  -3   3  -4    1.27    0.40
   3   3  -4    1.69    0.47
  -3  -3  -4    1.86    0.29
  -3   3   4    1.92    0.26
  -3  -3  -4    1.16    0.37
   3  -3   4    1.45    0.40
   3   3  -4    2.02    0.30
  -3  -3   5   25.24    1.97
   3  -3  -5   18.93    1.73
  -3   3  -5   25.94    1.94
   3  -3  -5   23.49    1.92
   3  -3   5   25.50    1.95
   3   3  -5   20.96    1.69
  -3  -3  -5   21.78    1.69
   3   3  -5   26.93    2.00
  -3   3   5   19.02    1.67
  -3  -3  -5   24.23    1.83
  -3  -3   6   44.76    3.88
   3  -3  -6   48.64    3.53
   3  -3  -6   45.90    3.57
  -3  -3   6   48.80    3.53
  -3  -3   6   49.38    3.50
  -3   3  -6   47.33    3.65
  -3  -3  -6   50.26    3.60
  -3   3   6   54.33    3.52
   3   3  -6   50.99    3.57
  -3  -3  -6   50.39    3.57
   3   3  -6   48.44    3.96
  -3   3   6   50.84    3.52
  -3   3  -7   56.64    4.28
   3  -3  -7   61.50    4.25
  -3  -3   7   61.95    4.22
  -3  -3   7   55.57    4.22
   3  -3  -7   58.84    4.28
   3  -3   7   64.29    4.22
   3   3  -7   53.20    4.26
  -3   3   7   60.70    4.23
  -3  -3  -7   55.76    4.26
  -3   3   7   66.99    4.24
   3   3   8    1.98    0.30
  -3  -3   8    2.73    0.40
  -3  -3   8    1.60    0.30
   3  -3  -8    1.96    0.42
   3  -3   8    2.21    0.28
  -3   3   8    2.16    0.32
   3  -3  -9   62.76    4.70
  -3  -3   9   71.92    4.69
  -3  -3   9   57.97    4.68
   3   3   9   57.38    4.67
  -3  -3  -9   77.73    4.73
  -3   3   9   68.89    4.69
   3  -3   9   59.83    4.67
   3   3  -9   72.42    4.73
   3   3  -9   65.57    4.70
  -3  -3  10    9.12    0.87
  -3   3 -10    9.61    0.99
   3  -3 -10   10.39    0.96
  -3  -3  10   10.05    0.80
   3  -3 -10    9.94    0.88
  -3   3  10    9.13    1.03
   3   3 -10   10.85    0.89
   3  -3  10   10.49    0.79
  -3  -3 -10   11.29    0.92
  -3   3  10    9.74    0.80
  -3  -3  11   11.67    0.83
   3  -3 -11   10.46    0.92
  -3   3 -11    8.91    0.95
  -3  -3 -11    9.32    0.92
   3   3 -11   10.32    0.91
   3  -3  11   12.24    0.81
   3  -3 -12    0.41    0.35
   3  -3  12    0.27    0.15
  -3  -3 -12    0.19    0.45
   3   3 -12   -0.34    0.37
  -3   4   0    0.04    0.13
   3  -4   0    0.19    0.13
  -3   4   0    0.25    0.08
   3   4   0    0.30    0.13
  -3  -4   0    0.17    0.11
   3  -4  -1   31.43    2.35
  -3  -4   1   33.52    2.35
   3  -4  -1   33.63    2.33
  -3   4  -1   33.98    2.35
   3  -4   1   31.90    2.35
   3   4  -1   33.82    2.35
  -3   4   1   32.57    2.33
  -3  -4  -1   32.41    2.34
  -3   4  -2  349.14   23.12
   3  -4  -2  330.15   23.12
  -3  -4   2  343.60   23.11
   3  -4  -2  298.34   23.09
   3  -4   2  341.16   23.11
  -3  -4  -2  343.14   23.11
   3   4  -2  303.58   23.10
   3   4  -2  331.53   23.11
  -3   4   2  321.43   23.09
  -3   4  -3   11.64    0.99
   3  -4  -3   13.82    0.94
  -3  -4   3   12.11    0.99
  -3  -4  -3   11.12    0.97
   3  -4   3   12.51    0.98
   3   4  -3   12.25    1.01
  -3  -4  -3   14.60    0.93
  -3  -4   4   62.33    4.92
  -3   4  -4   65.47    4.92
   3  -4  -4   75.79    4.87
   3  -4  -4   64.69    4.91
  -3   4   4   75.88    4.85
  -3  -4  -4   62.52    4.89
   3   4  -4   63.97    4.94
  -3  -4  -4   72.77    4.85
   3  -4   4   63.08    4.90
   3   4  -4   77.83    4.87
  -3  -4   5    8.01    0.66
  -3  -4   5    6.54    1.37
   3  -4  -5    9.87    1.19
   3  -4  -5    6.08    0.93
  -3   4  -5    8.78    1.26
  -3   4  -5    6.50    1.23
   3   4   5    6.89    0.65
   3  -4  -5    8.01    0.81
  -3   4   5    8.01    0.67
  -3  -4  -5    7.62    1.10
   3   4  -5    7.66    0.71
   3   4  -5    7.16    1.30
   3  -4   5    6.30    0.59
   3  -4   5    9.07    1.26
  -3  -4  -5    7.07    0.72
   3  -4  -6  238.54   18.14
  -3  -4   6  259.13   18.43
   3   4   6  224.61   18.11
   3  -4  -6  243.70   18.13
  -3   4  -6  275.94   18.16
  -3  -4   6  261.52   18.11
  -3   4   6  228.87   18.12
  -3   4   6  280.38   18.14
  -3  -4  -6  244.31   18.23
   3  -4   6  259.45   18.11
  -3  -4  -6  293.90   18.17
   3  -4   6  247.10   18.11
   3   4  -6  257.22   18.37
   3   4  -6  293.95   18.17
  -3   4  -7    4.74    0.80
  -3  -4   7    4.80    0.50
   3   4   7    5.44    0.51
  -3  -4   7    4.94    0.47
   3  -4  -7    5.29    0.69
   3  -4  -7    4.86    0.60
  -3   4   7    4.59    0.54
   3  -4   7    4.77    0.46
  -3  -4  -7    4.39    0.64
  -3   4   7    5.15    0.50
   3   4  -7    4.48    0.73
  -3  -4   8    3.23    0.37
   3  -4  -8    2.82    0.49
   3   4   8    3.48    0.39
   3  -4   8    3.34    0.34
  -3   4   8    3.31    0.40
  -3   4   8    2.61    0.48
  -3   4  -9    4.79    0.76
   3  -4  -9    3.88    0.63
  -3  -4   9    3.27    0.53
  -3  -4   9    4.37    0.45
   3  -4  -9    5.49    0.56
   3   4  -9    4.47    0.61
   3  -4   9    4.40    0.44
  -3  -4  -9    5.13    0.62
  -3   4   9    4.29    0.46
   3   4  -9    4.50    0.57
  -3   4   9    4.25    0.57
   3  -4 -10   52.18    4.19
  -3  -4  10   58.65    4.07
  -3   4 -10   56.03    4.13
   3  -4 -10   56.85    4.13
  -3  -4 -10   58.56    4.10
   3  -4  10   60.56    4.06
  -3   4 -11    0.67    0.39
   3  -4 -11    0.39    0.29
   3   4 -11    0.13    0.27
  -3  -4 -11    0.42    0.31
   3  -4 -12    1.03    0.36
   3  -4  12    0.53    0.15
   3   4 -12    0.66    0.30
  -3   5   0    0.43    0.18
  -3   5   0    0.63    0.13
   3   5   0    0.65    0.18
   3  -5   0    0.52    0.18
  -3  -5   0    0.64    0.16
  -3   5  -1   69.44    5.13
   3  -5  -1   71.02    5.15
  -3  -5   1   74.44    5.15
  -3   5  -1   79.05    5.16
   3  -5   1   71.49    5.15
  -3   5   1   63.93    5.12
   3   5  -1   77.68    5.16
  -3  -5  -1   75.22    5.15
   3  -5  -2   18.61    1.41
  -3  -5   2   19.81    1.40
  -3   5  -2   18.97    1.40
   3  -5  -2   18.73    1.36
   3   5  -2   17.98    1.40
   3   5  -2   19.23    1.38
  -3   5   2   20.92    1.36
  -3  -5  -2   17.56    1.38
   3  -5   2   17.76    1.39
  -3  -5   3   71.93    4.98
   3  -5  -3   67.06    4.94
   3  -5  -3   58.58    5.10
  -3   5  -3   70.95    4.98
  -3  -5  -3   69.00    4.97
  -3  -5  -3   72.29    4.92
   3   5  -3   68.48    4.98
  -3   5   3   74.57    4.94
   3  -5   3   69.62    4.97
   3   5  -3   75.29    4.96
   3  -5  -4    3.37    0.71
   3  -5  -4    2.63    0.59
   3  -5  -4    2.95    0.40
  -3  -5   4    3.39    0.62
   3   5  -4    2.84    0.65
  -3  -5  -4    2.88    0.52
  -3  -5  -4    3.49    0.72
   3   5  -4    3.70    0.43
  -3   5   4    3.13    0.35
  -3  -5  -4    3.06    0.42
   3  -5  -5   39.89    2.91
  -3  -5   5   35.72    2.56
   3  -5  -5   33.06    2.61
   3  -5  -5   36.57    2.70
  -3   5  -5   39.41    2.67
  -3  -5   5   40.96    3.08
  -3  -5   5   29.77    2.57
   3  -5  -5   37.05    2.62
  -3   5   5   33.42    2.61
  -3  -5  -5   32.91    2.65
  -3  -5  -5   34.78    2.64
   3   5  -5   40.91    3.04
  -3  -5   6   38.78    2.81
  -3   5  -6   38.59    2.91
   3  -5  -6   35.70    2.84
  -3  -5   6   41.78    2.81
   3  -5   6   36.62    2.82
   3   5  -6   39.81    2.88
  -3   5   6   36.77    2.82
  -3  -5  -6   38.72    2.87
  -3   5   6   41.51    2.83
   3  -5   6   43.48    2.81
   3  -5  -7   39.00    3.02
  -3  -5   7   39.66    2.94
   3  -5  -7   41.99    2.97
  -3   5  -7   41.55    3.02
  -3   5   7   43.73    3.06
   3   5  -7   38.05    2.99
   3  -5   7   34.85    3.04
   3  -5   7   46.83    2.92
  -3  -5  -7   41.63    2.97
   3  -5  -8    0.94    0.33
  -3  -5   8    0.29    0.17
  -3  -5   8    0.55    0.23
  -3   5  -8    1.31    0.43
   3  -5  -8    0.63    0.26
   3   5  -8    1.36    0.49
   3  -5   8    0.63    0.17
  -3   5   8    1.00    0.27
  -3  -5  -8    1.09    0.32
  -3  -5   9   43.17    2.97
   3  -5  -9   37.35    2.99
   3  -5  -9   45.47    3.00
  -3  -5   9   35.82    2.96
  -3   5   9   41.61    2.98
  -3  -5  -9   49.07    3.02
   3  -5   9   37.38    2.96
   3  -5 -10    6.13    0.66
  -3  -5  10    6.28    0.56
  -3   5 -10    5.59    0.81
  -3  -5  10    7.01    0.66
   3  -5 -10    6.10    0.72
  -3  -5 -10    5.46    0.78
   3  -5  10    6.58    0.56
   3   5 -10    7.70    0.67
  -3   5 -11    2.89    0.64
  -3  -5  11    4.49    0.41
   3  -5 -11    4.15    0.58
   3   5 -11    3.40    0.54
   3  -5  11    4.70    0.39
  -3  -5 -11    3.52    0.54
  -3  -5 -12    0.59    0.34
  -3   6   0    3.23    0.31
   3  -6   0    4.34    0.42
  -3  -6   1    4.49    0.44
   3  -6  -1    3.51    0.52
  -3   6  -1    3.89    0.35
  -3   6  -1    4.23    0.48
  -3   6   1    3.62    0.34
   3  -6   1    4.47    0.44
   3   6  -1    4.87    0.47
  -3  -6  -1    4.06    0.43
   3  -6  -2  305.23   21.97
  -3  -6   2  337.23   21.97
  -3   6  -2  323.13   21.97
   3  -6  -2  292.47   21.93
   3  -6   2  309.87   21.96
  -3  -6  -2  312.35   21.96
   3   6  -2  319.17   21.97
  -3   6   2  318.99   21.93
   3   6  -2  293.48   21.94
   3  -6  -3    6.04    0.50
   3  -6  -3    5.84    0.71
  -3   6  -3    5.27    0.69
  -3  -6   3    5.39    0.70
   3   6  -3    5.40    0.70
  -3  -6  -3    5.30    0.64
   3  -6   3    5.56    0.66
   3   6  -3    6.45    0.55
  -3   6  -4    5.68    0.64
  -3   6  -4    4.41    0.91
   3  -6  -4    4.40    0.51
  -3   6  -4    4.71    0.44
  -3  -6   4    4.56    0.79
  -3  -6   4    4.88    0.42
   3  -6  -4    3.22    0.74
   3  -6  -4    4.35    0.52
  -3   6   4    5.18    0.50
   3   6  -4    4.97    0.56
   3  -6   4    3.58    0.72
  -3  -6  -4    3.44    0.82
  -3  -6  -4    5.00    0.54
   3   6  -4    3.16    0.76
  -3   6   4    4.84    0.57
  -3  -6   5    7.98    0.62
   3  -6  -5    6.53    0.73
  -3   6  -5    7.84    0.86
  -3  -6   5    7.64    0.65
   3  -6  -5    7.72    0.70
   3  -6   5    6.84    0.71
   3  -6   5    7.97    0.59
   3   6  -5    6.43    0.97
  -3   6  -6  173.51   11.95
  -3  -6   6  173.65   11.90
   3  -6  -6  159.24   11.92
  -3  -6   6  167.26   11.89
  -3  -6  -6  163.74   11.93
   3  -6   6  175.79   11.90
   3  -6   6  162.21   11.89
   3   6  -6  172.44   11.92
  -3   6   6  172.95   11.91
  -3  -6   7    4.63    0.45
  -3  -6   7    3.49    0.49
  -3   6  -7    3.35    0.78
   3  -6  -7    2.70    0.63
   3  -6  -7    3.27    0.59
  -3   6   7    5.32    0.59
   3  -6   7    4.61    0.71
   3  -6   7    4.98    0.43
  -3  -6  -7    3.33    0.62
  -3  -6   8    2.45    0.38
   3  -6  -8    3.19    0.56
  -3   6  -8    3.49    0.72
   3  -6   8    3.03    0.36
  -3   6   8    3.26    0.53
  -3  -6  -8    2.94    0.54
  -3   6  -9    4.01    0.71
   3  -6  -9    3.08    0.55
   3  -6  -9    4.07    0.56
  -3  -6   9    2.75    0.40
  -3  -6   9    3.17    0.48
  -3  -6  -9    3.50    0.54
  -3   6   9    3.15    0.58
   3  -6   9    2.78    0.37
  -3   6 -10   37.59    2.81
  -3  -6  10   39.53    2.75
   3  -6 -10   38.27    2.78
   3  -6 -10   35.83    2.94
  -3  -6  10   37.63    2.77
  -3  -6 -10   38.91    2.78
   3  -6  10   39.46    2.75
   3   6 -10   40.37    2.78
   3  -6 -11    0.29    0.28
  -3   6 -11   -0.51    0.47
  -3  -6  11    0.35    0.16
  -3  -6 -11    0.15    0.28
   3   6 -11   -0.12    0.25
   3  -6  11    0.41    0.14
   3   7   0   -0.19    0.29
  -3   7   0   -0.21    0.30
  -3   7   0    0.10    0.13
   3  -7   0    0.02    0.29
  -3  -7   0   -0.06    0.26
   3  -7  -1  156.44   11.05
  -3   7  -1  150.77   11.00
  -3   7  -1  165.71   11.06
  -3  -7   1  161.09   11.04
   3   7  -1  163.51   11.05
   3   7  -1  147.38   10.98
  -3   7   1  148.51   11.00
  -3  -7  -1  159.67   11.04
   3  -7   1  154.65   11.04
  -3  -7   2   11.41    0.96
   3  -7  -2   10.09    0.96
  -3   7  -2   11.12    0.98
  -3   7  -2   11.40    0.83
  -3  -7  -2   11.20    0.94
   3  -7   2   10.22    0.95
   3   7  -2   10.87    0.87
   3   7  -2   10.31    0.96
   3  -7  -3   62.64    4.45
   3  -7  -3   57.14    4.53
  -3   7  -3   56.87    4.53
  -3  -7   3   61.05    4.42
  -3   7  -3   64.28    4.46
  -3  -7   3   65.24    4.55
  -3   7  -3   65.18    4.43
   3   7  -3   71.34    4.48
  -3   7   3   71.47    4.46
   3   7  -3   57.29    4.54
  -3  -7  -3   58.26    4.52
   3  -7   3   57.32    4.51
   3  -7   3   65.74    4.42
   3  -7  -4    1.20    0.41
  -3  -7   4    1.63    0.30
   3  -7  -4    0.24    0.89
   3  -7  -4    1.05    0.24
   3  -7  -4    1.16    0.22
  -3   7   4    1.45    0.36
   3  -7   4    1.05    0.21
   3   7  -4    1.91    1.00
   3   7  -4    0.50    0.46
  -3  -7  -4    0.88    0.29
  -3   7   4    1.12    0.24
  -3   7   4    0.89    0.32
  -3  -7   5   60.31    4.44
   3  -7  -5   64.53    4.48
  -3   7  -5   68.69    4.53
  -3   7   5   63.85    4.48
   3  -7   5   51.30    4.44
   3   7  -5   69.44    4.61
  -3  -7  -5   62.96    4.50
   3  -7   5   61.86    4.46
  -3   7  -6   30.35    2.25
  -3  -7   6   31.18    2.18
  -3  -7   6   30.01    2.16
   3  -7  -6   28.76    2.17
  -3  -7  -6   24.67    2.19
   3  -7   6   28.20    2.15
  -3   7   6   28.17    2.17
   3  -7   6   31.84    2.12
   3   7  -6   30.50    2.28
   3  -7  -7   31.91    2.50
  -3  -7   7   37.53    2.46
   3  -7  -7   30.99    2.50
  -3   7  -7   35.09    2.56
  -3  -7   7   31.94    2.46
  -3  -7  -7   34.57    2.51
   3   7  -7   29.70    2.71
   3  -7   7   35.92    2.45
  -3   7   7   36.27    2.49
   3  -7   7   35.72    2.49
  -3  -7   8   -0.02    0.24
   3  -7  -8    0.46    0.32
  -3   7  -8    1.09    0.45
  -3  -7   8    0.36    0.19
   3  -7  -8    0.68    0.28
   3  -7   8    0.29    0.16
  -3  -7  -8    0.56    0.31
  -3   7   8    0.35    0.28
  -3  -7   9   30.85    2.41
  -3  -7   9   33.74    2.42
  -3   7  -9   37.19    2.51
   3  -7  -9   31.47    2.48
   3  -7  -9   33.92    2.45
  -3  -7  -9   36.94    2.46
   3  -7   9   30.53    2.40
  -3  -7  10    5.93    0.51
   3  -7 -10    6.05    0.62
  -3  -7  10    4.68    0.63
  -3   7 -10    4.25    0.75
   3   7 -10    5.61    0.60
   3  -7  10    6.27    0.49
  -3  -7 -10    5.41    0.58
  -3  -7  11   10.69    0.79
   3  -7 -11    9.71    0.91
   3  -7  11   10.67    0.77
   3   7 -11    9.62    0.86
  -3   8   0    1.63    0.26
  -3  -8   0    2.55    0.47
  -3   8  -1    6.85    0.54
  -3  -8   1    7.09    0.54
   3  -8  -1    5.25    0.79
  -3   8  -1    7.25    0.60
  -3   8  -1    6.74    0.58
  -3  -8   1    7.31    0.82
  -3  -8   1    6.70    0.53
  -3   8   1    6.64    0.55
   3   8  -1    6.90    0.85
   3  -8   1    6.13    0.79
  -3  -8  -1    5.08    0.78
  -3   8   1    7.65    0.57
   3  -8  -2  128.07    9.45
  -3   8  -2  135.86    9.38
  -3  -8   2  125.96    9.35
   3  -8  -2  135.02    9.36
   3  -8  -2  125.91    9.36
  -3  -8   2  134.03    9.36
  -3  -8   2  142.60    9.47
  -3   8  -2  135.38    9.46
  -3   8  -2  133.01    9.36
  -3   8  -2  128.04    9.38
   3  -8   2  126.59    9.44
  -3  -8  -2  133.39    9.36
   3  -8   2  128.81    9.35
   3   8  -2  134.18    9.46
  -3   8   2  151.63    9.38
  -3   8   2  137.09    9.38
   3  -8   2  126.30    9.35
  -3   8   2  133.17    9.36
  -3  -8   3    5.23    0.47
   3  -8  -3    3.44    0.83
   3  -8  -3    5.02    0.47
   3  -8  -3    4.61    0.45
   3  -8   3    5.14    0.44
  -3   8   3    4.45    0.60
  -3  -8  -3    5.33    0.51
  -3   8   3    5.31    0.48
   3  -8  -4    2.64    0.39
  -3  -8   4    3.73    0.40
  -3  -8   4    2.60    0.32
   3  -8  -4    3.13    0.43
  -3   8  -4    4.07    0.57
  -3   8  -4    3.75    0.36
  -3  -8  -4    2.58    0.46
  -3   8   4    3.58    0.45
   3  -8   4    3.58    0.32
  -3   8   4    3.11    0.62
   3   8  -4    2.89    0.56
   3  -8   4    3.22    0.37
  -3  -8   5    6.07    0.53
   3  -8  -5    5.47    0.63
  -3   8  -5    5.00    0.81
   3  -8  -5    7.30    0.60
  -3  -8   5    6.54    0.55
  -3  -8  -5    5.38    0.64
   3  -8   5    5.58    0.59
  -3   8   5    5.77    0.64
   3  -8   5    6.65    0.51
  -3   8  -6  138.11    9.37
  -3  -8   6  140.83    9.31
  -3  -8   6  129.23    9.29
   3  -8  -6  138.17    9.33
  -3   8   6  127.24    9.32
  -3  -8  -6  112.57    9.33
   3  -8   6  129.19    9.31
   3  -8   6  139.75    9.30
  -3   8  -7    3.28    0.75
  -3  -8   7    2.91    0.41
   3  -8  -7    2.19    0.39
  -3  -8   7    2.52    0.46
  -3  -8  -7    2.33    0.56
   3  -8   7    3.13    0.37
   3  -8   7    2.33    0.41
  -3   8   7    3.61    0.56
  -3  -8   8    6.27    0.56
   3  -8  -8    4.52    0.65
  -3   8   8    4.96    0.64
   3  -8  -9    5.93    0.61
  -3  -8   9    4.47    0.47
  -3  -8   9    4.66    0.53
   3  -8  -9    3.86    0.61
  -3  -8  -9    5.47    0.57
   3  -8   9    4.26    0.45
  -3   8 -10   30.52    2.38
  -3  -8  10   28.82    2.31
   3  -8 -10   33.08    2.33
  -3  -8  10   33.01    2.29
  -3  -8 -10   31.82    2.31
   3   8 -10   32.94    2.32
   3  -8  10   33.50    2.29
  -3  -8  11    0.57    0.16
   3  -8 -11    0.77    0.32
  -3  -8 -11    0.55    0.27
   3  -8  11    0.34    0.14
   3   8 -11    0.61    0.27
  -3   9   0    0.03    0.22
   3  -9   0   -0.01    0.10
   3  -9   0   -0.27    0.60
   3  -9   0    0.02    0.12
   3  -9   0   -0.16    0.12
  -3   9  -1   68.92    4.61
  -3   9  -1   56.66    4.35
   3  -9  -1   61.18    4.32
   3  -9  -1   57.26    4.33
  -3   9  -1   61.02    4.36
   3  -9  -1   60.93    4.51
   3  -9   1   62.59    4.33
  -3   9   1   67.18    4.36
   3   9  -1   54.44    4.33
  -3   9   1   62.78    4.45
   3  -9  -2    9.29    0.77
  -3   9  -2    9.86    0.82
  -3  -9   2    9.85    0.78
  -3   9  -2   10.42    0.76
  -3  -9   2   10.03    0.74
  -3  -9   2   10.17    0.74
   3  -9   2   10.56    0.75
  -3   9   2   10.18    0.77
   3   9  -2    9.16    0.78
   3  -9   2    9.85    0.78
  -3   9   2    9.20    0.87
  -3  -9  -2   10.03    0.76
  -3   9  -3   59.75    4.32
  -3  -9   3   63.66    4.30
   3  -9  -3   58.95    4.29
  -3   9  -3   61.28    4.29
   3  -9  -3   60.27    4.29
  -3  -9   3   56.95    4.27
  -3   9   3   63.64    4.30
   3  -9   3   58.97    4.27
  -3  -9  -3   61.76    4.29
   3  -9   3   59.77    4.28
  -3  -9   4    2.98    0.33
  -3   9  -4    3.32    0.64
   3  -9  -4    3.07    0.43
   3  -9  -4    3.42    0.38
  -3  -9   4    3.65    0.38
  -3   9  -4    3.44    0.36
  -3   9   4    2.88    0.45
  -3  -9  -4    3.25    0.43
   3   9  -4    3.21    0.49
   3  -9   4    3.48    0.32
   3  -9   4    3.36    0.38
  -3   9  -5   31.83    2.24
   3  -9  -5   28.81    2.13
   3  -9  -5   31.92    2.15
  -3  -9   5   25.59    2.10
  -3  -9   5   30.18    2.09
   3  -9   5   28.76    2.15
   3  -9   5   24.91    2.08
  -3   9   5   26.17    2.14
  -3  -9  -5   33.41    2.16
   3  -9  -6   21.67    1.59
  -3  -9   6   20.82    1.53
  -3  -9   6   21.71    1.54
  -3   9  -6   21.47    1.70
   3  -9   6   21.35    1.52
   3  -9   6   20.83    1.57
  -3  -9  -6   17.84    1.60
  -3   9   6   19.75    1.58
  -3   9  -7   30.26    2.27
   3  -9  -7   28.66    2.21
  -3  -9   7   27.54    2.17
   3  -9  -7   29.42    2.22
  -3  -9   7   30.61    2.17
   3  -9   7   29.59    2.26
  -3  -9  -7   30.24    2.22
  -3   9   7   32.43    2.20
   3  -9   7   29.37    2.16
   3  -9  -8    0.80    0.33
  -3   9  -8    0.72    0.44
  -3  -9   8    0.31    0.19
  -3  -9   8    0.43    0.24
   3  -9  -8    0.40    0.30
   3  -9   8    0.33    0.17
  -3   9   8    1.17    0.37
  -3  -9  -8    0.89    0.30
  -3  -9   9   28.12    1.94
  -3   9  -9   28.76    2.04
  -3  -9   9   24.64    1.93
   3  -9  -9   25.91    1.98
   3  -9   9   23.95    1.92
  -3  -9  -9   29.00    1.96
  -3  -9  10    4.42    0.44
   3  -9 -10    5.31    0.59
  -3  -9 -10    4.45    0.50
   3   9 -10    4.72    0.53
   3  -9  10    4.75    0.42
  -3  10   0    3.03    0.32
  -3 -10   0    3.67    0.31
   3 -10   0    3.19    0.32
  -3  10   0    3.61    0.44
  -3 -10   0    2.95    0.40
  -3 -10   0    3.32    0.31
   3 -10   0    3.05    0.31
   3 -10   0    2.57    0.30
   3 -10  -1    1.82    0.27
   3 -10  -1    2.26    0.27
  -3 -10   1    2.20    0.26
  -3  10  -1    2.25    0.27
   3  10   1    1.97    0.32
  -3 -10   1    2.56    0.26
   3 -10  -1    2.08    0.26
  -3  10  -1    2.38    0.41
  -3 -10  -1    2.27    0.27
   3 -10   1    2.44    0.27
  -3  10   1    1.98    0.48
  -3  10   1    2.27    0.28
   3  10  -1    2.50    0.38
   3 -10   1    2.19    0.26
  -3 -10   2  127.41    8.97
   3 -10  -2  132.73    8.98
  -3 -10   2  132.61    8.97
   3 -10  -2  125.90    8.98
  -3  10  -2  130.42    9.01
  -3  10  -2  129.22    8.98
  -3 -10   2  124.56    8.98
  -3 -10  -2  131.91    8.98
   3  10  -2  120.14    8.98
  -3  10   2  114.82    9.01
   3 -10   2  126.48    8.97
  -3  10   2  131.88    8.98
   3 -10   2  129.27    8.97
  -3  10  -3   10.24    1.05
   3 -10  -3   12.00    0.90
   3 -10  -3   11.46    0.91
  -3 -10   3   12.55    0.91
  -3  10   3   12.18    0.93
   3 -10   3   11.89    0.89
   3 -10  -4   13.05    0.97
  -3  10  -4   12.56    0.96
   3 -10  -4   12.13    0.98
  -3 -10   4   13.54    0.96
  -3 -10   4   12.38    0.93
  -3  10  -4   11.15    1.14
  -3 -10  -4   12.23    0.99
   3 -10   4   12.25    0.95
  -3  10   4   12.28    1.00
   3 -10   4   13.70    0.94
   3  10  -4   11.85    1.01
  -3 -10   5    5.45    0.47
   3 -10  -5    5.50    0.54
   3 -10  -5    5.06    0.57
  -3 -10   5    4.66    0.49
  -3  10  -5    5.54    0.86
   3 -10   5    5.06    0.45
  -3 -10  -5    5.39    0.58
   3 -10   5    4.87    0.53
  -3  10   5    4.05    0.59
  -3 -10   6   92.06    6.55
   3 -10  -6   97.33    6.59
  -3 -10   6   94.00    6.56
  -3  10  -6   99.51    6.63
   3 -10   6   92.54    6.56
  -3  10   6   91.54    6.58
  -3 -10  -6   82.35    6.58
   3 -10   6   92.08    6.55
   3 -10  -7    3.88    0.56
  -3  10  -7    3.45    0.75
  -3 -10   7    3.39    0.50
   3 -10  -7    4.45    0.58
  -3 -10   7    3.68    0.46
  -3 -10  -7    3.23    0.54
   3 -10   7    3.59    0.42
  -3  10   7    4.04    0.62
  -3  10  -8    1.61    0.48
  -3 -10   8    2.00    0.34
   3 -10  -8    1.12    0.31
  -3 -10   8    1.04    0.26
  -3 -10  -8    1.99    0.46
   3 -10   8    1.83    0.30
  -3 -10   9    2.77    0.37
   3 -10  -9    3.05    0.54
  -3 -10   9    3.05    0.49
  -3 -10  -9    3.47    0.43
   3 -10   9    3.07    0.34
   3 -10 -10   29.97    2.15
  -3 -10  10   29.72    2.10
   3 -10  10   29.84    2.09
   3  10 -10   28.78    2.13
  -3 -10 -10   28.34    2.17
  -3 -11   0    2.31    0.26
  -3 -11   0    1.94    0.25
   3 -11   0    1.63    0.26
  -3 -11   1   25.52    2.08
  -3  11  -1   31.01    2.20
   3 -11  -1   27.77    2.07
   3 -11  -1   30.84    2.08
  -3 -11   1   30.83    2.07
  -3  11  -1   29.33    2.08
  -3 -11   1   32.87    2.07
  -3  11   1   26.66    2.15
  -3 -11  -1   32.02    2.08
   3  11  -1   25.72    2.10
  -3 -11  -1   30.17    2.08
   3 -11   1   24.91    2.08
  -3  11   1   28.03    2.09
  -3 -11   2   10.22    0.77
  -3 -11   2   10.54    0.77
   3 -11  -2    9.23    0.80
  -3  11  -2   10.28    0.94
  -3  11  -2   10.65    0.79
   3 -11  -2    9.88    0.78
  -3 -11   2    9.62    0.82
  -3  11   2   10.68    0.81
   3 -11   2   10.41    0.78
   3 -11   2   10.10    0.78
  -3 -11  -2   10.52    0.79
  -3 -11   3   81.90    5.70
   3 -11  -3   77.86    5.70
  -3  11  -3   78.52    5.77
  -3  11  -3   78.51    5.70
  -3 -11   3   78.63    5.68
   3 -11  -3   83.69    5.70
  -3 -11  -3   84.76    5.70
  -3  11   3   82.28    5.71
   3 -11   3   78.46    5.68
   3 -11   3   80.69    5.69
  -3 -11   4    0.92    0.17
   3 -11  -4    0.82    0.20
   3 -11  -4    0.56    0.22
  -3 -11   4    1.00    0.19
  -3  11  -4    1.05    0.48
  -3  11  -4    0.96    0.19
  -3  11   4    0.67    0.25
   3 -11   4    1.02    0.20
  -3 -11  -4    0.77    0.24
   3  11  -4    1.29    0.26
   3 -11   4    1.14    0.23
  -3 -11   5   24.52    1.96
  -3 -11   5   29.66    1.95
   3 -11  -5   24.56    1.99
  -3  11  -5   31.64    2.13
   3 -11  -5   26.62    1.99
   3 -11   5   27.39    1.97
   3 -11   5   25.16    1.95
   3 -11  -6   14.58    1.15
  -3 -11   6   13.57    1.08
  -3  11  -6   13.08    1.29
  -3 -11   6   14.72    1.10
   3 -11   6   14.88    1.07
   3 -11   6   13.30    1.16
  -3  11   6   14.55    1.16
   3 -11  -7   40.31    3.22
   3 -11  -7   46.50    3.28
  -3  11  -7   46.20    3.34
   3 -11   7   47.52    3.27
  -3  11   7   45.41    3.28
  -3 -11  -7   44.25    3.27
  -3 -11   8    0.41    0.24
  -3 -11   8    0.29    0.18
   3 -11  -8    0.24    0.26
   3 -11   8    0.15    0.15
  -3 -11   9   22.41    1.55
   3 -11  -9   20.12    1.58
  -3 -11   9   18.79    1.51
  -3 -11  -9   23.81    1.53
   3 -11   9   18.90    1.50
  -3 -12   0    4.60    0.37
   3 -12   0    3.17    0.35
  -3 -12   0    3.15    0.43
  -3  12   0    3.78    0.38
   3  12   0    4.39    0.91
  -3 -12   0    3.94    0.36
   3 -12   0    3.95    0.36
  -3  12  -1    0.75    0.17
  -3 -12   1    0.76    0.23
  -3 -12   1    0.65    0.14
  -3  12  -1    0.72    0.45
   3 -12  -1    0.57    0.17
   3 -12  -1    0.58    0.15
   3 -12  -1    0.75    0.15
  -3 -12   1    0.82    0.20
   3  12  -1    0.47    0.26
  -3  12   1    0.45    0.16
   3 -12   1    0.85    0.16
   3 -12   1    0.79    0.15
  -3 -12  -1    0.91    0.23
  -3 -12  -1    0.66    0.15
  -3 -12  -1    0.51    0.15
  -3 -12   2   74.01    5.27
   3 -12  -2   75.00    5.27
   3 -12  -2   72.23    5.26
  -3 -12   2   75.40    5.26
  -3  12  -2   72.53    5.27
  -3  12  -2   74.99    5.37
   3 -12  -2   73.52    5.27
  -3 -12  -2   76.15    5.27
   3 -12   2   74.90    5.27
   3 -12   2   75.11    5.26
  -3 -12  -2   75.56    5.27
  -3  12   2   74.09    5.28
  -3 -12   3    6.65    0.58
  -3  12  -3    6.56    0.56
  -3 -12   3    6.11    0.53
   3 -12  -3    6.62    0.55
   3 -12  -3    6.10    0.57
  -3  12  -3    4.67    1.02
   3 -12   3    6.90    0.53
  -3  12   3    6.49    0.60
  -3 -12  -3    6.94    0.56
   3 -12   3    5.90    0.54
   3 -12  -4    4.21    0.47
   3 -12  -4    3.40    0.40
  -3 -12   4    3.16    0.41
   3 -12   4    3.76    0.37
  -3  12   4    3.26    0.51
  -3  12  -5    6.00    0.94
   3 -12  -5    5.07    0.54
  -3 -12   5    4.78    0.50
  -3 -12   5    4.99    0.48
  -3 -12  -5    5.26    0.55
   3 -12   5    4.62    0.56
   3 -12   5    4.96    0.45
  -3  12   5    3.45    0.62
   3 -12  -6   34.28    2.92
  -3 -12   6   41.65    2.91
  -3  12  -6   44.23    3.12
  -3 -12  -6   36.25    2.93
  -3  12   6   41.59    2.98
   3 -12   6   40.78    2.95
   3 -12   6   44.63    2.90
   3 -12  -7    1.84    0.34
  -3 -12   7    2.57    0.40
  -3 -12   7    2.08    0.44
   3 -12   7    2.95    0.36
  -3 -12  -7    2.99    0.43
  -3 -12   8    0.28    0.19
   3 -12  -8    0.24    0.26
  -3 -12  -8    0.56    0.21
   3 -12   8    0.27    0.15
   3 -12  -9    2.43    0.53
  -3 -12   9    2.66    0.45
  -3 -12  -9    3.78    0.39
   3 -12   9    3.26    0.33
   3 -13   0    0.60    0.15
  -3 -13   0    0.52    0.14
  -3 -13   0    0.31    0.20
   3 -13   0    0.42    0.13
  -3  13   0    0.38    0.16
   3 -13  -1   32.72    2.55
   3 -13  -1   37.09    2.55
  -3  13  -1   34.84    2.56
  -3 -13   1   38.92    2.55
  -3 -13   1   36.08    2.54
  -3 -13   1   32.61    2.56
   3 -13   1   34.33    2.55
  -3 -13  -1   37.15    2.55
  -3 -13  -1   38.38    2.55
  -3  13   1   35.43    2.56
  -3 -13  -1   31.89    2.57
   3 -13   1   37.78    2.54
   3 -13  -2    5.25    0.47
  -3 -13   2    5.27    0.51
   3 -13  -2    5.08    0.52
  -3  13  -2    5.37    0.49
  -3  13  -2    7.80    1.69
   3 -13  -2    5.26    0.47
  -3 -13   2    5.47    0.46
   3 -13   2    5.36    0.47
  -3  13   2    5.19    0.52
  -3 -13  -2    5.09    0.47
  -3 -13  -2    4.78    0.47
   3 -13   2    5.70    0.47
  -3  13  -3   40.94    3.03
   3 -13  -3   39.00    3.03
  -3  13  -3   45.80    3.34
   3 -13  -3   43.28    3.03
  -3 -13   3   42.39    3.02
  -3 -13   3   42.44    3.03
   3 -13  -3   41.75    3.04
   3 -13   3   42.10    3.02
  -3 -13  -3   45.66    3.04
  -3 -13  -3   43.40    3.03
  -3  13   3   39.56    3.05
   3 -13   3   43.63    3.03
   3  13  -3   41.46    3.06
   3 -13  -4    0.32    0.19
   3 -13  -4    0.15    0.26
   3 -13  -4    0.57    0.19
  -3 -13   4    0.34    0.17
  -3 -13   4    0.18    0.18
  -3 -13  -4    0.31    0.21
   3 -13   4    0.11    0.19
   3 -13   4    0.43    0.15
   3  13  -4    0.56    0.25
  -3  13   4    0.02    0.26
   3 -13  -5   31.79    2.22
  -3 -13   5   30.56    2.22
  -3 -13   5   29.95    2.21
   3 -13   5   30.10    2.22
  -3  13   5   28.15    2.22
   3 -13   5   29.72    2.20
  -3 -13  -5   30.47    2.23
  -3 -13   6    8.27    0.73
   3 -13  -6    8.76    0.79
  -3 -13   6    8.17    0.72
  -3 -13  -6    6.91    0.73
   3 -13   6    9.50    0.69
  -3 -13   7   23.10    1.64
  -3 -13   7   20.41    1.64
   3 -13  -7   22.97    1.69
   3 -13   7   23.30    1.64
  -3 -13  -7   22.18    1.65
  -3 -13   8    0.31    0.19
  -3 -13   8   -0.43    0.28
   3 -13  -8    0.09    0.24
  -3 -13  -8    0.43    0.24
   3 -13   8    0.10    0.15
   3 -14  -1    1.64    0.26
  -3 -14   1    1.76    0.37
   3 -14  -1    1.45    0.28
  -3  14  -1    2.17    0.30
  -3 -14  -1    1.57    0.27
  -3 -14  -1    1.20    0.27
   3 -14   1    2.08    0.26
  -3  14   1    1.60    0.34
  -3 -14  -1    1.30    0.27
  -3  14  -2   75.73    5.51
  -3 -14   2   78.83    5.49
  -3 -14   2   75.22    5.50
   3 -14  -2   75.74    5.49
   3 -14  -2   77.13    5.50
   3 -14   2   79.59    5.50
   3 -14   2   77.21    5.49
  -3 -14  -2   79.81    5.50
  -3  14   2   78.52    5.52
  -3 -14  -2   79.43    5.50
  -3 -14   3    6.21    0.52
   3 -14  -3    6.08    0.60
   3 -14  -3    5.86    0.53
  -3 -14  -3    5.74    0.53
  -3 -14  -3    6.12    0.55
   3 -14   3    6.05    0.51
   3 -14   3    5.28    0.59
   3 -14  -4    5.11    0.50
   3 -14  -4    4.60    0.52
   3 -14   4    5.11    0.51
   3 -14   4    4.40    0.43
   3 -14  -5    2.85    0.44
   3 -14  -5    2.80    0.47
  -3 -14   5    2.94    0.43
  -3 -14   5    3.44    0.39
   3 -14   5    2.44    0.34
   3 -14   5    2.26    0.39
  -3 -14  -5    2.28    0.43
  -3 -14  -5    2.57    0.43
   3 -14  -6   49.94    3.50
   3 -14  -6   41.38    3.48
  -3 -14   6   50.09    3.48
   3  14   6   55.27    3.50
  -3 -14   6   48.97    3.47
  -3 -14  -6   45.75    3.47
   3 -14   6   52.12    3.47
  -3 -14  -6   45.95    3.49
   3 -14  -7    2.39    0.49
  -3 -14   7    1.84    0.27
  -3 -14   7    1.77    0.35
   3 -14  -7    2.22    0.41
   3 -14   7    2.49    0.32
  -3 -14  -7    2.09    0.38
  -3 -14  -7    2.37    0.40
  -3 -15   0    0.15    0.21
  -3 -15   0    0.40    0.23
  -3  15   0    0.15    0.20
   3 -15   0   -0.12    0.13
   3 -15   0    0.09    0.13
  -3 -15   1   30.14    2.06
   3 -15  -1   27.42    2.05
   3 -15  -1   28.16    2.06
  -3  15  -1   29.04    2.08
  -3 -15   1   27.02    2.08
  -3 -15  -1   29.50    2.05
   3 -15   1   28.28    2.05
  -3 -15  -1   29.48    2.05
  -3  15   1   28.78    2.09
  -3 -15  -1   28.92    2.16
   3 -15   1   27.70    2.06
   3 -15  -2    5.35    0.47
  -3 -15   2    4.88    0.49
  -3  15  -2    4.85    0.50
  -3 -15   2    5.15    0.44
   3 -15  -2    5.28    0.46
  -3 -15  -2    4.73    0.46
   3 -15   2    5.41    0.44
  -3  15   2    4.31    0.58
  -3 -15  -2    4.52    0.45
   3 -15   2    4.34    0.46
   3  15  -2    5.51    0.52
  -3 -15   3   34.78    2.61
   3 -15  -3   37.73    2.61
   3 -15  -3   37.49    2.62
  -3 -15   3   37.90    2.60
   3  15  -3   33.95    2.63
   3 -15   3   37.52    2.60
  -3 -15  -3   38.14    2.61
  -3 -15  -3   36.18    2.61
   3 -15   3   33.93    2.60
  -3 -15   4    3.24    0.43
  -3 -15   4    3.58    0.36
   3 -15  -4    2.19    0.39
   3 -15  -4    1.84    0.42
  -3 -15  -4    2.28    0.39
  -3 -15  -4    3.32    0.37
   3 -15   4    2.79    0.33
  -3 -15   5   18.93    1.23
   3 -15  -5   16.29    1.27
   3 -15  -5   17.82    1.25
  -3 -15   5   14.97    1.25
   3  15   5   16.45    1.26
   3 -15   5   16.01    1.22
  -3 -15  -5   14.64    1.24
   3 -15  -6    5.31    0.55
  -3 -15   6    5.81    0.60
   3 -15  -6    6.10    0.62
   3  15   6    5.48    0.63
  -3 -15  -6    4.97    0.55
  -3 -15  -6    6.00    0.59
   3 -15   6    5.68    0.51
   3 -16  -1    1.60    0.28
  -3 -16   1    1.11    0.25
   3 -16  -1    0.93    0.18
   3 -16   1    1.39    0.25
   3 -16   1    1.47    0.28
  -3  16   1    0.63    0.34
  -3 -16  -1    1.53    0.26
   3  16  -1    2.17    0.39
  -3 -16   2   35.85    2.73
   3 -16  -2   38.20    2.71
   3 -16  -2   39.22    2.72
  -3 -16   2   38.62    2.70
   3 -16   2   37.09    2.71
  -3 -16  -2   40.20    2.71
   3  16  -2   38.27    2.75
   3 -16   2   36.64    2.71
  -3 -16   3    3.80    0.40
   3 -16  -3    4.78    0.46
  -3 -16   3    3.57    0.50
   3 -16  -3    4.10    0.43
  -3  16  -3    4.01    0.55
  -3 -16  -3    4.61    0.41
   3 -16   3    3.17    0.52
   3 -16   3    4.80    0.41
   3  16  -3    4.01    0.49
   3 -16  -4    3.54    0.48
   3 -16  -4    3.73    0.44
   3  16   4    3.73    0.49
  -3 -16   4    3.67    0.41
  -3 -16   4    3.83    0.53
  -3 -16  -4    4.10    0.42
   3 -16   4    4.23    0.39
   3  16   5    2.17    0.38
   3 -16  -5    1.18    0.37
   3 -16  -5    2.41    0.45
  -3 -16   5    1.85    0.31
  -3 -16   5    1.42    0.27
  -3 -16  -5    1.28    0.23
   3 -16   5    1.66    0.32
  -3 -17   0    0.36    0.13
   3 -17   0    0.39    0.15
   3  17   0    0.94    0.26
   3 -17   0    0.00    0.18
   3 -17  -1   12.42    0.97
   3  17   1   11.24    1.06
  -3 -17   1   12.73    1.06
  -3 -17   1   14.00    0.95
   3 -17  -1   12.67    0.96
  -3 -17  -1   13.64    0.95
   3 -17   1   12.50    0.96
   3  17  -1   12.22    1.02
   3 -17   1   13.64    1.16
  -3 -17   2    2.59    0.35
   3 -17  -2    3.32    0.41
   3  17   2    2.74    0.50
  -3 -17   2    2.66    0.32
  -3  17  -2    2.33    0.41
   3  17  -2    2.93    0.45
  -3 -17  -2    2.16    0.32
   3 -17   2    2.88    0.32
   3 -17  -3   19.81    1.60
   3 -17  -3   23.45    1.63
  -3 -17   3   18.94    1.67
  -3 -17   3   21.23    1.83
   3  17   3   25.38    1.67
   3 -17   3   22.06    1.60
  -3 -17  -3   23.98    1.60
   3  17  -3   21.26    1.64
   4   0  -1  224.06   15.41
  -4   0   1  215.25   15.41
  -4   0   2   19.48    1.54
   4   0  -2   21.33    1.56
  -4   0   2   21.84    1.49
   4   0   2   20.20    1.52
   4   0  -2   22.85    1.49
  -4   0  -2   19.61    1.49
   4   0  -3    0.88    0.19
  -4   0   3    0.74    0.17
  -4   0  -3    1.30    0.24
  -4   0   3    1.33    0.32
   4   0  -3    1.55    0.34
  -4   0  -4  159.63   10.88
   4   0   4  161.23   10.89
  -4   0   4  145.85   10.85
   4   0  -4  165.05   10.90
  -4   0  -4  139.23   10.84
  -4   0  -5    0.59    0.27
   4   0  -5    0.38    0.34
  -4   0  -5    1.06    0.82
  -4   0   6   12.16    0.92
  -4   0   7   53.02    4.10
  -4   0   7   58.09    4.11
  -4   0  -7   60.60    4.16
   4   0   7   55.19    4.10
   4   0  -7   54.56    4.12
   4   0  -7   66.65    4.18
  -4   0   8   88.69    6.85
   4   0   8   87.25    6.84
   4   0  -8  108.79    6.90
   4   0  -8   94.06    6.86
  -4   0  -8  105.98    6.90
  -4   0   8   98.32    6.85
   4   0  -9   20.15    1.65
  -4   0   9   21.64    1.53
   4   0   9   21.62    1.52
  -4   0   9   20.73    1.54
  -4   0  -9   20.34    1.64
   4   0  -9   20.73    1.56
   4   0 -10    9.83    0.81
  -4   0  10    9.36    0.75
  -4   0 -10    7.96    0.91
   4   0  10   10.01    0.74
  -4   0  10    8.94    0.81
   4   0  11   -0.08    0.15
  -4   0  11    0.02    0.15
   4   0 -11   -0.29    0.26
  -4   0 -11   -0.06    0.36
   4   0 -12   15.49    1.24
  -4   0 -12   15.64    1.24
   4   1   0   37.84    2.58
   4  -1   0   35.87    2.58
  -4   1   0   37.57    2.59
   4  -1   0   35.76    2.59
  -4  -1   0   36.43    2.58
  -4   1  -1   80.44    5.11
   4  -1  -1   71.43    5.11
  -4  -1   1   69.34    5.11
   4  -1   1   72.43    5.11
   4   1  -1   69.92    5.11
   4  -1  -2   44.33    3.15
  -4  -1   2   43.14    3.12
  -4   1  -2   41.79    3.12
   4  -1  -2   44.28    3.12
  -4  -1   2   45.79    3.17
   4   1  -2   47.73    3.13
   4   1  -2   42.82    3.15
  -4  -1  -2   47.41    3.14
  -4   1   2   43.23    3.12
   4  -1   2   41.60    3.12
  -4  -1   3  103.59    8.00
  -4   1  -3  122.44    8.01
   4  -1  -3  117.00    8.04
   4  -1  -3  116.28    8.01
   4   1  -3  120.79    8.05
  -4   1   3  101.73    7.99
   4  -1   3  113.67    8.02
  -4   1  -4   89.98    6.37
   4  -1  -4   83.95    6.40
  -4  -1   4   91.80    6.40
   4  -1  -4   82.86    6.36
   4  -1   4   87.05    6.38
  -4   1   4   90.70    6.34
  -4  -1  -4   89.25    6.34
   4   1  -4   95.76    6.41
  -4  -1  -4   96.89    6.37
  -4  -1   5  106.02    7.63
  -4   1  -5  110.39    7.66
   4  -1  -5   92.78    7.58
   4  -1  -5  103.48    7.63
  -4  -1  -5  109.27    7.60
   4  -1   5   99.75    7.60
   4   1  -5  112.43    7.59
  -4  -1  -5  115.03    7.55
  -4   1   5  111.84    7.56
   4   1  -5  107.99    7.64
   4  -1  -6    6.45    0.81
  -4   1  -6    5.08    0.83
  -4  -1   6    4.66    0.47
   4  -1  -6    4.99    0.53
  -4  -1   6    5.51    0.47
   4   1   6    4.41    0.45
  -4  -1  -6    5.71    0.74
   4   1  -6    6.59    1.33
  -4   1   6    5.17    0.49
  -4   1   6    4.62    0.49
   4   1  -6    6.46    0.85
  -4   1  -7   36.46    2.27
  -4  -1   7   26.64    2.17
  -4  -1   7   31.83    2.18
   4   1   7   27.61    2.17
   4  -1  -7   31.59    2.20
  -4  -1  -7   35.22    2.26
   4   1  -7   28.70    2.19
   4  -1   7   27.36    2.16
  -4   1   7   32.05    2.18
  -4   1   7   26.48    2.17
   4  -1  -8    0.26    0.21
   4  -1  -8    0.05    0.40
  -4   1  -8    0.19    0.38
  -4  -1   8    0.20    0.14
  -4  -1   8    0.30    0.21
   4   1   8    0.11    0.13
  -4  -1  -8    0.53    0.33
   4   1  -8    0.01    0.19
   4  -1   8    0.36    0.13
  -4   1   8    0.27    0.20
  -4   1   8    0.21    0.15
   4   1  -8   -0.51    0.43
   4  -1  -9   13.37    1.04
  -4  -1   9   11.98    1.02
  -4  -1   9   15.10    1.00
  -4   1   9   15.03    1.00
  -4   1   9   12.32    1.03
   4   1  -9   12.74    1.03
  -4  -1  -9   10.89    1.12
  -4  -1  10    2.54    0.33
   4   1  10    1.79    0.30
  -4  -1  10    1.52    0.31
   4  -1 -10    2.25    0.44
  -4   1 -10    1.33    0.43
  -4   1  10    2.38    0.33
  -4   1  10    1.33    0.31
   4  -1  10    2.02    0.31
   4   1 -10    2.06    0.31
  -4  -1 -10    1.20    0.39
   4  -1 -11   12.36    1.00
  -4  -1  11   11.13    0.92
  -4   1 -11   14.29    1.06
  -4  -1  11   11.74    1.06
   4  -1  11   11.12    0.91
  -4   1  11   10.79    0.92
  -4  -1 -11   13.75    1.04
   4   1 -11   11.99    1.00
  -4  -1  12   11.73    0.86
   4  -1 -12   10.70    1.02
  -4  -1 -12   11.09    0.97
   4   1 -12   10.34    0.98
   4  -2   0  237.58   16.67
  -4   2   0  211.53   16.67
  -4  -2   0  239.79   16.67
   4   2   0  261.41   16.67
   4  -2  -1   23.62    1.79
  -4   2  -1   28.27    1.80
  -4  -2   1   24.93    1.79
  -4  -2   1   23.98    1.80
  -4   2   1   22.87    1.79
   4   2  -1   23.80    1.78
   4  -2   1   27.08    1.80
  -4  -2  -1   27.66    1.79
  -4  -2   2    5.55    0.43
   4  -2  -2    5.47    0.41
   4   2  -2    5.54    0.42
  -4  -2  -2    5.00    0.41
  -4   2   2    5.30    0.41
  -4  -2   3   79.69    5.75
   4  -2  -3   80.26    5.74
  -4   2  -3   84.27    5.72
  -4  -2  -3   82.14    5.70
  -4   2   3   77.76    5.70
   4   2  -3   81.12    5.75
  -4  -2  -3   81.25    5.73
  -4   2  -4  260.37   16.77
   4  -2  -4  235.28   16.78
  -4  -2   4  247.02   16.79
   4  -2  -4  243.83   16.75
  -4  -2  -4  224.11   16.73
  -4   2   4  233.49   16.73
   4   2  -4  242.88   16.79
   4   2  -4  218.50   16.74
  -4  -2  -4  249.05   16.76
   4  -2   4  226.06   16.76
   4  -2  -5    8.80    1.10
  -4   2  -5    9.49    1.10
   4  -2  -5   10.23    0.86
  -4  -2   5    7.27    1.11
  -4  -2  -5   10.62    0.94
   4  -2   5    8.75    1.07
   4   2  -5    7.38    1.16
  -4  -2   6    2.59    0.34
  -4  -2   6    3.11    1.04
   4  -2  -6    3.44    1.00
  -4   2   6    2.02    0.36
  -4   2  -7   14.74    1.22
  -4  -2   7   13.04    1.05
   4  -2  -7   16.56    1.22
   4   2   7   13.70    1.04
   4  -2  -7   13.37    1.08
  -4  -2   7   12.39    1.03
  -4   2   7   14.45    1.06
  -4  -2  -7   15.20    1.16
   4   2  -7   14.92    1.23
  -4   2   7   13.36    1.05
   4  -2   7   12.30    1.02
  -4  -2   8   69.20    4.94
   4   2   8   72.85    4.94
  -4   2  -8   71.96    5.01
   4  -2  -8   76.35    5.00
   4  -2  -8   68.32    4.96
  -4  -2   8   67.21    4.94
  -4   2   8   68.18    4.95
  -4   2   8   69.98    4.95
   4  -2   8   69.27    4.94
   4   2  -8   67.88    4.99
  -4  -2  -8   70.10    4.99
   4   2  -8   66.80    4.95
   4  -2  -9    3.34    0.69
   4   2   9    4.86    0.41
  -4   2  -9    3.20    0.56
   4  -2  -9    4.02    0.50
  -4  -2   9    4.26    0.42
  -4   2   9    4.81    0.43
  -4   2   9    3.83    0.49
  -4  -2  -9    3.39    0.63
   4  -2   9    4.71    0.41
   4   2  -9    3.02    0.51
   4  -2 -10    2.19    0.46
  -4  -2  10    1.55    0.32
  -4   2  10    2.96    0.52
   4   2 -10    2.35    0.47
   4  -2 -11    5.67    0.60
  -4   2 -11    5.71    0.67
  -4  -2  11    4.97    0.70
  -4  -2  11    4.73    0.49
   4   2 -11    5.43    0.62
   4  -2  11    5.42    0.48
   4  -2 -12   27.10    2.07
  -4  -2  12   26.81    1.90
  -4   2 -12   22.51    1.96
   4   2 -12   27.56    2.03
  -4  -2 -12   27.77    1.95
  -4   3   0   26.15    1.94
  -4   3   0   29.22    1.95
   4  -3   0   26.67    1.95
  -4  -3   0   27.33    1.95
   4  -3  -1  186.39   14.02
  -4  -3   1  198.11   14.03
  -4   3  -1  217.82   14.04
   4  -3  -1  201.01   14.04
   4   3  -1  202.76   14.03
   4  -3   1  206.10   14.03
   4   3  -1  196.36   14.02
  -4  -3  -1  213.83   14.03
  -4   3   1  175.74   14.02
  -4   3  -2    1.92    0.25
   4  -3  -2    1.62    0.19
  -4  -3   2    1.84    0.25
   4   3  -2    1.76    0.26
  -4   3   2    1.73    0.18
  -4  -3  -2    1.74    0.22
   4  -3   2    1.85    0.23
   4  -3  -3   68.45    4.89
   4  -3  -3   72.30    4.92
  -4   3  -3   72.69    4.91
  -4  -3   3   68.87    4.92
  -4  -3  -3   70.71    4.90
  -4   3   3   63.30    4.89
   4  -3   3   71.22    4.90
  -4  -3  -3   61.94    4.87
   4   3  -3   73.19    4.93
  -4  -3   4   44.10    3.37
   4  -3  -4   50.16    3.30
  -4   3  -4   47.83    3.34
   4  -3  -4   44.12    3.35
   4   3  -4   43.94    3.38
  -4  -3  -4   41.90    3.33
  -4   3   4   49.09    3.28
  -4  -3  -4   47.40    3.27
   4   3  -4   46.42    3.30
   4  -3   4   44.83    3.33
  -4  -3   5   32.09    2.73
  -4   3  -5   38.02    2.54
   4  -3  -5   34.51    2.58
  -4   3  -5   33.53    2.71
   4  -3  -5   33.76    2.73
  -4  -3  -5   29.39    2.62
   4   3  -5   31.03    2.77
  -4  -3  -5   40.48    2.53
   4  -3   5   31.19    2.73
  -4   3   5   37.59    2.53
   4   3  -5   39.65    2.56
  -4  -3   6   11.67    0.96
   4  -3  -6   12.33    1.03
   4  -3  -6   13.80    1.15
  -4  -3   6   12.58    1.02
  -4  -3   6   16.53    1.98
   4  -3  -6   11.27    1.86
   4  -3   6   11.03    0.95
   4   3  -6   17.40    2.14
  -4  -3  -6   15.20    1.14
  -4  -3  -6   13.80    1.13
  -4   3   6   11.03    1.01
  -4  -3   7   44.34    3.15
   4   3   7   38.23    3.15
   4  -3  -7   42.06    3.18
  -4  -3  -7   49.57    3.21
  -4   3   7   47.32    3.16
  -4   3   7   37.10    3.16
   4   3  -7   51.41    3.24
  -4  -3   8    5.82    0.58
  -4   3  -8    5.85    0.81
   4  -3  -8    6.12    0.60
  -4  -3   8    6.52    0.54
   4   3   8    7.25    0.55
   4  -3  -8    5.33    0.78
   4   3  -8    4.92    0.85
  -4   3   8    6.05    0.59
  -4  -3  -8    4.93    0.69
   4  -3   8    6.95    0.53
  -4   3   8    7.01    0.56
   4  -3  -9   54.51    3.82
  -4   3  -9   50.44    3.87
  -4  -3   9   58.36    3.81
   4   3   9   58.87    3.80
   4  -3  -9   46.24    3.83
  -4  -3   9   52.06    3.81
  -4   3   9   56.84    3.81
  -4  -3  -9   46.97    3.84
   4   3  -9   52.93    3.82
   4  -3   9   60.41    3.80
  -4   3   9   50.36    3.81
   4  -3 -10    4.76    0.62
  -4  -3  10    6.06    0.53
   4   3 -10    5.25    0.63
  -4   3  10    4.28    0.93
  -4   3  10    6.06    0.53
  -4  -3 -10    4.81    0.68
   4  -3  10    6.44    0.51
   4  -3 -11    6.67    0.64
  -4  -3  11    5.92    0.72
  -4  -3  11    5.26    0.53
   4  -3  11    6.33    0.52
   4   3 -11    6.14    0.65
  -4  -3  12    3.61    0.39
   4  -3 -12    2.53    0.41
   4   3 -12    3.06    0.67
   4  -3  12    4.14    0.37
  -4  -3 -12    2.67    0.55
   4  -4   0   84.34    6.19
  -4  -4   0   89.36    6.19
   4   4   0   88.58    6.19
  -4   4   0   86.69    6.18
  -4   4   0   89.86    6.19
   4  -4  -1    0.84    0.18
   4  -4  -1    0.71    0.13
  -4  -4   1    0.63    0.14
  -4   4  -1    0.62    0.18
  -4   4  -1    0.47    0.12
  -4   4   1    0.69    0.12
   4   4  -1    0.65    0.17
  -4  -4  -1    0.62    0.15
   4  -4   1    0.69    0.15
   4   4  -1    0.68    0.11
   4  -4  -2   18.88    1.37
  -4  -4   2   19.31    1.36
   4  -4   2   15.87    1.37
   4   4  -2   20.29    1.37
  -4  -4  -2   20.04    1.35
  -4   4   2   16.48    1.32
  -4  -4   3  127.04    8.91
  -4   4  -3  127.80    8.91
   4  -4  -3  119.61    8.88
   4   4  -3  127.13    8.92
  -4  -4  -3  123.00    8.90
  -4   4   3  124.56    8.88
  -4  -4  -3  131.65    8.87
   4  -4   3  128.58    8.90
  -4   4  -4  366.16   24.42
   4  -4  -4  355.32   24.43
   4  -4  -4  338.34   24.38
  -4  -4   4  353.55   24.44
   4   4  -4  326.75   24.38
  -4  -4  -4  324.44   24.36
   4  -4   4  357.20   24.41
   4   4  -4  362.61   24.44
  -4  -4  -4  364.59   24.41
  -4   4   4  327.88   24.37
  -4  -4  -4  340.82   24.52
  -4  -4   5   33.80    3.10
  -4  -4   5   35.92    2.73
   4  -4  -5   33.80    3.01
  -4   4  -5   34.74    3.04
  -4   4  -5   37.28    2.86
   4   4   5   43.34    2.75
   4  -4  -5   39.86    2.88
   4   4  -5   43.69    2.83
  -4  -4  -5   40.59    2.79
  -4   4   5   35.04    2.76
   4   4  -5   32.50    3.07
  -4   4   5   41.30    2.78
   4  -4   5   42.84    2.73
  -4   4  -6   10.83    1.16
  -4  -4   6   11.16    0.93
   4   4   6   13.11    0.94
   4  -4  -6   11.93    1.00
   4   4  -6   11.74    1.16
  -4  -4  -6   11.08    1.07
  -4   4   6   13.10    0.96
   4  -4  -7    1.64    0.31
   4  -4  -7    2.20    0.42
  -4  -4   7    2.09    0.40
  -4   4   7    2.19    0.41
  -4   4   7    1.85    0.38
  -4  -4  -7    2.08    0.40
   4   4  -7    2.50    0.49
  -4   4  -8   55.80    3.82
   4  -4  -8   52.66    3.76
  -4  -4   8   51.97    3.73
   4  -4  -8   53.87    3.78
  -4  -4   8   52.57    3.74
  -4  -4  -8   49.87    3.77
  -4   4   8   54.33    3.75
   4  -4   8   52.98    3.73
   4   4  -8   48.31    3.80
  -4   4   8   52.54    3.74
  -4   4  -9    0.39    0.44
   4  -4  -9    0.74    0.35
  -4  -4   9    0.58    0.19
   4  -4  -9    0.63    0.24
   4   4  -9    0.09    0.25
   4  -4   9    0.54    0.17
  -4  -4  -9    0.77    0.33
  -4   4   9    0.97    0.27
  -4  -4  10    5.37    0.68
   4  -4 -10    3.35    0.54
   4  -4  10    3.69    0.59
  -4   4  10    4.98    0.64
  -4  -4  11    9.27    0.77
  -4  -4  11    8.49    0.94
   4  -4 -11    9.58    0.85
  -4   4 -11   10.46    0.91
   4  -4  11   10.55    0.76
   4   4 -11   10.16    0.84
  -4  -4  12   29.63    2.17
   4  -4 -12   31.03    2.22
  -4  -4 -12   30.24    2.22
   4   4 -12   30.44    2.20
  -4   5   0  150.06   10.26
   4  -5   0  138.95   10.25
   4   5   0  148.57   10.25
  -4   5   0  142.08   10.23
  -4  -5   0  147.94   10.24
  -4  -5   1  220.03   14.98
   4  -5  -1  214.12   14.99
   4   5  -1  199.53   14.95
   4   5  -1  230.27   14.99
  -4  -5  -1  225.84   14.98
  -4   5   1  194.47   14.96
   4  -5   1  207.35   14.98
  -4   5  -2    6.45    0.56
   4  -5  -2    5.49    0.58
  -4  -5   2    5.93    0.55
   4  -5  -2    6.67    0.48
  -4   5   2    6.59    0.48
   4  -5   2    5.79    0.54
   4   5  -2    5.38    0.56
  -4  -5  -2    5.73    0.53
   4  -5  -3   44.21    3.50
   4  -5  -3   49.75    3.56
  -4   5  -3   51.34    3.55
  -4  -5   3   50.90    3.55
   4  -5   3   49.75    3.54
   4   5  -3   49.55    3.55
  -4   5   3   48.02    3.50
  -4  -5  -3   50.93    3.53
   4  -5  -4   14.99    1.39
  -4  -5   4   15.43    1.63
   4  -5  -4   15.31    1.23
   4  -5  -4   15.46    1.43
  -4   5  -4   16.08    1.38
   4  -5   4   17.75    1.39
  -4  -5  -4   17.27    1.35
   4   5  -4   16.15    1.24
  -4   5   4   15.56    1.20
  -4  -5  -4   16.89    1.23
   4   5  -4   17.40    1.49
  -4  -5  -4   15.05    1.36
   4  -5  -5   24.00    1.81
   4  -5  -5   26.88    1.79
   4  -5  -5   23.92    2.23
  -4  -5   5   25.85    1.75
  -4   5  -5   24.91    1.87
  -4  -5   5   23.17    2.51
   4   5  -5   20.97    2.40
  -4   5   5   20.91    1.78
  -4  -5   6   12.10    1.08
  -4  -5   6   15.14    1.09
  -4   5   6   16.05    1.12
   4  -5   6   13.23    1.06
  -4  -5   7   38.21    2.69
   4  -5  -7   34.74    2.79
  -4   5  -7   42.67    2.80
  -4   5   7   37.60    2.71
   4  -5   7   31.49    2.66
   4   5  -7   39.64    2.79
   4  -5  -8    6.86    0.78
  -4   5  -8    6.51    0.89
  -4  -5   8    6.81    0.65
  -4  -5   8    7.71    0.62
   4  -5  -8    7.47    0.69
  -4   5   8    7.30    0.69
  -4  -5  -8    6.52    0.75
   4  -5   8    7.99    0.61
   4  -5  -9   35.05    2.48
  -4   5  -9   32.52    2.55
  -4  -5   9   38.55    2.46
  -4  -5   9   33.19    2.46
  -4   5   9   33.36    2.47
  -4  -5  -9   31.91    2.50
  -4  -5  10    7.58    0.58
   4  -5 -10    6.03    0.64
  -4  -5  10    5.89    0.65
  -4   5 -10    6.04    0.78
   4   5 -10    6.45    0.65
  -4   5  10    6.14    0.76
  -4  -5 -10    5.88    0.69
   4  -5  10    7.70    0.56
  -4  -5  11    2.33    0.35
  -4   5 -11    3.12    0.57
  -4  -5  11    3.23    0.61
   4  -5 -11    3.22    0.50
   4  -5  11    2.97    0.32
   4   5 -11    2.21    0.34
  -4  -6   0  405.23   27.50
   4   6   0  411.19   27.51
  -4   6   0  412.80   27.52
  -4   6   0  350.65   27.48
   4  -6   0  378.01   27.51
  -4   6  -1   86.30    5.82
  -4   6  -1   85.08    5.78
  -4  -6   1   79.61    5.80
   4  -6  -1   79.94    5.81
  -4  -6  -1   81.66    5.80
   4   6  -1   82.37    5.81
  -4   6   1   82.07    5.77
   4  -6   1   77.95    5.80
  -4  -6   2    2.61    0.43
   4  -6  -2    1.70    0.25
   4   6  -2    2.92    0.47
   4  -6   2    2.54    0.40
  -4   6   2    1.79    0.25
  -4  -6  -2    2.39    0.38
   4  -6  -3   12.94    1.13
   4  -6  -3   11.51    0.97
   4  -6   3   13.74    1.09
   4   6  -3   13.68    1.12
  -4   6   3   12.95    0.97
  -4  -6  -3   12.58    1.07
  -4  -6   4  119.62    8.68
   4  -6  -4  116.78    8.83
  -4  -6   4  133.84    8.85
   4  -6  -4  131.39    8.72
   4  -6  -4  118.24    8.73
  -4   6  -4  122.18    8.81
  -4   6  -4  124.16    8.72
   4  -6   4  121.05    8.69
   4   6  -4  124.65    8.83
   4   6  -4  122.17    8.74
  -4   6   4  122.03    8.71
  -4   6   4  126.01    8.72
  -4  -6   5    0.16    0.16
  -4   6  -5    0.40    0.39
   4  -6  -5    0.32    0.31
  -4  -6  -5    0.37    0.67
   4  -6   5    0.74    0.14
   4  -6   5   -0.05    0.32
  -4   6   5    0.54    0.26
   4  -6  -6    5.71    0.62
  -4  -6   6    5.31    0.56
   4   6  -6    8.57    1.42
   4  -6   6    5.36    0.50
   4  -6  -7   18.38    1.56
  -4  -6   7   21.40    1.53
  -4   6  -7   21.12    1.67
  -4  -6   7   19.12    1.51
   4  -6  -7   19.19    1.58
  -4  -6  -7   22.71    1.59
   4  -6   7   18.80    1.50
  -4   6   7   22.92    1.56
   4  -6  -8   62.60    4.70
  -4   6  -8   66.73    4.75
  -4  -6   8   64.66    4.67
   4  -6  -8   65.55    4.70
  -4  -6   8   64.34    4.67
  -4   6   8   67.65    4.68
  -4  -6  -8   69.03    4.72
   4  -6   8   66.14    4.67
   4  -6  -9    7.53    0.82
  -4  -6   9    7.49    0.71
  -4  -6   9    8.78    0.69
  -4   6  -9    6.57    0.90
   4  -6  -9    9.50    0.77
  -4   6   9    7.89    0.77
  -4  -6  -9    7.44    0.78
   4  -6   9    9.25    0.67
   4  -6 -10    0.14    0.24
  -4   6 -10    1.17    0.41
  -4  -6  10    0.67    0.17
  -4  -6  10    0.33    0.26
   4  -6  10    0.57    0.16
   4   6 -10    0.55    0.24
  -4   6 -11    1.36    0.43
   4  -6 -11    1.14    0.27
  -4  -6  11    0.85    0.19
   4   6 -11    1.16    0.27
   4  -6  11    1.01    0.17
  -4  -6 -11    1.39    0.29
   4   7   0   24.19    1.80
   4  -7   0   23.73    1.80
  -4  -7   0   23.85    1.78
  -4   7   0   23.77    1.72
  -4   7  -1  121.57    8.35
  -4  -7   1  117.75    8.33
  -4   7  -1  117.11    8.30
   4  -7  -1  115.08    8.34
   4   7  -1  119.45    8.34
   4  -7   1  116.06    8.34
  -4  -7  -1  117.94    8.33
  -4   7   1  116.99    8.29
  -4   7  -2   10.99    0.94
   4  -7  -2    9.01    0.95
  -4  -7   2   11.79    0.98
  -4   7   2   11.10    0.81
   4   7  -2   10.26    0.96
  -4  -7  -2    9.90    0.92
   4  -7   2    9.66    0.93
   4  -7  -3  207.63   14.58
  -4  -7   3  200.85   14.48
   4  -7  -3  195.54   14.50
   4  -7  -3  197.73   14.50
  -4   7  -3  218.07   14.50
  -4   7  -3  211.66   14.57
  -4   7  -3  202.67   14.48
   4   7  -3  200.96   14.65
   4  -7   3  212.79   14.59
   4  -7   3  186.12   14.47
  -4   7   3  227.50   14.54
  -4   7   3  212.64   14.49
  -4   7  -4   62.91    4.59
   4  -7  -4   55.96    4.83
  -4  -7   4   62.79    4.57
  -4  -7   4   65.12    4.59
   4  -7  -4   68.90    4.60
  -4   7  -4   65.84    4.62
   4  -7  -4   66.41    4.59
   4  -7   4   66.40    4.57
   4   7  -4   61.18    4.65
  -4   7   4   66.69    4.62
  -4  -7  -4   68.20    4.62
   4  -7   4   64.57    4.58
   4  -7  -5   63.28    4.73
  -4  -7   5   70.22    4.72
  -4  -7   5   66.56    4.69
  -4   7  -5   66.14    4.77
   4  -7  -5   71.58    4.73
  -4  -7  -5   60.61    4.74
  -4   7   5   59.61    4.72
   4  -7   5   72.88    4.70
  -4   7  -6    0.62    0.44
  -4  -7   6    0.76    0.21
  -4  -7   6    0.12    0.27
   4  -7   6    0.03    0.38
   4  -7   6    0.37    0.16
  -4  -7  -6    0.37    0.32
   4  -7  -7   13.70    1.12
   4  -7  -7   11.15    1.08
  -4  -7   7   13.78    1.04
  -4   7   7   14.99    1.08
   4  -7   7   11.86    1.00
  -4  -7   8    0.35    0.19
  -4  -7   8    0.20    0.23
   4  -7  -8    0.87    0.28
  -4   7  -8   -0.16    0.44
   4  -7  -8    0.51    0.34
  -4  -7  -8    0.36    0.30
  -4   7   8    0.62    0.27
   4  -7   8    0.43    0.17
  -4  -7   9   17.69    1.17
   4  -7  -9   16.12    1.41
  -4  -7   9   13.06    1.14
  -4   7  -9   13.37    1.29
  -4  -7  -9   14.62    1.19
  -4  -7  10    0.69    0.27
  -4   7 -10    0.52    0.42
   4  -7 -10    0.24    0.24
  -4  -7 -10    0.44    0.26
   4  -7  10    0.53    0.15
   4   7 -10    0.11    0.24
  -4  -7  11    6.49    0.59
   4  -7 -11    6.96    0.76
   4  -7  11    7.04    0.57
   4   7 -11    8.33    0.67
  -4  -8   0  183.18   12.22
   4  -8   0  172.68   12.23
  -4   8   0  167.28   12.17
  -4   8   0  152.92   12.15
  -4   8   0  172.52   12.16
   4   8   0  189.20   12.24
  -4   8  -1   37.23    2.54
   4  -8  -1   34.53    2.52
  -4   8  -1   34.95    2.52
  -4  -8   1   33.75    2.51
  -4  -8   1   37.08    2.64
  -4  -8   1   34.90    2.52
  -4   8  -1   35.16    2.66
  -4   8  -1   36.83    2.57
   4  -8  -1   32.03    2.64
   4   8  -1   34.87    2.68
  -4   8   1   37.32    2.54
  -4   8   1   38.85    2.55
  -4   8   1   35.40    2.52
   4  -8   1   32.50    2.63
   4  -8   1   34.98    2.51
   4  -8  -2    2.94    0.34
   4  -8  -2    2.26    0.59
  -4  -8   2    2.89    0.30
  -4   8  -2    2.84    0.31
   4  -8  -2    2.68    0.31
  -4   8  -2    3.45    0.40
  -4   8  -2    2.67    0.64
  -4  -8   2    3.09    0.29
  -4   8  -2    2.27    0.41
  -4   8   2    3.02    0.43
   4  -8   2    2.97    0.28
  -4   8   2    3.33    0.34
   4  -8   2    3.62    0.35
  -4  -8  -2    3.36    0.36
   4  -8  -3    9.25    0.77
  -4   8  -3    9.53    0.73
   4  -8  -3    7.36    1.30
  -4   8  -3   10.40    0.80
  -4  -8   3    9.08    0.72
   4  -8  -3   10.65    0.76
  -4  -8  -3    9.94    0.83
  -4   8   3    9.70    0.77
  -4   8   3   10.49    0.84
   4  -8   3    8.68    0.71
   4  -8   3    9.78    0.74
  -4   8   3    8.13    0.82
  -4  -8   4   64.13    4.80
   4  -8  -4   72.71    4.84
  -4   8  -4   66.88    4.82
  -4   8  -4   68.95    4.86
   4  -8  -4   67.32    4.83
  -4   8   4   63.29    4.84
  -4  -8  -4   75.74    4.85
   4   8  -4   64.00    4.84
   4  -8   4   68.97    4.82
   4  -8   4   65.23    4.81
  -4   8   4   71.51    4.84
   4  -8  -5    0.73    0.31
  -4  -8   5    0.79    0.22
   4  -8  -5    0.54    0.22
   4  -8   5    0.79    0.29
  -4   8   5    0.93    0.27
  -4  -8  -5    0.65    0.32
  -4   8   5    1.16    0.34
  -4  -8   6   15.90    1.31
   4  -8  -6   15.45    1.39
   4  -8  -6   18.28    1.35
  -4   8   6   20.65    1.37
   4  -8   6   16.68    1.28
   4  -8  -7   17.82    1.48
  -4  -8   7   18.35    1.43
  -4   8  -7   20.16    1.59
   4  -8  -7   17.84    1.49
  -4  -8   7   18.13    1.42
   4  -8   7   16.96    1.40
  -4  -8  -7   20.55    1.50
  -4   8   7   22.05    1.47
  -4  -8   8   70.10    4.95
   4  -8  -8   71.43    4.98
   4  -8  -8   68.18    4.97
  -4   8  -8   69.08    5.01
  -4  -8   8   65.19    4.94
   4  -8   8   68.38    4.94
  -4   8   8   70.71    4.96
  -4  -8  -8   75.07    4.99
   4  -8  -9    9.77    0.85
  -4   8  -9    9.11    0.98
  -4  -8   9   10.46    0.78
  -4  -8   9    8.77    0.80
  -4  -8  -9    9.02    0.84
   4  -8   9   11.16    0.76
  -4   8   9    8.47    0.92
   4  -8 -10    0.25    0.25
  -4  -8  10    0.79    0.27
   4   8 -10    0.29    0.23
  -4  -8  11    0.78    0.31
   4  -8 -11    1.29    0.28
  -4  -8 -11    0.99    0.27
   4   8 -11    0.78    0.26
   4  -8  11    0.62    0.17
  -4  -9   0   10.34    0.77
  -4   9   0   10.04    0.95
   4  -9   0    8.51    0.73
  -4   9   0    9.92    0.84
   4  -9   0    9.52    0.73
  -4   9   0    9.47    0.74
   4  -9  -1   50.76    3.83
  -4   9  -1   52.10    3.88
  -4  -9   1   53.90    3.83
  -4   9  -1   52.74    3.83
  -4  -9   1   52.25    3.83
  -4   9  -1   55.71    3.86
  -4   9   1   60.92    3.89
   4  -9   1   54.86    3.84
  -4   9   1   55.22    3.88
  -4  -9  -1   54.36    3.84
   4  -9   1   53.47    3.83
  -4   9   1   53.64    3.84
  -4  -9   2    9.45    0.80
  -4  -9   2    9.86    0.74
  -4   9  -2    9.83    0.80
  -4   9  -2   10.42    0.76
  -4  -9   2   10.06    0.74
   4  -9  -2    9.69    0.75
  -4   9   2   10.32    0.76
   4  -9   2    9.34    0.74
  -4  -9  -2   10.08    0.77
  -4   9   2   10.06    0.85
   4  -9   2    9.61    0.85
  -4   9  -3  108.91    7.27
  -4  -9   3  102.17    7.23
   4  -9  -3  111.03    7.25
  -4   9  -3  105.52    7.24
   4  -9  -3   93.64    7.24
  -4   9   3   87.67    7.26
   4  -9   3   93.98    7.23
   4  -9   3  102.19    7.23
  -4  -9  -3  112.15    7.25
  -4   9   3  109.44    7.25
  -4   9  -4   53.05    4.06
  -4  -9   4   58.49    4.02
   4  -9  -4   56.97    3.98
   4  -9  -4   55.46    3.97
  -4   9   4   57.81    3.99
  -4  -9  -4   56.95    3.99
   4   9  -4   57.07    3.99
   4  -9   4   53.65    3.95
  -4   9   4   52.70    4.00
  -4  -9   5   49.58    3.55
   4  -9  -5   45.36    3.59
  -4  -9   5   52.94    3.58
   4  -9  -5   55.71    3.60
  -4   9  -5   48.04    3.66
   4  -9   5   51.81    3.56
  -4   9   5   44.90    3.60
  -4  -9  -5   52.21    3.61
   4  -9  -6    0.79    0.27
  -4   9  -6    0.65    0.45
  -4  -9   6    0.84    0.24
   4  -9  -6    0.60    0.32
  -4   9   6    0.68    0.28
  -4  -9  -6    0.20    0.33
   4  -9   6    0.86    0.37
  -4   9  -7    9.88    1.00
   4  -9  -7    8.76    0.82
   4  -9  -7    6.52    0.80
  -4  -9   7    7.98    0.74
  -4   9   7    9.48    0.80
  -4  -9   8    0.31    0.23
  -4   9  -8    0.70    0.45
   4  -9  -8    0.87    0.32
  -4  -9   8    0.43    0.21
   4  -9   8    0.68    0.18
  -4   9   8    0.59    0.36
  -4  -9  -8    0.69    0.31
  -4  -9   9   17.97    1.25
  -4  -9   9   15.47    1.26
   4  -9  -9   17.42    1.30
  -4  -9  -9   14.68    1.27
   4  -9   9   18.52    1.24
  -4  -9  10   -0.33    0.30
  -4  -9  10    0.10    0.17
   4  -9 -10    0.51    0.24
  -4  -9 -10    0.38    0.22
   4  -9  10    0.32    0.14
  -4  10   0   89.09    6.72
   4 -10   0   91.67    6.72
  -4  10   0  100.88    6.75
   4 -10   0   93.27    6.72
  -4 -10   0   98.23    6.72
  -4 -10   0   98.91    6.72
   4 -10  -1    7.43    0.60
  -4 -10   1    7.73    0.60
  -4  10  -1    7.44    0.61
   4 -10  -1    7.03    0.60
  -4 -10   1    8.05    0.60
  -4  10  -1    7.61    0.67
   4 -10  -1    8.08    0.61
  -4 -10  -1    7.76    0.61
  -4  10   1    8.12    0.71
   4 -10   1    7.65    0.60
   4 -10   1    7.87    0.60
  -4  10   1    7.61    0.61
  -4  10  -2    5.01    0.51
   4 -10  -2    3.93    0.41
  -4 -10   2    4.90    0.40
  -4 -10   2    5.02    0.41
   4 -10  -2    4.84    0.43
  -4  10  -2    4.77    0.42
  -4  10   2    4.56    0.44
   4 -10   2    3.78    0.39
  -4  10   2    4.57    0.59
  -4 -10  -2    5.11    0.43
   4 -10   2    5.22    0.43
  -4  10  -3   32.41    2.30
   4 -10  -3   32.73    2.30
  -4 -10   3   29.92    2.30
  -4 -10   3   30.87    2.28
  -4  10  -3   31.43    2.40
  -4 -10  -3   34.47    2.32
   4 -10   3   33.02    2.29
   4 -10   3   30.87    2.29
  -4  10  -4  110.07    7.42
   4 -10  -4  112.64    7.42
  -4 -10   4  102.24    7.39
   4 -10  -4  106.36    7.42
  -4 -10   4  101.85    7.41
  -4  10  -4  109.03    7.47
  -4  10   4  104.53    7.43
   4 -10   4   99.57    7.40
   4 -10   4  106.52    7.40
  -4  10   4   96.94    7.46
  -4 -10   5   10.41    0.79
  -4  10  -5    8.39    1.07
   4 -10  -5   10.98    0.84
  -4 -10   5   11.24    0.83
   4 -10   5   11.48    0.78
  -4  10   5    8.62    0.87
  -4 -10  -5    9.53    0.88
   4 -10   5    8.98    0.86
  -4 -10   6    4.84    0.53
  -4 -10   6    5.62    0.52
  -4  10  -6    6.60    0.86
  -4 -10  -6    4.00    0.63
  -4  10   6    4.66    0.61
   4 -10   6    4.83    0.46
   4 -10   6    5.18    0.87
  -4  10  -7    2.80    0.51
   4 -10  -7    2.37    0.54
  -4 -10   7    2.70    0.44
  -4 -10   7    1.45    0.29
   4 -10   7    1.80    0.34
  -4  10   7    2.28    0.35
  -4 -10   8   30.05    2.12
   4 -10  -8   28.74    2.15
  -4 -10   8   28.27    2.11
  -4  10  -8   28.48    2.20
   4 -10   8   29.98    2.10
  -4  10   8   28.18    2.14
  -4 -10  -8   30.39    2.14
   4 -10  -9    1.88    0.31
  -4  10  -9    1.78    0.53
  -4 -10   9    1.65    0.28
  -4 -10   9    1.91    0.34
  -4 -10  -9    2.18    0.39
   4 -10   9    2.36    0.29
  -4 -10  10    1.67    0.34
   4 -10  10    1.69    0.27
  -4 -11   0   95.46    6.65
   4 -11   0   94.56    6.65
  -4  11   0   93.99    6.65
   4 -11   0   92.57    6.66
  -4 -11   0   94.60    6.65
  -4  11  -1  114.11    8.06
   4 -11  -1  110.87    8.05
  -4 -11   1  116.92    8.05
  -4 -11   1  107.85    8.06
  -4 -11   1  119.05    8.05
  -4  11  -1  122.14    8.09
   4 -11  -1  116.56    8.05
   4 -11  -1  111.55    8.06
   4 -11   1  109.69    8.06
  -4 -11  -1  118.33    8.05
   4  11  -1  106.17    8.09
  -4 -11  -1  118.88    8.06
  -4  11   1  114.38    8.06
   4 -11   1  113.60    8.05
  -4 -11   2    5.25    0.45
  -4 -11   2    5.36    0.44
   4 -11  -2    4.94    0.47
   4 -11  -2    4.81    0.45
  -4 -11   2    5.95    0.53
  -4  11  -2    5.00    0.46
  -4  11  -2    5.22    0.62
  -4  11   2    5.51    0.48
   4 -11   2    5.61    0.45
  -4 -11  -2    5.19    0.47
   4 -11   2    5.50    0.47
  -4 -11   3   13.04    1.16
  -4  11  -3   15.84    1.15
  -4 -11   3   16.93    1.13
   4 -11  -3   13.30    1.14
  -4  11  -3   16.96    1.27
   4 -11  -3   15.75    1.15
  -4 -11  -3   17.55    1.16
  -4  11   3   13.24    1.30
   4 -11   3   16.42    1.14
   4 -11   3   14.15    1.13
  -4  11   3   15.19    1.17
   4 -11  -4    4.04    0.44
   4 -11  -4    4.08    0.50
  -4 -11   4    4.53    0.47
  -4  11  -4    4.17    0.44
  -4 -11   4    4.22    0.41
  -4  11  -4    3.71    0.77
  -4  11   4    3.95    0.51
   4 -11   4    3.67    0.46
   4  11  -4    5.03    0.52
   4 -11   4    4.48    0.39
  -4 -11  -4    4.47    0.49
  -4 -11   5   34.90    2.49
  -4 -11   5   37.70    2.52
  -4  11  -5   33.39    2.64
   4 -11  -5   37.37    2.54
  -4  11   5   28.61    2.53
  -4 -11  -5   35.52    2.55
   4 -11   5   32.46    2.51
   4 -11   5   38.03    2.50
  -4  11  -6    8.31    0.91
  -4 -11   6    7.75    0.62
  -4 -11   6    6.12    0.63
   4 -11  -6    6.73    0.72
   4 -11  -6    6.14    0.67
  -4 -11  -6    6.37    0.70
   4 -11   6    5.96    0.57
  -4  11   6    6.67    0.69
   4 -11  -7   28.59    2.31
  -4 -11   7   29.41    2.27
  -4  11   7   35.92    2.30
  -4 -11   8    8.98    0.77
  -4  11  -8    7.04    1.00
   4 -11  -8    9.98    0.82
  -4 -11   8    9.58    0.76
  -4 -11  -8    9.43    0.78
   4 -11   8    9.14    0.72
  -4 -11   9   24.73    1.94
   4 -11  -9   27.79    1.96
  -4 -11   9   28.18    1.93
  -4 -11  -9   24.12    1.93
   4 -11   9   28.88    1.92
   4 -12   0   62.81    4.59
  -4 -12   0   67.29    4.59
  -4  12   0   65.89    4.66
  -4 -12   0   66.20    4.59
  -4  12   0   62.63    4.60
   4 -12   0   64.43    4.60
   4 -12  -1    1.53    0.25
  -4  12  -1    1.93    0.39
  -4 -12   1    1.96    0.26
  -4  12  -1    2.00    0.27
  -4 -12   1    1.82    0.27
  -4 -12   1    2.00    0.25
   4 -12  -1    1.50    0.26
  -4 -12  -1    1.55    0.26
   4 -12   1    2.00    0.26
  -4  12   1    1.87    0.29
   4 -12   1    1.67    0.27
  -4  12   1    1.67    0.42
  -4 -12  -1    1.62    0.27
   4 -12  -2   18.29    1.37
   4 -12  -2   19.56    1.35
  -4 -12   2   16.54    1.37
  -4  12  -2   17.66    1.36
   4 -12  -2   16.13    1.35
  -4 -12   2   19.88    1.35
  -4  12  -2   19.74    1.49
  -4  12   2   18.00    1.37
  -4 -12  -2   20.02    1.36
   4 -12   2   16.73    1.34
   4 -12   2   19.10    1.35
  -4 -12  -2   19.52    1.35
  -4 -12   3   20.50    1.45
  -4  12  -3   19.19    1.65
  -4  12  -3   19.72    1.47
   4 -12  -3   20.15    1.46
   4 -12  -3   18.65    1.48
   4 -12  -3   18.93    1.46
  -4 -12   3   19.07    1.48
   4 -12   3   19.92    1.45
  -4 -12  -3   21.95    1.48
  -4  12   3   20.25    1.49
   4  12  -3   19.68    1.50
   4 -12   3   20.57    1.46
  -4  12  -4   59.47    4.18
  -4 -12   4   61.75    4.16
  -4  12  -4   59.33    4.28
  -4 -12   4   57.74    4.17
   4 -12  -4   62.44    4.19
   4 -12  -4   52.61    4.18
  -4  12   4   55.20    4.19
   4 -12   4   58.09    4.16
   4 -12   4   61.05    4.16
   4  12  -4   58.53    4.20
  -4 -12   5    6.25    0.58
  -4  12  -5    6.76    0.96
  -4 -12   5    7.15    0.64
   4 -12  -5    6.62    0.63
   4 -12   5    6.78    0.70
  -4 -12  -5    5.94    0.65
   4 -12   5    7.25    0.56
   4 -12  -6    1.16    0.48
  -4  12  -6    1.15    0.56
   4 -12   6    0.89    0.23
  -4 -12  -6    1.21    0.32
   4 -12  -7    1.09    0.30
  -4 -12   7    1.64    0.28
  -4  12  -7    1.92    0.60
  -4 -12   7    2.28    0.39
  -4 -12  -7    2.21    0.41
   4 -12   7    1.63    0.32
  -4 -12   8   11.95    0.91
  -4 -12   8   10.46    0.92
   4 -12  -8   13.10    0.96
   4 -12   8   11.31    0.88
  -4 -12  -8   11.47    0.91
   4 -12  -9    0.29    0.23
  -4 -12   9    0.72    0.20
  -4 -12   9    0.32    0.29
  -4 -12  -9    0.63    0.20
   4 -12   9    0.83    0.15
  -4  13   0   32.81    2.36
   4 -13   0   33.69    2.35
  -4  13   0   28.90    2.66
  -4 -13   0   33.48    2.34
  -4 -13   0   34.21    2.35
   4 -13   0   32.68    2.34
   4 -13  -1   57.78    4.18
  -4 -13   1   61.16    4.18
  -4 -13   1   56.27    4.19
  -4 -13   1   58.04    4.17
  -4  13  -1   59.78    4.35
   4 -13  -1   58.37    4.17
  -4  13  -1   58.26    4.19
  -4 -13  -1   60.24    4.18
   4 -13   1   59.60    4.18
  -4  13   1   59.03    4.19
  -4 -13  -1   61.48    4.18
   4 -13   1   57.13    4.17
  -4 -13   2    0.20    0.20
   4 -13  -2    0.31    0.14
  -4  13  -2    0.25    0.15
   4 -13  -2    0.25    0.14
  -4 -13   2    0.33    0.14
  -4  13  -2   -0.03    0.62
   4 -13   2    0.33    0.15
  -4 -13  -2    0.15    0.15
   4 -13   2    0.35    0.14
  -4  13   2    0.15    0.18
  -4 -13  -2    0.18    0.15
  -4 -13   3   41.69    2.82
  -4  13  -3   38.83    2.84
   4 -13  -3   41.19    2.83
   4 -13  -3   36.82    2.84
  -4  13  -3   42.86    3.05
  -4 -13   3   35.55    2.84
  -4 -13  -3   41.33    2.83
   4  13  -3   36.36    2.86
  -4  13   3   38.56    2.86
   4 -13   3   38.58    2.83
   4 -13   3   40.21    2.82
  -4 -13  -3   43.15    2.84
  -4  13  -4    6.62    1.14
  -4 -13   4    7.78    0.63
   4 -13  -4    7.59    0.66
   4 -13  -4    8.00    0.66
  -4 -13   4    6.78    0.67
  -4 -13  -4    7.86    0.67
   4 -13   4    8.23    0.62
   4 -13   4    6.48    0.68
   4  13  -4    8.19    0.72
  -4 -13   5   17.82    1.31
   4 -13  -5   18.84    1.33
  -4  13  -5   17.10    1.57
  -4  13   5   14.58    1.33
  -4 -13   6    3.11    0.43
  -4 -13   6    2.47    0.45
   4  13   6    2.57    0.50
   4 -13  -6    2.67    0.49
  -4  13   6    3.51    0.57
   4 -13   6    3.04    0.37
  -4 -13  -6    2.74    0.45
  -4 -13   7   23.24    1.56
   4 -13  -7   19.73    1.58
  -4 -13   7   19.38    1.55
  -4 -13  -7   23.59    1.56
   4 -13   7   19.39    1.54
   4 -13  -8    4.47    0.47
  -4 -13   8    3.17    0.45
   4 -13  -8    3.34    0.50
   4 -13   8    4.08    0.39
  -4 -13  -8    3.98    0.44
  -4  14   0  100.82    7.10
   4 -14   0   97.08    7.08
  -4 -14   0  104.29    7.09
   4 -14   0   99.22    7.09
  -4 -14   0  100.93    7.08
   4 -14  -1   11.32    0.87
  -4 -14   1   12.08    0.93
  -4  14  -1   11.76    0.89
  -4 -14   1   11.48    0.87
   4 -14  -1   11.72    0.88
   4 -14   1   10.93    0.87
  -4 -14  -1   10.90    0.87
  -4 -14  -1   11.22    0.88
  -4  14   1   11.51    0.91
   4 -14   1   12.07    0.88
  -4  14  -2    5.11    0.48
  -4 -14   2    3.92    0.52
  -4  14   2    5.52    0.53
  -4  14  -3    7.34    0.73
   4 -14  -3    7.91    0.73
  -4 -14   3    8.81    0.67
  -4 -14   3    7.63    0.72
  -4 -14  -3    9.21    0.70
   4 -14   3    8.12    0.68
  -4 -14  -3    8.79    0.69
  -4 -14   4   39.73    3.15
   4 -14  -4   46.09    3.16
  -4 -14   4   44.24    3.13
   4 -14  -4   46.90    3.15
  -4 -14  -4   48.10    3.15
   4 -14   4   37.75    3.14
   4  14  -4   42.75    3.16
   4 -14   4   44.41    3.13
  -4 -14  -4   45.54    3.16
   4 -14  -5    0.38    0.23
   4 -14  -5    0.62    0.24
  -4 -14   5    0.81    0.25
  -4  14   5    0.42    0.31
  -4 -14  -5    0.30    0.23
  -4 -14  -5    0.17    0.21
   4 -14   5    0.70    0.17
   4 -14  -6    4.62    0.60
  -4 -14   6    4.67    0.57
   4 -14  -6    5.49    0.59
  -4 -14  -6    7.06    0.60
   4 -14   6    5.69    0.52
  -4 -14   7    3.79    0.46
   4 -14  -7    3.76    0.46
   4 -14  -7    2.86    0.55
  -4 -14  -7    3.12    0.46
  -4 -14  -7    4.12    0.42
   4 -14   7    2.82    0.37
  -4 -15   0    3.33    0.34
   4 -15   0    3.14    0.35
   4 -15   0    3.38    0.34
  -4  15   0    3.48    0.42
  -4 -15   1   16.33    1.29
  -4 -15   1   16.79    1.23
   4 -15  -1   16.02    1.23
   4 -15  -1   16.53    1.24
  -4  15  -1   17.11    1.27
  -4 -15  -1   16.99    1.23
  -4  15   1   16.16    1.27
   4  15  -1   18.89    1.32
   4 -15   1   16.89    1.23
   4 -15   1   15.84    1.23
  -4 -15  -1   17.23    1.23
  -4 -15   2    7.55    0.69
   4 -15  -2    7.91    0.63
  -4  15  -2    6.95    0.65
  -4 -15   2    7.94    0.62
   4 -15  -2    7.90    0.63
  -4  15   2    7.27    0.70
   4  15  -2    8.07    0.68
  -4 -15  -2    7.80    0.62
   4 -15   2    7.83    0.61
   4 -15   2    6.89    0.64
  -4 -15  -2    8.00    0.63
  -4 -15   3   49.50    3.97
   4 -15  -3   58.64    3.96
   4 -15  -3   56.20    3.97
  -4 -15   3   59.09    3.96
  -4 -15  -3   60.84    3.97
   4 -15   3   51.22    3.96
   4 -15   3   54.27    3.96
   4  15  -3   51.79    3.98
  -4 -15  -3   60.71    3.97
  -4 -15   4   24.60    1.88
  -4 -15   4   26.60    1.85
   4 -15  -4   25.90    1.88
   4 -15  -4   25.61    1.86
   4  15  -4   26.15    1.90
  -4 -15  -4   27.34    1.86
  -4 -15  -4   23.84    1.86
  -4  15   4   22.66    1.92
   4 -15   4   27.19    1.85
   4 -15  -5   26.41    1.87
   4 -15  -5   21.75    1.87
   4  15   5   28.22    1.88
  -4 -15   5   25.40    1.84
  -4 -15   5   26.16    1.87
  -4 -15  -5   26.80    1.86
   4 -15   5   26.77    1.84
  -4 -15  -5   21.36    1.84
   4 -15  -6    2.99    0.51
  -4 -15   6    2.23    0.43
   4 -15  -6    2.94    0.48
  -4 -15   6    2.04    0.43
   4 -15   6    2.82    0.35
  -4 -15  -6    2.25    0.41
  -4  16   0   65.24    4.52
   4  16   0   68.89    4.57
  -4 -16   0   63.98    4.49
   4 -16   0   59.76    4.49
   4 -16   0   59.66    4.48
   4 -16  -1   13.20    0.98
   4  16   1   13.43    1.11
  -4  16  -1   12.67    1.02
   4 -16  -1   12.54    0.98
  -4 -16   1   13.12    0.97
   4  16  -1   15.41    1.06
   4 -16   1   13.05    0.97
   4 -16   1   11.66    0.98
  -4 -16  -1   13.12    0.97
  -4  16   1   12.44    1.08
   4 -16  -2    4.78    0.44
  -4 -16   2    4.09    0.59
   4 -16  -2    5.22    0.45
   4 -16   2    4.14    0.41
  -4 -16  -2    5.26    0.43
   4 -16   2    4.88    0.51
  -4  16   2    4.05    0.63
   4  16  -2    3.89    0.49
   4 -16  -3    2.59    0.38
  -4 -16   3    2.70    0.51
   4  16   3    3.33    0.47
  -4 -16   3    3.17    0.34
   4 -16  -3    3.17    0.39
   4 -16   3    2.80    0.33
  -4 -16  -3    2.82    0.35
   4  16  -3    2.52    0.43
  -4 -16  -3    2.42    0.40
  -4 -16   4   16.89    1.44
  -4 -16   4   19.19    1.37
   4 -16  -4   19.28    1.40
   4 -16  -4   16.93    1.38
   4 -16   4   19.04    1.37
  -4 -16  -4   20.71    1.38
  -4 -16   5    0.00    0.24
  -4 -16   5    0.38    0.38
   4 -16  -5    0.10    0.21
   4 -16  -5    0.42    0.22
   4  16   5   -0.27    0.21
  -4 -16  -5   -0.12    0.25
   4 -16   5    0.33    0.16
  -4 -16  -5   -0.08    0.18
   4  17   0   12.75    0.96
  -4 -17   0   10.67    0.85
   4 -17   0   11.06    0.86
   4  17   1   16.69    1.40
  -4 -17   1   18.41    1.30
   4 -17  -1   18.29    1.31
   4 -17  -1   16.02    1.35
   4 -17   1   17.62    1.30
  -4 -17  -1   18.41    1.30
   4  17  -1   19.39    1.36
   4 -17  -2    0.50    0.21
   4  17   2    0.19    0.25
   4 -17  -2    0.71    0.18
  -4 -17   2    0.78    0.16
  -4  17  -2    0.29    0.22
  -4 -17  -2    0.48    0.15
   4  17   3   18.93    1.28
  -4 -17   3   16.48    1.43
  -4 -17   3   15.13    1.28
   4 -17  -3   15.59    1.23
   4 -17  -3   17.79    1.23
   4  17  -3   15.39    1.25
   4 -17   3   14.98    1.24
   5   0   0    0.19    0.06
  -5   0   0    0.15    0.06
  -5   0   1    1.71    0.16
   5   0  -1    1.66    0.16
   5   0  -1    1.68    0.32
   5   0  -2  678.29   43.63
   5   0  -2  564.76   43.58
   5   0   3  198.90   15.28
  -5   0  -3  218.77   15.20
   5   0  -3  237.75   15.24
  -5   0   3  209.45   15.19
  -5   0   4    2.48    0.31
   5   0  -4    3.14    0.40
  -5   0  -5   24.69    2.07
   5   0  -5   22.23    1.99
  -5   0  -5   28.77    1.95
  -5   0   5   30.29    1.95
   5   0  -6   62.58    5.07
   5   0   6   74.53    4.87
  -5   0  -6   64.07    4.94
  -5   0   6   68.60    4.87
   5   0  -6   70.83    4.97
  -5   0   6   70.86    4.88
   5   0  -6   70.15    4.88
   5   0  -7   46.17    3.48
   5   0  -7   46.66    3.40
  -5   0  -7   41.09    3.45
  -5   0   7   52.92    3.40
   5   0   7   54.62    3.39
  -5   0   7   44.74    3.39
   5   0  -8    4.96    1.11
  -5   0   8    6.05    0.49
  -5   0   8    5.11    0.52
   5   0  -8    5.44    0.53
  -5   0  -8    4.42    0.72
   5   0   8    5.72    0.46
   5   0  -9   10.62    0.79
  -5   0   9    8.93    0.74
   5   0   9    8.34    0.72
  -5   0  10   21.99    1.42
   5   0  10   17.02    1.37
   5   0 -10   19.87    1.42
  -5   0  10   16.37    1.38
   5   0  11    1.41    0.20
   5   0 -11    1.19    0.29
  -5   0  11    1.37    0.22
  -5   0 -11    1.46    0.40
   5   0 -12    0.03    0.28
  -5   0 -12   -0.45    0.36
  -5   1   0    0.08    0.06
   5   1   0    0.10    0.05
  -5  -1   0    0.00    0.05
   5  -1   0    0.03    0.06
   5  -1  -1   20.43    1.48
  -5  -1   1   18.93    1.47
  -5  -1   1   22.77    1.52
  -5  -1  -1   21.78    1.47
  -5   1   1   20.44    1.48
   5   1  -1   20.99    1.48
   5   1  -1   20.11    1.47
   5  -1  -2    4.92    0.51
  -5  -1   2    5.89    0.56
  -5  -1   2    5.72    0.42
  -5   1  -2    4.63    0.43
   5  -1  -2    5.76    0.43
   5   1  -2    6.00    0.43
  -5   1   2    5.68    0.42
  -5   1  -3  231.35   17.37
   5  -1  -3  238.10   17.40
   5  -1  -3  271.23   17.38
  -5  -1   3  265.44   17.40
  -5  -1   3  243.48   17.35
  -5   1   3  229.31   17.37
   5  -1   3  230.78   17.39
   5   1  -3  259.57   17.37
   5   1  -3  243.71   17.40
  -5  -1  -3  257.98   17.37
  -5  -1   4    0.76    0.41
  -5  -1   4    1.50    0.25
   5  -1  -4    1.53    0.32
  -5   1  -4    0.73    0.35
   5  -1  -4    0.87    0.43
   5  -1   4    1.00    0.37
   5   1  -4    0.51    0.43
  -5  -1  -4    0.86    0.33
   5   1  -4    0.96    0.28
  -5  -1  -4    1.05    0.23
  -5   1  -5  149.64   11.94
   5  -1  -5  178.21   12.03
  -5   1  -5  181.41   12.00
   5  -1   5  176.18   11.99
   5   1  -5  146.39   11.96
   5   1  -5  181.01   12.24
  -5  -1  -5  186.37   11.98
  -5  -1  -5  157.90   11.93
  -5   1  -6   27.41    2.30
  -5  -1   6   29.75    2.17
  -5  -1   6   29.35    2.16
   5  -1  -6   27.92    2.31
   5  -1  -6   26.89    2.78
   5   1   6   31.45    2.15
   5  -1  -6   31.91    2.18
  -5   1   6   31.69    2.18
   5   1  -6   27.88    2.59
   5   1  -6   33.31    2.41
   5  -1   6   30.66    2.15
  -5  -1  -6   28.91    2.26
  -5   1   6   31.84    2.18
  -5  -1   7   36.99    2.43
  -5  -1   7   31.62    2.42
  -5   1  -7   31.70    2.52
   5  -1  -7   34.77    2.44
   5  -1  -7   32.78    2.54
   5   1  -7   31.15    2.55
  -5   1   7   38.35    2.44
  -5  -1  -7   30.45    2.49
  -5   1   7   32.68    2.42
   5   1  -7   33.00    2.44
   5  -1   7   38.83    2.42
  -5  -1   8    0.58    0.21
  -5   1  -8    0.30    0.38
   5  -1  -8    0.67    0.47
  -5  -1   8    0.28    0.15
   5   1   8    0.51    0.15
   5  -1  -8    0.34    0.20
   5  -1   8    0.60    0.15
  -5  -1  -8    0.93    0.34
   5   1  -8    0.57    0.97
  -5   1   8    0.41    0.16
   5   1  -8    0.29    0.19
  -5   1   8    0.89    0.20
   5   1   9   35.75    2.68
   5  -1  -9   39.08    2.82
  -5  -1   9   39.51    2.70
   5  -1  -9   37.05    2.71
  -5  -1   9   34.40    2.69
  -5   1   9   34.76    2.69
   5   1  -9   37.30    2.71
   5  -1   9   35.29    2.68
  -5  -1  -9   43.58    2.78
  -5   1   9   39.52    2.70
  -5  -1  10   17.19    1.31
  -5   1 -10   18.16    1.44
  -5  -1  10   17.77    1.34
   5   1  10   17.43    1.29
   5  -1 -10   17.92    1.34
  -5   1  10   16.85    1.31
  -5  -1 -10   18.96    1.42
  -5   1  10   17.23    1.34
   5   1 -10   17.04    1.34
   5  -1  10   17.12    1.29
  -5  -1  11   12.55    0.91
   5  -1 -11   11.85    0.96
  -5   1 -11    9.67    1.00
  -5  -1  11   10.79    1.00
   5  -1  11   13.17    0.89
  -5  -1 -11   10.29    1.00
  -5   1  11   12.88    0.90
  -5   1  11   10.90    1.01
   5   1 -11   11.64    0.95
  -5   1 -12    2.49    0.54
  -5  -1  12    1.50    0.23
   5   1 -12    2.38    0.48
  -5   2   0    0.08    0.07
   5  -2   0    0.11    0.09
   5   2   0    0.15    0.04
  -5  -2   1   54.79    3.70
   5  -2  -1   53.99    3.70
  -5  -2   1   49.40    3.71
  -5   2  -1   53.18    3.70
   5  -2   1   51.53    3.70
  -5   2   1   51.89    3.70
   5   2  -1   52.75    3.69
  -5   2  -2   70.00    4.76
  -5  -2   2   69.18    4.79
   5  -2  -2   62.67    4.76
   5  -2  -2   69.48    4.78
  -5  -2   2   68.62    4.76
   5   2  -2   67.18    4.78
  -5   2   2   64.40    4.76
   5  -2   2   65.81    4.76
   5   2  -2   70.48    4.76
   5  -2  -3   83.24    6.43
  -5  -2   3   85.42    6.45
   5  -2  -3  100.11    6.41
  -5   2  -3   89.80    6.41
  -5  -2   3  101.55    6.40
   5   2  -3   86.90    6.41
  -5  -2  -3   95.44    6.39
   5   2  -3   84.78    6.44
  -5   2   3  100.06    6.40
   5  -2   3   83.48    6.41
  -5  -2  -3   87.35    6.42
   5  -2  -4    0.86    0.46
   5  -2  -4    0.72    0.26
  -5  -2   4    0.86    0.43
  -5   2  -4    1.40    0.35
  -5  -2  -4    0.83    0.35
  -5   2   4    0.37    0.18
   5  -2   4    0.45    0.38
   5   2  -4    0.74    0.28
   5   2  -4    0.56    0.49
  -5  -2   5   29.15    2.51
   5  -2  -5   28.07    2.44
  -5   2  -5   32.89    2.25
   5  -2  -5   26.96    2.31
  -5   2  -5   33.34    2.42
   5   2  -5   32.03    2.30
  -5   2   5   31.96    2.25
  -5  -2  -5   33.29    2.23
  -5  -2  -5   32.94    2.33
   5  -2   5   27.34    2.40
   5   2   6   72.17    4.73
   5  -2  -6   58.87    4.78
  -5   2  -6   69.29    4.81
  -5  -2   6   57.40    5.22
   5  -2  -6   68.73    4.73
  -5  -2   6   63.06    4.70
   5  -2  -6   64.04    5.03
   5   2  -6   64.02    5.04
   5   2  -6   76.43    4.89
  -5   2   6   70.24    4.73
  -5  -2  -6   65.50    4.76
  -5  -2   7   28.14    1.96
   5  -2  -7   28.15    2.10
  -5   2  -7   25.43    2.09
   5  -2  -7   28.63    1.99
  -5  -2   7   24.65    1.96
  -5  -2  -7   24.14    2.03
   5   2  -7   23.92    2.12
   5  -2   7   29.58    1.95
  -5   2   7   31.87    1.98
  -5   2   7   27.11    1.97
  -5  -2   8    0.28    0.16
   5  -2  -8    0.87    0.22
   5   2   8    0.31    0.15
   5   2  -8    0.14    0.21
   5  -2   8    0.51    0.14
  -5   2   8    0.21    0.17
   5   2  -8    1.34    0.73
   5  -2  -9   17.20    1.30
   5   2   9   15.82    1.26
   5  -2  -9   17.19    1.44
  -5  -2   9   18.41    1.30
  -5  -2   9   15.75    1.27
  -5   2  -9   19.27    1.44
  -5   2   9   15.47    1.27
  -5   2   9   17.39    1.29
  -5  -2  -9   18.73    1.38
   5   2  -9   16.43    1.30
   5  -2   9   16.67    1.26
  -5  -2  10   24.76    1.90
   5  -2 -10   24.75    1.93
  -5   2 -10   29.11    2.02
  -5  -2  10   27.41    1.92
   5   2 -10   26.87    1.94
  -5   2  10   23.94    1.90
  -5  -2 -10   28.53    1.98
   5  -2  10   25.13    1.89
  -5   2  10   25.66    1.93
   5  -2 -11    2.54    0.46
  -5   2 -11    2.61    0.57
  -5  -2  11    2.07    0.37
  -5  -2  11    2.68    0.37
  -5   2  11    2.27    0.42
  -5  -2 -11    1.78    0.40
   5   2 -11    2.33    0.34
  -5   2 -12   -0.08    0.37
   5  -2 -12    0.21    0.47
  -5  -2  12    0.19    0.17
  -5  -2 -12    0.82    0.35
   5   2 -12   -0.10    0.33
  -5   3   0    0.10    0.08
   5  -3   0    0.20    0.11
   5   3   0    0.25    0.11
  -5  -3   0    0.14    0.10
  -5   3  -1   47.36    2.97
  -5  -3   1   40.56    2.96
  -5   3  -1   42.86    2.96
   5  -3  -1   39.72    2.96
   5  -3  -1   43.54    2.97
  -5   3   1   38.14    2.95
   5  -3   1   43.27    2.96
   5   3  -1   39.28    2.94
   5  -3  -2    8.41    0.58
  -5   3  -2    7.81    0.61
  -5  -3   2    7.59    0.62
  -5  -3  -2    7.61    0.59
   5  -3   2    7.12    0.61
   5   3  -2    7.36    0.61
   5  -3  -3  144.53   10.39
   5  -3  -3  149.81   10.36
  -5  -3   3  141.76   10.39
  -5   3  -3  146.98   10.37
   5   3  -3  148.96   10.39
  -5  -3  -3  153.72   10.35
  -5  -3  -3  141.79   10.36
  -5   3   3  154.29   10.35
  -5  -3  -3  144.80   10.36
   5  -3   3  145.11   10.37
   5  -3  -4    1.90    0.50
   5  -3  -4    2.72    0.39
  -5   3  -4    1.76    0.43
  -5  -3   4    2.51    0.60
   5  -3   4    2.09    0.45
  -5  -3  -4    2.12    0.29
  -5  -3  -4    1.52    0.41
   5   3  -4    0.87    0.53
   5   3  -4    1.63    0.36
   5  -3  -5  106.54    7.41
  -5  -3   5   90.55    7.24
  -5   3  -5  113.90    7.38
   5  -3  -5  100.20    7.39
  -5  -3   5  107.12    7.40
  -5  -3  -5   99.85    7.31
  -5  -3  -5  107.46    7.25
   5   3  -5   96.26    7.29
   5   3  -5  103.05    7.43
  -5   3   5  103.70    7.26
  -5   3   5  100.64    7.27
   5   3   6   38.38    2.92
  -5  -3   6   38.79    2.91
  -5  -3   6   41.77    2.91
   5   3  -6   40.80    3.06
  -5  -3  -6   41.63    3.04
  -5  -3  -6   38.81    2.98
  -5   3   6   44.79    2.92
   5  -3   6   41.26    2.90
   5  -3  -7   48.63    3.75
   5  -3  -7   54.67    3.71
   5   3   7   58.35    3.70
  -5  -3   7   53.98    3.69
  -5  -3   7   47.65    3.69
  -5   3  -7   47.06    3.78
  -5   3   7   58.95    3.71
   5   3  -7   46.00    3.78
  -5   3   7   53.47    3.70
  -5  -3  -7   47.11    3.73
   5  -3   7   54.61    3.68
   5   3   8    2.40    0.35
  -5  -3   8    2.54    0.35
  -5   3   8    2.45    0.36
   5  -3   8    2.71    0.30
   5  -3  -9   39.01    2.68
  -5  -3   9   39.50    2.61
   5  -3  -9   33.74    2.61
  -5  -3  -9   40.99    2.66
   5   3  -9   33.84    2.61
  -5   3   9   36.44    2.60
   5  -3   9   30.15    2.58
  -5   3 -10   24.03    1.76
  -5  -3  10   22.41    1.77
  -5  -3  10   21.45    1.68
  -5  -3 -10   23.32    1.71
  -5   3  10   20.56    1.65
   5  -3  10   21.53    1.63
   5   3 -10   23.51    1.76
  -5  -3  11   20.21    1.46
   5  -3 -11   20.46    1.49
  -5  -3  11   17.82    1.50
  -5   3 -11   17.64    1.54
  -5  -3 -11   20.41    1.52
   5  -3  11   22.48    1.45
   5   3 -11   19.61    1.50
  -5  -3  12    1.02    0.20
  -5   3 -12    1.17    0.47
   5   3 -12    0.99    0.47
  -5   4   0    0.22    0.09
   5  -4   0    0.29    0.14
   5  -4  -1   32.09    2.37
  -5  -4   1   31.77    2.35
   5  -4  -1   33.04    2.34
  -5   4  -1   34.28    2.35
  -5   4  -1   36.12    2.37
   5   4  -1   32.82    2.33
   5  -4   1   30.02    2.37
  -5   4   1   30.84    2.34
   5   4  -1   34.62    2.36
  -5  -4  -1   34.37    2.35
   5  -4  -2  112.34    8.22
  -5   4  -2  121.25    8.18
  -5  -4   2  120.02    8.18
   5  -4  -2  112.91    8.17
  -5  -4  -2  119.39    8.17
   5   4  -2  116.48    8.18
   5   4  -2  116.41    8.17
  -5   4   2  106.93    8.17
   5  -4   2  118.49    8.18
   5  -4  -3   85.08    5.57
  -5   4  -3   78.93    5.59
  -5  -4   3   78.57    5.61
   5   4  -3   78.48    5.61
   5  -4   3   76.22    5.58
  -5  -4  -3   75.41    5.58
  -5  -4  -3   78.70    5.58
   5  -4  -4   19.59    1.32
  -5  -4   4   14.88    1.51
  -5   4  -4   16.09    1.41
   5   4  -4   17.83    1.32
  -5  -4  -4   15.78    1.39
   5   4  -4   16.12    1.51
   5  -4   4   16.54    1.41
  -5  -4  -4   19.33    1.30
  -5  -4   5   33.97    2.64
  -5   4  -5   30.78    2.25
   5  -4  -5   31.26    2.54
   5  -4  -5   27.80    2.17
  -5  -4   5   29.06    2.14
   5  -4   5   26.04    2.12
  -5   4   5   28.63    2.16
   5   4  -5   31.25    2.65
  -5  -4  -5   31.59    2.20
  -5   4  -6  103.51    7.23
  -5  -4   6  101.84    7.15
   5  -4  -6   94.62    7.17
   5  -4   6   95.34    7.14
  -5   4   6  112.50    7.16
  -5   4   6   89.01    7.16
   5   4  -6  103.01    7.42
  -5  -4  -6  110.89    7.20
   5  -4  -7   27.52    2.17
  -5   4  -7   28.54    2.31
  -5  -4   7   29.98    2.08
   5  -4  -7   31.58    2.29
  -5  -4   7   27.54    2.13
   5  -4   7   30.97    2.08
  -5  -4  -7   25.41    2.32
  -5  -4   8    0.37    0.22
   5  -4  -8    0.39    0.22
  -5  -4   8    0.30    0.18
   5  -4  -8    0.98    0.40
   5  -4   8    0.49    0.14
  -5   4   8    0.35    0.20
  -5  -4  -8    1.06    0.32
  -5  -4   9   12.02    0.96
   5  -4  -9   12.74    1.22
   5  -4  -9   12.23    1.00
  -5   4  -9   13.43    1.16
  -5  -4   9   12.74    0.99
  -5  -4  -9   12.11    1.06
   5   4  -9   11.91    1.01
  -5   4   9   12.68    1.00
   5  -4   9   12.52    0.95
  -5  -4  10   26.75    2.04
  -5  -4  10   28.25    2.04
   5  -4 -10   27.66    2.04
   5  -4  10   27.29    2.07
  -5   4  10   28.51    2.05
   5   4 -10   29.07    2.08
  -5  -4  11    4.67    0.46
   5  -4 -11    4.33    0.55
   5  -4  11    5.02    0.43
  -5  -4 -11    3.58    0.56
   5   4 -11    4.74    0.55
  -5   4 -12    0.95    0.42
   5  -4 -12    0.84    0.27
   5  -4  12    0.76    0.17
   5   4 -12    0.32    0.26
  -5  -4 -12    0.72    0.39
  -5   5   0    1.05    0.19
   5  -5   0    1.63    0.30
   5   5   0    1.47    0.28
  -5  -5   0    1.33    0.25
   5  -5  -1   45.94    3.27
  -5  -5   1   46.60    3.26
  -5   5  -1   50.14    3.28
  -5   5  -1   43.53    3.25
   5   5  -1   48.69    3.27
  -5   5   1   39.44    3.24
  -5  -5  -1   47.49    3.28
   5  -5   1   44.69    3.26
  -5   5  -2   13.35    1.00
   5  -5  -2   11.83    0.94
   5  -5  -2   12.62    1.01
  -5  -5   2   13.48    1.00
   5   5  -2   12.10    0.94
   5   5  -2   13.23    1.00
  -5   5   2   12.68    0.94
   5  -5   2   13.08    0.99
  -5   5  -3  132.96    9.60
  -5  -5   3  137.70    9.61
   5  -5  -3  131.22    9.61
   5  -5  -3  137.26    9.57
   5  -5   3  136.17    9.59
   5   5  -3  131.64    9.60
  -5   5   3  143.43    9.56
  -5  -5   4    1.93    0.73
   5  -5  -4    1.51    0.66
  -5   5  -4    1.94    0.57
   5  -5  -4    2.84    0.45
   5  -5  -4    2.02    0.62
  -5  -5  -4    2.24    0.55
   5  -5   4    2.46    0.60
  -5   5   4    2.89    0.36
   5   5  -4    3.68    0.74
  -5  -5  -4    2.28    0.54
   5   5  -4    3.49    0.49
   5  -5  -5   87.24    6.16
   5  -5  -5   80.96    5.86
  -5  -5   5   73.96    5.87
  -5   5  -5   94.23    5.91
   5  -5  -5   84.25    5.88
  -5  -5  -5   76.16    5.91
   5  -5  -6   29.51    2.49
  -5  -5   6   36.04    2.48
  -5  -5   6   33.61    2.47
  -5   5  -6   32.81    2.59
  -5  -5  -6   34.35    2.54
  -5   5   6   36.64    2.49
   5  -5   6   37.18    2.47
   5  -5  -7   39.83    2.92
  -5  -5   7   43.81    2.90
  -5  -5   7   38.42    2.89
  -5   5  -7   36.31    2.99
  -5   5   7   42.14    2.90
  -5  -5  -7   36.94    2.93
   5  -5   7   44.56    2.88
  -5   5  -8    1.21    0.45
  -5  -5   8    0.30    0.18
   5  -5  -8    0.46    0.24
   5  -5  -8    0.68    0.38
  -5   5   8    0.43    0.24
   5  -5   8    0.33    0.16
  -5  -5  -8    1.04    0.33
   5  -5  -9   21.49    1.71
  -5  -5   9   25.12    1.71
  -5  -5   9   20.66    1.69
  -5  -5  -9   26.29    1.76
  -5   5   9   24.07    1.71
   5  -5   9   20.98    1.67
  -5   5 -10   16.15    1.24
   5  -5 -10   12.88    1.14
  -5  -5  10   14.45    1.14
  -5  -5  10   13.32    1.10
  -5  -5 -10   16.01    1.19
   5  -5  10   13.95    1.09
  -5   5  10   15.97    1.17
   5   5 -10   14.95    1.15
  -5  -5  11    7.36    0.83
  -5  -5  11   10.27    0.75
   5  -5 -11    9.97    0.81
   5  -5  11   10.50    0.73
  -5  -5 -11    8.97    0.81
   5   5 -11    8.41    0.80
   5   6   0    3.13    0.42
  -5  -6   0    2.98    0.38
   5  -6   0    2.88    0.42
  -5   6  -1   24.53    1.71
  -5   6  -1   24.23    1.77
   5  -6  -1   23.26    1.76
  -5  -6   1   23.54    1.73
   5   6  -1   23.99    1.75
   5  -6   1   22.68    1.74
  -5  -6  -1   23.14    1.73
  -5   6   1   23.65    1.70
  -5   6  -2  133.59    9.36
   5  -6  -2  124.99    9.35
  -5  -6   2  143.44    9.39
   5  -6  -2  130.68    9.39
  -5   6  -2  141.19    9.39
  -5  -6  -2  136.36    9.37
   5  -6   2  129.48    9.38
   5   6  -2  137.07    9.39
  -5   6   2  133.31    9.35
   5   6  -2  117.97    9.34
   5  -6  -3   54.21    3.86
  -5  -6   3   59.19    3.94
  -5   6  -3   52.44    3.91
   5  -6  -3   50.38    3.93
   5  -6   3   52.41    3.90
  -5  -6  -3   52.44    3.90
  -5   6   3   61.45    3.86
   5   6  -3   50.44    3.92
   5  -6  -4    1.70    0.49
  -5  -6   4    2.19    1.25
   5  -6  -4    1.36    0.78
  -5   6  -4    1.65    0.28
   5  -6  -4    3.27    0.76
  -5   6   4    1.17    0.31
   5   6  -4    1.51    0.45
   5  -6   4    1.24    0.22
  -5   6   4    1.88    0.38
   5  -6  -5   27.98    1.90
  -5  -6   5   26.52    1.87
  -5  -6   5   24.09    1.90
  -5   6  -5   26.55    1.97
   5  -6   5   28.27    1.86
  -5   6   5   21.74    1.90
  -5  -6   6   69.14    4.91
  -5  -6   6   69.34    4.90
  -5   6  -6   67.86    5.00
   5  -6  -6   65.34    4.92
   5  -6   6   72.04    4.91
  -5  -6  -6   68.63    4.95
  -5   6   6   70.60    4.91
  -5  -6   7   24.88    1.64
   5  -6  -7   19.03    1.73
  -5  -6   7   20.69    1.64
   5  -6  -7   22.48    1.68
  -5   6  -7   20.30    1.80
   5  -6   7   25.72    1.63
  -5  -6  -7   20.59    1.70
  -5   6   7   23.59    1.67
  -5   6  -8    1.56    0.48
  -5  -6   8    1.92    0.41
  -5   6   8    2.58    0.46
  -5  -6   9    9.75    0.80
  -5  -6   9    8.05    0.77
  -5   6  -9   10.34    0.99
   5  -6  -9    9.93    0.83
   5  -6   9    8.68    0.75
  -5  -6  -9   10.15    0.87
  -5   6   9   10.26    0.82
  -5   6 -10   20.28    1.57
  -5  -6  10   19.75    1.47
   5  -6 -10   19.84    1.50
  -5  -6  10   19.79    1.49
  -5  -6 -10   21.18    1.52
  -5   6  10   19.10    1.54
   5   6 -10   20.63    1.51
   5  -6  10   19.73    1.46
  -5   6 -11    0.89    0.42
  -5  -6  11    2.06    0.33
   5  -6 -11    1.48    0.27
  -5  -6  11    1.15    0.62
   5  -6  11    1.69    0.21
   5   6 -11    1.70    0.28
   5   7   0   -0.02    0.33
   5  -7   0    0.03    0.35
  -5  -7   0    0.76    0.30
  -5   7   0    0.21    0.17
   5  -7  -1  130.70    9.37
  -5   7  -1  129.05    9.32
  -5  -7   1  135.19    9.36
  -5  -7  -1  136.24    9.35
  -5   7   1  127.10    9.32
   5   7  -1  137.88    9.37
   5  -7   1  130.03    9.36
  -5   7  -2   15.64    1.35
   5  -7  -2   14.21    1.35
  -5   7  -2   16.43    1.22
  -5  -7   2   16.61    1.35
  -5  -7  -2   16.61    1.31
   5  -7   2   16.48    1.32
   5   7  -2   16.59    1.20
   5   7  -2   14.54    1.35
  -5   7   2   18.47    1.22
  -5   7  -3  105.71    7.38
   5  -7  -3   98.93    7.40
   5  -7  -3  103.99    7.37
   5  -7  -3   90.77    7.47
  -5  -7   3  101.64    7.36
   5  -7   3  108.86    7.36
  -5   7   3  113.14    7.40
  -5   7   3  113.42    7.38
   5  -7  -4    2.03    0.37
  -5  -7   4    2.41    0.29
   5  -7  -4    3.12    0.45
  -5   7  -4    2.16    0.31
  -5   7  -4    2.33    0.45
  -5  -7   4    2.25    0.44
   5  -7   4    2.37    0.26
  -5   7   4    2.51    0.39
  -5  -7  -4    2.07    0.51
  -5  -7   5   76.58    6.11
  -5  -7   5   88.98    6.10
   5  -7  -5   91.61    6.14
  -5   7  -5   95.78    6.16
  -5   7  -5   91.66    6.11
   5  -7  -5   86.57    6.12
  -5   7   5   75.75    6.12
   5  -7   5   84.80    6.09
  -5  -7  -5   85.78    6.15
  -5   7  -6   35.59    2.61
   5  -7  -6   33.39    2.51
  -5  -7   6   34.60    2.47
  -5  -7  -6   32.54    2.54
  -5   7   6   33.49    2.50
   5  -7   6   36.13    2.47
  -5  -7   7   34.59    2.29
  -5  -7   7   30.12    2.29
  -5   7  -7   30.15    2.41
   5  -7  -7   27.83    2.34
   5  -7  -7   30.44    2.32
  -5   7   7   34.02    2.31
  -5  -7  -7   30.17    2.34
   5  -7   7   34.31    2.28
  -5  -7   8    0.14    0.20
   5  -7  -8    0.92    0.41
   5  -7  -8    0.84    0.27
  -5  -7   8    0.40    0.23
  -5   7  -8    0.88    0.45
  -5   7   8    0.55    0.27
  -5  -7  -8    0.84    0.34
   5  -7   8    0.22    0.16
  -5   7  -9   22.66    1.72
  -5  -7   9   20.96    1.68
   5  -7   9   18.63    1.56
  -5  -7  -9   23.20    1.63
   5  -7 -10   13.20    1.06
  -5  -7  10   12.26    1.05
  -5  -7  10   14.30    1.04
  -5   7 -10   13.38    1.15
  -5  -7 -10   13.65    1.07
   5   7 -10   14.12    1.07
   5  -7  10   14.20    1.01
  -5  -7  11   14.29    1.07
   5  -7 -11   13.69    1.19
   5   7 -11   14.35    1.10
   5  -7  11   14.93    1.05
  -5   8   0    1.43    0.22
  -5   8   0    1.48    0.29
   5  -8   0    1.49    0.52
   5  -8   0    1.02    0.20
  -5   8  -1   16.69    1.25
   5  -8  -1   14.80    1.42
  -5   8  -1   17.43    1.23
   5  -8  -1   15.99    1.20
  -5  -8   1   15.68    1.19
  -5   8  -1   16.42    1.20
  -5  -8   1   16.32    1.20
  -5   8  -1   16.78    1.43
   5  -8   1   15.87    1.19
  -5   8   1   16.09    1.20
  -5   8   1   16.53    1.24
  -5   8   1   18.38    1.23
  -5  -8  -1   16.88    1.24
  -5  -8   2   58.66    4.21
   5  -8  -2   55.95    4.22
  -5   8  -2   63.20    4.24
   5  -8  -2   54.92    4.44
  -5  -8   2   58.60    4.21
  -5   8  -2   59.20    4.22
  -5   8   2   64.70    4.25
  -5   8   2   62.12    4.26
  -5   8   2   62.47    4.23
  -5  -8  -2   59.96    4.23
   5  -8   2   56.31    4.22
  -5  -8   3   26.57    1.98
  -5   8  -3   28.36    1.99
   5  -8  -3   27.39    1.99
  -5   8  -3   27.13    2.02
   5  -8  -3   26.71    2.00
   5  -8   3   27.14    1.99
   5   8  -3   29.64    2.02
  -5   8   3   30.73    2.00
   5  -8   3   28.41    1.98
  -5   8   3   24.65    2.03
  -5   8  -4    2.05    0.47
  -5   8  -4    1.43    0.28
  -5  -8   4    1.67    0.26
  -5   8   4    2.44    0.50
  -5   8  -5   19.31    1.54
  -5   8  -5   20.47    1.64
   5  -8  -5   18.80    1.57
  -5  -8   5   21.00    1.55
   5  -8  -5   23.35    1.61
  -5  -8   5   20.18    1.51
  -5   8   5   20.45    1.57
   5  -8   5   22.06    1.50
  -5  -8   6   67.09    4.62
   5  -8  -6   68.57    4.63
  -5   8  -6   63.61    4.69
  -5  -8   6   62.90    4.59
  -5   8   6   65.13    4.71
  -5  -8  -6   59.36    4.65
   5  -8   6   68.75    4.59
  -5   8   6   62.38    4.62
  -5  -8   7    9.30    0.89
   5  -8  -7    9.41    1.00
  -5   8  -7    9.43    1.13
  -5  -8   7   12.66    0.89
   5  -8  -7   11.06    0.95
  -5  -8  -7    9.68    0.98
  -5   8   7   11.82    0.94
   5  -8   7   12.75    0.86
  -5  -8   8    6.94    0.68
  -5   8  -8    7.87    0.92
  -5  -8  -8    9.03    0.79
  -5   8   8    7.35    0.73
  -5  -8   9    9.80    0.91
  -5   8  -9   13.74    1.09
  -5  -8   9   12.03    0.93
   5  -8  -9   11.14    0.96
  -5  -8  -9   13.34    0.97
   5  -8   9   10.58    0.89
  -5   8   9   11.46    0.96
  -5  -8  10   17.60    1.34
  -5  -8  10   17.80    1.33
  -5   8 -10   17.35    1.42
   5  -8 -10   18.20    1.36
   5   8 -10   18.61    1.35
  -5  -8 -10   17.77    1.34
   5  -8  10   18.17    1.31
  -5  -8  11    2.86    0.35
   5  -8  11    2.43    0.32
  -5  -8 -11    1.91    0.43
   5   8 -11    2.74    0.43
  -5  -9   0    0.22    0.13
   5  -9   0    0.24    0.10
  -5  -9   0    0.29    0.13
   5  -9   0   -0.04    0.13
  -5   9   0    0.17    0.19
  -5   9   0    0.21    0.12
   5  -9  -1   48.98    3.48
  -5   9  -1   51.37    3.48
   5  -9  -1   46.19    3.46
  -5  -9   1   50.56    3.46
   5  -9  -1   44.16    3.45
  -5   9  -1   47.67    3.46
  -5  -9   1   48.27    3.45
  -5   9   1   47.83    3.46
   5  -9   1   46.53    3.46
   5  -9   1   49.07    3.46
  -5  -9  -1   49.98    3.46
  -5   9   1   55.01    3.49
  -5  -9   2   14.88    1.13
  -5   9  -2   16.30    1.14
  -5   9  -2   15.95    1.17
   5  -9  -2   14.24    1.14
  -5  -9   2   15.20    1.13
   5  -9  -2   15.77    1.14
  -5   9   2   15.76    1.14
   5  -9   2   15.82    1.13
  -5   9   2   16.20    1.21
  -5  -9  -2   14.84    1.15
   5  -9  -3   70.02    5.01
   5  -9  -3   69.40    5.01
  -5  -9   3   68.10    4.99
  -5   9  -3   72.55    5.01
  -5   9  -3   71.10    5.03
  -5   9   3   60.46    5.03
   5  -9   3   69.28    5.00
   5   9  -3   73.06    5.04
   5  -9   3   72.15    5.00
  -5  -9  -3   74.03    5.02
  -5   9   3   78.63    5.02
  -5  -9   4    5.14    0.52
  -5   9  -4    4.70    0.49
  -5  -9   4    4.64    0.47
   5  -9  -4    4.02    0.53
  -5   9  -4    4.81    0.73
   5  -9   4    5.36    0.45
   5  -9   4    5.25    0.54
   5   9  -4    4.66    0.55
  -5   9   4    4.69    0.63
  -5   9  -5   41.34    2.73
   5  -9  -5   32.78    2.64
  -5  -9   5   38.06    2.60
  -5   9  -5   36.34    2.62
   5  -9  -5   37.28    2.64
  -5  -9   5   32.71    2.63
  -5   9   5   32.70    2.64
   5  -9   5   32.73    2.59
  -5   9   5   39.76    2.66
  -5  -9  -5   40.31    2.67
  -5  -9   6   26.07    1.90
  -5  -9   6   26.25    1.93
  -5   9  -6   27.62    2.07
   5  -9  -6   26.03    1.95
  -5   9   6   25.69    1.95
   5  -9   6   27.49    1.90
  -5  -9  -6   23.64    1.98
  -5   9  -7   26.66    2.17
  -5  -9   7   25.04    2.04
  -5  -9   7   29.39    2.04
   5  -9  -7   27.85    2.08
   5  -9   7   28.00    2.03
  -5  -9  -7   27.52    2.10
  -5   9   7   30.61    2.07
  -5   9  -8    0.65    0.46
  -5  -9   8    0.92    0.24
   5  -9   8    0.50    0.18
  -5  -9   9   17.42    1.28
   5  -9  -9   16.57    1.31
  -5   9  -9   18.68    1.40
  -5  -9   9   14.99    1.28
  -5   9   9   18.35    1.50
   5  -9   9   15.70    1.26
  -5  -9  -9   18.96    1.31
  -5  -9  10   10.24    0.88
   5  -9 -10    9.97    0.86
  -5  -9  10   10.92    0.83
   5  -9  10   11.00    0.80
   5   9 -10   11.27    0.86
  -5  -9 -10   10.22    0.84
  -5 -10   0    2.43    0.27
  -5  10   0    2.87    0.39
  -5 -10   0    2.67    0.28
   5 -10   0    2.21    0.28
   5 -10   0    1.94    0.26
  -5  10   0    2.07    0.27
  -5  10  -1    9.47    0.72
   5 -10  -1    9.23    0.72
   5 -10  -1    8.94    0.71
  -5 -10   1    9.16    0.72
  -5 -10   1    9.38    0.72
  -5  10  -1    9.28    0.78
  -5 -10  -1    9.22    0.72
  -5  10   1   10.61    0.81
  -5  10   1    9.28    0.72
   5 -10   1    9.68    0.72
   5 -10   1    9.11    0.72
  -5 -10   2   73.51    5.02
   5 -10  -2   68.87    5.02
  -5 -10   2   70.76    5.02
   5 -10  -2   67.59    5.02
  -5  10  -2   73.04    5.05
  -5  10  -2   68.07    5.03
   5 -10   2   69.00    5.02
   5 -10   2   70.71    5.01
  -5  10   2   72.19    5.03
  -5  10   2   73.16    5.06
  -5 -10  -2   74.24    5.03
   5 -10  -3   36.22    2.85
  -5  10  -3   39.85    2.85
  -5  10  -3   38.02    2.89
  -5 -10   3   41.99    2.86
  -5 -10   3   37.13    2.83
   5 -10  -3   40.39    2.85
   5 -10   3   37.67    2.84
   5 -10   3   42.04    2.84
   5  10  -3   43.34    2.93
  -5  10   3   42.36    2.86
  -5 -10  -3   39.77    2.86
  -5 -10   4    5.37    0.56
  -5 -10   4    6.27    0.48
  -5  10  -4    5.91    0.70
  -5  10  -4    5.32    0.51
   5 -10  -4    5.32    0.51
  -5  10   4    5.73    0.56
   5 -10   4    5.60    0.46
  -5  10   4    4.53    0.69
   5 -10   4    5.46    0.56
  -5 -10  -4    5.16    0.55
  -5 -10   5   14.28    1.01
  -5 -10   5   12.71    1.05
  -5  10  -5   12.64    1.24
   5 -10  -5   14.00    1.05
  -5 -10  -5   15.29    1.10
  -5  10   5   10.85    1.08
   5 -10   5   12.50    1.21
   5 -10   5   13.26    0.99
  -5 -10   6   47.74    3.42
  -5 -10   6   47.59    3.45
  -5  10  -6   52.40    3.54
   5 -10  -6   47.40    3.46
   5 -10   6   47.78    3.42
  -5  10   6   48.34    3.46
  -5 -10  -6   44.88    3.48
  -5 -10   7   12.33    1.05
   5 -10  -7   13.31    1.09
  -5  10  -7   13.03    1.23
  -5 -10   7   13.89    1.05
   5 -10   7   13.83    1.02
  -5 -10  -7   12.84    1.12
  -5  10  -8    2.90    0.69
  -5 -10   8    2.20    0.41
   5 -10   8    1.68    0.32
  -5 -10  -8    2.40    0.46
  -5  10  -9    7.85    0.87
  -5 -10   9    7.42    0.67
  -5 -10   9    7.10    0.65
   5 -10  -9    7.79    0.70
   5 -10   9    7.81    0.61
  -5 -10  -9    8.02    0.67
   5 -10 -10   18.99    1.42
  -5 -10  10   19.05    1.42
   5 -10  10   19.33    1.38
   5  10 -10   20.21    1.42
  -5 -10 -10   17.79    1.41
  -5  11   0    4.73    0.55
  -5 -11   0    5.27    0.43
   5 -11   0    4.79    0.45
  -5  11  -1   26.10    1.81
   5 -11  -1   21.85    1.75
  -5 -11   1   25.45    1.75
   5 -11  -1   24.08    1.75
  -5  11  -1   23.40    1.76
  -5 -11   1   25.57    1.75
  -5  11   1   25.65    1.83
   5 -11   1   23.53    1.75
   5 -11   1   22.92    1.75
  -5 -11  -1   24.69    1.76
  -5  11   1   23.59    1.76
  -5 -11  -1   24.71    1.75
  -5  11  -2   21.94    1.61
   5 -11  -2   20.76    1.55
  -5  11  -2   21.52    1.56
   5 -11  -2   21.36    1.55
  -5 -11   2   21.92    1.55
  -5 -11   2   21.82    1.54
  -5 -11  -2   21.67    1.56
  -5  11   2   21.93    1.57
   5 -11   2   22.32    1.55
   5 -11   2   20.12    1.55
  -5  11   2   19.43    1.64
  -5  11  -3   76.87    5.51
  -5  11  -3   78.41    5.47
  -5 -11   3   76.43    5.45
   5 -11  -3   77.76    5.47
  -5 -11   3   77.38    5.47
  -5 -11  -3   82.93    5.48
   5 -11   3   75.26    5.45
   5 -11   3   79.39    5.46
   5  11  -3   76.15    5.49
  -5  11   3   66.18    5.50
  -5  11   3   82.40    5.48
  -5 -11   4    1.26    0.27
  -5  11  -4    1.10    0.22
  -5 -11   4    1.75    0.27
   5 -11  -4    1.79    0.31
  -5  11  -4    1.50    0.45
   5 -11   4    1.48    0.24
   5  11  -4    1.28    0.26
  -5  11   4    0.84    0.26
  -5 -11  -4    1.21    0.26
   5 -11   4    1.28    0.26
   5 -11  -5   29.11    2.12
  -5  11  -5   31.46    2.26
  -5 -11   5   25.84    2.12
  -5 -11   5   30.75    2.09
   5 -11   5   27.61    2.08
  -5  11  -6   21.69    1.78
  -5 -11   6   21.30    1.62
   5 -11  -6   23.00    1.67
  -5 -11   6   23.88    1.66
   5 -11   6   23.80    1.62
  -5 -11  -6   18.70    1.68
  -5  11   6   21.63    1.66
  -5  11  -7   40.06    2.91
   5 -11  -7   39.79    2.86
  -5 -11   7   40.71    2.83
  -5 -11   7   36.03    2.83
  -5  11   7   41.86    2.84
  -5 -11  -7   36.57    2.91
   5 -11   7   40.01    2.84
  -5 -11   8    0.93    0.22
  -5  11  -8    1.44    0.49
  -5 -11   8    0.78    0.24
   5 -11  -8    0.57    0.26
   5 -11   8    1.46    0.27
  -5 -11  -8    0.85    0.25
  -5 -11   9   12.35    1.03
   5 -11  -9   13.54    1.06
  -5 -11   9   16.04    1.05
   5 -11   9   12.49    1.00
  -5  12   0    2.04    0.28
   5 -12   0    2.16    0.28
  -5  12   0    2.35    0.50
   5 -12   0    1.98    0.27
  -5 -12   1    3.64    0.35
   5 -12  -1    3.34    0.34
   5 -12  -1    2.91    0.34
  -5  12  -1    3.10    0.35
  -5 -12   1    3.57    0.34
  -5  12  -1    3.16    0.55
  -5 -12  -1    3.09    0.35
  -5  12   1    3.63    0.36
   5 -12   1    3.56    0.36
   5 -12   1    3.41    0.34
  -5  12   1    3.64    0.59
  -5 -12  -1    3.25    0.35
   5 -12  -2   48.00    3.44
  -5  12  -2   48.10    3.45
  -5 -12   2   49.26    3.43
  -5  12  -2   47.55    3.50
   5 -12  -2   46.98    3.44
  -5 -12   2   47.77    3.46
  -5 -12  -2   49.37    3.44
   5 -12   2   47.13    3.43
  -5  12   2   50.09    3.46
  -5 -12  -2   48.80    3.44
   5 -12   2   48.84    3.44
  -5 -12   3   19.64    1.45
  -5  12  -3   19.58    1.43
   5 -12  -3   19.11    1.42
  -5 -12   3   19.13    1.41
   5 -12  -3   18.25    1.42
  -5  12  -3   17.04    1.56
   5 -12   3   20.77    1.41
   5  12  -3   20.25    1.46
  -5  12   3   20.16    1.45
  -5 -12  -3   20.36    1.44
   5 -12   3   17.51    1.42
  -5 -12   4    3.63    0.49
   5 -12  -4    3.67    0.42
   5 -12   4    3.79    0.38
  -5  12   4    3.95    0.50
   5 -12   4    4.72    0.52
  -5  12  -5   14.32    1.25
   5 -12  -5   13.02    1.03
  -5 -12   5   11.54    1.04
  -5 -12   5   12.91    0.98
   5 -12   5   12.87    0.97
  -5 -12  -5   12.82    1.04
  -5  12  -6   23.42    1.81
  -5 -12   6   21.72    1.68
   5  12   6   23.69    1.70
   5 -12  -6   20.51    1.68
  -5  12   6   22.79    1.69
   5 -12  -7    6.36    0.66
  -5  12  -7    5.16    0.92
  -5 -12   7    6.21    0.63
  -5 -12   7    7.43    0.64
  -5 -12  -7    6.50    0.65
   5 -12   7    8.10    0.59
  -5 -12   8    0.55    0.21
   5 -12  -8    0.51    0.23
  -5 -12   8    1.14    0.24
  -5 -12  -8    0.73    0.21
   5 -12   8    0.29    0.15
  -5 -12   9    7.22    0.61
   5 -12  -9    7.16    0.64
  -5 -12   9    6.07    0.66
   5 -12   9    7.46    0.65
  -5 -12  -9    7.18    0.60
   5 -13   0    2.20    0.30
  -5 -13   0    3.24    0.31
   5 -13   0    2.59    0.32
  -5  13   0    2.49    0.34
  -5 -13   1   30.12    2.04
   5 -13  -1   27.85    2.04
  -5  13  -1   28.14    2.05
  -5  13  -1   29.58    2.20
  -5 -13   1   29.88    2.04
   5 -13  -1   26.90    2.04
   5 -13   1   28.13    2.03
  -5 -13  -1   30.17    2.05
  -5  13   1   28.37    2.05
   5 -13   1   27.49    2.04
  -5  13   1   23.96    2.22
  -5 -13  -1   29.07    2.04
  -5  13  -2   12.87    1.32
  -5  13  -2   13.05    1.02
  -5 -13   2   12.91    1.06
   5 -13  -2   12.79    1.01
   5 -13  -2   13.62    1.01
  -5 -13   2   13.65    1.00
  -5  13   2   14.24    1.04
  -5 -13  -2   13.22    1.01
   5 -13   2   12.76    1.01
   5  13  -2   13.82    1.06
  -5 -13  -2   13.10    1.02
   5 -13   2   14.46    1.01
  -5  13  -3   36.14    2.87
  -5 -13   3   38.98    2.70
  -5 -13   3   36.41    2.72
   5 -13  -3   38.50    2.72
   5 -13  -3   38.32    2.71
  -5  13  -3   37.86    2.72
   5 -13   3   38.94    2.70
   5  13  -3   37.64    2.74
  -5  13   3   36.96    2.73
  -5 -13  -3   39.22    2.72
   5 -13   3   35.16    2.70
  -5 -13  -3   39.35    2.71
   5 -13  -4    0.40    0.20
  -5 -13   4    0.53    0.17
  -5  13  -4    1.36    0.57
  -5 -13   4    0.16    0.25
   5 -13  -4    0.67    0.19
  -5  13   4    0.15    0.25
  -5 -13  -4    0.38    0.21
   5  13  -4    0.35    0.24
   5 -13   4    0.27    0.14
   5 -13   4    0.20    0.30
  -5 -13   5   25.15    2.02
  -5 -13   5   29.26    2.01
   5 -13  -5   28.96    2.03
  -5  13  -5   30.99    2.17
   5 -13  -5   27.51    2.03
  -5 -13  -5   26.26    2.06
  -5  13   5   24.86    2.04
   5 -13   5   27.61    2.01
  -5 -13   6   14.23    1.19
  -5  13  -6   16.30    1.48
  -5 -13   6   14.51    1.17
   5 -13  -6   13.92    1.20
   5  13   6   16.68    1.22
  -5  13   6   15.80    1.22
   5 -13   6   16.03    1.16
   5 -13  -7   18.36    1.34
  -5 -13   7   19.02    1.32
  -5 -13   7   16.88    1.31
   5 -13  -7   14.74    1.33
   5 -13   7   18.68    1.29
  -5 -13  -7   16.95    1.31
  -5 -13   8    0.25    0.35
  -5 -13   8   -0.05    0.20
   5 -13  -8    0.02    0.21
  -5 -13  -8    0.54    0.19
   5 -13   8    0.48    0.15
  -5  14   0    5.21    0.48
  -5 -14   1    6.77    0.51
  -5  14  -1    5.71    0.54
   5 -14  -1    6.10    0.52
   5 -14  -1    5.76    0.52
  -5 -14  -1    5.88    0.52
  -5  14   1    5.87    0.56
   5 -14   1    6.25    0.54
   5  14  -1    6.03    0.61
   5 -14   1    6.28    0.51
  -5 -14  -1    6.23    0.52
  -5  14  -2   51.22    3.82
   5 -14  -2   53.26    3.82
   5 -14  -2   52.91    3.81
  -5 -14   2   54.85    3.81
  -5 -14  -2   56.99    3.82
  -5  14   2   55.74    3.84
  -5 -14  -2   53.77    3.81
   5 -14   2   53.43    3.81
   5  14  -2   53.71    3.86
   5 -14   2   51.10    3.81
  -5 -14   3   14.79    1.14
  -5 -14   3   14.89    1.15
   5 -14  -3   14.87    1.16
   5 -14   3   13.30    1.11
   5  14  -3   15.21    1.14
  -5 -14   4    2.77    0.55
   5 -14  -4    4.36    0.47
  -5 -14  -4    4.56    0.47
  -5  14   4    3.00    0.55
  -5 -14  -4    4.61    0.46
   5 -14  -5    6.41    0.67
   5  14   5    8.37    0.68
  -5 -14   5    8.08    0.62
  -5 -14   5    5.85    0.69
   5 -14  -5    7.68    0.66
  -5 -14  -5    6.41    0.65
  -5 -14  -5    6.23    0.64
   5 -14   5    7.08    0.59
  -5  14   5    7.59    0.74
   5 -14  -6   28.68    2.12
   5  14   6   30.37    2.13
  -5 -14   6   29.79    2.09
   5 -14  -6   24.16    2.10
  -5 -14   6   30.19    2.11
  -5 -14  -6   28.27    2.10
   5 -14   6   31.61    2.09
  -5 -14  -6   27.88    2.11
  -5 -14   7    5.76    0.57
   5 -14  -7    6.63    0.83
  -5 -14   7    4.16    0.54
   5 -14   7    5.86    0.48
  -5 -14  -7    5.40    0.52
   5  15   0    0.51    0.24
  -5  15   0    0.11    0.18
   5 -15   0    0.19    0.12
  -5 -15   0    0.22    0.13
   5 -15   0    0.01    0.15
  -5  15  -1   21.77    1.63
   5 -15  -1   21.59    1.61
   5  15   1   19.31    1.71
   5 -15  -1   21.91    1.61
  -5 -15   1   23.18    1.61
  -5 -15  -1   23.18    1.61
   5  15  -1   23.05    1.68
  -5 -15  -1   23.18    1.61
   5 -15   1   21.83    1.61
  -5  15   1   23.06    1.65
   5 -15   1   22.09    1.61
  -5  15  -2   10.28    0.89
  -5 -15   2   11.63    0.86
   5 -15  -2   12.26    0.87
   5 -15  -2   11.03    0.87
   5  15  -2   12.21    0.93
   5 -15   2   10.40    0.89
  -5  15   2   11.11    0.92
   5 -15   2   12.08    0.86
  -5 -15  -2   11.21    0.87
  -5 -15  -2   11.12    0.87
  -5 -15   3   28.97    2.03
   5  15   3   29.34    2.11
  -5 -15   3   25.79    2.08
   5 -15  -3   29.28    2.05
   5 -15  -3   27.25    2.04
  -5 -15  -3   28.13    2.04
   5  15  -3   26.51    2.06
  -5 -15  -3   29.64    2.04
   5 -15   3   29.13    2.03
   5 -15  -4    4.69    0.50
   5  15   4    3.82    0.54
   5 -15  -4    4.44    0.48
  -5 -15   4    5.25    0.62
  -5 -15  -4    4.16    0.48
  -5 -15  -4    5.75    0.49
   5  15  -4    4.88    0.58
   5 -15   4    4.89    0.43
  -5  15   4    3.75    0.63
   5  15   5   12.70    1.03
  -5 -15   5   15.07    0.99
   5 -15  -5   11.63    1.02
  -5 -15   5   11.58    1.05
   5 -15  -5   12.62    1.01
   5 -15   5   12.74    0.98
  -5 -15  -5   14.79    1.01
  -5 -15  -5   11.76    1.00
  -5 -15   6   11.30    0.90
   5 -15  -6    8.93    0.88
  -5 -15   6   11.39    0.88
   5 -15  -6   10.42    0.94
  -5 -15  -6   10.41    0.87
   5 -15   6   11.61    0.84
  -5 -15  -6   11.70    1.02
   5  16   0    4.61    0.55
  -5  16   0    4.08    0.51
  -5  16  -1    3.53    0.48
   5 -16  -1    4.53    0.47
   5 -16  -1    4.35    0.41
  -5 -16   1    5.25    0.41
   5  16   1    4.12    0.57
   5 -16   1    4.47    0.40
  -5  16   1    3.86    0.53
   5 -16   1    4.33    0.52
  -5 -16  -1    4.93    0.41
   5 -16  -2   27.05    1.95
   5 -16  -2   28.69    1.96
  -5 -16   2   27.70    1.94
   5  16   2   24.91    2.03
  -5 -16  -2   29.16    1.95
   5 -16   2   26.84    1.94
  -5  16   2   24.00    2.00
   5  16  -2   27.75    1.99
  -5 -16   3    9.81    0.81
   5 -16  -3   11.76    0.84
   5 -16  -3    9.63    0.85
  -5 -16  -3   11.35    0.83
   5  16  -3   11.32    0.88
  -5 -16  -3   10.09    0.84
   5 -16   3   10.71    0.81
  -5 -16   4    3.42    0.36
   5 -16  -4    2.59    0.40
   5  16   4    2.51    0.44
  -5 -16  -4    2.14    0.41
   5 -16   4    2.99    0.33
  -5 -16  -4    3.27    0.38
  -5 -16   5    4.67    0.62
  -5 -16   5    4.21    0.62
   5  16   5    4.91    0.50
   5 -16  -5    4.18    0.49
  -5 -16  -5    3.76    0.49
   5 -16   5    4.78    0.45
  -5 -16  -5    3.64    0.48
   5  17   0    1.01    0.26
   5 -17   0    1.49    0.25
   5  17   1    8.80    0.89
  -5 -17   1   10.65    0.77
   5 -17  -1   10.05    0.78
  -5 -17  -1   10.58    0.77
   5  17  -1   10.70    0.84
   5 -17   1    9.61    0.77
  -5  17  -2    6.51    0.66
  -5 -17   2    6.61    0.56
   5  17   2    7.67    0.71
   5 -17  -2    7.61    0.60
  -5 -17  -2    6.80    0.57
   5  17  -2    6.59    0.73
   5 -17   2    7.16    0.56
   5 -17  -3   18.61    1.28
   5 -17   3   15.92    1.32
   5  17  -3   15.74    1.30
  -5 -17  -3   18.06    1.29
   6   0  -1  449.34   30.55
   6   0  -1  421.73   30.57
   6   0  -2   24.14    1.95
   6   0  -2   27.52    1.88
  -6   0   2   27.20    1.87
   6   0  -3    2.27    0.45
  -6   0  -3    2.21    0.33
  -6   0   3    2.52    0.25
   6   0  -4  190.82   12.72
  -6   0  -4  173.43   12.67
  -6   0   4  175.36   12.65
  -6   0  -5    1.79    0.55
  -6   0  -5    1.35    0.33
  -6   0   5    0.84    0.29
   6   0  -5    1.20    0.44
   6   0  -5    2.27    0.63
  -6   0   6    3.29    0.42
  -6   0  -6    3.97    0.92
  -6   0   6    2.39    0.40
   6   0   6    3.17    0.34
  -6   0   7   35.31    2.35
  -6   0  -7   36.38    2.45
  -6   0   7   29.24    2.35
   6   0   7   30.33    2.34
   6   0  -7   32.98    2.36
  -6   0   8   49.68    3.88
  -6   0  -8   63.09    3.96
   6   0   8   50.90    3.87
   6   0  -8   53.29    3.89
  -6   0   8   56.50    3.88
   6   0  -9   40.09    2.90
  -6   0  -9   38.01    2.96
   6   0   9   42.68    2.87
  -6   0   9   42.18    2.89
  -6   0   9   38.57    2.88
  -6   0  10    8.81    0.68
   6   0  10    9.02    0.65
   6   0 -10    7.69    0.72
  -6   0 -10    6.64    0.87
  -6   0  10    7.62    0.73
  -6   0 -11   -0.09    0.37
   6   0 -11   -0.31    0.25
  -6   0  11    0.33    0.32
  -6   0 -12    5.76    0.67
   6   0 -12    5.65    0.63
  -6  -1   0  325.63   23.30
   6   1   0  333.77   23.30
  -6   1   0  337.46   23.31
   6  -1  -1   20.46    1.44
  -6   1  -1   21.61    1.44
  -6  -1   1   20.65    1.48
   6  -1  -1   20.10    1.46
  -6  -1   1   19.45    1.44
   6   1  -1   18.32    1.45
  -6   1   1   19.63    1.44
   6   1  -1   20.35    1.44
  -6  -1  -1   21.36    1.43
   6  -1  -2   52.64    3.56
   6  -1  -2   48.78    3.52
  -6  -1   2   54.10    3.57
  -6  -1   2   46.83    3.51
   6   1  -2   50.61    3.52
  -6   1   2   48.31    3.52
   6   1  -2   47.46    3.55
   6  -1  -3  158.00   11.37
   6  -1  -3  161.97   11.41
  -6  -1   3  181.79   11.42
  -6   1  -3  163.65   11.36
   6   1  -3  160.36   11.41
  -6   1   3  147.98   11.35
   6   1  -3  159.85   11.37
   6  -1   3  159.08   11.38
   6  -1  -4  127.80    8.18
  -6  -1   4  120.75    8.22
  -6   1  -4  119.74    8.17
   6  -1  -4  114.71    8.22
  -6  -1   4  113.21    8.15
   6   1  -4  101.53    8.17
  -6  -1  -4  116.52    8.17
   6  -1   4  114.59    8.18
   6   1  -4  119.06    8.23
  -6  -1  -4  107.81    8.14
   6  -1  -5   11.76    1.10
  -6   1  -5   11.19    1.27
  -6   1  -5   14.02    0.99
  -6   1   5   13.16    0.99
   6   1  -5   10.60    1.08
   6  -1   5   11.16    1.22
   6   1  -5   12.64    1.35
  -6  -1  -5   12.80    1.18
  -6  -1  -5   12.94    0.99
  -6  -1   6    3.34    0.39
  -6   1  -6    2.22    0.61
  -6  -1   6    2.29    0.33
  -6   1   6    2.51    0.36
  -6  -1  -6    2.49    0.54
   6  -1  -7   43.17    3.08
  -6  -1   7   38.65    3.07
  -6  -1   7   47.22    3.07
   6   1   7   42.20    3.07
  -6   1   7   46.41    3.07
   6  -1   7   39.11    3.06
  -6   1   7   39.90    3.08
  -6  -1  -7   48.63    3.15
   6   1  -7   43.09    3.08
   6   1   8   13.60    0.94
  -6  -1   8   11.23    0.97
   6  -1  -8   12.13    0.98
  -6   1  -8   12.73    1.15
  -6  -1   8   12.82    0.96
   6  -1   8   13.24    0.94
  -6  -1  -8   11.58    1.10
  -6   1   8   12.18    0.96
  -6   1   8   13.22    0.96
   6   1  -8   11.98    0.97
   6  -1  -9    7.68    0.72
  -6  -1   9    9.07    0.69
   6   1   9    9.37    0.67
   6   1  -9    7.40    0.72
  -6   1   9    9.03    0.69
  -6   1   9    7.36    0.72
   6  -1   9    9.25    0.66
  -6  -1  -9    6.63    0.87
   6   1  10   -0.12    0.16
  -6   1 -10    0.73    0.44
  -6  -1  10   -0.09    0.18
  -6  -1  10    0.10    0.25
   6  -1 -10    0.19    0.22
   6   1 -10    0.13    0.23
   6  -1  10    0.01    0.16
  -6   1  10    0.48    0.25
  -6   1  10   -0.04    0.17
  -6  -1  11   21.30    1.56
   6  -1 -11   20.57    1.55
  -6   1 -11   22.93    1.61
  -6  -1  11   18.26    1.52
   6   1 -11   21.32    1.55
  -6   1  11   17.74    1.52
  -6   1  11   21.63    1.57
  -6  -1 -11   24.12    1.61
   6  -1  11   19.18    1.50
   6  -1 -12   20.81    1.50
  -6  -1  12   20.80    1.43
  -6   1 -12   17.38    1.48
   6   1 -12   19.68    1.48
  -6  -1 -12   18.87    1.49
  -6   2   0  141.72    9.78
   6  -2   0  137.75    9.78
  -6  -2   0  135.43    9.77
   6   2   0  141.88    9.77
  -6   2  -1    4.89    0.35
   6  -2  -1    4.58    0.35
  -6  -2   1    4.07    0.42
  -6   2  -1    3.90    0.35
  -6  -2   1    4.52    0.33
  -6   2   1    4.33    0.34
   6  -2   1    3.90    0.35
   6   2  -1    4.38    0.33
  -6   2  -2    1.49    0.22
  -6  -2   2    1.69    0.19
  -6  -2   2    1.82    0.33
   6  -2  -2    1.25    0.24
   6  -2  -2    1.34    0.18
   6   2  -2    1.38    0.28
   6  -2   2    1.19    0.20
   6   2  -2    1.65    0.18
  -6   2   2    1.44    0.17
  -6  -2   3   48.43    3.19
   6  -2  -3   44.22    3.12
  -6   2  -3   45.48    3.12
   6  -2  -3   42.47    3.16
  -6   2   3   42.88    3.10
   6   2  -3   43.75    3.12
   6  -2   3   44.06    3.13
   6   2  -3   45.12    3.17
  -6  -2  -3   37.73    3.09
   6  -2  -4  132.62   10.11
  -6   2  -4  154.30   10.07
   6  -2  -4  150.18   10.07
  -6  -2   4  148.29   10.11
  -6  -2  -4  132.90   10.04
  -6   2   4  143.02   10.04
   6  -2   4  132.13   10.08
  -6  -2  -4  154.07   10.07
   6   2  -4  135.28   10.12
  -6  -2   5    5.09    0.94
   6  -2  -5    6.28    0.95
  -6   2  -5    8.42    1.08
   6   2  -5    6.33    1.01
  -6   2   5    8.50    0.68
  -6  -2  -5    6.99    0.62
   6   2  -5    5.91    0.79
  -6   2   5    7.98    0.70
  -6  -2  -5    6.51    0.89
   6  -2  -6    3.24    0.44
  -6  -2   6    3.69    0.42
  -6   2  -6    2.85    0.63
  -6   2   6    3.38    0.39
  -6  -2  -6    3.77    0.78
  -6   2  -7    4.62    0.84
  -6  -2   7    4.48    0.41
   6   2   7    3.12    0.40
   6  -2  -7    5.08    0.88
   6  -2  -7    3.66    0.46
  -6  -2   7    3.46    0.39
  -6   2   7    3.02    0.43
  -6  -2  -7    4.19    0.66
   6  -2   7    3.16    0.35
  -6  -2   8   56.52    4.03
  -6  -2   8   54.69    4.03
   6  -2  -8   56.25    4.04
   6  -2  -8   53.21    4.32
  -6   2  -8   60.41    4.12
   6   2   8   59.25    4.02
  -6  -2  -8   56.66    4.08
  -6   2   8   58.08    4.03
   6   2  -8   55.16    4.04
  -6   2   8   56.48    4.03
   6  -2   8   56.72    4.01
  -6  -2   9   11.59    0.84
  -6   2  -9    8.77    1.06
   6   2   9   11.72    0.83
   6  -2  -9   11.42    0.87
  -6  -2   9    9.40    0.87
  -6   2   9   11.32    0.85
  -6   2   9    9.54    0.86
  -6  -2  -9    9.15    0.97
   6  -2   9   12.47    0.82
   6   2  -9   10.09    0.88
  -6   2 -10    0.90    0.44
  -6  -2  10    0.65    0.22
  -6  -2  10    0.67    0.27
   6  -2 -10    0.53    0.26
  -6   2  10    0.42    0.33
  -6   2  10    0.84    0.22
   6  -2  10    0.70    0.17
  -6  -2 -10    0.52    0.37
   6   2 -10    0.17    0.25
  -6   2 -11    9.79    0.90
  -6  -2  11    9.41    0.85
   6  -2 -11    9.74    0.82
  -6  -2  11    9.29    0.78
  -6  -2 -11   10.50    0.90
   6  -2  11    9.09    0.75
   6   2 -11    9.72    0.83
  -6   2  11    9.91    0.89
   6  -2 -12    7.84    0.97
  -6  -2  12    8.34    0.66
   6   2 -12    7.49    0.86
  -6  -2 -12    7.75    0.76
  -6  -3   0  176.21   13.28
   6   3   0  197.21   13.28
   6  -3   0  188.38   13.29
  -6   3   0  194.72   13.28
  -6   3  -1   57.66    3.92
   6  -3  -1   55.37    3.93
  -6  -3   1   54.69    3.92
  -6  -3   1   57.28    3.91
  -6   3  -1   58.53    3.92
   6  -3  -1   54.03    3.92
   6  -3   1   56.57    3.92
  -6   3   1   52.92    3.91
   6   3  -1   53.57    3.92
   6   3  -1   53.77    3.90
  -6  -3   2    0.43    0.24
  -6   3  -2    0.30    0.17
   6  -3  -2    0.48    0.14
   6   3  -2    0.63    0.13
  -6   3   2    0.38    0.13
   6  -3   2    0.34    0.16
   6   3  -2    0.36    0.18
  -6  -3   3   62.73    4.31
   6  -3  -3   56.45    4.25
  -6   3  -3   62.99    4.26
   6  -3  -3   61.21    4.29
   6   3  -3   64.37    4.30
  -6  -3  -3   61.37    4.25
   6   3  -3   52.86    4.26
  -6  -3  -3   58.97    4.23
   6  -3   3   63.83    4.26
  -6   3   3   55.19    4.24
   6  -3  -4   63.89    4.82
   6  -3  -4   71.86    4.76
  -6  -3   4   64.11    4.84
  -6  -3  -4   63.03    4.92
   6   3  -4   65.13    4.85
  -6  -3  -4   70.84    4.72
   6  -3   4   64.17    4.79
  -6   3   4   70.35    4.76
  -6  -3   5    3.12    0.43
   6  -3  -5    3.35    0.94
   6  -3  -5    3.05    0.48
  -6   3   5    3.07    0.44
   6  -3   5    3.74    0.36
  -6  -3  -5    3.89    0.45
   6  -3  -6    1.77    0.52
   6  -3  -6    2.01    0.41
   6  -3   6    1.38    0.25
   6  -3  -7   47.47    2.99
   6   3   7   36.17    2.89
   6  -3  -7   40.84    2.92
  -6   3   7   37.03    2.90
   6  -3  -8   49.81    3.72
  -6  -3   8   49.29    3.47
   6  -3  -8   47.84    3.48
  -6   3  -8   48.27    3.56
   6   3   8   51.56    3.46
  -6  -3   8   48.98    3.46
   6  -3   8   50.30    3.45
  -6   3   8   47.65    3.47
  -6  -3  -8   42.86    3.50
  -6   3   8   49.58    3.47
  -6   3  -9   29.23    2.33
  -6  -3   9   30.84    2.22
  -6  -3   9   30.27    2.23
   6  -3  -9   30.66    2.23
  -6   3   9   32.80    2.23
  -6   3   9   30.44    2.22
  -6  -3  -9   27.98    2.27
   6  -3   9   33.42    2.20
   6   3  -9   30.57    2.23
   6  -3 -10    1.08    0.40
  -6   3 -10    0.56    0.47
  -6  -3  10    0.98    0.37
  -6  -3 -10    0.78    0.46
  -6   3  10    0.78    0.34
  -6  -3  11   14.85    1.26
  -6  -3  11   17.19    1.31
  -6   3 -11   20.02    1.36
   6  -3 -11   16.20    1.29
   6   3 -11   18.33    1.30
  -6   3  11   17.31    1.34
   6  -3  11   15.04    1.24
   6  -3 -12    7.97    0.69
  -6  -3 -12    6.54    0.74
   6   3 -12    7.28    0.76
  -6  -4   0  115.08    8.29
   6  -4   0  117.21    8.31
   6   4   0  121.40    8.30
   6  -4  -1    1.04    0.17
   6  -4  -1    0.86    0.22
  -6   4  -1    0.96    0.17
  -6  -4   1    0.71    0.19
  -6   4  -1    0.89    0.20
   6   4  -1    0.75    0.11
  -6   4   1    1.04    0.16
   6  -4   1    0.99    0.19
  -6  -4  -1    0.83    0.15
   6  -4  -2    1.70    0.23
   6  -4  -2    2.01    0.35
  -6  -4   2    2.06    0.34
  -6   4  -2    1.54    0.32
   6   4  -2    2.11    0.35
  -6  -4  -2    1.81    0.26
  -6   4   2    1.72    0.21
   6   4  -2    2.11    0.22
   6  -4   2    1.75    0.29
   6  -4  -3  147.30   10.41
  -6   4  -3  151.15   10.43
  -6  -4   3  150.12   10.46
  -6  -4  -3  146.79   10.42
   6   4  -3  154.62   10.45
  -6  -4  -3  146.42   10.41
   6  -4   3  152.76   10.43
   6   4  -3  129.86   10.41
  -6   4   3  151.86   10.41
  -6   4  -4  200.63   13.70
   6  -4  -4  194.29   13.73
  -6  -4   4  192.13   13.74
   6  -4  -4  192.07   13.67
  -6   4   4  184.65   13.65
  -6  -4  -4  189.95   13.69
   6   4  -4  206.50   13.74
  -6  -4  -4  199.94   13.68
  -6  -4  -4  179.06   13.64
   6  -4   4  201.34   13.70
  -6  -4   5   43.98    3.34
   6  -4  -5   39.25    3.70
   6  -4  -5   47.52    3.37
  -6   4  -5   48.61    3.43
  -6  -4  -5   48.77    3.42
   6  -4   5   49.94    3.34
  -6   4   5   50.78    3.40
  -6   4   5   45.42    3.36
   6  -4  -6   17.88    1.40
  -6  -4   6   18.91    1.42
  -6  -4   6   17.69    1.37
  -6   4  -6   15.78    1.57
  -6   4   6   19.34    1.41
  -6   4   6   19.96    1.39
   6  -4   6   20.58    1.35
  -6  -4  -6   16.58    1.52
  -6  -4   7    1.78    0.29
   6  -4  -7    0.52    0.44
   6  -4  -7    1.26    0.27
  -6  -4   7    0.97    0.22
  -6   4  -7    1.17    0.50
  -6  -4  -7    1.27    0.60
   6  -4   7    1.42    0.27
  -6   4   7    1.78    0.37
   6  -4  -8   53.56    3.80
  -6   4  -8   56.04    3.88
  -6  -4   8   51.41    3.78
  -6  -4   8   53.75    3.78
  -6   4   8   52.64    3.79
  -6  -4  -8   49.44    3.82
   6  -4   8   54.53    3.77
  -6   4   8   53.46    3.78
   6  -4  -9    3.64    0.48
  -6  -4   9    3.36    0.48
  -6  -4   9    4.01    0.43
  -6   4  -9    3.36    0.74
  -6  -4  -9    3.26    0.59
   6   4  -9    3.68    0.50
  -6   4   9    3.77    0.48
   6  -4 -10    2.16    0.40
  -6   4 -10    1.59    0.47
  -6  -4  10    0.88    0.27
  -6   4  10    2.22    0.46
   6  -4  10    1.30    0.28
  -6  -4  11   15.13    1.26
  -6   4 -11   16.80    1.32
  -6  -4  11   15.25    1.23
   6  -4 -11   16.53    1.26
  -6  -4 -11   18.29    1.29
   6   4 -11   18.00    1.27
   6  -4  11   15.68    1.21
  -6  -5   0  331.51   24.65
  -6   5   0  363.05   24.63
   6  -5   0  357.97   24.65
  -6  -5   1   74.17    5.30
  -6   5  -1   80.23    5.32
  -6   5  -1   72.34    5.29
   6  -5  -1   74.66    5.31
  -6   5   1   67.19    5.28
  -6  -5  -1   76.40    5.29
   6  -5   1   74.82    5.30
   6   5  -1   79.23    5.31
   6  -5  -2    5.93    0.51
   6  -5  -2    6.31    0.62
  -6  -5   2    6.75    0.61
  -6   5  -2    6.12    0.61
  -6   5  -2    5.88    0.51
  -6  -5  -2    6.11    0.55
   6   5  -2    6.71    0.50
   6   5  -2    5.20    0.61
   6  -5   2    5.91    0.58
  -6   5   2    6.67    0.50
  -6  -5   3   73.96    5.05
  -6   5  -3   71.15    5.06
   6  -5  -3   66.06    4.99
   6  -5  -3   69.64    5.05
  -6  -5  -3   68.90    5.00
  -6   5   3   70.32    4.98
   6  -5   3   71.63    5.02
   6   5  -3   71.70    5.04
  -6  -5   4   37.89    2.79
  -6  -5   4   35.29    2.48
   6  -5  -4   32.65    2.68
  -6   5  -4   34.86    2.74
   6  -5  -4   35.03    2.49
   6  -5  -4   31.39    2.69
   6  -5  -4   34.22    2.55
   6  -5   4   36.61    2.47
   6   5  -4   35.50    2.76
  -6   5   4   34.97    2.51
  -6   5   4   33.34    2.50
  -6   5  -5    7.25    1.37
  -6  -5   5    8.44    0.84
   6  -5  -5    9.68    0.66
   6  -5  -5    7.88    0.75
  -6  -5   5    8.13    0.70
  -6   5   5    6.67    0.74
   6  -5   5    9.74    0.67
  -6  -5   6    4.25    0.52
  -6   5  -6    6.18    0.88
  -6  -5   6    5.82    0.52
   6  -5  -6    4.38    0.55
   6  -5  -6    3.60    0.80
   6  -5  -7   28.98    2.35
  -6  -5   7   34.80    2.34
   6  -5  -7   31.31    2.64
  -6  -5  -7   35.81    2.40
  -6   5   7   35.40    2.35
   6  -5   7   27.52    2.31
  -6  -5   8   37.84    2.73
   6  -5  -8   38.13    2.76
  -6   5  -8   36.35    2.85
  -6  -5   8   38.87    2.73
  -6  -5  -8   35.78    2.78
  -6   5   8   39.20    2.74
   6  -5   8   40.04    2.72
  -6  -5   9   16.37    1.17
  -6   5  -9   13.19    1.32
   6  -5  -9   15.25    1.20
  -6  -5   9   14.56    1.18
   6  -5   9   17.48    1.15
  -6  -5  -9   14.77    1.24
  -6   5   9   15.20    1.19
   6   5  -9   15.65    1.20
   6  -5 -10    2.35    0.43
  -6  -5  10    2.91    0.39
  -6   5 -10    2.81    0.63
   6   5 -10    2.96    0.45
  -6  -5 -10    2.28    0.52
  -6   5  10    2.60    0.51
  -6   5 -11   10.94    0.92
  -6  -5  11    9.78    0.87
   6  -5 -11   11.28    0.86
  -6  -5  11    9.99    0.82
   6  -5  11    9.74    0.80
   6   5 -11   11.06    0.86
   6  -6   0  237.44   16.84
   6   6   0  249.90   16.83
  -6  -6   0  231.84   16.82
  -6   6   0  237.63   16.81
  -6  -6   1   85.36    6.28
  -6   6  -1   93.90    6.27
  -6   6  -1   91.25    6.30
   6  -6  -1   86.54    6.30
   6   6  -1   90.09    6.29
   6  -6   1   83.93    6.28
  -6   6   1   89.57    6.26
  -6   6  -2    1.27    0.44
   6  -6  -2    0.78    0.22
  -6  -6   2    1.46    0.36
   6  -6  -2    0.71    0.37
  -6   6   2    0.79    0.19
   6   6  -2    1.06    0.39
   6   6  -2    1.29    0.23
   6  -6   2    0.91    0.33
  -6  -6  -2    0.77    0.30
   6  -6  -3   16.36    1.46
  -6   6  -3   18.14    1.42
  -6  -6   3   19.87    1.50
   6  -6  -3   15.40    1.29
   6  -6   3   17.67    1.52
  -6   6   3   16.51    1.30
  -6  -6  -3   15.57    1.35
  -6   6   3   17.58    1.28
   6   6  -3   17.82    1.45
  -6   6  -4  126.35    8.83
  -6  -6   4  122.97    8.80
   6  -6  -4  119.35    8.96
  -6   6  -4  125.41    8.81
   6  -6  -4  128.26    8.80
   6  -6  -4  124.65    8.81
  -6   6   4  124.45    8.83
   6  -6   4  128.91    8.80
  -6  -6   5    0.26    0.17
   6  -6  -5    0.60    0.16
  -6   6  -5    0.49    0.20
   6  -6  -5    0.51    0.21
  -6  -6   5    0.71    0.28
   6  -6  -5    0.41    0.38
  -6   6  -5    1.00    0.37
  -6   6   5    0.51    0.25
  -6  -6  -5    0.06    0.44
   6  -6   5    0.63    0.15
   6  -6  -6    1.00    0.32
   6  -6  -6    1.10    0.44
  -6  -6   6    0.95    0.38
  -6  -6   6    1.35    0.27
  -6  -6  -6    0.52    0.38
  -6  -6   7   12.66    0.99
   6  -6  -7   11.15    1.01
   6  -6  -7   12.71    1.18
  -6   6  -7   13.56    1.24
  -6  -6   7   10.10    0.96
  -6  -6  -7   14.54    1.08
  -6   6   7   13.77    1.01
   6  -6   7   11.00    0.94
  -6   6  -8   42.76    3.20
  -6  -6   8   41.58    3.08
   6  -6  -8   42.14    3.11
  -6  -6   8   42.22    3.09
  -6   6   8   44.47    3.10
  -6  -6  -8   44.43    3.14
   6  -6   8   44.15    3.08
   6  -6  -9   19.33    1.40
  -6  -6   9   17.02    1.37
  -6  -6   9   21.12    1.38
  -6   6  -9   15.09    1.50
   6  -6   9   21.05    1.36
  -6  -6  -9   16.61    1.43
  -6   6   9   17.69    1.39
  -6  -6  10    0.76    0.20
  -6   6 -10    1.20    0.40
  -6  -6  10    0.42    0.24
   6  -6 -10    0.86    0.23
  -6  -6 -10    0.67    0.29
  -6   6  10    0.49    0.30
   6   6 -10    0.52    0.24
   6  -6  10    0.69    0.16
  -6   6 -11    2.16    0.44
  -6  -6  11    3.17    0.37
   6  -6 -11    2.10    0.42
  -6  -6  11    1.77    0.41
  -6  -6 -11    2.68    0.45
   6   6 -11    3.22    0.43
   6  -6  11    2.46    0.33
  -6  -7   0   73.31    5.35
   6   7   0   77.66    5.37
   6  -7   0   74.53    5.38
   6  -7  -1   59.23    4.46
  -6   7  -1   65.10    4.41
  -6  -7   1   61.99    4.44
  -6   7  -1   62.85    4.46
  -6  -7  -1   62.20    4.44
   6  -7   1   60.40    4.45
   6   7  -1   61.96    4.46
  -6   7  -2   17.00    1.24
  -6   7  -2   16.26    1.40
  -6   7  -2   18.05    1.25
   6  -7  -2   15.30    1.20
   6  -7  -2   17.99    1.42
  -6  -7   2   18.77    1.45
   6  -7  -2   13.98    1.21
  -6   7  -2   16.75    1.26
   6  -7   2   15.41    1.19
  -6   7   2   16.52    1.21
  -6   7   2   17.32    1.25
  -6   7  -3  136.21    9.40
  -6  -7   3  133.14    9.39
   6  -7  -3  127.55    9.40
  -6  -7   3  137.12    9.39
   6  -7  -3  125.62    9.40
  -6   7  -3  147.55    9.42
  -6   7   3  145.76    9.41
   6   7  -3  118.94    9.42
  -6   7   3  137.71    9.43
   6  -7   3  126.32    9.39
   6  -7  -4  114.18    7.90
   6  -7  -4  108.00    7.90
  -6   7  -4  113.88    7.92
  -6  -7   4  103.42    7.92
  -6   7  -4  113.84    7.89
  -6  -7   4  109.64    7.88
  -6  -7  -4  115.67    7.96
  -6   7   4  115.90    7.91
   6   7  -4  110.58    7.92
   6  -7   4  114.62    7.88
  -6   7  -5   19.83    1.40
   6  -7  -5   17.39    1.49
   6  -7  -5   20.54    1.42
  -6   7  -5   20.25    1.51
  -6  -7   5   17.58    1.44
  -6  -7   5   19.64    1.39
  -6   7   5   16.83    1.44
  -6  -7  -5   16.88    1.50
   6  -7   5   21.15    1.38
  -6   7  -6    1.18    0.49
   6  -7  -6    1.15    0.45
  -6   7   6    1.68    0.30
  -6  -7  -6    1.24    0.40
  -6  -7   7   18.99    1.35
   6  -7  -7   16.40    1.38
  -6   7   7   19.76    1.38
   6  -7   7   16.08    1.32
  -6  -7   8    7.64    0.66
  -6   7  -8    5.62    0.99
   6  -7  -8    8.15    0.73
  -6  -7   8    7.66    0.69
  -6   7   8    7.79    0.71
   6  -7   8    8.03    0.64
  -6  -7  -8    7.45    0.79
  -6  -7   9   12.96    0.93
  -6  -7   9   10.23    1.12
   6  -7  -9   12.29    0.96
  -6   7   9   10.68    0.95
  -6  -7  10    0.51    0.19
  -6  -7  10    0.57    0.23
   6  -7 -10    0.40    0.21
   6   7 -10    0.31    0.22
  -6   7  10    0.46    0.31
   6  -7  10    0.17    0.14
  -6  -7  11    9.55    0.84
  -6  -7  11    9.08    0.81
   6  -7 -11    9.70    0.85
  -6   7 -11    9.85    0.96
   6   7 -11   11.32    0.81
   6  -7  11    9.18    0.78
  -6  -8   0   88.92    6.08
  -6   8   0   84.75    6.07
  -6  -8   0   85.86    6.07
   6  -8   0   83.67    6.07
  -6   8   0   87.50    6.11
  -6  -8   1   54.16    3.97
  -6   8  -1   56.92    4.04
   6  -8  -1   57.06    3.98
  -6   8  -1   56.71    3.99
  -6   8  -1   57.58    3.98
  -6  -8   1   56.28    3.98
  -6   8   1   55.07    3.98
   6  -8   1   56.73    3.98
  -6   8   1   57.17    4.02
  -6  -8  -1   54.86    3.99
  -6   8  -2    5.52    0.68
  -6  -8   2    5.12    0.48
  -6  -8   2    5.02    0.50
  -6   8   2    5.74    0.51
  -6   8   2    5.66    0.68
  -6  -8  -2    5.66    0.52
   6  -8  -3   14.52    1.12
  -6  -8   3   14.69    1.07
   6  -8  -3   13.74    1.08
  -6   8  -3   14.99    1.08
  -6   8  -3   15.39    1.12
  -6   8   3   15.73    1.10
   6  -8   3   13.67    1.06
   6  -8   3   13.86    1.11
   6  -8  -4   64.12    4.46
  -6  -8   4   60.85    4.44
  -6   8  -4   62.20    4.48
  -6   8  -4   62.75    4.45
   6  -8  -4   60.29    4.47
   6   8  -4   61.35    4.48
   6  -8   4   63.60    4.44
  -6   8   4   64.33    4.47
  -6  -8  -4   65.79    4.49
  -6  -8   5    2.11    0.34
   6  -8  -5    2.07    0.37
   6  -8  -5    2.15    0.40
  -6   8  -5    2.60    0.35
  -6  -8  -5    1.47    0.46
   6  -8   5    2.34    0.27
  -6   8   5    1.86    0.32
   6  -8  -6    2.62    0.72
   6  -8  -6    3.40    0.51
  -6  -8   6    4.65    0.46
  -6   8  -6    4.67    0.84
  -6  -8  -6    4.08    0.65
  -6   8   6    3.39    0.56
  -6  -8   7   16.92    1.29
  -6   8  -7   18.17    1.49
   6  -8  -7   15.14    1.33
  -6  -8   7   16.90    1.30
  -6  -8  -7   18.12    1.39
   6  -8   7   16.26    1.27
  -6   8   7   17.36    1.32
  -6  -8   8   45.99    3.38
  -6   8  -8   46.42    3.46
   6  -8  -8   47.84    3.41
  -6  -8   8   44.97    3.37
  -6  -8  -8   49.49    3.42
  -6   8   8   49.41    3.39
   6  -8   8   46.53    3.36
  -6   8  -9   19.36    1.68
  -6  -8   9   23.77    1.59
  -6  -8   9   19.47    1.58
   6  -8  -9   22.40    1.61
   6  -8   9   24.43    1.57
  -6  -8  -9   20.46    1.62
  -6   8   9   20.69    1.60
  -6  -8  10    0.50    0.23
  -6  -8  10    0.37    0.20
   6  -8 -10    0.69    0.23
   6   8 -10    0.34    0.21
   6  -8  10    0.54    0.15
  -6  -8 -10    0.64    0.24
   6  -9   0   41.09    3.04
  -6  -9   0   41.31    3.03
  -6   9   0   44.12    3.05
   6  -9   0   44.49    3.03
  -6  -9   0   42.43    3.03
  -6   9   0   42.35    3.03
   6  -9  -1   41.81    2.90
   6  -9  -1   40.06    2.91
  -6   9  -1   40.44    2.90
  -6  -9   1   40.37    2.89
  -6  -9   1   40.28    2.90
  -6   9   1   43.95    2.93
  -6  -9  -1   40.14    2.90
   6  -9   1   40.20    2.90
  -6   9   1   40.52    2.90
   6  -9   1   39.98    2.90
  -6  -9   2   12.78    0.94
  -6   9  -2   12.60    0.95
  -6  -9   2   12.36    0.94
  -6   9  -2   13.20    0.99
   6  -9  -2   11.87    0.94
  -6   9   2   13.79    1.02
  -6  -9  -2   13.28    0.97
   6  -9   2   11.74    0.94
  -6   9   2   13.13    0.96
  -6  -9   3   55.44    3.87
   6  -9  -3   50.40    3.88
  -6   9  -3   61.14    3.91
  -6  -9  -3   61.15    3.90
   6   9  -3   48.63    3.90
  -6   9   3   60.08    3.90
   6  -9   3   49.51    3.87
   6  -9   3   54.88    3.88
  -6   9   3   51.12    3.92
  -6   9  -4   92.03    6.52
  -6  -9   4   86.35    6.52
  -6   9  -4   91.23    6.55
   6  -9  -4   93.27    6.53
  -6  -9   4   89.81    6.50
  -6   9   4   97.79    6.54
   6  -9   4   91.94    6.50
  -6  -9  -4   91.53    6.58
   6   9  -4   96.24    6.54
  -6   9  -5   17.40    1.39
  -6  -9   5   16.58    1.22
  -6  -9   5   14.78    1.28
   6  -9  -5   17.23    1.26
  -6   9  -5   16.91    1.24
  -6   9   5   14.51    1.28
  -6  -9  -5   16.37    1.32
  -6   9   5   17.19    1.30
   6  -9   5   16.92    1.21
  -6  -9   6    2.54    0.40
   6  -9  -6    2.52    0.47
  -6  -9   6    2.59    0.52
   6  -9   6    2.88    0.34
  -6   9  -7   15.43    1.26
  -6  -9   7   11.60    1.03
   6  -9  -7   11.24    1.07
  -6  -9   7   13.86    1.04
   6  -9   7   11.12    1.00
  -6  -9  -7   14.36    1.14
  -6   9   7   15.00    1.08
   6  -9  -8    5.26    0.92
  -6   9  -8    3.58    1.01
  -6  -9   8    5.50    0.55
  -6  -9   8    5.04    0.83
  -6   9   8    5.83    0.71
  -6  -9  -8    5.36    0.78
  -6  -9   9   13.49    0.94
   6  -9  -9   13.27    0.96
  -6  -9   9   10.46    0.92
  -6   9  -9   10.53    1.06
   6  -9   9   13.49    0.90
  -6  -9  -9   10.48    0.95
  -6   9   9   10.93    0.97
  -6  -9  10    0.33    0.20
  -6   9 -10    0.21    0.57
  -6  -9  10    1.00    0.24
   6  -9 -10    0.21    0.21
   6  -9  10    0.65    0.15
   6   9 -10    0.81    0.21
   6 -10   0   74.15    5.31
  -6 -10   0   75.50    5.31
  -6  10   0   81.07    5.33
   6 -10   0   71.14    5.30
  -6 -10   0   75.83    5.30
  -6  10   0   73.01    5.31
  -6 -10   1   15.45    1.12
   6 -10  -1   14.90    1.12
  -6 -10   1   14.89    1.12
  -6  10  -1   15.20    1.13
  -6  10  -1   14.78    1.16
   6 -10  -1   15.17    1.12
  -6 -10  -1   14.71    1.12
  -6 -10  -1   14.82    1.13
   6 -10   1   16.78    1.12
  -6  10   1   15.50    1.13
   6 -10   1   14.32    1.12
  -6  10   1   16.58    1.19
   6 -10   2    2.03    0.33
  -6 -10  -2    1.88    0.33
  -6  10   2    2.61    0.49
  -6  10  -3   51.27    3.62
  -6  10  -3   52.48    3.59
  -6 -10   3   50.81    3.58
   6 -10  -3   49.39    3.59
  -6 -10  -3   53.85    3.60
   6 -10   3   50.21    3.59
   6  10  -3   49.17    3.62
  -6  10   3   43.54    3.63
   6 -10   3   50.51    3.58
  -6  10   3   53.33    3.60
  -6  10  -4   75.27    5.29
  -6  10  -4   77.84    5.34
  -6 -10   4   67.14    5.30
  -6 -10   4   72.99    5.27
   6 -10  -4   75.46    5.30
  -6  10   4   77.39    5.31
   6  10  -4   73.14    5.32
   6 -10   4   72.18    5.28
  -6 -10  -4   81.47    5.32
  -6  10   4   74.05    5.33
  -6 -10   5   14.47    1.16
  -6 -10   5   14.39    1.09
  -6  10  -5   13.53    1.29
   6 -10  -5   16.76    1.14
  -6  10   5   12.10    1.16
   6 -10   5   16.25    1.09
  -6 -10  -5   14.69    1.19
  -6  10   5   13.74    1.23
   6 -10  -6    2.88    0.49
  -6 -10   6    3.73    0.45
  -6 -10   6    3.28    0.56
  -6  10  -6    3.97    0.83
  -6  10   6    3.14    0.56
   6 -10   6    4.19    0.41
  -6  10  -7    2.13    0.53
  -6 -10   7    2.41    0.43
   6 -10  -7    1.01    0.30
  -6 -10   7    1.52    0.29
   6 -10   7    1.63    0.32
  -6 -10   8   25.99    1.93
  -6  10  -8   27.13    2.03
   6 -10  -8   25.56    1.95
  -6 -10   8   25.03    1.92
  -6 -10  -8   27.63    1.96
  -6  10   8   27.53    1.94
   6 -10   8   26.55    1.91
  -6 -10   9    4.57    0.54
   6 -10  -9    6.20    0.58
  -6 -10   9    6.15    0.55
   6 -10   9    6.28    0.48
  -6 -10  -9    4.51    0.55
   6 -10 -10    0.64    0.21
  -6 -10  10    1.07    0.26
   6  10 -10    1.07    0.35
   6 -10  10    0.87    0.23
  -6 -11   0  169.35   11.78
   6 -11   0  170.21   11.78
   6 -11   0  154.58   11.77
  -6  11   0  161.67   11.78
  -6 -11   0  169.23   11.78
  -6  11   0  179.93   11.82
   6 -11  -1   44.70    3.35
   6 -11  -1   43.89    3.35
  -6 -11   1   49.28    3.35
  -6  11  -1   49.88    3.39
  -6  11  -1   45.49    3.36
  -6 -11   1   48.34    3.35
  -6  11   1   51.71    3.41
  -6 -11  -1   47.21    3.35
   6 -11   1   45.68    3.35
   6 -11   1   45.76    3.35
  -6 -11  -1   48.27    3.36
  -6  11   1   46.32    3.36
  -6  11  -2    6.19    0.62
  -6  11  -2    6.54    0.54
   6 -11  -2    6.68    0.52
  -6 -11   2    6.16    0.52
  -6 -11   2    6.51    0.52
   6 -11  -2    6.04    0.54
  -6 -11  -2    5.84    0.54
   6  11  -2    6.41    0.60
  -6  11   2    6.55    0.55
   6 -11   2    5.76    0.55
   6 -11   2    7.37    0.52
  -6  11   2    5.90    0.69
  -6  11  -3   18.47    1.35
   6 -11  -3   16.09    1.27
  -6  11  -3   17.88    1.28
  -6 -11   3   18.94    1.27
  -6 -11  -3   19.65    1.30
   6 -11   3   16.21    1.26
   6 -11   3   16.94    1.29
   6  11  -3   14.39    1.31
  -6  11   3   19.21    1.30
  -6  11   3   14.48    1.38
  -6 -11   4   10.60    0.85
   6 -11  -4   11.32    0.88
  -6  11  -4   10.57    1.04
  -6  11  -4   11.60    0.88
  -6 -11   4   10.30    0.93
  -6 -11  -4   11.57    0.91
  -6  11   4    9.88    1.03
  -6  11   4   11.56    0.92
   6  11  -4   11.44    0.92
   6 -11   4   11.44    0.84
  -6 -11   5   26.35    1.96
  -6 -11   5   26.09    1.92
  -6  11  -5   25.46    2.08
   6 -11  -5   28.95    1.95
  -6  11   5   22.44    1.96
  -6 -11  -5   26.84    1.98
   6 -11   5   28.72    1.91
   6  11   6    6.41    0.76
   6 -11  -6    8.03    0.71
  -6 -11   6    6.31    0.72
  -6 -11  -6    8.42    0.78
   6 -11   6    7.12    0.62
  -6 -11   7   18.83    1.60
  -6 -11   7   24.40    1.61
   6 -11  -7   19.07    1.63
  -6  11   7   24.08    1.63
  -6 -11   8   20.85    1.49
  -6 -11   8   20.24    1.48
   6 -11  -8   20.26    1.51
  -6  11  -8   17.97    1.59
  -6  11   8   19.00    1.50
   6 -11   8   21.47    1.46
  -6 -11  -8   20.52    1.51
  -6 -11   9   13.63    1.04
  -6 -11   9   12.36    1.02
   6 -11  -9   13.15    1.03
   6 -11   9   14.63    0.99
  -6 -11  -9   12.56    1.01
  -6  12   0   41.06    2.95
  -6 -12   0   41.24    2.94
  -6 -12   0   42.17    2.95
   6 -12   0   41.90    2.95
   6 -12   0   39.56    2.94
  -6  12   0   42.10    3.00
   6 -12  -1    3.77    0.36
  -6 -12   1    3.55    0.36
   6 -12  -1    3.58    0.37
  -6 -12   1    4.09    0.36
  -6  12  -1    3.68    0.52
  -6  12  -1    3.62    0.38
  -6 -12  -1    3.57    0.37
  -6 -12  -1    3.75    0.37
  -6  12   1    3.63    0.38
  -6  12   1    3.80    0.57
   6 -12   1    3.06    0.38
   6 -12   1    4.18    0.36
  -6 -12   2    6.58    0.52
  -6  12  -2    6.99    0.68
  -6  12  -2    5.84    0.52
   6 -12  -2    6.30    0.53
   6 -12  -2    5.06    0.51
  -6 -12  -2    6.90    0.53
  -6 -12  -2    6.60    0.53
   6 -12   2    6.48    0.54
   6 -12   2    5.15    0.50
  -6  12   2    5.66    0.74
  -6  12   2    5.79    0.54
   6 -12  -3   34.96    2.54
   6 -12  -3   35.43    2.54
  -6  12  -3   33.41    2.62
  -6 -12   3   36.58    2.53
  -6  12  -3   36.00    2.54
  -6 -12  -3   38.52    2.55
   6 -12   3   36.45    2.53
  -6  12   3   32.63    2.62
   6 -12   3   34.06    2.54
   6  12  -3   34.65    2.57
  -6  12   3   35.85    2.56
  -6  12  -4   39.10    3.03
   6 -12  -4   41.97    2.94
  -6  12  -4   43.39    3.01
  -6 -12   4   36.15    2.95
  -6 -12   4   41.80    2.92
   6 -12   4   42.23    2.92
  -6 -12  -4   43.90    2.95
  -6  12   4   38.65    2.95
   6  12  -4   40.55    2.96
  -6 -12   5   10.91    0.85
   6  12   5   12.58    0.93
  -6 -12   5    9.80    0.95
  -6  12  -5    8.87    1.12
   6 -12  -5   12.14    0.90
  -6  12   5    9.14    0.93
   6 -12   5   12.15    0.84
  -6 -12  -5   10.29    0.92
  -6 -12   6    0.61    0.26
  -6 -12   6    0.66    0.23
  -6  12  -6    0.33    0.45
   6  12   6    0.06    0.28
   6 -12  -6    0.25    0.22
  -6 -12  -6    0.42    0.28
  -6  12   6    0.18    0.27
   6 -12   6    0.31    0.17
   6 -12  -7    1.20    0.26
  -6 -12   7    1.16    0.26
   6 -12   7    1.54    0.31
  -6 -12   8   10.37    0.87
   6 -12  -8   11.16    0.88
  -6 -12   8   10.34    0.85
  -6 -12  -8   10.37    0.85
   6 -12   8   11.17    0.82
  -6  13   0   58.68    4.44
   6 -13   0   56.85    4.35
   6 -13   0   67.90    4.44
  -6 -13   0   62.14    4.36
  -6  13   0   61.70    4.37
  -6 -13   0   62.36    4.36
  -6  13  -1   31.77    2.26
   6 -13  -1   29.42    2.15
  -6  13  -1   30.31    2.16
  -6 -13   1   31.99    2.15
   6 -13  -1   28.65    2.14
  -6 -13   1   30.65    2.15
   6 -13   1   28.89    2.14
  -6 -13  -1   28.91    2.19
  -6  13   1   27.52    2.29
   6 -13   1   29.89    2.15
   6  13  -1   30.21    2.27
  -6  13   1   30.44    2.16
  -6  13  -2    1.16    0.42
  -6  13  -2    0.46    0.16
   6 -13  -2    0.43    0.14
   6 -13  -2    0.58    0.16
  -6 -13  -2    0.51    0.16
  -6 -13  -2    0.54    0.17
   6  13  -2    0.58    0.21
  -6  13   2    1.20    0.61
   6 -13   2    0.73    0.19
  -6 -13   3   29.08    2.01
   6 -13  -3   26.71    2.02
  -6  13  -3   28.20    2.02
   6 -13  -3   28.02    2.02
  -6  13  -3   28.99    2.19
   6 -13   3   26.61    2.07
  -6 -13  -3   29.57    2.03
  -6 -13  -3   30.68    2.02
   6 -13   3   26.59    2.00
   6  13  -3   24.73    2.04
  -6  13   3   27.31    2.04
  -6  13  -4   14.79    1.15
  -6 -13   4   15.05    1.13
   6 -13  -4   15.27    1.15
   6 -13  -4   16.15    1.16
  -6  13  -4   12.38    1.42
  -6 -13  -4   16.03    1.16
   6 -13   4   16.22    1.13
  -6 -13  -4   14.95    1.16
  -6  13   4   12.85    1.18
   6  13  -4   15.93    1.28
   6 -13  -5   11.76    1.06
   6  13   5   14.60    1.07
   6 -13  -5   14.43    1.05
  -6 -13   5   14.30    1.02
  -6  13  -5   12.55    1.26
  -6 -13   5   12.24    1.09
  -6 -13  -5   12.87    1.06
  -6  13   5   10.84    1.07
   6 -13   5   14.15    1.00
  -6 -13   6    4.35    0.57
   6 -13  -6    4.15    0.54
   6 -13  -6    4.20    0.60
  -6 -13   6    5.61    0.51
  -6  13  -6    4.88    0.89
   6 -13   6    4.45    0.46
  -6 -13  -6    4.73    0.56
  -6  13   6    5.20    0.60
  -6 -13   7   14.68    1.18
   6 -13  -7   14.93    1.19
  -6 -13   7   16.94    1.16
   6 -13  -7   14.39    1.18
   6 -13   7   13.56    1.13
  -6 -13  -7   16.76    1.17
  -6 -13   8    7.72    0.76
   6 -13  -8    8.31    0.69
   6 -13  -8    7.33    0.71
  -6 -13   8    8.66    0.70
  -6 -13  -8    7.44    0.68
   6 -13   8    9.03    0.64
  -6 -14   0   63.44    4.41
   6 -14   0   62.16    4.42
   6  14   0   64.50    4.50
   6 -14   0   58.43    4.41
  -6 -14   0   63.87    4.41
  -6  14   0   61.64    4.43
   6 -14  -1   22.02    1.59
  -6  14  -1   21.76    1.60
   6 -14  -1   20.41    1.58
  -6 -14   1   21.83    1.58
  -6  14  -1   20.78    2.06
   6 -14   1   19.84    1.59
   6 -14   1   22.92    1.59
   6  14  -1   25.07    1.67
  -6 -14  -1   21.64    1.59
  -6 -14  -1   21.63    1.59
  -6  14   1   22.39    1.61
   6 -14  -2    3.21    0.37
  -6  14  -2    3.59    0.40
  -6 -14  -2    3.91    0.39
   6 -14   2    3.95    0.36
   6 -14   2    2.81    0.51
   6  14  -2    2.60    0.45
  -6  14   2    4.20    0.45
   6 -14  -3   14.77    1.12
  -6  14  -3   16.95    1.58
   6  14   3   15.59    1.23
  -6 -14   3   16.01    1.20
   6 -14  -3   14.97    1.13
  -6  14  -3   14.57    1.18
  -6  14   3   14.02    1.16
   6 -14   3   13.77    1.13
   6  14  -3   13.52    1.15
  -6 -14  -3   15.41    1.17
  -6 -14  -3   15.12    1.15
   6 -14  -4   37.49    2.65
   6 -14  -4   35.92    2.64
  -6 -14   4   35.93    2.62
   6  14   4   40.80    2.69
  -6  14  -4   35.37    2.83
  -6 -14   4   33.26    2.67
   6 -14   4   36.93    2.62
  -6 -14  -4   40.35    2.65
   6  14  -4   33.40    2.65
  -6 -14  -4   37.43    2.65
  -6 -14   5    1.19    0.34
   6 -14  -5    1.08    0.24
   6  14   5    1.89    0.41
   6 -14  -5    0.85    0.26
  -6 -14   5    1.59    0.33
  -6 -14  -5    0.84    0.25
  -6 -14  -5    1.00    0.25
   6 -14  -6    2.55    0.50
   6 -14  -6    2.31    0.43
  -6 -14  -6    3.22    0.42
   6 -14   6    2.31    0.35
  -6 -14  -6    2.25    0.46
  -6 -14   7    4.74    0.62
   6 -14  -7    6.41    0.74
  -6 -14   7    5.41    0.60
   6 -14  -7    5.69    0.60
  -6 -14  -7    6.66    0.54
  -6 -14  -7    5.34    0.58
   6 -14   7    5.64    0.49
   6 -15   0    9.24    0.68
  -6  15   0    8.92    0.72
  -6 -15   0    8.95    0.69
   6 -15   0    7.89    0.71
   6  15   1   14.41    1.26
   6 -15  -1   14.44    1.14
  -6  15  -1   15.57    1.16
   6 -15  -1   15.97    1.14
  -6 -15   1   15.38    1.13
  -6 -15  -1   15.70    1.14
   6 -15   1   13.87    1.16
   6 -15   1   15.95    1.14
  -6 -15  -1   15.21    1.14
  -6  15   1   15.26    1.17
   6  15  -1   17.53    1.22
   6 -15  -2   10.92    0.83
  -6 -15   2   11.39    0.82
   6 -15  -2   10.29    0.83
  -6  15  -2    9.95    0.84
   6  15   2    9.41    0.95
  -6  15   2   10.62    0.88
   6  15  -2   11.25    0.88
  -6 -15  -2   11.48    0.83
   6 -15   2   10.28    0.81
  -6 -15  -2   11.09    0.82
   6 -15  -3   27.78    1.95
   6  15   3   26.56    2.01
   6 -15  -3   26.27    1.95
  -6 -15   3   29.21    1.93
  -6 -15  -3   28.88    1.95
  -6  15   3   22.59    1.98
   6 -15   3   25.74    1.93
   6  15  -3   24.25    1.96
  -6 -15  -3   30.01    1.95
  -6 -15   4   42.55    2.98
   6  15   4   47.38    3.04
   6 -15  -4   37.32    2.99
   6 -15  -4   43.17    3.00
  -6 -15  -4   44.45    2.99
  -6 -15  -4   40.14    2.99
  -6  15   4   36.06    3.01
   6 -15   4   42.95    2.98
   6  15  -4   42.44    3.02
  -6 -15   5    9.88    0.98
   6 -15  -5    9.11    0.91
  -6 -15   5   12.41    0.88
   6  15   5   11.57    0.91
   6 -15  -5   11.16    0.89
   6 -15   5   12.07    0.86
  -6 -15  -5   10.17    0.89
  -6 -15  -5   12.20    0.90
  -6 -15   6    3.89    0.54
   6 -15  -6    4.24    0.53
   6 -15  -6    3.71    0.46
  -6 -15   6    2.68    0.59
  -6 -15  -6    3.17    0.47
   6 -15   6    4.35    0.39
   6  16   0   33.92    2.44
   6 -16   0   30.66    2.36
  -6  16   0   34.03    2.39
  -6 -16   0   33.59    2.36
  -6 -16   1   22.61    1.65
  -6  16  -1   23.15    1.69
   6 -16  -1   23.67    1.66
   6 -16  -1   20.86    1.69
   6  16   1   21.74    1.75
   6 -16   1   23.10    1.66
  -6 -16  -1   23.13    1.66
  -6  16   1   22.06    1.70
   6  16  -1   26.59    1.73
   6 -16  -2    3.98    0.49
   6 -16  -2    3.40    0.37
   6  16   2    2.46    0.51
  -6 -16   2    3.97    0.36
   6  16  -2    3.45    0.44
  -6 -16  -2    3.73    0.38
   6 -16   2    2.79    0.33
  -6 -16  -2    3.62    0.37
  -6  16   2    3.03    0.52
  -6 -16   3    5.79    0.50
   6 -16  -3    5.66    0.52
   6  16   3    6.52    0.62
   6  16  -3    5.75    0.57
  -6 -16  -3    5.62    0.53
   6 -16   3    5.54    0.49
  -6 -16  -3    6.14    0.52
   6  16   4   19.32    1.33
   6 -16  -4   17.38    1.30
  -6 -16   4   17.43    1.28
  -6 -16  -4   18.01    1.29
   6 -16   4   16.96    1.27
  -6 -16  -4   15.46    1.30
  -6 -17   0   19.35    1.48
   6 -17   0   20.26    1.48
   6  17   0   22.07    1.56
   6 -17  -1   10.53    0.80
   6  17   1   10.23    0.91
  -6 -17   1   10.44    0.79
   6 -17   1   10.43    0.79
  -6  17   1    8.82    0.95
   6  17  -1   11.42    0.87
  -6 -17  -1   11.09    0.80
   6  17   2    0.81    0.26
  -6  17  -2    0.74    0.26
  -6 -17  -2    0.82    0.18
   6 -17   2    1.39    0.24
  -7   0   0    0.09    0.07
  -7   0  -1    2.37    0.22
   7   0  -1    2.53    0.22
   7   0  -1    2.31    0.40
  -7   0   1    2.38    0.22
   7   0  -2  329.09   23.04
  -7   0   2  327.37   23.03
   7   0  -3  195.73   13.30
  -7   0   3  180.37   13.23
   7   0  -3  188.92   13.25
   7   0  -4   39.59    2.63
   7   0  -4   32.10    2.51
  -7   0  -4   38.00    2.53
  -7   0   4   29.36    2.48
  -7   0  -5   64.62    4.52
   7   0  -5   65.73    4.58
  -7   0   5   60.73    4.45
  -7   0  -5   61.38    4.44
   7   0  -5   61.06    4.42
  -7   0   5   60.25    4.41
  -7   0   6   53.97    4.00
  -7   0  -6   53.52    4.12
   7   0  -6   58.32    4.00
  -7   0   6   58.96    3.98
  -7   0   7   17.27    1.42
  -7   0   7   21.10    1.44
   7   0   7   22.51    1.41
   7   0  -7   18.85    1.44
  -7   0  -7   16.87    1.57
  -7   0   8    3.85    0.40
  -7   0   8    2.99    0.40
   7   0  -8    2.93    0.40
   7   0   8    3.45    0.35
   7   0   9   12.34    1.02
  -7   0   9   12.89    1.04
   7   0  -9   16.14    1.07
   7   0 -10   26.12    2.11
  -7   0  10   28.03    2.12
  -7   0 -10   31.60    2.18
   7   0 -11    1.91    0.30
  -7   0 -11    1.83    0.41
  -7   0  11    1.74    0.26
  -7   0  11    2.08    0.33
  -7   0 -12   -0.21    0.34
   7   0 -12    0.10    0.28
   7   1   0    0.11    0.07
  -7  -1   0    0.14    0.07
  -7   1   0    0.08    0.08
  -7  -1   1   14.26    1.11
  -7   1  -1   15.61    1.12
   7  -1  -1   15.11    1.12
   7  -1  -1   17.48    1.16
  -7   1   1   14.77    1.12
   7   1  -1   15.29    1.11
  -7  -1  -1   16.14    1.11
   7   1  -1   15.67    1.12
  -7  -1   2  125.26    8.94
   7  -1  -2  134.99    9.00
  -7  -1   2  120.94    9.01
   7  -1  -2  127.45    8.99
   7   1  -2  127.51    8.95
  -7  -1   3   52.41    3.91
  -7  -1   3   58.93    3.99
   7  -1  -3   58.01    3.93
  -7   1  -3   53.73    3.91
   7  -1  -3   56.10    4.00
  -7   1   3   54.79    3.92
   7   1  -3   59.51    3.93
   7  -1   3   54.85    3.95
   7   1  -3   49.49    3.98
  -7  -1   4    4.37    0.43
   7  -1  -4    4.15    0.52
  -7   1  -4    4.38    0.59
   7  -1  -4    3.66    0.65
   7  -1   4    3.36    0.54
   7   1  -4    3.68    0.50
  -7   1   4    4.92    0.42
   7   1  -4    3.30    0.65
   7  -1  -5   29.63    2.27
  -7  -1   5   24.86    1.96
   7  -1  -5   24.13    1.98
  -7   1  -5   31.15    2.21
  -7   1   5   28.28    2.05
  -7  -1  -5   28.52    2.15
  -7  -1  -5   26.25    1.99
  -7   1   5   26.46    1.96
   7  -1  -6   87.01    5.88
  -7  -1   6   77.75    5.85
  -7  -1   6   86.61    5.87
  -7   1  -6   76.76    5.98
   7   1  -6   82.37    5.87
   7  -1   6   91.15    5.91
  -7   1   6   84.17    5.86
  -7  -1  -6   72.58    5.95
  -7   1   6   88.57    5.88
  -7   1  -7   21.60    1.91
   7   1   7   27.58    1.73
  -7  -1   7   20.43    1.74
  -7  -1   7   25.42    1.74
   7  -1  -7   24.59    1.74
  -7   1   7   20.97    1.74
  -7   1   7   26.70    1.75
  -7  -1  -7   21.26    1.83
   7   1  -7   22.63    1.73
   7  -1   7   26.06    1.71
  -7  -1   8    0.18    0.17
  -7   1  -8   -0.15    0.40
   7  -1  -8    0.11    0.18
   7   1   8   -0.07    0.15
  -7  -1   8    0.01    0.18
   7  -1   8    0.02    0.13
  -7  -1  -8    0.10    0.38
   7   1  -8    0.02    0.18
  -7   1   8    0.12    0.18
  -7   1   8    0.24    0.18
   7   1   9   12.93    1.03
  -7  -1   9   15.48    1.06
  -7  -1   9   12.52    1.04
   7  -1  -9   14.30    1.07
   7  -1   9   12.55    1.02
  -7   1   9   15.49    1.07
  -7   1   9   12.68    1.05
   7   1  -9   14.25    1.07
   7  -1 -10   17.84    1.54
  -7  -1  10   17.49    1.43
  -7   1 -10   19.27    1.52
  -7  -1 -10   19.51    1.50
  -7   1  10   18.42    1.54
   7   1 -10   17.60    1.48
  -7  -1  11    3.87    0.55
  -7   1 -11    3.46    0.64
  -7  -1  11    4.72    0.46
   7  -1 -11    4.60    0.51
   7   1 -11    4.82    0.52
  -7   1  11    4.61    0.46
  -7   1  11    3.75    0.59
  -7   1 -12    2.60    0.52
  -7  -1 -12    2.91    0.54
  -7   2   0    0.04    0.09
  -7  -2   0    0.00    0.07
   7  -2   0    0.28    0.11
  -7   2  -1    1.23    0.16
   7  -2  -1    1.01    0.21
  -7  -2   1    1.13    0.28
  -7  -2   1    1.03    0.13
   7  -2  -1    0.74    0.14
  -7   2  -1    1.21    0.18
   7  -2   1    1.03    0.17
   7   2  -1    1.07    0.18
  -7  -2  -1    1.19    0.13
   7   2  -1    1.11    0.13
  -7   2   1    0.86    0.14
   7  -2  -2  152.88   10.33
  -7  -2   2  141.42   10.30
  -7  -2   2  163.71   10.37
   7  -2  -2  142.24   10.31
   7  -2   2  142.62   10.30
   7   2  -2  143.01   10.30
  -7   2   2  140.70   10.31
  -7  -2   3  111.18    7.67
  -7   2  -3  102.36    7.66
   7  -2  -3  117.24    7.67
   7  -2  -3  100.74    7.71
  -7  -2   3  111.83    7.73
   7   2  -3  118.36    7.68
  -7   2   3  117.78    7.66
   7  -2   3   96.41    7.67
   7   2  -3  102.50    7.71
  -7  -2   4   18.59    1.43
   7  -2  -4   21.11    1.68
   7  -2   4   20.84    1.58
   7   2  -4   20.69    1.70
  -7  -2  -4   17.31    1.42
  -7  -2   5   42.72    3.31
  -7  -2   5   51.45    3.58
   7  -2  -5   44.41    3.67
   7  -2  -5   39.84    3.33
  -7  -2  -5   47.14    3.34
  -7   2   5   49.46    3.33
   7   2  -5   53.01    3.63
  -7  -2   6   57.44    3.92
   7  -2  -6   57.74    3.95
  -7   2  -6   57.37    4.16
  -7  -2   6   53.55    3.93
   7   2   6   50.65    3.94
  -7  -2  -6   52.23    4.01
   7  -2   6   55.00    3.91
  -7   2   6   59.39    3.93
  -7   2   6   54.62    3.95
  -7   2  -7    6.92    1.06
   7   2   7    9.31    0.72
  -7  -2   7    8.74    0.73
  -7   2   7    9.69    0.76
   7  -2   7    8.92    0.70
   7  -2  -8    0.64    0.21
   7   2  -8    0.40    0.19
  -7   2   8    0.83    0.21
   7  -2  -9   22.73    1.74
  -7  -2   9   20.23    1.72
  -7  -2   9   25.94    1.74
  -7   2  -9   26.71    1.88
   7   2  -9   24.19    1.75
  -7  -2  -9   26.33    1.83
   7  -2   9   20.91    1.70
  -7   2   9   21.44    1.73
  -7   2   9   25.08    1.74
  -7   2 -10   30.83    2.26
  -7  -2  10   28.05    2.15
  -7  -2 -10   29.62    2.27
  -7   2  10   27.88    2.16
  -7  -2  11    4.46    0.59
  -7  -2  11    5.43    0.50
   7  -2 -11    4.76    0.55
  -7   2  11    4.71    0.62
   7   2 -11    5.76    0.56
  -7  -2 -11    4.31    0.65
   7  -2  11    5.68    0.47
  -7   2 -12    0.13    0.43
  -7  -2  12    0.39    0.31
   7  -2 -12   -0.06    0.27
  -7  -2 -12    0.27    0.34
  -7   3   0    0.17    0.11
   7  -3  -1   56.97    4.05
  -7  -3   1   58.37    4.04
  -7  -3   1   60.29    4.06
   7  -3  -1   54.34    4.04
   7   3  -1   57.81    4.04
   7   3  -1   54.51    4.02
   7  -3   1   58.02    4.04
   7  -3  -2  104.39    7.48
  -7  -3   2  109.47    7.48
  -7  -3   2  106.71    7.51
  -7   3  -2  108.62    7.48
   7   3  -2  107.24    7.47
   7   3  -2  100.26    7.49
   7  -3   2  106.80    7.48
  -7   3   2  105.64    7.47
   7  -3  -3   31.17    2.32
   7  -3  -3   31.38    2.38
  -7  -3   3   32.19    2.42
  -7   3  -3   31.99    2.33
   7   3  -3   33.54    2.32
   7  -3   3   32.08    2.33
  -7  -3  -3   33.35    2.29
   7   3  -3   33.10    2.39
  -7   3   3   31.32    2.31
   7  -3  -4   14.93    1.11
   7  -3  -4   12.34    1.31
  -7   3  -4   12.11    1.17
  -7  -3   4   12.45    1.52
  -7  -3  -4   15.78    1.03
   7   3  -4   11.08    1.11
   7  -3   4   13.18    1.23
  -7   3   4   15.86    1.05
   7  -3  -5   14.28    1.21
   7  -3  -5   17.84    1.86
  -7  -3   5   15.79    1.19
  -7   3   5   15.59    1.20
  -7  -3  -5   17.90    1.23
   7  -3   5   14.65    1.16
   7  -3  -6   96.44    6.82
   7   3   6   81.07    6.79
  -7  -3   6   95.61    6.79
  -7  -3   6  100.13    6.80
  -7   3  -6   88.80    6.88
  -7  -3  -6   84.42    6.87
  -7   3   6  104.78    6.80
  -7   3   6  111.65    6.85
   7  -3   6  103.60    6.78
   7  -3  -7   36.37    2.52
  -7  -3   7   33.32    2.48
  -7  -3   7   34.88    2.49
  -7   3   7   36.19    2.49
  -7   3   7   36.39    2.53
   7  -3   7   34.95    2.48
  -7  -3  -7   30.27    2.56
   7  -3  -8    0.50    0.21
  -7  -3   8    1.11    0.22
   7   3  -8    0.77    0.21
   7  -3  -9    9.53    0.87
  -7  -3   9   11.92    0.88
  -7   3   9   11.05    0.87
   7   3  -9   10.41    0.87
  -7  -3  10   24.17    1.67
  -7   3 -10   22.34    1.87
   7  -3 -10   21.33    1.67
  -7  -3  10   21.54    1.65
   7  -3  10   21.97    1.63
  -7   3  10   23.01    1.67
   7   3 -10   23.66    1.68
  -7  -3 -10   22.42    1.80
  -7   3 -11    7.46    0.82
  -7  -3  11    7.20    0.76
   7  -3 -11    8.38    0.73
  -7  -3  11    9.33    0.70
   7   3 -11    8.75    0.74
   7  -3  11    9.55    0.66
  -7   3  11    7.77    0.79
  -7  -3 -11    7.89    0.80
  -7   3 -12    0.28    0.37
  -7  -3 -12    1.65    0.53
  -7  -4   0    0.44    0.14
   7  -4   0    0.31    0.18
  -7   4   0    0.25    0.13
   7   4   0    0.19    0.15
   7  -4  -1   10.21    0.78
  -7   4  -1   10.45    0.81
  -7  -4   1   10.10    0.80
   7  -4  -1    9.79    0.82
  -7   4  -1   10.89    0.78
   7  -4   1   10.70    0.80
   7   4  -1   10.31    0.81
  -7   4   1   10.07    0.77
  -7   4  -2  127.68    8.99
   7  -4  -2  122.36    8.99
  -7  -4   2  132.51    9.02
  -7   4  -2  136.18    9.00
   7  -4  -2  122.94    9.01
   7  -4   2  131.88    9.00
  -7   4   2  119.32    8.98
   7   4  -2  128.22    9.00
   7   4  -2  127.72    8.98
   7  -4  -3   99.76    6.43
  -7  -4   3   86.19    6.48
  -7   4  -3   83.57    6.44
   7  -4  -3   82.32    6.46
   7  -4  -3   90.52    6.47
   7   4  -3   88.47    6.46
   7   4  -3  104.10    6.43
  -7   4   3  102.62    6.42
  -7  -4  -3   83.53    6.42
   7  -4   3   87.11    6.44
  -7   4  -4    1.99    0.52
   7  -4  -4    1.60    0.67
  -7  -4   4    1.56    0.81
   7  -4  -4    0.85    0.36
  -7  -4  -4    1.70    0.38
  -7  -4  -4    1.70    0.44
  -7  -4  -4    1.12    0.53
   7   4  -4    1.77    0.73
   7   4  -4    1.31    0.42
   7  -4   5   37.01    2.57
  -7   4   5   34.64    2.62
  -7  -4   6   67.81    4.60
  -7  -4   6   59.29    4.60
  -7   4  -6   71.28    4.70
   7  -4  -6   58.53    4.61
  -7   4   6   72.96    4.61
   7  -4   6   61.58    4.58
  -7  -4  -6   70.78    4.68
  -7   4   6   56.42    4.62
  -7  -4   7   12.60    1.00
  -7   4  -7   12.40    1.28
   7  -4  -7   12.30    1.03
  -7   4   7   12.84    1.04
   7  -4   7   13.13    0.97
  -7   4   7   13.60    1.01
  -7  -4  -7   13.06    1.12
  -7  -4   8    0.45    0.20
   7  -4  -8    0.29    0.22
  -7   4  -8    0.84    0.48
  -7  -4   8    0.62    0.22
  -7   4   8    0.74    0.22
   7  -4   8    0.47    0.15
  -7   4   8    0.74    0.22
   7  -4  -9   20.01    1.49
  -7  -4   9   20.69    1.49
  -7   4  -9   20.70    1.62
  -7  -4   9   18.32    1.47
   7  -4   9   19.79    1.45
   7   4  -9   19.70    1.49
  -7  -4  -9   19.91    1.54
  -7   4   9   20.07    1.48
  -7  -4  10   30.11    2.32
  -7  -4  10   32.61    2.33
  -7   4 -10   32.68    2.42
   7  -4 -10   30.65    2.33
  -7   4  10   32.46    2.34
   7   4 -10   34.34    2.35
   7  -4  10   31.89    2.31
  -7  -4 -10   33.57    2.38
  -7  -4  11    7.95    0.61
  -7   4 -11    5.22    0.73
   7  -4 -11    6.40    0.63
  -7  -4  11    5.76    0.65
   7  -4  11    7.90    0.57
  -7  -4 -11    6.64    0.70
   7   4 -11    7.06    0.64
  -7   4  11    6.70    0.76
   7  -5   0    2.31    0.38
  -7  -5   0    2.34    0.31
   7   5   0    2.22    0.35
  -7   5  -1   39.16    2.79
   7  -5  -1   39.05    2.82
  -7   5  -1   42.10    2.82
   7  -5   1   38.56    2.81
  -7  -5  -1   38.57    2.79
  -7   5   1   37.23    2.78
   7  -5  -2   94.20    6.81
  -7   5  -2  100.44    6.79
   7  -5  -2   94.90    6.78
  -7   5  -2   98.24    6.81
  -7  -5   2   94.35    6.80
   7   5  -2   94.03    6.80
  -7  -5  -2   93.40    6.78
   7   5  -2  100.57    6.76
   7  -5   2   92.64    6.79
  -7   5   2   97.46    6.78
  -7   5  -3   42.82    3.15
  -7  -5   3   45.46    3.22
   7  -5  -3   41.83    3.18
   7  -5  -3   42.58    3.11
  -7  -5  -3   43.87    3.12
  -7  -5  -3   40.58    3.11
  -7   5   3   44.39    3.10
   7   5  -3   43.77    3.18
   7   5  -3   45.84    3.11
   7  -5   3   42.03    3.14
  -7  -5   4    9.58    0.73
   7  -5  -4    7.34    1.29
   7  -5  -4   10.27    0.74
  -7   5   4    8.48    0.78
  -7  -5   5   14.48    1.03
   7  -5  -5   14.20    1.05
  -7   5  -5   14.18    1.21
   7  -5  -5   12.16    1.00
  -7  -5   5   11.70    1.13
  -7  -5  -5   14.61    1.39
  -7   5   5   13.30    1.07
   7  -5   5   13.46    1.00
  -7  -5   6   82.96    5.79
   7  -5  -6   73.58    5.80
  -7   5  -6   79.50    5.86
  -7  -5   6   80.34    5.79
  -7  -5  -6   79.35    5.84
   7  -5   6   89.67    5.78
  -7   5   6   86.91    5.80
  -7  -5   7   24.33    1.79
  -7  -5   7   23.72    1.79
   7  -5  -7   24.70    1.82
  -7   5  -7   22.82    1.97
   7  -5   7   25.82    1.77
  -7   5   7   26.44    1.81
  -7  -5  -7   23.17    1.86
  -7   5  -8    1.02    0.52
   7  -5  -8    0.74    0.23
  -7  -5   8    0.10    0.21
  -7  -5   8    0.28    0.21
  -7  -5  -8    0.74    0.35
  -7   5   8    0.55    0.24
   7  -5   8    0.43    0.15
  -7  -5   9    5.49    0.60
   7  -5  -9    6.56    0.63
  -7   5  -9    7.83    0.85
  -7  -5   9    7.18    0.63
   7   5  -9    6.31    0.64
   7  -5   9    5.33    0.55
  -7   5   9    6.88    0.63
  -7  -5  -9    7.59    0.72
  -7   5 -10   14.08    1.19
  -7  -5  10   12.85    1.06
   7  -5 -10   13.53    1.08
  -7  -5  10   13.23    1.07
   7   5 -10   15.26    1.09
  -7   5  10   14.63    1.09
  -7  -5 -10   14.22    1.13
   7  -5  10   13.35    1.03
   7  -5 -11    5.11    0.53
  -7  -5  11    5.25    0.56
  -7  -5  11    5.75    0.52
  -7  -5 -11    4.23    0.59
   7  -5  11    5.72    0.48
   7   5 -11    5.56    0.55
  -7  -6   0    1.09    0.27
  -7   6   0    0.60    0.18
   7  -6   0    0.80    0.32
   7  -6  -1   14.85    1.16
  -7  -6   1   13.80    1.14
  -7   6  -1   14.80    1.26
   7   6  -1   15.88    1.16
   7  -6   1   14.31    1.14
  -7  -6  -1   14.12    1.10
  -7   6   1   12.77    1.06
   7  -6  -2  121.89    8.94
  -7   6  -2  123.54    8.90
  -7  -6   2  137.60    8.94
  -7   6  -2  129.93    8.94
   7   6  -2  128.57    8.94
  -7  -6  -2  123.72    8.91
   7   6  -2  127.14    8.87
  -7   6   2  120.92    8.89
   7  -6   2  122.42    8.92
  -7  -6   3   72.99    5.10
   7  -6  -3   79.03    5.09
   7  -6  -3   69.73    5.08
  -7  -6   3   69.19    5.10
  -7   6   3   68.52    5.11
   7   6  -3   69.31    5.11
  -7   6   3   71.74    5.09
   7  -6   3   75.36    5.08
  -7   6  -4   10.11    0.76
   7  -6  -4    8.64    0.79
  -7   6   4    9.93    0.81
   7  -6  -5   40.27    2.87
  -7   6  -5   44.36    2.93
  -7  -6   5   39.62    2.85
  -7  -6   5   36.01    2.90
   7  -6  -5   41.36    2.84
  -7   6  -5   41.68    2.86
  -7   6   5   34.71    2.88
   7  -6   5   41.48    2.85
  -7  -6   6   41.10    3.15
   7  -6  -6   40.09    3.16
  -7   6  -6   47.05    3.25
  -7  -6   6   45.44    3.14
  -7   6   6   44.80    3.16
   7  -6   6   44.24    3.13
  -7  -6  -6   44.16    3.25
   7  -6  -7   12.51    1.05
  -7   6  -7   11.16    1.26
  -7  -6   7   12.33    1.02
  -7  -6   7   14.30    1.03
  -7   6   7   14.04    1.04
   7  -6   7   14.40    0.99
  -7  -6  -7   10.90    1.11
  -7   6  -8    1.33    0.52
  -7  -6   8    0.74    0.23
   7  -6  -8    0.55    0.24
  -7  -6   8    0.21    0.22
  -7  -6  -8    1.34    0.35
  -7   6   8    0.66    0.25
   7  -6  -9   14.54    1.24
  -7  -6   9   17.04    1.22
  -7   6  -9   17.38    1.37
   7   6  -9   16.02    1.23
  -7  -6  -9   18.53    1.29
   7  -6   9   13.55    1.18
  -7   6   9   14.85    1.22
  -7  -6  10   22.40    1.63
  -7  -6  10   22.91    1.63
  -7   6 -10   21.02    1.71
   7  -6 -10   21.66    1.64
   7  -6  10   21.61    1.61
   7   6 -10   24.17    1.65
  -7   6  10   22.09    1.65
  -7  -6 -10   21.99    1.67
  -7  -6  11    3.05    0.39
  -7   6 -11    1.60    0.42
  -7  -6  11    1.97    0.38
   7  -6 -11    2.36    0.40
   7  -6  11    2.83    0.32
  -7  -6 -11    2.08    0.44
   7   6 -11    2.17    0.40
   7  -7   0    0.30    0.12
   7  -7   0    0.45    0.44
  -7  -7   0    0.08    0.37
  -7   7   0    0.45    0.21
   7  -7  -1   83.25    6.04
  -7   7  -1   90.97    6.04
  -7   7  -1   87.50    5.98
  -7  -7   1   87.03    6.10
   7  -7  -1   79.33    5.94
  -7   7   1   84.51    5.97
  -7  -7  -1   85.86    6.06
   7  -7   1   78.68    5.94
  -7   7   1   82.63    5.96
   7  -7  -2   82.32    5.69
   7  -7  -2   80.47    5.70
  -7  -7   2   77.18    5.69
  -7  -7   2   74.72    5.69
  -7   7  -2   81.11    5.70
  -7   7  -2   81.78    5.69
   7   7  -2   84.77    5.72
   7  -7   2   81.97    5.68
  -7   7   2   80.21    5.69
  -7   7   2   81.94    5.72
  -7  -7   3   53.00    3.73
  -7   7  -3   54.33    3.73
  -7   7  -3   53.61    3.75
  -7  -7   3   47.96    3.75
  -7   7   3   55.69    3.74
   7   7  -3   50.13    3.74
   7  -7  -4    6.10    0.53
  -7  -7   4    5.54    0.51
  -7   7  -4    5.82    0.63
  -7   7  -4    5.96    0.53
   7  -7  -4    6.63    0.50
   7   7  -4    6.60    0.66
  -7   7   4    5.63    0.58
   7  -7   4    6.66    0.50
  -7   7  -5   27.97    1.89
  -7  -7   5   22.30    1.93
   7  -7  -5   27.60    1.91
  -7  -7   5   29.28    1.89
   7  -7   5   24.73    1.87
  -7  -7  -5   26.75    1.98
  -7   7   5   22.70    1.94
  -7  -7   6   67.09    4.76
  -7   7  -6   66.76    4.85
  -7  -7   6   69.77    4.79
   7  -7  -6   65.76    4.79
  -7   7   6   67.41    4.79
  -7  -7  -6   58.80    4.81
   7  -7   6   73.87    4.76
  -7   7  -7   15.66    1.58
  -7  -7   7   17.88    1.40
   7  -7  -7   17.37    1.42
  -7  -7   7   19.04    1.40
  -7  -7  -7   18.04    1.48
  -7   7   7   21.10    1.43
   7  -7   7   19.75    1.37
   7  -7  -8   -0.07    0.23
  -7  -7   8    0.10    0.22
  -7   7  -8    0.61    0.48
  -7  -7  -8    0.13    0.32
   7  -7   8   -0.14    0.16
  -7   7   8    0.19    0.24
  -7   7  -9    7.33    0.83
  -7  -7   9    6.38    0.61
   7  -7  -9    5.82    0.62
  -7   7   9    6.79    0.65
   7  -7   9    5.87    0.55
  -7  -7  -9    7.34    0.71
  -7   7 -10   14.33    1.28
  -7  -7  10   16.52    1.19
  -7  -7  10   15.18    1.19
   7  -7 -10   15.37    1.20
  -7   7  10   15.95    1.23
  -7  -7 -10   15.08    1.22
   7   7 -10   16.74    1.20
   7  -7  10   16.83    1.16
   7  -7 -11    7.31    0.70
  -7   7 -11    7.11    0.81
  -7  -7  11    8.79    0.67
   7   7 -11    8.74    0.68
  -7  -7 -11    7.19    0.68
   7  -7  11    8.17    0.63
  -7  -8   0    0.41    0.17
  -7  -8   0    0.50    0.15
  -7   8   0    0.30    0.13
  -7   8   0    0.55    0.19
  -7  -8   1   12.63    0.92
  -7  -8   1   12.71    0.93
   7  -8  -1   11.91    0.93
  -7  -8  -1   12.38    0.95
  -7   8  -2   57.64    3.75
   7  -8  -2   45.93    3.73
  -7  -8   2   52.75    3.77
  -7  -8   2   53.61    3.73
  -7   8  -2   55.20    3.73
   7  -8  -2   51.23    3.73
  -7   8   2   54.05    3.73
   7   8  -2   51.00    3.77
  -7  -8  -2   53.13    3.74
   7  -8   2   51.90    3.72
  -7   8  -3   28.60    2.11
  -7  -8   3   27.11    2.07
   7  -8  -3   29.38    2.09
  -7   8  -3   29.11    2.09
   7   8  -3   29.81    2.12
  -7   8   3   30.86    2.10
   7  -8   3   29.70    2.07
  -7  -8  -3   27.81    2.12
  -7  -8   4    6.99    0.55
   7  -8  -4    6.01    0.57
  -7   8  -4    6.66    0.56
  -7   8  -4    7.77    0.66
   7   8  -4    5.22    0.62
  -7   8   4    6.37    0.61
  -7  -8  -4    7.10    0.69
   7  -8  -5   30.51    2.06
  -7  -8   5   27.69    2.02
  -7  -8   5   26.74    2.08
  -7   8  -5   28.86    2.13
  -7   8  -5   28.97    2.04
  -7  -8  -5   26.48    2.11
   7  -8   5   30.10    2.02
  -7   8   5   24.82    2.06
  -7  -8   6   40.94    2.95
  -7   8  -6   41.72    3.07
   7  -8  -6   41.62    2.98
  -7  -8   6   39.03    2.97
  -7   8   6   40.78    2.99
   7  -8   6   42.49    2.94
  -7   8   6   45.03    2.97
  -7  -8  -6   37.21    3.02
   7  -8  -7    7.36    0.75
  -7  -8   7    8.93    0.72
  -7   8  -7    5.86    1.00
  -7  -8   7    6.89    0.71
   7  -8   7    9.19    0.66
  -7   8   7    8.73    0.75
  -7  -8  -7    6.21    0.83
  -7   8  -8    5.12    0.82
  -7  -8   8    5.01    0.55
  -7  -8  -8    6.38    0.68
  -7   8   8    4.47    0.57
  -7  -8   9   18.99    1.38
   7  -8  -9   18.19    1.40
  -7  -8   9   15.85    1.38
  -7   8  -9   21.57    1.50
  -7   8   9   19.15    1.39
   7  -8   9   17.86    1.35
  -7  -8  10   14.74    1.17
  -7  -8  10   16.18    1.16
  -7   8 -10   13.98    1.24
   7  -8 -10   15.58    1.16
  -7  -8 -10   14.97    1.17
   7   8 -10   16.61    1.17
   7  -8  10   15.28    1.12
   7  -9   0    0.42    0.12
  -7   9   0    0.45    0.14
  -7  -9   0    0.63    0.16
  -7   9   0    0.56    0.19
   7  -9  -1   34.48    2.58
  -7  -9   1   36.72    2.58
  -7   9  -1   38.56    2.60
  -7   9  -1   36.15    2.58
   7  -9  -1   34.95    2.58
  -7  -9   1   36.18    2.58
   7  -9   1   34.86    2.59
  -7   9   1   39.26    2.61
  -7  -9  -1   36.86    2.59
   7  -9   1   35.06    2.57
  -7   9   1   35.01    2.58
  -7   9  -2   57.62    4.01
  -7   9  -2   55.61    4.03
   7  -9  -2   57.01    4.01
  -7  -9   2   52.82    4.00
  -7  -9   2   54.85    4.00
  -7   9   2   58.84    4.04
   7   9  -2   59.82    4.05
   7  -9   2   58.79    4.00
  -7   9   2   56.93    4.01
  -7  -9  -2   53.57    4.01
  -7   9  -3   34.88    2.47
  -7  -9   3   33.45    2.40
  -7   9  -3   33.96    2.42
   7  -9  -3   34.26    2.42
   7  -9   3   31.73    2.42
   7   9  -3   33.17    2.45
  -7  -9  -3   34.41    2.43
  -7   9   3   35.25    2.45
  -7   9   3   32.48    2.46
   7  -9  -4    7.83    0.66
  -7   9  -4    7.25    0.75
  -7  -9   4    8.10    0.64
  -7   9  -4    7.88    0.65
  -7   9   4    7.05    0.77
   7   9  -4    8.87    0.80
  -7  -9  -4    6.93    0.73
  -7   9   4    8.39    0.71
   7  -9   4    9.17    0.63
  -7  -9   5    9.20    0.94
  -7  -9   5   11.58    0.83
   7  -9  -5   10.79    0.87
  -7   9  -5   10.95    0.85
   7   9  -5   10.29    0.95
  -7  -9  -5   11.89    0.97
  -7   9   5    9.35    0.90
   7  -9   5   10.44    0.81
   7  -9  -6   52.68    3.64
  -7  -9   6   49.90    3.60
  -7  -9   6   51.10    3.63
  -7   9  -6   49.07    3.71
  -7   9   6   50.79    3.64
  -7   9   6   51.90    3.62
  -7  -9  -6   43.98    3.66
   7  -9   6   53.89    3.60
  -7   9  -7   15.40    1.54
  -7  -9   7   19.37    1.37
   7  -9  -7   17.40    1.40
  -7  -9   7   17.65    1.37
  -7   9   7   20.17    1.40
  -7  -9  -7   16.92    1.45
   7  -9   7   18.64    1.34
  -7   9  -8    0.76    0.52
  -7  -9   8    0.17    0.22
   7  -9  -8   -0.14    0.23
  -7  -9   8    0.41    0.27
  -7  -9  -8    0.66    0.35
  -7   9   8    0.23    0.25
   7  -9   8    0.19    0.17
  -7  -9   9    5.47    0.53
  -7   9  -9    6.30    0.74
  -7  -9   9    4.19    0.55
   7  -9  -9    5.59    0.56
  -7  -9  -9    6.42    0.58
  -7   9   9    5.19    0.59
  -7   9 -10   10.37    1.16
   7  -9 -10   12.75    0.95
  -7  -9  10   11.20    0.94
   7  -9  10   13.29    0.90
  -7  -9 -10   11.52    0.94
   7   9 -10   13.19    0.95
  -7 -10   0    1.12    0.24
  -7 -10   0    1.56    0.25
  -7  10   0    1.69    0.39
   7 -10   0    1.33    0.27
   7 -10  -1    9.84    0.80
  -7 -10   1   10.65    0.80
  -7 -10   1   10.63    0.84
   7 -10   1   10.49    0.81
  -7 -10  -1   11.01    0.80
  -7 -10  -1   10.28    0.81
  -7  10  -2   53.35    3.71
  -7  10  -2   53.20    3.69
   7 -10  -2   50.04    3.68
  -7 -10   2   53.05    3.68
   7 -10  -2   49.42    3.68
  -7 -10   2   51.75    3.67
  -7 -10  -2   52.11    3.76
  -7  10   2   56.34    3.73
   7  10  -2   49.42    3.73
   7 -10   2   49.42    3.68
   7 -10   2   51.41    3.68
  -7  10   2   52.76    3.69
   7 -10  -3   50.19    3.55
  -7  10  -3   49.83    3.55
  -7  10  -3   45.95    3.57
  -7 -10   3   46.85    3.53
  -7  10   3   51.66    3.56
   7 -10   3   54.05    3.54
   7  10  -3   52.37    3.58
  -7 -10  -3   47.90    3.56
   7 -10  -4    1.88    0.32
  -7  10  -4    2.39    0.32
  -7  10   4    2.12    0.41
  -7  10   4    2.61    0.57
   7 -10   4    1.77    0.26
  -7 -10  -4    2.47    0.42
   7 -10  -5   21.79    1.58
  -7 -10   5   18.07    1.61
  -7 -10   5   21.66    1.55
   7  10   5   20.26    1.60
  -7  10  -5   23.03    1.71
  -7  10  -5   21.07    1.56
  -7  10   5   18.53    1.60
  -7 -10  -5   22.69    1.63
   7 -10   5   20.01    1.53
  -7  10   5   24.19    1.64
   7  10  -5   20.65    1.61
   7 -10  -6   27.91    2.08
  -7 -10   6   28.22    2.07
  -7  10  -6   30.17    2.22
  -7 -10   6   27.64    2.09
   7 -10   6   28.65    2.04
  -7  10   6   28.46    2.10
  -7 -10  -6   26.13    2.12
   7 -10  -7   11.67    1.05
  -7 -10   7   12.40    1.02
  -7  10  -7   11.85    1.23
   7 -10   7   13.91    0.99
  -7 -10  -7   12.15    1.10
  -7  10   7   13.77    1.06
  -7 -10   8    0.64    0.24
  -7 -10   8    0.88    0.23
   7 -10  -8    0.47    0.24
   7 -10   8    1.33    0.27
   7 -10  -9   13.61    1.03
  -7 -10   9   13.52    1.03
  -7 -10   9   13.50    1.01
  -7  10  -9   12.01    1.14
   7 -10   9   13.68    0.98
  -7  10   9   10.91    1.06
  -7 -10  -9   14.30    1.03
   7 -11   0    5.85    0.55
  -7  11   0    7.46    0.64
  -7  11  -1   16.72    1.21
  -7 -11   1   16.90    1.16
   7 -11  -1   14.46    1.16
  -7 -11   1   16.35    1.16
  -7  11  -1   15.76    1.17
   7 -11  -1   14.44    1.16
  -7 -11  -1   15.89    1.17
   7 -11   1   14.79    1.16
  -7  11   1   15.26    1.17
  -7 -11  -1   15.99    1.17
   7 -11   1   14.45    1.16
  -7  11   1   18.12    1.25
  -7 -11   2   54.16    3.82
   7 -11  -2   51.79    3.83
  -7 -11   2   54.17    3.83
  -7  11  -2   55.72    3.84
  -7  11  -2   52.82    3.86
   7 -11  -2   53.71    3.83
  -7 -11  -2   53.68    3.84
   7 -11   2   49.86    3.83
   7 -11   2   57.37    3.83
  -7  11   2   55.90    3.84
  -7  11   2   52.23    3.88
   7  11  -2   56.07    3.88
  -7  11  -3   47.67    3.35
   7 -11  -3   46.32    3.35
  -7  11  -3   46.40    3.39
   7 -11  -3   46.39    3.35
  -7 -11   3   46.73    3.33
   7 -11   3   46.81    3.33
  -7 -11  -3   48.11    3.36
   7  11  -3   44.18    3.38
  -7  11   3   49.69    3.37
  -7 -11   4    1.67    0.30
  -7  11  -4    1.50    0.39
  -7  11   4    1.32    0.38
  -7 -11  -4    1.35    0.29
  -7  11   4    1.19    0.26
  -7  11  -5   14.69    1.17
   7  11   5   11.67    0.97
   7 -11  -5   12.11    0.94
  -7 -11   5   10.27    1.01
  -7  11   5   10.74    0.98
   7  11  -5   10.35    0.99
   7 -11   5   11.57    0.91
  -7 -11   6   37.92    2.71
  -7 -11   6   36.14    2.63
  -7  11  -6   34.37    2.75
   7 -11  -6   38.75    2.67
  -7 -11  -6   30.86    2.68
  -7  11   6   37.43    2.67
   7 -11   6   40.08    2.63
  -7  11  -7   24.78    1.97
  -7 -11   7   24.65    1.85
   7 -11  -7   23.85    1.88
  -7 -11   7   24.65    1.86
  -7 -11  -7   24.67    1.90
   7 -11   7   25.94    1.84
  -7  11   7   28.10    1.87
  -7 -11   8    2.80    0.40
   7 -11  -8    2.09    0.43
   7 -11   8    2.27    0.32
  -7 -11  -8    2.97    0.44
   7 -11  -9    4.85    0.50
  -7 -11   9    6.01    0.51
  -7  11  -9    5.83    0.80
  -7 -11   9    4.53    0.55
   7 -11   9    4.65    0.44
   7 -12   0    1.43    0.28
   7 -12   0    1.07    0.22
  -7 -12   0    1.21    0.25
  -7  12   0    0.85    0.28
  -7  12  -1    3.94    0.38
   7 -12  -1    3.90    0.36
  -7 -12   1    4.01    0.37
   7 -12  -1    3.67    0.39
  -7 -12   1    3.95    0.37
  -7  12  -1    3.58    0.51
  -7  12   1    3.81    0.57
  -7 -12  -1    3.36    0.38
   7 -12   1    4.07    0.36
   7 -12   1    3.08    0.41
   7  12  -1    3.98    0.48
  -7 -12  -1    3.60    0.38
  -7  12   1    3.97    0.39
  -7  12  -2   35.03    2.55
  -7  12  -2   35.62    2.51
  -7 -12   2   36.32    2.49
   7 -12  -2   34.70    2.50
   7 -12  -2   33.54    2.50
  -7  12   2   30.56    2.57
  -7  12   2   36.69    2.52
   7 -12   2   33.53    2.51
  -7 -12  -2   36.05    2.51
   7  12  -2   34.92    2.55
  -7 -12  -2   35.95    2.50
   7 -12   2   35.43    2.49
  -7  12  -3   21.22    1.79
   7 -12  -3   22.30    1.71
  -7 -12   3   23.94    1.70
   7 -12  -3   24.58    1.71
  -7  12  -3   23.83    1.71
  -7  12   3   19.86    1.81
   7  12  -3   24.46    1.75
  -7  12   3   24.07    1.73
  -7 -12  -3   23.99    1.72
   7 -12   3   25.47    1.70
  -7 -12   4    6.62    0.54
  -7  12  -4    6.59    0.86
  -7  12  -4    6.35    0.57
   7 -12  -4    6.73    0.61
   7 -12  -4    5.56    0.55
   7 -12   4    5.33    0.52
  -7  12   4    5.60    0.62
  -7 -12  -4    6.71    0.60
   7 -12  -5   18.74    1.43
   7  12   5   18.49    1.45
  -7 -12   5   19.77    1.40
  -7  12  -5   18.39    1.61
   7 -12   5   17.95    1.38
  -7 -12  -5   19.21    1.45
  -7 -12   6   11.41    0.89
  -7  12  -6   11.69    1.12
  -7 -12   6   10.58    0.95
   7  12   6   10.06    1.08
   7 -12  -6   10.42    0.91
   7 -12   6   10.78    0.86
  -7  12   6   11.27    0.93
  -7  12  -7    7.43    0.91
   7 -12  -7    7.77    0.71
  -7 -12   7    8.25    0.70
  -7 -12   7    7.86    0.74
  -7  12   7    7.79    0.72
   7 -12   7    8.17    0.65
  -7 -12  -7    7.46    0.72
  -7  12  -8    0.49    0.95
  -7 -12   8    0.32    0.21
  -7 -12   8    0.89    0.50
   7 -12  -8    0.57    0.28
   7 -12  -8    0.20    0.20
   7 -12   8    0.49    0.15
  -7 -12  -8    0.82    0.21
  -7 -13   0    4.58    0.38
  -7  13   0    4.28    0.64
  -7  13   0    3.92    0.40
   7 -13   0    3.47    0.40
   7  13   0    3.40    0.54
   7 -13   0    3.39    0.36
  -7  13  -1   21.68    1.56
   7 -13  -1   20.35    1.55
  -7  13  -1   22.95    1.67
   7 -13  -1   19.98    1.55
  -7 -13   1   22.36    1.55
  -7 -13   1   22.27    1.56
   7 -13   1   21.30    1.55
  -7  13   1   19.03    1.68
  -7  13   1   21.71    1.57
  -7 -13  -1   22.42    1.56
   7  13  -1   21.12    1.63
   7 -13   1   20.07    1.56
  -7 -13  -1   22.38    1.56
  -7  13  -2   27.19    2.22
   7 -13  -2   30.83    2.13
   7 -13  -2   27.42    2.13
  -7  13  -2   29.36    2.14
  -7 -13   2   28.35    2.12
   7  13  -2   31.77    2.19
  -7  13   2   31.28    2.15
  -7 -13  -2   28.36    2.13
   7 -13   2   31.56    2.13
  -7 -13  -2   29.67    2.14
   7  13   3   23.99    1.77
   7 -13  -3   22.03    1.68
  -7  13  -3   21.43    1.83
  -7  13  -3   23.20    1.68
  -7 -13   3   23.84    1.67
   7 -13  -3   23.23    1.68
  -7  13   3   22.63    1.70
   7 -13   3   23.40    1.66
   7  13  -3   21.95    1.71
  -7 -13  -3   23.39    1.69
  -7 -13  -3   23.38    1.68
   7  13   4    0.71    0.44
   7 -13  -4    0.52    0.19
  -7  13  -4    1.25    0.92
  -7  13  -4    0.64    0.20
  -7 -13   4    0.78    0.19
   7  13  -4    0.61    0.29
  -7  13   4    0.50    0.30
  -7 -13  -4    0.69    0.23
   7 -13  -5   14.57    1.16
  -7  13  -5   15.34    1.32
   7 -13  -5   14.04    1.13
  -7 -13   5   16.07    1.11
  -7 -13   5   14.09    1.23
   7  13   5   13.91    1.15
  -7 -13  -5   16.20    1.16
  -7  13   5   12.76    1.16
   7 -13   5   13.68    1.09
  -7 -13   6   24.11    1.75
   7 -13  -6   22.57    1.77
  -7  13  -6   22.61    1.87
  -7 -13   6   25.25    1.79
   7 -13   6   27.22    1.75
  -7  13   6   25.07    1.78
  -7 -13  -6   20.27    1.77
   7 -13  -7   11.13    0.89
  -7 -13   7   10.83    0.87
   7 -13  -7    8.97    0.92
  -7  13   7   12.24    1.15
  -7 -13  -7   10.62    0.88
   7 -13   7   11.82    0.83
  -7 -13   8    0.85    0.28
   7 -13  -8    0.50    0.18
  -7 -13   8    0.63    0.22
  -7 -13  -8    0.23    0.27
   7 -14   0    2.96    0.32
  -7  14   0    3.08    0.36
  -7  14   0    1.64    0.77
  -7  14  -1   10.80    1.99
   7 -14  -1    9.81    0.80
  -7 -14   1   11.11    0.80
  -7  14  -1    9.68    0.82
   7  14  -1   10.69    0.90
  -7  14   1   10.77    0.84
  -7 -14  -1   10.24    0.80
   7 -14   1   10.37    0.80
  -7 -14  -1   10.71    0.81
   7 -14  -2   34.51    2.54
   7  14   2   29.99    2.78
  -7  14  -2   37.28    2.80
  -7 -14   2   37.13    2.57
  -7 -14  -2   37.82    2.58
   7 -14   2   35.62    2.61
  -7  14  -3   15.50    1.71
   7 -14  -3   18.13    1.42
  -7  14  -3   18.41    1.42
  -7 -14   3   19.31    1.40
   7  14   3   20.44    1.51
   7 -14  -3   20.54    1.42
   7  14  -3   20.06    1.45
  -7 -14  -3   19.20    1.42
  -7  14   3   18.66    1.45
  -7 -14  -3   19.04    1.42
   7 -14   3   20.75    1.40
   7 -14  -4    3.14    0.39
   7  14   4    2.17    0.47
   7 -14  -4    3.22    0.48
  -7  14   4    2.30    0.50
  -7 -14  -4    3.26    0.43
   7 -14   4    3.15    0.33
  -7 -14  -4    3.74    0.42
  -7  14  -5   11.27    1.26
  -7 -14   5   10.66    0.85
   7 -14  -5   10.69    0.88
   7  14   5   11.16    0.91
  -7 -14  -5   10.26    0.88
  -7 -14  -5   11.96    0.90
   7 -14   5   10.81    0.83
  -7  14   5    9.82    0.92
  -7 -14   6   16.37    1.35
   7 -14  -6   16.04    1.28
  -7 -14   6   17.47    1.27
  -7  14   6   18.42    1.30
   7 -14   6   17.01    1.24
  -7 -14  -6   15.63    1.27
  -7 -14  -6   16.59    1.29
   7 -14  -7    7.79    0.65
  -7 -14   7    7.96    0.76
  -7 -14   7    6.53    0.77
  -7 -14  -7    6.72    0.65
  -7 -14  -7    6.89    0.89
   7 -14   7    7.29    0.58
   7 -15   0    0.46    0.13
   7  15   0    0.62    0.25
  -7  15   0    0.32    0.17
  -7  15  -1   15.90    1.21
   7 -15  -1   15.93    1.19
   7 -15  -1   15.55    1.21
  -7 -15   1   16.32    1.19
  -7 -15  -1   16.68    1.19
   7 -15   1   15.78    1.19
  -7  15   1   16.87    1.22
  -7 -15  -1   16.49    1.19
   7  15  -1   15.83    1.26
   7 -15  -2   19.88    1.65
   7  15   2   21.02    1.74
  -7 -15   2   22.50    1.64
  -7  15  -2   22.73    1.66
   7 -15  -2   23.61    1.65
   7 -15   2   23.77    1.64
  -7 -15  -2   22.70    1.65
  -7 -15  -2   22.25    1.65
  -7  15   2   23.31    1.68
   7  15  -2   24.94    1.70
   7  15   3   15.92    1.19
   7 -15  -3   14.77    1.10
   7 -15  -3   12.89    1.12
  -7 -15   3   15.22    1.09
   7 -15   3   15.13    1.09
  -7  15   3   13.19    1.15
   7  15  -3   13.53    1.14
  -7 -15  -3   15.21    1.11
  -7 -15  -3   15.85    1.11
   7  15   4    4.83    0.60
   7 -15  -4    5.90    0.55
  -7 -15  -4    6.65    0.56
   7  15  -4    5.14    0.63
  -7 -15  -4    6.87    0.57
   7 -15   4    6.13    0.51
  -7 -15   5    7.82    0.59
   7  15   5    6.66    0.66
   7 -15  -5    6.37    0.60
  -7 -15  -5    6.78    0.63
   7 -15   5    6.12    0.56
  -7 -15  -5    6.00    0.61
   7 -15  -6   15.88    1.25
   7 -15   6   17.06    1.28
  -7 -15  -6   17.25    1.28
  -7 -15  -6   16.35    1.41
  -7  16   0    0.83    0.21
   7 -16   0    1.13    0.22
  -7 -16   1    8.40    0.64
  -7  16  -1    8.47    0.69
   7 -16  -1    7.99    0.64
   7  16   1    6.45    0.76
  -7  16   1    8.06    0.70
   7 -16   1    7.90    0.63
   7  16  -1    8.42    0.72
  -7 -16  -1    8.59    0.64
  -7 -16   2   18.59    1.31
   7  16   2   16.59    1.40
   7 -16  -2   18.55    1.32
  -7 -16  -2   19.00    1.32
   7  16  -2   17.86    1.36
   7 -16   2   17.46    1.31
  -7 -16  -2   18.91    1.32
  -7  16   2   16.67    1.37
  -7 -16   3   13.65    1.03
   7 -16  -3   15.09    1.05
  -7  16   3   11.88    1.12
  -7 -16  -3   13.65    1.05
   7 -16   3   14.74    1.03
  -7 -16  -3   13.71    1.05
   7  16  -3   14.15    1.08
  -7 -16   4    1.96    0.33
  -7 -16  -4    2.20    0.36
  -7 -16  -4    1.67    0.37
   7 -16   4    1.71    0.28
  -7  17   0    2.95    0.49
   7 -17   0    2.72    0.31
  -7 -17   0    3.05    0.33
   7 -17  -1    7.26    0.58
   7  17   1    6.24    0.70
  -7 -17   1    7.87    0.57
   7  17  -1    7.24    0.66
  -7 -17  -1    7.35    0.58
   7 -17   1    6.62    0.56
  -7  17   1    6.64    0.74
   7  17   2   14.72    1.11
  -7 -17   2   12.55    0.99
  -7 -17  -2   12.41    1.07
   7 -17   2   13.24    1.00
   7  17  -2   13.36    1.03
  -8   0   0  287.76   20.19
  -8   0  -1  687.80   47.24
  -8   0   1  661.49   47.24
   8   0  -1  665.71   47.24
   8   0  -1  679.32   47.26
  -8   0   2    1.22    0.20
  -8   0  -2    1.36    0.18
  -8   0   3   37.86    2.88
   8   0  -3   39.14    2.90
   8   0  -3   45.04    3.00
   8   0  -4  192.83   13.64
  -8   0  -5   20.89    1.48
  -8   0   5   17.48    1.42
   8   0  -5   20.19    1.45
   8   0   6   -0.27    0.17
  -8   0  -6   -0.51    0.68
   8   0  -6    0.33    0.18
  -8   0   6    0.43    0.28
  -8   0   6    0.42    0.16
  -8   0  -7   54.81    3.56
  -8   0   7   45.42    3.45
  -8   0   7   47.55    3.46
   8   0   7   47.32    3.43
   8   0  -7   46.85    3.48
   8   0   8    9.69    0.77
  -8   0   8    9.49    0.81
   8   0  -8   11.19    0.82
  -8   0   9   46.05    3.23
   8   0  -9   45.45    3.24
  -8   0  -9   43.87    3.31
  -8   0   9   43.43    3.22
   8   0   9   47.07    3.21
  -8   0  10    2.02    0.36
  -8   0  10    2.07    0.50
  -8   0  11    0.00    0.20
  -8   0  11   -0.11    0.27
   8   0 -11   -0.14    0.22
  -8   0 -12    9.49    0.86
   8   0 -12    9.47    1.02
  -8   1   0   97.32    6.78
  -8  -1   0   95.42    6.77
   8  -1  -1   29.78    2.03
  -8  -1   1   26.17    1.97
   8  -1  -1   26.63    1.98
  -8   1  -1   28.70    1.98
  -8   1   1   27.15    1.98
   8   1  -1   28.05    1.98
  -8  -1  -1   28.23    1.97
  -8  -1   2   29.09    2.14
   8  -1  -2   28.87    2.15
  -8  -1  -2   31.16    2.14
   8   1  -2   30.09    2.15
  -8   1   2   30.40    2.15
   8   1  -2   31.39    2.20
   8  -1  -3   84.52    5.39
   8  -1  -3   74.83    5.30
  -8  -1   3   68.63    5.29
   8   1  -3   76.69    5.30
   8   1  -3   73.52    5.36
  -8   1   3   71.80    5.29
   8  -1  -4  112.76    8.09
  -8  -1   4  109.92    8.02
   8  -1  -4  121.10    8.03
  -8   1   4  114.34    8.00
   8   1  -4  114.53    8.03
   8  -1   4  110.91    8.03
   8   1  -4  109.31    8.09
  -8  -1   5   26.91    2.04
   8  -1  -5   28.02    2.07
  -8  -1  -5   29.12    2.10
  -8   1   5   29.67    2.05
  -8  -1   6    0.99    0.18
  -8   1  -6    2.39    0.74
   8   1   6    0.58    0.24
   8  -1  -6    0.90    0.22
  -8   1   6    1.51    0.31
   8   1  -6    1.07    0.20
   8   1   7   24.83    1.79
  -8  -1   7   25.23    1.80
  -8  -1   7   22.94    1.80
   8  -1  -7   26.56    1.82
  -8   1  -7   25.07    2.02
   8  -1   7   22.51    1.78
  -8   1   7   25.00    1.82
  -8   1   7   25.76    1.80
  -8  -1  -7   24.61    1.92
   8   1  -7   24.27    1.80
  -8  -1   8    2.97    0.39
  -8   1  -8    3.40    0.76
   8   1   8    3.20    0.35
   8  -1  -8    2.62    0.41
  -8  -1   8    2.69    0.40
   8   1  -8    3.08    0.40
  -8  -1  -8    2.62    0.48
   8  -1   8    2.88    0.32
  -8   1   8    3.26    0.38
  -8   1   8    2.90    0.40
  -8  -1   9    2.63    0.39
   8   1   9    2.69    0.35
   8  -1  -9    3.05    0.41
  -8   1  -9    2.26    0.55
  -8   1   9    3.29    0.41
   8  -1   9    2.72    0.33
  -8  -1  -9    2.04    0.47
   8   1  -9    2.89    0.41
  -8   1   9    2.60    0.39
  -8  -1  10   -0.07    0.18
   8  -1 -10    0.41    0.26
   8   1 -10   -0.04    0.26
  -8   1  10   -0.26    0.18
  -8   1  10    0.53    0.31
   8  -1  10    0.04    0.15
   8  -1 -11    2.79    0.45
  -8   1 -11    4.09    0.62
  -8  -1  11    3.99    0.51
  -8   1  11    2.66    0.38
   8   1 -11    3.82    0.46
  -8   1 -12   15.51    1.41
   8  -1 -12   20.14    1.43
   8   1 -12   19.84    1.50
  -8  -1 -12   17.55    1.40
  -8   2   0   40.78    2.78
  -8  -2   0   37.53    2.76
  -8  -2   1  117.02    8.13
   8  -2  -1  119.53    8.14
   8  -2  -1  111.46    8.14
  -8  -2  -1  120.81    8.13
  -8   2   1  109.26    8.15
   8   2  -1  108.81    8.13
   8   2  -1  122.96    8.13
   8  -2  -2   26.76    1.98
   8  -2  -2   26.02    2.02
  -8   2  -2   27.82    1.97
  -8  -2   2   30.46    2.07
  -8  -2   2   27.40    1.96
   8   2  -2   24.05    2.00
  -8  -2  -2   29.80    1.96
   8   2  -2   27.55    1.97
  -8   2   2   28.20    1.97
  -8  -2   3  200.55   12.79
  -8  -2   3  176.02   12.72
   8  -2  -3  182.18   12.73
   8  -2  -3  174.06   12.78
   8  -2   3  166.96   12.73
   8   2  -3  187.70   12.73
  -8   2   3  176.84   12.72
   8   2  -3  182.70   12.77
   8  -2  -4   68.06    5.14
  -8  -2   4   68.68    5.01
   8  -2  -4   73.99    5.04
  -8   2  -4   74.75    5.03
  -8  -2   4   81.24    5.14
  -8  -2  -4   64.43    4.99
   8   2  -4   67.82    5.04
  -8   2   4   71.85    5.01
   8   2  -4   65.16    5.14
   8  -2   4   70.01    5.07
   8  -2  -5   28.67    2.32
  -8  -2   5   27.40    2.29
  -8  -2  -5   34.96    2.34
   8  -2   5   35.37    2.28
  -8   2   5   33.73    2.31
  -8  -2   6    2.10    0.45
   8   2   6    1.53    0.26
   8  -2  -6    2.31    0.40
   8  -2   6    2.09    0.28
  -8  -2  -6    2.73    0.59
   8   2   7   15.03    1.25
   8  -2  -7   17.17    1.25
  -8   2  -7   18.23    1.80
  -8  -2   7   17.25    1.23
  -8  -2   7   14.69    1.24
  -8   2   7   17.51    1.23
   8   2  -7   16.53    1.23
  -8   2   7   16.36    1.27
  -8  -2  -7   15.87    1.38
   8  -2  -8   24.01    1.77
  -8  -2   8   25.15    1.76
  -8   2  -8   28.30    1.94
   8   2   8   24.42    1.75
  -8  -2   8   21.68    1.76
  -8   2   8   24.92    1.76
  -8   2   8   23.74    1.77
  -8  -2  -8   22.75    1.85
   8  -2   8   22.90    1.73
   8   2  -8   23.99    1.77
  -8  -2   9   13.86    1.13
  -8   2  -9   12.32    1.30
  -8  -2   9   15.77    1.12
   8  -2  -9   15.36    1.13
  -8   2   9   16.28    1.12
   8   2  -9   13.49    1.12
   8  -2   9   17.09    1.08
  -8  -2  -9   11.89    1.22
  -8   2   9   14.17    1.11
   8  -2 -10    0.22    0.21
  -8   2 -10    0.29    0.48
  -8  -2  10    0.29    0.20
  -8  -2  10    0.21    0.24
  -8   2  10    0.16    0.23
   8  -2  10    0.32    0.16
  -8  -2 -10   -0.04    0.39
   8   2 -10    0.21    0.22
  -8   2  10    0.32    0.19
  -8   2 -11    9.61    0.89
   8  -2 -11    8.32    0.77
  -8  -2  11    9.81    0.79
  -8  -2  11    8.35    0.76
  -8  -2 -11    9.70    0.87
   8   2 -11   10.37    0.78
  -8   2  11    8.82    0.82
  -8   2 -12    5.53    0.82
  -8  -2 -12    7.79    0.89
   8  -3   0  144.93   10.66
  -8   3   0  158.22   10.66
  -8  -3   1   30.67    2.34
  -8  -3   1   36.89    2.40
  -8   3  -1   31.65    2.35
   8  -3  -1   34.47    2.37
   8  -3  -1   30.62    2.35
   8   3  -1   31.22    2.33
   8   3  -1   34.06    2.35
   8  -3   1   34.49    2.35
  -8  -3   2    0.40    0.42
   8  -3  -2    0.76    0.27
  -8   3  -2    0.97    0.22
  -8   3  -2    0.72    0.19
  -8  -3   2    0.88    0.19
   8  -3  -2    0.68    0.17
   8  -3   2    0.84    0.21
   8   3  -2    0.88    0.18
  -8   3   2    1.09    0.20
  -8  -3   3   30.34    2.13
   8  -3  -3   29.05    2.22
  -8  -3   3   33.59    2.28
   8  -3  -3   28.06    2.14
  -8   3  -3   29.84    2.15
  -8   3   3   26.94    2.12
   8   3  -3   29.21    2.13
  -8  -3  -3   28.12    2.11
   8  -3   3   29.81    2.16
   8   3  -3   31.07    2.21
   8  -3  -4   52.56    4.16
  -8   3  -4   56.13    4.04
   8  -3  -4   64.65    4.08
  -8  -3   4   61.14    4.17
   8   3  -4   49.30    4.03
  -8  -3  -4   57.97    3.98
   8  -3   4   48.95    4.07
   8   3  -4   57.36    4.17
  -8   3   4   56.64    4.00
  -8  -3   5   19.07    1.61
   8  -3   5   24.14    1.57
   8  -3  -6   17.49    1.31
  -8  -3   6   19.97    1.29
   8  -3   6   15.97    1.25
  -8   3   6   15.25    1.35
  -8  -3   7   21.26    1.45
   8  -3  -7   18.88    1.47
   8  -3   7   16.30    1.42
  -8   3   7   22.16    1.46
  -8  -3   8   31.65    2.20
   8  -3  -8   32.95    2.22
  -8   3  -8   30.26    2.36
  -8  -3   8   29.44    2.20
   8  -3   8   30.19    2.18
  -8  -3  -8   26.87    2.26
   8   3  -8   29.93    2.21
  -8   3   8   32.09    2.22
  -8   3   8   30.45    2.20
  -8   3  -9   10.80    1.06
  -8  -3   9   10.12    0.86
   8  -3  -9   11.15    0.85
  -8  -3   9    9.44    0.83
   8   3  -9    9.51    0.85
  -8   3   9   10.81    0.84
  -8  -3  -9   10.04    0.95
  -8   3   9   10.66    0.84
   8  -3   9   10.78    0.79
  -8  -3  10    0.75    0.26
  -8  -3  10    1.17    0.23
  -8   3 -10    1.59    0.44
   8  -3 -10    1.83    0.37
   8   3 -10    1.02    0.25
  -8  -3  11    5.30    0.57
  -8   3 -11    5.46    0.66
   8  -3 -11    4.17    0.53
   8   3 -11    4.61    0.53
  -8   3  11    5.87    0.61
  -8   4   0   56.47    3.99
   8  -4   0   56.16    4.00
   8  -4  -1   83.08    6.30
  -8  -4   1   84.89    6.29
  -8   4  -1   98.67    6.29
  -8   4   1   89.67    6.28
   8   4  -1   88.80    6.29
   8  -4   1   83.20    6.29
   8   4  -1   95.06    6.26
   8  -4  -2   37.06    3.03
  -8   4  -2   46.45    3.00
   8  -4  -2   43.91    3.00
  -8   4  -2   38.95    3.01
  -8  -4   2   39.76    3.13
   8   4  -2   46.41    2.98
  -8   4   2   44.31    2.99
   8  -4   2   38.81    3.00
  -8   4  -3  271.27   19.55
   8  -4  -3  263.05   19.58
   8  -4  -3  280.11   19.59
   8  -4  -3  273.71   19.55
  -8  -4   3  288.91   19.62
   8   4  -3  285.32   19.58
  -8   4   3  275.59   19.54
   8   4  -3  288.21   19.54
   8  -4   3  276.52   19.55
   8  -4  -4   74.06    5.00
  -8  -4   4   72.19    5.01
   8  -4  -4   79.48    5.19
  -8   4   4   65.82    5.00
   8   4  -4   61.78    5.04
   8  -4  -5   84.98    6.14
  -8   4  -5   86.06    6.17
  -8  -4   5   81.18    6.12
   8  -4  -5   98.23    6.12
  -8   4   5   81.15    6.14
  -8   4   5   88.55    6.16
  -8  -4   6    0.43    0.22
   8  -4  -6    0.27    0.17
  -8  -4   6    0.14    0.25
   8  -4  -6    0.16    0.22
  -8   4  -6    0.58    0.53
  -8  -4  -6    0.26    0.52
  -8   4   6    0.40    0.22
  -8   4   6    0.25    0.29
   8  -4   6    0.36    0.15
  -8  -4   7    1.41    0.24
  -8  -4   7    1.05    0.25
  -8   4  -7    1.01    0.55
   8  -4  -7    1.08    0.25
  -8   4   7    1.85    0.37
  -8  -4  -7    1.41    0.41
  -8   4   7    0.95    0.29
   8  -4   7    0.84    0.17
  -8   4  -8   36.60    2.69
   8  -4  -8   35.37    2.56
  -8  -4   8   32.66    2.54
  -8  -4   8   37.39    2.55
  -8  -4  -8   33.81    2.59
   8  -4   8   34.28    2.52
  -8   4   8   37.21    2.55
  -8  -4   9    7.43    0.61
  -8  -4   9    5.93    0.63
  -8   4  -9    5.32    0.84
   8  -4  -9    7.57    0.63
  -8  -4  -9    6.05    0.73
   8   4  -9    6.65    0.63
  -8   4   9    7.33    0.63
  -8  -4  10    0.49    0.21
  -8  -4  10    0.41    0.24
   8  -4 -10    0.64    0.20
   8   4 -10    0.55    0.22
  -8  -4 -10    0.97    0.34
  -8  -4  11   15.04    1.14
  -8  -4  11   13.58    1.13
   8  -4 -11   14.62    1.14
  -8   4 -11   15.06    1.20
   8   4 -11   16.36    1.14
  -8   4  11   16.32    1.18
   8  -4  11   13.39    1.10
  -8  -5   0  221.53   16.45
  -8   5   0  248.23   16.47
   8  -5   0  227.91   16.48
   8   5   0  239.11   16.46
  -8  -5   1   21.73    1.56
   8  -5  -1   21.96    1.58
  -8   5  -1   19.16    1.53
   8  -5   1   21.91    1.56
  -8   5   1   18.11    1.52
   8   5  -1   22.93    1.57
  -8   5  -2    6.64    0.55
   8  -5  -2    5.60    0.71
  -8  -5   2    6.13    0.76
  -8   5  -2    4.99    0.66
   8  -5  -2    6.36    0.56
  -8   5   2    6.72    0.58
   8   5  -2    6.31    0.70
   8  -5   2    5.87    0.63
   8   5  -2    6.62    0.50
  -8   5  -3   51.10    3.65
   8  -5  -3   49.92    3.58
   8  -5  -3   46.42    3.68
   8  -5  -3   50.74    3.62
  -8  -5   3   53.58    3.75
   8   5  -3   50.32    3.59
   8   5  -3   52.27    3.72
  -8   5   3   47.94    3.58
  -8   5  -4   31.62    2.48
  -8  -5   4   31.51    2.38
   8  -5  -4   35.60    2.41
   8  -5  -4   33.96    2.38
  -8   5  -4   33.82    2.40
  -8   5   4   32.12    2.42
   8  -5   4   35.07    2.38
   8  -5  -5   29.95    2.08
  -8   5  -5   31.78    2.08
  -8  -5   5   26.61    2.06
  -8   5  -5   27.29    2.13
  -8   5   5   24.53    2.08
   8  -5   5   30.75    2.05
   8  -5  -6    7.40    0.62
  -8  -5   6    8.22    0.73
  -8  -5   7   14.30    1.08
  -8   5  -7   15.22    1.36
   8  -5  -7   11.44    1.09
  -8  -5  -7   14.67    1.20
  -8   5   7   14.03    1.08
   8  -5  -8   25.06    1.79
  -8   5  -8   22.74    1.94
  -8  -5   8   24.13    1.76
  -8  -5   8   23.34    1.76
   8  -5   8   24.05    1.73
  -8   5   8   25.14    1.77
  -8  -5  -8   23.07    1.82
  -8  -5   9    2.91    0.46
  -8   5  -9    3.28    0.75
   8  -5  -9    3.78    0.48
  -8  -5   9    3.30    0.47
  -8  -5  -9    2.69    0.58
  -8   5   9    3.59    0.47
   8  -5   9    3.73    0.38
   8   5  -9    3.16    0.47
   8  -5 -10    2.42    0.39
  -8  -5  10    2.63    0.39
  -8  -5  10    1.36    0.28
  -8   5 -10    1.60    0.44
  -8  -5 -10    2.08    0.51
   8   5 -10    1.73    0.28
   8  -5  10    2.53    0.30
  -8   5  10    2.08    0.44
   8  -5 -11    3.32    0.42
  -8   5 -11    3.00    0.56
  -8  -5  11    2.96    0.44
  -8  -5  11    3.64    0.45
  -8  -5 -11    4.27    0.52
   8   5 -11    3.38    0.45
  -8   5  11    2.88    0.51
  -8  -6   0   52.20    3.86
  -8   6   0   50.93    3.85
   8   6   0   57.07    3.87
   8  -6   0   56.30    3.90
  -8   6  -1  187.47   11.75
  -8  -6   1  161.93   11.76
   8  -6  -1  159.18   11.77
  -8  -6  -1  156.31   11.73
   8  -6   1  162.18   11.76
  -8   6   1  172.87   11.74
  -8  -6   2    1.99    0.55
  -8   6  -2    1.15    0.28
   8  -6  -2    1.21    0.25
  -8   6  -2    1.41    0.48
   8  -6  -2    1.36    0.51
  -8   6   2    1.58    0.32
  -8  -6  -2    1.22    0.34
  -8   6  -3   68.59    4.57
   8  -6  -3   67.91    4.54
  -8  -6   3   63.69    4.53
  -8   6  -3   62.42    4.54
   8  -6  -3   62.38    4.53
  -8  -6   3   59.03    4.53
  -8   6   3   64.60    4.54
   8  -6   3   67.36    4.53
   8   6  -3   61.33    4.56
   8  -6  -4   78.93    5.54
  -8  -6   4   78.11    5.52
   8   6   4   84.21    5.59
   8  -6  -4   78.78    5.53
   8  -6   4   81.43    5.52
   8   6  -4   70.70    5.55
  -8   6   4   75.61    5.54
   8  -6  -5   11.79    0.94
  -8   6  -5    9.78    1.05
  -8   6  -5   11.89    0.94
  -8  -6   5   11.50    0.92
   8  -6   5   13.89    0.90
  -8  -6   6    0.29    0.27
  -8  -6   6    0.24    0.22
  -8   6  -6    0.90    0.48
   8  -6  -6    0.24    0.23
   8  -6   6    0.21    0.17
  -8   6   6    0.46    0.24
  -8  -6  -6    0.11    0.74
  -8  -6   7   22.24    1.57
  -8  -6   7   17.92    1.56
   8  -6  -7   19.27    1.59
  -8   6  -7   21.38    1.76
  -8  -6  -7   22.69    1.66
  -8   6   7   23.54    1.59
   8  -6   7   20.11    1.53
  -8  -6   8   18.84    1.40
   8  -6  -8   18.24    1.43
  -8   6  -8   17.94    1.59
  -8  -6   8   17.79    1.40
  -8   6   8   20.30    1.41
   8  -6   8   17.09    1.36
  -8  -6  -8   20.01    1.48
  -8  -6   9   16.85    1.41
  -8   6  -9   15.00    1.51
  -8  -6  -9   15.09    1.41
   8   6  -9   18.83    1.43
  -8   6 -10    0.45    0.39
   8  -6 -10    0.04    0.20
  -8  -6  10    0.22    0.21
  -8  -6  10    0.38    0.23
  -8   6  10    0.66    0.26
  -8  -6 -10    0.73    0.29
   8   6 -10    0.56    0.22
  -8   6 -11    2.26    0.42
  -8  -6  11    3.39    0.68
   8  -6 -11    2.44    0.40
   8   6 -11    3.14    0.41
  -8  -6 -11    3.39    0.45
  -8   7   0   56.07    4.08
   8  -7   0   56.87    4.04
  -8   7   0   55.96    4.04
   8  -7   0   59.38    4.03
   8  -7  -1   43.33    3.37
   8  -7  -1   48.07    3.35
  -8   7  -1   47.01    3.37
  -8   7  -1   47.19    3.36
  -8   7   1   46.16    3.36
   8   7  -1   47.80    3.40
   8  -7   1   48.40    3.35
  -8   7   1   51.02    3.43
  -8   7  -2   16.23    1.15
  -8   7  -2   17.46    1.17
  -8  -7   2   15.14    1.14
   8  -7  -2   15.51    1.14
   8  -7  -2   13.98    1.16
  -8  -7   2   15.57    1.14
  -8   7   2   16.08    1.14
   8  -7   2   15.20    1.13
   8   7  -2   14.48    1.17
   8  -7  -3   53.21    4.03
  -8   7  -3   62.55    4.07
  -8  -7   3   58.61    4.04
   8  -7  -3   54.55    4.03
  -8  -7   3   55.32    4.02
  -8  -7  -3   63.20    4.23
   8  -7   3   53.81    4.01
   8   7  -3   51.73    4.14
  -8   7   3   58.87    4.04
  -8  -7   4  117.26    8.39
   8   7   4  128.80    8.46
  -8   7  -4  118.93    8.42
  -8   7  -4  116.73    8.40
   8  -7  -4  125.24    8.40
   8  -7  -4  117.69    8.40
  -8  -7  -4  111.29    8.48
  -8   7   4  118.12    8.41
   8  -7   4  123.53    8.39
   8   7  -4  114.29    8.42
   8  -7  -5   24.07    1.60
  -8  -7   5   22.91    1.64
   8  -7  -5   22.65    1.67
  -8  -7  -5   20.11    1.76
   8  -7   5   23.37    1.65
   8   7  -5   22.62    1.68
  -8   7   5   19.34    1.68
  -8   7  -6    0.95    0.46
  -8  -7   6    1.13    0.32
   8  -7  -6    0.80    0.24
   8  -7   6    1.54    0.30
  -8   7   6    0.93    0.29
  -8  -7  -6    0.38    0.40
  -8  -7   7   14.16    1.18
   8  -7  -7   12.74    1.19
  -8  -7   7   16.08    1.18
  -8   7  -7   16.05    1.40
  -8   7   7   16.82    1.20
  -8  -7  -7   16.62    1.28
   8  -7   7   13.61    1.13
  -8  -7   8    6.09    0.62
  -8  -7   8    5.61    0.59
   8  -7  -8    6.15    0.62
   8  -7   8    6.30    0.53
  -8   7   8    6.44    0.61
  -8  -7  -8    5.38    0.72
  -8  -7   9    6.66    0.63
   8  -7  -9    6.93    0.63
  -8  -7   9    6.27    0.62
  -8  -7  -9    6.94    0.71
   8  -7   9    7.08    0.57
  -8   7   9    6.64    0.64
   8   7  -9    6.30    0.63
  -8  -7  10    0.29    0.22
   8  -7 -10    0.55    0.19
   8  -7  10    0.65    0.16
   8   7 -10    0.95    0.22
  -8  -7  11    1.43    0.26
  -8  -7  11    0.94    0.24
   8  -7 -11    1.76    0.35
   8   7 -11    1.38    0.48
   8  -8   0   21.71    1.62
  -8  -8   0   23.95    1.64
  -8  -8   0   23.91    1.63
  -8   8   0   24.88    1.65
   8  -8   0   19.67    1.63
  -8   8   0   21.24    1.63
  -8   8  -1  123.08    8.67
   8  -8  -1  127.75    8.66
   8  -8  -1  114.56    8.66
  -8  -8   1  121.62    8.66
  -8   8  -1  127.03    8.67
   8  -8  -1  118.59    8.67
  -8  -8   1  120.62    8.66
  -8  -8  -1  118.92    8.67
  -8   8   1  121.22    8.66
   8  -8   1  128.11    8.66
   8   8  -1  132.63    8.71
  -8   8  -2    5.66    0.48
  -8   8  -2    5.11    0.43
   8  -8  -2    4.16    0.41
  -8  -8   2    4.24    0.42
   8  -8  -2    4.99    0.41
  -8  -8   2    4.83    0.42
   8   8  -2    4.21    0.48
   8  -8   2    4.54    0.39
  -8  -8  -2    4.04    0.51
  -8   8   2    4.96    0.43
  -8   8  -3   42.91    2.97
   8  -8  -3   41.28    2.97
  -8   8  -3   43.12    2.99
  -8  -8   3   40.20    2.96
   8  -8  -3   39.75    2.97
   8  -8   3   40.75    2.96
  -8  -8  -3   42.36    3.00
  -8   8   3   42.79    2.98
   8   8  -3   42.05    3.00
  -8   8  -4   43.85    3.25
  -8   8  -4   45.94    3.39
  -8  -8  -4   47.31    3.29
   8   8  -4   44.79    3.27
  -8   8  -5    1.00    0.39
  -8  -8   5    1.63    0.32
   8  -8  -5    0.73    0.22
  -8   8  -5    1.04    0.22
   8  -8   5    1.20    0.25
  -8  -8   6    1.24    0.33
   8  -8  -6    1.35    0.29
  -8  -8  -6    1.61    0.43
  -8   8   6    2.64    0.51
   8  -8   6    1.65    0.32
  -8  -8   7   29.99    2.15
  -8  -8   7   27.58    2.13
  -8   8  -7   29.06    2.26
   8  -8  -7   26.71    2.15
  -8   8   7   32.29    2.15
   8  -8   7   28.52    2.10
  -8   8   7   27.56    2.13
  -8  -8  -7   30.59    2.20
  -8   8  -8   21.50    1.79
  -8  -8   8   22.07    1.64
   8  -8  -8   19.82    1.66
  -8   8   8   22.68    1.65
  -8  -8  -8   24.38    1.71
   8  -8   8   21.91    1.61
   8  -8  -9   24.38    1.69
  -8   8  -9   19.06    1.76
  -8  -8   9   21.12    1.67
  -8  -8   9   24.76    1.69
   8  -8   9   25.74    1.66
  -8  -8  -9   21.90    1.71
  -8   8   9   23.03    1.69
   8  -8 -10    0.77    0.21
  -8   8 -10    1.52    0.41
  -8  -8  10    1.18    0.24
  -8   8  10    1.66    0.54
  -8  -8 -10    1.89    0.39
   8   8 -10    1.15    0.23
  -8   9   0   42.61    3.03
  -8  -9   0   42.62    3.03
  -8  -9   0   42.08    3.03
   8  -9   0   46.32    3.03
  -8   9   0   43.12    3.05
   8  -9   0   39.08    3.05
  -8  -9   1   33.08    2.41
   8  -9  -1   33.93    2.41
  -8   9  -1   34.89    2.43
  -8  -9   1   33.33    2.41
   8  -9  -1   30.46    2.41
  -8   9  -1   33.97    2.42
  -8   9   1   36.25    2.44
   8  -9   1   35.07    2.41
  -8  -9  -1   32.78    2.42
   8   9  -1   34.67    2.47
  -8   9   1   33.30    2.41
  -8   9  -2   10.10    0.74
  -8  -9   2    8.95    0.69
   8  -9  -2    7.66    0.68
  -8  -9   2    9.16    0.68
  -8   9  -2    8.41    0.69
   8  -9   2    8.01    0.67
   8   9  -2    7.56    0.74
  -8  -9  -2    8.88    0.72
  -8   9   2    9.29    0.70
  -8   9   2   10.19    0.77
  -8   9  -3   18.21    1.23
   8  -9  -3   14.62    1.18
   8   9  -3   14.55    1.21
   8  -9   3   14.40    1.15
  -8   9   3   15.34    1.29
  -8   9   3   17.78    1.20
   8  -9  -4   87.28    6.10
  -8   9  -4   86.46    6.09
  -8   9  -4   87.11    6.12
  -8  -9   4   85.00    6.08
  -8  -9  -4   88.11    6.12
  -8   9   4   88.86    6.11
  -8   9   4   80.62    6.12
   8  -9   4   86.26    6.08
   8   9  -4   85.46    6.12
  -8   9  -5   13.94    1.04
   8  -9  -5   14.18    1.06
   8   9   5   13.06    1.11
  -8   9  -5   14.56    1.20
  -8  -9   5   13.36    1.03
   8   9  -5   13.04    1.10
  -8  -9  -5   13.19    1.16
  -8   9   5   11.32    1.09
  -8   9   5   14.56    1.11
   8  -9   5   13.74    1.01
  -8   9  -6    0.48    0.49
  -8  -9   6    0.98    0.32
   8  -9  -6    0.72    0.25
  -8  -9  -6    0.69    0.38
  -8   9   6    1.39    0.31
  -8  -9   7   11.88    0.90
  -8  -9   7    9.05    0.93
  -8   9  -7   10.96    1.15
   8  -9  -7    9.71    0.93
  -8  -9  -7   12.47    1.03
   8  -9   7   10.35    0.86
  -8   9   7   11.99    0.94
   8  -9  -8    7.38    0.69
  -8   9  -8    6.38    0.88
  -8  -9   8    6.52    0.65
  -8  -9   8    8.07    0.69
   8  -9   8    7.25    0.61
  -8  -9  -8    7.24    0.75
  -8   9   8    7.85    0.68
   8  -9  -9    7.86    0.67
  -8  -9   9    8.01    0.70
  -8  -9   9    6.83    0.65
   8  -9   9    8.16    0.61
  -8   9   9    7.66    0.69
  -8  -9  -9    7.14    0.70
  -8  -9  10    0.33    0.24
  -8  -9  10    0.73    0.27
  -8   9 -10    1.54    0.62
   8   9 -10    0.96    0.21
   8 -10   0   31.72    2.26
  -8  10   0   34.47    2.29
  -8 -10   0   30.98    2.33
  -8  10   0   30.86    2.26
   8 -10   0   29.55    2.25
   8 -10  -1   34.25    2.74
  -8 -10   1   36.48    2.80
  -8  10  -1   38.30    2.75
   8 -10  -1   38.86    2.75
  -8 -10   1   37.58    2.75
  -8  10   1   38.10    2.75
   8  10  -1   41.37    2.81
   8 -10   1   40.83    2.75
  -8  10   1   41.42    2.79
  -8  10  -2    4.43    0.51
  -8 -10   2    5.08    0.43
   8 -10  -2    4.74    0.43
  -8 -10   2    4.79    0.43
  -8  10  -2    4.99    0.45
  -8 -10  -2    3.98    0.46
   8 -10   2    5.23    0.42
   8  10  -2    5.24    0.51
  -8  10   2    4.73    0.58
  -8  10   2    5.22    0.45
  -8  10  -3   69.37    4.95
   8 -10  -3   67.71    4.93
  -8 -10   3   69.81    4.92
  -8  10  -3   72.32    4.93
  -8 -10  -3   71.78    4.94
   8  10  -3   69.30    4.96
  -8  10   3   62.43    4.97
  -8  10   3   73.11    4.94
   8 -10   3   70.48    4.92
  -8 -10   4   32.88    2.35
   8 -10  -4   32.32    2.37
  -8  10  -4   33.66    2.37
  -8  10  -4   35.63    2.43
   8  10   4   32.56    2.42
  -8  10   4   32.15    2.42
  -8 -10  -4   34.75    2.40
   8  10  -4   29.90    2.39
   8 -10   4   31.64    2.35
  -8  10   4   33.05    2.39
  -8  10  -5   27.53    2.08
  -8  10  -5   26.40    2.18
   8 -10  -5   31.42    2.10
  -8 -10   5   26.55    2.06
   8  10   5   31.19    2.13
  -8  10   5   29.12    2.12
  -8 -10  -5   26.50    2.13
  -8  10   5   24.88    2.11
   8 -10   5   30.99    2.06
   8  10  -5   30.66    2.12
  -8 -10   6   -0.01    0.22
  -8 -10   6    0.56    0.31
   8 -10  -6    0.01    0.22
  -8  10  -6   -0.51    0.46
  -8 -10  -6    0.05    0.33
  -8  10   6   -0.01    0.27
   8 -10   6    0.39    0.16
  -8  10  -7    6.43    1.01
  -8 -10   7    6.47    0.69
  -8 -10   7    6.15    0.75
  -8 -10  -7    6.27    0.90
  -8 -10   8   18.84    1.44
  -8  10  -8   20.46    1.57
  -8 -10   8   18.17    1.46
   8 -10  -8   18.64    1.47
  -8 -10  -8   20.83    1.49
   8 -10   8   19.55    1.42
  -8  10   8   19.75    1.45
  -8 -10   9    5.80    0.57
   8 -10  -9    7.68    0.59
  -8 -10   9    7.11    0.64
  -8  10   9    5.08    0.64
  -8 -10  -9    5.96    0.60
  -8  11   0  171.31   11.36
  -8 -11   0  162.68   11.33
  -8 -11   0  163.58   11.33
   8 -11   0  164.50   11.33
  -8  11   0  157.85   11.33
   8  11   0  163.10   11.40
   8 -11   0  144.30   11.32
  -8  11  -1   15.89    1.14
   8 -11  -1   13.32    1.09
  -8 -11   1   15.31    1.08
  -8  11  -1   14.66    1.09
   8 -11  -1   13.35    1.08
  -8 -11   1   15.56    1.08
  -8  11   1   14.03    1.09
  -8  11   1   16.82    1.17
  -8 -11  -1   15.26    1.09
   8  11  -1   12.29    1.14
   8 -11   1   13.35    1.07
  -8 -11  -1   15.22    1.09
  -8  11  -2    5.97    0.51
   8 -11  -2    6.13    0.49
  -8 -11   2    6.14    0.49
  -8  11  -2    5.65    0.58
   8 -11  -2    5.09    0.51
  -8 -11   2    6.10    0.50
  -8  11   2    5.86    0.67
   8 -11   2    6.00    0.48
   8  11  -2    5.16    0.55
  -8 -11  -2    5.17    0.52
  -8 -11  -2    5.55    0.52
  -8  11   2    6.16    0.52
  -8 -11   3   16.07    1.11
   8 -11  -3   14.62    1.14
  -8  11  -3   15.98    1.20
   8 -11  -3   14.17    1.12
  -8  11  -3   15.43    1.13
  -8  11   3   15.77    1.15
  -8 -11  -3   15.58    1.14
   8 -11   3   13.89    1.10
   8  11  -3   13.25    1.16
  -8  11  -4   16.58    1.48
  -8 -11   4   18.04    1.36
  -8  11  -4   18.49    1.38
   8 -11  -4   19.06    1.38
   8  11   4   19.93    1.45
   8 -11   4   19.04    1.36
   8  11  -4   19.21    1.41
  -8 -11  -4   18.51    1.41
  -8  11   4   17.97    1.47
  -8  11   4   18.04    1.41
   8  11   5   38.96    2.69
  -8  11  -5   33.64    2.75
   8 -11  -5   38.95    2.67
  -8 -11   5   35.49    2.63
   8 -11   5   38.34    2.63
  -8  11   5   35.11    2.70
  -8 -11  -5   35.59    2.69
   8  11  -5   37.81    2.68
   8 -11  -6    8.21    0.79
   8 -11   6    7.72    0.72
  -8 -11  -6   10.06    0.89
  -8  11   6    9.43    0.83
  -8  11  -7   10.41    1.00
  -8 -11   7    9.38    0.80
  -8 -11   7    7.59    0.85
  -8 -11  -7    9.92    0.86
  -8 -11   8   24.11    1.76
  -8  11  -8   23.79    1.82
  -8 -11   8   23.06    1.73
   8 -11  -8   23.05    1.75
  -8  11   8   23.32    1.75
   8 -11   8   24.59    1.71
  -8 -11  -8   24.47    1.76
   8 -11  -9    4.53    0.45
  -8 -11   9    3.49    0.46
  -8 -11   9    3.31    0.52
  -8  11  -9    3.06    0.70
  -8 -11  -9    4.20    0.43
   8  11  -9    3.65    0.44
  -8 -12   0   20.86    1.50
  -8 -12   0   20.28    1.50
   8  12   0   21.38    1.60
  -8  12   0   21.08    1.57
  -8  12   0   20.59    1.50
   8 -12   0   20.94    1.50
   8 -12   0   18.87    1.50
   8 -12  -1    9.56    0.82
  -8 -12   1   10.24    0.80
  -8  12  -1   10.32    0.81
   8  12   1    8.93    0.93
  -8  12  -1   10.33    0.88
   8 -12  -1   10.99    0.80
  -8 -12   1   10.44    0.81
  -8 -12  -1   10.34    0.81
   8 -12   1   11.08    0.80
   8  12  -1   11.80    0.90
  -8 -12  -1   10.18    0.81
  -8  12   1   10.86    0.94
  -8  12   1   10.89    0.82
  -8  12  -2    1.43    0.28
   8 -12  -2    1.70    0.26
  -8  12  -2    1.10    0.29
  -8 -12  -2    1.81    0.30
  -8  12   2    1.93    0.32
   8 -12   2    1.41    0.24
  -8  12   2    1.24    0.37
  -8 -12  -2    1.86    0.30
  -8  12  -3   53.89    3.73
  -8  12  -3   51.47    3.78
   8 -12  -3   51.74    3.73
  -8 -12   3   53.91    3.72
   8  12   3   54.35    3.81
   8 -12  -3   50.78    3.73
  -8  12   3   54.65    3.75
  -8 -12  -3   53.88    3.74
   8  12  -3   51.76    3.76
   8 -12   3   53.30    3.72
  -8 -12  -3   53.69    3.73
  -8  12   3   44.75    3.78
   8  12   4   18.15    1.42
  -8  12  -4   18.10    1.51
  -8  12  -4   18.74    1.37
   8 -12  -4   18.33    1.38
   8 -12  -4   18.55    1.36
  -8 -12   4   18.59    1.35
   8  12  -4   17.15    1.39
  -8 -12  -4   18.84    1.39
  -8  12   4   19.40    1.48
   8 -12   4   17.63    1.34
  -8  12   4   16.95    1.40
   8 -12  -5   20.81    1.50
  -8  12  -5   16.51    1.65
  -8 -12   5   19.28    1.46
  -8 -12  -5   18.04    1.51
   8  12  -5   21.27    1.52
   8 -12   5   21.90    1.45
  -8  12  -6    0.28    0.47
   8 -12  -6   -0.12    0.32
  -8 -12   6    0.45    0.23
   8 -12  -6    0.13    0.21
  -8 -12   6    0.10    0.51
  -8  12   6    0.05    0.25
   8 -12   6    0.26    0.17
  -8 -12  -6    0.10    0.27
  -8 -12   7    5.49    0.54
  -8  12  -7    5.24    0.76
  -8 -12   7    4.49    0.65
   8 -12  -7    4.90    0.55
   8 -12  -7    5.12    0.68
  -8  12   7    4.99    0.56
   8 -12   7    4.80    0.47
  -8 -12  -7    5.47    0.57
  -8 -12   8    8.52    0.81
   8 -12  -8    9.22    0.72
  -8 -12   8    8.42    0.70
   8 -12  -8    7.77    0.98
   8 -12   8    8.99    0.67
  -8  12   8    7.60    0.75
  -8 -12  -8    8.34    0.71
  -8  13   0   70.71    4.94
   8 -13   0   70.10    4.93
   8 -13   0   63.35    4.93
  -8 -13   0   69.77    4.93
  -8 -13   0   69.11    4.92
   8  13   0   75.15    5.02
  -8  13   0   69.43    4.99
  -8  13  -1   13.67    1.04
   8 -13  -1   12.91    1.03
  -8 -13   1   14.70    1.03
  -8 -13   1   14.34    1.03
  -8  13  -1   15.20    1.17
   8 -13  -1   12.44    1.04
   8  13  -1   13.84    1.12
  -8 -13  -1   14.15    1.04
  -8  13   1   13.30    1.18
   8 -13   1   13.22    1.03
  -8 -13  -1   14.31    1.04
  -8  13   1   13.73    1.05
   8 -13  -2    1.82    0.29
  -8 -13   2    2.61    0.31
   8 -13  -2    2.33    0.36
  -8  13  -2    2.51    0.32
  -8  13  -2    2.72    0.60
   8 -13   2    2.45    0.28
   8  13  -2    1.78    0.39
  -8  13   2    2.25    0.36
  -8 -13  -2    1.96    0.32
  -8 -13  -2    2.01    0.33
   8  13   3   16.20    1.29
  -8  13  -3   16.23    1.20
  -8  13  -3   16.76    1.37
   8 -13  -3   15.46    1.21
  -8 -13   3   16.94    1.19
   8 -13  -3   15.44    1.19
  -8 -13  -3   16.23    1.20
   8  13  -3   14.43    1.23
  -8  13   3   15.99    1.43
  -8  13   3   15.74    1.23
  -8 -13  -3   16.62    1.20
   8 -13   3   15.00    1.17
  -8  13  -4   17.41    1.71
   8 -13  -4   20.23    1.48
  -8 -13  -4   20.27    1.51
   8  13  -4   21.55    1.49
  -8  13   4   18.18    1.58
   8 -13  -5   15.68    1.10
  -8  13  -5   13.17    1.28
  -8 -13   5   14.67    1.08
   8 -13  -5   11.67    1.14
   8  13   5   15.38    1.14
  -8 -13  -5   13.81    1.12
  -8 -13  -5   13.89    1.12
   8 -13   5   15.36    1.06
  -8  13   5   12.55    1.14
  -8  13  -6    6.58    0.86
  -8 -13   6    6.73    0.59
  -8  13   6    6.12    0.63
  -8 -13  -6    6.05    0.62
   8 -13   6    4.74    0.53
   8 -13  -7    6.67    0.66
  -8  13  -7    5.35    1.35
  -8 -13   7    7.81    0.65
  -8 -13  -7    8.48    0.67
   8 -13   7    7.30    0.60
   8 -14   0   24.09    1.81
  -8  14   0   22.54    2.31
  -8  14   0   24.66    1.82
  -8 -14   0   25.98    1.81
  -8 -14   0   25.98    1.83
   8  14   0   25.72    1.91
  -8  14  -1   29.24    2.48
   8 -14  -1   28.59    2.27
   8 -14  -1   33.26    2.26
   8  14   1   29.97    2.37
  -8  14  -1   30.49    2.26
  -8 -14   1   33.04    2.26
   8  14  -1   32.23    2.47
  -8 -14  -1   31.94    2.24
  -8  14   1   33.79    2.29
   8 -14   1   31.59    2.24
  -8  14   1   25.66    2.39
  -8  14  -2    1.90    0.39
  -8 -14   2    3.00    0.34
  -8  14  -2    2.43    0.60
   8 -14  -2    2.75    0.41
   8 -14  -2    2.50    0.31
  -8 -14  -2    2.66    0.35
  -8  14   2    2.68    0.39
  -8 -14  -2    3.09    0.35
   8 -14   2    2.44    0.30
   8  14  -2    2.00    0.41
  -8  14  -3   19.14    1.73
  -8  14  -3   20.33    1.50
   8  14   3   20.76    1.58
   8 -14  -3   19.36    1.52
   8 -14  -3   20.56    1.49
  -8 -14   3   21.09    1.48
  -8  14   3   19.90    1.53
   8 -14   3   20.47    1.48
  -8 -14  -3   20.85    1.50
   8  14  -3   19.26    1.53
  -8 -14  -3   21.46    1.50
  -8  14  -4   21.25    1.85
   8 -14  -4   19.53    1.68
   8  14   4   23.84    1.70
  -8 -14   4   22.69    1.64
   8 -14  -4   24.12    1.66
   8 -14   4   22.41    1.63
  -8 -14  -4   23.83    1.66
  -8 -14  -4   23.32    1.67
   8  14  -4   21.51    1.67
  -8 -14   5    3.21    0.43
   8 -14  -5    3.16    0.44
  -8  14  -5    4.43    0.92
   8  14   5    4.21    0.50
   8 -14   5    4.01    0.39
  -8  14   5    3.67    0.52
  -8 -14  -5    2.98    0.50
  -8 -14   6    0.74    0.24
  -8  14   6    0.79    0.30
  -8 -14  -6    0.93    0.27
  -8 -14  -6    0.88    0.24
   8  15   0   16.98    1.20
   8 -15   0   14.47    1.08
  -8 -15   0   13.85    1.08
  -8  15   0   13.40    1.10
  -8  15  -1   14.07    1.09
   8  15   1   12.28    1.19
  -8 -15   1   14.55    1.07
   8 -15  -1   14.34    1.08
   8 -15   1   14.56    1.07
   8  15  -1   16.73    1.16
  -8 -15  -1   14.39    1.07
  -8  15   1   15.21    1.10
  -8 -15  -1   14.26    1.08
  -8  15  -2    9.72    0.78
   8 -15  -2    9.06    0.75
  -8 -15   2   10.65    0.76
  -8  15   2    9.88    0.81
   8  15  -2    8.84    0.81
  -8 -15  -2   10.38    0.77
  -8 -15  -2   10.16    0.76
   8 -15   2    9.14    0.74
   8 -15  -3    5.90    0.51
   8  15   3    5.95    0.63
  -8  15   3    5.58    0.61
   8  15  -3    5.24    0.57
   8 -15   3    6.32    0.49
  -8 -15   4   45.52    3.35
   8 -15  -4   48.18    3.36
   8  15   4   49.56    3.39
   8 -15   4   47.45    3.34
  -8 -15  -4   49.02    3.36
  -8 -15  -4   44.79    3.36
   8  15  -4   45.30    3.37
  -8 -15   5    5.65    0.52
   8  15   5    5.35    0.58
   8 -15  -5    4.56    0.50
  -8  15   5    4.60    0.68
   8 -15   5    4.88    0.47
  -8 -15  -5    5.53    0.56
  -8 -15  -5    5.18    0.53
   8 -16   0    9.17    0.74
   8  16   0    9.57    0.85
  -8  16   0    9.31    0.79
  -8 -16   0   10.90    0.75
   8 -16  -1   30.27    2.15
  -8  16  -1   30.34    2.17
   8  16   1   26.71    2.23
  -8 -16   1   29.80    2.15
  -8 -16  -1   29.52    2.15
  -8  16   1   30.36    2.18
   8  16  -1   33.84    2.22
   8 -16   1   29.88    2.15
  -8 -16   2    2.21    0.31
   8 -16  -2    1.99    0.29
  -8 -16  -2    2.64    0.33
   8 -16   2    1.90    0.27
  -8 -16   3    8.66    0.70
   8  16   3    9.79    0.78
   8 -16  -3    8.78    0.70
   8 -16   3    7.91    0.68
  -8 -16  -3    9.18    0.71
  -8 -16  -3    8.55    0.71
  -8 -16   4   11.87    0.94
   8  16   4   13.89    0.99
   8 -16  -4   12.36    0.97
   8 -16   4   11.98    0.93
  -8 -16  -4   13.74    1.11
  -8 -16  -4   11.07    1.07
  -8  16   4   12.25    1.04
  -8 -17   0   23.62    1.76
  -8  17   0   23.21    1.80
   8 -17   0   24.36    1.76
   8  17   0   27.06    1.84
   8  17   1    5.91    0.64
   8 -17  -1    5.63    0.53
  -8 -17   1    5.55    0.53
   8  17  -1    5.84    0.68
   8 -17   1    5.35    0.47
  -8 -17  -1    6.16    0.56
  -8  17   1    4.83    0.63
  -9   0   0    0.03    0.11
  -9   0  -1  140.85    9.73
   9   0  -1  137.71    9.73
  -9   0   1  136.57    9.73
   9   0  -2  210.70   15.40
  -9   0  -2  228.60   15.35
   9   0  -2  218.25   15.36
  -9   0   2  216.65   15.35
   9   0  -3  126.43    9.15
  -9   0   3  129.15    9.07
   9   0  -3  130.91    9.09
  -9   0   4    4.19    0.48
   9   0  -4    5.55    1.04
   9   0  -4    4.46    0.62
  -9   0   5   42.54    3.07
   9   0  -5   43.61    3.09
  -9   0  -6    5.04    0.92
   9   0  -6    4.18    0.46
   9   0   6    3.57    0.44
  -9   0   6    4.92    0.43
  -9   0   6    2.84    0.61
   9   0  -7   45.58    3.13
  -9   0   7   48.32    3.15
  -9   0   7   42.82    3.12
  -9   0  -7   38.21    3.26
   9   0   8    3.75    0.41
   9   0  -8    4.47    0.45
  -9   0  -8    3.36    0.58
  -9   0   8    4.21    0.43
  -9   0   8    4.09    0.47
  -9   0   9   12.25    1.06
   9   0   9   13.00    1.02
   9   0  -9   16.13    1.07
  -9   0 -10    3.76    0.70
   9   0 -10    3.11    0.44
  -9   0  10    3.96    0.48
  -9   0  10    2.61    0.43
   9   0 -11    1.00    0.23
  -9   0  11    1.29    0.23
  -9   1   0    0.43    0.14
  -9  -1   0    0.35    0.12
  -9  -1   1   67.37    4.96
   9  -1  -1   72.28    5.02
  -9   1  -1   72.67    4.98
   9  -1  -1   69.89    4.97
   9   1  -1   70.87    4.97
  -9  -1  -1   70.98    4.96
  -9   1   1   68.97    4.97
  -9  -1   2  254.46   19.68
   9  -1  -2  281.11   19.68
   9  -1  -2  273.51   19.75
  -9   1  -2  293.60   19.68
  -9  -1  -2  292.74   19.67
   9   1  -2  271.47   19.70
  -9   1   2  291.81   19.68
   9   1  -2  283.09   19.68
   9  -1  -3   25.29    1.93
  -9  -1   3   24.01    1.73
   9  -1  -3   24.97    1.75
   9   1  -3   24.55    1.75
   9   1  -3   20.36    1.88
  -9   1   3   24.33    1.74
  -9  -1   4    2.30    0.38
   9  -1  -4    1.74    0.44
   9   1  -4    1.98    0.43
  -9   1   4    2.26    0.38
   9  -1  -5   34.50    2.66
  -9  -1   5   36.50    2.59
  -9  -1  -5   33.67    2.65
  -9   1   5   38.83    2.60
   9   1  -5   37.64    2.65
   9   1   6   45.32    3.67
  -9   1  -6   47.47    4.02
  -9  -1   6   52.77    3.73
  -9  -1   6   49.90    3.67
   9  -1  -6   53.73    3.69
   9  -1   6   54.76    3.66
  -9   1   6   54.23    3.75
   9   1  -6   53.66    3.68
  -9   1   6   53.14    3.67
  -9  -1   7    5.66    0.55
   9  -1  -7    6.86    0.58
  -9  -1   7    6.73    0.62
  -9   1  -7    5.27    1.28
  -9  -1  -7    4.40    0.95
  -9   1   7    7.24    0.64
  -9   1   7    6.09    0.55
   9   1  -7    5.87    0.56
   9  -1  -8    0.22    0.18
  -9  -1   8    0.13    0.19
   9   1   8    0.17    0.18
  -9   1  -8   -0.03    0.48
  -9  -1   8    0.09    0.21
  -9   1   8   -0.30    0.21
  -9  -1  -8    0.47    0.42
   9  -1   8   -0.12    0.14
  -9   1   8    0.17    0.18
   9   1  -8    0.14    0.19
  -9  -1   9   11.54    0.83
   9  -1  -9   10.56    0.84
  -9  -1   9    9.02    0.82
   9  -1   9    8.87    0.78
  -9  -1  -9   12.54    1.02
  -9   1   9   11.41    0.83
  -9   1   9    9.00    0.83
   9   1  -9    9.56    0.83
  -9  -1  10   25.54    1.91
  -9   1 -10   26.35    2.02
  -9  -1  10   27.42    1.92
   9  -1 -10   25.90    1.92
  -9   1  10   26.47    1.92
  -9  -1 -10   25.67    2.00
  -9   1  10   26.39    1.92
   9   1 -10   26.69    1.92
   9  -1 -11    4.04    0.43
  -9  -1  11    3.15    0.45
  -9  -1  11    3.14    0.47
  -9   1 -11    2.80    0.59
   9   1 -11    3.59    0.45
  -9  -1 -11    3.02    0.60
  -9   1  11    2.52    0.49
  -9   2   0    0.03    0.13
  -9  -2   0    0.07    0.10
   9  -2  -1   93.63    6.68
  -9   2  -1  100.03    6.68
   9  -2  -1   89.70    6.68
  -9  -2   1   93.06    6.67
   9  -2  -1   95.21    6.70
   9   2  -1   98.13    6.67
  -9   2   1   94.30    6.68
  -9  -2  -1   94.10    6.66
  -9  -2   2   80.29    6.08
  -9   2  -2   88.91    6.09
  -9  -2   2   95.18    6.15
   9  -2  -2   82.47    6.09
   9   2  -2   82.08    6.10
  -9  -2  -2   89.66    6.07
  -9   2   2   85.57    6.09
   9  -2  -3   55.54    3.83
  -9  -2   3   52.98    3.92
  -9  -2   3   57.08    3.82
   9  -2  -3   46.81    3.93
   9   2  -3   57.89    3.83
   9   2  -3   47.24    3.88
  -9   2   3   57.66    3.83
   9  -2  -4   -0.66    0.76
  -9  -2   4   -0.13    0.27
  -9  -2   4    1.93    0.76
  -9   2   4    0.16    0.28
   9   2  -4    0.18    0.78
   9   2  -4    0.37    0.41
  -9  -2  -4    0.19    0.24
  -9  -2   5   33.99    2.30
   9  -2  -5   27.56    2.39
   9  -2   5   32.34    2.25
  -9  -2  -5   31.80    2.33
   9  -2  -6    5.05    0.56
  -9  -2   6    5.72    0.53
  -9   2  -6    7.26    1.26
   9  -2   6    5.48    0.48
  -9   2   6    5.99    0.53
  -9   2  -7   25.83    2.20
  -9  -2   7   27.66    1.95
   9  -2  -7   28.31    1.95
  -9  -2   7   24.76    1.92
  -9   2   7   25.00    1.92
   9  -2   7   28.41    1.91
   9   2  -7   26.04    1.93
  -9  -2   8    1.32    0.24
  -9   2  -8    0.87    0.52
   9  -2  -8    1.12    0.23
  -9  -2   8    0.81    0.22
  -9  -2  -8    0.73    0.42
   9   2  -8    0.84    0.21
  -9   2   8    0.75    0.21
   9  -2   8    1.31    0.18
  -9   2   8    1.11    0.25
  -9   2  -9   30.21    2.03
   9  -2  -9   26.01    1.89
  -9  -2   9   28.33    1.89
  -9  -2   9   22.74    1.88
  -9   2   9   27.24    1.88
  -9   2   9   22.99    1.88
   9   2  -9   24.75    1.88
   9  -2   9   22.49    1.85
  -9  -2  -9   27.81    1.97
   9  -2 -10    4.09    0.45
  -9   2 -10    4.01    0.71
  -9  -2  10    2.95    0.46
  -9  -2  10    3.98    0.48
  -9   2  10    3.99    0.49
   9  -2  10    3.38    0.39
  -9  -2 -10    4.32    0.64
   9   2 -10    4.40    0.49
  -9  -2  11    2.81    0.46
  -9   2 -11    1.95    0.45
   9  -2 -11    3.06    0.41
   9   2 -11    2.44    0.42
  -9  -2 -11    2.75    0.55
  -9   2  11    3.07    0.47
  -9  -3   0    0.91    0.14
   9  -3   0    0.93    0.21
   9  -3  -1   52.15    3.69
  -9  -3   1   50.88    3.67
  -9   3  -1   53.63    3.69
   9  -3  -1   51.69    3.70
  -9   3   1   50.57    3.68
   9   3  -1   52.73    3.67
  -9  -3   2  177.60   11.50
  -9   3  -2  169.61   11.51
   9  -3  -2  162.71   11.53
   9  -3  -2  161.71   11.50
   9  -3  -2  146.75   11.51
  -9  -3   2  180.44   11.57
   9  -3   2  154.74   11.49
   9   3  -2  162.93   11.49
  -9   3   2  163.95   11.50
   9   3  -2  154.10   11.51
  -9  -3   3   18.82    1.51
   9  -3  -3   15.74    1.40
  -9  -3   3   16.09    1.20
   9  -3  -3   15.18    1.22
   9  -3   3   14.63    1.27
   9   3  -3   16.27    1.20
  -9  -3  -3   16.64    1.18
  -9   3   3   15.92    1.19
   9   3  -3   16.49    1.36
  -9  -3  -3   15.16    1.17
  -9   3  -4    1.24    0.89
   9  -3  -4    1.77    0.34
   9   3  -4    1.95    0.48
   9  -3  -5   21.27    1.62
   9  -3  -5   20.82    1.59
  -9  -3   5   24.15    1.63
  -9   3   5   23.64    1.62
   9  -3   5   19.85    1.58
  -9   3  -6   76.90    5.65
   9  -3  -6   71.92    5.55
  -9  -3   6   74.49    5.53
   9  -3  -6   89.94    5.53
  -9   3   6   78.95    5.58
   9  -3   6   83.45    5.52
  -9  -3  -6   67.74    5.64
  -9   3   6   82.19    5.54
  -9   3  -7   15.44    1.55
  -9  -3   7   14.79    1.22
   9  -3  -7   16.91    1.26
  -9   3   7   16.61    1.23
   9  -3   7   16.35    1.20
  -9   3   7   18.03    1.30
  -9  -3   8    2.40    0.42
   9  -3  -8    2.48    0.42
  -9   3  -8    3.91    0.88
  -9  -3  -8    3.76    0.68
   9  -3  -9    5.46    0.58
   9   3  -9    5.68    0.59
  -9  -3  -9    6.54    0.74
  -9   3   9    6.73    0.59
   9  -3 -10   28.72    2.17
  -9  -3  10   27.85    2.17
  -9   3 -10   31.13    2.26
  -9  -3  10   30.58    2.17
   9   3 -10   31.03    2.18
   9  -3  10   28.70    2.14
  -9  -3 -10   30.97    2.23
  -9   3  10   31.17    2.18
  -9  -3  11    6.20    0.59
   9  -3 -11    6.56    0.57
  -9  -3  11    5.78    0.60
  -9   3 -11    5.45    0.70
  -9   3  11    6.79    0.65
  -9  -3 -11    5.23    0.68
   9   3 -11    6.51    0.58
   9  -4   0    0.35    0.26
  -9   4   0    0.05    0.17
   9  -4  -1   76.14    5.84
  -9   4  -1   86.91    5.84
  -9  -4   1   85.66    5.86
   9   4  -1   83.18    5.83
   9  -4   1   79.73    5.83
   9   4  -1   86.79    5.80
  -9   4   1   79.04    5.83
  -9  -4   2   79.91    5.19
   9  -4  -2   66.17    5.10
   9  -4  -2   71.68    5.13
   9   4  -2   71.95    5.12
   9  -4   2   74.67    5.11
   9   4  -2   67.91    5.08
  -9   4  -3   71.10    4.60
  -9   4  -3   58.99    4.61
   9  -4  -3   60.92    4.68
   9  -4  -3   69.61    4.61
  -9  -4   3   67.30    4.76
   9  -4  -3   55.05    4.66
   9   4  -3   64.19    4.66
   9  -4   3   58.79    4.62
   9   4  -3   74.84    4.59
  -9  -4   4    1.55    0.24
   9  -4  -4    1.78    0.28
   9  -4  -4    1.60    0.24
   9  -4   4    2.22    0.29
   9   4  -4    2.26    0.54
  -9   4   4    1.48    0.30
  -9   4  -5   38.94    2.52
  -9  -4   5   34.55    2.42
   9  -4  -5   33.44    2.43
   9   4  -5   30.09    2.45
   9  -4   5   30.38    2.40
  -9   4   5   34.40    2.44
  -9  -4   6   11.54    0.96
   9  -4  -6   10.90    0.84
  -9   4  -6   12.84    1.21
   9  -4   6   10.06    0.84
  -9  -4  -6   11.02    1.26
  -9  -4   7   29.38    2.05
  -9  -4   7   27.07    2.06
   9  -4  -7   28.56    2.08
  -9   4  -7   26.57    2.25
  -9  -4  -7   26.50    2.14
   9  -4   7   29.35    2.02
  -9   4   7   29.76    2.06
  -9  -4   8    0.73    0.24
  -9  -4   8    1.14    0.26
  -9   4  -8    0.84    0.55
   9  -4  -8    1.11    0.25
   9   4  -8    0.92    0.23
  -9   4   8    1.86    0.38
  -9  -4  -8    1.30    0.39
  -9   4  -9   22.85    1.74
  -9  -4   9   23.97    1.61
  -9  -4   9   20.10    1.61
   9  -4  -9   21.46    1.61
  -9  -4  -9   21.61    1.67
  -9   4   9   21.85    1.61
   9  -4   9   20.21    1.57
   9   4  -9   21.73    1.61
  -9  -4  10    6.76    0.59
  -9   4 -10    6.95    0.77
  -9  -4  10    5.27    0.58
   9  -4 -10    6.34    0.58
  -9   4  10    5.89    0.60
   9   4 -10    7.10    0.60
   9  -4  10    5.38    0.52
  -9  -4 -10    5.96    0.68
   9  -4 -11    4.84    0.51
  -9  -4  11    5.73    0.55
  -9   4 -11    4.54    0.65
  -9  -4  11    4.86    0.54
  -9  -4 -11    5.07    0.62
  -9   4  11    5.04    0.61
   9   4 -11    6.19    0.54
  -9   5   0    0.71    0.24
   9  -5   0    1.52    0.33
  -9  -5   1   45.07    3.16
   9  -5  -1   42.26    3.16
  -9   5  -1   43.86    3.13
   9   5  -1   46.07    3.15
  -9   5   1   40.80    3.12
   9  -5   1   44.25    3.15
   9  -5  -2  164.82   11.37
   9  -5  -2  148.23   11.40
  -9   5  -2  153.96   11.38
  -9  -5   2  166.47   11.42
  -9   5  -2  169.33   11.38
   9  -5   2  156.98   11.38
   9   5  -2  167.76   11.34
  -9   5   2  163.22   11.37
   9  -5  -3   13.32    1.04
   9  -5  -3   13.35    1.03
  -9   5   3   14.00    1.06
   9  -5   3   15.20    1.05
   9   5  -3   14.01    1.09
  -9   5  -4    1.13    0.35
  -9   5  -4    0.96    0.25
   9  -5  -4    1.20    0.21
   9  -5  -4    1.69    0.26
   9   5  -4    1.42    0.25
   9  -5   4    1.33    0.27
  -9   5   4    0.91    0.26
  -9   5  -5   26.73    1.78
   9  -5  -5   22.29    1.73
  -9  -5   5   26.14    1.76
   9  -5  -5   25.83    1.78
  -9   5   5   22.71    1.78
   9  -5   5   22.58    1.74
   9   5  -5   22.40    1.83
   9  -5  -6   56.72    4.69
   9  -5  -6   76.31    4.66
  -9  -5   6   65.76    4.68
  -9   5  -6   62.10    5.01
   9  -5   6   69.09    4.67
  -9   5   6   68.19    4.70
  -9  -5  -6   62.64    4.76
  -9   5  -7    7.46    1.04
  -9  -5   7    7.20    0.66
   9  -5  -7    6.53    0.69
  -9  -5   7    6.81    0.69
   9  -5   7    8.31    0.60
  -9  -5  -7    6.23    0.85
  -9   5   7    7.50    0.68
   9  -5  -8    0.26    0.35
  -9   5  -8    0.66    0.53
  -9   5   8    0.67    0.24
  -9   5  -9    5.81    0.84
  -9  -5   9    5.03    0.55
   9  -5  -9    4.22    0.56
  -9   5   9    5.40    0.56
   9   5  -9    4.65    0.55
  -9  -5  -9    5.91    0.68
  -9  -5  10   19.63    1.47
  -9  -5  10   20.11    1.47
  -9   5 -10   19.19    1.56
   9  -5 -10   20.26    1.47
  -9  -5 -10   19.68    1.51
  -9   5  10   19.42    1.47
   9   5 -10   20.77    1.47
   9  -5  10   19.13    1.43
   9  -5 -11    4.09    0.43
  -9  -5  11    3.29    0.45
  -9  -5 -11    3.52    0.51
   9   5 -11    3.74    0.45
  -9   5  11    4.43    0.64
   9   6   0    0.69    0.43
  -9  -6   0    0.57    0.35
  -9   6   0    0.32    0.23
   9   6   0    0.30    0.29
   9   6   1   49.71    4.22
  -9  -6   1   56.98    4.08
  -9   6  -1   60.62    4.06
   9  -6  -1   49.22    4.02
   9  -6  -1   60.98    4.02
  -9   6   1   59.08    4.04
   9   6  -1   59.75    4.06
   9  -6  -2   60.43    4.74
   9  -6  -2   68.87    4.73
  -9   6   2   69.12    4.73
   9  -6   2   70.63    4.72
   9   6  -2   65.68    4.76
   9  -6  -3   55.25    3.95
  -9   6  -3   51.84    3.93
  -9   6  -3   52.59    3.95
  -9  -6   3   52.52    3.93
   9   6   3   62.16    4.02
   9   6  -3   54.49    3.96
   9  -6   3   60.00    3.92
  -9   6  -4    2.19    0.35
   9  -6  -4    1.54    0.29
   9   6   4    2.07    0.39
   9  -6   4    1.78    0.27
  -9   6   4    2.10    0.39
   9  -6  -5   39.76    2.92
  -9  -6   5   39.27    2.88
   9  -6  -5   41.18    2.87
  -9   6  -5   42.32    2.94
  -9   6  -5   41.47    2.89
   9  -6   5   40.16    2.87
   9   6  -5   37.91    2.92
   9  -6  -6    6.54    0.54
  -9   6  -6    8.62    0.92
   9  -6  -6    5.62    0.65
  -9   6   6    6.93    0.67
   9  -6   6    7.04    0.58
  -9  -6  -6    6.32    0.94
  -9  -6   7   23.24    1.75
   9  -6  -7   22.41    1.78
  -9  -6   7   23.75    1.76
   9  -6   7   26.26    1.72
  -9  -6  -7   21.02    1.84
  -9   6   7   25.42    1.77
  -9  -6   8    0.42    0.25
   9  -6  -8    0.36    0.25
  -9  -6   8    0.04    0.21
  -9   6  -8    0.31    0.49
  -9  -6  -8    0.39    0.37
  -9   6   8    0.07    0.23
   9  -6   8    0.64    0.16
   9  -6  -9   15.37    1.18
  -9  -6   9   15.60    1.19
  -9   6  -9   16.40    1.36
  -9  -6   9   13.93    1.18
   9   6  -9   14.82    1.18
  -9  -6  -9   17.41    1.25
   9  -6   9   13.76    1.13
  -9   6   9   15.56    1.18
   9  -6 -10    4.54    0.48
  -9  -6  10    4.78    0.50
  -9   6 -10    3.97    0.67
  -9  -6  10    4.70    0.54
   9  -6  10    4.50    0.44
   9   6 -10    4.81    0.51
  -9   6  10    5.24    0.53
  -9  -6 -10    4.84    0.58
  -9  -6  11    2.83    0.43
  -9   6 -11    1.14    0.37
   9  -6 -11    2.07    0.39
  -9  -6  11    1.89    0.31
   9   6 -11    1.89    0.26
  -9   6  11    1.55    0.56
  -9  -6 -11    1.77    0.42
   9  -7   0    0.51    0.12
   9  -7   0    0.49    0.14
   9   7   0    0.71    0.24
  -9   7  -1   59.79    4.15
  -9   7  -1   61.54    4.15
   9  -7  -1   62.54    4.15
   9  -7  -1   50.75    4.16
  -9   7   1   59.12    4.15
   9   7  -1   62.50    4.21
   9  -7   1   60.67    4.14
   9  -7   1   52.06    4.14
  -9  -7   2  118.42    8.48
   9  -7  -2  120.01    8.50
  -9   7  -2  120.54    8.50
  -9   7  -2  123.81    8.49
   9  -7  -2  124.15    8.49
  -9  -7   2  112.54    8.48
   9  -7   2  128.37    8.49
  -9   7   2  124.58    8.52
   9  -7   2  112.88    8.48
  -9   7  -3   21.07    1.55
  -9  -7   3   20.09    1.54
   9  -7  -3   21.11    1.55
   9   7   3   22.19    1.66
   9  -7  -3   21.91    1.55
  -9   7  -3   22.06    1.58
  -9  -7   3   20.95    1.54
   9   7  -3   20.16    1.58
  -9   7   3   21.77    1.56
   9  -7   3   21.86    1.53
   9  -7  -4    2.34    0.33
   9  -7  -4    2.60    0.30
  -9   7  -4    2.54    0.36
  -9  -7   4    2.84    0.35
  -9   7  -4    3.19    0.48
   9   7  -4    2.27    0.42
   9  -7   4    2.93    0.31
  -9   7   4    2.41    0.42
   9  -7  -5   24.55    1.89
   9  -7  -5   28.34    1.94
  -9   7  -5   28.31    1.93
  -9  -7   5   29.49    1.92
   9   7  -5   24.87    1.96
  -9   7   5   23.13    1.95
   9  -7   5   26.01    1.90
  -9  -7  -5   26.35    2.06
  -9   7  -6   58.64    4.12
   9  -7  -6   55.73    4.06
  -9  -7   6   57.12    4.04
  -9  -7  -6   50.16    4.10
   9  -7   6   61.26    4.03
  -9   7   6   56.50    4.06
  -9  -7   7    5.84    0.65
  -9   7  -7    5.31    0.95
   9  -7  -7    5.91    0.64
  -9  -7   7    6.04    0.62
  -9  -7  -7    5.39    0.79
   9  -7   7    6.42    0.53
  -9   7   7    6.13    0.64
  -9  -7   8    0.39    0.27
   9  -7  -8    0.15    0.23
  -9  -7   8    0.10    0.22
  -9   7  -8   -0.01    0.48
   9  -7   8    0.20    0.15
  -9   7   8    0.50    0.24
  -9  -7  -8    0.66    0.36
   9  -7  -9    3.73    0.43
  -9  -7   9    3.01    0.49
  -9  -7   9    3.83    0.44
   9   7  -9    2.57    0.44
  -9   7   9    3.49    0.46
   9  -7   9    2.73    0.35
   9  -7 -10   21.26    1.59
  -9   7 -10   19.09    1.65
  -9  -7  10   22.93    1.61
  -9  -7  10   21.82    1.58
   9   7 -10   23.79    1.60
  -9  -7 -10   21.09    1.62
  -9   7  10   21.67    1.60
   9  -7  10   21.86    1.56
  -9  -8   0   -0.01    0.21
   9  -8   0   -0.09    0.10
   9   8   0    0.12    0.23
  -9   8   0   -0.04    0.13
   9  -8   0   -0.05    0.10
  -9   8   0    0.04    0.16
  -9  -8   0   -0.06    0.16
   9  -8  -1   37.89    2.68
  -9   8  -1   38.78    2.70
   9  -8  -1   35.55    2.69
  -9   8  -1   39.10    2.69
   9   8  -1   38.51    2.74
   9  -8   1   38.99    2.68
  -9   8   1   37.08    2.69
  -9  -8  -1   35.89    2.70
  -9  -8   2   33.28    2.31
   9  -8  -2   31.67    2.31
  -9  -8   2   32.71    2.31
  -9   8  -2   33.80    2.31
   9  -8  -2   29.50    2.32
  -9   8  -2   35.78    2.33
   9  -8   2   33.14    2.30
  -9   8   2   33.02    2.32
   9   8  -2   30.37    2.35
  -9  -8  -2   29.65    2.38
   9  -8  -3   24.44    1.81
   9   8   3   26.53    1.91
  -9  -8   3   23.49    1.80
  -9   8  -3   23.71    1.84
   9  -8  -3   28.35    1.82
  -9   8  -3   24.98    1.81
  -9   8   3   25.33    1.82
   9  -8   3   26.76    1.80
  -9  -8  -3   21.04    1.86
   9   8  -3   25.93    1.85
   9  -8  -4    1.54    0.30
  -9   8  -4    2.31    0.46
  -9   8  -4    1.73    0.37
  -9  -8  -4    2.62    0.56
  -9   8   4    1.46    0.27
   9  -8   4    1.64    0.25
   9   8  -4    0.97    0.26
  -9  -8   5   32.62    2.35
  -9   8  -5   32.46    2.35
  -9   8  -5   33.12    2.43
   9  -8  -5   34.74    2.37
   9   8   5   33.89    2.42
   9   8  -5   34.07    2.39
   9  -8   5   34.87    2.34
  -9  -8  -5   28.71    2.43
  -9   8   5   28.53    2.38
  -9  -8   6   10.84    0.88
   9  -8  -6    9.83    0.89
  -9   8  -6   11.73    1.11
  -9  -8  -6    9.17    1.03
   9  -8   6   10.93    0.83
  -9   8   6    9.89    0.91
  -9  -8   7   15.71    1.16
   9  -8  -7   13.74    1.16
  -9  -8   7   14.44    1.13
  -9   8   7   12.74    1.14
  -9   8   7   16.27    1.16
  -9  -8  -7   13.04    1.25
  -9   8  -8    1.02    0.73
  -9  -8   8    0.33    0.28
  -9  -8   8    0.47    0.41
   9  -8  -9   16.78    1.32
  -9  -8   9   19.44    1.32
  -9   8  -9   19.33    1.43
  -9  -8   9   15.27    1.34
  -9   8   9   18.71    1.32
   9   8  -9   18.82    1.33
   9  -8   9   15.38    1.28
  -9  -8  10    2.90    0.41
  -9   8 -10    2.87    0.59
   9  -8 -10    3.60    0.40
  -9  -8 -10    3.26    0.45
   9   8 -10    3.48    0.43
  -9   9   0    1.92    0.33
  -9  -9   0    1.32    0.29
  -9   9   0    1.26    0.25
  -9  -9   0    1.60    0.29
  -9   9  -1   27.14    1.90
   9  -9  -1   25.41    1.89
  -9  -9   1   26.59    1.90
  -9  -9   1   27.38    1.90
  -9   9  -1   27.08    1.92
  -9   9   1   28.86    1.93
  -9  -9  -1   25.42    1.91
   9  -9   1   26.22    1.89
  -9   9   1   25.34    1.90
   9   9  -1   24.83    1.95
  -9  -9  -1   25.91    1.90
  -9   9  -2   84.54    5.75
  -9  -9   2   82.64    5.71
  -9   9  -2   78.67    5.81
  -9  -9   2   80.24    5.71
   9  -9  -2   73.68    5.71
  -9  -9  -2   78.37    5.72
   9   9  -2   88.56    5.77
   9  -9  -3   12.03    0.92
  -9   9  -3   12.76    0.93
   9   9   3   11.45    1.04
  -9  -9   3   12.16    0.92
  -9   9  -3   13.53    0.98
   9  -9   3   12.29    0.91
   9   9  -3   11.15    0.97
  -9  -9  -3   11.16    1.17
  -9   9   3   13.23    0.95
  -9   9   3   11.67    1.03
   9   9   4    4.13    0.59
  -9   9  -4    4.94    0.48
  -9   9  -4    5.05    0.58
   9  -9  -4    4.78    0.47
  -9  -9   4    5.14    0.47
  -9   9   4    5.21    0.53
  -9   9   4    4.46    0.64
  -9  -9  -4    3.88    0.59
   9   9  -4    4.97    0.52
   9  -9   4    5.58    0.43
  -9   9  -5   12.47    0.95
   9   9   5   11.47    1.03
   9  -9  -5   12.82    0.97
  -9  -9   5   12.93    0.94
   9  -9   5   11.54    0.91
  -9   9   5   10.97    1.01
   9   9  -5   11.65    1.00
  -9  -9  -5   12.25    1.07
  -9  -9   6   49.62    3.45
   9  -9  -6   47.79    3.48
  -9   9  -6   47.56    3.56
  -9   9   6   46.99    3.48
   9  -9   6   52.39    3.44
  -9   9   6   51.25    3.46
  -9  -9  -6   41.63    3.51
  -9   9  -7    5.86    0.92
  -9  -9   7    7.49    0.67
   9  -9  -7    5.29    0.67
  -9  -9   7    7.52    0.82
   9  -9   7    6.73    0.59
  -9   9   7    7.45    0.69
  -9  -9  -7    6.05    0.82
   9  -9  -8    1.09    0.24
  -9   9  -8    1.14    0.48
  -9  -9   8    0.46    0.30
  -9  -9   8    0.93    0.24
  -9  -9  -8    1.49    0.35
  -9   9   8    1.04    0.25
   9  -9   8    0.61    0.18
  -9  -9   9    1.83    0.32
   9  -9  -9    2.25    0.38
  -9   9  -9    3.37    0.62
  -9  -9   9    2.75    0.39
  -9   9   9    2.58    0.43
   9   9  -9    2.75    0.40
   9  -9   9    1.99    0.31
  -9  -9  10   17.78    1.23
  -9  -9  10   14.86    1.30
  -9   9 -10   14.95    1.33
  -9  -9 -10   14.98    1.20
   9   9 -10   17.18    1.20
  -9 -10   0    0.12    0.15
   9  10   0   -0.01    0.23
  -9 -10   0    0.37    0.16
   9 -10   0    0.08    0.11
  -9  10   0    0.30    0.20
  -9  10   0    0.02    0.13
  -9 -10   1   28.53    2.01
  -9 -10   1   28.16    2.00
  -9  10  -1   28.74    2.04
  -9  10  -1   27.82    2.01
   9 -10  -1   27.12    2.00
   9 -10  -1   25.83    2.04
   9 -10   1   28.76    2.00
  -9 -10  -1   26.64    2.01
  -9  10   1   30.20    2.05
  -9  10   1   27.96    2.01
   9  10  -1   28.02    2.07
  -9 -10  -1   27.00    2.01
  -9  10  -2   34.51    2.35
  -9 -10   2   33.58    2.32
   9 -10  -2   30.86    2.32
  -9  10  -2   32.88    2.33
  -9 -10   2   32.48    2.32
  -9  10   2   33.91    2.38
   9 -10   2   30.50    2.31
  -9  10   2   32.53    2.33
   9  10  -2   29.67    2.36
  -9 -10  -2   32.81    2.33
   9  10   3   50.98    3.47
  -9 -10   3   46.78    3.38
   9 -10  -3   43.23    3.39
   9 -10  -3   50.15    3.39
  -9  10  -3   49.73    3.39
  -9  10  -3   44.40    3.41
  -9 -10  -3   44.23    3.40
  -9  10   3   50.30    3.40
   9  10  -3   51.37    3.43
  -9  10   3   40.38    3.43
   9 -10   3   51.58    3.38
   9 -10  -4    0.28    0.16
   9  10   4    0.41    0.27
  -9  10  -4    0.36    0.29
  -9  10  -4    0.50    0.18
  -9 -10   4    0.56    0.18
   9  10  -4    0.32    0.22
  -9  10   4    0.44    0.22
  -9 -10  -4    0.71    0.28
  -9  10   4    0.31    0.31
   9 -10   4    0.44    0.14
  -9  10  -5   25.81    1.89
   9  10   5   24.23    1.90
  -9  10  -5   27.55    1.98
   9 -10  -5   25.67    1.88
  -9 -10   5   26.47    1.85
   9 -10   5   23.95    1.83
  -9  10   5   21.93    1.90
   9  10  -5   23.01    1.89
  -9 -10  -5   27.16    1.93
  -9  10   5   28.08    1.90
  -9 -10   6    7.83    0.70
   9 -10  -6    6.70    0.71
  -9  10  -6    7.63    0.98
  -9  10   6    8.98    0.81
   9 -10   6    7.48    0.64
  -9  10   6    7.32    0.76
  -9 -10  -6    6.39    0.83
   9 -10  -7   18.36    1.43
  -9 -10   7   18.77    1.45
  -9 -10   7   17.99    1.43
  -9  10  -7   16.36    1.61
  -9 -10  -7   16.98    1.48
   9 -10   7   20.75    1.38
  -9  10   7   20.21    1.44
  -9  10  -8    0.71    0.44
  -9 -10   8    0.90    0.24
  -9 -10   8    1.35    0.32
   9 -10  -8    1.02    0.24
   9 -10   8    1.49    0.28
  -9 -10  -8    1.06    0.29
  -9  10   8    1.05    0.25
   9 -10  -9   13.72    1.09
  -9 -10   9   14.53    1.08
  -9  10  -9   14.93    1.19
   9  10  -9   15.08    1.09
  -9 -10  -9   15.44    1.11
   9 -10   9   13.80    1.05
  -9  10   9   12.49    1.14
  -9  11   0    6.64    0.56
  -9  11  -1   10.66    0.84
   9 -11  -1    9.58    0.76
  -9 -11   1   10.42    0.78
  -9  11  -1   10.00    0.78
   9 -11  -1   10.18    0.86
  -9 -11   1   10.86    0.77
  -9  11   1    9.81    0.78
   9 -11   1    8.97    0.76
   9  11  -1    9.47    0.85
  -9 -11  -1    9.44    0.78
  -9 -11  -1    9.33    0.78
  -9  11   1   11.29    0.88
   9 -11  -2   66.87    5.28
  -9 -11   2   75.11    5.28
  -9  11  -2   77.66    5.29
   9 -11  -2   75.56    5.29
  -9 -11   2   73.68    5.28
  -9  11  -2   71.38    5.31
  -9  11   2   75.97    5.34
  -9 -11  -2   73.71    5.28
   9 -11   2   77.24    5.28
   9  11  -2   77.50    5.33
  -9 -11  -2   73.41    5.29
  -9  11   2   78.42    5.30
   9 -11  -3   18.28    1.39
   9  11   3   18.13    1.46
  -9  11  -3   19.05    1.37
  -9 -11   3   19.78    1.36
  -9  11  -3   18.42    1.42
   9 -11  -3   19.22    1.37
   9  11  -3   17.49    1.41
  -9  11   3   15.47    1.46
  -9 -11  -3   19.20    1.39
   9 -11   3   18.89    1.35
  -9  11   3   19.46    1.39
  -9  11  -4    0.65    0.35
   9 -11  -4    0.79    0.19
   9  11   4    0.77    0.27
   9 -11  -4    0.53    0.26
  -9  11  -4    0.73    0.20
  -9  11   4    0.79    0.25
  -9  11   4    1.18    0.36
   9  11  -4    1.02    0.25
  -9 -11  -4    0.87    0.26
   9 -11  -5    9.70    0.79
   9  11   5    8.64    0.85
   9 -11   5    9.63    0.74
  -9  11   5    9.67    0.85
  -9  11  -6   35.43    3.00
  -9 -11   7    9.93    0.81
   9 -11  -7    8.20    0.80
  -9  11  -7    9.04    0.99
  -9  11   7   10.72    0.83
  -9 -11  -7    9.15    0.87
   9 -11   7    9.78    0.75
   9 -11  -8    2.14    0.39
  -9 -11   8    2.00    0.37
  -9  11  -8    3.23    0.65
   9 -11   8    1.95    0.30
  -9 -11   9    0.83    0.42
   9 -11  -9    1.59    0.34
  -9  11  -9    1.93    0.47
  -9 -11   9    1.64    0.43
   9  11  -9    1.88    0.35
  -9 -11  -9    2.47    0.36
   9 -11   9    1.74    0.28
   9 -12   0    0.11    0.11
  -9 -12   0    0.53    0.16
   9  12   0    0.41    0.25
  -9  12   0    0.11    0.26
  -9  12   0    0.32    0.14
  -9 -12   0    0.21    0.14
  -9 -12   1    8.84    0.71
  -9 -12   1    9.32    0.71
  -9  12  -1    9.40    0.72
  -9  12  -1    8.48    0.79
   9 -12  -1    8.85    0.70
  -9  12   1    9.48    0.84
   9  12  -1    9.53    0.81
  -9  12   1    9.02    0.72
   9 -12   1    9.46    0.70
  -9 -12  -1    8.85    0.72
  -9 -12  -1    8.44    0.72
  -9  12  -2   20.87    1.58
  -9  12  -2   20.43    1.53
  -9 -12   2   21.32    1.52
   9 -12  -2   19.16    1.54
   9 -12  -2   20.66    1.52
  -9 -12  -2   21.74    1.53
   9 -12   2   20.63    1.52
  -9  12   2   20.07    1.63
   9  12  -2   21.26    1.58
  -9  12   2   22.15    1.54
  -9 -12  -2   21.18    1.53
  -9  12  -3   25.95    1.78
   9  12   3   26.24    1.87
   9 -12  -3   20.63    1.78
   9 -12  -3   24.01    1.77
  -9  12  -3   23.10    1.84
  -9 -12   3   25.14    1.76
  -9 -12  -3   24.60    1.78
  -9  12   3   20.25    1.87
  -9  12   3   25.05    1.80
  -9 -12  -3   24.98    1.79
   9  12  -3   25.04    1.81
   9 -12   3   26.62    1.76
  -9  12  -4    1.62    0.46
   9  12   4    2.60    0.47
   9 -12  -4    2.47    0.53
  -9  12  -4    2.36    0.39
   9 -12  -4    2.55    0.36
  -9 -12   4    2.51    0.36
  -9  12   4    3.59    0.67
  -9 -12  -4    2.99    0.43
  -9  12   4    1.76    0.33
   9 -12   4    2.26    0.31
  -9  12  -5   19.54    2.01
   9 -12  -5   19.73    1.54
   9  12   5   21.32    1.52
   9  12  -5   18.63    1.52
   9 -12  -6    1.37    0.27
  -9  12  -6    2.38    0.52
   9 -12  -6    1.35    0.38
  -9 -12   6    2.01    0.41
  -9 -12  -6    1.70    0.34
   9 -12   6    1.90    0.25
  -9  12   6    1.93    0.32
   9 -12  -7   10.52    0.87
  -9 -12   7   10.04    0.85
  -9  12  -7    9.24    1.02
   9 -12   7   11.40    0.81
  -9  12   7   11.71    0.87
  -9 -12  -7   10.00    0.89
  -9  12  -8   -0.69    0.66
  -9 -12   8    0.42    0.20
   9 -12  -8    0.20    0.18
  -9  12   8    0.49    0.25
   9  13   0    3.71    0.56
  -9  13   0    4.59    0.61
  -9  13   0    4.54    0.44
  -9 -13   0    5.15    0.43
  -9  13  -1   13.11    1.02
  -9 -13   1   13.46    1.01
   9 -13  -1   12.99    1.01
  -9  13  -1   13.87    1.12
  -9 -13   1   14.16    1.01
  -9 -13  -1   13.73    1.02
  -9 -13  -1   13.79    1.02
   9 -13   1   13.13    1.01
  -9  13   1   13.47    1.16
   9  13  -1   13.08    1.10
  -9  13   1   13.73    1.03
  -9 -13   2   39.68    2.91
  -9  13  -2   41.15    2.93
   9 -13  -2   41.58    2.92
  -9  13  -2   38.64    2.98
  -9 -13  -2   39.29    2.92
   9 -13   2   43.28    2.91
  -9  13   2   41.24    2.93
   9  13  -2   43.36    2.97
  -9 -13  -2   39.44    2.92
  -9  13  -3   10.56    0.79
   9 -13  -3    9.70    0.78
   9  13   3   10.06    0.90
   9 -13  -3    8.20    0.90
  -9  13  -3    9.10    0.98
  -9 -13   3    9.77    0.77
  -9 -13  -3    9.89    0.80
  -9 -13  -3    9.80    0.84
   9  13  -3    9.62    0.87
  -9  13   3   10.07    0.83
   9 -13   3   10.15    0.76
   9 -13  -4    1.08    0.31
   9  13   4    0.58    0.26
  -9  13  -4    0.98    0.46
   9  13  -4    0.70    0.23
  -9 -13  -4    0.84    0.23
  -9  13   4    0.77    0.26
   9 -13  -5    9.55    0.83
   9  13   5    9.23    0.88
  -9 -13   5   11.47    0.83
  -9  13  -5   11.12    1.07
   9 -13   5    9.21    0.79
  -9  13   5    8.80    0.89
  -9 -13  -5   11.67    0.88
  -9 -13  -5   10.91    0.88
  -9 -13   6   24.69    1.81
   9 -13  -6   24.14    1.82
  -9  13  -6   24.46    1.92
  -9 -13  -6   22.10    1.84
   9 -13   6   27.58    1.80
  -9  13   6   27.88    1.83
  -9 -13  -6   22.23    1.83
   9 -13  -7    4.13    0.45
  -9  13  -7    2.21    0.85
  -9 -13  -7    3.61    0.55
  -9 -13  -7    3.60    0.46
   9 -13   7    4.17    0.38
  -9 -14   0    0.55    0.16
  -9  14   0    0.20    0.43
  -9  14   0    0.72    0.32
   9 -14   0    0.34    0.24
   9  14   0    0.79    0.37
   9  14   1   13.70    1.31
   9 -14  -1   16.18    1.19
  -9 -14   1   16.09    1.18
  -9  14  -1   16.05    1.20
  -9  14  -1   15.48    1.39
   9  14  -1   18.44    1.28
   9 -14   1   15.77    1.19
  -9 -14  -1   16.45    1.20
  -9 -14  -1   16.76    1.18
  -9  14   1   12.92    1.42
  -9  14   1   16.94    1.22
  -9  14  -2   23.18    1.66
  -9  14  -2   23.59    1.83
   9  14   2   19.02    1.75
   9 -14  -2   23.24    1.65
  -9 -14   2   23.53    1.65
   9  14  -2   22.56    1.70
  -9  14   2   23.83    1.68
  -9 -14  -2   23.63    1.65
  -9  14   2   19.84    1.91
   9 -14   2   22.41    1.64
  -9 -14  -2   24.26    1.66
  -9  14  -3   17.92    1.73
   9  14   3   22.01    1.61
  -9 -14   3   20.49    1.52
   9 -14  -3   22.12    1.53
  -9  14  -3   20.76    1.53
   9 -14   3   22.42    1.51
   9  14  -3   21.65    1.56
  -9 -14  -3   20.07    1.53
  -9 -14  -3   19.79    1.53
  -9  14   3   20.08    1.56
  -9  14  -4    0.82    0.54
   9  14   4    0.80    0.25
  -9 -14  -4    1.10    0.23
   9  14  -4    0.72    0.24
  -9  14   4    0.93    0.25
  -9  14  -5   14.57    1.28
  -9 -14   5   13.57    1.06
   9 -14  -5   13.62    1.07
   9  14   5   15.58    1.11
  -9  14   5   13.21    1.10
   9 -14   5   13.96    1.03
  -9 -14  -5   12.55    1.08
  -9 -14  -5   13.46    1.09
   9 -14  -6    6.23    0.59
  -9 -14   6    6.58    0.60
   9 -14   6    6.69    0.54
  -9 -14  -6    6.38    0.61
  -9 -14  -6    6.04    0.65
   9 -15   0    1.20    0.23
  -9 -15   0    1.49    0.27
  -9  15   0    1.62    0.32
   9 -15  -1    9.46    0.79
  -9  15  -1   12.67    2.16
  -9 -15   1   10.60    0.79
  -9  15  -1   10.80    0.81
   9 -15   1    9.60    0.78
  -9 -15  -1   10.41    0.79
  -9  15   1   10.72    0.82
   9  15  -1   10.41    0.89
  -9 -15  -1   10.44    0.80
   9  15   2   29.48    2.25
   9 -15  -2   31.20    2.17
  -9  15  -2   28.88    2.59
  -9  15  -2   30.06    2.18
  -9 -15   2   29.63    2.16
   9 -15   2   31.07    2.16
  -9 -15  -2   29.92    2.17
  -9  15   2   29.96    2.19
  -9 -15  -2   29.25    2.17
   9  15  -2   32.06    2.22
  -9  15  -3    7.65    1.78
  -9 -15   3    4.74    0.45
   9  15   3    5.51    0.56
   9 -15  -3    5.01    0.44
   9 -15   3    4.43    0.41
  -9  15   3    3.68    0.54
  -9 -15  -3    4.39    0.47
  -9 -15  -3    5.08    0.47
   9  15  -3    4.32    0.51
   9  15   4    5.05    0.59
   9 -15  -4    5.80    0.53
  -9 -15   4    6.76    0.54
   9 -15   4    5.27    0.49
  -9 -15  -4    5.86    0.56
  -9 -15  -4    6.13    0.56
   9  15   5    3.34    0.55
   9 -15  -5    3.45    0.42
  -9 -15  -5    3.45    0.47
   9 -15   5    3.87    0.39
  -9 -15  -5    3.81    0.52
  -9  15   5    4.31    0.52
  -9 -16   0    0.05    0.14
  -9  16   0   -0.02    0.17
   9  16   0    0.14    0.24
   9 -16   0    0.04    0.12
  -9  16  -1   11.95    0.90
   9 -16  -1   11.59    0.86
   9  16   1    9.67    0.97
  -9 -16   1   11.99    0.87
   9 -16   1   10.93    0.86
  -9 -16  -1   12.34    0.88
  -9  16   1   11.37    0.92
   9  16  -1   11.96    0.95
  -9 -16   2   10.92    0.80
   9 -16  -2   10.77    0.80
   9  16   2   10.86    0.90
  -9  16   2    8.73    0.86
  -9 -16  -2   11.32    0.82
  -9 -16  -2   11.22    0.82
   9  16  -2    9.85    0.85
   9 -16   2    9.38    0.78
   9  16   3   17.25    1.20
   9 -16  -3   16.46    1.13
  -9 -16   3   14.29    1.12
  -9 -16  -3   14.32    1.14
   9  16  -3   15.33    1.16
  -9 -16  -3   13.92    1.14
   9 -16   3   14.82    1.11
 -10   0   0   14.56    1.06
 -10   0   1  211.16   15.00
  10   0  -1  212.48   15.00
 -10   0  -1  216.93   15.00
 -10   0   2    9.94    0.74
 -10   0  -2    9.48    0.74
  10   0  -2   10.08    0.75
  10   0  -2    8.98    0.94
 -10   0  -3   43.73    2.99
  10   0  -3   41.26    3.00
 -10   0   3   40.61    2.99
  10   0  -5   23.77    1.87
  10   0  -5   27.20    1.87
  10   0   6    4.08    0.51
 -10   0   6    4.77    0.46
  10   0  -6    4.92    0.49
 -10   0   7   36.86    2.49
 -10   0   7   31.07    2.58
 -10   0  -7   34.25    2.97
  10   0  -7   36.12    2.50
 -10   0   8    1.83    0.31
  10   0  -8    2.22    0.38
  10   0   8    1.56    0.34
 -10   0   9   20.19    1.50
 -10   0   9   19.66    1.52
 -10   0  -9   20.87    1.66
  10   0  -9   20.74    1.51
 -10   0 -10    0.69    0.45
 -10   0  10    0.94    0.24
 -10   0  10    0.86    0.25
  10   0 -10    1.15    0.23
  10   0 -11    0.01    0.19
 -10   0 -11   -0.14    0.38
 -10   0  11   -0.14    0.25
 -10   1   0  307.12   21.72
 -10  -1   0  311.49   21.71
 -10  -1   1   59.21    4.24
  10  -1  -1   58.96    4.25
 -10   1  -1   62.29    4.25
 -10  -1  -1   60.12    4.23
 -10   1   1   59.33    4.24
  10  -1  -2    6.58    0.87
 -10  -1   2    5.16    0.45
  10  -1  -2    5.39    0.48
 -10   1  -2    5.71    0.47
 -10   1   2    5.27    0.46
  10   1  -2    4.82    0.46
 -10  -1  -2    5.80    0.46
  10  -1  -3   10.08    0.83
  10  -1  -3   11.75    1.23
 -10   1  -3   10.40    0.80
 -10  -1   3    9.22    0.79
 -10   1   3    9.53    0.91
  10   1  -3   10.28    0.82
 -10  -1  -3   10.47    0.79
 -10  -1   4  175.46   11.92
  10  -1  -4  155.40   11.89
  10   1  -4  193.42   11.97
  10   1  -4  152.16   11.89
 -10  -1   5   14.22    1.02
  10  -1  -5   11.86    0.98
  10  -1  -5   11.12    1.00
  10   1  -5   13.26    0.99
 -10  -1  -5   13.30    1.29
  10   1  -5   11.31    1.02
 -10   1   5   14.26    1.01
  10  -1  -6    1.01    0.23
  10   1   6    0.54    0.26
  10   1  -6    1.01    0.21
  10  -1   6    0.76    0.20
  10  -1  -7    9.33    0.73
 -10  -1   7    8.14    0.70
 -10   1  -7    8.78    1.26
  10  -1   7    8.50    0.67
 -10  -1  -7    6.61    1.29
  10   1  -7    8.10    0.71
 -10   1   7    8.68    0.69
 -10  -1   8   15.26    1.19
 -10  -1   8   15.38    1.21
  10  -1  -8   16.93    1.20
 -10   1  -8   15.77    1.42
  10   1  -8   15.94    1.19
 -10  -1  -8   14.55    1.36
  10  -1   8   15.72    1.15
 -10   1   8   16.34    1.22
 -10   1   8   14.78    1.17
 -10  -1   9    3.29    0.50
 -10  -1   9    4.02    0.48
 -10   1  -9    3.55    0.82
  10  -1  -9    4.67    0.47
 -10   1   9    4.48    0.50
  10   1  -9    4.10    0.48
 -10  -1  -9    3.98    0.75
  10  -1   9    4.22    0.42
 -10   1   9    3.87    0.47
 -10   1 -10    0.98    0.44
  10  -1 -10    0.34    0.20
 -10  -1  10    0.04    0.22
 -10  -1  10    0.35    0.23
  10   1 -10    0.48    0.20
 -10  -1 -10    0.34    0.42
 -10   1  10    0.01    0.21
 -10  -1  11    0.43    0.26
 -10   1 -11    0.23    0.39
 -10  -1  11   -0.37    0.23
  10  -1 -11    0.12    0.20
 -10  -1 -11    0.47    0.38
 -10   1  11    0.01    0.26
  10   1 -11    0.02    0.19
 -10   2   0   17.31    1.24
 -10  -2   0   16.71    1.22
  10  -2  -1   76.54    5.43
 -10   2  -1   81.68    5.43
  10  -2  -1   74.80    5.45
  10  -2  -1   69.94    5.42
 -10  -2   1   76.29    5.41
  10   2  -1   79.25    5.41
 -10   2   1   78.19    5.42
 -10  -2  -1   77.35    5.40
 -10  -2   2    3.84    0.34
 -10   2  -2    3.31    0.36
  10  -2  -2    3.46    0.38
  10  -2  -2    2.55    0.57
 -10  -2  -2    3.62    0.35
 -10   2   2    3.52    0.36
  10   2  -2    3.84    0.35
  10   2  -2    3.03    0.49
  10  -2  -3  111.64    8.16
 -10  -2   3  111.78    8.15
  10  -2  -3  119.02    8.27
  10   2  -3  114.49    8.15
 -10  -2  -3  123.95    8.13
 -10   2   3  112.09    8.15
 -10  -2   4   17.45    1.36
  10  -2  -4   17.22    1.32
 -10  -2  -4   17.48    1.33
 -10   2   4   16.91    1.36
  10   2  -4   19.68    1.46
  10  -2  -5   18.07    1.55
  10  -2  -5   23.74    1.53
 -10  -2   5   17.95    1.52
  10   2  -5   21.52    1.57
  10  -2   5   23.31    1.52
 -10   2   5   20.64    1.54
 -10  -2   6    1.24    0.21
  10  -2  -6    1.13    0.25
  10  -2  -6    0.98    0.22
 -10   2  -6    1.96    0.80
  10  -2   6    1.07    0.19
 -10   2   6    0.92    0.21
  10   2  -6    1.14    0.21
 -10   2   6    0.88    0.45
 -10  -2   7   16.37    1.19
  10  -2  -7   16.72    1.22
 -10   2  -7   17.19    1.59
 -10  -2  -7   15.18    1.41
  10   2  -7   15.88    1.20
  10  -2   7   14.12    1.16
 -10   2   7   16.60    1.19
 -10   2   7   15.21    1.28
 -10  -2   8   11.08    1.04
  10  -2  -8   13.79    1.05
 -10  -2  -8   14.57    1.20
 -10   2   8   13.91    1.03
  10   2  -8   13.19    1.03
 -10  -2   9    7.23    0.69
 -10   2  -9    6.72    0.95
  10  -2  -9    7.56    0.67
 -10  -2   9    8.54    0.70
 -10   2   9    8.75    0.71
  10  -2   9    8.38    0.62
  10   2  -9    7.33    0.67
 -10   2   9    7.47    0.67
 -10  -2  -9    5.99    0.86
 -10   2 -10    0.85    0.45
  10  -2 -10    0.53    0.21
 -10  -2  10    0.08    0.23
 -10  -2  10    0.73    0.23
  10   2 -10    0.53    0.21
 -10  -2 -10    0.49    0.37
 -10   2  10    0.62    0.23
  10  -2 -11    5.68    0.59
 -10  -2  11    6.82    0.63
 -10   2 -11    6.77    0.73
 -10   2  11    6.32    0.65
  10   2 -11    6.77    0.61
 -10  -2 -11    7.07    0.72
  10  -3   0  329.61   23.84
 -10  -3   0  349.43   23.82
  10  -3  -1   50.11    3.59
 -10   3  -1   51.77    3.58
 -10  -3   1   49.33    3.56
  10   3  -1   51.61    3.56
 -10   3   1   48.83    3.58
  10  -3  -2   17.18    1.29
 -10   3  -2   18.09    1.33
 -10  -3   2   17.57    1.51
  10  -3  -2   14.75    1.34
  10   3  -2   18.37    1.27
 -10   3   2   19.91    1.34
  10   3  -2   15.24    1.33
  10  -3  -3   16.78    1.59
 -10   3  -3   16.66    1.29
 -10  -3   3   16.71    1.28
  10  -3  -3   18.85    1.38
 -10  -3  -3   17.68    1.26
  10   3  -3   17.06    1.29
 -10   3   3   16.23    1.27
 -10  -3  -3   15.87    1.24
  10  -3  -4  106.44    6.91
 -10  -3   4   85.01    6.90
  10  -3  -4  101.44    6.90
  10   3  -4   98.74    6.97
  10  -3  -5   17.21    1.34
 -10  -3   5   17.00    1.32
  10   3  -5   18.61    1.36
 -10   3   5   17.86    1.33
  10  -3  -6   11.45    0.90
  10  -3   6   12.59    0.88
 -10   3   6   11.12    1.11
 -10   3  -7    2.30    0.67
 -10  -3   7    0.38    0.31
 -10  -3   7    0.86    0.22
  10  -3  -7    1.24    0.26
  10  -3   7    0.82    0.17
  10   3  -7    1.04    0.22
 -10   3   7    0.99    0.36
  10  -3  -8   60.00    4.06
 -10  -3   8   54.20    4.05
 -10  -3   8   60.58    4.05
 -10   3  -8   57.22    4.17
 -10  -3  -8   50.91    4.09
  10  -3   8   55.51    4.02
 -10   3   8   59.05    4.07
 -10   3   8   58.03    4.04
  10   3  -8   55.92    4.04
  10  -3  -9    6.42    0.60
 -10   3  -9    7.40    0.89
 -10  -3   9    5.70    0.61
 -10   3   9    6.36    0.59
  10  -3   9    6.07    0.53
  10   3  -9    6.22    0.60
 -10  -3  -9    5.84    0.77
 -10  -3  10    0.92    0.24
 -10   3 -10    1.42    0.46
  10   3 -10    1.25    0.24
 -10  -3 -10    1.08    0.39
  10  -3 -11    2.38    0.38
 -10  -3  11    2.22    0.43
 -10   3 -11    2.71    0.55
 -10  -3  11    1.70    0.30
 -10  -3 -11    2.27    0.54
  10   3 -11    1.48    0.27
 -10   3  11    2.76    0.45
  10  -4   0   21.57    1.61
 -10  -4   1   32.38    2.11
 -10   4  -1   31.01    2.13
  10  -4  -1   25.74    2.15
  10   4  -1   31.12    2.09
  10  -4   1   25.55    2.13
 -10   4   1   29.99    2.12
 -10  -4   2   23.82    2.17
  10  -4  -2   27.72    1.95
 -10   4  -2   29.92    1.95
  10   4  -2   28.57    1.92
  10  -4   2   23.78    1.96
 -10   4   2   28.89    1.94
  10   4  -2   22.48    1.98
  10  -4  -3  171.01   12.27
  10  -4  -3  174.04   12.26
  10   4  -3  178.43   12.29
 -10  -4   4   13.24    0.95
  10  -4  -4   13.26    0.94
  10  -4  -4   10.66    0.91
  10  -4   4   10.86    0.91
  10   4  -4   13.56    1.18
 -10  -4   5   52.57    4.01
  10  -4  -5   57.60    4.02
  10  -4  -5   64.06    4.00
 -10   4   5   51.39    4.02
  10  -4   5   56.33    3.99
  10  -4  -6    1.14    0.19
  10  -4  -6    0.86    0.25
 -10  -4   6    0.96    0.24
 -10   4  -6    2.04    0.60
 -10  -4  -6    1.75    0.66
  10  -4   6    1.22    0.22
 -10   4   6    1.22    0.26
 -10  -4   7    2.58    0.55
 -10   4  -7    4.34    1.01
  10  -4  -7    3.68    0.48
 -10  -4   7    2.83    0.44
  10  -4   7    2.85    0.34
 -10   4   7    3.88    0.45
  10  -4  -8   25.78    1.83
 -10  -4   8   21.01    1.81
 -10  -4   8   27.51    1.81
 -10   4  -8   25.41    2.01
  10  -4   8   21.19    1.76
  10   4  -8   24.19    1.80
 -10   4   8   26.12    1.81
 -10  -4  -8   25.52    1.89
  10  -4  -9    4.99    0.53
 -10   4  -9    4.65    0.84
 -10  -4   9    6.10    0.65
 -10  -4   9    4.50    0.54
 -10   4   9    5.68    0.54
 -10  -4  -9    3.95    0.68
  10   4  -9    4.02    0.53
 -10  -4  10    0.01    0.23
 -10   4 -10    0.80    0.41
  10  -4 -10    0.07    0.19
 -10  -4  10   -0.13    0.22
 -10  -4 -10    0.04    0.33
 -10   4  10    0.12    0.22
  10   4 -10   -0.35    0.20
 -10  -4  11    9.79    0.81
 -10   4 -11   10.37    0.89
  10  -4 -11    9.65    0.79
  10   4 -11    9.54    0.81
 -10   4  11   10.33    0.87
  10  -5   0  297.60   21.57
 -10   5   0  315.87   21.56
 -10   5  -1   14.41    1.17
  10  -5  -1   15.31    1.35
  10  -5   1   15.89    1.29
  10   5  -1   17.33    1.23
 -10   5   1   13.56    1.15
  10  -5  -2    6.86    0.58
  10  -5  -2    7.03    0.55
  10   5  -2    6.84    0.62
  10   5  -2    6.52    0.58
  10  -5  -3   21.65    1.57
 -10  -5   3   22.50    1.59
  10  -5  -3   21.39    1.58
 -10   5   3   21.94    1.60
  10  -5   3   22.37    1.56
  10   5  -3   20.68    1.61
 -10   5  -4   81.79    6.06
  10  -5  -4   92.23    6.04
 -10  -5   4   80.43    6.03
  10  -5  -4   89.69    6.05
 -10   5  -4   87.34    6.05
 -10   5   4   80.04    6.05
  10  -5   4   87.06    6.04
  10  -5  -5   27.09    1.92
  10  -5  -5   27.38    1.88
 -10   5  -5   28.87    1.93
 -10   5  -5   26.34    1.99
 -10  -5   5   24.56    1.90
  10  -5   5   26.17    1.89
  10   5  -5   26.70    1.94
 -10   5   5   21.84    1.92
 -10  -5   6    8.64    0.74
 -10   5   6    8.22    0.75
  10  -5  -7    0.12    0.18
  10  -5  -7    0.28    0.25
 -10  -5   7    0.32    0.23
 -10   5  -7    0.98    0.59
  10  -5   7    0.23    0.15
 -10   5   7    0.49    0.23
 -10  -5  -7    0.42    0.44
 -10  -5   8   41.92    2.91
  10  -5  -8   43.62    2.94
 -10   5  -8   37.35    3.04
 -10  -5   8   37.38    2.92
  10   5  -8   40.69    2.91
 -10  -5  -8   39.30    2.96
 -10   5   8   43.84    2.92
  10  -5   8   39.99    2.88
 -10   5  -9    2.29    0.93
 -10  -5   9    1.62    0.30
  10  -5  -9    2.21    0.45
 -10  -5  -9    1.71    0.45
 -10   5   9    2.44    0.46
  10  -5   9    1.48    0.30
 -10   5 -10    1.28    0.42
 -10  -5  10    0.70    0.24
 -10   5  10    0.87    0.25
 -10  -5 -10    0.62    0.34
 -10   5 -11    1.36    0.37
 -10  -5  11    0.86    0.27
 -10  -5  11    1.08    0.27
  10  -5 -11    0.91    0.20
 -10   5  11    1.30    0.31
  10   5 -11    1.00    0.23
  10  -6   0    2.32    0.32
  10  -6   0    2.37    0.26
  10   6   0    2.26    0.45
  10  -6  -1   66.76    5.43
  10  -6  -1   80.02    5.42
 -10   6   1   75.18    5.43
  10  -6   1   79.47    5.41
  10   6  -1   82.59    5.47
  10  -6  -2    0.82    0.16
  10   6   2    0.92    0.34
 -10   6  -2    1.09    0.23
 -10   6   2    0.94    0.19
  10   6  -2    1.09    0.22
  10  -6   2    1.18    0.21
 -10   6  -3   65.33    4.75
  10  -6  -3   68.31    4.76
 -10  -6   3   69.79    4.76
 -10   6  -3   67.67    4.77
  10  -6  -3   64.71    4.75
  10   6   3   71.80    4.83
  10  -6   3   69.96    4.75
 -10   6   3   66.50    4.76
  10   6  -3   60.68    4.78
 -10  -6   4   39.76    2.80
 -10   6  -4   39.87    2.81
 -10   6  -4   39.96    2.84
  10  -6  -4   39.52    2.81
  10  -6  -4   39.96    2.80
  10  -6   4   40.38    2.79
 -10   6   4   37.72    2.82
  10   6  -4   36.58    2.83
 -10   6  -5   15.51    1.18
  10  -6  -5   15.61    1.18
 -10   6  -5   12.81    1.26
  10   6  -5   17.43    1.21
 -10  -6   6    0.08    0.25
  10  -6  -6   -0.15    0.12
  10  -6  -6   -0.33    0.22
 -10   6  -6    0.38    0.48
 -10  -6  -6   -0.15    0.54
  10  -6   6   -0.02    0.16
 -10   6   6   -0.27    0.25
 -10  -6   7   20.35    1.51
  10  -6  -7   17.22    1.53
 -10   6  -7   19.08    1.73
 -10   6   7   22.53    1.52
  10  -6   7   18.47    1.46
 -10  -6  -7   22.75    1.63
 -10   6  -8    5.84    0.96
 -10  -6   8    7.38    0.65
  10  -6  -8    5.54    0.66
 -10  -6  -8    7.54    0.80
 -10   6   8    7.41    0.66
 -10   6  -9   10.17    1.06
 -10  -6   9   10.40    0.88
 -10  -6   9   10.13    0.91
  10  -6  -9   11.59    0.88
 -10  -6  -9   10.16    0.95
  10  -6   9   11.76    0.82
 -10   6   9   10.91    0.88
  10   6  -9   11.02    0.87
 -10  -6  10    1.64    0.28
 -10  -6  10    0.95    0.25
 -10   6 -10    1.28    0.41
  10  -6 -10    1.07    0.22
 -10   6  10    1.31    0.26
  10   6 -10    1.35    0.23
 -10  -6 -10    1.64    0.34
 -10  -6 -11    2.23    0.54
  10   7   0  121.60    8.44
 -10   7   0  116.61    8.38
  10  -7  -1   51.12    4.02
 -10  -7   1   55.34    4.01
 -10   7  -1   54.83    4.02
 -10   7  -1   58.61    4.02
  10  -7  -1   59.47    4.01
  10   7  -1   60.06    4.06
  10  -7   1   54.44    4.01
  10  -7   1   59.17    4.01
 -10   7  -2    6.08    0.58
 -10  -7   2    5.82    0.50
 -10   7  -2    6.34    0.66
  10  -7  -2    4.43    0.44
 -10  -7   2    6.17    0.55
  10  -7   2    4.53    0.43
  10   7  -2    4.52    0.52
 -10   7   2    5.26    0.47
 -10   7  -3   15.95    1.08
  10  -7  -3   13.88    1.06
 -10  -7   3   16.40    1.07
  10   7   3   14.14    1.19
  10  -7  -3   12.67    1.06
  10   7  -3   12.24    1.09
  10  -7   3   13.97    1.05
 -10   7   3   15.07    1.08
 -10   7  -4  147.41   10.35
  10   7   4  157.13   10.39
 -10  -7   4  145.69   10.33
 -10   7  -4  144.88   10.33
  10  -7  -4  153.23   10.34
  10  -7   4  153.35   10.33
 -10  -7  -4  129.91   10.41
  10   7  -4  142.67   10.36
 -10   7  -5   10.51    0.82
 -10  -7   5   10.19    0.82
 -10   7  -5   10.47    0.94
  10  -7  -5   10.59    0.82
  10  -7  -5    9.66    0.75
  10   7  -5    9.73    1.12
 -10   7   5    8.47    0.87
  10  -7   5    9.92    0.78
 -10  -7   6    0.51    0.26
  10  -7  -6    1.08    0.26
 -10  -7  -6    0.35    0.46
 -10   7   6    0.61    0.29
  10  -7   6    0.78    0.19
 -10  -7   7    5.97    0.64
 -10   7  -7    6.04    1.05
  10  -7  -7    6.02    0.67
 -10  -7  -7    5.89    0.82
 -10   7   7    6.98    0.66
  10  -7   7    6.27    0.54
 -10  -7   8   19.45    1.56
  10  -7  -8   20.43    1.47
 -10  -7   8   19.01    1.44
 -10  -7  -8   17.82    1.52
 -10   7   8   19.23    1.45
  10  -7   8   18.89    1.40
 -10  -7   9    6.69    0.64
  10  -7  -9    7.28    0.64
 -10  -7   9    7.03    0.71
 -10   7  -9    6.84    0.84
 -10  -7  -9    6.69    0.73
  10  -7   9    6.54    0.57
 -10   7   9    7.87    0.65
  10   7  -9    7.52    0.64
 -10  -7  10    1.92    0.38
 -10   7 -10    2.66    0.56
 -10   7  10    2.34    0.43
 -10  -7 -10    2.51    0.46
  10  -8   0    1.13    0.21
 -10   8   0    0.79    0.18
 -10  -8   0    0.93    0.41
  10  -8   0    0.64    0.14
  10   8   0    0.94    0.25
 -10   8   0    0.73    0.16
 -10   8  -1   67.22    4.84
 -10  -8   1   68.47    4.82
  10  -8  -1   71.47    4.83
 -10  -8   1   68.09    4.83
 -10   8  -1   70.97    4.83
  10  -8  -1   62.77    4.83
 -10  -8  -1   62.97    4.85
 -10   8   1   68.22    4.83
  10   8  -1   71.43    4.88
  10  -8   1   66.20    4.82
  10  -8   1   73.34    4.82
 -10   8  -2    0.30    0.19
 -10   8  -2    0.56    0.16
 -10  -8   2    0.55    0.16
  10  -8  -2    0.07    0.13
  10   8   2    0.02    0.28
 -10  -8   2    0.42    0.16
  10  -8  -2    0.39    0.12
  10   8  -2    0.32    0.19
  10  -8   2    0.15    0.11
 -10   8   2    0.26    0.15
 -10  -8  -2    0.18    0.32
 -10   8  -3   38.20    2.67
 -10  -8   3   37.50    2.66
 -10   8  -3   37.17    2.69
  10   8   3   38.71    2.75
  10   8  -3   36.31    2.70
  10  -8   3   37.86    2.68
 -10  -8  -3   35.54    2.72
 -10   8  -4   29.34    2.17
 -10  -8   4   30.23    2.12
  10  -8  -4   29.78    2.13
  10  -8  -4   29.58    2.11
 -10   8  -4   29.27    2.13
 -10  -8  -4   27.60    2.43
 -10   8   4   29.46    2.15
  10   8  -4   28.49    2.15
  10  -8   4   30.47    2.11
  10   8   5    1.21    0.39
 -10  -8   5    1.96    0.37
  10  -8  -5    1.38    0.25
 -10   8  -5    1.40    0.39
 -10   8  -5    1.78    0.37
  10   8  -5    1.55    0.31
 -10   8   5    0.96    0.30
 -10  -8  -5    0.63    0.45
 -10   8  -6    0.27    0.48
 -10  -8   6   -0.15    0.25
  10  -8  -6   -0.18    0.23
  10  -8   6    0.14    0.18
 -10   8   6    0.22    0.28
 -10  -8  -6   -0.41    0.43
 -10   8  -7   29.20    2.32
  10  -8  -7   25.50    2.19
 -10  -8   7   31.04    2.17
 -10  -8  -7   30.95    2.26
 -10   8   7   30.93    2.17
 -10   8   7   32.18    2.19
  10  -8   7   28.11    2.13
  10  -8  -8    4.67    0.53
 -10  -8   8    5.33    0.52
 -10  -8   8    3.36    0.63
 -10   8  -8    3.64    0.82
  10  -8   8    3.68    0.42
 -10   8   8    5.21    0.52
 -10  -8   9   17.79    1.31
  10  -8  -9   17.22    1.27
 -10   8  -9   13.83    1.36
 -10  -8   9   15.74    1.25
  10  -8   9   17.34    1.22
  10   8  -9   18.03    1.26
 -10  -8  -9   16.93    1.31
 -10   8   9   17.05    1.27
 -10  -8  10    2.07    0.27
 -10  -8  10    2.27    0.35
  10  -8 -10    2.06    0.33
 -10   8 -10    2.16    0.41
  10   8 -10    1.86    0.26
 -10  -8 -10    1.97    0.41
 -10   8  10    1.45    0.36
 -10   9   0   86.46    5.99
 -10   9   0   79.03    6.01
 -10  -9   0   85.83    5.97
 -10  -9   0   86.98    5.97
 -10  -9   1   33.90    2.40
 -10  -9   1   33.98    2.40
 -10   9  -1   34.90    2.44
  10   9  -1   34.54    2.63
 -10  -9  -1   31.89    2.41
 -10  -9  -1   32.25    2.40
  10  -9  -2    1.86    0.27
 -10  -9   2    2.20    0.37
  10  -9  -2    1.52    0.27
 -10   9  -2    2.66    0.31
  10   9  -2    1.96    0.37
 -10  -9  -2    2.32    0.40
  10  -9   2    1.93    0.25
  10   9   3    1.21    0.31
 -10   9  -3    1.69    0.30
  10  -9  -3    1.23    0.26
  10  -9   3    1.64    0.23
  10   9  -3    1.03    0.23
 -10  -9  -3    1.84    0.44
  10   9   4   98.20    6.78
 -10   9  -4   94.46    6.73
 -10   9  -4   93.51    6.75
  10  -9  -4   96.49    6.73
 -10  -9   4   96.54    6.72
 -10   9   4   94.72    6.75
  10   9  -4   91.26    6.75
 -10  -9  -4   93.19    6.75
  10  -9   4   98.59    6.72
  10  -9  -5    6.01    0.57
 -10   9  -5    6.13    0.56
 -10  -9   5    6.57    0.57
  10   9   5    5.75    0.69
 -10   9   5    5.02    0.64
  10   9  -5    4.90    0.62
  10  -9   5    5.86    0.51
  10  -9  -6    0.81    0.25
 -10   9  -6    1.89    0.53
 -10  -9   6    0.96    0.27
 -10   9   6    0.76    0.29
 -10  -9  -6    0.37    0.42
 -10   9  -7    4.60    0.87
  10  -9  -7    3.38    0.56
 -10  -9   7    4.06    0.56
 -10  -9  -7    5.17    0.76
  10  -9   7    4.62    0.45
 -10   9   7    4.73    0.58
 -10   9   7    4.60    1.00
 -10  -9   8   17.94    1.35
 -10   9  -8   15.87    1.50
  10  -9  -8   18.30    1.37
 -10   9   8   18.93    1.37
 -10  -9  -8   17.97    1.42
  10  -9   8   19.11    1.32
  10  -9  -9    6.65    0.57
 -10   9  -9    5.96    0.74
 -10  -9   9    6.51    0.58
  10  -9   9    5.83    0.53
 -10  -9  -9    6.76    0.63
 -10   9   9    6.51    0.63
  10   9  -9    6.23    0.57
 -10 -10   0    6.62    0.53
  10  10   0    5.66    0.64
 -10 -10   0    6.47    0.54
 -10  10   0    6.50    0.59
  10 -10   0    5.75    0.50
 -10  10   0    6.02    0.53
 -10 -10   1   30.18    2.22
 -10  10  -1   31.09    2.24
 -10 -10   1   29.14    2.21
 -10  10  -1   31.61    2.22
  10 -10  -1   32.12    2.22
  10  10  -1   32.16    2.29
 -10  10   1   30.15    2.22
 -10  10   1   32.76    2.26
  10 -10   1   32.47    2.21
 -10 -10  -1   28.91    2.21
 -10 -10  -1   29.34    2.22
 -10 -10   2    4.69    0.43
  10 -10  -2    4.62    0.41
 -10  10  -2    3.89    0.49
 -10 -10   2    4.42    0.42
 -10  10  -2    4.27    0.42
 -10 -10  -2    3.79    0.46
  10 -10   2    4.71    0.39
 -10  10   2    4.23    0.44
 -10  10   2    4.82    0.56
  10  10  -2    5.23    0.51
 -10 -10  -2    4.00    0.46
  10  10   3   55.24    4.06
 -10  10  -3   57.53    4.02
 -10  10  -3   58.25    3.99
  10 -10  -3   55.55    3.99
 -10 -10   3   58.85    3.98
  10 -10  -3   55.29    4.03
  10 -10   3   56.50    3.98
 -10 -10  -3   58.13    4.00
 -10  10   3   58.48    4.00
  10  10  -3   53.38    4.02
 -10  10   3   49.77    4.03
 -10  10  -4   10.63    0.90
  10 -10  -4    9.39    0.78
 -10 -10   4   10.66    0.78
 -10  10  -4    9.94    0.78
  10 -10  -4    9.59    0.90
  10  10   4    8.67    0.86
 -10  10   4    9.66    0.83
 -10  10   4    9.57    0.90
 -10 -10  -4   11.48    0.86
  10 -10   4    8.76    0.75
  10  10  -4    8.00    0.81
 -10  10  -5   30.15    2.34
 -10 -10   5   30.35    2.24
 -10  10  -5   31.21    2.25
  10 -10  -5   34.03    2.27
  10  10   5   33.30    2.29
  10  10  -5   31.48    2.28
 -10  10   5   27.65    2.28
 -10  10   5   30.63    2.28
  10 -10   5   32.17    2.23
 -10 -10  -5   28.41    2.30
  10 -10  -6   -0.05    0.23
 -10  10  -6    0.17    0.50
 -10 -10   6   -0.29    0.24
 -10 -10  -6    0.04    0.38
 -10  10   6    0.42    0.33
 -10  10   6    0.33    0.28
  10 -10   6    0.40    0.19
 -10 -10   7   10.14    0.85
  10 -10  -7    8.45    0.86
 -10  10  -7   11.28    1.08
 -10 -10  -7    9.70    0.94
 -10  10   7   11.08    0.87
  10 -10   7    9.74    0.79
  10 -10  -8    9.42    0.84
 -10  10  -8   10.62    1.00
 -10 -10   8    9.86    0.83
 -10 -10  -8   11.96    0.89
 -10  10   8   10.74    0.84
  10 -10   8    8.95    0.78
  10 -10  -9    7.11    0.57
 -10 -10   9    6.08    0.57
 -10  10  -9    6.01    0.74
  10  10  -9    7.00    0.57
 -10  10   9    6.48    0.81
 -10 -10  -9    5.60    0.60
 -10  11   0  164.77   11.89
  10  11   0  167.13   11.96
  10 -11   0  171.10   11.88
 -10 -11   0  165.53   11.88
 -10 -11   0  163.24   11.88
 -10  11   0  181.82   11.92
 -10 -11   1    4.34    0.40
  10 -11  -1    3.09    0.36
 -10  11  -1    4.55    0.48
 -10  11  -1    3.86    0.39
 -10 -11   1    4.06    0.39
  10  11  -1    2.94    0.50
 -10  11   1    3.70    0.40
  10 -11   1    3.03    0.35
 -10 -11  -1    4.14    0.40
 -10  11   1    4.39    0.54
 -10 -11  -1    3.98    0.40
  10 -11  -2    4.92    0.45
 -10 -11   2    5.15    0.46
 -10  11  -2    5.10    0.48
 -10 -11   2    5.33    0.45
 -10  11  -2    5.14    0.55
 -10 -11  -2    4.24    0.48
 -10  11   2    5.99    0.64
 -10  11   2    5.39    0.49
 -10 -11  -2    4.63    0.50
  10  11  -2    5.12    0.54
  10 -11   2    5.11    0.44
  10  11   3    9.25    0.88
 -10  11  -3    9.74    0.84
  10 -11  -3    9.63    0.75
 -10 -11   3   10.31    0.76
 -10  11  -3    9.98    0.77
 -10  11   3    8.53    0.91
  10 -11   3    9.16    0.73
 -10  11   3   10.09    0.79
  10  11  -3    8.85    0.81
 -10 -11  -3    9.68    0.79
 -10 -11   4   30.45    2.32
  10  11   4   35.32    2.39
 -10  11  -4   33.57    2.34
 -10  11  -4   30.28    2.39
  10 -11  -4   33.85    2.34
  10 -11  -4   29.72    2.40
  10  11  -4   32.65    2.36
 -10 -11  -4   31.68    2.36
 -10  11   4   30.30    2.39
  10 -11   4   34.67    2.31
 -10  11   4   32.08    2.36
 -10  11  -5   31.24    2.43
  10 -11  -5   28.69    2.39
  10 -11  -5   34.15    2.34
  10  11   5   33.71    2.36
 -10 -11   5   32.38    2.32
 -10  11   5   27.00    2.35
  10 -11   5   33.40    2.30
 -10  11   5   35.44    2.37
 -10 -11  -5   32.03    2.37
  10  11  -5   32.21    2.35
 -10  11  -6    5.47    0.87
  10 -11  -6    3.67    0.51
 -10  11   6    4.77    0.56
  10 -11   6    3.79    0.45
 -10 -11  -6    4.35    0.66
 -10  11  -7    0.94    0.46
  10 -11  -7    0.59    0.23
 -10 -11   7    0.85    0.25
  10 -11   7    0.68    0.17
 -10 -11  -7    1.31    0.33
  10 -11  -8   27.77    2.01
 -10 -11   8   27.56    2.00
 -10  11  -8   26.68    2.08
  10 -11   8   27.20    1.97
 -10  11   8   27.52    2.01
 -10 -11  -8   29.22    2.03
 -10 -12   0    6.98    0.59
  10  12   0    7.61    0.75
  10 -12   0    7.00    0.57
 -10  12   0    7.11    0.60
 -10  12   0    7.56    0.72
 -10 -12   0    7.16    0.59
 -10  12  -1    7.75    0.72
  10 -12  -1    8.34    0.62
  10  12   1    6.05    0.77
 -10 -12   1    7.60    0.63
 -10  12  -1    7.28    0.64
 -10 -12   1    7.41    0.63
 -10 -12  -1    7.69    0.64
  10 -12   1    8.19    0.61
 -10  12   1    7.89    0.77
 -10  12   1    8.21    0.65
  10  12  -1    8.56    0.74
 -10 -12  -1    7.73    0.64
 -10  12  -2    0.65    0.18
  10 -12  -2    0.87    0.16
 -10  12  -2    0.61    0.26
 -10 -12   2    0.66    0.17
  10  12   2    1.04    0.31
 -10 -12  -2    0.64    0.19
 -10  12   2    0.69    0.34
  10  12  -2    0.81    0.23
 -10 -12  -2    0.80    0.19
 -10  12   2    0.81    0.19
  10 -12   2    0.72    0.15
  10 -12  -3   43.71    3.17
 -10  12  -3   45.55    3.23
 -10 -12   3   44.83    3.17
  10  12   3   44.82    3.25
 -10  12  -3   47.02    3.18
  10 -12   3   42.91    3.16
 -10  12   3   45.44    3.19
 -10 -12  -3   45.91    3.18
 -10  12   3   38.97    3.24
 -10 -12  -3   47.42    3.19
  10  12  -3   42.04    3.21
 -10 -12   4    4.59    0.47
  10  12   4    4.12    0.58
 -10  12  -4    4.64    0.73
  10 -12  -4    4.50    0.48
 -10  12  -4    5.39    0.51
 -10 -12  -4    4.89    0.55
 -10  12   4    4.75    0.75
  10 -12   4    3.74    0.42
 -10 -12  -4    4.97    0.54
  10  12  -4    4.32    0.54
 -10  12   4    4.84    0.57
  10  12   5   23.34    1.70
 -10 -12   5   22.78    1.65
 -10  12  -5   20.16    1.80
  10 -12  -5   24.30    1.67
 -10  12   5   18.82    1.69
  10  12  -5   24.27    1.70
 -10 -12  -5   21.35    1.69
  10 -12   5   24.10    1.64
 -10 -12   6    1.00    0.27
  10 -12  -6    0.96    0.25
 -10  12  -6    1.33    0.50
 -10  12   6    0.83    0.27
  10 -12   6    1.44    0.22
 -10 -12  -6    0.92    0.31
 -10 -12   7    8.39    0.71
 -10  12  -7    8.80    0.91
  10 -12  -7    7.88    0.73
  10 -12   7    7.63    0.66
 -10  12   7    8.71    0.73
 -10 -12  -7    9.13    0.77
 -10 -12   8    5.18    0.50
 -10  12  -8    4.64    0.72
  10 -12  -8    5.34    0.49
  10  12  -8    5.28    0.48
  10 -12   8    4.28    0.45
 -10  12   8    5.52    0.55
 -10 -12  -8    5.65    0.53
 -10 -13   0   76.12    5.53
 -10 -13   0   76.42    5.53
  10  13   0   81.05    5.62
 -10  13   0   78.37    5.59
  10 -13   0   79.35    5.53
 -10  13   0   78.60    5.54
 -10  13  -1    7.34    0.73
 -10  13  -1    6.93    0.58
 -10 -13   1    6.95    0.56
  10 -13  -1    6.09    0.55
 -10 -13   1    6.73    0.57
 -10 -13  -1    6.75    0.57
 -10  13   1    7.23    0.76
 -10  13   1    6.66    0.59
 -10 -13  -1    6.71    0.57
  10 -13   1    6.45    0.55
  10  13  -1    6.94    0.67
 -10 -13   2    3.00    0.36
 -10  13  -2    3.44    0.60
  10 -13  -2    2.46    0.33
 -10  13  -2    2.92    0.37
 -10 -13  -2    2.65    0.38
 -10 -13  -2    3.35    0.39
  10 -13   2    2.73    0.31
 -10  13   2    3.05    0.40
 -10  13  -3    6.77    1.23
  10  13   3    7.34    0.79
 -10  13   3    6.49    0.86
 -10 -13  -3    7.29    0.62
  10  13  -3    6.70    0.66
 -10  13  -4   23.42    2.09
 -10  13  -4   27.60    1.99
  10 -13  -4   29.92    1.99
 -10 -13   4   27.01    1.97
  10  13   4   29.94    2.03
 -10  13   4   24.20    2.01
 -10 -13  -4   26.97    2.00
  10 -13   4   28.18    1.96
  10  13  -4   27.37    2.00
 -10 -13  -4   27.38    1.99
  10 -13  -5   11.38    0.87
  10  13   5   12.19    0.93
 -10  13  -5    9.17    1.07
 -10 -13   5   11.18    0.87
 -10  13   5    9.28    0.92
  10 -13   5   11.68    0.84
 -10 -13  -5    9.91    0.90
  10  13  -5   10.45    0.95
 -10 -13  -5   11.00    0.91
 -10 -13   6    4.19    0.53
 -10  13  -6    5.48    0.77
 -10 -13  -6    4.38    0.61
 -10  13   6    4.54    0.55
 -10 -13  -6    4.83    0.56
 -10 -13   7    1.79    0.38
 -10  13  -7    1.49    0.53
  10 -13  -7    2.09    0.35
  10 -13   7    2.05    0.36
 -10  13   7    1.54    0.28
 -10 -13  -7    1.29    0.40
 -10  14   0    4.54    0.79
  10  14   0    4.30    0.58
 -10 -14   0    4.89    0.43
 -10  14   0    4.18    0.45
 -10 -14   0    4.85    0.42
  10 -14   0    4.30    0.40
 -10  14  -1   29.90    2.31
 -10  14  -1   31.15    2.20
  10  14   1   25.50    2.28
 -10 -14   1   30.12    2.19
  10 -14  -1   31.27    2.19
 -10 -14  -1   29.95    2.19
 -10  14   1   32.10    2.21
  10 -14   1   31.04    2.19
  10  14  -1   33.67    2.27
 -10 -14  -1   30.36    2.19
  10  14   2    0.96    0.30
  10 -14  -2    1.27    0.24
 -10  14  -2    1.32    0.44
 -10  14  -2    0.76    0.18
 -10  14   2    0.77    0.20
 -10 -14  -2    1.23    0.29
 -10 -14  -2    0.50    0.18
 -10  14   2    0.76    0.51
  10  14  -2    0.37    0.22
 -10 -14   3   20.07    1.47
 -10  14  -3   21.05    1.49
  10  14   3   21.44    1.56
  10 -14  -3   21.17    1.48
 -10  14  -3   18.44    1.66
  10 -14   3   19.99    1.47
 -10  14   3   18.86    1.51
  10  14  -3   19.04    1.51
 -10 -14  -3   21.14    1.49
 -10 -14  -3   20.40    1.49
 -10 -14   4   12.71    0.92
  10 -14  -4   12.04    0.92
  10  14   4   12.18    0.98
 -10  14  -4   10.27    1.19
 -10 -14  -4   12.58    0.95
  10  14  -4   10.89    0.95
  10 -14   4   11.56    0.89
 -10 -14  -4   11.79    0.95
  10  14   5    5.90    0.64
 -10  14  -5    5.08    0.87
  10 -14  -5    5.61    0.53
 -10 -14   5    4.71    0.54
  10 -14   5    6.30    0.49
 -10 -14  -5    4.48    0.57
 -10  14   5    5.39    0.60
  10 -14  -6    0.15    0.18
 -10  14  -6    0.48    0.58
 -10 -14   6   -0.21    0.22
  10 -14   6    0.19    0.15
 -10 -14  -6   -0.08    0.51
 -10 -14  -6    0.39    0.25
 -10  14   6    0.22    0.28
 -10 -15   0   23.13    1.80
  10  15   0   27.40    1.90
 -10  15   0   24.37    1.83
  10 -15   0   25.74    1.81
 -10  15  -1   12.92    1.61
 -10  15  -1   11.84    0.95
  10 -15  -1   13.00    0.93
 -10 -15   1   12.54    0.94
  10  15   1   10.83    1.05
  10  15  -1   13.22    1.03
 -10 -15  -1   11.77    0.93
 -10  15   1   12.91    0.96
 -10 -15  -1   12.70    0.94
  10 -15   1   12.63    0.93
  10 -15  -2    5.74    0.51
 -10  15  -2    6.21    0.55
  10  15   2    5.77    0.65
 -10  15  -2    6.33    1.30
 -10 -15   2    6.61    0.53
 -10 -15  -2    7.07    0.55
  10 -15   2    5.31    0.50
 -10  15   2    5.98    0.58
 -10 -15  -2    6.17    0.54
  10  15   3    0.32    0.25
  10 -15  -3    0.24    0.15
 -10  15  -3    0.81    0.75
 -10 -15   3    0.57    0.18
 -10 -15  -3    0.62    0.20
 -10 -15  -3    0.40    0.19
 -10  15   3    0.24    0.23
  10  15  -3    0.57    0.21
  10  15   4   44.65    2.95
 -10 -15   4   39.73    2.91
  10 -15  -4   40.90    2.91
 -10 -15  -4   41.95    2.92
 -10 -15  -4   41.02    2.92
  10 -15   4   39.93    2.90
  10  15  -4   37.31    2.92
  10  15   5    0.54    0.29
  10 -15  -5    1.70    0.32
 -10 -15   5    0.96    0.24
 -10  15   5    1.12    0.25
 -10 -15  -5    1.17    0.25
 -10 -15  -5    0.64    0.26
 -10 -16   0    0.96    0.18
 -10  16   0    0.65    0.20
  10 -16   0    0.55    0.14
  10  16   0    0.40    0.24
 -10 -16   1   26.45    1.86
  10  16   1   22.19    1.93
 -10  16  -1   25.91    1.88
  10 -16  -1   26.43    1.86
 -10 -16  -1   26.38    1.86
 -10  16   1   25.85    1.88
  10  16  -1   26.97    1.92
  10 -16   1   26.49    1.85
  10 -16  -2    0.41    0.13
 -10 -16   2    0.46    0.17
  10  16   2   -0.17    0.24
 -10  16   2    0.13    0.22
  10 -16   2    0.18    0.12
  10  16  -2    0.44    0.21
 -10 -16  -2    0.08    0.18
  10 -16  -3    9.16    0.73
 -10 -16   3    9.98    0.75
  10 -16   3    8.93    0.72
 -10 -16  -3    9.80    0.77
  10  16  -3    8.84    0.78
 -10 -16  -3    9.51    0.92
 -11   0   0   -0.06    0.15
 -11   0   1  109.19    7.72
 -11   0  -1  111.15    7.72
  11   0  -1  108.55    7.73
  11   0  -2  196.31   14.27
 -11   0  -2  211.81   14.26
 -11   0   2  200.50   14.26
  11   0  -3  161.76   13.51
  11   0  -3  197.61   13.43
 -11   0  -3  204.73   13.42
 -11   0   3  197.97   13.42
 -11   0  -4    5.50    0.60
  11   0  -4    4.16    0.52
  11   0  -4    3.62    0.46
 -11   0   5   47.24    3.06
  11   0  -5   41.16    3.08
  11   0  -5   40.26    3.07
 -11   0   6   10.88    0.79
  11   0  -6    8.53    0.83
  11   0  -7   85.66    5.54
 -11   0   7   76.98    5.53
 -11   0  -7   71.61    5.66
 -11   0  -8    5.60    0.96
  11   0  -8    6.82    0.59
 -11   0   8    6.87    0.57
 -11   0   8    5.29    0.67
  11   0  -9   16.44    1.29
 -11   0   9   17.83    1.29
  11   0 -10    2.17    0.39
 -11   0 -10    1.90    0.49
 -11   0  10    1.99    0.31
 -11   0  10    2.22    0.41
 -11   0  11    4.53    0.54
  11   0 -11    5.51    0.51
 -11   0 -11    4.74    0.66
 -11  -1   0    0.46    0.17
 -11   1   0    0.31    0.17
 -11  -1   1    7.04    0.53
  11  -1  -1    6.54    0.56
 -11   1  -1    6.52    0.54
 -11   1   1    6.51    0.54
  11   1  -1    6.30    0.53
 -11  -1  -1    6.23    0.52
  11  -1  -2   85.02    6.26
 -11   1  -2   90.77    6.16
  11  -1  -2   84.66    6.17
 -11  -1   2   88.88    6.16
 -11   1   2   88.36    6.16
 -11  -1  -2   87.14    6.17
  11   1  -2   85.61    6.16
  11  -1  -3   10.26    0.91
 -11  -1  -3   11.33    0.85
  11   1  -3   10.67    0.89
 -11   1   3   10.56    0.85
  11  -1  -4    1.03    0.20
  11   1  -4    1.41    0.27
  11   1  -4    0.81    0.20
 -11  -1   5    8.38    0.68
  11   1  -5    7.92    0.71
 -11   1   5    8.45    0.72
  11  -1  -6   43.35    2.97
 -11  -1   6   40.66    2.99
  11  -1   6   37.88    3.00
 -11   1   6   43.31    3.00
  11   1  -6   41.93    3.00
 -11   1  -7    4.82    0.89
 -11  -1   7    4.48    0.52
  11  -1  -7    6.31    0.55
 -11   1   7    5.95    0.52
  11  -1   7    4.61    0.51
 -11  -1  -7    4.92    1.09
 -11   1   7    6.25    0.78
  11   1  -7    4.80    0.53
 -11  -1   8    2.30    0.38
 -11   1  -8    2.03    0.59
 -11  -1   8    1.51    0.32
  11  -1  -8    1.46    0.26
 -11  -1  -8    1.39    0.52
 -11   1   8    2.32    0.35
 -11   1   8    1.55    0.33
  11   1  -8    1.89    0.36
 -11  -1   9   -0.27    0.26
 -11   1  -9   -0.72    0.51
 -11  -1   9   -0.06    0.21
  11  -1  -9   -0.16    0.20
  11   1  -9    0.03    0.20
 -11   1   9   -0.08    0.27
 -11  -1  -9    0.00    0.46
 -11   1   9   -0.35    0.22
 -11  -1  10   20.76    1.71
 -11   1 -10   23.22    1.81
  11  -1 -10   22.51    1.70
 -11  -1  10   24.30    1.70
  11   1 -10   22.44    1.70
 -11   1  10   25.45    1.71
 -11  -1 -10   23.56    1.80
 -11   1 -11    3.39    0.59
  11  -1 -11    2.46    0.40
 -11  -1  11    2.66    0.56
 -11  -1  11    2.57    0.45
 -11  -1 -11    3.15    0.59
  11   1 -11    2.11    0.39
 -11   1  11    2.95    0.46
 -11  -2   0   -0.12    0.15
 -11   2   0   -0.15    0.18
  11  -2  -1  106.71    7.51
 -11  -2   1  102.86    7.50
 -11   2  -1  110.13    7.51
 -11  -2  -1  105.64    7.49
 -11   2   1  106.69    7.51
 -11  -2   2   81.68    6.10
 -11   2  -2   87.51    6.12
  11  -2  -2   94.86    6.24
  11  -2  -2   85.46    6.14
  11  -2  -2   82.72    6.12
 -11  -2  -2   90.36    6.10
 -11   2   2   86.78    6.12
  11   2  -2   86.33    6.13
  11   2  -2   83.43    6.11
 -11  -2   3   82.20    5.84
 -11   2  -3   81.63    5.84
  11   2  -3   84.30    5.84
 -11   2   3   81.25    5.84
  11  -2  -4    0.05    0.19
  11  -2  -4   -0.03    0.15
 -11  -2   4   -0.07    0.25
 -11   2   4   -0.26    0.26
  11   2  -4   -0.16    0.20
 -11  -2  -4    0.16    0.40
 -11  -2  -4    0.83    0.45
 -11  -2   5   38.88    2.75
  11  -2  -5   37.25    2.75
  11  -2  -5   33.66    2.77
  11   2  -5   41.15    2.76
  11  -2   5   39.59    2.76
 -11   2   5   40.37    2.76
  11  -2  -6   11.94    1.04
  11  -2  -6   13.62    0.99
 -11   2  -6   13.80    1.69
  11  -2   6   12.73    0.98
  11   2  -6   12.77    1.02
 -11  -2   7   45.17    3.49
  11  -2  -7   52.51    3.52
 -11   2  -7   43.83    3.69
 -11   2   7   53.67    3.55
 -11   2   7   47.26    3.49
  11  -2   7   51.03    3.47
  11   2  -7   49.34    3.50
 -11  -2   8    4.05    0.46
 -11   2  -8    4.68    0.97
 -11  -2   8    2.94    0.42
  11  -2  -8    4.04    0.49
 -11   2   8    4.55    0.62
  11  -2   8    4.26    0.41
  11   2  -8    3.57    0.44
 -11  -2  -8    3.37    0.58
 -11   2   8    3.73    0.45
 -11  -2   9   29.26    2.02
 -11   2  -9   30.12    2.18
  11  -2  -9   26.36    2.02
 -11   2   9   24.65    2.06
  11   2  -9   27.26    2.02
 -11   2   9   28.00    2.02
 -11  -2  -9   28.99    2.13
 -11  -2  10    1.48    0.27
 -11   2 -10    2.03    0.50
  11  -2 -10    1.86    0.38
 -11  -2 -10    2.88    0.61
 -11   2  10    1.99    0.40
  11   2 -10    1.43    0.26
  11  -2 -11    9.65    0.71
 -11  -2  11    8.03    0.74
 -11   2 -11    7.77    0.85
 -11  -2 -11    8.37    0.83
 -11   2  11    9.13    0.75
  11   2 -11    8.42    0.72
 -11  -3   0    1.37    0.29
  11  -3  -1    5.16    0.72
 -11  -3   1    4.95    0.44
 -11   3  -1    5.56    0.57
  11  -3  -1    4.64    0.57
 -11   3   1    5.03    0.48
  11   3  -1    4.92    0.44
  11  -3  -2   51.42    4.48
 -11  -3   2   65.53    4.29
  11  -3  -2   53.05    4.32
 -11   3  -2   64.85    4.30
  11  -3  -2   59.32    4.30
  11   3  -2   63.39    4.28
 -11   3   2   63.71    4.29
  11  -3  -3    7.09    0.58
  11  -3  -3    6.50    0.60
 -11   3  -3    7.95    0.93
 -11  -3   3    7.33    0.69
  11   3  -3    6.56    0.62
  11   3  -3    7.51    0.68
  11  -3  -4    0.23    0.15
  11  -3  -4    0.18    0.17
 -11  -3   4   -0.09    0.25
 -11   3   4   -0.44    0.30
  11   3  -4    0.09    0.20
  11  -3  -5    2.48    0.33
  11  -3  -5    2.87    0.42
  11  -3   5    2.53    0.37
  11   3  -5    2.80    0.45
 -11   3  -6   71.18    5.49
  11  -3  -6   83.14    5.36
 -11  -3   6   71.55    5.36
 -11   3   6   80.62    5.37
  11   3  -6   74.71    5.36
  11  -3   6   72.93    5.34
 -11   3  -7    1.06    0.70
  11  -3  -7    0.62    0.24
  11  -3   7    0.87    0.18
 -11  -3  -7    0.36    0.55
 -11   3   7    0.77    0.24
  11  -3  -8    5.27    0.61
 -11  -3   8    6.63    0.62
 -11   3   8    7.36    0.60
  11  -3  -9    0.72    0.24
 -11  -3   9    0.34    0.25
 -11  -3   9    0.46    0.29
 -11   3  -9    0.93    0.52
 -11   3   9    0.43    0.23
  11   3  -9    0.52    0.22
 -11  -3  -9    0.05    0.45
 -11  -3  10   21.39    1.77
 -11  -3  10   24.93    1.76
 -11   3 -10   24.83    1.87
  11  -3 -10   23.69    1.76
 -11   3  10   25.05    1.77
  11   3 -10   24.75    1.77
 -11  -3 -10   24.27    1.83
 -11  -3  11    2.52    0.54
 -11  -3  11    3.36    0.46
 -11   3 -11    3.44    0.60
  11  -3 -11    4.17    0.42
  11   3 -11    3.71    0.44
 -11   3  11    3.44    0.48
 -11   4   0    0.01    0.19
  11  -4   0    0.52    0.35
 -11  -4   1  121.98    8.20
  11  -4  -1  104.61    8.23
 -11   4  -1  121.96    8.22
 -11   4   1  116.66    8.22
  11  -4  -2   47.84    3.92
 -11   4  -2   64.22    3.99
  11   4  -2   60.87    3.92
  11   4  -2   47.97    3.93
  11  -4  -3  110.66    7.67
  11  -4  -3  120.25    7.69
 -11   4   3  108.66    7.68
  11   4  -3  101.88    7.70
  11   4  -3  103.08    7.69
  11  -4  -4    0.77    0.18
  11  -4  -4    0.62    0.15
 -11   4   4    0.34    0.25
  11  -4   4    1.01    0.20
  11  -4  -5   33.73    2.33
  11  -4  -5   30.76    2.30
 -11  -4   5   33.38    2.33
 -11   4  -5   36.28    2.44
  11  -4   5   30.09    2.29
 -11   4   5   31.76    2.34
  11   4  -5   29.26    2.33
 -11  -4   6   14.00    1.08
 -11   4  -6   14.22    1.72
  11  -4  -6   11.56    1.10
  11  -4   6   13.99    1.04
 -11   4   6   15.55    1.10
 -11  -4   7   49.50    3.53
 -11   4  -7   43.96    3.69
  11  -4  -7   52.29    3.56
 -11   4   7   53.67    3.54
  11   4  -7   49.54    3.53
 -11  -4  -7   43.72    3.62
  11  -4   7   52.86    3.50
 -11  -4   8    3.36    0.64
 -11   4  -8    3.20    0.65
  11  -4  -8    3.76    0.48
  11   4  -8    2.42    0.43
 -11  -4  -8    2.42    0.49
  11  -4   8    3.80    0.37
 -11   4   8    3.66    0.44
 -11  -4   9   19.61    1.56
 -11  -4  -9   21.74    1.66
 -11  -4  10    3.37    0.44
 -11   4 -10    3.95    0.69
  11  -4 -10    2.61    0.42
  11   4 -10    3.89    0.44
 -11   4  10    3.50    0.45
 -11  -4 -10    3.68    0.59
 -11  -4  11   12.17    0.96
  11  -4 -11   12.17    0.88
 -11  -4  11   10.32    0.90
 -11  -4 -11   10.54    0.96
  11   4 -11   12.04    0.90
  11  -5   0    0.47    0.19
  11   5   0    0.33    0.26
  11  -5  -1    0.59    0.19
  11   5   1    0.86    0.32
  11  -5  -1    0.51    0.15
  11   5  -1    0.84    0.24
  11  -5  -2   68.49    4.68
  11   5   2   62.06    4.77
  11  -5  -2   63.47    4.70
 -11   5   2   64.99    4.69
  11  -5   2   73.77    4.69
  11   5  -2   65.02    4.72
  11  -5  -3    5.39    0.46
  11  -5  -3    5.13    0.47
 -11  -5   3    4.82    0.54
  11  -5   3    5.79    0.47
 -11  -5   4    0.53    0.21
 -11   5  -4    0.47    0.42
  11  -5  -4    0.63    0.18
  11  -5   4    0.82    0.17
  11   5  -4    0.84    0.23
 -11   5   4    0.58    0.24
  11  -5  -5    2.72    0.29
  11  -5  -5    2.70    0.49
  11   5  -5    2.61    0.47
  11  -5   5    2.88    0.37
  11  -5  -6   51.23    4.13
  11  -5  -6   62.70    4.10
 -11   5  -6   59.54    4.21
 -11  -5   6   57.41    4.12
 -11  -5  -6   54.80    4.28
 -11   5   6   61.00    4.14
  11  -5   6   57.79    4.09
  11  -5  -7    2.58    0.33
 -11  -5   7    1.69    0.30
  11  -5  -7    2.10    0.34
  11  -5   7    2.24    0.31
 -11   5   7    3.28    0.47
 -11  -5   8    1.40    0.27
  11  -5  -8    1.17    0.25
  11   5  -8    0.73    0.22
 -11   5  -9   -0.22    0.48
 -11  -5   9    0.73    0.28
 -11  -5   9   -0.20    0.23
  11   5  -9    0.33    0.21
 -11   5   9    0.20    0.23
 -11  -5  -9    0.63    0.36
 -11   5 -10   16.86    1.36
 -11  -5  10   17.26    1.26
  11  -5 -10   16.49    1.25
 -11  -5  10   15.79    1.31
  11   5 -10   17.40    1.26
 -11   5  10   16.77    1.26
 -11  -5 -10   17.01    1.32
  11  -5 -11    1.97    0.38
 -11   5 -11    1.93    0.40
 -11  -5  11    3.03    0.57
 -11  -5  11    1.74    0.41
  11   5 -11    2.49    0.38
 -11   5  11    1.75    0.32
 -11  -5 -11    2.05    0.49
  11  -6   0   -0.17    0.14
  11  -6   0   -0.16    0.11
  11   6   0    0.08    0.24
 -11   6   0   -0.10    0.17
  11  -6  -1   77.85    5.28
  11   6   1   68.25    5.43
 -11   6  -1   77.73    5.29
  11   6  -1   78.45    5.46
  11  -6   1   79.28    5.27
  11  -6   1   70.76    5.28
 -11   6   1   71.18    5.28
 -11  -6   2   59.78    4.20
 -11  -6   2   58.80    4.25
  11  -6  -2   61.11    4.19
 -11   6  -2   63.97    4.20
 -11   6  -2   62.22    4.22
  11  -6   2   51.45    4.19
  11   6  -2   57.85    4.23
  11  -6  -3   75.34    5.01
  11  -6  -3   69.14    5.00
  11   6   3   78.80    5.08
 -11  -6   3   64.22    4.99
  11   6  -3   66.65    5.02
 -11   6   3   65.97    5.00
  11  -6   3   74.92    4.99
 -11   6  -4    1.17    0.23
  11  -6  -4    0.71    0.15
  11   6   4    0.62    0.37
  11  -6  -4    0.66    0.18
  11   6  -4    0.47    0.21
  11  -6   4    0.82    0.16
 -11   6   4    0.63    0.24
  11  -6  -5   32.27    2.29
  11  -6  -5   34.70    2.33
 -11  -6   5   32.40    2.32
 -11   6  -5   35.43    2.39
 -11   6   5   27.12    2.33
  11  -6   5   31.42    2.30
  11   6  -5   30.81    2.36
 -11  -6   6    7.74    0.71
  11  -6  -6    7.12    0.57
  11  -6  -6    6.69    0.69
  11  -6   6    6.92    0.60
 -11  -6  -6    7.78    1.11
 -11   6   6    7.41    0.72
 -11  -6   7   43.34    3.00
  11  -6  -7   38.53    3.02
  11  -6   7   44.05    2.96
 -11  -6  -7   37.69    3.08
 -11   6   7   44.67    3.01
 -11   6  -8    0.12    0.53
 -11  -6   8    0.93    0.25
  11  -6  -8    1.02    0.27
  11   6  -8    0.62    0.23
  11  -6   8    0.87    0.18
 -11   6   8    1.10    0.27
 -11  -6  -8    0.68    0.41
  11  -6  -9   16.43    1.29
 -11  -6   9   17.58    1.29
 -11   6  -9   17.63    1.42
 -11  -6  -9   18.23    1.36
  11   6  -9   16.25    1.29
 -11   6   9   16.79    1.29
 -11  -6  10    1.40    0.27
  11  -6 -10    1.74    0.33
 -11   6 -10    1.96    0.44
  11   6 -10    2.38    0.36
 -11  -6 -10    2.15    0.48
 -11   6  10    1.71    0.28
  11  -7   0    0.56    0.15
  11   7   0    0.63    0.23
 -11   7   0    0.79    0.18
 -11   7  -1    8.82    0.67
 -11  -7   1    8.61    0.71
  11  -7  -1    7.79    0.63
 -11   7  -1    8.89    0.68
 -11  -7   1    8.72    0.68
  11  -7   1    6.47    0.63
 -11   7   1    8.29    0.65
  11  -7   1    8.00    0.62
  11   7  -1    7.42    0.71
 -11  -7   2   71.64    5.17
  11  -7  -2   74.82    5.17
 -11  -7   2   69.18    5.17
  11  -7  -2   71.59    5.19
 -11   7  -2   77.05    5.17
 -11   7  -2   70.69    5.18
  11  -7   2   67.42    5.17
  11  -7   2   80.31    5.16
  11   7  -2   76.36    5.21
 -11   7   2   72.88    5.17
 -11  -7   3    9.71    0.71
 -11   7  -3    8.75    0.76
 -11   7  -3    8.79    0.72
  11  -7  -3    8.78    0.69
  11  -7  -3    8.14    0.69
  11  -7   3    9.44    0.68
  11   7  -3    7.94    0.74
 -11   7   3    8.86    0.72
  11  -7  -4    2.07    0.31
 -11  -7   4    1.38    0.36
  11  -7  -4    1.70    0.26
  11   7   4    1.04    0.34
 -11   7   4    1.92    0.40
 -11  -7   5    4.07    0.49
 -11   7  -5    4.32    0.50
  11  -7  -5    4.45    0.46
  11  -7  -5    3.57    0.36
 -11  -7  -5    3.94    0.67
 -11   7   5    3.24    0.56
  11  -7   5    3.92    0.42
  11   7  -5    4.14    0.53
  11  -7  -6   54.17    4.00
 -11   7  -6   59.44    4.06
 -11  -7   6   56.90    3.99
 -11   7   6   56.30    4.00
 -11  -7  -6   52.34    4.07
  11  -7   6   55.24    3.96
 -11  -7   7    0.82    0.27
  11  -7  -7    0.51    0.26
 -11   7  -7   -0.03    0.55
  11  -7   7    0.81    0.18
 -11   7   7    1.38    0.29
 -11  -7  -7    1.02    0.45
 -11  -7   8    1.73    0.46
 -11   7  -8    2.31    1.02
  11   7  -8    1.74    0.46
 -11  -7  -8    1.82    0.56
 -11  -7   9    0.03    0.22
 -11   7  -9    0.80    0.44
  11  -7  -9    0.08    0.19
 -11  -7  -9   -0.10    0.32
  11   7  -9    0.20    0.20
 -11  -7  10   18.72    1.46
  11  -7 -10   20.52    1.46
 -11  -7  10   20.15    1.60
 -11   7 -10   18.73    1.53
 -11   7  10   19.44    1.47
  11   7 -10   21.44    1.46
 -11  -7 -10   20.14    1.50
 -11  -8   0    0.37    0.24
 -11   8   0   -0.22    0.18
  11   8   0   -0.02    0.24
  11  -8   0   -0.05    0.11
 -11  -8   0   -0.16    0.19
 -11   8   0   -0.24    0.14
  11  -8  -1   63.58    4.28
 -11   8  -1   60.82    4.29
  11  -8  -1   56.64    4.29
 -11   8  -1   63.15    4.28
 -11  -8   1   58.72    4.28
 -11  -8   1   61.13    4.29
  11  -8   1   58.94    4.27
 -11  -8  -1   56.64    4.28
 -11  -8  -1   57.77    4.31
  11  -8   1   64.70    4.28
 -11   8   1   60.92    4.28
  11   8  -1   62.55    4.34
 -11  -8   2   25.34    1.81
 -11   8  -2   25.49    1.84
 -11  -8   2   25.57    1.81
 -11   8  -2   26.12    1.82
  11   8  -2   23.90    1.88
  11  -8   2   24.59    1.80
 -11   8   2   24.99    1.83
 -11   8  -3   28.66    2.27
  11  -8  -3   34.46    2.25
  11  -8  -3   31.17    2.24
  11   8  -3   31.50    2.28
  11  -8   3   33.45    2.23
 -11   8   3   31.31    2.25
 -11  -8  -3   27.39    2.30
  11  -8  -4    1.03    0.20
  11   8   4    1.22    0.31
  11  -8  -4    0.70    0.15
  11  -8   4    0.91    0.17
  11   8  -4    0.68    0.22
 -11   8   4    1.03    0.25
 -11  -8   5   29.60    2.16
 -11   8  -5   30.28    2.16
  11  -8  -5   32.56    2.17
 -11   8  -5   32.18    2.24
  11   8  -5   29.92    2.18
 -11  -8  -5   27.57    2.27
 -11   8   5   24.95    2.18
  11  -8   5   29.76    2.13
  11  -8  -6    6.40    0.68
 -11   8  -6    8.54    0.96
 -11  -8   6    7.26    0.71
  11  -8   6    7.11    0.61
 -11   8   6    7.24    0.73
 -11  -8  -6    5.74    0.95
  11  -8  -7   25.47    1.94
 -11  -8   7   26.13    1.92
 -11   8   7   28.51    1.94
 -11  -8  -7   24.21    2.02
 -11   8   7   25.91    1.92
 -11   8  -8   -0.18    0.48
  11  -8  -8    0.14    0.23
 -11  -8   8   -0.24    0.22
 -11  -8  -8    0.56    0.37
 -11   8   8    0.34    0.22
  11  -8  -9   17.04    1.32
 -11   8  -9   18.39    1.43
 -11  -8   9   17.83    1.32
 -11   8   9   17.53    1.32
  11   8  -9   17.13    1.32
 -11  -8  -9   18.32    1.36
  11  -8 -10    0.85    0.18
 -11  -8  10    0.37    0.22
 -11   8 -10    0.92    0.38
  11   8 -10    0.93    0.20
 -11  -8 -10    0.77    0.27
  11  -9   0    1.92    0.26
 -11   9   0    2.42    0.35
 -11  -9   0    2.59    0.35
 -11  -9   0    1.98    0.35
 -11   9   0    1.90    0.30
 -11   9  -1    4.97    0.46
 -11   9  -1    4.14    0.41
 -11  -9   1    4.54    0.50
  11  -9  -1    3.36    0.39
  11  -9  -1    3.84    0.38
 -11   9   1    4.48    0.41
  11   9  -1    3.67    0.50
 -11  -9  -1    4.58    0.47
  11  -9   1    4.13    0.37
 -11  -9  -1    4.32    0.46
  11  -9  -2   56.88    3.98
 -11  -9   2   54.40    3.97
  11  -9  -2   54.28    3.99
 -11   9  -2   55.82    4.00
 -11   9  -2   58.77    3.99
 -11  -9   2   53.92    3.98
  11  -9   2   57.89    3.97
 -11   9   2   56.26    3.99
  11   9  -2   56.86    4.03
  11   9   3    2.74    0.57
 -11  -9   3    3.85    0.39
  11  -9  -3    2.75    0.33
 -11   9  -3    3.28    0.39
 -11   9  -3    3.53    0.48
  11  -9  -3    3.04    0.34
  11  -9   3    3.04    0.32
  11   9  -3    3.20    0.42
 -11  -9  -3    3.53    0.53
 -11   9   3    3.12    0.41
  11  -9  -4    3.31    0.41
 -11   9  -4    3.73    0.56
 -11  -9   4    4.39    0.45
  11   9   4    3.95    0.56
 -11   9  -4    4.27    0.44
 -11   9   4    3.55    0.49
 -11  -9  -4    3.51    0.59
  11   9  -4    3.18    0.45
  11  -9   4    3.28    0.36
  11   9   5    1.38    0.36
 -11  -9   5    2.04    0.42
 -11   9  -5    3.13    0.66
  11  -9  -5    2.46    0.40
 -11   9  -5    1.87    0.39
  11  -9   5    2.02    0.30
  11   9  -5    1.36    0.31
 -11  -9  -5    2.09    0.45
 -11   9   5    1.63    0.33
 -11  -9   6   47.38    3.28
 -11   9  -6   46.33    3.38
  11  -9  -6   44.53    3.29
 -11   9   6   49.51    3.28
 -11  -9  -6   39.84    3.33
 -11   9   6   44.47    3.30
  11  -9   6   46.76    3.25
 -11  -9  -7    0.79    0.43
 -11   9   7    0.55    0.30
 -11  -9   8    2.15    0.40
  11  -9  -8    2.09    0.41
 -11   9  -8    1.74    0.51
 -11   9   8    2.57    0.41
  11  -9   8    1.44    0.30
 -11  -9   9    0.24    0.21
  11  -9  -9    0.23    0.18
 -11   9  -9    0.67    0.39
  11   9  -9    0.07    0.18
 -11  -9  -9    0.31    0.28
 -11  10   0   -0.03    0.14
  11 -10   0    0.01    0.11
 -11 -10   0    0.04    0.16
 -11  10   0   -0.17    0.21
  11  10   0    0.09    0.26
 -11 -10   0   -0.03    0.18
 -11  10  -1   39.37    2.84
 -11 -10   1   38.04    2.81
  11 -10  -1   39.53    2.81
 -11  10  -1   41.18    2.82
 -11 -10   1   39.04    2.81
  11  10  -1   40.36    2.88
  11 -10   1   39.25    2.81
 -11  10   1   41.92    2.85
 -11 -10  -1   37.49    2.82
 -11 -10  -1   37.98    2.81
 -11  10   1   39.51    2.82
 -11 -10   2   21.22    1.48
 -11  10  -2   21.64    1.52
 -11  10  -2   20.53    1.49
 -11 -10   2   21.34    1.48
  11 -10  -2   19.07    1.47
 -11 -10  -2   20.00    1.49
  11 -10   2   18.59    1.46
 -11 -10  -2   19.66    1.49
 -11  10   2   20.31    1.49
  11  10  -2   18.68    1.53
 -11  10   2   21.46    1.55
  11 -10  -3   49.62    3.48
 -11  10  -3   49.30    3.48
 -11 -10   3   48.02    3.47
 -11  10  -3   45.62    3.50
  11  10   3   50.68    3.56
 -11  10   3   49.50    3.49
 -11 -10  -3   44.75    3.49
  11 -10   3   51.30    3.46
  11  10  -3   50.35    3.52
 -11 -10   4    0.53    0.20
  11  10   4    0.92    0.27
 -11  10  -4    0.49    0.32
  11 -10  -4    0.27    0.17
 -11  10   4    0.33    0.33
  11  10  -4    0.33    0.21
 -11 -10  -4    0.63    0.29
 -11  10   4    0.54    0.24
  11 -10   4    0.56    0.15
 -11  10  -5   20.09    1.45
 -11 -10   5   20.77    1.46
  11 -10  -5   19.62    1.46
 -11  10  -5   21.92    1.58
  11  10   5   17.75    1.50
 -11  10   5   16.66    1.49
  11 -10   5   17.57    1.42
 -11  10   5   21.90    1.50
  11  10  -5   16.93    1.47
 -11 -10  -5   20.64    1.53
 -11  10  -6    2.91    0.61
  11 -10  -6    3.05    0.50
 -11 -10   6    4.15    0.53
  11 -10   6    3.24    0.48
 -11  10   6    3.04    0.56
 -11 -10  -6    3.60    0.58
 -11 -10   7   26.48    1.95
  11 -10  -7   25.19    1.97
 -11  10  -7   25.09    2.09
  11 -10   7   29.86    1.92
 -11  10   7   29.69    1.97
 -11 -10  -7   23.54    2.01
 -11  10  -8    1.20    0.46
 -11 -10   8    0.91    0.23
  11 -10  -8    0.87    0.22
 -11 -10  -8    0.67    0.29
  11 -10   8    1.23    0.18
 -11  10  -9   16.47    1.22
 -11 -10   9   15.01    1.11
  11 -10  -9   14.50    1.11
 -11 -10  -9   15.81    1.14
 -11  10   9   12.82    1.13
  11  10  -9   14.88    1.11
  11 -11   0    5.00    0.49
 -11 -11   0    6.23    0.52
 -11  11   0    6.62    0.52
 -11  11  -1    2.15    0.40
 -11  11  -1    1.99    0.29
  11 -11  -1    1.62    0.25
  11  11   1    0.95    0.31
  11  11  -1    1.31    0.28
 -11  11   1    1.94    0.33
 -11 -11  -1    1.57    0.32
 -11  11   1    1.36    0.22
 -11 -11  -1    1.49    0.24
  11 -11   1    1.29    0.23
 -11 -11   2   61.79    4.46
 -11  11  -2   62.24    4.50
 -11  11  -2   65.67    4.48
 -11 -11   2   59.17    4.46
  11 -11  -2   63.08    4.47
  11 -11   2   65.20    4.46
  11  11  -2   65.35    4.52
 -11 -11  -2   61.84    4.47
 -11  11   2   64.97    4.48
 -11  11   2   63.13    4.52
 -11 -11  -2   60.83    4.46
  11 -11  -3    6.92    0.58
 -11  11  -3    7.12    0.60
 -11  11  -3    7.14    0.68
  11  11   3    6.51    0.73
 -11 -11   3    7.36    0.59
 -11 -11  -3    6.80    0.63
  11 -11   3    6.60    0.55
 -11 -11  -3    6.35    0.62
 -11  11   3    7.16    0.62
  11  11  -3    6.23    0.63
 -11  11   3    5.97    0.77
 -11 -11   4    0.73    0.21
 -11  11  -4    1.08    0.35
  11  11   4    0.98    0.27
  11 -11  -4    0.77    0.19
 -11  11   4    1.31    0.37
  11  11  -4    0.73    0.23
 -11  11   4    0.51    0.25
 -11 -11  -4    0.96    0.28
  11  11   5    1.51    0.56
 -11 -11   5    3.29    0.46
  11 -11  -5    2.22    0.41
 -11  11   5    2.45    0.51
 -11 -11  -5    3.29    0.59
  11 -11   5    2.31    0.34
 -11  11  -6   31.32    2.61
 -11 -11   6   36.89    2.50
  11 -11  -6   34.46    2.50
 -11  11   6   35.32    2.51
 -11 -11  -6   31.29    2.53
  11 -11   6   36.79    2.47
 -11  11   6   34.39    2.70
 -11 -11   7    0.86    0.24
 -11  11  -7    0.30    0.46
  11 -11  -7    0.75    0.22
  11 -11   7    0.79    0.17
 -11 -11  -7    1.22    0.33
 -11  11  -8    3.01    0.62
  11 -11  -8    1.89    0.36
 -11  11   8    2.50    0.41
  11  11  -8    2.07    0.36
  11  12   0    0.06    0.24
 -11 -12   0   -0.04    0.15
 -11  12   0    0.15    0.26
 -11  12   0    0.01    0.14
  11 -12   0    0.06    0.11
 -11 -12   0    0.03    0.16
 -11 -12   1   17.38    1.28
 -11  12  -1   17.05    1.34
  11 -12  -1   17.32    1.27
 -11 -12   1   17.15    1.27
 -11  12  -1   16.95    1.28
 -11 -12  -1   16.91    1.28
  11  12  -1   18.67    1.37
 -11  12   1   17.63    1.37
  11 -12   1   17.44    1.27
 -11 -12  -1   16.91    1.28
 -11  12   1   17.01    1.29
 -11 -12   2   11.54    0.88
 -11  12  -2   11.75    0.95
 -11  12  -2   11.06    0.88
  11 -12  -2   11.16    0.87
 -11  12   2   10.86    1.04
 -11 -12  -2   11.78    0.89
 -11  12   2   12.28    0.90
  11 -12   2   11.06    0.86
 -11 -12  -2   11.24    0.89
  11  12  -2   11.55    0.95
 -11 -12   3   25.36    1.88
 -11  12  -3   23.76    1.95
  11 -12  -3   26.76    1.89
  11  12   3   28.03    1.98
 -11  12  -3   26.91    1.90
 -11 -12  -3   25.09    1.90
 -11  12   3   26.55    1.91
  11  12  -3   25.65    1.93
  11 -12   3   27.15    1.87
 -11 -12  -3   24.46    1.89
 -11  12  -4    2.04    0.54
  11  12   4    2.03    0.41
  11 -12  -4    1.90    0.31
 -11 -12  -4    1.91    0.31
  11  12  -4    1.55    0.28
 -11  12   4    1.39    0.36
 -11  12   4    2.08    0.54
 -11 -12   5   18.27    1.31
 -11  12  -5   18.19    1.47
  11 -12  -5   18.33    1.32
  11  12   5   16.34    1.35
 -11 -12  -5   17.99    1.34
 -11  12   5   17.65    1.39
 -11 -12  -5   17.95    1.35
  11 -12   5   16.00    1.28
  11  12  -5   15.28    1.33
 -11  12  -6    0.48    0.44
 -11 -12   6    0.14    0.25
  11 -12  -6    0.71    0.21
 -11 -12  -6    0.01    0.31
 -11 -12  -6    0.20    0.30
  11 -12   6    0.52    0.17
 -11  12   6    0.31    0.24
  11 -12  -7   14.42    1.07
 -11  12  -7   11.93    1.20
 -11 -12   7   14.29    1.07
 -11  12   7   15.24    1.08
 -11 -12  -7   11.82    1.14
 -11 -12  -7   13.28    1.10
  11 -12   7   15.04    1.02
 -11  13   0    5.71    0.68
 -11 -13   0    5.33    0.50
 -11 -13   1    4.67    0.41
 -11 -13   1    4.65    0.44
  11 -13  -1    3.89    0.41
 -11  13  -1    4.38    0.44
 -11  13  -1    5.31    0.62
 -11  13   1    4.28    0.46
 -11 -13  -1    4.49    0.45
  11 -13   1    4.16    0.40
 -11  13   1    4.67    0.69
  11  13  -1    4.40    0.57
 -11 -13  -1    4.52    0.50
 -11  13   2   28.01    2.62
 -11 -13  -2   34.71    2.31
 -11 -13   3    3.27    0.40
  11 -13  -3    2.96    0.37
 -11  13  -3    2.84    0.64
 -11  13  -3    3.41    0.40
  11  13   3    3.33    0.54
  11 -13   3    2.90    0.34
 -11 -13  -3    3.41    0.43
  11  13  -3    3.40    0.46
 -11 -13  -3    3.63    0.42
 -11  13   3    2.82    0.44
 -11  13   3    2.44    0.49
 -11 -13   4    2.43    0.37
 -11  13  -4    2.34    0.37
 -11  13  -4    1.46    0.46
  11 -13  -4    2.06    0.34
 -11 -13  -4    2.39    0.45
  11 -13   4    1.58    0.29
 -11 -13  -4    2.17    0.40
 -11  13   4    1.35    0.45
  11 -13  -5    2.47    0.38
 -11 -13   5    3.11    0.43
 -11  13  -5    2.91    0.53
  11  13   5    2.44    0.54
 -11 -13  -5    2.82    0.47
 -11  13   5    1.90    0.33
  11 -13   5    2.27    0.34
 -11  13  -6   23.28    1.84
  11 -13  -6   21.38    1.74
 -11 -13   6   25.37    1.74
 -11  13   6   26.51    1.76
  11 -13   6   26.03    1.71
 -11 -13  -6   21.48    1.76
 -11 -13  -6   21.68    1.77
 -11 -13   7    0.45    0.22
  11 -13  -7    0.44    0.18
 -11 -13  -7    0.45    0.24
 -11  13   7    0.61    0.21
  11 -13   7    0.18    0.15
 -11 -13  -7    0.73    0.29
 -11 -14   0   -0.01    0.14
 -11 -14   0   -0.16    0.15
 -11  14   0   -0.19    0.15
  11 -14   0   -0.03    0.12
  11  14   0    0.09    0.24
 -11  14   0   -0.05    0.39
 -11  14  -1   21.58    1.72
 -11 -14   1   22.92    1.59
  11 -14  -1   21.79    1.59
 -11  14  -1   21.80    1.60
 -11 -14  -1   22.30    1.60
 -11  14   1   22.87    1.61
 -11  14   1   18.43    1.74
  11 -14   1   21.69    1.58
  11  14  -1   23.67    1.68
 -11 -14  -1   21.85    1.60
 -11 -14   2   12.10    0.86
 -11  14  -2   11.62    1.07
  11  14   2    9.52    0.97
 -11  14  -2   11.07    0.87
  11 -14  -2   11.27    0.85
 -11  14   2   11.15    1.18
  11  14  -2   11.35    0.92
 -11 -14  -2   11.08    0.87
  11 -14   2   10.67    0.84
 -11 -14  -2   11.28    0.87
 -11  14   2   11.71    0.89
  11 -14  -3   19.55    1.37
  11  14   3   21.64    1.46
 -11 -14   3   17.51    1.37
 -11  14  -3   18.66    1.38
 -11  14  -3   15.59    1.55
  11  14  -3   19.47    1.41
  11 -14   3   19.46    1.35
 -11  14   3   17.89    1.40
 -11 -14  -3   18.15    1.38
 -11 -14  -3   17.91    1.38
 -11  14  -4    0.94    0.51
  11 -14  -4    0.67    0.18
  11  14   4    1.11    0.27
  11 -14   4    0.80    0.16
  11  14  -4    0.64    0.23
 -11 -14  -4    1.28    0.25
 -11  14   4    0.86    0.25
 -11  14  -5   10.96    1.09
  11 -14  -5   10.72    0.88
 -11 -14   5   11.86    0.89
  11  14   5   10.36    0.99
 -11 -14  -5   10.98    0.91
 -11  14   5   11.39    0.91
  11 -14   5   11.25    0.85
 -11 -14  -5   11.13    0.94
 -11 -14   6    1.95    0.28
 -11  14  -6    1.75    0.57
  11 -14  -6    1.36    0.25
 -11 -14  -6    2.00    0.32
  11 -14   6    2.21    0.29
 -11 -14  -6    2.00    0.42
 -11  14   6    1.54    0.27
  11  15   0    2.49    0.49
 -11  15   0    1.19    0.76
 -11 -15   0    2.93    0.34
  11 -15   0    2.12    0.27
 -11  15   0    2.63    0.36
 -11  15  -1    4.17    0.42
 -11 -15   1    4.50    0.42
 -11  15  -1    3.42    0.82
  11 -15  -1    3.83    0.37
 -11  15   1    4.39    0.44
 -11 -15  -1    4.62    0.40
  11 -15   1    3.50    0.36
 -11 -15  -1    4.27    0.43
  11  15  -1    3.85    0.51
  11 -15  -2   30.09    2.07
 -11  15  -2   25.70    2.35
  11  15   2   28.41    2.15
 -11  15  -2   27.66    2.08
 -11 -15   2   28.48    2.07
 -11  15   2   28.92    2.10
 -11 -15  -2   28.50    2.08
  11  15  -2   30.71    2.12
  11 -15   2   29.65    2.06
 -11 -15  -2   29.60    2.08
  11 -15  -3    0.82    0.18
 -11 -15   3    1.14    0.21
 -11  15  -3    2.46    0.80
  11  15   3    0.81    0.27
  11  15  -3    0.87    0.22
 -11 -15  -3    1.25    0.23
 -11  15   3    0.79    0.24
 -11 -15  -3    0.86    0.23
  11 -15   3    0.95    0.16
  11  15   4    4.34    0.88
  11 -15  -4    4.06    0.42
 -11 -15   4    4.47    0.45
 -11  15   4    3.09    0.51
  11 -15   4    3.89    0.39
  11  16   0   -0.03    0.23
 -11 -16   0   -0.02    0.17
 -11  16   0   -0.15    0.17
  11 -16   0    0.07    0.12
  11 -16  -1   15.29    1.11
 -11  16  -1   15.37    1.14
 -11 -16   1   14.41    1.12
 -11  16   1   14.84    1.15
  11 -16   1   14.79    1.10
  11  16  -1   15.80    1.18
 -11 -16  -1   15.17    1.13
  11 -16  -2    4.34    0.39
 -11 -16   2    4.42    0.43
  11  16   2    4.09    0.56
 -11  16   2    4.09    0.55
 -11 -16  -2    4.07    0.69
  11 -16   2    3.71    0.38
 -12   0   0    2.11    0.31
 -12   0  -1  150.05   10.63
 -12   0   1  151.72   10.63
  12   0  -1  151.45   10.64
 -12   0  -2    4.80    0.49
 -12   0   2    5.54    0.63
  12   0  -2    4.61    0.51
 -12   0   3   39.46    2.80
 -12   0  -3   41.26    2.83
  12   0  -3   35.89    2.78
 -12   0   4   49.38    3.31
  12   0  -4   40.30    3.29
 -12   0  -4   49.17    3.36
  12   0  -5   38.63    2.49
  12   0  -5   29.99    2.50
 -12   0   5   35.26    2.49
 -12   0   6   26.18    1.94
  12   0  -6   27.37    1.96
  12   0  -6   26.69    1.95
 -12   0  -7   66.38    4.56
  12   0  -7   57.52    4.36
 -12   0   7   60.41    4.35
  12   0  -8    0.62    0.22
 -12   0   8    0.44    0.22
 -12   0  -8   -0.41    0.57
  12   0  -9   24.04    1.63
 -12   0  -9   18.75    1.87
 -12   0   9   21.90    1.62
 -12   0   9   22.81    1.68
  12   0 -10    0.01    0.19
 -12   0  10   -0.24    0.27
 -12   0  10    0.17    0.22
 -12   0 -10   -0.61    0.45
 -12   0 -11    6.16    0.73
  12   0 -11    5.97    0.55
 -12   0  11    5.92    0.59
 -12   1   0  212.40   15.06
 -12  -1   0  216.03   15.05
 -12   1  -1    8.82    0.73
 -12  -1   1    8.93    0.71
 -12  -1  -1    9.20    0.72
  12   1  -1    9.04    0.73
 -12   1   1    9.15    0.73
  12  -1  -2   46.64    3.43
 -12   1  -2   49.01    3.42
 -12  -1   2   47.39    3.41
  12   1  -2   46.54    3.42
 -12  -1  -2   49.10    3.40
 -12   1   2   48.33    3.42
 -12   1  -3    2.68    0.41
 -12  -1   3    2.89    0.44
  12  -1  -3    3.69    0.39
 -12  -1  -3    2.42    0.40
  12   1  -3    2.87    0.48
  12   1  -3    3.08    0.39
  12  -1  -4   63.83    4.40
 -12  -1   4   61.27    4.39
 -12  -1  -4   65.95    4.44
  12   1  -4   56.50    4.39
 -12   1   4   61.57    4.40
 -12  -1   5    1.79    0.36
  12  -1  -5    1.44    0.33
  12  -1  -5    1.27    0.28
  12   1  -5    1.72    0.28
  12   1  -5    1.56    0.26
  12  -1  -6   13.01    1.00
  12  -1  -6   11.93    1.03
 -12   1   6   12.23    1.00
  12   1  -6   14.04    1.02
  12   1  -6   13.52    1.03
  12  -1  -7   13.92    1.05
 -12  -1   7   13.01    1.02
  12   1  -7   13.14    1.03
 -12   1   7   12.45    1.01
  12  -1  -8   44.31    2.96
 -12  -1   8   41.75    2.94
 -12   1  -8   41.95    3.10
 -12  -1  -8   35.12    3.05
 -12   1   8   42.39    3.00
  12   1  -8   43.45    2.96
 -12   1   8   38.44    2.94
 -12   1  -9    1.08    0.68
 -12  -1   9    0.97    0.33
 -12  -1   9    1.31    0.26
  12  -1  -9    1.34    0.26
 -12   1   9    0.94    0.33
 -12   1   9    1.60    0.27
 -12  -1  -9    1.53    0.70
  12   1  -9    1.42    0.26
  12  -1 -10    1.66    0.36
 -12  -1  10    2.36    0.41
 -12   1 -10    1.73    0.50
 -12  -1 -10    1.37    0.47
 -12   1  10    2.41    0.39
 -12  -1  11    0.71    0.25
 -12   1 -11    0.43    0.41
  12  -1 -11    0.36    0.20
  12   1 -11    0.74    0.20
 -12  -1 -11    0.30    0.41
 -12   1  11    0.95    0.26
 -12  -2   0    2.83    0.34
 -12  -2   1   62.33    4.49
 -12   2  -1   63.90    4.56
 -12  -2  -1   64.23    4.49
  12   2  -1   64.57    4.50
 -12   2   1   62.49    4.51
  12  -2  -2   14.00    1.09
  12  -2  -2   11.81    1.08
 -12  -2   2   13.14    1.03
 -12   2  -2   13.69    1.07
  12   2  -2   13.41    1.05
 -12   2   2   14.71    1.06
 -12  -2  -2   14.81    1.05
 -12   2  -3   54.33    3.62
  12  -2  -3   45.17    3.56
  12  -2  -3   51.70    3.55
 -12  -2   3   48.97    3.59
  12   2  -3   44.30    3.56
  12   2  -3   50.57    3.60
 -12  -2  -3   55.30    3.58
 -12  -2   4    4.95    0.55
  12  -2  -4    4.71    0.46
  12   2  -4    4.07    0.59
 -12  -2   5   21.82    1.73
  12  -2  -5   25.50    1.72
  12  -2  -5   22.27    1.75
  12   2  -5   24.64    1.75
 -12   2   5   23.40    1.74
  12   2  -5   24.48    1.75
  12  -2  -6    5.08    0.50
  12  -2  -6    5.16    0.56
  12   2  -6    5.27    0.53
  12   2  -6    3.84    0.58
 -12   2   6    5.63    0.51
 -12   2  -7   44.92    3.22
  12  -2  -7   40.44    2.97
 -12  -2   7   42.35    2.94
 -12  -2  -7   37.77    3.10
 -12   2   7   41.84    2.94
  12   2  -7   39.47    2.95
  12  -2  -8    2.94    0.46
 -12  -2   8    3.25    0.46
 -12   2  -8    3.39    0.70
 -12  -2  -8    2.24    0.58
 -12   2   8    3.26    0.66
 -12   2   8    2.95    0.46
  12   2  -8    3.61    0.50
  12  -2  -9   14.37    1.17
 -12  -2   9   16.31    1.15
 -12  -2   9   12.47    1.13
  12   2  -9   12.79    1.17
 -12   2   9   14.03    1.10
 -12   2 -10    0.13    0.44
  12  -2 -10    0.01    0.19
 -12  -2  10   -0.36    0.29
 -12   2  10   -0.16    0.21
 -12  -2 -10   -0.53    0.39
 -12  -2  11   16.14    1.16
  12  -2 -11   14.72    1.14
 -12   2 -11   15.03    1.25
 -12   2  11   15.29    1.16
 -12  -2 -11   14.94    1.24
  12   2 -11   15.17    1.14
 -12   3   0  184.30   13.44
 -12  -3   0  197.53   13.42
  12  -3  -1    0.79    0.40
 -12  -3   1    0.49    0.24
  12  -3  -1    1.57    0.61
 -12   3  -1    0.35    0.27
 -12   3   1    0.40    0.25
 -12   3  -2    0.60    0.34
 -12  -3   2    0.55    0.31
  12  -3  -2    0.25    0.18
  12   3  -2    0.80    0.29
  12   3  -2    0.37    0.19
  12  -3  -3    1.32    0.19
 -12  -3   3    1.49    0.41
  12  -3  -3    0.92    0.19
 -12   3   3    1.41    0.29
  12   3  -3    0.88    0.20
  12   3  -3    0.96    0.44
  12  -3  -4   47.72    3.15
  12  -3  -4   43.52    3.14
  12   3  -4   41.06    3.15
  12  -3  -5    9.68    0.81
 -12  -3   5    9.03    0.80
  12  -3  -5    9.79    0.75
 -12   3   5   10.15    0.83
  12   3  -5    9.68    0.81
  12  -3  -6    2.78    0.46
  12  -3  -6    3.34    0.37
 -12   3  -6    2.25    1.30
 -12   3   6    2.74    0.45
  12   3  -6    2.09    0.43
  12   3  -6    4.04    0.57
 -12  -3   7    1.00    0.23
  12  -3  -7    0.30    0.25
 -12   3  -7    1.68    0.75
 -12   3   7    0.71    0.24
 -12  -3  -7    1.03    0.62
  12   3  -7    0.77    0.22
 -12  -3   8   85.75    5.90
 -12   3  -8   83.20    6.02
  12  -3  -8   90.25    5.92
 -12   3   8   84.13    5.90
  12   3  -8   83.09    5.90
 -12  -3  -8   73.74    5.95
 -12  -3   9    0.22    0.44
 -12   3  -9    0.87    0.55
  12  -3  -9    0.75    0.29
 -12  -3   9    0.75    0.39
  12   3  -9    0.19    0.28
 -12   3   9    1.39    0.41
 -12  -3  -9    1.01    0.43
 -12  -3  10    0.81    0.31
 -12   3 -10    1.40    0.46
  12  -3 -10    0.16    0.19
 -12  -3 -10    0.48    0.39
  12  -3 -11    2.98    0.43
 -12  -3  11    4.53    0.48
 -12   3 -11    4.10    0.63
  12   3 -11    4.18    0.45
 -12  -3 -11    4.00    0.62
 -12   3  11    4.70    0.68
  12  -4   0    9.30    0.81
  12   4   0    9.87    0.87
  12  -4  -1   40.17    2.89
  12  -4  -2   36.72    2.70
  12   4   2   37.62    2.79
  12  -4  -2   38.27    2.68
  12   4  -2   38.04    2.72
  12  -4  -3   84.28    5.73
 -12  -4   3   75.43    5.73
  12  -4  -3   78.69    5.73
  12   4   3   91.18    5.80
  12   4  -3   72.10    5.78
 -12   4   3   84.78    5.74
 -12  -4   4    1.13    0.25
  12  -4  -4    0.29    0.18
 -12   4   4    0.65    0.25
  12   4  -4    0.60    0.21
  12  -4   4    0.41    0.23
 -12   4  -5   40.75    3.07
  12  -4  -5   43.98    2.95
 -12  -4   5   38.33    2.97
  12   4  -5   42.10    2.98
  12  -4   5   41.54    2.94
  12  -4  -6    0.57    0.24
 -12  -4   6    0.17    0.23
  12  -4  -6    0.46    0.15
 -12   4  -6    1.19    0.65
  12   4  -6    0.56    0.29
  12  -4   6    0.78    0.18
 -12   4   6    0.51    0.25
  12  -4  -7   18.14    1.55
 -12   4  -7   24.17    1.92
  12  -4  -7   20.46    1.61
 -12  -4   7   23.94    1.58
 -12  -4  -7   21.99    1.81
  12  -4   7   17.91    1.54
 -12   4   7   24.13    1.60
  12   4  -7   21.11    1.57
 -12   4  -8   12.35    1.38
  12  -4  -8   14.05    1.08
 -12  -4   8   15.25    1.07
  12   4  -8   13.74    1.05
 -12  -4  -8   11.12    1.21
 -12   4   8   13.51    1.06
 -12  -4   9   12.10    0.98
  12  -4  -9   14.07    0.99
 -12   4  -9   11.91    1.18
  12   4  -9   12.89    0.97
 -12   4   9   12.73    0.98
 -12  -4  -9   10.33    1.07
 -12  -4  10    1.32    0.36
 -12   4 -10    2.07    0.45
  12  -4 -10    1.83    0.34
 -12  -4 -10    1.28    0.39
 -12   4  10    1.38    0.26
  12   4 -10    1.27    0.25
 -12   4 -11   17.40    1.30
  12  -4 -11   14.57    1.21
 -12  -4  11   12.79    1.61
 -12  -4 -11   18.36    1.29
  12   4 -11   17.26    1.22
 -12   4  11   16.36    1.24
  12  -5   0  162.38   12.53
  12  -5   0  193.96   12.51
  12   5   0  177.78   12.57
  12  -5  -1    0.60    0.22
  12   5   1    0.63    0.32
  12  -5  -1    0.80    0.15
  12  -5   1    1.25    0.24
  12   5  -1    0.53    0.38
  12  -5   1    0.99    0.19
  12  -5  -2    1.97    0.32
  12   5   2    2.26    0.43
 -12   5   2    2.69    0.37
  12   5  -2    1.82    0.35
  12  -5   2    1.93    0.33
  12  -5   2    2.46    0.29
 -12  -5   3    3.65    0.52
  12  -5  -3    2.83    0.35
  12  -5  -3    3.46    0.33
 -12   5  -3    3.84    0.50
  12  -5   3    3.33    0.52
 -12   5   3    3.57    0.44
  12   5  -3    2.47    0.39
  12  -5  -4   55.42    3.71
 -12   5  -4   56.49    3.74
  12  -5  -4   56.98    3.72
 -12  -5   4   47.65    3.71
 -12   5  -4   51.43    3.76
  12  -5   4   48.50    3.70
 -12   5   4   49.58    3.73
  12   5  -4   51.87    3.73
 -12   5  -5    8.89    0.98
 -12  -5   5    9.71    0.80
  12  -5  -5    9.52    0.70
  12  -5  -5    9.86    0.77
  12  -5   5    8.63    0.74
 -12   5   5    7.63    0.80
  12   5  -5    8.96    0.82
 -12   5  -6    5.13    0.96
  12  -5  -6    5.95    0.46
  12  -5  -6    3.96    0.58
 -12   5   6    4.75    0.60
  12  -5   6    5.04    0.47
  12   5  -6    5.84    0.65
 -12   5  -7    0.73    0.64
 -12  -5   7    0.53    0.25
  12  -5  -7    0.41    0.17
  12  -5  -7    0.19    0.26
 -12   5   7    0.81    0.27
 -12  -5  -7    0.51    0.55
  12  -5   7    0.51    0.17
  12   5  -7    0.43    0.22
 -12   5  -8   48.00    3.91
 -12  -5   8   56.97    3.80
  12  -5  -8   55.95    3.82
 -12   5   8   55.48    3.80
 -12  -5  -8   49.87    3.85
  12   5  -8   52.49    3.79
  12  -5  -9    0.19    0.20
 -12   5  -9    0.51    0.48
 -12   5   9    0.27    0.21
 -12  -5  -9    0.24    0.38
  12   5  -9   -0.07    0.20
  12  -5 -10    0.40    0.17
  12   5 -10    0.02    0.19
 -12  -5 -10    0.79    0.36
 -12   5  10    0.45    0.22
  12  -6   0    1.41    0.28
 -12   6   0    0.84    0.20
  12   6   0    1.19    0.28
  12  -6  -1   68.30    4.46
 -12   6  -1   65.95    4.47
  12  -6  -1   53.48    4.48
  12   6  -1   66.77    4.53
 -12   6   1   61.44    4.49
 -12  -6   2    0.28    0.22
 -12   6  -2    0.47    0.22
  12  -6  -2    0.20    0.12
  12  -6  -2   -0.06    0.15
 -12   6  -2    0.41    0.26
 -12  -6   2    0.17    0.25
  12   6   2   -0.37    0.32
  12  -6   2   -0.03    0.14
  12  -6   2    0.14    0.13
 -12   6   2    0.40    0.17
  12   6  -2    0.17    0.20
  12  -6  -3   57.15    4.06
  12  -6  -3   57.25    4.05
 -12   6  -3   56.89    4.06
 -12   6  -3   55.96    4.07
  12   6   3   63.59    4.15
 -12  -6   3   54.94    4.05
 -12   6   3   56.73    4.06
  12  -6   3   59.53    4.04
  12   6  -3   52.80    4.08
 -12  -6   4   15.47    1.17
 -12   6  -4   16.60    1.24
  12  -6  -4   14.73    1.21
 -12   6  -4   17.01    1.19
  12   6   4   15.40    1.30
  12  -6  -4   15.69    1.15
  12  -6   4   14.38    1.13
  12   6  -4   13.56    1.18
  12  -6  -5   22.22    1.58
  12  -6  -5   22.99    1.53
 -12   6  -5   22.44    1.60
 -12   6  -5   18.90    1.65
 -12  -6   5   17.95    1.58
  12   6  -5   22.81    1.59
  12  -6   5   20.36    1.54
  12  -6  -6    5.07    0.55
 -12  -6   6    3.94    0.58
  12  -6  -6    4.87    0.41
 -12   6  -6    4.83    0.89
 -12  -6  -6    4.91    0.78
 -12   6   6    4.53    0.59
  12  -6   6    4.42    0.44
  12   6  -6    4.58    0.63
 -12   6  -7   28.49    2.49
 -12  -6   7   33.09    2.32
 -12   6   7   32.23    2.33
 -12  -6  -7   33.26    2.44
 -12   6  -8    1.35    0.63
  12  -6  -8    1.13    0.29
 -12  -6   8    1.24    0.27
  12  -6   8    0.78    0.20
  12   6  -8    0.97    0.24
 -12   6   8    1.07    0.28
  12  -6  -9   13.22    0.96
 -12   6  -9   10.50    1.12
 -12  -6   9   11.91    0.95
 -12   6   9   12.13    0.94
  12   6  -9   13.26    0.95
 -12  -6  -9   10.98    1.04
 -12  -6  10   -0.29    0.20
 -12   6 -10    0.48    0.39
  12  -6 -10   -0.07    0.16
  12   6 -10   -0.11    0.19
 -12  -6 -10   -0.41    0.31
 -12   6  10    0.11    0.22
  12   7   0  106.59    7.52
 -12   7   0  101.30    7.45
  12  -7   0  111.89    7.45
  12  -7   0  103.13    7.46
  12  -7  -1   20.45    1.34
 -12   7  -1   18.49    1.36
 -12   7  -1   20.03    1.36
 -12  -7   1   17.96    1.42
  12  -7  -1   15.74    1.36
 -12  -7   1   14.83    1.50
  12  -7   1   20.16    1.33
  12  -7   1   17.12    1.34
  12   7  -1   19.79    1.42
 -12   7   1   18.46    1.35
 -12  -7   2    8.41    0.69
 -12   7  -2    9.28    0.69
  12  -7  -2    7.96    0.64
  12   7   2    6.95    0.85
 -12  -7   2    9.21    0.69
 -12   7  -2    9.27    0.70
  12  -7  -2    6.74    0.67
  12   7  -2    7.83    0.72
 -12   7   2    8.72    0.68
  12  -7   2    8.17    0.64
  12  -7  -3    0.21    0.16
  12  -7  -3    0.37    0.14
 -12   7  -3    0.56    0.27
  12   7   3    0.00    0.31
 -12  -7   3    0.30    0.20
 -12   7  -3    0.37    0.20
  12  -7   3    0.22    0.14
 -12  -7   4   84.50    6.18
  12  -7  -4   89.02    6.18
 -12   7  -4   90.02    6.21
  12  -7  -4   92.17    6.19
 -12   7  -4   90.73    6.19
  12   7  -4   81.12    6.21
 -12   7   4   85.51    6.20
  12  -7   4   86.95    6.17
  12  -7  -5   -0.05    0.11
 -12   7  -5    0.56    0.25
  12  -7  -5    0.22    0.21
 -12  -7   5    0.41    0.24
 -12   7  -5    0.36    0.35
 -12   7   5    0.12    0.27
  12   7  -5   -0.08    0.23
  12  -7   5    0.43    0.18
 -12  -7  -5    0.21    0.62
  12  -7  -6    8.42    0.79
  12  -7  -6   10.25    0.68
 -12   7  -6    7.06    1.02
 -12  -7   6    7.65    0.81
  12  -7   6    8.52    0.70
 -12   7   6    9.21    0.83
  12   7  -6    9.32    0.89
 -12   7  -7    5.50    1.01
 -12  -7   7    7.55    0.66
  12  -7  -7    5.43    0.67
  12  -7   7    5.83    0.54
 -12   7   7    7.97    0.68
 -12   7  -8   27.67    2.48
  12  -7  -8   33.98    2.38
 -12  -7   8   33.45    2.36
  12  -7   8   31.60    2.32
 -12   7   8   34.56    2.37
  12   7  -8   33.36    2.35
 -12  -7  -8   33.36    2.43
 -12  -7   9    3.18    0.45
  12  -7  -9    3.72    0.43
 -12   7  -9    4.15    0.70
  12   7  -9    3.57    0.43
 -12  -7  -9    3.70    0.59
 -12   7   9    3.33    0.44
 -12  -7  10    2.17    0.36
 -12  -7 -10    2.35    0.46
 -12  -8   0    2.46    0.44
 -12   8   0    2.93    0.39
 -12   8   0    3.11    0.35
 -12   8  -1   55.63    3.96
 -12  -8   1   54.98    3.95
 -12   8  -1   58.70    3.95
 -12  -8   1   56.48    3.95
  12  -8   1   54.03    3.94
 -12   8   1   53.92    3.96
  12   8  -1   54.61    4.06
  12  -8   1   56.94    3.95
  12   8   2    0.45    0.32
 -12   8  -2   -0.05    0.37
  12  -8  -2    0.22    0.13
 -12  -8   2    0.03    0.18
  12  -8  -2   -0.07    0.14
 -12  -8   2    0.26    0.20
  12  -8   2   -0.10    0.12
 -12   8   2    0.10    0.16
  12   8  -2   -0.14    0.19
 -12  -8   3   29.59    2.18
  12   8   3   31.84    2.28
  12  -8  -3   29.68    2.18
 -12   8  -3   30.35    2.21
 -12   8  -3   30.77    2.19
  12  -8  -3   30.96    2.19
  12  -8   3   31.23    2.17
  12   8  -3   28.21    2.21
 -12   8   3   30.07    2.19
  12   8   4   17.58    1.30
 -12   8  -4   16.30    1.26
 -12  -8   4   15.86    1.19
  12  -8  -4   15.89    1.19
 -12   8  -4   16.44    1.20
  12  -8  -4   16.05    1.17
 -12   8   4   15.45    1.23
 -12  -8  -4   14.25    1.35
  12   8  -4   14.71    1.22
  12  -8   4   15.44    1.16
  12  -8  -5    3.90    0.49
  12  -8  -5    4.56    0.38
 -12   8  -5    4.32    0.70
 -12   8  -5    4.14    0.51
  12   8  -5    4.70    0.54
 -12   8   5    2.96    0.58
  12  -8   5    4.60    0.44
 -12   8  -6    4.66    0.86
 -12  -8   6    4.29    0.60
  12  -8  -6    4.63    0.57
 -12   8   6    5.23    0.62
  12  -8   6    5.09    0.46
 -12  -8  -6    3.87    0.65
 -12   8  -7   36.54    2.89
 -12  -8   7   39.21    2.75
 -12   8   7   37.77    2.76
 -12  -8  -7   38.39    2.95
  12  -8  -8    0.56    0.23
 -12   8  -8    0.17    0.49
 -12  -8   8    0.22    0.23
 -12   8   8    0.87    0.23
 -12  -8  -8    0.41    0.40
  12   8  -8    0.41    0.20
  12  -8   8    0.15    0.16
 -12  -8   9   15.39    1.13
  12  -8  -9   16.08    1.13
 -12   8  -9   13.84    1.25
 -12  -8  -9   13.69    1.19
  12   8  -9   15.33    1.13
 -12   8   9   15.59    1.14
 -12   9   0   84.61    5.88
  12  -9   0   88.51    5.87
 -12   9   0   80.30    5.89
 -12  -9   0   76.38    5.89
  12  -9   0   86.16    5.88
  12   9   0   83.23    5.95
  12  -9  -1    8.07    0.71
 -12   9  -1    9.49    0.75
  12  -9  -1    8.84    0.70
 -12  -9   1    9.12    0.72
 -12   9  -1    9.24    0.72
 -12  -9   1    9.62    0.73
  12  -9   1    8.87    0.69
 -12  -9  -1    8.06    0.83
  12   9  -1    9.43    0.81
 -12   9   1    9.14    0.72
 -12   9   1    9.22    0.77
 -12   9  -2    2.89    0.35
 -12  -9   2    2.49    0.35
 -12  -9   2    2.55    0.34
  12  -9  -2    1.98    0.29
 -12   9   2    2.58    0.33
 -12  -9  -2    2.22    0.46
 -12  -9  -2    2.65    0.44
  12  -9   2    1.78    0.27
  12  -9  -3    1.54    0.27
  12   9   3    1.56    0.33
 -12  -9   3    0.96    0.22
 -12   9  -3    1.17    0.29
 -12   9  -3    1.35    0.23
 -12  -9  -3    0.89    0.32
  12   9  -3    1.77    0.37
 -12   9   3    1.14    0.24
  12  -9  -4   65.29    4.47
 -12   9  -4   64.26    4.50
 -12  -9   4   61.66    4.45
  12   9   4   66.05    4.52
 -12   9  -4   63.51    4.46
 -12   9   4   63.45    4.49
 -12  -9  -4   60.69    4.50
  12   9  -4   59.89    4.49
  12  -9   4   60.52    4.44
  12  -9  -5    0.38    0.21
 -12   9  -5    0.30    0.23
 -12  -9   5    0.27    0.23
  12   9   5    0.34    0.34
 -12   9  -5    0.34    0.40
 -12   9   5    0.29    0.27
  12   9  -5    0.30    0.24
  12  -9   5    0.34    0.17
 -12  -9  -5    0.82    0.42
  12  -9  -6    3.80    0.54
 -12   9  -6    4.17    0.86
 -12  -9   6    3.47    0.57
 -12   9   6    4.09    0.59
  12  -9   6    4.09    0.44
 -12   9   6    5.08    0.57
 -12  -9   7    4.25    0.53
 -12   9  -7    3.06    0.61
  12  -9  -7    3.22    0.51
 -12  -9  -7    4.51    0.73
 -12   9   7    4.62    0.54
  12  -9   7    3.60    0.40
  12  -9  -8   29.67    2.11
 -12   9  -8   25.72    2.20
 -12  -9   8   29.41    2.10
  12   9  -8   29.58    2.09
 -12  -9  -8   29.04    2.15
 -12   9   8   30.16    2.10
 -12  -9   9    3.11    0.40
 -12   9  -9    2.90    0.60
  12  -9  -9    2.55    0.37
 -12  -9  -9    3.38    0.48
  12   9  -9    2.15    0.38
 -12 -10   0    2.01    0.35
  12 -10   0    1.68    0.26
 -12  10   0    1.95    0.31
 -12  10   0    1.92    0.39
 -12 -10   0    2.08    0.35
  12  10   0    2.39    0.48
 -12 -10   1   34.41    2.54
 -12 -10   1   34.07    2.53
  12 -10  -1   37.70    2.53
 -12  10  -1   36.17    2.54
 -12  10  -1   34.72    2.56
 -12  10   1   35.26    2.54
 -12  10   1   35.75    2.57
 -12 -10  -1   33.53    2.54
  12  10  -1   37.76    2.61
  12 -10   1   37.00    2.53
 -12 -10  -1   33.30    2.53
  12  10   2    4.56    0.69
 -12 -10   2    5.52    0.50
 -12 -10   2    5.51    0.51
 -12  10  -2    5.74    0.52
 -12  10  -2    5.31    0.58
  12 -10  -2    5.65    0.49
  12  10  -2    6.00    0.59
 -12  10   2    5.44    0.52
 -12  10   2    5.52    0.63
 -12 -10  -2    5.39    0.57
 -12 -10  -2    5.52    0.55
  12 -10   2    6.09    0.47
 -12  10  -3   40.94    2.81
 -12 -10   3   41.19    2.80
 -12  10  -3   41.68    2.84
  12 -10  -3   39.66    2.80
  12  10   3   38.50    2.89
 -12 -10  -3   40.35    2.83
 -12 -10  -3   38.64    2.82
  12  10  -3   34.57    2.84
 -12  10   3   35.08    2.86
  12 -10   3   38.49    2.79
 -12  10   3   41.65    2.82
 -12  10  -4    2.48    0.53
 -12 -10   4    2.10    0.38
  12 -10  -4    1.85    0.32
 -12  10  -4    2.44    0.38
  12  10   4    1.61    0.34
 -12  10   4    2.70    0.57
 -12 -10  -4    1.92    0.37
 -12  10   4    2.18    0.45
  12 -10   4    1.37    0.28
  12  10  -4    1.81    0.39
 -12  10  -5   26.50    1.87
  12 -10  -5   27.12    1.87
 -12  10  -5   25.35    1.96
 -12 -10   5   23.95    1.86
  12  10   5   26.61    1.92
 -12  10   5   26.23    1.90
 -12 -10  -5   24.14    1.93
  12 -10   5   25.63    1.84
  12  10  -5   26.16    1.88
 -12  10   5   21.39    1.89
 -12  10  -6    0.97    0.64
  12 -10  -6    0.15    0.29
 -12 -10   6    0.16    0.34
 -12 -10  -6    0.33    0.39
 -12  10   6    0.18    0.30
  12 -10   6    0.43    0.18
 -12  10  -7   18.68    1.54
 -12 -10   7   18.80    1.37
 -12 -10  -7   18.68    1.45
 -12  10   7   19.01    1.38
  12 -10   7   15.62    1.32
 -12 -10   8    5.81    0.53
 -12  10  -8    5.64    0.75
  12 -10  -8    4.74    0.52
 -12 -10  -8    6.24    0.64
 -12  10   8    5.19    0.53
  12  10  -8    4.96    0.51
 -12  11   0  126.43    8.37
  12  11   0  113.72    8.41
  12 -11   0  119.73    8.33
 -12  11   0  115.93    8.34
 -12 -11   0  114.78    8.33
 -12 -11   0  119.10    8.34
 -12  11  -1    1.02    0.26
 -12 -11   1    1.10    0.19
 -12 -11   1    1.05    0.20
  12  11   1    1.18    0.33
 -12  11  -1    1.05    0.20
 -12 -11  -1    0.88    0.21
 -12  11   1    1.40    0.29
 -12 -11  -1    0.60    0.21
 -12  11   1    0.66    0.28
 -12 -11   2    3.28    0.39
 -12  11  -2    4.02    0.49
  12 -11  -2    2.66    0.33
 -12  11  -2    3.01    0.39
 -12 -11  -2    3.68    0.43
 -12  11   2    4.11    0.58
 -12 -11  -2    3.27    0.42
 -12  11   2    3.40    0.39
  12 -11   2    2.37    0.31
 -12  11  -3    3.43    0.50
  12 -11  -3    3.21    0.35
  12  11   3    2.42    0.54
 -12  11  -3    3.24    0.40
 -12  11   3    3.48    0.41
 -12 -11  -3    2.24    0.47
  12  11  -3    2.59    0.44
  12 -11   3    2.91    0.32
 -12 -11  -3    3.35    0.46
 -12  11   3    2.34    0.44
 -12  11  -4   37.06    2.58
  12 -11  -4   38.54    2.58
 -12 -11   4   34.36    2.57
  12  11   4   39.09    2.63
 -12  11  -4   33.62    2.63
  12 -11   4   37.48    2.56
 -12 -11  -4   34.49    2.59
 -12 -11  -4   34.50    2.60
 -12  11   4   34.03    2.60
 -12  11   4   32.80    2.63
  12  11  -4   37.20    2.60
  12  11   5   15.06    1.26
 -12 -11   5   15.46    1.27
  12 -11  -5   16.55    1.38
 -12  11  -5   13.75    1.67
 -12  11   5   17.97    1.28
 -12 -11  -5   16.26    1.27
  12 -11   5   15.10    1.18
  12  11  -5   14.52    1.22
 -12 -11   6    2.99    0.49
  12 -11   6    2.17    0.36
 -12  11   6    2.94    0.62
 -12  11   6    2.91    0.47
  12 -11  -7    0.17    0.19
 -12 -11   7    0.00    0.23
 -12  11  -7    0.01    0.46
  12 -11   7    0.09    0.15
 -12  11   7    0.32    0.21
 -12 -11  -7    0.47    0.31
 -12 -11   8   29.74    1.98
 -12  11  -8   25.57    2.04
  12 -11  -8   27.21    1.98
 -12 -11  -8   28.15    2.00
 -12  11   8   26.75    1.98
  12  11  -8   26.79    1.97
  12 -12   0    3.51    0.34
  12  12   0    3.19    0.55
 -12 -12   0    3.27    0.38
 -12  12   0    3.42    0.38
 -12 -12   0    3.29    0.39
 -12  12   0    3.75    0.52
 -12 -12   1    8.68    0.74
  12 -12  -1    9.89    0.73
 -12 -12   1    9.45    0.75
 -12  12  -1    9.34    0.82
 -12  12  -1    9.28    0.75
 -12 -12  -1    8.90    0.75
 -12 -12  -1    9.02    0.74
 -12  12   1    9.36    0.75
  12  12  -1   10.74    0.86
 -12  12   1    9.20    0.85
  12 -12   1    9.41    0.72
  12  12   2    2.26    0.41
  12 -12  -2    3.05    0.32
 -12  12  -2    1.96    0.35
 -12  12  -2    2.15    0.46
 -12 -12   2    2.87    0.37
  12 -12   2    2.81    0.30
 -12  12   2    2.28    0.43
  12  12  -2    3.38    0.45
 -12  12   2    3.00    0.38
 -12 -12  -2    2.21    0.38
 -12 -12  -2    2.43    0.39
  12 -12  -3   29.46    2.08
  12  12   3   28.48    2.17
 -12  12  -3   29.63    2.15
 -12  12  -3   31.13    2.09
 -12 -12   3   29.86    2.09
  12  12  -3   26.69    2.13
 -12 -12  -3   29.93    2.10
 -12  12   3   24.52    2.17
 -12  12   3   29.32    2.10
  12 -12   3   28.04    2.06
 -12  12  -4    0.43    0.37
 -12  12  -4    0.31    0.20
 -12 -12   4    0.28    0.21
  12 -12  -4    0.45    0.17
  12  12   4    0.40    0.28
 -12  12   4    0.64    0.39
 -12 -12  -4    0.50    0.25
  12 -12   4    0.36    0.15
 -12 -12  -4    0.60    0.27
  12  12  -4    0.41    0.22
 -12  12   4    0.20    0.24
 -12  12  -5   17.59    1.57
  12 -12  -5   21.08    1.45
  12  12   5   20.42    1.49
 -12 -12   5   19.04    1.44
 -12 -12  -5   18.84    1.47
 -12 -12  -5   18.59    1.48
 -12  12   5   19.67    1.51
 -12  12   5   16.15    1.46
  12 -12   5   20.21    1.41
  12  12  -5   20.19    1.46
  12 -12  -6    0.09    0.21
 -12 -12   6   -0.09    0.25
 -12  12  -6   -0.19    0.42
 -12 -12  -6    0.15    0.29
 -12 -12  -6    0.11    0.33
 -12  12   6   -0.09    0.23
  12 -12   6    0.42    0.16
  12 -12  -7   13.45    1.10
 -12 -12   7   15.32    1.11
 -12  12  -7   13.68    1.23
 -12  12   7   15.19    1.11
 -12 -12  -7   14.57    1.15
 -12 -13   0   57.65    4.09
 -12 -13   1    0.47    0.18
 -12  13  -1    0.57    0.31
 -12 -13   1    0.68    0.21
  12  13   1    0.35    0.53
 -12 -13  -1    0.68    0.19
  12  13  -1    0.88    0.37
  12 -13   1    0.45    0.17
 -12 -13  -1    0.68    0.20
 -12  13   1    0.62    0.42
 -12  13  -2    3.53    0.39
 -12  13  -2    4.24    0.60
  12 -13  -2    3.35    0.35
  12  13  -2    2.69    0.47
 -12 -13  -2    3.40    0.40
 -12  13   2    3.39    0.42
 -12 -13  -2    3.16    0.40
 -12  13   2    3.05    0.69
  12 -13   2    3.03    0.33
  12 -13  -3    1.41    0.29
 -12 -13   3    1.89    0.34
 -12  13  -3    1.45    0.39
 -12  13  -3    1.60    0.34
  12  13   3    1.80    0.34
  12 -13   3    1.31    0.26
 -12  13   3    1.81    0.38
  12  13  -3    1.24    0.26
 -12 -13  -3    1.81    0.26
 -12  13   3    1.80    0.43
 -12 -13  -3    1.59    0.36
 -12 -13   4   27.46    1.99
 -12  13  -4   27.48    2.00
 -12  13  -4   25.05    2.09
  12  13   4   30.89    2.05
  12 -13  -4   31.09    2.00
 -12  13   4   24.75    2.02
  12 -13   4   27.83    1.97
 -12 -13  -4   26.70    2.00
 -12  13   4   25.17    2.07
  12  13  -4   28.11    2.01
 -12 -13  -4   27.08    2.01
 -12  13  -5    3.83    0.59
 -12 -13   5    4.28    0.50
  12  13   5    3.74    0.59
  12 -13  -5    3.76    0.46
  12 -13   5    4.83    0.44
 -12 -13  -5    4.14    0.54
 -12  13   5    3.43    0.53
 -12 -13  -5    3.64    0.60
  12  13  -5    4.56    0.59
 -12 -13   6    2.52    0.42
  12 -13   6    1.49    0.31
 -12 -13  -6    0.92    0.42
 -12 -13  -6    2.07    0.47
 -12 -14   0    0.34    0.14
 -12  14   0    0.48    0.16
 -12 -14   0    0.39    0.17
 -12  14   0    0.64    0.40
  12  14   0    0.34    0.28
  12 -14   0    0.31    0.13
 -12  14  -1   26.49    2.03
 -12  14  -1   26.43    1.93
  12 -14  -1   27.03    1.91
 -12 -14   1   27.33    1.92
  12 -14   1   26.71    1.91
 -12 -14  -1   27.04    1.92
 -12  14   1   22.10    2.05
 -12 -14  -1   26.78    1.92
  12  14  -1   28.70    2.00
 -12  14   1   27.14    1.94
 -12 -14   2    0.36    0.18
  12  14   2    0.30    0.28
 -12  14  -2    0.18    0.16
 -12  14  -2    0.00    0.38
  12 -14  -2    0.03    0.13
 -12  14   2    0.29    0.18
 -12 -14  -2   -0.08    0.19
 -12  14   2    0.61    0.50
  12 -14   2    0.19    0.13
 -12 -14  -2    0.00    0.17
  12  14  -2    0.19    0.21
  12  14   3   16.49    1.29
 -12  14  -3   14.68    1.39
  12 -14  -3   16.84    1.21
 -12 -14   3   16.93    1.21
 -12  14  -3   16.69    1.22
 -12 -14  -3   17.55    1.23
  12  14  -3   15.54    1.24
 -12 -14  -3   16.66    1.23
 -12  14   3   15.19    1.24
  12 -14   3   15.62    1.19
  12  14   4    5.07    0.60
 -12 -14   4    5.26    0.52
 -12  14  -4    3.74    0.84
  12 -14  -4    5.64    0.49
  12 -14   4    4.99    0.47
  12  14  -4    4.96    0.55
 -12 -14  -4    5.80    0.57
 -12 -14  -4    5.72    0.55
 -12  14   4    4.19    0.55
 -12 -14   5    7.21    0.63
  12 -14  -5    6.92    0.59
 -12  14  -5    5.77    0.91
 -12 -14  -5    6.27    0.65
  12 -14   5    6.92    0.57
 -12 -14  -5    6.10    0.71
 -12  14   5    6.90    0.64
 -12  15   0   29.44    2.14
  12 -15   0   29.60    2.11
  12  15   0   30.58    2.20
 -12 -15   0   28.83    2.12
 -12  15  -1    4.60    0.84
 -12  15  -1    5.55    0.51
  12  15   1    5.31    0.64
 -12 -15   1    5.85    0.51
  12 -15  -1    5.39    0.46
 -12  15   1    5.76    0.51
  12  15  -1    5.89    0.58
  12 -15   1    5.44    0.46
 -12 -15  -1    4.85    0.52
 -12 -15  -1    5.82    0.49
  12 -15  -2    3.61    0.37
  12  15   2    2.82    0.53
 -12 -15   2    4.27    0.42
 -12  15  -2    5.02    1.09
 -12  15  -2    3.86    0.42
 -12 -15  -2    3.75    0.46
 -12 -15  -2    4.46    0.42
  12 -15   2    3.48    0.36
 -12  15   2    3.37    0.45
 -12  15  -3    1.01    1.01
  12  15   3    1.19    0.27
 -12 -15   3    1.10    0.22
  12 -15  -3    1.58    0.28
 -12 -15  -3    0.93    0.29
 -12 -15  -3    1.16    0.25
  12  15  -3    1.29    0.24
  12 -15   3    1.30    0.26
 -12  15   3    1.04    0.25
  12  15   4   29.52    2.04
 -12 -15   4   28.95    2.03
 -12  15  -4   25.83    2.24
  12 -15  -4   29.02    2.02
 -12 -15  -4   25.53    2.03
  12 -15   4   26.93    2.02
 -12 -15  -4   29.99    2.04
  12  15  -4   27.74    2.04
 -12 -16   0    0.69    0.37
  12 -16   0    0.68    0.15
 -12  16   0    0.89    0.20
  12  16   0    1.02    0.26
  12 -16  -1   20.46    1.45
  12  16   1   17.04    1.52
 -12  16  -1   21.00    1.49
  12 -16   1   21.08    1.49
 -12 -16  -1   20.96    1.47
  12  16  -1   20.99    1.54
 -12  16   1   18.29    1.48
 -13   0   0   -0.06    0.23
 -13   0   1   21.36    1.62
 -13   0  -1   21.27    1.57
 -13   0   2    3.63    0.43
 -13   0  -2    2.72    0.44
  13   0  -2    2.33    0.50
  13   0  -3   77.41    5.60
 -13   0  -3   76.54    5.61
  13   0  -3   82.97    5.58
  13   0  -4    2.25    0.41
  13   0  -4    2.26    0.34
  13   0  -5   20.27    1.64
  13   0  -5   23.77    1.62
  13   0  -6   10.03    0.82
 -13   0   6    8.69    0.78
  13   0  -7   42.76    2.77
 -13   0   7   37.17    2.74
 -13   0  -7   34.16    3.03
  13   0  -8    0.28    0.21
 -13   0  -8    0.06    0.63
 -13   0   8    0.70    0.21
  13   0  -9   14.32    1.26
 -13   0   9   15.04    1.32
 -13   0  -9   17.89    1.42
  13   0 -10    0.05    0.19
 -13   0 -10    0.41    0.49
 -13   0  10    0.33    0.24
  13   0 -11    5.09    0.47
 -13   0  11    3.96    0.50
 -13  -1   0    0.34    0.23
 -13   1   0    0.01    0.27
 -13   1  -1   31.83    2.32
 -13  -1   1   32.21    2.29
 -13  -1  -1   31.57    2.31
 -13   1   1   31.58    2.30
 -13  -1   2  158.11   10.83
  13  -1  -2  138.57   10.83
 -13   1  -2  162.29   10.84
  13   1  -2  152.37   10.84
 -13   1   2  158.03   10.84
  13   1  -2  141.81   10.83
 -13  -1  -2  164.56   10.82
 -13   1  -3    4.03    0.69
  13  -1  -3    3.83    0.41
  13  -1  -3    3.58    0.50
  13   1  -3    3.91    0.48
  13   1  -3    3.21    0.44
  13  -1  -4    0.35    0.16
  13  -1  -4    0.36    0.22
  13   1  -4    0.27    0.17
  13   1  -4    0.43    0.25
 -13   1   4    0.69    0.32
  13  -1  -5   -0.13    0.23
  13  -1  -5    0.25    0.16
 -13  -1   5    0.67    0.21
  13   1  -5    0.17    0.19
  13   1  -5    0.36    0.24
 -13   1   5   -0.10    0.24
  13  -1  -6   76.18    5.17
  13  -1  -6   66.73    5.18
 -13  -1   6   71.49    5.16
  13   1  -6   75.82    5.18
 -13   1   6   73.72    5.17
  13   1  -6   73.57    5.18
 -13   1  -7    6.83    1.50
 -13  -1   7    6.51    0.63
  13  -1  -7    8.31    0.69
 -13  -1  -7    5.72    1.33
 -13   1   7    7.22    0.64
  13   1  -7    7.50    0.66
 -13  -1   8    0.39    0.21
 -13   1  -8    0.04    0.64
  13  -1  -8   -0.23    0.20
 -13  -1  -8   -0.30    0.58
 -13   1   8    0.06    0.20
  13   1  -8    0.43    0.20
 -13   1  -9   -0.11    0.55
 -13  -1   9   -0.26    0.23
  13  -1  -9    0.02    0.22
  13   1  -9   -0.06    0.20
 -13  -1  -9   -0.45    0.51
 -13   1   9   -0.25    0.29
  13  -1 -10   31.39    2.29
 -13  -1  10   33.83    2.30
 -13   1 -10   31.39    2.39
 -13  -1 -10   30.76    2.37
  13   1 -10   30.98    2.29
 -13   1  10   32.45    2.30
  13  -1 -11    0.45    0.18
 -13  -1  11    0.41    0.24
 -13   1 -11    0.08    0.41
  13   1 -11    0.43    0.19
 -13   1  11    0.42    0.24
 -13  -1 -11    0.51    0.40
 -13   2   0   -0.12    0.29
 -13  -2   0    0.63    0.25
  13   2   0    0.24    0.28
 -13   2  -1   17.42    1.29
 -13  -2   1   17.10    1.26
 -13   2   1   16.86    1.29
  13   2  -1   14.39    1.28
 -13  -2  -1   18.27    1.27
 -13  -2   2    2.30    0.42
 -13   2  -2    2.70    0.51
  13  -2  -2    2.97    0.39
  13   2  -2    1.65    0.41
  13   2  -2    2.60    0.38
  13  -2  -3   26.53    1.78
  13  -2  -3   27.83    1.76
 -13  -2   3   22.89    1.85
  13   2  -3   22.14    1.80
 -13   2   3   21.58    1.81
 -13  -2   4    1.48    0.30
  13  -2  -4    1.23    0.24
  13  -2  -4    1.61    0.21
 -13   2   4    1.10    0.30
  13   2  -4    1.41    0.22
  13   2  -4    0.73    0.28
  13  -2  -5   25.56    1.92
 -13  -2   5   27.66    1.94
  13  -2  -5   25.22    1.98
  13   2  -5   27.82    1.96
 -13   2   5   28.34    1.95
  13   2  -5   25.29    1.94
 -13  -2   6    5.02    0.54
  13  -2  -6    5.05    0.60
 -13   2   6    5.45    0.56
  13   2  -6    6.39    0.58
 -13  -2   7   18.42    1.47
  13  -2  -7   21.36    1.51
 -13   2  -7   18.39    1.99
 -13   2   7   20.31    1.48
  13   2  -7   20.56    1.49
 -13   2  -8    0.09    0.66
  13  -2  -8    0.46    0.22
 -13  -2   8    0.27    0.22
  13   2  -8    0.12    0.20
 -13   2   8   -0.04    0.21
 -13  -2  -8   -0.43    0.54
 -13   2  -9   25.54    1.90
 -13  -2   9   24.63    1.70
  13  -2  -9   22.54    1.71
 -13   2   9   22.61    1.70
 -13  -2  -9   20.99    1.82
  13   2  -9   22.62    1.70
  13  -2 -10    0.09    0.19
 -13  -2  10   -0.26    0.22
 -13   2 -10   -0.30    0.47
  13   2 -10    0.02    0.20
 -13   2  10    0.35    0.23
 -13  -2 -10    0.30    0.42
  13  -2 -11    7.23    0.57
 -13  -2  11    6.03    0.63
 -13   2 -11    5.72    0.75
  13   2 -11    7.18    0.58
 -13  -3   0    0.62    0.25
  13   3   0   -0.05    0.27
  13  -3   0    0.33    0.21
 -13  -3   1   28.71    2.02
  13   3  -1   27.09    2.05
  13  -3  -2  121.81    8.63
  13   3   2  123.23    8.70
 -13  -3   2  124.40    8.67
  13   3  -2  121.38    8.69
  13   3   3    3.39    0.44
 -13  -3   3    3.99    0.71
  13  -3  -3    2.27    0.35
  13  -3  -3    3.17    0.38
  13   3  -3    2.04    0.37
  13   3  -3    2.54    0.38
 -13   3   3    3.00    0.37
  13  -3  -4   -0.07    0.17
 -13  -3   4   -0.18    0.28
  13  -3  -4   -0.09    0.14
 -13   3   4   -0.10    0.26
  13   3  -4    0.14    0.25
  13   3  -4    0.21    0.19
  13  -3  -5   -0.07    0.22
 -13  -3   5    0.47    0.24
  13  -3  -5    0.32    0.15
  13   3  -5    0.38    0.21
 -13   3  -6   97.22    7.49
  13  -3  -6  109.09    7.35
 -13  -3   6   97.22    7.35
  13   3  -6  108.74    7.36
 -13   3   6  110.00    7.37
  13   3  -6  102.88    7.37
 -13   3  -7   12.66    1.54
  13  -3  -7   10.13    0.86
 -13  -3   7   10.11    0.88
  13  -3  -7   10.84    0.93
 -13  -3  -7   11.29    1.32
  13   3  -7   10.96    0.89
 -13   3   7   11.96    0.90
 -13  -3   8    0.83    0.24
  13   3  -8    0.58    0.21
 -13  -3  -8    1.11    0.54
  13  -3  -9    0.36    0.22
 -13  -3   9    0.44    0.23
 -13   3  -9    0.71    0.53
 -13  -3  -9    0.50    0.44
 -13   3   9    0.65    0.24
  13   3  -9    0.15    0.21
  13  -3 -10   29.25    2.05
 -13   3 -10   28.75    2.14
 -13  -3  10   28.88    2.04
 -13   3  10   27.70    2.04
 -13  -3 -10   26.55    2.10
  13   3 -10   28.44    2.04
 -13   3 -11    0.53    0.50
 -13  -3  11    0.78    0.32
 -13   3  11    0.90    0.27
 -13  -3 -11    0.52    0.63
  13   4   0   -0.14    0.25
  13  -4   0    0.19    0.19
  13  -4  -1   30.28    2.45
  13  -4   1   33.67    2.31
  13  -4  -2    2.97    0.33
  13  -4  -2    3.13    0.37
  13   4   2    3.48    0.67
 -13   4   2    2.51    0.45
  13  -4   2    2.63    0.40
  13   4  -2    2.98    0.40
  13  -4  -3   46.05    3.21
  13  -4  -3   48.24    3.23
 -13   4   3   42.81    3.24
  13   4  -3   43.92    3.24
 -13  -4   4    0.07    0.27
  13  -4  -4    0.15    0.17
  13  -4  -4    0.33    0.14
  13   4  -4    0.36    0.18
 -13   4   4   -0.25    0.25
  13  -4  -5   22.12    1.53
  13  -4  -5   18.78    1.48
 -13   4  -5   22.47    1.99
 -13  -4   5   19.91    1.52
 -13   4   5   19.31    1.54
 -13   4  -6    3.37    0.78
 -13  -4   6    4.19    0.51
  13  -4  -6    3.90    0.57
 -13   4   6    4.45    0.56
  13   4  -6    5.43    0.58
  13   4  -6    5.09    0.53
  13  -4  -7   21.90    1.67
 -13  -4   7   20.65    1.62
  13   4  -7   23.67    1.63
 -13  -4  -7   18.81    1.90
 -13   4   7   24.39    1.65
 -13   4  -8    0.75    0.66
 -13  -4   8    0.16    0.24
  13  -4  -8    0.75    0.26
 -13   4   8    0.66    0.24
 -13  -4  -8    0.57    0.50
  13   4  -8    0.45    0.22
 -13  -4   9   20.77    1.51
 -13   4  -9   22.06    1.67
  13  -4  -9   19.75    1.50
 -13  -4  -9   20.44    1.59
 -13   4   9   20.21    1.50
  13   4  -9   18.53    1.50
 -13   4 -10    1.29    0.48
 -13  -4  10    0.79    0.22
 -13  -4 -10    0.73    0.39
  13   4 -10    0.69    0.20
 -13   4  10    0.26    0.22
  13  -5   0    0.35    0.14
  13   5   0    0.55    0.28
  13  -5   0    0.65    0.18
  13  -5   1   14.60    1.05
  13   5  -1   14.95    1.13
 -13   5   1   13.34    1.09
  13  -5  -2  114.90    8.45
  13  -5  -2  124.51    8.42
  13   5   2  121.05    8.51
  13  -5   2  124.78    8.42
  13  -5   2  111.18    8.43
  13   5  -2  121.98    8.47
  13  -5  -3    1.96    0.29
  13  -5  -3    1.71    0.29
  13   5   3    3.01    0.64
 -13   5   3    2.46    0.39
  13   5  -3    1.77    0.35
  13  -5   3    1.71    0.25
 -13   5  -4    0.81    0.38
 -13  -5   4    0.39    0.24
 -13   5  -4    0.96    0.33
  13   5   4    0.58    0.67
 -13   5   4    0.30    0.29
  13  -5   4    0.86    0.22
  13   5  -4    0.55    0.20
  13  -5  -5    0.05    0.20
 -13   5  -5   -0.42    0.46
 -13  -5   5   -0.05    0.26
 -13   5   5    0.35    0.25
  13   5  -5    0.23    0.21
 -13   5  -6   75.98    5.48
 -13  -5   6   77.85    5.39
  13  -5  -6   79.79    5.37
  13  -5  -6   68.69    5.41
  13   5  -6   75.38    5.40
 -13   5   6   78.21    5.41
  13  -5  -7    3.51    0.40
 -13   5  -7    3.68    0.77
  13  -5  -7    2.90    0.55
 -13  -5   7    4.83    0.51
  13   5  -7    3.66    0.47
 -13  -5  -7    5.00    0.70
 -13   5   7    4.34    0.54
  13  -5  -8    0.60    0.26
 -13   5  -8    1.14    0.66
 -13  -5   8    0.18    0.26
 -13   5   8    0.73    0.25
 -13   5  -9    0.71    0.49
  13  -5  -9    0.11    0.20
  13   5  -9   -0.01    0.19
 -13   5   9    0.07    0.20
 -13  -5  -9    0.21    0.41
 -13   5 -10   19.31    1.59
 -13  -5  10   21.48    1.49
  13  -5 -10   20.56    1.49
  13   5 -10   21.04    1.49
 -13   5  10   19.72    1.49
 -13  -5 -10   19.99    1.55
  13   6   0    0.02    0.26
  13  -6   0   -0.13    0.16
  13  -6   0   -0.19    0.13
  13  -6  -1   23.92    2.09
  13  -6  -1   31.63    2.07
  13   6  -1   28.59    2.14
  13  -6   1   28.24    2.08
 -13   6   1   29.05    2.08
  13  -6   1   31.75    2.06
  13   6   2    0.97    0.34
 -13   6  -2    0.75    0.23
 -13   6  -2    0.88    0.28
 -13   6   2    0.78    0.20
  13  -6   2    1.26    0.25
  13   6  -2    0.69    0.21
 -13   6  -3   28.64    2.24
 -13   6  -3   31.95    2.23
 -13  -6   3   28.16    2.30
  13  -6  -3   30.00    2.22
  13   6  -3   31.59    2.25
 -13   6   3   31.76    2.23
  13  -6   3   33.05    2.20
  13  -6  -4    2.14    0.28
  13   6   4    2.32    0.42
 -13   6  -4    3.26    0.66
 -13   6  -4    2.77    0.38
  13  -6  -4    2.57    0.35
 -13  -6   4    2.35    0.32
 -13   6   4    2.10    0.43
  13   6  -4    1.87    0.29
  13  -6  -5   21.28    1.61
 -13   6  -5   25.72    1.75
  13  -6  -5   24.55    1.66
 -13  -6   5   22.77    1.67
 -13   6  -5   24.31    1.70
  13  -6   5   20.26    1.62
  13   6  -5   21.55    1.66
 -13   6   5   18.52    1.67
 -13  -6   6    5.76    0.62
  13  -6  -6    6.81    0.49
  13  -6  -6    5.08    0.62
  13   6  -6    5.66    0.65
  13  -6   6    5.67    0.51
 -13   6   6    4.96    0.66
  13  -6  -7   17.07    1.43
 -13  -6   7   19.33    1.41
 -13  -6  -7   17.44    1.62
 -13   6   7   19.63    1.43
  13   6  -7   19.01    1.39
  13  -6  -8   -0.35    0.23
 -13   6  -8   -0.50    0.54
 -13   6   8   -0.22    0.24
 -13  -6  -8   -0.40    0.43
  13  -6  -9   14.10    1.13
 -13  -6   9   14.70    1.13
 -13   6  -9   16.38    1.30
 -13   6   9   15.57    1.13
  13   6  -9   13.48    1.12
 -13  -6  -9   15.41    1.23
  13  -6 -10    0.45    0.18
 -13   6 -10    0.00    0.41
 -13  -6 -10    0.77    0.33
  13   6 -10    0.27    0.20
 -13   6  10    0.67    0.22
  13  -7   0    0.30    0.15
  13  -7   0    0.58    0.14
  13   7   0    0.87    0.28
 -13   7   0    0.44    0.17
  13  -7  -1   18.48    1.60
  13  -7  -1   22.36    1.58
 -13   7  -1   23.90    1.60
  13  -7   1   19.89    1.58
  13   7  -1   22.85    1.67
  13  -7   1   23.13    1.57
 -13   7   1   22.62    1.59
 -13  -7   2  102.74    7.26
 -13   7  -2   97.61    7.27
 -13  -7   2   99.78    7.26
 -13   7  -2  112.49    7.27
  13   7   2   91.89    7.37
  13  -7  -2   99.01    7.30
  13   7  -2  116.09    7.38
  13  -7   2  113.53    7.25
 -13   7   2  100.96    7.27
  13  -7   2   96.29    7.25
  13   7   3    4.96    0.70
  13  -7  -3    4.12    0.39
  13  -7  -3    3.84    0.39
 -13   7   3    4.52    0.45
  13  -7   3    3.59    0.43
  13   7  -3    3.42    0.46
  13  -7  -4    0.82    0.19
  13  -7  -4    1.26    0.23
 -13   7  -4    0.82    0.25
  13   7   4    1.13    0.35
  13   7  -4    0.86    0.23
 -13   7   4    0.82    0.24
  13  -7   4    1.53    0.28
  13  -7  -5    0.40    0.13
 -13  -7   5    0.47    0.27
 -13   7  -5    0.55    0.37
 -13   7  -5    0.77    0.27
  13  -7  -5    0.39    0.21
  13   7  -5    0.69    0.24
 -13   7   5    0.41    0.29
  13  -7   5    0.59    0.19
 -13  -7   6   67.35    4.40
 -13   7  -6   62.04    4.47
  13  -7  -6   60.25    4.41
  13  -7  -6   63.89    4.36
  13   7  -6   60.68    4.40
 -13   7   6   60.87    4.41
 -13  -7  -6   57.48    4.51
  13  -7   6   60.05    4.35
 -13  -7   7    2.17    0.34
 -13   7  -7    1.93    0.65
  13  -7  -7    1.84    0.34
 -13  -7  -7    3.81    0.87
  13   7  -7    2.20    0.41
  13  -7   7    2.30    0.28
 -13   7  -8    0.98    0.51
  13  -7  -8    0.85    0.23
 -13  -7   8    0.48    0.24
  13   7  -8    0.63    0.21
 -13  -7  -8    0.91    0.43
  13  -7  -9    0.90    0.20
 -13   7  -9    1.31    0.47
 -13  -7   9    0.37    0.23
  13   7  -9    0.59    0.21
 -13   7   9    0.87    0.21
 -13  -7  -9    0.94    0.37
 -13  -7  10   22.26    1.57
  13  -7 -10   20.87    1.54
 -13   7 -10   18.72    1.62
 -13   7  10   21.69    1.57
  13   7 -10   22.80    1.61
 -13   8   0   -0.25    0.18
  13  -8   0    0.02    0.13
  13  -8   0   -0.01    0.12
  13   8   0   -0.19    0.25
 -13  -8   0    0.40    0.28
  13  -8  -1   32.44    2.22
 -13  -8   1   32.04    2.24
 -13   8  -1   31.41    2.24
 -13   8  -1   32.65    2.27
 -13  -8   1   30.52    2.24
  13  -8  -1   28.11    2.24
  13  -8   1   33.15    2.22
  13  -8   1   28.40    2.22
  13   8  -1   31.40    2.30
 -13   8   1   30.43    2.23
  13  -8  -2    0.51    0.14
  13  -8  -2    0.51    0.16
 -13   8  -2    0.60    0.22
 -13   8  -2    0.72    0.19
  13   8   2    0.91    0.34
 -13  -8   2    0.51    0.21
  13   8  -2    0.60    0.22
 -13  -8   3   12.08    1.07
  13   8   3   15.92    1.21
 -13   8  -3   12.83    1.11
 -13   8  -3   13.96    1.07
  13  -8  -3   15.74    1.06
  13  -8  -3   14.03    1.05
  13   8  -3   13.87    1.10
 -13   8   3   13.26    1.07
  13  -8   3   14.48    1.04
 -13   8  -4    2.84    0.54
  13   8   4    1.72    0.38
 -13  -8   4    1.83    0.28
  13  -8  -4    1.77    0.33
  13  -8  -4    1.53    0.26
 -13   8  -4    2.44    0.41
 -13   8   4    1.93    0.32
  13  -8   4    2.27    0.29
  13   8  -4    1.38    0.27
 -13  -8  -4    2.60    0.65
 -13  -8   5   21.78    1.61
 -13   8  -5   22.57    1.70
  13  -8  -5   22.21    1.56
  13  -8  -5   23.65    1.61
 -13   8  -5   22.71    1.61
  13  -8   5   19.83    1.57
 -13  -8  -5   21.21    1.80
 -13   8   5   18.84    1.64
  13   8  -5   20.99    1.62
 -13  -8   6    2.91    0.53
 -13   8  -6    2.04    0.57
  13  -8  -6    2.54    0.47
  13   8  -6    3.47    0.57
 -13   8   6    2.81    0.55
  13  -8   6    3.48    0.36
 -13  -8   7   15.62    1.25
  13  -8  -7   13.16    1.25
 -13  -8  -7   12.42    1.33
 -13   8   7   17.40    1.39
  13  -8   7   15.19    1.08
  13  -8  -8    0.13    0.21
 -13   8  -8   -0.74    0.49
 -13   8   8   -0.03    0.20
 -13   8  -9   14.81    1.16
 -13  -8   9   13.59    1.03
  13  -8  -9   12.02    1.02
  13   8  -9   12.70    1.02
 -13  -8  -9   15.05    1.09
 -13   8   9   12.80    1.03
  13   9   0    0.97    0.29
 -13   9   0    1.52    0.30
  13  -9   0    1.17    0.24
  13  -9   0    1.55    0.24
 -13  -9   1    7.90    0.65
  13  -9  -1    6.25    0.62
 -13  -9   1    7.55    0.66
 -13   9  -1    8.01    0.66
  13  -9  -1    7.33    0.60
 -13   9  -1    7.76    0.64
  13  -9   1    7.57    0.60
 -13  -9  -1    8.34    0.71
 -13   9   1    7.87    0.69
 -13   9   1    7.96    0.63
  13   9  -1    7.53    0.74
 -13  -9  -1    7.13    0.68
 -13   9  -2   78.85    5.15
  13  -9  -2   73.15    5.15
  13  -9  -2   76.47    5.14
  13   9   2   60.91    5.22
 -13   9  -2   73.50    5.16
 -13  -9   2   72.26    5.14
 -13  -9   2   71.68    5.13
  13  -9   2   76.58    5.13
  13   9  -2   74.48    5.19
 -13  -9  -2   66.75    5.15
 -13   9   2   73.89    5.14
 -13   9  -3    1.13    0.31
 -13   9  -3    0.96    0.22
  13  -9  -3    0.72    0.17
  13  -9  -3    1.10    0.19
 -13  -9   3    1.28    0.23
  13   9   3    1.02    0.34
 -13  -9  -3    1.29    0.35
 -13   9   3    1.55    0.25
  13   9  -3    0.71    0.24
  13  -9   3    1.14    0.24
 -13   9  -4    2.73    0.40
  13  -9  -4    1.70    0.33
 -13  -9   4    2.60    0.42
  13   9   4    1.28    0.34
  13  -9   4    2.35    0.30
  13   9  -4    2.27    0.40
 -13  -9  -4    1.40    0.41
 -13   9   4    1.68    0.31
 -13  -9   5    0.21    0.25
 -13   9  -5   -0.05    0.22
  13   9   5    0.41    0.36
 -13   9  -5   -0.10    0.39
  13  -9  -5    0.00    0.20
 -13   9   5   -0.08    0.27
  13   9  -5    0.13    0.23
  13  -9   5    0.56    0.19
 -13  -9  -5   -0.01    0.41
 -13   9  -6   48.52    3.70
  13  -9  -6   50.22    3.61
 -13  -9   6   53.39    3.61
  13   9  -6   47.33    3.74
 -13   9   6   53.55    3.60
 -13   9   6   47.59    3.62
 -13   9  -7    1.51    0.53
  13  -9  -7    1.42    0.29
 -13  -9   7    1.48    0.30
 -13  -9  -7    1.43    0.45
  13  -9   7    1.97    0.31
 -13   9   7    1.80    0.32
 -13   9   7    1.76    0.31
 -13   9  -8    0.61    0.47
 -13  -9   8    0.58    0.22
  13  -9  -8    0.69    0.20
  13   9  -8    0.70    0.20
  13  -9  -9    0.70    0.17
 -13  -9   9    0.28    0.21
 -13   9  -9    1.05    0.41
 -13  -9  -9    0.62    0.30
 -13   9   9    1.06    0.22
  13   9  -9    0.51    0.20
 -13  10   0   -0.07    0.16
  13  10   0    0.02    0.26
 -13  10   0   -0.16    0.21
 -13 -10   0   -0.12    0.19
  13 -10   0   -0.14    0.12
 -13 -10   0    0.02    0.19
  13 -10  -1   25.57    1.86
 -13 -10   1   26.02    1.87
 -13  10  -1   25.67    1.89
 -13  10  -1   25.90    1.87
 -13 -10   1   25.70    1.87
 -13  10   1   25.84    1.87
 -13  10   1   27.06    1.91
  13 -10   1   25.35    1.85
  13  10  -1   25.89    1.95
 -13 -10  -1   24.69    1.87
 -13 -10  -1   26.17    1.88
  13  10   2    0.17    0.30
 -13  10  -2    0.70    0.25
 -13  10  -2    0.62    0.18
  13 -10  -2    0.43    0.14
  13  10  -2    0.44    0.22
 -13 -10  -2    0.39    0.24
 -13 -10  -2    0.38    0.24
 -13  10   2    0.70    0.31
 -13  10   2    0.77    0.19
 -13 -10   3   30.53    2.24
  13 -10  -3   32.13    2.24
 -13  10  -3   31.54    2.36
  13  10   3   33.76    2.34
 -13  10  -3   31.68    2.25
  13 -10   3   32.72    2.22
 -13  10   3   31.84    2.26
  13  10  -3   31.32    2.28
 -13 -10  -3   27.58    2.26
 -13 -10  -3   27.48    2.26
  13 -10  -4    0.86    0.20
 -13 -10   4    0.60    0.23
  13  10   4    1.01    0.32
 -13  10  -4    1.16    0.24
 -13  10  -4    0.83    0.32
 -13 -10  -4    0.56    0.33
  13  10  -4    0.72    0.23
 -13  10   4    0.83    0.35
 -13  10   4    0.62    0.25
  13 -10   4    0.69    0.17
 -13 -10   5   17.10    1.30
 -13  10  -5   18.55    1.43
  13 -10  -5   15.97    1.28
 -13 -10  -5   17.80    1.43
 -13  10   5   14.76    1.32
  13 -10   5   14.06    1.24
 -13  10   5   19.14    1.34
  13 -10  -6    1.13    0.25
 -13 -10   6    1.14    0.29
 -13  10  -6    0.73    0.51
 -13 -10  -6    0.61    0.41
 -13  10   6    0.94    0.29
 -13 -10   7   18.03    1.27
 -13  10  -7   14.33    1.43
  13 -10  -7   15.89    1.26
 -13 -10  -7   15.76    1.36
 -13  10   7   18.62    1.27
 -13  10  -8   -0.33    0.43
 -13 -10   8    0.14    0.22
  13 -10  -8    0.41    0.18
 -13 -10  -8    0.85    0.32
  13  10  -8    0.22    0.20
 -13  10   8    0.22    0.20
  13  11   0    3.13    0.54
  13 -11   0    2.83    0.33
 -13  11   0    3.99    0.39
 -13  11  -1    3.35    0.37
 -13 -11   1    2.93    0.38
 -13  11  -1    3.40    0.47
 -13 -11   1    2.79    0.39
  13 -11  -1    2.61    0.31
 -13  11   1    2.90    0.50
 -13 -11  -1    2.23    0.41
  13  11  -1    2.95    0.50
 -13  11   1    2.84    0.36
 -13 -11  -1    2.95    0.41
  13 -11   1    2.80    0.30
  13  11   2   59.30    5.03
 -13  11  -2   73.93    4.96
 -13  11  -2   69.48    4.98
 -13 -11   2   71.30    4.95
  13 -11  -2   74.15    4.96
 -13 -11  -2   68.28    4.96
 -13  11   2   71.52    4.97
 -13 -11  -2   65.82    4.95
  13  11  -2   72.66    5.01
  13 -11   2   72.22    4.94
 -13  11   2   70.86    5.01
 -13  11  -3    2.14    0.37
 -13  11  -3    2.93    0.49
 -13 -11   3    2.40    0.40
  13  11   3    1.81    0.38
  13 -11  -3    2.07    0.31
 -13  11   3    1.65    0.42
 -13 -11  -3    2.32    0.33
  13 -11   3    2.21    0.30
 -13  11   3    2.53    0.39
  13  11  -3    2.35    0.41
 -13 -11  -3    2.26    0.47
 -13  11  -4    0.90    0.24
  13  11  -4    0.65    0.42
 -13  11   4    0.96    0.27
 -13 -11  -4    0.23    0.39
 -13  11   4    1.09    0.38
 -13 -11  -4    0.68    0.37
  13 -11   4    0.66    0.19
  13 -11  -5    0.25    0.20
 -13  11  -5    0.02    0.43
 -13 -11   5    0.67    0.26
  13  11  -5    0.35    0.24
 -13  11   5    0.19    0.25
  13 -11   5    0.55    0.18
 -13 -11  -5    0.44    0.33
 -13 -11  -5    0.40    0.34
 -13  11  -6   29.46    2.47
 -13 -11   6   37.65    2.37
  13 -11  -6   31.74    2.37
 -13 -11  -6   29.59    2.41
 -13  11   6   33.36    2.37
 -13 -11  -6   30.09    2.41
  13 -11   6   35.31    2.32
 -13 -11   7    1.53    0.27
 -13  11  -7    1.55    0.50
  13 -11  -7    0.83    0.23
 -13 -11  -7    1.25    0.35
 -13  11   7    1.11    0.24
  13  11  -7    1.46    0.24
 -13 -11   8    1.75    0.37
  13  11  -8    2.10    0.36
 -13 -11  -8    1.43    0.47
 -13  11   8    1.22    0.28
 -13  12   0    0.03    0.15
 -13 -12   0   -0.13    0.18
  13  12   0    0.14    0.27
 -13  12   0   -0.07    0.26
  13 -12   0   -0.17    0.12
 -13 -12   0    0.01    0.17
 -13 -12   1   12.83    0.99
 -13 -12   1   12.83    1.00
 -13  12  -1   13.23    1.00
  13 -12  -1   12.80    0.97
 -13  12  -1   13.54    1.07
  13  12  -1   13.58    1.09
 -13 -12  -1   12.48    1.00
 -13  12   1   13.48    1.01
 -13  12   1   13.53    1.09
 -13 -12  -1   12.88    1.00
  13 -12   1   12.77    0.97
 -13  12  -2    0.89    0.20
 -13  12  -2    1.08    0.30
  13  12   2    0.70    0.33
 -13  12   2    0.76    0.21
  13  12  -2    0.80    0.25
 -13 -12  -2    0.90    0.24
 -13  12   2    0.63    0.36
  13 -12   2    1.07    0.23
 -13  12  -3   16.91    1.31
 -13 -12   3   16.11    1.26
 -13  12  -3   15.77    1.61
  13  12   3   18.81    1.37
 -13 -12  -3   16.36    1.29
  13  12  -3   17.62    1.31
  13 -12   3   16.86    1.24
 -13  12   3   17.03    1.46
 -13 -12  -3   16.55    1.28
  13 -12  -4    1.55    0.24
  13  12   4    1.80    0.32
 -13  12  -4    1.47    0.25
 -13 -12   4    1.26    0.26
 -13  12  -4    1.50    0.42
 -13 -12  -4    1.06    0.31
  13  12  -4    2.31    0.39
 -13 -12  -4    1.71    0.32
 -13  12   4    1.88    0.40
 -13  12   4    1.24    0.28
  13 -12   4    1.54    0.29
 -13 -12   5   14.87    1.09
 -13  12  -5   14.03    1.24
  13  12   5   13.05    1.14
  13 -12  -5   13.63    1.07
  13 -12   5   12.06    1.04
 -13  12   5   15.48    1.17
 -13 -12  -5   14.82    1.15
 -13 -12  -5   13.84    1.15
  13  12  -5   12.58    1.09
  13 -12  -6    2.06    0.37
 -13  12  -6    1.63    0.46
 -13 -12   6    1.61    0.29
 -13 -12  -6    1.73    0.39
 -13 -12  -6    1.26    0.36
 -13  12   6    2.05    0.43
 -13  12  -7    7.57    0.91
 -13 -12   7    9.39    0.75
  13 -12  -7    9.82    0.74
 -13 -12  -7    8.88    0.81
 -13 -12  -7    6.49    1.22
  13  12  -7    9.69    0.87
 -13  12   7   10.02    0.76
  13 -13   0    2.76    0.32
  13  13   0    2.40    0.55
 -13  13   0    4.08    0.57
 -13  13   0    3.13    0.38
 -13 -13   0    3.69    0.37
 -13 -13   0    3.20    0.40
 -13 -13   1    3.55    0.41
  13 -13  -1    3.14    0.34
 -13  13  -1    3.67    0.53
 -13  13  -1    3.17    0.38
 -13 -13  -1    3.76    0.40
  13  13  -1    3.48    0.52
  13 -13   1    3.25    0.34
 -13  13   1    3.42    0.63
 -13 -13  -1    3.46    0.42
 -13  13   1    3.56    0.39
 -13  13  -2   39.76    3.08
 -13 -13   2   42.57    3.03
 -13  13  -2   42.39    3.04
  13 -13  -2   44.12    3.03
  13  13   2   40.04    3.12
 -13  13   2   43.66    3.05
 -13 -13  -2   40.69    3.03
  13  13  -2   46.37    3.09
 -13 -13  -2   42.26    3.04
  13 -13   2   43.61    3.02
 -13  13  -3    0.95    0.21
  13 -13  -3    0.88    0.18
 -13  13  -3    0.92    0.38
 -13 -13   3    1.04    0.22
  13  13   3    1.12    0.30
 -13  13   3    1.02    0.24
 -13  13   3    0.78    0.41
  13  13  -3    0.87    0.23
  13 -13   3    1.54    0.25
 -13 -13  -3    1.32    0.26
 -13 -13  -3    1.02    0.26
  13  13   4    2.53    0.50
  13 -13  -4    2.25    0.36
 -13 -13   4    3.05    0.43
 -13  13  -4    2.85    0.68
 -13  13   4    3.97    0.69
  13 -13   4    2.01    0.34
 -13 -13  -4    2.81    0.46
 -13 -13  -4    3.31    0.52
 -13  13  -5   -0.17    0.46
 -13 -13   5    0.40    0.25
  13 -13  -5    0.46    0.19
 -13  13   5    0.33    0.24
 -13 -13  -5    0.80    0.33
  13 -13   5    0.35    0.17
 -13 -13  -5    0.37    0.26
  13 -13  -6   20.67    1.56
 -13 -13   6   22.72    1.57
 -13  13  -6   20.25    1.66
  13  13  -6   21.87    1.56
 -13 -13  -6   19.47    1.64
 -13 -13  -6   20.09    1.59
 -13  13   6   23.54    1.58
 -13 -14   0    0.01    0.15
 -13  14   0   -0.22    0.15
 -13 -14   0   -0.20    0.19
  13 -14   0   -0.10    0.11
 -13  14   0   -0.34    0.38
  13  14   0    0.02    0.24
  13 -14  -1   19.82    1.46
 -13  14  -1   20.36    1.60
 -13  14  -1   19.83    1.48
 -13 -14   1   20.38    1.48
  13 -14   1   19.00    1.46
  13  14  -1   20.97    1.56
 -13  14   1   21.04    1.49
 -13 -14  -1   20.27    1.49
 -13 -14  -1   20.52    1.48
  13 -14  -2    0.98    0.18
 -13  14  -2    1.48    0.41
  13  14   2    0.92    0.30
 -13  14  -2    1.19    0.21
  13 -14   2    1.78    0.25
 -13  14   2    1.38    0.23
 -13 -14  -2    1.53    0.34
 -13  14   2    1.63    0.50
  13  14  -2    1.04    0.25
 -13 -14  -2    1.48    0.25
  13  14   3   14.31    1.09
  13 -14  -3   14.47    0.99
 -13 -14   3   13.07    1.00
 -13  14  -3   12.63    1.00
  13 -14   3   13.22    0.97
 -13 -14  -3   12.79    1.01
 -13 -14  -3   12.03    1.02
 -13  14   3   11.03    1.32
  13  14  -3   13.49    1.02
 -13  14   3   12.52    1.02
  13  14   4    0.66    0.26
  13 -14  -4    0.52    0.18
 -13  14  -4    0.56    0.50
  13 -14   4    0.63    0.17
 -13 -14  -4    0.97    0.26
 -13  14   4    0.58    0.24
  13  14  -4    0.40    0.27
  13 -14  -5    9.02    0.76
 -13 -14   5   11.19    0.81
 -13  14  -5    9.53    1.05
 -13 -14  -5    8.50    0.86
 -13 -14  -5    9.55    0.82
 -13  14   5    9.60    0.81
 -13 -15   0    3.20    0.39
 -13  15   0    2.52    0.36
  13 -15   0    2.18    0.29
 -13  15   0    1.63    0.78
 -13  15  -1    1.24    0.22
 -13  15  -1    2.30    0.70
 -13 -15   1    2.11    0.36
  13 -15  -1    1.40    0.25
  13  15   1    1.18    0.30
 -13  15   1    1.48    0.97
  13 -15   1    1.27    0.18
 -13  15   1    1.98    0.33
  13  15  -1    2.21    0.43
 -13 -15   2   28.11    2.11
 -13  15  -2   25.70    2.49
  13  15   2   31.81    2.18
 -13  15  -2   30.19    2.12
  13 -15  -2   30.65    2.10
 -13 -15  -2   30.32    2.11
 -13 -15  -2   26.64    2.15
 -13  15   2   29.00    2.13
  13  15  -2   30.77    2.14
  13 -15   2   29.45    2.09
  13  15   3    1.02    0.41
 -13  15  -3    0.14    0.66
 -13 -15   3    0.25    0.21
  13 -15  -3    0.14    0.15
 -13 -15  -3    0.09    0.26
 -13  15   3   -0.12    0.22
 -13 -15  -3    0.37    0.23
  13  15  -3    0.39    0.24
  14   0   0    0.07    0.26
 -14   0   0    0.78    0.32
  14   0  -1   68.25    5.44
  14   0   1   64.53    5.45
 -14   0  -1   86.42    5.44
 -14   0   1   87.00    5.44
 -14   0  -2    1.32    0.41
  14   0   2    1.26    0.34
  14   0  -3   47.59    3.48
 -14   0   3   42.44    3.52
 -14   0  -3   51.57    3.63
  14   0  -3   52.99    3.46
  14   0  -4   32.47    2.60
  14   0  -4   38.68    2.61
 -14   0   4   37.48    2.63
  14   0  -5   60.91    5.09
  14   0  -5   79.17    5.00
  14   0  -6    3.45    0.52
 -14   0   6    4.58    0.47
  14   0  -6    3.35    0.45
  14   0  -7   27.38    1.87
  14   0  -7   22.55    1.92
 -14   0  -7   23.92    2.83
 -14   0   7   26.45    1.84
  14   0  -8    1.03    0.25
 -14   0  -8    0.20    0.68
 -14   0   8    0.62    0.23
  14   0  -9   17.81    1.30
 -14   0  -9   16.43    1.48
 -14   0   9   17.21    1.30
  14   0 -10    0.06    0.18
 -14   0  10   -0.32    0.22
 -14   1   0   41.06    2.96
  14  -1  -1    1.53    0.31
 -14   1  -1    2.29    0.39
  14   1   1    1.34    0.32
  14  -1   1    1.31    0.33
  14   1  -1    1.94    0.42
 -14  -1   2    0.65    0.38
  14  -1  -2    0.18    0.23
  14   1   2    0.37    0.33
 -14   1  -2    0.11    0.44
  14  -1   2   -0.25    0.32
  14  -1  -3   13.15    0.96
 -14  -1   3    9.75    1.14
  14  -1  -3   12.60    0.99
  14   1  -3   11.95    0.97
  14   1  -3   13.38    0.97
 -14  -1   4   76.40    5.36
  14  -1  -4   86.62    5.36
  14  -1  -4   73.31    5.36
  14   1  -4   69.54    5.36
 -14   1   4   75.73    5.37
  14   1  -4   72.29    5.36
  14  -1  -5    2.35    0.49
  14   1  -5    2.79    0.46
  14  -1  -6    1.12    0.28
  14  -1  -6    0.87    0.20
  14   1  -6    1.39    0.27
 -14   1   6    2.01    0.38
  14   1  -6    1.38    0.24
 -14  -1   7    0.63    0.23
  14  -1  -7    0.72    0.23
 -14   1  -7    0.79    0.99
  14  -1  -7    0.66    0.26
  14   1  -7    1.08    0.25
 -14   1   7    0.52    0.22
 -14  -1   8   27.57    2.04
  14  -1  -8   30.13    2.06
 -14   1  -8   28.92    2.29
  14   1  -8   29.87    2.06
 -14   1   8   27.53    2.04
 -14  -1  -8   24.43    2.23
  14  -1  -9    0.28    0.21
 -14  -1   9   -0.07    0.22
 -14   1  -9    0.71    0.58
 -14  -1  -9   -0.28    0.51
  14   1  -9    0.06    0.21
 -14   1   9    0.56    0.23
  14  -1 -10    0.34    0.19
 -14   1 -10    1.55    0.52
  14   1 -10    0.66    0.19
 -14   1  10    0.90    0.23
  14  -2   0    1.22    0.27
  14   2   0    0.90    0.28
  14  -2  -1   47.08    3.80
  14   2   1   48.91    3.83
 -14  -2   1   63.87    3.80
  14  -2   1   52.51    3.80
  14  -2  -2   14.41    1.09
  14   2   2   14.94    1.19
  14  -2  -2   14.43    1.05
 -14  -2   2   14.19    1.14
  14  -2   2   12.68    1.12
  14   2  -2   14.33    1.35
  14   2  -2   14.49    1.10
  14  -2  -3   37.96    2.77
 -14  -2   3   36.99    2.84
  14  -2  -3   43.14    2.76
  14   2   3   39.80    2.83
  14   2  -3   35.68    2.78
 -14   2   3   34.71    2.80
  14   2  -3   42.46    2.80
  14  -2  -4    5.40    0.45
 -14  -2   4    4.72    0.59
 -14   2   4    4.06    0.57
  14   2  -4    4.32    0.48
  14   2  -4    3.82    0.59
  14  -2  -5   41.06    2.89
  14  -2  -5   43.64    2.87
 -14   2   5   38.32    2.88
  14   2  -5   37.14    2.89
  14  -2  -6    0.12    0.16
 -14  -2   6    0.21    0.20
 -14   2   6   -0.16    0.22
  14   2  -6    0.23    0.23
  14   2  -6    0.12    0.23
  14  -2  -7   29.97    2.28
 -14  -2   7   31.03    2.25
  14  -2  -7   30.20    2.24
 -14   2  -7   31.87    2.68
  14   2  -7   32.51    2.26
 -14   2   7   31.28    2.26
 -14  -2   8    1.42    0.28
 -14   2  -8    1.87    0.74
  14  -2  -8    1.34    0.29
 -14   2   8    2.03    0.40
 -14  -2  -8    1.59    0.62
  14   2  -8    1.05    0.26
  14  -2  -9   17.19    1.18
 -14  -2   9   14.30    1.17
 -14   2  -9   14.73    1.40
 -14   2   9   16.38    1.18
 -14  -2  -9   14.30    1.34
  14   2  -9   15.54    1.18
 -14  -2  10    0.26    0.22
  14  -2 -10   -0.09    0.18
 -14   2 -10   -0.49    0.47
  14   2 -10    0.01    0.18
 -14   2  10   -0.22    0.22
  14  -3   0   29.43    2.15
  14   3   1   13.28    1.24
  14  -3  -1   14.58    1.14
  14  -3   1   16.25    1.15
  14  -3  -2    6.39    0.58
  14  -3  -2    6.59    0.55
  14   3   2    7.90    0.77
 -14   3   2    5.95    0.69
  14  -3   2    5.86    0.61
  14   3  -2    6.70    0.60
 -14  -3   3    1.38    0.43
  14  -3  -3    2.16    0.30
  14   3  -3    1.64    0.37
  14   3  -3    2.21    0.35
 -14   3   3    1.64    0.35
  14  -3  -4   69.88    4.55
 -14  -3   4   62.75    4.56
 -14   3   4   57.99    4.56
  14   3  -4   65.79    4.56
 -14  -3   5    2.33    0.44
  14  -3  -5    2.78    0.32
  14   3  -5    2.52    0.40
 -14   3   5    2.57    0.49
  14   3  -5    2.47    0.36
 -14  -3   6    5.93    0.57
 -14   3   6    6.60    0.63
  14   3  -6    5.76    0.61
 -14  -3   7    3.49    0.50
 -14   3  -7    3.88    0.94
  14  -3  -7    4.21    0.56
  14  -3  -7    4.20    0.44
  14   3  -7    4.31    0.50
 -14   3   7    4.32    0.52
 -14  -3   8   54.10    3.82
  14  -3  -8   57.19    3.85
 -14   3  -8   54.38    4.00
 -14  -3  -8   46.53    3.95
  14   3  -8   54.69    3.83
 -14   3   8   54.96    3.83
 -14   3  -9    0.66    0.59
  14  -3  -9    1.03    0.23
  14   3  -9    0.63    0.22
 -14  -3  -9    0.93    0.46
  14  -3 -10    0.82    0.20
 -14  -3  10    1.02    0.23
 -14   3  10    0.96    0.23
 -14  -3 -10    1.68    0.42
  14   3 -10    0.54    0.21
  14   4   0    6.58    0.68
  14  -4   0    5.63    0.57
  14  -4  -1   69.19    4.47
  14  -4  -1   51.90    4.50
  14   4  -1   68.75    4.54
  14  -4  -2   33.60    2.32
  14   4   2   35.74    2.45
  14  -4  -2   31.87    2.35
  14  -4   2   30.02    2.35
 -14   4   2   30.35    2.36
  14   4  -2   33.99    2.37
  14  -4  -3   47.20    3.45
  14  -4  -3   50.60    3.44
 -14  -4   3   40.67    3.48
  14   4   3   51.24    3.52
 -14   4   3   54.81    3.47
  14   4  -3   46.07    3.47
  14  -4  -4    0.85    0.28
 -14  -4   4    0.94    0.31
  14   4  -4    0.57    0.36
  14   4  -4    0.81    0.29
  14  -4  -5   48.63    3.41
 -14  -4   5   45.33    3.43
  14  -4  -5   53.95    3.45
  14   4  -5   46.84    3.44
  14   4  -5   51.34    3.44
 -14   4   5   42.02    3.45
  14  -4  -6    1.43    0.19
 -14  -4   6    1.04    0.26
 -14   4  -6    1.80    0.75
 -14   4   6    0.70    0.30
  14   4  -6    1.23    0.25
  14   4  -6    0.83    0.29
  14  -4  -7   20.55    1.58
  14  -4  -7   20.34    1.64
 -14  -4   7   22.02    1.61
 -14   4  -7   21.86    2.01
  14   4  -7   22.17    1.61
 -14  -4  -7   20.40    1.92
 -14   4   7   24.44    1.63
 -14  -4   8    9.45    0.76
  14  -4  -8    7.55    0.77
 -14   4  -8    6.80    1.61
 -14  -4  -8    7.31    1.10
  14   4  -8    7.66    0.73
 -14   4   8    9.77    0.77
 -14  -4   9   14.67    1.18
 -14   4  -9   14.52    1.37
 -14   4   9   17.31    1.18
 -14  -4  -9   13.79    1.28
  14   4  -9   16.47    1.17
 -14  -4  10    1.30    0.25
  14  -4 -10    1.74    0.32
 -14   4 -10    1.91    0.50
 -14  -4 -10    1.73    0.42
 -14   4  10    1.34    0.25
  14   4 -10    1.64    0.24
  14   5   0   37.83    2.82
  14  -5   0   37.26    2.76
 -14   5   0   40.22    2.75
  14  -5  -1   16.96    1.24
  14   5  -1   17.88    1.33
  14  -5   1   16.68    1.24
  14  -5   1   16.54    1.26
  14  -5  -2    0.81    0.16
  14   5   2    1.32    0.35
  14  -5  -2    0.93    0.20
  14   5  -2    0.87    0.22
 -14   5   2    1.01    0.23
  14  -5   2    0.92    0.19
  14   5   3    0.49    0.34
 -14  -5   3   -0.02    0.28
  14  -5  -3    0.66    0.16
  14   5  -3    0.59    0.20
 -14   5   3    0.39    0.23
  14  -5  -4   74.58    4.82
  14  -5  -4   69.83    4.82
  14   5   4   67.68    4.89
  14   5  -4   65.55    4.84
 -14   5   4   62.28    4.83
  14  -5  -5    1.53    0.24
  14  -5  -5    1.61    0.26
 -14   5  -5    0.98    0.52
 -14  -5   5    1.84    0.30
  14   5  -5    1.17    0.26
  14   5  -6    0.91    0.24
 -14   5   6    0.80    0.28
  14   5  -6    0.39    0.26
 -14   5  -7    1.57    0.71
  14  -5  -7    1.54    0.30
 -14  -5   7    1.32    0.27
  14  -5  -7    1.42    0.20
 -14  -5  -7    1.66    0.68
 -14   5   7    1.60    0.30
  14   5  -7    1.25    0.26
 -14   5  -8   31.18    2.63
  14  -5  -8   34.71    2.49
 -14  -5   8   36.23    2.48
  14   5  -8   33.92    2.46
 -14  -5  -8   33.11    2.55
 -14   5   8   34.98    2.51
 -14   5  -9    1.37    0.56
 -14  -5   9    1.37    0.27
  14   5  -9    1.24    0.23
 -14  -5  -9    0.84    0.43
 -14   5   9    1.22    0.25
  14  -5 -10    0.80    0.18
 -14   5 -10    1.59    0.46
 -14  -5  10    0.94    0.23
  14   5 -10    0.69    0.20
 -14   5  10    0.88    0.23
 -14  -5 -10    1.22    0.38
 -14   6   0    0.77    0.21
  14  -6   0    0.51    0.18
  14   6   0    0.36    0.28
  14  -6  -1   45.98    3.19
 -14   6  -1   45.10    3.22
  14  -6   1   42.34    3.21
  14  -6   1   46.92    3.19
 -14   6   1   43.29    3.20
  14   6  -1   46.70    3.27
 -14   6  -2    0.95    0.28
  14  -6  -2    0.56    0.15
 -14  -6   2    0.96    0.47
  14   6   2    0.73    0.34
 -14   6  -2    0.79    0.26
 -14  -6   2    0.25    0.31
 -14   6   2    0.50    0.19
  14  -6   2    0.85    0.16
  14  -6   2    0.65    0.16
  14   6   3   51.98    3.61
 -14  -6   3   41.54    3.30
 -14   6  -3   44.89    3.32
 -14   6  -3   49.32    3.31
  14  -6  -3   48.82    3.30
  14  -6  -3   47.52    3.29
  14  -6   3   43.03    3.27
 -14   6   3   46.43    3.32
  14   6  -3   43.48    3.32
 -14   6  -4    8.65    0.84
  14  -6  -4    8.45    0.64
 -14  -6   4    6.74    0.70
 -14   6  -4    8.88    0.76
  14  -6  -4    7.18    0.60
  14   6   4    6.99    0.82
  14  -6   4    6.83    0.65
 -14   6   4    7.12    0.70
  14   6  -4    6.90    0.66
 -14   6  -5   36.21    3.00
 -14  -6   5   36.67    2.94
  14  -6  -5   45.65    2.95
  14  -6  -5   43.55    2.91
  14   6  -5   41.66    2.95
 -14  -6   6    0.35    0.26
  14  -6  -6    0.22    0.25
  14  -6  -6    0.21    0.13
 -14   6  -6    0.40    0.56
  14   6  -6   -0.04    0.27
  14   6  -6    0.48    0.23
 -14   6   6   -0.28    0.29
 -14  -6   7   22.11    1.59
 -14   6  -7   19.41    1.87
 -14   6   7   22.60    1.62
  14   6  -7   20.16    1.58
 -14  -6  -7   22.15    1.84
 -14  -6   8    0.58    0.25
  14  -6  -8    0.68    0.24
 -14   6  -8   -0.54    0.56
 -14  -6  -8    1.39    0.49
  14   6  -8    0.39    0.22
 -14   6   8    0.92    0.25
  14  -6  -9   11.82    0.86
 -14   6  -9    8.64    1.05
 -14  -6   9   11.18    0.86
  14   6  -9   11.12    0.85
 -14   6   9   11.10    0.86
 -14  -6  -9   10.29    0.99
  14  -6 -10    0.03    0.15
 -14   6 -10    0.33    0.41
 -14  -6 -10   -0.20    0.59
  14   6 -10   -0.01    0.32
 -14   6  10   -0.21    0.32
  14   7   0   45.82    3.37
  14  -7   0   42.90    3.32
  14  -7   0   47.42    3.27
 -14   7   0   48.03    3.28
 -14   7  -1    1.70    0.25
  14  -7  -1    1.12    0.21
 -14   7   1    1.42    0.24
  14  -7   1    1.86    0.26
  14   7  -1    2.18    0.44
 -14  -7   2    1.01    0.26
  14   7   2    0.49    0.36
  14  -7  -2    0.62    0.18
 -14   7   2    0.80    0.19
  14  -7   2    0.73    0.19
  14   7  -2    0.56    0.21
  14   7   3    8.76    0.84
 -14   7  -3    7.34    0.70
 -14  -7   3    6.44    0.69
  14  -7  -3    8.27    0.63
 -14   7  -3    7.23    0.75
  14  -7  -3    7.49    0.62
  14   7  -3    7.54    0.67
 -14   7   3    7.00    0.66
  14  -7   3    8.00    0.61
 -14  -7   4   66.02    5.12
 -14   7  -4   77.05    5.14
  14   7   4   74.94    5.18
  14  -7  -4   72.84    5.12
 -14   7  -4   77.13    5.16
  14  -7  -4   78.66    5.13
 -14   7   4   72.40    5.15
  14   7  -4   68.08    5.15
  14  -7   4   64.06    5.10
 -14   7  -5    0.89    0.41
  14  -7  -5    1.46    0.22
  14  -7  -5    0.62    0.23
 -14  -7   5    0.92    0.30
  14  -7   5    1.02    0.20
  14   7  -5    1.01    0.24
 -14  -7   6    0.49    0.26
  14  -7  -6    0.06    0.24
  14  -7  -6    0.27    0.11
  14   7  -6    0.28    0.27
 -14  -7  -6    0.22    0.68
 -14   7   6    0.39    0.29
 -14  -7   7    0.30    0.50
  14  -7  -7    0.56    0.34
 -14  -7  -7    0.99    0.57
  14  -7  -8   32.70    2.33
 -14  -7   8   33.95    2.32
 -14   7  -8   26.75    2.44
 -14   7   8   34.19    2.33
  14   7  -8   31.83    2.31
 -14  -7  -8   32.62    2.40
 -14  -7   9    0.91    0.23
  14  -7  -9    0.66    0.19
 -14   7  -9    1.15    0.48
  14   7  -9    0.95    0.21
 -14  -7  -9    0.90    0.38
  14  -8   0    7.28    0.56
  14   8   0    7.09    0.75
  14  -8   0    7.42    0.59
 -14   8   0    6.24    0.60
  14  -8  -1   39.45    2.69
 -14  -8   1   37.48    2.72
 -14  -8   1   35.56    2.80
 -14   8  -1   41.47    2.71
  14  -8  -1   34.99    2.71
 -14   8  -1   37.51    2.71
  14  -8   1   35.03    2.69
  14  -8   1   39.68    2.69
 -14   8   1   38.66    2.70
  14   8  -1   37.71    2.77
  14  -8  -2   -0.07    0.13
 -14  -8   2   -0.10    0.22
 -14   8  -2    0.02    0.23
 -14   8  -2   -0.22    0.19
 -14  -8   2   -0.29    0.20
  14   8   2   -0.44    0.32
  14  -8  -2   -0.10    0.15
  14  -8   2   -0.10    0.12
  14   8  -2   -0.09    0.21
 -14   8   2   -0.05    0.17
  14  -8   2    0.05    0.12
  14   8   3   34.99    2.40
  14  -8  -3   31.48    2.29
 -14   8  -3   33.21    2.31
 -14   8  -3   30.51    2.33
  14  -8  -3   34.06    2.30
 -14  -8   3   29.52    2.30
  14  -8   3   31.13    2.28
 -14   8   3   31.04    2.31
  14   8  -3   31.24    2.33
  14  -8  -4   10.43    0.77
  14   8   4    9.62    0.90
 -14   8  -4   10.65    0.81
 -14  -8   4    8.72    0.81
  14  -8  -4    9.53    0.73
 -14   8  -4   10.19    0.90
 -14   8   4    8.67    0.83
  14  -8   4    8.18    0.74
  14   8  -4    9.15    0.80
  14  -8  -5   16.52    1.13
 -14  -8   5   12.67    1.15
 -14   8  -5   14.75    1.15
 -14   8  -5   13.24    1.25
 -14  -8  -5   11.62    1.42
  14  -8   5   14.09    1.08
  14   8  -5   16.96    1.15
 -14   8  -6    2.90    0.61
 -14  -8   6    2.53    0.37
  14  -8  -6    2.10    0.34
 -14  -8  -6    2.02    0.67
  14   8  -6    2.45    0.45
 -14   8   6    2.32    0.39
 -14  -8   7   25.26    1.69
 -14   8  -7   20.07    1.87
 -14  -8  -7   22.19    1.83
  14   8  -7   21.76    1.67
 -14   8   7   24.26    1.71
  14  -8  -8    0.36    0.20
 -14   8  -8    0.04    0.50
 -14  -8   8    0.52    0.24
 -14   8   8    0.64    0.22
 -14   8   8    0.12    0.32
  14   8  -8    0.13    0.20
 -14  -8  -8    0.48    0.40
 -14   8  -9    9.75    1.01
  14  -8  -9   11.88    0.85
 -14  -8   9   11.61    0.86
 -14  -8  -9   10.30    0.94
 -14   8   9   10.63    0.86
  14   8  -9   10.93    0.85
 -14  -9   0   43.49    3.15
 -14  -9   0   39.37    3.14
 -14   9   0   43.15    3.15
  14  -9   0   47.37    3.12
  14  -9   0   45.46    3.14
 -14   9   0   45.53    3.14
  14   9   0   43.40    3.23
 -14  -9   1    0.50    0.21
  14   9   1    0.33    0.32
 -14   9  -1    0.41    0.18
 -14   9  -1    0.65    0.22
 -14  -9   1    0.17    0.21
  14  -9  -1    0.24    0.15
  14  -9  -1    0.34    0.13
 -14   9   1    0.21    0.16
  14  -9   1    0.26    0.13
  14   9  -1    0.45    0.26
 -14  -9  -1    0.30    0.28
 -14   9   1    0.42    0.24
  14  -9  -2    2.60    0.34
 -14  -9   2    2.25    0.37
 -14   9  -2    3.45    0.39
  14  -9  -2    2.97    0.32
 -14  -9   2    2.28    0.43
  14  -9   2    2.83    0.30
 -14   9   2    2.71    0.37
 -14  -9  -2    2.32    0.53
  14   9  -2    3.11    0.46
  14  -9  -3    6.55    0.54
 -14  -9   3    6.48    0.59
  14   9   3    6.45    0.75
  14  -9  -3    5.93    0.53
 -14   9  -3    5.76    0.65
 -14   9  -3    6.31    0.58
  14  -9   3    6.71    0.52
  14   9  -3    5.98    0.60
 -14  -9  -3    4.90    0.72
 -14   9   3    5.79    0.59
 -14   9  -4   51.19    3.41
  14  -9  -4   49.27    3.39
  14  -9  -4   50.30    3.41
 -14  -9   4   44.79    3.40
 -14   9  -4   49.77    3.45
  14   9   4   49.32    3.46
 -14  -9  -4   45.69    3.46
  14  -9   4   43.35    3.38
 -14   9   4   47.86    3.43
  14   9  -4   45.03    3.42
 -14  -9   5    0.16    0.27
  14  -9  -5    0.30    0.20
 -14   9  -5    0.24    0.41
  14   9  -5    0.25    0.24
 -14  -9  -5    0.27    0.47
 -14   9   5    0.42    0.29
  14  -9   5    0.58    0.19
  14  -9  -6    0.22    0.25
 -14  -9   6    1.21    0.30
 -14   9  -6    0.77    0.52
 -14   9   6    0.78    0.32
 -14  -9  -6    0.34    0.48
  14   9  -6    0.29    0.29
 -14  -9   7    0.19    0.24
  14  -9  -7    0.14    0.22
 -14   9  -7   -0.15    0.50
 -14   9   7    0.47    0.25
  14   9  -7    0.25    0.20
 -14  -9  -7    0.33    0.43
 -14   9   7    0.18    0.27
  14  -9  -8   28.13    2.09
 -14   9  -8   27.19    2.19
 -14  -9   8   31.19    2.09
  14   9  -8   28.77    2.08
 -14  -9  -8   28.49    2.14
 -14   9   8   29.39    2.09
  14 -10   0    1.12    0.22
  14  10   0    0.26    0.28
 -14  10   0    0.45    0.18
 -14  10   0    0.66    0.24
 -14 -10   0    0.83    0.22
 -14 -10   1   33.44    2.42
 -14  10  -1   33.54    2.45
 -14 -10   1   31.81    2.42
  14 -10  -1   34.53    2.41
 -14  10  -1   35.48    2.43
  14  10  -1   36.78    2.51
  14 -10   1   34.29    2.41
 -14  10   1   34.00    2.43
 -14 -10  -1   31.48    2.43
 -14 -10  -1   32.23    2.43
 -14  10   1   33.94    2.46
  14  10   2    3.00    0.63
 -14  10  -2    3.72    0.43
  14 -10  -2    4.08    0.37
 -14  10  -2    3.27    0.50
 -14 -10   2    3.45    0.46
 -14  10   2    3.35    0.41
  14 -10   2    3.73    0.34
 -14  10   2    3.34    0.57
  14  10  -2    4.06    0.49
 -14 -10  -2    2.61    0.52
 -14 -10  -2    3.33    0.47
 -14  10  -3   28.13    1.87
 -14  10  -3   27.51    1.91
  14 -10  -3   25.33    1.84
  14  10   3   26.88    1.96
 -14 -10   3   26.32    1.86
  14 -10   3   23.74    1.83
  14  10  -3   23.56    1.89
 -14  10   3   26.07    1.87
 -14  10   3   21.83    1.92
 -14 -10  -3   25.20    1.89
 -14  10  -4    0.55    0.31
 -14  10  -4    0.44    0.22
  14 -10  -4    0.41    0.18
  14  10   4    0.51    0.29
  14 -10   4    0.18    0.16
 -14  10   4    0.67    0.24
 -14  10   4    0.48    0.35
 -14 -10  -4    0.48    0.35
  14  10  -4    0.40    0.21
 -14 -10   5   28.09    2.09
  14  10   5   26.69    2.15
 -14  10  -5   28.13    2.40
  14 -10   5   27.38    2.02
 -14  10   5   30.64    2.26
  14  10  -5   29.84    2.07
 -14 -10  -5   25.78    2.12
 -14  10  -6    0.47    0.49
  14 -10  -6   -0.22    0.20
 -14 -10  -6    0.07    0.43
 -14  10   6   -0.23    0.24
 -14  10   6   -0.01    0.28
 -14 -10   7   17.83    1.17
 -14  10  -7   14.58    1.36
  14 -10  -7   13.39    1.16
 -14 -10  -7   16.70    1.28
  14  10  -7   15.17    1.15
 -14  10   7   12.72    1.28
 -14  10   7   16.37    1.18
 -14 -10   8    2.15    0.40
 -14  10  -8    2.98    0.67
  14 -10  -8    2.13    0.35
 -14 -10  -8    2.92    0.53
 -14  10   8    2.45    0.39
  14  10  -8    1.76    0.31
  14 -11   0   60.83    4.32
 -14 -11   0   62.77    4.34
 -14  11   0   65.07    4.37
 -14 -11   0   61.38    4.33
  14  11   0   54.76    4.41
 -14  11   0   61.60    4.34
 -14 -11   1    6.60    0.55
  14 -11  -1    7.19    0.52
 -14  11  -1    5.72    0.62
 -14  11  -1    6.08    0.55
 -14 -11   1    5.82    0.58
  14  11   1    4.64    0.72
 -14 -11  -1    5.35    0.58
 -14 -11  -1    5.03    0.59
 -14  11   1    6.72    0.55
  14 -11   1    7.05    0.51
 -14  11   1    5.94    0.66
  14 -11  -2    2.50    0.34
 -14 -11   2    3.66    0.43
 -14  11  -2    3.76    0.51
 -14  11  -2    3.22    0.40
 -14 -11  -2    3.32    0.45
  14  11  -2    2.23    0.46
 -14 -11  -2    3.43    0.48
 -14  11   2    3.62    0.59
 -14  11   2    3.82    0.41
  14 -11   2    2.66    0.32
  14  11   3   -0.17    0.29
 -14  11  -3    0.32    0.20
 -14 -11   3    0.48    0.23
  14 -11  -3    0.10    0.15
 -14  11  -3    0.40    0.28
  14  11  -3    0.05    0.22
 -14  11   3    0.19    0.36
  14 -11   3    0.23    0.14
 -14  11   3    0.54    0.22
 -14 -11  -3    0.37    0.30
  14 -11  -4   43.90    2.87
 -14 -11   4   38.94    2.86
 -14  11  -4   42.55    2.87
  14  11   4   45.75    2.91
 -14  11  -4   36.74    2.93
  14  11  -4   41.36    2.88
  14 -11   4   38.24    2.83
 -14  11   4   35.13    2.91
 -14 -11  -4   37.76    2.89
 -14  11   4   36.93    2.89
 -14 -11  -4   40.54    2.89
  14  11   5    5.56    0.76
  14 -11  -5    7.26    0.62
 -14 -11   5    7.39    0.66
 -14  11  -5    6.98    0.85
 -14  11   5    5.44    0.66
  14 -11   5    5.99    0.58
  14  11  -5    6.77    0.66
 -14 -11  -5    7.46    0.77
 -14  11  -6    0.65    0.50
  14 -11  -6    0.62    0.22
 -14 -11   6    0.89    0.27
 -14  11   6    0.91    0.35
 -14 -11  -6    0.50    0.37
 -14  11   6    0.73    0.25
 -14  11  -7    1.10    0.50
 -14 -11   7    1.39    0.27
  14 -11  -7    1.75    0.36
 -14  11   7    2.26    0.39
 -14 -11  -7    1.43    0.37
  14  11  -7    1.61    0.26
  14 -12   0    1.19    0.25
 -14  12   0    1.23    0.32
  14  12   0    0.95    0.34
 -14 -12   0    1.86    0.42
 -14 -12   0    0.51    0.28
 -14  12   0    0.92    0.20
  14 -12  -1   12.19    0.99
 -14  12  -1   11.78    1.02
 -14  12  -1   11.98    1.10
 -14 -12   1   11.00    0.97
 -14  12   1   11.77    1.06
  14  12  -1   14.11    1.11
 -14  12   1   12.03    0.97
 -14 -12  -1   11.05    0.93
 -14 -12   2    2.31    0.43
 -14  12  -2    3.00    0.39
 -14  12  -2    3.14    0.65
  14  12   2    2.88    0.59
  14 -12  -2    3.80    0.36
 -14  12   2    2.15    0.53
  14 -12   2    3.77    0.33
 -14 -12  -2    2.69    0.43
 -14  12   2    3.12    0.48
 -14 -12  -2    2.74    0.46
  14  12  -2    3.99    0.50
  14  12   3   17.57    1.38
  14 -12  -3   18.00    1.28
 -14  12  -3   18.78    1.29
 -14 -12   3   17.42    1.29
 -14  12  -3   18.40    1.37
  14  12  -3   16.29    1.32
 -14 -12  -3   16.74    1.32
 -14 -12  -3   18.61    1.31
 -14  12   3   14.23    1.39
  14 -12   3   16.04    1.26
 -14  12   3   17.46    1.31
 -14  12  -4    2.09    0.38
 -14  12  -4    0.95    0.40
  14 -12  -4    1.88    0.33
 -14 -12   4    2.15    0.42
  14  12  -4    1.29    0.25
 -14 -12  -4    1.08    0.34
 -14 -12  -4    1.44    0.31
 -14  12   4    0.97    0.38
 -14  12   4    1.10    0.27
  14 -12   4    1.40    0.22
 -14 -12   5   18.12    1.41
  14 -12  -5   20.01    1.40
 -14  12  -5   16.62    1.53
  14 -12   5   19.00    1.36
 -14 -12  -5   19.14    1.46
 -14 -12  -5   17.28    1.49
  14  12  -5   19.48    1.42
 -14  12   5   19.10    1.46
  14 -12  -6    0.30    0.19
 -14  12  -6    0.03    0.43
 -14 -12   6   -0.27    0.24
 -14 -12  -6   -0.15    0.33
  14  12  -6    0.67    0.26
 -14  12   6    0.20    0.22
 -14  13   0   36.44    2.55
 -14  13   0   35.60    2.60
 -14 -13   0   36.13    2.54
  14  13   0   33.69    2.63
  14 -13   0   36.10    2.53
 -14 -13   0   35.02    2.54
 -14  13  -1    0.23    0.26
  14  13   1    0.36    0.28
  14 -13  -1    0.56    0.14
 -14  13  -1    0.37    0.16
 -14 -13   1    0.62    0.20
 -14 -13  -1    0.29    0.23
 -14  13   1    0.36    0.17
  14  13  -1    0.59    0.26
  14 -13   1    0.34    0.13
 -14  13   1    0.49    0.35
 -14 -13  -1    0.62    0.19
 -14  13  -2    3.62    0.55
 -14 -13   2    3.16    0.42
  14 -13  -2    2.47    0.32
 -14  13  -2    3.22    0.37
  14  13  -2    2.35    0.45
 -14 -13  -2    3.58    0.41
 -14  13   2    2.63    0.39
 -14  13   2    3.29    0.67
  14 -13   2    2.46    0.32
 -14 -13  -2    2.74    0.46
 -14  13  -3    0.20    0.18
 -14 -13   3    0.04    0.22
 -14  13  -3    0.08    0.36
  14 -13  -3    0.03    0.14
  14  13   3    0.18    0.26
 -14 -13  -3    0.33    0.26
  14  13  -3    0.17    0.20
 -14  13   3    0.29    0.21
 -14  13   3   -0.06    0.39
  14 -13   3    0.02    0.14
 -14 -13  -3   -0.21    0.22
 -14 -13   4   25.21    1.85
 -14  13  -4   22.87    1.94
  14 -13  -4   28.45    1.85
  14  13   4   27.41    1.89
 -14  13   4   21.89    1.86
 -14 -13  -4   24.59    1.88
 -14  13   4   25.48    1.93
  14  13  -4   26.26    1.86
 -14 -13  -4   27.11    1.88
  14 -13   4   24.27    1.83
  14 -13  -5    1.03    0.21
 -14  13  -5    1.67    0.49
  14  13  -5    1.84    0.32
 -14  13   5    1.25    0.26
 -14 -13  -5    1.40    0.32
 -14 -13  -5    2.01    0.47
 -14  13  -6    1.25    0.54
 -14 -13  -6    0.74    0.35
  14  14   0    1.28    0.29
 -14  14   0    0.71    0.18
  14 -14   0    0.91    0.16
 -14 -14   0    1.01    0.22
 -14  14   0    0.78    0.40
 -14  14  -1   18.98    1.61
 -14 -14   1   19.99    1.52
  14 -14  -1   20.97    1.49
 -14  14  -1   20.45    1.51
 -14 -14  -1   21.15    1.53
  14  14  -1   21.96    1.59
 -14 -14  -1   20.87    1.51
 -14  14   1   21.21    1.52
  14 -14   1   20.25    1.49
  14 -14  -2    0.05    0.13
 -14  14  -2   -0.14    0.16
 -14 -14   2   -0.08    0.20
  14  14   2   -0.01    0.25
 -14  14   2   -0.29    0.17
  14 -14   2   -0.03    0.14
  14  14  -2    0.01    0.20
 -14  14   2   -0.19    0.47
 -14 -14  -2   -0.22    0.25
 -14  14  -3   13.23    1.01
 -14 -14   3   12.79    1.01
  14 -14  -3   13.65    0.98
  14  14   3   14.29    1.06
 -14  14  -3   11.31    1.17
 -14  14   3   12.56    1.02
  14  14  -3   12.93    1.02
 -14 -14  -3   14.25    1.01
  14 -14   3   11.42    0.97
  14  14   4    1.45    0.28
 -14 -14   4    1.64    0.28
 -14  14  -4    1.49    0.51
  14 -14  -4    1.46    0.31
 -14 -14  -4    1.16    0.29
 -14  14   4    0.82    0.25
  14  14  -4    1.36    0.25
  14 -15   0   25.89    1.77
  14  15   0   24.28    1.84
 -14 -15   0   23.55    1.89
 -14  15   0   24.57    1.79
 -14 -15   1    1.68    0.30
 -14  15  -1    1.09    0.20
  14 -15  -1    1.01    0.17
 -14  15  -1    0.17    0.84
  14  15   1    0.83    0.28
 -14 -15  -1    1.20    0.29
 -14  15   1    0.79    0.92
  14  15  -1    1.30    0.27
  14 -15   1    1.01    0.17
  14 -15  -2    2.33    0.31
  14  15   2    2.18    0.48
 -14 -15   2    3.76    0.69
  14 -15   2    2.59    0.40
 -14  15   2    2.40    0.40
 -15   0   0   -0.28    0.43
  15   0   1   64.41    4.86
  15   0  -1   63.98    4.84
 -15   0  -1   75.16    4.86
  15   0   2    1.96    0.36
  15   0  -2    2.60    0.41
  15   0  -3   45.67    3.12
  15   0  -3   41.90    3.14
 -15   0   4    0.93    0.46
  15   0  -4    0.60    0.17
  15   0  -4    0.42    0.24
  15   0  -5   22.92    1.74
  15   0  -5   23.76    1.71
 -15   0   6    0.81    0.25
  15   0  -6    0.67    0.28
  15   0  -7   55.35    3.83
 -15   0   7   48.19    3.80
  15   0  -7   57.05    3.82
 -15   0   8    0.86    0.23
  15   0  -8    0.76    0.25
 -15   0  -9   22.01    1.81
  15   0  -9   21.83    1.64
 -15   0   9   22.85    1.64
 -15   0 -10   -0.07    0.51
  15   0 -10    0.05    0.19
 -15   0  10   -0.18    0.22
  15  -1   0    0.35    0.48
 -15  -1   0    1.01    0.40
  15   1   0    0.12    0.26
 -15  -1   1    0.85    0.41
  15  -1  -1    0.75    0.24
 -15  -1  -1    1.42    0.58
  15  -1   1    0.83    0.31
  15   1  -1    0.63    0.21
  15   1   2   79.34    5.28
  15  -1  -2   72.55    5.23
  15  -1   2   70.15    5.23
  15   1  -2   72.32    5.23
  15  -1  -3    4.19    0.47
  15   1   3    4.19    0.66
  15  -1  -3    4.11    0.46
  15   1  -3    5.33    0.48
 -15  -1   4    1.87    0.36
  15  -1  -4    1.68    0.27
  15  -1  -4    1.58    0.32
  15   1  -4    1.57    0.29
 -15   1   4    1.63    0.35
  15   1  -4    1.60    0.33
  15  -1  -5    0.16    0.16
  15  -1  -5   -0.29    0.24
 -15  -1   5    0.35    0.24
  15   1  -5   -0.19    0.26
  15   1  -5    0.30    0.17
 -15   1   5   -0.14    0.25
  15  -1  -6   23.70    1.73
 -15  -1   6   23.52    1.74
 -15   1   6   25.13    1.75
  15   1  -6   21.79    1.77
  15   1  -6   24.31    1.74
  15  -1  -7    5.28    0.55
 -15   1  -7    4.48    1.21
  15  -1  -7    6.06    0.62
 -15  -1   7    5.59    0.57
 -15   1   7    5.74    0.56
  15   1  -7    4.94    0.61
  15   1  -7    6.22    0.61
  15  -1  -8    0.59    0.25
 -15  -1   8    0.24    0.22
 -15  -1  -8   -0.18    1.33
 -15   1   8    0.12    0.23
  15   1  -8    0.66    0.23
 -15  -1   9    1.52    0.27
 -15   1  -9    0.59    0.63
  15  -1  -9    1.98    0.39
 -15   1   9    1.76    0.28
 -15  -1  -9    0.88    0.58
 -15   1 -10   19.92    1.61
 -15  -1  10   19.82    1.46
  15  -1 -10   20.60    1.45
 -15  -1 -10   18.41    1.57
 -15   1  10   21.25    1.46
  15   1 -10   18.61    1.45
  15   2   0    0.38    0.28
  15  -2   0   -0.05    0.22
  15  -2  -1   50.98    4.00
  15   2   1   52.99    4.04
  15   2  -1   64.14    4.03
  15   2   2    0.59    0.32
  15  -2  -2    0.48    0.19
  15  -2   2    0.58    0.25
  15   2  -2    0.87    0.21
  15  -2  -3   18.52    1.35
  15   2   3   20.21    1.44
  15  -2  -3   18.87    1.33
 -15   2   3   15.76    1.41
  15   2  -3   18.26    1.36
  15   2  -3   17.12    1.36
 -15  -2   4    0.24    0.29
  15  -2  -4    0.08    0.21
  15   2  -4    0.09    0.26
 -15  -2   5   26.36    1.73
  15  -2  -5   24.36    1.75
  15  -2  -5   21.10    1.70
  15   2  -5   20.42    1.72
 -15   2   5   25.52    1.75
 -15  -2   6    0.52    0.24
  15   2  -6    1.00    0.26
 -15   2   6    1.01    0.27
  15   2  -6    0.92    0.23
 -15  -2   7   29.98    2.41
  15  -2  -7   37.29    2.41
  15  -2  -7   32.94    2.45
 -15   2   7   33.38    2.43
  15   2  -7   33.80    2.43
  15  -2  -8    1.08    0.29
 -15   2  -8    1.66    1.15
 -15  -2   8    1.46    0.27
 -15  -2  -8    0.15    0.65
 -15   2   8    0.96    0.27
  15   2  -8    0.99    0.27
  15  -2  -9   26.25    2.01
 -15   2  -9   29.43    2.18
 -15  -2   9   28.72    2.00
 -15   2   9   27.42    2.01
  15   2  -9   27.34    2.01
 -15  -2  -9   26.79    2.12
 -15  -2  10    0.06    0.23
  15  -2 -10    0.39    0.19
 -15  -2 -10    0.95    0.46
 -15   2  10    0.67    0.23
  15   2 -10    0.55    0.20
  15   3   0   -0.18    0.25
  15  -3   0    0.58    0.21
  15  -3  -1    0.69    0.21
  15   3   1    0.46    0.29
  15  -3   1    0.51    0.22
  15   3  -1    0.63    0.22
  15  -3  -2   54.49    4.07
  15   3   2   62.29    4.13
  15  -3  -2   61.01    4.05
  15   3  -2   57.16    4.09
 -15   3   2   55.72    4.07
  15  -3   2   52.49    4.06
 -15  -3   3    2.65    0.55
  15   3   3    3.08    0.61
  15  -3  -3    2.57    0.33
  15  -3  -3    3.31    0.38
  15   3  -3    2.81    0.37
 -15   3   3    2.29    0.36
  15   3  -3    3.17    0.39
  15  -3  -4   -0.01    0.22
  15  -3  -4   -0.04    0.14
 -15  -3   4   -0.03    0.30
  15   3  -4    0.18    0.17
  15   3  -4   -0.15    0.30
  15  -3  -5    0.38    0.24
 -15  -3   5    0.62    0.24
  15   3  -5    0.14    0.27
 -15   3   5    0.40    0.28
  15   3  -5    0.74    0.21
  15  -3  -6   45.81    3.24
 -15  -3   6   44.40    3.25
  15   3  -6   44.87    3.27
  15   3  -6   46.36    3.27
 -15   3   6   46.42    3.28
 -15  -3   7    1.84    0.30
  15  -3  -7    2.68    0.51
 -15   3  -7    2.32    0.98
  15   3  -7    2.50    0.44
 -15   3  -8    1.32    0.73
 -15  -3  -8   -0.15    0.60
 -15  -3   9    4.65    0.45
  15  -3  -9    3.53    0.46
 -15   3  -9    2.32    0.68
 -15   3   9    3.32    0.48
  15   3  -9    3.91    0.45
  15  -3 -10   16.74    1.24
 -15   3 -10   16.06    1.38
 -15  -3  10   17.39    1.25
  15   3 -10   17.12    1.24
 -15   3  10   16.99    1.25
 -15  -3 -10   15.95    1.35
  15  -4   0    0.10    0.19
  15   4   0   -0.24    0.25
  15  -4  -1   55.14    4.45
  15  -4   1   69.82    4.45
  15  -4  -2    0.70    0.16
  15   4   2    0.73    0.34
 -15   4   2    1.19    0.26
  15  -4   2    0.63    0.19
  15   4  -2    0.71    0.21
  15   4   3   30.03    2.01
  15  -4  -3   28.23    1.91
  15  -4  -3   25.10    2.02
 -15   4   3   26.93    1.95
  15   4  -3   22.22    1.97
  15  -4  -4   -0.12    0.17
 -15   4   4   -0.16    0.28
  15   4  -4   -0.09    0.31
  15   4  -4    0.24    0.18
  15  -4  -5   23.73    1.60
  15  -4  -5   19.82    1.55
 -15  -4   5   24.11    1.60
 -15   4   5   19.90    1.62
  15   4  -5   19.21    1.59
  15   4  -5   21.67    1.61
  15  -4  -6    0.46    0.27
 -15   4  -6    0.90    0.81
 -15  -4   6    0.59    0.22
  15   4  -6    0.68    0.24
 -15   4   6    0.23    0.28
  15   4  -6    0.34    0.24
  15  -4  -7   27.80    2.22
 -15  -4   7   28.90    2.18
  15   4  -7   30.79    2.18
 -15   4   7   32.69    2.20
 -15   4  -8    0.58    0.72
  15  -4  -8    2.09    0.43
 -15   4   8    1.55    0.28
 -15  -4  -8    0.73    0.56
  15   4  -8    1.12    0.26
 -15   4  -9   26.27    1.88
 -15  -4   9   25.00    1.72
  15  -4  -9   22.01    1.72
 -15   4   9   22.87    1.72
  15   4  -9   22.89    1.71
 -15  -4  -9   21.97    1.80
 -15  -4  10    0.13    0.21
 -15   4 -10    0.18    0.47
  15  -4 -10    0.48    0.17
 -15   4  10    0.39    0.21
  15   4 -10    0.44    0.19
 -15  -4 -10    0.06    0.42
  15   5   0    0.22    0.27
  15  -5   0    0.30    0.18
  15  -5   0    0.19    0.16
  15  -5  -1    0.54    0.20
  15   5   1    0.28    0.32
 -15   5   1    0.36    0.23
  15   5  -1    0.64    0.24
  15  -5   1    0.84    0.18
  15   5   2   73.49    4.97
  15  -5  -2   69.15    4.86
  15  -5   2   64.96    4.87
 -15   5   2   67.80    4.88
  15  -5  -3    4.87    0.44
  15   5   3    4.45    0.66
  15  -5  -3    4.35    0.43
  15   5  -3    4.54    0.49
  15   5   4    0.17    0.34
  15  -5  -4    0.05    0.18
 -15  -5   4    0.74    0.32
  15  -5  -4    0.25    0.13
  15   5  -4    0.27    0.19
 -15   5   4    0.49    0.26
  15   5  -4   -0.09    0.30
 -15  -5   5    0.52    0.26
 -15   5  -5    0.82    0.53
  15  -5  -5    0.60    0.23
  15  -5  -5    0.66    0.16
  15   5  -5    0.86    0.22
  15   5  -5    0.65    0.27
 -15   5  -6   33.85    2.62
  15  -5  -6   33.05    2.39
 -15  -5   6   35.28    2.42
  15  -5  -6   28.77    2.44
 -15   5   6   34.43    2.46
  15   5  -6   36.03    2.43
  15   5  -6   32.44    2.44
  15  -5  -7    3.77    0.55
 -15  -5   7    3.74    0.51
 -15  -5  -7    3.83    0.85
 -15   5   7    4.17    0.56
  15   5  -7    4.05    0.50
 -15   5  -8    0.08    0.63
 -15  -5   8   -0.07    0.23
 -15  -5  -8    0.93    0.52
  15   5  -8    0.06    0.21
 -15  -5   9    1.23    0.26
  15  -5  -9    1.81    0.36
 -15   5  -9    1.91    0.56
 -15  -5  -9    1.32    0.47
  15   5  -9    1.50    0.24
 -15   5   9    1.17    0.25
 -15  -5  10   12.93    0.97
 -15   5 -10   11.42    1.11
  15  -5 -10   12.78    0.96
 -15  -5 -10   11.76    1.08
  15   5 -10   14.71    1.09
 -15   5  10   12.92    0.99
  15   6   0    0.21    0.29
 -15   6   0   -0.08    0.20
  15  -6   0   -0.08    0.14
  15  -6  -1   58.05    3.98
 -15   6  -1   58.51    4.01
 -15   6   1   54.69    4.00
  15   6  -1   57.82    4.06
  15  -6   1   53.02    4.01
  15  -6   1   55.97    3.98
 -15   6  -2    0.89    0.31
  15   6   2    0.62    0.34
  15  -6  -2    0.68    0.18
 -15   6  -2    0.75    0.27
  15  -6   2    0.62    0.16
 -15   6  -3   18.56    1.68
  15  -6  -3   22.19    1.54
  15  -6  -3   21.49    1.52
 -15   6   3   20.66    1.55
  15   6  -3   21.30    1.57
 -15  -6   4    0.56    0.29
  15  -6  -4    0.24    0.13
  15  -6  -4    0.38    0.18
 -15   6  -4   -0.16    0.40
  15   6   4    0.72    0.34
 -15   6  -4    0.03    0.34
 -15   6   4    0.40    0.26
  15   6  -4    0.22    0.19
 -15  -6   5   25.90    1.77
  15  -6  -5   21.63    1.71
  15  -6  -5   26.58    1.76
  15   6  -5   20.81    1.75
  15   6  -5   26.33    1.77
 -15   6   5   20.87    1.79
 -15  -6   6    2.97    0.46
 -15   6  -6    1.67    0.62
  15  -6  -6    1.82    0.25
 -15   6   6    1.07    0.34
  15   6  -6    2.45    0.44
  15   6  -6    2.13    0.46
  15  -6  -7   16.12    1.45
 -15   6  -7   16.53    2.24
 -15  -6   7   18.68    1.46
 -15   6   7   20.54    1.50
 -15  -6  -7   19.95    1.70
 -15   6  -8    0.53    0.60
  15  -6  -8    0.32    0.22
 -15  -6  -8    0.46    0.51
 -15   6   8   -0.09    0.23
 -15  -6   9   17.44    1.20
  15  -6  -9   14.11    1.18
 -15   6  -9   17.10    1.37
 -15   6   9   15.33    1.19
 -15  -6  -9   16.24    1.31
  15   6  -9   15.17    1.19
 -15   7   0    0.39    0.20
  15  -7   0    0.31    0.14
  15  -7   0    0.35    0.16
  15   7   0    0.32    0.28
  15   7   1    0.86    0.34
 -15   7  -1    0.94    0.24
  15  -7  -1    0.68    0.15
  15  -7  -1    0.35    0.17
  15  -7   1    0.58    0.15
 -15   7   1    0.82    0.19
  15  -7   1    0.71    0.16
  15   7  -1    0.59    0.26
 -15   7  -2   74.98    4.86
  15  -7  -2   73.59    4.84
 -15  -7   2   62.91    4.87
  15  -7  -2   66.06    4.87
  15   7   2   71.17    4.95
 -15  -7   2   66.57    4.85
 -15   7  -2   63.63    4.86
  15   7  -2   70.37    4.90
 -15   7   2   69.76    4.85
  15  -7   2   63.57    4.84
  15  -7   2   71.18    4.83
  15  -7  -3    0.90    0.17
 -15  -7   3    0.65    0.28
 -15   7  -3    0.79    0.33
  15   7   3    1.34    0.36
  15  -7  -3    1.22    0.26
 -15   7   3    1.02    0.23
  15  -7   3    1.15    0.20
  15   7  -3    0.87    0.24
  15  -7  -4    0.49    0.19
  15  -7  -4    0.48    0.14
 -15  -7   4    0.40    0.27
  15   7   4    0.49    0.32
 -15   7  -4    0.86    0.37
 -15   7  -4    0.45    0.31
 -15   7   4    0.72    0.25
  15   7  -4    0.41    0.21
 -15   7  -5    0.12    0.41
  15  -7  -5    0.17    0.21
 -15  -7   5    0.13    0.29
  15  -7  -5    0.29    0.12
  15   7  -5   -0.04    0.21
 -15   7   5    0.34    0.29
  15  -7  -6   27.44    2.23
 -15   7  -6   31.27    2.37
  15  -7  -6   30.17    2.17
 -15  -7   6   32.37    2.22
  15   7  -6   34.28    2.21
 -15   7   6   29.12    2.25
  15   7  -6   30.21    2.23
 -15  -7  -6   27.72    2.48
 -15  -7   7    1.04    0.26
  15  -7  -7    0.90    0.27
 -15   7  -7   -0.16    0.63
 -15  -7  -7    1.20    0.60
  15   7  -7    1.51    0.26
 -15   7  -8    1.15    0.58
 -15  -7   8    0.80    0.24
  15  -7  -8    0.76    0.22
 -15  -7  -8    0.31    0.45
  15   7  -8    0.62    0.21
 -15  -7   9    2.77    0.42
 -15   7  -9    3.17    0.68
  15  -7  -9    3.22    0.38
  15   7  -9    3.01    0.42
 -15   7   9    2.92    0.40
  15  -8   0    0.10    0.13
 -15   8   0   -0.13    0.18
 -15   8   0   -0.01    0.21
  15  -8   0    0.02    0.14
  15   8   0    0.20    0.29
  15  -8  -1   40.71    2.82
  15  -8  -1   36.01    2.84
 -15   8  -1   43.00    2.84
 -15  -8   1   39.28    2.84
 -15   8  -1   38.01    2.84
  15  -8   1   37.22    2.82
  15  -8   1   40.42    2.81
  15   8  -1   42.18    2.91
 -15   8   1   39.61    2.83
 -15  -8   2    0.71    0.22
  15  -8  -2    0.46    0.17
  15  -8  -2    0.62    0.15
  15   8   2    0.58    0.35
 -15   8  -2    0.72    0.22
 -15  -8   2    0.73    0.27
  15  -8   2    0.49    0.14
 -15   8   2    0.42    0.19
  15   8  -2    0.75    0.22
  15  -8   2    0.48    0.13
  15  -8  -3    9.57    0.74
  15  -8  -3   10.16    0.75
 -15   8  -3   10.14    0.82
  15   8   3   10.90    0.92
 -15   8  -3    9.49    0.85
 -15  -8   3    8.58    0.81
  15   8  -3    8.78    0.81
  15  -8   3    8.92    0.73
 -15   8   3    8.98    0.79
 -15   8  -4    0.15    0.26
 -15   8  -4   -0.24    0.34
 -15  -8   4    0.13    0.27
  15   8   4    0.03    0.31
  15  -8  -4   -0.13    0.17
  15  -8  -4   -0.03    0.13
  15  -8   4   -0.07    0.20
  15   8  -4    0.09    0.20
 -15   8   4   -0.45    0.24
  15  -8  -5   21.35    1.64
 -15  -8   5   23.07    1.71
 -15   8  -5   25.66    1.80
  15  -8  -5   24.74    1.69
  15   8  -5   21.12    1.69
 -15   8   5   20.17    1.72
 -15  -8  -5   23.16    1.91
 -15   8  -6    0.85    1.08
  15  -8  -6    0.71    0.50
 -15   8   6    0.46    0.52
 -15  -8  -6    0.85    0.63
  15  -8  -7   12.23    1.13
 -15  -8   7   15.59    1.12
 -15  -8  -7   11.62    1.33
  15   8  -7   15.96    1.12
 -15   8   7   16.27    1.14
  15  -8  -8    0.11    0.19
 -15   8  -8    0.11    0.52
 -15  -8   8   -0.13    0.22
 -15  -8  -8   -0.19    0.41
 -15   8   8   -0.51    0.32
  15   8  -8   -0.04    0.21
 -15   8   8    0.46    0.22
  15  -8  -9    9.98    0.85
 -15   8  -9   10.74    1.00
 -15  -8   9   12.29    0.87
 -15   8   9   12.22    0.91
 -15  -8  -9   11.14    0.96
  15   8  -9   10.42    0.87
 -15   9   0    1.75    0.33
  15  -9   0    1.31    0.24
 -15  -9   0    0.99    0.29
 -15   9   0    1.59    0.38
  15  -9  -1    0.27    0.15
  15  -9  -1    0.26    0.13
  15   9   1   -0.02    0.32
 -15   9  -1    0.30    0.22
 -15  -9   1    0.53    0.24
 -15   9  -1    0.21    0.19
 -15   9   1    0.24    0.18
 -15   9   1    0.13    0.25
 -15  -9  -1    0.76    0.30
  15  -9   1    0.16    0.13
  15   9  -1    0.60    0.25
 -15  -9   2   50.29    3.71
 -15   9  -2   53.51    3.73
  15  -9  -2   54.15    3.70
  15  -9  -2   50.59    3.72
  15   9   2   47.42    3.81
 -15   9  -2   56.46    3.72
 -15   9   2   52.96    3.71
 -15  -9  -2   47.93    3.74
  15  -9   2   53.11    3.69
  15   9  -2   54.72    3.77
 -15   9  -3    1.54    0.26
 -15  -9   3    1.05    0.26
  15   9   3    2.08    0.38
  15  -9  -3    1.62    0.29
 -15   9  -3    1.03    0.33
 -15  -9  -3    0.85    0.39
 -15   9   3    1.56    0.27
  15  -9  -4    0.41    0.19
 -15  -9   4    0.86    0.26
  15   9   4    0.57    0.31
 -15   9  -4    0.93    0.24
 -15   9   4    0.54    0.26
  15  -9   4    0.61    0.20
  15   9  -4    0.67    0.22
 -15  -9  -4    0.70    0.44
  15  -9  -5    0.85    0.22
 -15  -9   5    0.86    0.38
 -15   9  -5    0.63    0.46
 -15  -9  -5   -0.37    0.57
 -15   9  -6   25.75    2.14
 -15  -9   6   29.69    2.00
  15  -9  -6   23.81    2.00
 -15  -9  -6   23.43    2.12
 -15   9   6   25.88    2.03
  15   9  -6   28.13    2.02
  15   9  -6   30.98    1.99
 -15   9   6   30.08    2.01
 -15   9  -7    0.15    0.52
  15  -9  -7    0.52    0.21
 -15   9   7    0.42    0.27
 -15   9   7    0.57    0.24
 -15  -9  -7    0.63    0.44
  15   9  -7    0.49    0.23
 -15   9  -8    0.74    0.48
  15  -9  -8    0.69    0.19
  15   9  -8    0.55    0.23
 -15  -9  -8    0.83    0.38
 -15 -10   0    0.09    0.22
 -15  10   0   -0.29    0.16
 -15 -10   0   -0.40    0.25
  15  10   0   -0.15    0.27
  15 -10   0    0.02    0.12
  15 -10  -1   29.73    2.19
 -15 -10   1   31.54    2.21
 -15 -10   1   29.22    2.21
 -15  10  -1   33.01    2.21
 -15  10  -1   30.74    2.24
  15  10  -1   31.89    2.29
 -15 -10  -1   29.26    2.22
 -15  10   1   30.78    2.25
  15 -10   1   30.04    2.19
 -15  10   1   30.10    2.21
 -15 -10   2    1.24    0.26
  15  10   2    0.78    0.34
 -15  10  -2    0.92    0.27
  15 -10  -2    1.33    0.26
 -15  10  -2    1.85    0.35
  15 -10   2    1.35    0.25
  15  10  -2    1.12    0.26
 -15  10   2    0.64    0.32
  15  10   3   22.97    1.64
 -15 -10   3   19.44    1.55
 -15  10  -3   21.72    1.55
 -15  10  -3   20.09    1.59
  15 -10  -3   21.92    1.53
  15 -10   3   20.21    1.51
 -15 -10  -3   20.17    1.60
  15  10  -3   20.74    1.58
 -15  10   3   21.00    1.56
 -15  10  -4   -0.11    0.34
  15 -10  -4    0.11    0.18
 -15  10   4    0.02    0.34
  15  10  -4   -0.27    0.38
 -15 -10  -4    0.36    0.43
 -15  10   4   -0.40    0.24
 -15  10  -5   18.82    1.42
  15 -10  -5   17.29    1.29
 -15 -10   5   17.08    1.32
 -15  10   5   19.65    1.34
  15  10  -5   14.75    1.29
 -15  10   5   13.90    1.32
 -15 -10  -5   16.98    1.40
 -15 -10   6    1.35    0.28
 -15  10  -6    1.34    0.51
 -15  10   6    1.09    0.30
 -15  10   6    0.85    0.27
  15  10  -6    1.19    0.26
 -15  10  -7   12.05    1.27
 -15 -10   7   15.13    1.08
  15 -10  -7   13.96    1.09
 -15 -10  -7   12.10    1.19
  15  10  -7   14.82    1.08
 -15  10   7   15.71    1.09
  15 -10  -8    0.46    0.21
 -15  10  -8    0.39    0.45
 -15 -10   8    0.37    0.25
 -15  10   8    0.71    0.34
 -15 -10  -8    0.38    0.33
  15 -11   0    1.83    0.27
 -15  11   0    1.90    0.35
 -15  11   0    2.95    0.47
 -15 -11   0    2.43    0.39
 -15 -11   1    0.48    0.24
 -15  11  -1    0.62    0.26
 -15  11  -1    0.49    0.18
 -15 -11   1    0.41    0.19
  15 -11  -1    0.44    0.14
  15  11   1    0.41    0.31
  15  11  -1    0.55    0.26
 -15  11   1    0.38    0.18
 -15  11   1    0.78    0.30
  15 -11   1    0.43    0.14
 -15 -11  -1   -0.01    0.23
 -15 -11  -1    1.09    0.29
  15 -11  -2   57.18    3.95
 -15  11  -2   54.78    3.99
 -15 -11   2   56.93    4.06
 -15  11  -2   56.82    3.97
  15  11   2   51.54    4.05
 -15 -11  -2   52.79    4.00
  15  11  -2   58.71    4.02
 -15  11   2   57.02    3.97
  15 -11   2   55.65    3.95
 -15  11   2   55.63    4.02
 -15  11  -3    0.12    0.22
 -15 -11   3    0.08    0.23
  15  11   3    0.90    0.31
 -15 -11  -3    0.20    0.28
  15  11  -3    0.60    0.22
  15 -11   3    0.29    0.16
 -15  11   3    0.71    0.43
 -15  11   3    0.11    0.78
  15  11   4    0.65    0.30
 -15 -11  -4    1.27    0.33
  15 -11   4    0.77    0.20
  15  11  -4    0.64    0.21
 -15  11   4    1.08    0.35
 -15  11  -5    0.76    0.44
 -15 -11   5    1.22    0.29
  15 -11  -5    0.74    0.21
 -15  11   5    0.29    0.24
 -15 -11  -5    0.89    0.37
 -15  11   5    0.90    0.33
  15  11  -5    1.01    0.25
 -15  11  -6   16.40    1.53
  15 -11  -6   16.04    1.36
 -15  11   6   18.79    1.41
 -15 -11  -6   17.84    1.45
  15  11  -6   20.31    1.38
 -15  11   6   19.32    1.38
  15 -11  -7    0.36    0.18
 -15 -11   7    0.03    0.22
 -15  11  -7   -0.25    0.45
 -15 -11  -7    0.17    0.41
 -15  11   7    0.18    0.20
  15 -12   0   -0.07    0.12
 -15 -12   0    0.01    0.18
 -15  12   0    0.04    0.27
  15  12   0    0.09    0.27
 -15 -12   0    0.05    0.22
 -15  12   0   -0.03    0.15
 -15  12  -1   13.32    1.01
  15 -12  -1   13.25    0.99
 -15  12  -1   13.60    1.08
 -15 -12   1   12.90    1.03
 -15  12   1   13.52    1.11
 -15 -12  -1   13.19    1.02
  15 -12   1   12.98    0.98
 -15 -12  -1   13.97    1.06
  15  12  -1   13.49    1.12
 -15  12   1   13.08    1.02
 -15 -12   2    0.61    0.23
 -15  12  -2    0.56    0.26
  15  12   2    0.66    0.31
 -15  12  -2    0.56    0.18
 -15  12   2    0.21    0.18
 -15  12   2    0.22    0.33
  15  12  -2    0.40    0.23
 -15 -12  -2    0.84    0.29
  15 -12   2    0.72    0.15
 -15 -12  -2    0.56    0.22
 -15  12  -3   12.60    0.93
  15  12   3   13.89    1.03
 -15  12  -3   10.49    1.01
  15 -12  -3   12.61    0.91
 -15 -12   3   10.49    0.95
 -15 -12  -3    8.93    1.21
 -15  12   3   12.22    0.95
  15 -12   3   11.66    0.89
  15  12  -3   12.24    0.96
 -15 -12  -3   11.90    0.96
 -15 -12   4   -0.21    0.26
 -15  12  -4    0.03    0.38
 -15  12  -4    0.39    0.21
  15 -12  -4    0.20    0.18
  15  12   4    0.39    0.27
 -15 -12  -4    0.31    0.29
  15 -12   4    0.36    0.20
 -15  12   4    0.40    0.36
  15  12  -4    0.16    0.21
 -15  12   4   -0.18    0.22
  15 -12  -5   10.53    0.91
 -15  12  -5   12.63    1.11
 -15 -12   5   13.05    0.96
 -15 -12  -5   12.19    1.01
  15  12  -5   10.04    0.95
 -15  12  -6    1.19    0.50
  15 -12  -6    1.03    0.22
 -15 -12  -6    1.29    0.35
  15 -13   0    1.66    0.27
 -15 -13   0    2.20    0.32
 -15  13   0    1.93    0.34
 -15  13   0    2.63    0.53
 -15 -13   1    0.60    0.23
 -15  13  -1    0.16    0.28
 -15  13  -1    0.31    0.16
  15 -13  -1    0.15    0.12
  15  13   1   -0.05    0.27
  15  13  -1    0.28    0.24
 -15 -13  -1    0.28    0.19
 -15  13   1    0.37    0.16
 -15 -13  -1    0.71    0.25
 -15  13   1    0.25    0.35
  15 -13   1    0.05    0.13
 -15  13  -2   33.87    2.49
 -15  13  -2   32.61    2.54
  15  13   2   35.14    2.57
  15 -13  -2   37.27    2.48
 -15 -13   2   33.15    2.49
 -15  13   2   34.99    2.50
  15  13  -2   36.51    2.54
  15 -13   2   34.40    2.47
 -15 -13  -2   34.71    2.52
 -15 -13  -2   34.63    2.50
 -15  13  -3   -0.26    0.35
 -15 -13   3   -0.11    0.24
  15  13   3    0.52    0.27
 -15  13  -3    0.01    0.19
  15 -13  -3    0.38    0.16
 -15  13   3    0.14    0.20
  15  13  -3    0.34    0.20
 -15 -13  -3    0.02    0.33
 -15 -13  -3   -0.18    0.24
 -15  13   3   -0.44    0.37
 -15  13  -4    2.78    0.66
  15 -13  -4    2.15    0.35
 -15 -13   4    3.08    0.48
 -15 -13  -4    2.57    0.48
 -15  13   4    1.55    0.45
  15 -13  -5    0.30    0.18
 -15 -13   5    0.51    0.26
 -15  13  -5   -0.07    0.46
 -15  13   5    0.24    0.22
 -15 -13  -5    0.14    0.30
 -15  14   0   -0.01    0.16
  15  14   0   -0.01    0.25
  15 -14   0   -0.19    0.13
 -15  14   0    0.37    0.40
 -15 -14   1   18.29    1.35
 -15  14  -1   17.34    1.33
  15 -14  -1   18.70    1.31
 -15  14  -1   16.77    1.45
 -15 -14  -1   17.61    1.37
 -15 -14  -1   19.27    1.33
 -15  14   1   18.83    1.34
  15  14  -1   18.25    1.39
  15 -14   1   17.34    1.31
 -15 -14   2    0.02    0.24
 -15  14  -2    0.14    0.40
  15 -14  -2    0.30    0.15
  15  14   2    0.63    0.25
 -15  14  -2    0.41    0.18
 -15  14   2    0.46    0.48
  15 -14   2    0.26    0.16
 -15 -14  -2    0.67    0.39
 -15 -14  -2    0.21    0.21
 -15  14   2    0.13    0.19
  15  14  -2    0.33    0.21
  15  14   3    9.88    0.81
 -15 -14   3    7.83    0.80
 -15  14  -3    7.89    0.97
  15 -14  -3   10.08    0.74
 -15  14  -3    9.71    0.78
 -15  14   3    8.85    1.08
  15  14  -3    9.81    0.78
 -15 -14  -3   10.13    0.79
 -15  14   3    8.71    0.78
  15  14   4    0.08    0.26
  15 -14  -4    0.01    0.33
 -15 -14   4    0.25    0.31
 -15  14  -4   -0.17    0.59
  15  14  -4    0.28    0.22
 -15 -14  -4   -0.23    0.42
 -15  14   4   -0.06    0.23
 -15  15   0    1.77    0.73
 -15  15   0    2.24    0.36
 -15 -15   0    3.10    0.50
  15 -15   0    1.85    0.32
  15  15   1    0.06    0.25
 -15  15  -1   -0.61    0.67
  15 -15  -1    0.12    0.15
 -15  15  -1    0.06    0.18
 -15 -15   1    0.11    0.27
  15 -15   1    0.02    0.18
 -15  15   1    0.20    0.20
 -15 -15  -1   -0.10    0.32
  15  15  -1   -0.01    0.22
  16   0   0   20.47    1.59
  16   0   1   23.28    1.79
  16   0  -1   23.86    1.77
  16   0   2   19.28    1.51
  16   0  -2   19.67    1.47
  16   0  -3   33.12    2.22
  16   0   3   28.92    2.28
  16   0  -3   30.47    2.24
  16   0  -4   15.28    1.16
  16   0  -5   66.47    4.42
  16   0  -5   55.71    4.43
 -16   0   5   64.27    4.43
  16   0  -6    1.98    0.35
  16   0  -6    1.95    0.34
 -16   0   7   17.34    1.19
  16   0  -7   15.56    1.22
  16   0  -7   13.61    1.18
 -16   0   8    5.75    0.69
  16   0  -8    7.12    0.67
 -16   0   9    6.30    0.61
  16   0  -9    7.47    0.62
 -16   0  10    3.05    0.40
 -16   0 -10    1.70    0.55
  16   0 -10    2.27    0.37
  16  -1   0   42.28    3.09
  16   1   0   42.68    3.09
  16   1   1    1.79    0.36
  16  -1  -1    1.48    0.30
  16  -1   1    1.79    0.33
  16   1  -1    2.03    0.42
  16   1   2    0.29    0.28
  16  -1  -2   -0.03    0.19
  16   1  -2    0.20    0.20
  16  -1   2    0.15    0.24
  16  -1  -3    3.99    0.45
  16  -1  -3    2.94    0.42
  16   1   3    4.07    0.65
  16   1  -3    4.04    0.45
 -16   1   3    2.69    0.49
 -16  -1   4   47.52    3.33
  16  -1  -4   45.66    3.28
  16   1  -4   44.68    3.29
 -16  -1   5   -0.33    0.27
  16  -1  -5    0.03    0.25
  16  -1  -5    0.18    0.16
 -16   1   5   -0.35    0.27
  16   1  -5   -0.30    0.28
  16   1  -5    0.29    0.17
  16  -1  -6   -0.03    0.28
  16  -1  -6    0.07    0.15
 -16  -1   6    0.62    0.24
  16   1  -6    0.26    0.27
  16   1  -6    0.19    0.19
 -16   1   6    0.21    0.24
  16  -1  -7    0.60    0.21
  16  -1  -7    0.87    0.28
 -16  -1   7    0.64    0.23
  16   1  -7    0.78    0.26
 -16   1   7    0.88    0.25
  16   1  -7    1.21    0.28
 -16  -1   8   34.69    2.60
  16  -1  -8   39.93    2.61
 -16   1  -8   33.11    2.79
 -16  -1  -8   31.52    2.76
  16   1  -8   39.64    2.61
 -16   1   8   36.35    2.61
 -16  -1   9    1.11    0.23
  16  -1  -9    0.74    0.23
 -16   1  -9    1.18    0.61
 -16   1   9    0.87    0.23
 -16  -1  -9    0.20    0.58
  16   1  -9    1.03    0.22
 -16  -1  10   -0.03    0.22
 -16   1 -10    1.04    0.54
 -16  -1 -10   -0.01    0.49
  16   1 -10    0.40    0.19
  16  -2   0    8.31    0.77
  16   2   0    8.78    0.81
  16   2   1   24.58    1.93
  16  -2  -1   23.16    1.88
  16  -2   1   26.28    1.88
  16   2  -1   27.65    1.90
  16  -2  -2    2.73    0.40
  16   2   2    3.71    0.57
  16  -2   2    2.50    0.43
  16   2  -2    2.40    0.40
  16  -2  -3   22.41    1.56
  16   2   3   20.97    1.65
  16  -2  -3   22.06    1.71
 -16   2   3   20.50    1.64
  16  -2  -4   30.65    2.07
  16  -2  -4   27.92    2.07
  16   2  -4   27.21    2.08
 -16  -2   5   20.49    1.62
  16  -2  -5   23.20    1.59
  16  -2  -5   22.79    1.63
  16   2  -5   22.29    1.61
 -16   2   5   19.78    1.64
 -16  -2   6    0.41    0.23
  16  -2  -6    0.28    0.16
  16  -2  -6   -0.23    0.28
 -16   2   6   -0.43    0.25
  16   2  -6   -0.13    0.26
  16   2  -6    0.09    0.19
 -16   2  -7   26.00    2.33
  16  -2  -7   20.93    1.75
  16  -2  -7   21.45    1.69
 -16  -2   7   25.62    1.72
 -16   2   7   24.98    1.73
  16   2  -7   24.65    1.74
  16   2  -7   20.53    1.73
  16  -2  -8    1.31    0.29
 -16  -2   8    1.43    0.26
 -16   2  -8    0.56    0.76
 -16   2   8    2.33    0.42
  16   2  -8    2.27    0.45
 -16  -2  -8    0.95    0.70
 -16   2  -9    7.59    1.06
  16  -2  -9   10.52    0.76
 -16  -2   9    8.55    0.74
 -16   2   9    9.84    0.75
  16   2  -9    9.23    0.74
 -16  -2  -9    6.90    0.99
 -16   2 -10    0.03    0.52
  16  -2 -10    0.23    0.17
 -16  -2  10   -0.12    0.22
  16   2 -10   -0.05    0.19
 -16   2  10    0.05    0.20
 -16  -2 -10   -0.40    0.72
  16  -3   0   36.45    2.64
  16  -3  -1    1.90    0.38
  16   3   1    1.61    0.38
  16  -3   1    2.05    0.40
  16   3  -1    2.59    0.45
  16  -3  -2    0.78    0.20
  16  -3  -2    0.65    0.18
  16   3   2    0.58    0.33
  16  -3   2    0.49    0.21
  16   3  -2    0.48    0.20
  16  -3  -3    0.49    0.17
  16   3   3    0.84    0.30
  16  -3  -3    0.35    0.19
 -16   3   3    0.29    0.31
  16   3  -3    0.47    0.19
  16  -3  -4   63.87    4.30
  16  -3  -4   69.89    4.30
 -16  -3   4   62.27    4.33
 -16   3   4   54.13    4.32
  16   3  -4   52.02    4.31
  16   3  -4   60.99    4.32
  16  -3  -5   11.70    0.87
 -16  -3   5    9.75    0.85
  16  -3  -5   10.05    0.79
  16   3  -5    9.66    0.83
 -16   3   5    9.59    0.90
 -16  -3   6    0.04    0.24
  16  -3  -6    0.11    0.28
  16  -3  -6    0.04    0.14
  16   3  -6    0.66    0.27
  16   3  -6    0.28    0.22
 -16   3   6    0.69    0.28
 -16  -3   7    3.07    0.46
  16  -3  -7    3.37    0.37
 -16   3  -7    2.23    1.06
  16   3  -7    2.36    0.55
 -16   3   7    2.62    0.50
  16   3  -7    3.19    0.49
  16  -3  -8   46.60    3.25
 -16   3  -8   44.28    3.42
 -16  -3   8   45.88    3.23
  16   3  -8   46.72    3.23
 -16  -3  -8   40.79    3.35
 -16   3   8   46.59    3.24
 -16  -3   9   -0.04    0.21
  16  -3  -9    0.14    0.20
 -16   3  -9   -0.01    0.59
 -16   3   9   -0.06    0.21
 -16  -3  -9    0.91    0.51
  16   3  -9    0.29    0.20
 -16  -3  10    0.52    0.24
  16  -3 -10    0.56    0.17
 -16   3 -10    0.48    0.55
 -16  -3 -10    0.39    0.47
  16   3 -10    0.13    0.33
 -16   3  10    0.87    0.22
  16   4   0    7.05    0.76
  16  -4   0    7.24    0.65
  16  -4  -1   38.61    3.20
  16  -4   1   50.56    3.20
  16  -4  -2    0.93    0.17
  16   4   2    1.07    0.35
  16  -4  -2    0.51    0.20
  16  -4   2    0.84    0.20
 -16   4   2    0.44    0.26
  16   4  -2    0.71    0.23
  16  -4  -3   20.89    1.49
  16  -4  -3   20.39    1.50
  16   4  -3   19.72    1.52
  16  -4  -4   44.44    2.91
  16  -4  -4   45.70    2.92
 -16  -4   4   36.94    2.94
 -16   4   4   35.97    2.94
  16   4  -4   40.11    2.93
  16  -4  -5   24.19    1.62
 -16  -4   5   21.25    1.62
  16  -4  -5   22.01    1.58
  16   4  -5   19.15    1.64
  16   4  -5   21.77    1.61
  16  -4  -6    0.52    0.14
 -16   4  -6    0.97    0.90
  16  -4  -6    0.12    0.26
 -16  -4   6    0.12    0.24
  16   4  -6    0.73    0.25
  16   4  -6    0.46    0.26
 -16   4   6    0.60    0.29
 -16   4  -7   22.41    2.29
 -16  -4   7   23.23    1.70
  16  -4  -7   20.45    1.71
  16   4  -7   23.49    1.72
 -16   4   7   25.71    1.74
  16  -4  -8    0.70    0.24
 -16   4  -8   -0.21    0.73
 -16   4   8    1.13    0.26
 -16  -4  -8    0.93    0.63
  16  -4  -9   14.03    1.00
 -16  -4   9   12.45    1.00
 -16   4  -9   11.06    1.22
 -16   4   9   12.71    0.99
  16   4  -9   13.74    1.00
 -16   4 -10   -0.66    0.59
 -16  -4 -10   -0.02    0.42
 -16   4  10    0.20    0.22
  16   4 -10   -0.31    0.19
  16   5   0   36.58    2.71
  16   5   1    3.59    0.65
  16  -5  -1    4.18    0.39
  16  -5  -1    3.23    0.44
 -16   5   1    2.76    0.48
  16  -5   1    3.83    0.47
  16   5  -1    4.16    0.52
  16  -5  -2    0.07    0.17
  16   5   2    0.42    0.33
 -16   5   2    0.19    0.27
  16   5  -2    0.22    0.21
  16  -5   2    0.03    0.17
  16  -5  -3    0.34    0.16
  16   5   3   -0.38    0.30
 -16  -5   3   -0.42    0.68
  16  -5  -3    0.39    0.16
 -16   5   3    0.56    0.24
  16   5  -3    0.66    0.20
  16   5   4   59.03    4.31
 -16  -5   4   55.32    4.27
  16  -5  -4   62.73    4.25
  16  -5  -4   67.92    4.26
 -16   5   4   57.77    4.28
  16   5  -4   56.48    4.27
 -16   5  -5    4.62    0.98
 -16  -5   5    4.58    0.54
  16  -5  -5    3.87    0.51
  16  -5  -5    3.60    0.36
  16   5  -5    2.85    0.59
  16   5  -5    3.67    0.46
 -16   5   5    2.87    0.58
 -16  -5   6    0.26    0.24
  16  -5  -6    0.92    0.15
 -16   5  -6    0.61    0.74
  16  -5  -6    0.62    0.28
  16   5  -6    0.65    0.27
 -16   5   6    0.72    0.32
  16   5  -6    0.80    0.26
  16  -5  -7    0.99    0.17
 -16   5  -7    0.69    0.88
 -16   5  -8   28.29    2.38
 -16  -5   8   30.84    2.16
  16  -5  -8   30.07    2.18
  16   5  -8   30.86    2.16
 -16   5   8   30.71    2.17
 -16  -5  -8   28.06    2.29
 -16   5  -9   -0.11    0.52
 -16  -5   9   -0.22    0.21
  16  -5  -9   -0.08    0.19
 -16   5   9    0.20    0.20
  16   5  -9    0.12    0.22
  16  -6   0   15.04    1.09
  16   6   0   14.68    1.22
  16  -6   0   14.77    1.12
 -16   6   0   13.99    1.15
  16  -6  -1   17.75    1.58
 -16   6  -1   22.55    1.61
  16  -6  -1   22.57    1.55
  16   6  -1   23.07    1.65
 -16   6   1   21.30    1.68
  16  -6   1   21.37    1.57
  16   6   2    1.36    0.40
  16  -6  -2    1.43    0.27
  16  -6  -2    1.36    0.23
 -16   6  -2    1.00    0.36
  16   6  -2    1.46    0.27
  16  -6   2    1.22    0.20
 -16   6   2    1.39    0.24
  16  -6  -3   28.65    2.07
  16  -6  -3   28.84    2.05
  16   6   3   29.86    2.15
 -16   6  -3   28.04    2.12
  16   6  -3   27.05    2.09
 -16   6   3   28.49    2.08
  16   6   4   14.64    1.18
  16  -6  -4   15.22    1.06
  16  -6  -4   14.95    1.08
 -16   6  -4   13.04    1.25
 -16  -6   4   12.50    1.18
 -16   6   4   13.69    1.14
  16   6  -4   14.17    1.10
 -16  -6   5   24.92    1.96
  16  -6  -5   27.91    1.92
  16  -6  -5   28.69    1.96
 -16   6  -5   24.89    2.08
  16   6  -5   27.02    1.96
  16   6  -5   25.84    1.97
  16  -6  -6   -0.15    0.11
 -16   6  -6    0.10    0.66
 -16  -6   6   -0.05    0.25
  16  -6  -6   -0.33    0.25
  16   6  -6    0.17    0.25
 -16   6   6   -0.31    0.29
  16   6  -6   -0.10    0.26
 -16  -6   7   15.63    1.19
 -16   6  -7   16.70    1.58
 -16   6   7   14.99    1.22
 -16  -6  -7   16.40    1.60
  16   6  -7   14.56    1.19
  16  -6  -8    2.27    0.42
 -16  -6  -8    2.06    0.57
  16   6  -8    2.54    0.43
 -16  -6   9    5.18    0.53
  16  -6  -9    5.72    0.51
 -16   6  -9    5.13    0.82
  16   6  -9    5.19    0.53
 -16   6   9    5.35    0.52
 -16   7   0   54.59    3.76
  16  -7   0   53.86    3.73
  16   7   0   48.99    3.84
  16  -7   0   53.62    3.77
 -16   7  -1    3.79    0.48
  16  -7  -1    3.79    0.37
  16  -7  -1    3.15    0.41
 -16   7  -1    3.40    0.57
 -16   7   1    4.42    0.44
  16   7  -1    4.21    0.55
  16  -7   1    3.91    0.37
  16  -7   1    3.10    0.38
  16  -7  -2    1.79    0.32
 -16   7  -2    1.43    0.29
  16   7   2    1.54    0.37
  16  -7  -2    2.04    0.28
  16   7  -2    2.04    0.41
  16  -7   2    1.86    0.27
 -16   7   2    1.37    0.24
  16  -7  -3    5.50    0.50
  16   7   3    5.78    0.70
 -16  -7   3    4.50    0.68
  16  -7  -3    5.91    0.49
 -16   7  -3    5.29    0.69
 -16   7  -3    6.20    0.66
 -16   7   3    4.81    0.56
  16   7  -3    5.61    0.57
 -16   7  -4   54.44    3.66
  16  -7  -4   54.32    3.63
  16   7   4   47.70    3.67
  16  -7  -4   50.26    3.61
 -16   7  -4   53.90    3.68
 -16  -7   4   46.95    3.64
  16   7  -4   47.54    3.65
 -16   7   4   51.55    3.65
  16  -7  -5   -0.06    0.21
 -16  -7   5   -0.13    0.27
  16  -7  -5    0.16    0.11
 -16   7  -5   -0.16    0.45
  16   7  -5    0.15    0.21
 -16   7   5   -0.31    0.28
  16  -7  -6    0.01    0.31
  16   7  -6    0.29    0.24
 -16   7   6    0.03    0.31
 -16  -7   7    0.44    0.24
  16  -7  -7   -0.10    0.23
 -16   7  -7    0.11    0.66
 -16   7   7    0.49    0.27
 -16  -7  -7    0.01    0.63
  16   7  -7    0.39    0.24
  16  -7  -8   33.75    2.31
 -16  -7   8   34.00    2.30
 -16   7  -8   28.17    2.45
  16   7  -8   34.76    2.30
 -16   7   8   32.55    2.31
 -16  -7  -8   31.73    2.41
 -16   7   8   28.79    2.31
 -16  -7   9    0.79    0.23
 -16   7  -9    1.56    0.48
  16  -7  -9    0.66    0.19
  16   7  -9    0.65    0.24
 -16  -7  -9    0.81    0.41
 -16   7   9    0.95    0.21
 -16   8   0   22.28    1.78
  16  -8   0   25.31    1.74
 -16   8   0   23.95    1.76
  16  -8   0   25.83    1.76
  16   8   0   23.37    1.87
 -16   8  -1   18.79    1.28
  16  -8  -1   16.73    1.23
 -16   8  -1   17.08    1.28
  16  -8  -1   15.01    1.26
 -16  -8   1   17.14    1.30
  16  -8   1   17.02    1.23
 -16   8   1   17.33    1.26
  16   8  -1   17.77    1.35
  16  -8   1   15.07    1.23
  16  -8  -2    2.69    0.36
 -16   8  -2    2.54    0.48
  16  -8  -2    2.85    0.33
 -16   8  -2    3.05    0.46
  16   8   2    2.83    0.63
 -16  -8   2    2.88    0.38
 -16   8   2    3.08    0.40
  16   8  -2    2.83    0.45
  16  -8   2    2.56    0.31
  16  -8   2    2.70    0.35
  16  -8  -3   26.72    1.94
 -16   8  -3   28.22    1.97
 -16   8  -3   26.47    1.99
  16  -8  -3   26.02    1.93
  16   8   3   28.40    2.04
 -16   8   3   26.40    1.96
  16   8  -3   25.29    1.98
 -16   8  -4    3.69    0.66
 -16   8  -4    3.95    0.59
  16   8   4    3.07    0.60
 -16  -8   4    3.49    0.58
  16  -8  -4    3.59    0.35
  16  -8  -4    4.07    0.42
  16   8  -4    3.22    0.45
  16   8  -4    3.00    0.64
 -16   8   4    3.15    0.52
  16  -8  -5   15.23    1.04
  16  -8  -5   15.12    1.11
 -16  -8   5   12.56    1.14
 -16   8  -5   12.65    1.27
  16   8  -5   13.90    1.11
  16   8  -5   14.17    1.15
 -16  -8   6    2.05    0.31
 -16   8  -6    1.32    0.59
 -16  -8  -6    1.74    0.64
  16   8  -6    1.91    0.31
 -16   8   6    1.24    0.33
  16   8  -6    1.80    0.31
 -16   8  -7   13.42    1.34
 -16  -8   7   13.58    1.04
 -16  -8  -7   11.30    1.26
 -16   8   7   14.57    1.07
 -16   8   7   14.24    1.06
  16   8  -7   12.86    1.05
 -16  -8   8    5.37    0.51
 -16   8  -8    3.76    0.84
  16  -8  -8    5.48    0.50
 -16  -8  -8    4.42    0.74
 -16   8   8    3.56    0.84
  16   8  -8    5.35    0.55
 -16   8   8    5.01    0.52
 -16  -9   0   41.72    2.99
  16  -9   0   43.03    2.95
 -16   9   0   41.09    2.99
  16   9   0   38.35    3.07
  16  -9   0   41.84    2.97
 -16   9   0   43.10    2.97
 -16  -9   1    0.52    0.34
 -16   9  -1    0.28    0.25
  16   9   1    0.10    0.31
 -16   9  -1    0.22    0.19
  16  -9  -1    0.28    0.14
 -16  -9   1    0.35    0.25
  16  -9  -1    0.27    0.16
  16  -9   1    0.09    0.13
  16   9  -1    0.57    0.27
 -16  -9  -1   -0.05    0.30
 -16   9   1    0.27    0.18
 -16   9   1    0.00    0.25
  16   9   2    2.85    0.64
  16  -9  -2    3.53    0.37
 -16   9  -2    3.79    0.47
 -16  -9   2    4.46    0.57
  16  -9  -2    3.64    0.39
 -16   9  -2    3.97    0.53
  16   9  -2    3.36    0.49
  16  -9   2    3.40    0.37
 -16   9   2    3.46    0.42
  16   9   3    4.73    0.67
  16  -9  -3    4.98    0.46
 -16   9  -3    5.37    0.56
 -16   9  -3    5.17    0.63
  16  -9  -3    4.91    0.45
 -16  -9   3    4.02    0.60
 -16   9   3    4.62    0.52
  16   9  -3    4.86    0.53
  16   9   4   34.90    2.63
 -16   9  -4   39.23    2.61
  16  -9  -4   39.10    2.59
  16  -9  -4   35.03    2.56
 -16  -9   4   33.57    2.60
 -16   9  -4   37.57    2.64
 -16   9   4   36.74    2.62
 -16  -9  -4   32.59    2.96
  16   9  -4   33.42    2.60
 -16   9  -5    0.55    0.45
 -16  -9   5   -0.07    0.29
  16  -9  -5    0.13    0.21
 -16   9   5   -0.17    0.28
  16   9  -5    0.54    0.29
 -16  -9  -5    0.15    0.52
  16   9  -5    0.37    0.23
  16  -9  -6    0.21    0.22
 -16  -9   6    0.50    0.25
 -16   9  -6    0.71    0.55
 -16   9   6    0.53    0.27
 -16   9   6    0.66    0.28
  16   9  -6    0.14    0.27
 -16  -9  -6   -0.32    0.50
  16   9  -6    0.12    0.27
 -16   9  -7   -0.62    0.52
  16  -9  -7    0.09    0.20
 -16  -9   7   -0.07    0.22
 -16   9   7    0.21    0.28
  16   9  -7   -0.46    0.25
 -16   9   7    0.42    0.23
 -16  -9  -7    0.11    0.47
 -16  -9   8   26.58    1.85
 -16   9  -8   23.41    1.96
  16  -9  -8   26.67    1.85
 -16  -9  -8   24.54    1.92
 -16   9   8   26.48    1.85
 -16  10   0    6.39    0.67
  16 -10   0    7.97    0.56
 -16 -10   0    6.08    0.65
 -16  10   0    6.76    0.60
  16  10   0    7.30    0.76
 -16  10  -1   22.95    1.70
  16 -10  -1   23.34    1.65
 -16 -10   1   21.50    1.70
 -16  10  -1   24.27    1.67
 -16 -10   1   22.58    1.67
  16  10  -1   24.15    1.76
 -16  10   1   22.76    1.72
 -16 -10  -1   21.92    1.69
  16 -10   1   22.91    1.64
 -16  10   1   21.85    1.67
 -16  10  -2    0.11    0.27
 -16  10  -2    0.24    0.21
 -16 -10   2    0.08    0.27
  16 -10  -2    0.10    0.14
  16  10   2    0.01    0.31
 -16  10   2   -0.10    0.30
 -16  10   2    0.16    0.19
  16 -10   2    0.09    0.15
  16  10  -2    0.33    0.22
 -16 -10  -2    0.26    0.30
  16 -10  -3   13.01    0.97
 -16  10  -3   13.95    1.07
  16  10   3   12.33    1.11
 -16  10  -3   13.76    1.07
 -16  10   3   13.55    1.01
  16  10  -3   11.46    1.03
 -16 -10  -3   11.86    1.23
 -16  10   3   11.22    1.10
 -16  10  -4   10.10    0.87
 -16  10  -4   10.40    0.95
  16 -10  -4   11.18    0.81
  16  10   4   10.37    0.91
 -16 -10   4    9.65    0.89
  16  10  -4   10.31    0.84
 -16  10   4    9.69    0.86
 -16  10   4    8.57    0.93
  16 -10  -5   19.80    1.38
 -16  10  -5   17.70    1.49
 -16 -10   5   17.64    1.40
  16  10  -5   17.71    1.38
 -16  10   5   18.63    1.41
 -16 -10  -5   17.48    1.49
 -16 -10   6   -0.19    0.25
  16 -10  -6   -0.23    0.20
 -16  10  -6    0.02    0.53
 -16  10   6    0.06    0.28
 -16 -10  -6   -0.19    0.44
 -16  10   6   -0.07    0.24
  16 -10  -7   12.43    1.02
 -16  10  -7   12.93    1.22
 -16  10   7   15.34    1.03
 -16 -10  -7   11.96    1.16
 -16 -11   0   37.52    2.72
  16  11   0   31.46    2.71
 -16 -11   0   36.94    2.64
 -16  11   0   37.06    2.71
 -16  11   0   39.42    2.67
 -16 -11   1    3.57    0.50
 -16 -11   1    2.67    0.50
 -16  11  -1    3.64    0.62
 -16  11   1    3.42    0.59
 -16 -11  -1    2.96    0.49
  16 -11  -2    2.11    0.30
 -16 -11   2    2.52    0.48
 -16  11  -2    3.09    0.54
 -16  11  -2    2.50    0.37
 -16 -11  -2    1.89    0.45
  16 -11   2    1.88    0.30
 -16  11   2    1.32    0.45
 -16  11   2    2.48    0.38
 -16  11  -3   -0.03    0.27
 -16 -11   3    0.57    0.27
  16 -11  -3    0.31    0.17
 -16  11  -3    0.22    0.20
  16  11   3    0.19    0.28
 -16 -11  -3    0.10    0.29
  16 -11   3    0.20    0.18
 -16  11   3    0.32    0.36
  16  11  -3    0.56    0.22
 -16  11   3    0.27    0.21
 -16 -11   4   34.36    2.74
  16  11   4   40.54    2.77
  16 -11  -4   42.99    2.73
 -16  11  -4   39.62    2.74
 -16  11  -4   35.93    2.78
 -16  11   4   36.35    2.75
  16  11  -4   37.92    2.75
 -16 -11  -4   39.42    2.77
 -16  11   4   35.31    2.78
  16 -11  -5    2.84    0.42
 -16 -11   5    3.36    0.53
 -16  11  -5    3.48    0.73
 -16 -11  -5    2.94    0.66
  16  11  -5    2.96    0.47
 -16  11   5    2.32    0.49
  16 -11  -6    0.94    0.22
 -16  11  -6    0.05    0.52
 -16 -11   6    1.26    0.27
 -16 -11  -6    1.48    0.41
 -16  11   6    1.14    0.40
 -16  11   6    0.78    0.24
  16  12   0    1.25    0.33
 -16 -12   0    2.56    0.51
 -16 -12   0    2.00    0.34
 -16  12   0    1.58    0.32
  16 -12   0    1.80    0.26
 -16  12   0    2.04    0.48
  16 -12  -1   10.98    0.82
 -16  12  -1   11.00    0.85
 -16  12  -1   10.59    0.92
 -16 -12   1    9.23    0.91
 -16  12   1    9.32    0.94
  16 -12   1   11.55    0.82
  16  12  -1   11.88    0.94
 -16 -12  -1   11.19    0.86
 -16 -12  -1   11.71    0.95
 -16  12   1   10.54    0.85
 -16  12  -2    0.75    0.21
 -16 -12   2    1.33    0.28
 -16  12  -2    0.86    0.29
  16  12   2    1.44    0.33
 -16 -12  -2    1.26    0.27
 -16  12   2    0.64    0.34
  16  12  -2    1.16    0.27
  16 -12   2    1.16    0.19
 -16  12   2    1.02    0.22
 -16 -12   3    8.02    0.73
 -16  12  -3    8.32    0.69
  16 -12  -3    7.59    0.64
 -16  12  -3    8.58    0.79
  16  12   3    7.53    0.76
 -16  12   3    6.85    0.82
 -16 -12  -3    9.24    0.74
 -16  12   3    7.88    0.70
  16  12  -3    6.40    0.69
  16 -12  -4    9.57    0.73
 -16 -12   4    9.25    0.81
 -16  12  -4    7.41    0.89
  16  12   4   10.21    0.83
 -16  12   4    7.99    0.77
 -16 -12  -4    8.86    0.82
  16  12  -4    9.16    0.76
 -16  12   4    8.76    0.88
  16 -12  -5    9.65    0.85
 -16  12  -5   10.34    1.06
 -16 -12   5   11.79    0.90
 -16 -12  -5   11.07    0.95
 -16  12   5   12.07    0.97
  16  12  -5    9.98    0.91
 -16 -12   6    0.27    0.29
 -16  12  -6    0.72    0.51
 -16  12   6    0.33    0.25
 -16 -12  -6    0.30    0.32
  16 -13   0   25.65    1.80
 -16  13   0   25.59    1.89
 -16  13   0   25.61    1.82
  16  13   0   24.02    1.89
 -16 -13   0   24.44    1.84
  16  13   1    0.28    0.27
 -16  13  -1    0.49    0.29
 -16  13  -1    0.50    0.18
 -16 -13   1    0.90    0.26
 -16 -13  -1    0.47    0.21
 -16  13   1    0.52    0.18
 -16  13   1    0.40    0.35
 -16 -13  -1    1.23    0.33
  16 -13   1    0.66    0.16
  16  13  -1    0.97    0.25
  16 -13  -2    1.92    0.31
 -16  13  -2    2.42    0.35
  16 -13   2    1.69    0.35
 -16  13   2    2.32    0.37
  16  13  -2    1.90    0.40
 -16 -13  -2    2.47    0.40
 -16  13  -3    0.41    0.22
 -16 -13   3    0.93    0.29
 -16  13  -3    0.31    0.37
  16  13   3    0.82    0.26
 -16 -13  -3    0.27    0.26
 -16  13   3    0.24    0.40
 -16  13   3    0.23    0.21
  16 -13  -4   22.82    1.54
 -16 -13   4   21.54    1.59
  16  13   4   21.49    1.58
 -16  13  -4   18.96    1.65
 -16  13   4   21.90    1.79
 -16  13   4   19.08    1.56
 -16 -13  -4   21.33    1.58
  16  14   0    5.65    0.61
 -16  14   0    4.16    0.76
  16 -14   0    5.91    0.47
 -16 -14   0    4.63    0.69
 -16  14   0    4.94    0.50
 -16  14  -1   11.97    0.91
  16 -14  -1   12.19    0.89
 -16  14  -1   11.20    1.07
 -16 -14   1   12.87    1.09
 -16 -14  -1   12.64    1.05
  16  14  -1   11.99    0.97
 -16  14   1    9.55    1.12
 -16  14   1   12.19    0.92
 -16 -14   2    0.15    0.36
  16  14   2   -0.05    0.25
 -16  14  -2    0.07    0.18
  16 -14  -2    0.14    0.17
  16  14  -2    0.12    0.19
 -16  14   2   -0.45    0.87
 -16 -14  -2    0.20    0.21
 -16  14   2   -0.10    0.20
  16  14   3   10.10    0.78
 -16 -14   3    7.66    0.82
 -16  14  -3    8.65    1.16
  16 -14  -3    8.73    0.71
 -16  14   3    7.98    0.75
 -16  14   3    8.58    1.13
  16  14  -3    9.26    0.74
  17   0   0    0.00    0.26
  17   0  -1   22.42    1.74
  17   0   1   23.36    1.75
  17   0   2    1.87    0.34
  17   0  -3   56.14    3.82
  17   0   3   50.50    3.81
  17   0  -4    0.56    0.18
 -17   0   4    0.26    0.39
  17   0  -4    0.61    0.25
  17   0  -5   20.20    1.62
  17   0  -5   22.18    1.66
 -17   0   5   24.06    1.66
 -17   0   6    1.41    0.28
  17   0  -6    0.75    0.32
  17   0  -7   15.03    1.21
  17   0  -7   16.25    1.18
 -17   0   7   14.47    1.17
  17   0  -8    0.51    0.24
 -17   0   8    0.05    0.22
 -17   0  -9    1.45    0.63
 -17   0   9    0.87    0.25
  17   0 -10    1.25    0.24
 -17   0  10    0.74    0.24
  17  -1   0    0.32    0.25
  17   1   0   -0.03    0.25
  17   1   1    6.40    0.67
  17  -1  -1    4.99    0.61
  17  -1   1    5.90    0.62
  17   1  -1    5.52    0.62
  17  -1  -2   69.02    4.74
  17   1   2   66.35    4.70
  17  -1   2   62.12    4.67
  17   1  -2   65.22    4.81
  17   1   3   17.14    1.37
  17  -1  -3   17.73    1.30
  17   1  -3   18.37    1.32
  17  -1   3   15.24    1.47
  17  -1  -4    5.08    0.50
  17  -1  -4    5.83    0.56
  17   1  -4    4.49    0.51
  17   1  -4    6.40    0.61
  17  -1  -5    0.73    0.29
 -17  -1   5    1.20    0.31
  17  -1  -5    1.39    0.22
 -17   1   5    1.06    0.32
  17   1  -5    0.85    0.30
  17   1  -5    1.64    0.32
  17  -1  -6   21.81    1.64
 -17  -1   6   23.52    1.67
  17   1  -6   21.39    1.66
 -17   1   6   23.43    1.68
  17  -1  -7    5.75    0.69
  17  -1  -7    6.15    0.58
 -17  -1   7    5.52    0.60
 -17   1   7    5.85    0.63
  17   1  -7    6.31    0.67
  17   1  -7    7.29    0.64
 -17  -1   8    0.63    0.22
  17  -1  -8    0.48    0.25
 -17   1  -8    0.00    0.81
 -17   1   8    0.09    0.23
  17   1  -8    0.57    0.25
  17  -1  -9    3.31    0.43
 -17  -1   9    2.66    0.42
 -17   1  -9    2.55    0.68
  17   1  -9    3.07    0.44
 -17   1   9    2.77    0.42
 -17  -1  -9    2.94    0.65
 -17  -1  10   17.58    1.24
 -17   1 -10   17.25    1.39
  17  -1 -10   15.13    1.23
 -17  -1 -10   15.07    1.36
 -17   1  10   17.48    1.23
  17   1 -10   15.72    1.22
  17  -2   0   -0.02    0.22
  17   2   0    0.05    0.24
  17   2   1   21.57    1.72
  17  -2  -1   19.24    1.66
  17  -2   1   22.97    1.66
  17   2  -1   24.98    1.72
  17   2   2    4.68    0.68
  17  -2  -2    5.37    0.55
  17   2  -2    5.96    0.56
  17  -2   2    5.02    0.55
  17  -2  -3   33.81    2.42
  17   2   3   32.19    2.45
  17  -2  -3   36.08    2.39
  17   2  -3   32.22    2.42
 -17   2   3   32.40    2.45
  17  -2  -4    1.81    0.40
 -17  -2   4    2.89    0.47
  17  -2  -4    2.47    0.33
  17   2  -4    2.44    0.34
  17   2  -4    2.01    0.36
  17  -2  -5   22.92    1.60
 -17  -2   5   23.03    1.60
  17  -2  -5   20.20    1.56
 -17   2   5   20.57    1.63
  17   2  -5   19.98    1.58
 -17  -2   6    1.52    0.28
  17   2  -6    0.93    0.33
 -17   2   6    1.62    0.32
  17   2  -6    1.92    0.38
  17  -2  -7    9.79    0.89
 -17  -2   7    8.66    0.84
  17   2  -7   11.02    0.90
 -17   2   7   10.81    0.87
 -17  -2   8    0.51    0.21
  17  -2  -8    0.52    0.25
 -17   2  -8   -0.55    0.78
 -17   2   8    0.03    0.22
 -17  -2  -8   -0.94    0.74
 -17  -2   9    3.36    0.40
  17  -2  -9    2.65    0.41
 -17   2  -9    2.41    0.67
 -17   2   9    2.90    0.42
 -17  -2  -9    2.28    0.58
  17   2  -9    2.17    0.42
 -17   2 -10    1.90    0.57
 -17  -2  10    1.48    0.33
 -17   2  10    2.16    0.42
 -17  -2 -10    1.37    0.50
  17  -3   0   -0.01    0.23
  17  -3  -1    4.86    0.61
  17   3  -1    6.63    0.64
  17  -3   1    6.56    0.60
  17  -3  -2   51.04    3.65
  17  -3   2   49.59    3.63
  17   3  -2   52.04    3.66
  17  -3  -3   13.96    1.02
  17   3   3   13.60    1.13
  17  -3  -3   13.76    1.03
  17   3  -3   13.15    1.04
 -17   3   3   11.29    1.19
  17  -3  -4    0.95    0.23
 -17   3   4    0.66    0.34
  17   3  -4    0.74    0.20
  17  -3  -5    4.45    0.40
 -17  -3   5    3.17    0.57
  17  -3  -5    3.77    0.52
  17   3  -5    4.25    0.48
  17  -3  -6   33.51    2.83
  17  -3  -6   41.90    2.80
 -17  -3   6   41.47    2.81
  17   3  -6   34.35    2.83
  17   3  -6   39.82    2.82
 -17   3   6   43.66    2.85
 -17   3  -7    2.57    1.14
 -17  -3   7    2.69    0.53
  17  -3  -7    3.29    0.55
 -17   3   7    3.43    0.53
  17   3  -7    2.73    0.63
  17  -3  -8    0.66    0.24
 -17  -3   8    0.48    0.22
  17   3  -8    0.61    0.25
 -17   3   8    0.70    0.25
 -17  -3  -8    0.42    0.69
 -17  -3   9    2.65    0.39
 -17   3  -9    2.84    0.67
  17  -3  -9    2.46    0.39
  17   3  -9    2.84    0.43
 -17   3   9    2.43    0.40
 -17  -3  -9    1.76    0.56
  17   4   0    0.35    0.31
  17  -4   0   -0.17    0.20
  17  -4  -1   25.44    1.98
  17   4   1   25.50    2.06
  17  -4   1   29.91    2.00
  17  -4  -2    6.91    0.59
  17  -4  -2    5.61    0.56
  17   4   2    6.28    0.75
  17   4  -2    6.59    0.62
  17  -4   2    6.06    0.63
  17  -4  -3   36.36    2.55
  17  -4  -3   35.94    2.57
  17   4   3   37.21    2.63
  17   4  -3   33.33    2.59
 -17   4   3   35.77    2.59
  17  -4  -4    0.98    0.18
  17  -4  -4    1.11    0.22
 -17  -4   4    1.75    0.37
  17   4  -4    1.03    0.25
 -17   4   4    0.69    0.32
  17  -4  -5   16.78    1.26
 -17  -4   5   18.22    1.31
  17  -4  -5   20.07    1.32
  17   4  -5   16.00    1.30
 -17   4   5   14.55    1.35
  17  -4  -6    0.42    0.29
 -17   4  -6    2.49    1.02
 -17  -4   6    1.42    0.28
 -17   4   6    1.00    0.31
  17   4  -6    0.92    0.31
 -17   4  -7    8.28    1.58
 -17  -4   7   10.55    0.90
  17  -4  -7    8.78    0.95
  17  -4  -7   12.32    0.82
  17   4  -7   11.44    0.92
 -17  -4   8    0.24    0.24
 -17   4  -8    0.41    0.75
  17   4  -8    0.24    0.25
 -17  -4  -8   -0.06    0.64
 -17   4   8    0.74    0.24
 -17  -4   9    3.70    0.42
  17  -4  -9    3.12    0.42
 -17   4  -9    2.79    0.66
 -17  -4  -9    2.61    0.64
 -17   4   9    3.41    0.43
  17  -5   0   -0.25    0.17
  17   5   0    0.35    0.28
  17  -5  -1    3.81    0.46
  17   5   1    3.22    0.64
  17  -5   1    4.39    0.45
  17  -5  -2   50.83    3.59
  17  -5  -2   48.65    3.63
  17   5   2   55.37    3.71
  17  -5   2   47.91    3.60
  17   5  -2   52.32    3.66
 -17   5   2   49.47    3.61
  17  -5  -3   15.18    1.08
  17   5   3   14.60    1.18
  17  -5  -3   13.88    1.05
  17   5  -3   13.56    1.11
 -17   5   3   13.27    1.12
  17  -5  -4    1.11    0.22
  17   5   4    0.94    0.39
  17  -5  -4    1.17    0.25
 -17   5   4    0.83    0.30
  17   5  -4    0.82    0.21
  17  -5  -5    1.98    0.31
 -17   5  -5    3.29    0.69
 -17  -5   5    2.22    0.35
  17  -5  -5    2.28    0.28
  17   5  -5    2.28    0.40
 -17  -5   6   28.25    1.89
 -17   5  -6   27.93    2.25
  17  -5  -6   25.38    1.85
  17  -5  -6   22.33    1.91
  17   5  -6   25.30    1.91
 -17   5   6   26.20    1.93
  17   5  -6   25.23    1.90
  17  -5  -7    6.46    0.50
 -17  -5   7    4.49    0.58
  17   5  -7    6.48    0.64
 -17   5   7    5.93    0.64
  17  -5  -8    0.10    0.22
 -17   5  -8    1.25    0.69
 -17  -5  -8    0.74    0.63
  17   5  -8    0.11    0.24
 -17   5   8    0.33    0.23
 -17   5  -9    1.50    0.56
  17  -5  -9    1.32    0.22
 -17  -5   9    1.43    0.25
 -17  -5  -9    1.23    0.53
 -17   5   9    1.14    0.23
  17   6   0   -0.02    0.27
  17  -6   0   -0.20    0.16
 -17   6   0    0.09    0.25
  17  -6  -1   29.02    2.00
  17  -6  -1   23.84    2.04
  17   6  -1   30.25    2.11
 -17   6   1   28.52    2.10
  17  -6   1   28.63    2.03
  17   6   2    5.29    0.68
  17  -6  -2    4.60    0.44
  17  -6  -2    4.47    0.48
  17  -6   2    4.52    0.44
 -17   6   2    4.28    0.51
  17   6  -2    5.51    0.55
  17  -6  -3   27.54    1.92
  17  -6  -3   26.16    1.90
  17   6   3   28.75    2.00
 -17   6  -3   24.02    2.00
 -17   6   3   26.08    1.93
  17   6  -3   25.79    1.95
 -17   6  -4    0.11    0.46
  17  -6  -4    0.40    0.15
 -17  -6   4    0.08    0.34
  17  -6  -4    0.10    0.18
  17   6   4    0.46    0.32
 -17   6   4    0.00    0.27
  17   6  -4    0.14    0.20
  17  -6  -5   13.75    1.12
 -17  -6   5   16.44    1.21
  17  -6  -5   16.41    1.19
 -17   6  -5   17.65    1.42
  17   6  -5   13.83    1.17
 -17   6   5   14.56    1.24
 -17   6  -6    1.43    1.14
  17  -6  -6    1.62    0.38
 -17   6   6    1.82    0.44
 -17  -6   7    8.70    0.74
  17  -6  -7    7.06    0.76
 -17   6   7    9.37    0.77
  17   6  -7    8.74    0.77
  17  -6  -8    0.08    0.21
 -17   6  -8   -0.10    0.62
 -17  -6   8   -0.20    0.22
 -17  -6  -8   -0.43    0.56
 -17   6   8   -0.25    0.22
 -17   6  -9    2.47    0.60
 -17  -6   9    2.23    0.39
 -17   6   9    2.62    0.36
 -17  -6  -9    1.81    0.50
 -17   7   0    0.31    0.22
  17  -7   0    0.43    0.15
  17  -7   0    0.22    0.16
  17   7   0    0.40    0.30
  17  -7  -1    2.42    0.31
  17  -7  -1    2.54    0.36
 -17   7  -1    2.04    0.32
 -17   7   1    1.76    0.39
  17  -7   1    2.35    0.31
  17   7  -1    2.92    0.50
  17  -7  -2   53.78    3.72
 -17   7  -2   50.13    3.75
 -17   7  -2   57.81    3.76
  17  -7  -2   49.15    3.75
  17   7   2   53.72    3.83
  17   7  -2   54.70    3.79
  17  -7   2   47.55    3.72
 -17   7   2   53.43    3.74
 -17  -7   3    7.13    0.88
  17  -7  -3    7.89    0.65
  17   7   3    9.26    0.82
 -17   7  -3    6.36    0.85
 -17   7  -3    7.59    0.82
  17  -7  -3    9.06    0.66
 -17   7   3    6.98    0.71
  17   7  -3    8.54    0.72
 -17   7  -4    1.11    0.43
  17  -7  -4    0.52    0.20
 -17   7  -4    0.69    0.38
  17   7   4    0.62    0.31
 -17  -7   4    0.84    0.36
  17  -7  -4    0.29    0.13
 -17   7   4   -0.02    0.27
  17   7  -4    0.29    0.20
 -17   7  -5    2.42    0.55
  17  -7  -5    1.37    0.27
 -17  -7   5    1.32    0.33
  17  -7  -5    1.77    0.24
  17   7  -5    1.52    0.27
 -17   7   5    1.18    0.34
 -17   7  -6   24.22    1.99
  17  -7  -6   24.65    1.72
 -17  -7   6   25.74    1.76
  17  -7  -6   21.00    1.78
  17   7  -6   24.13    1.77
  17   7  -6   23.13    1.78
 -17   7   6   24.57    1.80
 -17  -7   7    1.98    0.31
 -17  -7  -7    2.29    0.69
 -17   7   7    2.52    0.46
  17   7  -7    2.68    0.51
 -17   7  -8    0.85    0.59
 -17  -7   8    0.51    0.22
  17  -7  -8    0.20    0.20
 -17   7   8    0.67    0.28
 -17  -7  -8    0.99    0.56
  17   8   0    0.09    0.30
 -17   8   0   -0.23    0.24
  17  -8   0    0.24    0.16
  17  -8   0    0.03    0.14
 -17   8   0    0.03    0.20
 -17   8  -1   26.02    1.91
 -17   8  -1   28.23    1.91
  17  -8  -1   26.17    1.87
  17  -8  -1   23.73    1.90
 -17  -8   1   25.43    1.93
  17  -8   1   24.92    1.88
  17   8  -1   27.50    1.98
 -17   8   1   26.53    1.89
  17   8   2    4.17    0.67
 -17   8  -2    4.40    0.54
 -17   8  -2    4.02    0.54
  17  -8  -2    3.83    0.42
  17  -8  -2    4.42    0.40
 -17   8   2    3.68    0.45
  17   8  -2    3.97    0.52
  17  -8   2    3.81    0.38
 -17   8  -3   10.90    1.00
 -17  -8   3    9.54    1.02
  17  -8  -3   12.38    0.89
  17  -8  -3   12.04    0.89
  17   8   3   11.67    1.02
 -17   8  -3   12.15    0.99
  17   8  -3   11.38    0.95
 -17   8   3   11.62    0.94
 -17   8  -4    0.56    0.34
 -17   8  -4    0.84    0.40
  17  -8  -4    0.64    0.20
  17   8   4    0.34    0.30
  17  -8  -4    0.52    0.15
 -17  -8   4    0.66    0.37
  17   8  -4    0.57    0.23
 -17   8   4    0.23    0.27
  17  -8  -5   12.92    0.96
  17  -8  -5   13.55    1.09
 -17  -8   5   13.90    1.07
 -17   8   5   11.71    1.20
  17   8  -5   12.46    1.03
  17  -8  -6    2.96    0.48
 -17   8  -6    2.56    0.70
 -17  -8   6    3.51    0.49
  17   8  -6    3.55    0.51
 -17   8   6    2.73    0.54
 -17  -8  -6    5.35    1.08
 -17  -8   7    6.73    0.63
  17  -8  -7    6.19    0.64
 -17   8   7    6.84    0.64
 -17  -8  -7    6.39    0.99
 -17   8   7    7.39    0.65
  17  -8  -8   -0.17    0.18
 -17   8  -8   -0.32    0.52
 -17  -8  -8    0.80    0.45
 -17   8   8   -0.01    0.21
 -17   8   8    0.04    0.34
 -17  -9   0    0.80    0.30
  17  -9   0    0.47    0.15
  17   9   0    0.59    0.31
  17  -9   0    0.68    0.15
 -17   9  -1    2.16    0.40
  17  -9  -1    2.53    0.33
  17  -9  -1    2.29    0.29
 -17   9  -1    1.52    0.32
 -17  -9   1    2.15    0.46
  17   9  -1    2.82    0.50
  17  -9   1    2.27    0.30
 -17   9   1    1.57    0.33
 -17   9   1    2.25    0.37
 -17   9  -2   41.22    2.69
  17   9   2   38.53    2.78
 -17   9  -2   38.52    2.71
 -17  -9   2   33.51    2.71
  17  -9  -2   37.48    2.66
  17  -9  -2   34.99    2.68
  17   9  -2   36.76    2.73
 -17   9   2   36.76    2.68
 -17   9   2   38.29    2.74
 -17   9  -3    5.82    0.67
  17  -9  -3    7.28    0.55
  17   9   3    6.88    0.74
  17  -9  -3    6.15    0.56
 -17   9  -3    5.89    0.72
 -17  -9   3    4.78    0.75
  17   9  -3    7.17    0.64
 -17   9   3    6.16    0.62
 -17   9  -4    0.45    0.39
 -17  -9   4    0.63    0.34
 -17   9  -4    0.24    0.29
  17  -9  -4   -0.09    0.23
  17   9   4    0.02    0.28
 -17   9   4    0.29    0.48
  17   9  -4    0.28    0.24
 -17   9  -5    1.18    0.50
  17  -9  -5    1.41    0.25
 -17  -9   5    1.40    0.31
  17   9  -5    1.78    0.27
 -17   9   5    1.27    0.31
 -17  -9  -5    1.05    0.55
 -17   9  -6   20.91    1.72
 -17  -9   6   22.48    1.52
 -17   9   6   19.89    1.55
 -17   9   6   20.82    1.52
  17   9  -6   21.15    1.54
 -17  -9  -6   16.30    1.68
 -17  -9   7    0.93    0.26
 -17   9  -7    0.32    0.58
  17  -9  -7    1.19    0.23
 -17   9   7    0.96    0.29
 -17   9   7    1.02    0.24
 -17  -9  -7    0.69    0.53
  17  10   0    0.31    0.29
 -17 -10   0    0.25    0.26
 -17  10   0    0.02    0.19
  17 -10   0   -0.11    0.13
 -17  10  -1   22.07    1.58
 -17 -10   1   21.04    1.59
 -17  10  -1   22.18    1.61
  17 -10  -1   21.05    1.55
  17  10  -1   20.81    1.66
 -17 -10  -1   19.84    1.79
 -17  10   1   22.60    1.63
  17 -10   1   21.20    1.56
 -17  10   1   21.57    1.58
 -17 -10   2    5.07    0.67
 -17  10  -2    4.37    0.62
  17  10   2    5.76    0.83
  17  10  -2    5.29    0.58
 -17 -10  -2    3.97    0.63
 -17  10   2    5.42    0.66
 -17  10  -3   16.99    1.37
 -17  10  -3   18.26    1.33
 -17 -10   3   15.23    1.36
  17  10   3   19.09    1.41
  17 -10  -3   18.18    1.30
 -17  10   3   18.16    1.33
  17  10  -3   17.26    1.35
 -17 -10  -3   17.15    1.40
  17  10   4    0.07    0.28
 -17  10  -4    0.00    0.34
 -17  10  -4    0.14    0.25
 -17 -10   4    0.22    0.31
  17 -10  -4    0.01    0.19
 -17  10   4    0.39    0.24
 -17 -10  -4    0.58    0.43
 -17  10   4   -0.26    0.31
  17  10  -4    0.19    0.20
 -17 -10   5   10.78    0.84
  17 -10  -5    8.85    0.79
 -17  10  -5   10.47    1.00
 -17 -10  -5    9.50    1.00
  17  10  -5    9.51    0.80
 -17  10   5    8.27    0.84
  17 -10  -6    1.09    0.23
 -17  10  -6    1.31    0.57
 -17 -10  -6    0.50    0.46
 -17  10   6    1.17    0.26
 -17 -10   7    7.38    0.74
 -17  10  -7    7.65    0.92
 -17 -10  -7    6.52    0.80
 -17 -11   0    1.87    0.39
  17 -11   0    1.27    0.26
 -17  11   0    1.84    0.34
 -17  11   0    1.94    0.45
  17 -11  -1    2.28    0.31
 -17  11  -1    2.40    0.47
 -17  11  -1    2.33    0.39
 -17 -11   1    3.26    0.60
  17  11  -1    3.38    0.51
  17 -11   1    2.47    0.33
 -17  11   1    2.32    0.38
 -17  11   1    2.40    0.51
 -17  11  -2   41.23    2.82
 -17  11  -2   39.12    2.84
  17 -11  -2   40.90    2.79
 -17 -11   2   36.26    2.83
  17  11   2   37.68    2.89
 -17 -11  -2   39.25    2.82
 -17  11   2   40.64    2.82
  17  11  -2   40.78    2.86
 -17  11   2   37.39    2.86
 -17  11  -3    2.19    0.45
 -17 -11   3    2.36    0.39
 -17  11  -3    2.10    0.39
 -17  11   3    3.40    0.44
 -17 -11  -3    2.76    0.55
  17  11  -3    3.54    0.43
  17 -11  -4    1.70    0.35
 -17  11   4    2.44    0.55
 -17  11   4    0.99    0.27
 -17 -11   5    1.55    0.32
  17 -11  -5    1.96    0.40
 -17  11  -5    1.28    0.51
  17  11  -5    2.36    0.42
 -17 -11  -5    1.77    0.43
 -17  11  -6   11.14    1.17
 -17 -11   6   13.52    1.00
 -17 -11  -6   11.26    1.11
 -17  11   6   14.14    1.00
 -17  11   6   12.08    1.04
  17  12   0    0.15    0.27
 -17 -12   0   -0.08    0.19
  17 -12   0   -0.21    0.14
 -17  12   0    0.14    0.17
  17 -12  -1   10.52    0.79
 -17  12  -1   10.61    0.82
 -17 -12   1   10.72    0.93
 -17  12  -1   10.77    0.89
 -17 -12  -1   10.26    0.83
 -17  12   1   10.41    0.82
  17  12  -1    9.65    0.90
  17 -12   1   10.21    0.80
 -17  12   1    9.69    0.92
 -17 -12   2    3.04    0.60
 -17  12  -2    2.52    0.50
 -17  12  -2    3.41    0.43
  17  12   2    3.67    0.57
  17 -12  -2    3.69    0.38
 -17 -12  -2    3.31    0.47
 -17  12   2    2.79    0.61
  17  12  -2    4.04    0.48
 -17  12   2    2.96    0.42
  17 -12  -3   10.16    0.76
  17  12   3   10.48    0.86
 -17  12  -3    8.72    0.86
 -17  12  -3   10.41    0.80
 -17 -12   3    7.64    0.87
 -17 -12  -3    9.59    0.83
 -17  12   3    8.62    0.79
  17  12  -3    9.86    0.80
  17 -12  -4   -0.22    0.18
 -17  12  -4    0.07    0.40
  17  12   4   -0.32    0.28
 -17 -12   4    0.20    0.33
  17  12  -4    0.29    0.21
 -17  12   4   -0.13    0.23
 -17  12   4    0.51    0.36
 -17 -12  -4    0.04    0.33
 -17  12  -5    7.42    0.85
  17 -12  -5    5.31    0.63
 -17  12   5    5.52    0.63
  17  12  -5    6.93    0.64
 -17 -12  -5    6.01    0.77
 -17  12   5    7.10    0.71
 -17  13   0    1.98    0.34
 -17  13   0    2.43    0.54
 -17 -13   1    0.50    0.42
 -17  13  -1    0.36    0.19
 -17  13  -1    0.37    0.31
  17  13   1    0.35    0.26
  17 -13  -1    0.51    0.17
  17  13  -1    0.59    0.24
 -17  13   1    0.26    0.18
 -17  13   1    0.62    0.35
 -17 -13  -1    0.62    0.21
  17 -13  -2   26.71    1.79
  17  13   2   24.80    1.86
 -17  13  -2   22.13    1.86
 -17 -13   2   22.57    1.87
 -17  13  -2   25.24    1.81
 -17  13   2   25.27    1.81
  17  13  -2   26.03    1.84
 -17 -13  -2   25.60    1.81
 -17  13  -3    1.14    0.41
  17  13   3    1.47    0.28
  17 -13  -3    1.43    0.21
 -17  13  -3    1.15    0.25
 -17  13   3    1.20    0.25
 -17  13   3    0.81    0.42
 -17 -13  -3    0.95    0.30
  17 -13  -4    0.54    0.20
 -17  13  -4    1.77    0.46
 -17  13   4    0.67    0.25
 -17 -13  -4    1.16    0.31
  17  13  -4    0.54    0.21
 -17  14   0   -0.08    0.19
  17  14   0    0.18    0.24
 -17  14   0   -0.53    0.42
 -17 -14   1   12.04    1.13
 -17  14  -1   13.24    0.97
  17  14   1   10.94    1.03
 -17  14  -1   11.59    1.12
 -17  14   1   13.72    0.98
  17  14  -1   13.39    1.02
  17  14   2    1.18    0.27
 -17  14  -2    0.56    0.85
 -17 -14   2    0.81    0.41
 -17  14  -2    1.32    0.32
 -17 -14  -2    1.36    0.30
 -17  14   2    1.22    0.53
  17  14  -2    1.43    0.39
 -17  14   2    1.11    0.30
  18   0   0    9.28    0.90
  18   0   1   11.71    1.23
  18   0  -1   10.30    0.94
  18   0  -2    0.13    0.20
  18   0   2    0.44    0.30
  18   0  -3   32.65    2.25
  18   0   3   29.06    2.26
  18   0  -4    0.84    0.20
 -18   0   4   -0.01    0.39
  18   0  -5   48.64    3.47
  18   0  -5   50.58    3.49
 -18   0   5   46.76    3.49
 -18   0   6    1.09    0.29
  18   0  -6    0.75    0.18
  18   0  -6    0.40    0.31
  18   0  -7    7.23    0.66
  18   0  -7    7.22    0.86
 -18   0   7    9.45    0.97
 -18   0  -8    2.95    0.88
 -18   0   8    3.37    0.46
 -18   0   9    3.23    0.43
  18   0  -9    2.63    0.44
  18  -1   0   70.54    4.77
  18   1   0   62.42    4.78
  18   1   1   12.95    1.14
  18  -1  -1   12.04    1.06
  18  -1   1   14.02    1.16
  18   1  -1   13.44    1.09
  18   1   2    0.24    0.29
  18  -1  -2    0.07    0.20
  18   1  -2    0.23    0.21
  18  -1   2    0.17    0.25
  18  -1  -3   31.50    2.21
  18   1   3   31.20    2.25
  18  -1   3   27.75    2.22
  18   1  -3   30.96    2.22
 -18  -1   4   16.03    1.42
  18  -1  -4   17.86    1.27
 -18   1   4   15.45    1.39
  18   1  -4   17.98    1.28
 -18  -1   5    6.26    0.74
  18  -1  -5    7.45    0.59
  18  -1  -5    6.68    0.68
 -18   1   5    6.50    0.75
  18   1  -5    5.26    0.73
  18   1  -5    7.46    0.60
 -18  -1   6    0.19    0.25
  18  -1  -6   -0.03    0.29
  18  -1  -6    0.38    0.16
  18   1  -6   -0.11    0.29
 -18   1   6    0.25    0.28
  18   1  -6    0.10    0.18
  18  -1  -7    0.40    0.18
  18  -1  -7    0.59    0.31
 -18  -1   7    0.47    0.30
  18   1  -7    0.42    0.23
 -18   1   7    0.03    0.34
  18   1  -7    0.22    0.30
 -18   1  -8   18.65    1.92
 -18  -1   8   21.39    1.55
  18  -1  -8   22.20    1.57
 -18   1   8   21.37    1.55
 -18  -1  -8   16.73    2.30
  18   1  -8   22.63    1.57
 -18   1  -9   -0.08    0.64
 -18  -1   9    0.99    0.24
  18   1  -9    1.16    0.25
 -18  -1  -9    1.25    0.94
  18   2   0    5.93    0.73
  18  -2   0    7.46    0.69
  18  -2  -1   13.71    1.23
  18   2   1   14.95    1.30
  18  -2   1   17.52    1.24
  18   2  -1   16.95    1.27
  18  -2  -2    0.66    0.21
  18   2   2    0.52    0.28
  18  -2   2    0.45    0.22
  18   2  -2    0.47    0.23
  18   2   3   17.55    1.42
  18  -2  -3   17.98    1.35
  18   2  -3   17.73    1.37
 -18   2   3   18.74    1.44
  18  -2  -4    1.96    0.30
  18  -2  -4    2.53    0.34
  18   2  -4    2.70    0.40
  18  -2  -5   14.20    1.07
 -18  -2   5   12.67    1.11
  18  -2  -5   13.73    1.02
 -18   2   5   12.57    1.13
  18   2  -5   13.91    1.04
  18  -2  -6    0.38    0.29
 -18  -2   6    0.54    0.27
  18  -2  -6    0.41    0.15
 -18   2   6    0.16    0.30
  18   2  -6   -0.16    0.30
  18   2  -6    0.23    0.20
 -18  -2   7   16.30    1.19
  18  -2  -7   14.70    1.15
  18   2  -7   16.03    1.24
 -18   2   7   17.32    1.23
  18   2  -7   13.76    1.19
 -18  -2   8    2.49    0.41
  18  -2  -8    2.62    0.47
 -18   2  -8    2.04    0.82
  18   2  -8    1.74    0.32
 -18   2   8    2.95    0.45
 -18   2  -9    6.08    0.98
 -18  -2   9    5.46    0.58
  18  -2  -9    7.28    0.58
  18   2  -9    5.78    0.61
 -18  -2  -9    5.39    1.23
 -18   2   9    6.45    0.58
  18  -3   0   46.79    3.09
  18   3   0   38.30    3.12
  18   3   1   24.12    1.98
  18  -3  -1   22.43    1.92
  18  -3   1   28.88    1.91
  18   3  -1   28.13    1.96
  18   3   2    0.24    0.30
  18  -3  -2    0.38    0.19
  18  -3   2    0.32    0.19
  18   3  -2    0.09    0.19
  18  -3  -3   13.45    0.97
  18   3   3   12.07    1.06
 -18   3   3   11.25    1.05
  18   3  -3   12.45    0.99
  18  -3  -4   38.54    2.69
  18  -3  -4   41.36    2.69
 -18  -3   4   38.01    2.75
 -18   3   4   33.91    2.73
  18   3  -4   35.51    2.71
 -18  -3   5    0.03    0.31
  18  -3  -5    0.18    0.25
 -18   3   5    0.18    0.34
  18   3  -5    0.53    0.20
  18   3  -5   -0.46    0.32
 -18  -3   6    1.92    0.30
  18  -3  -6    1.05    0.31
  18   3  -6    1.38    0.35
 -18   3   6    1.91    0.35
 -18   3  -7    4.97    1.24
 -18  -3   7    7.31    0.64
  18  -3  -7    6.90    0.55
  18   3  -7    7.39    0.72
  18   3  -7    5.85    0.66
 -18   3   7    6.21    0.67
  18  -3  -8   20.56    1.54
 -18  -3   8   20.49    1.52
 -18   3  -8   19.26    1.85
  18   3  -8   20.70    1.54
 -18   3   8   21.72    1.54
 -18  -3   9    2.75    0.45
  18  -3  -9    4.05    0.44
 -18   3  -9    2.36    0.72
 -18   3   9    4.45    0.45
  18   3  -9    2.76    0.55
 -18  -3  -9    3.79    0.87
  18   4   0    4.62    0.65
  18  -4   0    5.55    0.56
  18   4   1   26.15    2.26
  18  -4  -1   26.12    2.19
  18  -4   1   33.75    2.19
  18   4  -1   33.91    2.25
  18  -4  -2    1.88    0.38
  18   4   2    3.14    0.58
 -18   4   2    2.36    0.36
  18   4  -2    2.60    0.43
  18  -4   2    2.32    0.38
  18  -4  -3   12.68    0.97
  18   4   3   12.35    1.09
  18  -4  -3   12.84    0.98
 -18   4   3   13.89    1.05
  18   4  -3   11.56    1.01
  18  -4  -4    7.79    0.68
 -18  -4   4    7.64    0.85
  18  -4  -4    9.29    0.65
  18   4  -4    7.68    0.69
 -18   4   4    6.08    0.79
 -18  -4   5    9.68    0.88
  18  -4  -5    9.50    0.76
  18  -4  -5   10.99    0.84
  18   4  -5   10.14    0.82
 -18   4   5    8.40    0.91
  18  -4  -6   -0.16    0.13
  18  -4  -6   -0.31    0.27
  18   4  -6   -0.70    0.42
 -18   4   6   -0.17    0.31
  18   4  -6    0.33    0.23
 -18   4  -7   18.14    1.93
  18  -4  -7   17.22    1.33
 -18  -4   7   20.14    1.38
  18   4  -7   16.78    1.42
  18   4  -7   19.25    1.41
  18  -4  -8    0.64    0.24
 -18   4  -8    0.84    0.76
 -18  -4  -8    0.48    1.17
  18   4  -8    0.59    0.28
 -18  -4   9    9.92    0.79
  18  -4  -9   11.03    0.89
 -18   4  -9    8.22    1.44
 -18   4   9   10.59    0.80
 -18  -4  -9    8.35    1.05
  18  -5   0   43.55    2.95
  18   5   0   38.25    3.02
  18  -5  -1   17.87    1.54
  18   5   1   17.46    1.63
  18   5  -1   24.01    1.62
  18  -5   1   22.93    1.53
  18  -5  -2    0.22    0.18
  18   5   2    0.47    0.30
  18   5  -2    0.45    0.25
  18  -5   2    0.32    0.17
 -18   5   2    0.31    0.25
  18   5   3   15.80    1.23
  18  -5  -3   15.45    1.13
  18  -5  -3   14.96    1.11
 -18   5   3   14.24    1.17
  18   5  -3   13.97    1.16
  18  -5  -4   37.22    2.58
 -18  -5   4   34.63    2.64
  18  -5  -4   38.32    2.58
 -18   5   4   35.45    2.62
  18   5  -4   34.13    2.61
 -18   5  -5    0.53    0.73
  18  -5  -5    1.59    0.27
 -18  -5   5    1.14    0.30
 -18   5   5    0.86    0.34
  18   5  -5    1.74    0.37
  18  -5  -6    2.28    0.29
 -18   5  -6    1.55    0.92
 -18  -5   6    1.59    0.39
  18   5  -6    2.14    0.30
  18  -5  -7    2.50    0.30
 -18   5  -7    3.67    0.93
  18   5  -7    2.42    0.38
 -18   5  -8   15.91    1.48
 -18  -5   8   14.37    1.13
  18  -5  -8   15.22    1.15
 -18  -5  -8   13.63    1.54
 -18   5   8   15.31    1.14
  18  -5  -9    2.76    0.37
 -18  -5   9    2.07    0.29
 -18   5  -9    0.89    0.61
 -18  -5  -9    1.77    0.55
 -18   5   9    1.70    0.36
 -18   6   0    8.43    0.81
  18   6   0    7.70    0.88
  18  -6   0    9.52    0.73
  18  -6  -1    9.59    0.91
  18   6  -1   12.70    1.01
  18  -6   1   11.88    0.89
 -18   6   1   12.11    0.94
  18   6   2   -0.48    0.31
  18  -6  -2   -0.01    0.17
 -18   6  -2   -0.40    0.35
  18  -6  -2    0.16    0.17
 -18   6   2   -0.06    0.23
  18   6  -2    0.06    0.21
  18  -6   2   -0.04    0.15
  18   6   3   23.54    1.80
  18  -6  -3   22.62    1.72
  18  -6  -3   24.02    1.70
 -18   6  -3   23.72    1.83
 -18   6   3   24.32    1.74
  18   6  -3   22.74    1.76
 -18   6  -4    5.88    0.87
  18   6   4    3.87    0.66
  18  -6  -4    4.43    0.49
 -18  -6   4    4.35    0.71
  18  -6  -4    4.43    0.42
  18   6  -4    4.91    0.51
  18  -6  -5   16.71    1.19
 -18  -6   5   15.12    1.21
 -18   6  -5   13.54    1.46
  18  -6  -5   15.16    1.12
  18   6  -5   14.80    1.18
  18  -6  -6    0.04    0.11
 -18  -6   6    0.14    0.25
 -18   6  -6   -1.22    0.77
  18  -6  -6   -0.34    0.25
  18   6  -6    0.02    0.23
 -18   6  -7   13.39    1.44
 -18  -6   7   11.60    0.94
 -18   6   7   11.32    0.97
 -18   6  -8    2.79    0.70
 -18  -6   8    1.61    0.28
  18  -6  -8    2.21    0.42
 -18  -6  -8    1.85    0.69
 -18   6   8    2.58    0.41
 -18   7   0   66.38    4.36
  18   7   0   51.80    4.43
  18  -7   0   65.71    4.37
 -18   7  -1    2.39    0.52
 -18   7  -1    3.10    0.54
  18  -7  -1    3.48    0.40
  18   7   1    2.34    0.48
  18   7  -1    4.53    0.57
  18  -7   1    4.14    0.37
 -18   7   1    3.21    0.46
  18  -7  -2    2.17    0.33
  18  -7  -2    2.10    0.32
 -18   7  -2    2.07    0.40
 -18   7  -2    1.63    0.36
  18   7   2    1.79    0.41
  18   7  -2    2.53    0.45
  18  -7   2    2.09    0.28
 -18   7   2    2.11    0.42
  18   7   3   19.15    1.47
  18  -7  -3   18.23    1.37
  18  -7  -3   19.30    1.38
 -18   7  -3   19.30    1.49
 -18   7   3   18.03    1.41
  18   7  -3   17.97    1.42
  18   7   4   22.67    1.80
  18  -7  -4   23.09    1.73
  18  -7  -4   25.63    1.74
 -18   7  -4   25.75    1.87
 -18  -7   4   24.76    1.82
 -18   7   4   23.61    1.79
  18   7  -4   21.34    1.76
 -18   7  -5    3.14    0.67
 -18  -7   5    3.25    0.60
  18  -7  -5    4.40    0.56
  18  -7  -5    5.49    0.48
  18   7  -5    4.52    0.51
 -18  -7   6    0.61    0.26
  18  -7  -6    0.24    0.12
  18  -7  -6    0.45    0.25
 -18   7   6    0.33    0.28
  18   7  -6    0.42    0.23
 -18   7  -7    0.80    0.69
  18  -7  -7    0.36    0.24
 -18  -7   7    0.89    0.24
 -18   7   7    0.34    0.24
 -18  -7  -7    0.09    0.88
  18  -7  -8   21.63    1.58
 -18   7  -8   21.28    1.73
 -18  -7   8   21.46    1.55
 -18   7   8   19.49    1.64
 -18   7   8   22.21    1.57
 -18  -7  -8   21.37    1.73
 -18   8   0   11.16    0.96
 -18   8   0   12.26    0.95
  18  -8   0   13.20    0.92
  18   8   0   10.33    1.05
  18  -8  -1    5.10    0.48
  18  -8  -1    4.90    0.51
 -18   8  -1    5.64    0.59
  18   8   1    4.03    0.70
 -18   8  -1    6.51    0.61
 -18  -8   1    6.60    0.65
  18   8  -1    5.63    0.65
  18  -8   1    5.37    0.48
 -18   8   1    6.18    0.56
  18  -8  -2    0.31    0.16
 -18   8  -2    0.88    0.30
  18  -8  -2    0.72    0.17
 -18   8  -2    0.23    0.29
  18   8   2    0.61    0.31
  18   8  -2    0.47    0.23
 -18   8   2    0.56    0.21
  18  -8  -3   23.47    1.70
 -18   8  -3   23.91    1.76
  18  -8  -3   23.71    1.70
  18   8   3   23.43    1.79
 -18   8  -3   23.72    1.77
 -18   8   3   23.42    1.73
  18   8  -3   21.63    1.74
  18   8   4    1.24    0.32
  18  -8  -4    1.62    0.31
 -18   8  -4    0.84    0.38
 -18   8  -4    1.43    0.56
 -18  -8   4    0.50    0.36
  18  -8  -5   11.81    0.81
 -18   8  -5    9.82    1.10
  18  -8  -5   10.92    0.89
 -18  -8   5   10.18    0.91
  18   8  -5   10.46    0.88
 -18  -8   6    1.91    0.29
 -18   8  -6    1.24    0.69
  18  -8  -6    0.84    0.27
 -18   8   6    1.22    0.32
  18   8  -6    1.51    0.28
 -18  -8   7    7.54    0.65
 -18   8  -7    6.74    1.04
 -18   8   7    7.14    0.68
 -18   8   7    6.82    0.64
 -18  -9   0   37.87    2.79
  18  -9   0   41.44    2.77
 -18   9   0   39.69    2.80
 -18   9   0   41.46    2.78
  18   9   0   32.68    2.86
 -18   9  -1    5.69    0.62
 -18   9  -1    5.77    0.60
  18  -9  -1    6.54    0.53
  18   9   1    4.30    0.73
  18  -9  -1    5.90    0.51
  18   9  -1    7.38    0.70
 -18   9   1    5.11    0.65
 -18   9   1    5.59    0.57
  18  -9  -2    3.03    0.35
 -18   9  -2    2.86    0.54
  18  -9  -2    2.78    0.38
  18   9   2    3.41    0.61
 -18   9  -2    1.59    0.54
 -18   9   2    2.02    0.43
  18   9  -2    3.03    0.49
  18   9   3   12.76    0.99
  18  -9  -3   11.92    0.86
 -18   9  -3   11.38    0.93
 -18   9  -3   10.68    1.01
 -18  -9   3    8.84    1.05
 -18   9   3   10.79    0.94
  18   9  -3    9.67    1.11
 -18   9  -4   21.98    1.59
 -18   9  -4   20.46    1.54
  18  -9  -4   22.34    1.50
 -18  -9   4   20.39    1.57
  18   9   4   19.01    1.55
  18   9  -4   18.82    1.51
 -18   9   4   19.22    1.58
 -18   9   4   19.48    1.53
 -18  -9   5    1.15    0.31
  18  -9  -5    1.56    0.26
 -18   9  -5    0.70    0.52
  18   9  -5    1.96    0.38
 -18  -9  -5    0.10    0.79
 -18   9   5    2.13    0.51
  18  -9  -6    0.12    0.24
 -18   9  -6    0.99    0.62
 -18  -9   6   -0.26    0.25
 -18   9   6   -0.11    0.25
  18   9  -6    0.08    0.29
 -18  -9  -6    0.63    0.57
 -18   9  -7    0.89    0.58
 -18  -9   7    1.20    0.27
 -18  -9  -7    1.59    0.52
 -18   9   7    1.29    0.26
 -18   9   7    1.94    0.51
  18  10   0    5.71    0.92
 -18  10   0    6.40    0.57
 -18  10   0    5.83    0.75
 -18 -10   0    5.84    0.61
 -18  10  -1   13.98    1.06
  18 -10  -1   13.55    1.01
 -18  10  -1   13.06    1.10
  18  10  -1   15.13    1.21
 -18  10   1   13.03    1.14
 -18  10   1   13.46    1.05
 -18 -10  -1   13.61    1.11
  18 -10  -2    0.34    0.16
 -18  10  -2    0.29    0.27
  18  10   2   -0.04    0.29
 -18 -10   2    0.57    0.41
 -18  10  -2    0.37    0.22
 -18  10   2    0.29    0.20
 -18  10   2    0.04    0.32
  18  10  -2    0.21    0.23
 -18  10  -3    8.51    0.77
 -18  10  -3    9.01    0.72
  18 -10  -3    7.58    0.64
  18  10   3    7.89    0.77
 -18 -10   3    7.39    0.85
  18  10  -3    6.79    0.69
 -18 -10  -3    7.66    0.84
 -18  10   3    8.27    0.70
 -18  10   3    6.99    0.80
 -18 -10   4    6.57    0.74
  18  10   4    6.51    0.70
  18 -10  -4    6.99    0.58
 -18  10  -4    6.83    0.76
 -18  10   4    6.27    0.64
  18  10  -4    6.09    0.60
 -18  10   4    5.76    0.71
 -18 -10  -4    5.43    0.86
 -18  10  -5    8.97    0.99
 -18 -10   5    9.96    0.82
  18 -10  -5    8.69    0.78
 -18 -10  -5    8.90    1.04
  18  10  -5    9.86    0.78
 -18  10   5    7.65    0.81
 -18  10   5   10.12    0.83
  18 -10  -6   -0.07    0.21
 -18 -10  -6   -0.23    0.47
 -18  10   6    0.01    0.29
 -18  10   6    0.09    0.24
 -18  11   0   26.18    1.96
 -18  11   0   28.39    2.01
 -18 -11   0   26.90    1.97
 -18  11  -1    7.99    0.77
  18 -11  -1    9.45    0.69
 -18  11  -1    8.89    0.73
 -18  11   1    8.47    0.72
  18  11  -1    9.85    0.82
 -18 -11  -1    7.96    0.76
 -18  11   1    7.89    0.80
 -18 -11   2    1.52    0.43
  18 -11  -2    2.28    0.34
 -18  11  -2    1.98    0.41
  18  11  -2    1.92    0.43
 -18  11   2    2.35    0.39
 -18 -11   3    4.74    0.71
 -18  11  -3    3.53    0.58
  18  11   3    4.06    0.57
 -18  11  -3    2.85    0.51
  18 -11  -3    4.42    0.43
  18  11  -3    3.58    0.47
 -18  11   3    3.94    0.49
 -18  11  -4   24.42    1.98
  18  11   4   27.08    1.96
 -18 -11   4   27.46    1.96
  18 -11  -4   27.26    1.91
 -18  11   4   26.00    1.94
  18  11  -4   26.90    1.93
 -18  11   4   24.73    1.97
 -18 -11  -4   27.09    1.97
 -18 -11   5    0.72    0.30
  18 -11  -5   -0.15    0.22
 -18  11  -5    0.06    0.50
 -18 -11  -5    0.22    0.48
 -18  11   5    0.26    0.25
  18  11  -5    0.28    0.28
 -18  12   0    1.42    0.34
 -18  12   0    2.13    0.35
  18  12   0    1.16    0.31
 -18  12  -1    7.03    0.66
 -18  12  -1    7.72    0.75
 -18  12   1    7.53    0.78
 -18 -12  -1    8.75    0.69
 -18  12   1    7.71    0.67
  18  12  -1    8.66    0.76
 -18  12  -2    0.66    0.21
  18 -12  -2    0.97    0.20
  18  12   2    0.54    0.27
 -18 -12   2    1.18    0.44
 -18  12  -2    0.71    0.30
 -18 -12  -2    0.96    0.27
 -18  12   2    0.63    0.21
  18  12  -2    0.98    0.24
 -18  12   2    0.42    0.34
  18 -12  -3    3.17    0.41
 -18  12  -3    2.92    0.56
 -18 -12   3    3.55    0.75
 -18  12  -3    2.95    0.48
  18  12   3    3.06    0.51
  18  12  -3    2.42    0.42
 -18  12   3    2.62    0.61
 -18 -12  -3    3.24    0.54
 -18  12   3    2.85    0.46
  18 -12  -4    5.59    0.82
  18  12   4    6.94    0.71
 -18  12  -4    6.05    0.79
 -18 -12   4    6.49    0.76
 -18 -12  -4    5.53    0.84
  18  12  -4    7.01    0.64
 -18  12   4    6.22    0.64
 -18  12   4    7.43    0.74
  18  13   0   16.62    1.37
 -18  13   0   17.91    1.39
 -18  13   0   18.40    1.31
 -18  13  -1    1.94    0.38
  18  13   1    2.81    0.50
 -18  13  -1    1.77    0.38
 -18  13   1    2.19    0.39
 -18  13   1    1.44    0.41
 -18  13  -2    1.29    0.37
 -18 -13   2   -0.03    0.50
  18  13   2    0.44    0.26
 -18  13  -2    0.81    0.22
 -18 -13  -2    0.96    0.28
  18  13  -2    0.23    0.21
 -18  13   2    1.12    0.40
 -18  13   2    0.58    0.22
 -18 -13   3    2.30    0.43
 -18  13  -3    1.50    0.44
 -18  13   3    1.76    0.29
 -18 -13  -3    1.53    0.34
 -18  13   3    1.99    0.46
  19   0   0   -0.05    0.27
  19   0  -1   39.36    3.09
  19   0   1   45.51    3.10
  19   0   2   39.17    2.88
  19   0  -2   40.17    2.89
  19   0   3   17.28    1.39
  19   0  -3   19.00    1.38
 -19   0   4   -0.49    0.42
  19   0  -5    8.79    0.72
 -19   0   6   16.00    1.29
  19   0  -6   16.76    1.23
 -19   0   7   13.60    1.05
  19   0  -7   12.67    1.00
 -19   0   8   -0.14    0.23
  19   0  -8    0.48    0.26
 -19   0   9    3.13    0.43
 -19   0  -9    1.59    0.71
  19  -1   0    0.03    0.23
  19   1   0    0.04    0.27
  19   1   1    0.78    0.32
  19  -1  -1    0.65    0.26
  19  -1   1    0.81    0.28
  19   1  -1    0.67    0.28
  19   1   2   37.09    2.70
  19  -1  -2   36.78    2.68
  19   1  -2   38.03    2.69
  19  -1   2   35.22    2.66
  19   1   3    6.41    0.72
  19  -1  -3    8.14    0.64
  19  -1   3    5.89    0.66
  19   1  -3    7.64    0.66
  19  -1  -4    0.63    0.18
 -19  -1   4    1.20    0.44
  19   1  -4    0.72    0.19
 -19   1   4    0.61    0.42
  19  -1  -5    7.08    0.74
  19  -1  -5    7.62    0.63
 -19  -1   5    7.12    0.80
 -19   1   5    7.75    0.83
  19   1  -5    7.71    0.65
  19  -1  -6    6.45    0.59
 -19  -1   6    6.95    0.72
 -19   1   6    7.54    0.73
  19   1  -6    6.48    0.61
  19  -1  -7    0.17    0.17
  19  -1  -7   -0.29    0.28
 -19  -1   7   -0.27    0.24
  19   1  -7    0.27    0.31
  19   1  -7    0.27    0.20
 -19   1   7    0.02    0.26
 -19  -1   8    0.29    0.23
  19  -1  -8    0.64    0.26
 -19   1  -8   -0.31    0.86
 -19   1   8    0.40    0.24
  19   1  -8   -0.22    0.28
 -19  -1   9    1.52    0.27
 -19   1  -9    1.02    0.69
 -19   1   9    1.86    0.28
 -19  -1  -9    1.75    0.68
  19  -2   0   -0.12    0.23
  19   2   0   -0.19    0.28
  19   2   1   40.12    2.99
  19  -2  -1   35.50    2.94
  19  -2   1   44.19    2.95
  19   2  -1   42.92    2.98
  19   2   2   34.68    2.44
  19  -2  -2   31.33    2.40
  19  -2   2   31.03    2.38
  19   2  -2   34.47    2.42
  19  -2  -3    9.61    0.77
  19   2   3    8.39    0.87
  19   2  -3    9.57    0.80
  19  -2  -4    0.07    0.15
  19   2  -4    0.04    0.19
  19  -2  -5   10.15    0.81
 -19  -2   5   11.48    0.98
  19  -2  -5   11.46    0.90
  19   2  -5   10.31    0.84
 -19   2   5    8.77    0.98
 -19  -2   6    9.27    1.04
  19  -2  -6   12.68    0.90
  19   2  -6   12.68    1.00
 -19   2   6   10.52    1.02
 -19  -2   7    8.28    0.75
  19  -2  -7    8.77    0.68
  19   2  -7    8.92    0.73
 -19   2   7    8.10    0.78
 -19  -2   8   -0.14    0.23
  19  -2  -8   -0.02    0.26
 -19   2   8   -0.13    0.24
 -19   2  -9    2.68    0.70
 -19   2   9    3.45    0.43
 -19  -2  -9    2.74    0.69
  19  -3   0    0.04    0.21
  19   3   0   -0.01    0.30
  19  -3  -1    0.85    0.24
  19   3   1    0.49    0.32
  19  -3   1    0.76    0.23
  19   3  -1    0.80    0.29
  19  -3  -2   33.82    2.51
  19   3   2   35.97    2.56
  19  -3   2   32.10    2.48
  19   3  -2   36.08    2.53
  19   3   3    3.44    0.60
  19  -3  -3    3.77    0.40
 -19   3   3    2.81    0.45
  19   3  -3    2.96    0.45
  19  -3  -4   -0.06    0.13
 -19   3   4   -0.28    0.34
  19   3  -4   -0.13    0.19
 -19  -3   5   10.96    0.99
  19  -3  -5   11.66    0.93
  19  -3  -5   10.79    0.85
  19   3  -5   11.04    0.89
  19  -3  -6   13.56    1.14
 -19  -3   6   16.66    1.35
  19   3  -6   14.75    1.14
  19  -3  -7    0.29    0.15
 -19   3  -7    1.74    1.19
  19  -3  -7   -0.23    0.27
 -19  -3   7    0.24    0.24
  19   3  -7   -0.02    0.24
 -19   3   7    0.55    0.29
  19  -3  -8   -0.17    0.25
 -19   3  -8    0.39    0.80
 -19  -3   8    0.02    0.22
 -19   3   8    0.16    0.23
 -19   3  -9    2.05    0.65
 -19  -3   9    1.50    0.28
 -19   3   9    2.18    0.38
 -19  -3  -9    1.29    0.68
  19  -4   0   -0.03    0.20
  19   4   0    0.05    0.31
  19  -4  -1   35.99    3.06
  19   4   1   38.02    3.13
  19   4  -1   48.17    3.13
  19  -4   1   47.94    3.06
  19  -4  -2   36.77    2.70
  19   4   2   39.04    2.77
  19  -4   2   35.12    2.67
  19   4  -2   38.53    2.73
  19   4   3   10.49    0.93
  19  -4  -3   10.13    0.81
  19   4  -3   10.55    0.85
 -19   4   3    8.70    0.90
  19  -4  -4   -0.29    0.22
 -19  -4   4   -0.12    0.44
  19  -4  -4    0.10    0.14
  19   4  -4    0.20    0.20
  19  -4  -5   10.51    0.83
  19  -4  -5    9.47    0.74
 -19  -4   5   10.83    0.91
  19   4  -5    9.27    0.80
 -19   4   5    7.50    0.92
 -19  -4   6    9.23    0.84
 -19   4  -6    8.36    2.17
  19  -4  -6    7.89    0.85
  19  -4  -6   10.65    0.74
  19   4  -6   10.72    0.80
 -19   4   6    9.15    0.89
 -19  -4   7    8.13    0.74
 -19   4  -7    6.50    1.59
  19  -4  -7    9.21    0.66
  19   4  -7    8.25    0.79
 -19   4   7    8.61    0.78
  19  -4  -8   -0.06    0.24
 -19   4  -8   -0.94    0.75
 -19   4   8   -0.13    0.23
  19  -5   0    0.16    0.18
  19   5   0    0.17    0.30
  19   5   1    1.04    0.35
  19   5  -1    0.88    0.27
  19  -5  -2   29.38    2.24
  19   5   2   33.40    2.32
  19   5  -2   31.78    2.28
  19  -5   2   28.90    2.21
 -19   5   2   30.72    2.25
  19  -5  -3    6.92    0.57
  19   5   3    6.19    0.73
  19   5  -3    6.11    0.63
 -19  -5   4    0.68    0.40
  19  -5  -4   -0.11    0.13
  19  -5  -4    0.17    0.21
 -19   5   4    0.02    0.30
  19   5  -4    0.02    0.18
  19  -5  -5    7.51    0.60
  19  -5  -5    7.46    0.80
 -19   5  -5    7.83    1.29
  19   5  -5    8.08    0.69
 -19   5   5    6.38    0.82
 -19  -5   6   10.95    0.85
  19  -5  -6   10.18    0.76
 -19   5  -6    9.87    1.64
  19  -5  -6    8.04    0.86
  19   5  -6    9.19    0.82
 -19   5   6   11.75    0.92
  19  -5  -7    0.62    0.26
 -19  -5   7    0.25    0.25
 -19   5  -7   -0.66    0.90
 -19   5   7    0.54    0.28
 -19  -5   8   -0.24    0.23
  19  -5  -8   -0.14    0.23
 -19   5   8    0.05    0.23
  19   6   0   -0.21    0.29
  19  -6   0    0.24    0.18
  19  -6  -1   27.94    2.33
 -19   6   1   32.44    2.33
  19   6  -1   35.13    2.41
  19  -6   1   33.38    2.32
  19   6   2   26.77    1.93
  19  -6  -2   24.78    1.84
 -19   6   2   23.25    1.84
  19   6  -2   26.72    1.89
  19  -6   2   23.68    1.80
  19  -6  -3    8.51    0.70
  19   6   3    9.73    0.84
 -19   6  -3    7.75    0.98
  19   6  -3    8.44    0.75
 -19   6   3    8.34    0.79
  19  -6  -4    0.03    0.21
  19   6   4   -0.48    0.35
  19  -6  -4    0.18    0.15
 -19   6  -4    0.67    0.56
 -19   6   4   -0.52    0.30
  19   6  -4    0.09    0.19
  19  -6  -5    8.49    0.70
  19  -6  -5   10.56    0.79
  19   6  -5    8.56    0.76
 -19   6   5    8.66    0.87
  19  -6  -6   10.32    0.71
  19  -6  -6    7.72    0.82
 -19  -6   6    9.96    0.82
 -19   6  -6   10.87    1.41
  19   6  -6    9.78    0.79
 -19   6   6    7.48    0.86
  19  -6  -7    3.84    0.57
 -19  -6   7    4.45    0.51
 -19   6  -7    3.83    0.90
 -19   6   7    5.62    0.56
 -19   6  -8   -0.12    1.10
  19  -6  -8    0.18    0.24
 -19   6   8    0.02    0.22
  19  -7   0    0.40    0.17
  19   7   0    0.63    0.33
 -19   7   0    0.27    0.26
 -19   7  -1    0.43    0.31
  19   7   1    0.60    0.33
  19  -7  -1    0.90    0.19
 -19   7  -1    0.89    0.40
 -19   7   1    0.77    0.26
  19   7  -1    0.41    0.27
  19  -7   1    0.83    0.17
  19   7   2   36.42    2.53
  19  -7  -2   31.86    2.43
 -19   7  -2   33.89    2.47
 -19   7   2   34.90    2.43
  19  -7   2   30.58    2.40
  19   7  -2   34.81    2.48
  19  -7  -3    3.02    0.42
 -19   7  -3    3.05    0.69
  19   7   3    3.23    0.58
  19  -7  -3    4.05    0.38
 -19   7   3    2.33    0.51
  19   7  -3    3.11    0.46
  19  -7  -4    0.04    0.14
  19  -7  -4   -0.35    0.25
 -19   7  -4   -0.05    0.49
 -19  -7   4    0.01    0.39
  19   7   4    0.25    0.32
 -19   7  -5    4.49    0.95
 -19  -7   5    6.02    0.61
  19  -7  -5    4.70    0.55
  19  -7  -5    4.76    0.41
 -19   7   5    3.61    0.64
  19   7  -5    4.80    0.51
  19  -7  -6   10.62    0.80
 -19   7   6   11.38    0.95
  19   7  -6   10.59    0.88
 -19  -7   7    0.10    0.24
 -19   7  -7   -0.81    0.73
  19  -7  -7    0.03    0.24
 -19   7   7   -0.15    0.26
 -19   7  -8   -0.84    0.58
  19  -8   0    0.22    0.15
 -19   8   0   -0.10    0.24
 -19   8   0   -0.09    0.28
  19   8   0   -0.10    0.30
 -19   8  -1   25.15    1.92
  19  -8  -1   23.38    1.90
 -19   8  -1   27.34    1.92
  19  -8   1   25.88    1.88
  19   8  -1   27.84    1.99
 -19   8   1   27.02    1.91
 -19   8  -2   17.12    1.31
  19   8   2   17.27    1.37
 -19   8  -2   15.38    1.54
  19  -8  -2   15.51    1.24
  19   8  -2   17.64    1.31
 -19   8   2   15.89    1.26
  19  -8  -3    2.92    0.43
 -19   8  -3    4.29    0.67
  19   8   3    3.57    0.64
 -19   8  -3    4.17    0.70
  19  -8  -3    4.14    0.43
  19   8  -3    3.87    0.75
  19  -8  -4   -0.16    0.11
  19  -8  -4   -0.37    0.21
  19   8   4   -0.30    0.31
 -19   8  -4   -0.45    0.41
  19   8  -4    0.09    0.20
  19  -8  -5    7.79    0.71
 -19   8  -5    9.77    0.99
  19  -8  -5    7.63    0.60
 -19   8   5    6.62    0.77
  19   8  -5    8.02    0.69
 -19   8  -6    9.98    1.18
 -19  -8   6    9.27    0.77
  19   8  -6    7.95    0.74
 -19   8   6    7.26    0.78
 -19   8  -7    1.77    0.70
 -19  -8   7    3.11    0.46
  19  -8  -7    2.70    0.56
 -19   8   7    3.19    0.43
 -19   9   0    0.31    0.27
 -19   9   0    0.88    0.52
  19   9   0    0.20    0.33
 -19  -9   0    0.65    0.34
 -19   9  -1    0.98    0.56
 -19   9   1    1.24    0.26
  19   9  -1    2.12    0.48
 -19   9  -2   24.95    1.77
  19   9   2   24.27    1.85
 -19   9  -2   24.35    1.79
  19  -9  -2   21.41    1.74
 -19   9   2   24.96    1.76
  19   9  -2   24.37    1.81
 -19   9   2   23.55    1.82
  19   9   3    3.42    0.59
 -19  -9   3    3.85    0.58
 -19   9  -3    3.18    0.60
 -19   9  -3    3.11    0.62
  19  -9  -3    4.47    0.38
  19  -9  -3    3.20    0.44
  19   9  -3    4.05    0.48
 -19   9   3    3.78    0.50
  19  -9  -4   -0.09    0.20
  19   9   4    0.01    0.30
 -19  -9   4    0.22    0.36
 -19   9  -4    0.46    0.41
 -19   9   4    0.09    0.26
  19   9  -4    0.04    0.19
 -19   9   4   -0.05    0.36
 -19  -9   5    4.38    0.58
 -19   9  -5    5.20    0.84
  19  -9  -5    3.56    0.53
 -19   9   5    5.37    0.58
  19   9  -5    3.92    0.49
 -19   9  -6   11.85    1.20
 -19   9   6   11.05    0.89
  19   9  -6    8.62    0.89
 -19  -9  -6   10.75    1.60
 -19   9   6   10.59    0.85
 -19 -10   0   -0.20    0.26
 -19  10   0   -0.10    0.20
  19  10   0   -0.09    0.28
 -19  10   0   -0.30    0.26
 -19  10  -1   17.01    1.34
 -19  10  -1   17.29    1.31
 -19 -10  -1   15.97    1.35
 -19  10   1   19.15    1.36
 -19  10   1   17.44    1.30
  19  10  -1   17.63    1.38
 -19  10  -2   14.92    1.13
 -19  10  -2   13.18    1.14
  19  10   2   15.79    1.21
 -19 -10  -2   12.22    1.20
  19  10  -2   16.67    1.16
 -19  10   2   15.12    1.11
 -19  10   2   12.80    1.18
 -19  10  -3    6.95    0.72
  19  10   3    6.49    0.72
 -19  10  -3    7.33    0.70
 -19 -10   3    6.92    0.94
  19 -10  -3    6.12    0.61
 -19  10   3    7.23    0.66
 -19 -10  -3    6.68    0.85
  19  10  -3    7.27    0.64
  19  10   4    0.17    0.30
 -19  10  -4   -0.23    0.40
  19 -10  -4    0.14    0.22
 -19 -10   4   -0.32    0.35
  19  10  -4    0.17    0.20
 -19  10   4   -0.40    0.24
 -19  10   4    0.05    0.32
 -19 -10  -4   -0.06    0.45
 -19 -10   5    8.12    0.72
 -19  10  -5    7.17    0.94
 -19  10   5    7.86    0.72
  19  10  -5    6.60    0.65
 -19 -10  -5    6.93    0.99
 -19  10  -6    3.77    0.90
 -19 -10   6    6.52    0.59
 -19  10   6    5.38    0.58
 -19  10   6    4.61    0.65
  19  11   0    0.20    0.27
 -19  11   0    0.51    0.28
 -19  11   0    0.53    0.21
 -19  11  -1    1.32    0.32
 -19  11  -1    1.36    0.25
  19  11   1    0.85    0.33
 -19  11   1    1.38    0.24
 -19  11   1    1.25    0.33
  19  11  -1    2.38    0.47
 -19  11  -2   24.60    1.87
  19  11   2   25.72    1.90
 -19  11  -2   25.65    1.84
  19  11  -2   26.19    1.87
 -19  11   2   26.50    1.84
 -19 -11  -2   24.67    1.86
 -19  11   2   22.83    1.89
 -19  11  -3    2.62    0.55
 -19 -11   3    2.46    0.52
  19  11   3    2.90    0.51
 -19  11  -3    1.86    0.34
 -19 -11  -3    1.60    0.41
 -19  11   3    2.35    0.45
  19  11  -3    2.89    0.41
 -19 -11   4    0.69    0.65
 -19  11  -4    1.13    0.43
  19  11   4   -0.19    0.35
 -19  11   4    0.89    0.34
 -19  11   4    0.39    0.25
 -19 -11  -4    0.22    0.41
  19  11  -4    0.35    0.19
  19  11  -5    4.29    0.48
 -19  11   5    3.03    0.51
 -19 -11  -5    2.97    0.50
  19  12   0   -0.02    0.25
 -19  12   0   -0.17    0.30
 -19  12  -1    8.10    0.68
 -19  12  -1    7.84    0.75
  19  12   1    6.68    0.76
  19  12  -1    7.85    0.74
 -19  12   1    7.74    0.78
 -19  12   1    8.35    0.68
 -19  12  -2    9.09    0.77
 -19  12  -2    7.30    0.81
  19  12   2    9.07    0.83
  19  12  -2   10.29    0.79
 -19  12   2    9.34    0.76
 -19 -12  -2    8.61    0.80
 -19 -12   3    3.78    0.56
 -19  12  -3    3.72    0.60
  19  12   3    4.15    0.66
  19  12  -3    3.59    0.44
 -19  12   3    3.07    0.49
 -19 -12  -3    3.90    0.57
 -19  12   3    2.51    0.48
 -19  12  -4    0.10    0.54
 -19  12   4    0.02    0.37
  19  12  -4    0.17    0.19
  19  13   0    0.38    0.25
 -19  13   0    0.68    0.36
 -19  13  -1    0.73    0.27
 -19  13  -1    1.18    0.37
  19  13   1    0.34    0.26
 -19  13   1    1.13    0.40
  19  13  -1    0.83    0.24
  20   0   0    9.94    0.91
  20   0   1   10.59    0.87
  20   0  -1    8.66    0.86
  20   0  -2    1.23    0.27
  20   0   2    1.48    0.29
  20   0   3    6.57    0.67
  20   0  -3    7.25    0.64
  20   0  -4   15.80    1.20
  20   0  -5   43.45    2.92
 -20   0   5   37.95    2.97
  20   0  -6    0.71    0.18
 -20   0   7    3.16    0.51
  20   0  -7    2.34    0.37
 -20   0   8    8.41    0.74
  20  -1   0   18.13    1.31
  20   1   0   14.73    1.35
  20  -1  -1    4.22    0.56
  20   1   1    4.56    0.65
  20  -1   1    4.51    0.55
  20   1  -1    4.40    0.61
  20  -1  -2    0.65    0.23
  20   1   2    0.82    0.29
  20  -1   2    0.57    0.24
  20   1  -2    0.64    0.25
  20  -1  -3   10.31    0.80
  20   1   3    8.66    0.85
  20   1  -3    9.62    0.81
  20  -1   3    9.43    0.82
  20  -1  -4   17.36    1.26
 -20   1   4   15.08    1.43
  20   1  -4   17.18    1.27
  20  -1  -5    9.69    0.71
 -20  -1   5    6.97    0.93
  20   1  -5    9.52    0.73
 -20   1   5    7.38    0.93
  20  -1  -6    2.23    0.31
  20   1  -6    1.69    0.35
  20  -1  -7    1.51    0.29
 -20  -1   7    1.30    0.30
  20   1  -7    1.34    0.23
 -20   1   7    1.09    0.31
 -20  -1   8   10.03    0.85
 -20   1   8   10.63    0.86
  20   2   0    8.75    1.00
  20  -2   0   12.58    0.93
  20   2   1   12.94    1.15
  20  -2  -1   11.07    1.05
  20  -2   1   14.32    1.06
  20   2  -1   14.05    1.13
  20  -2  -2    0.71    0.23
  20   2   2    0.86    0.32
  20   2  -2    0.49    0.26
  20  -2   2    0.81    0.23
  20  -2  -3    1.91    0.35
  20   2   3    1.55    0.34
  20   2  -3    2.14    0.41
  20  -2  -4   18.25    1.35
  20   2  -4   17.99    1.37
 -20  -2   5   16.70    1.41
  20  -2  -5   18.72    1.29
  20   2  -5   18.87    1.31
 -20   2   5   14.87    1.42
 -20  -2   6    1.64    0.33
  20  -2  -6    1.44    0.27
 -20   2   6    1.25    0.36
  20   2  -6    1.27    0.24
  20  -2  -7    6.14    0.55
 -20  -2   7    7.22    0.65
  20   2  -7    6.28    0.62
 -20   2   7    7.25    0.70
 -20  -2   8    7.94    0.74
 -20   2   8    8.68    0.74
  20   3   0    3.51    0.64
  20  -3   0    5.17    0.54
  20  -3  -1    8.41    0.82
  20   3   1    9.01    0.93
  20   3  -1   10.96    0.91
  20  -3   1   10.43    0.81
  20   3   2   -0.03    0.29
  20  -3  -2    0.07    0.20
  20  -3   2   -0.03    0.19
  20   3  -2   -0.11    0.23
  20  -3  -3    7.35    0.60
  20   3   3    6.58    0.75
  20   3  -3    6.41    0.64
 -20   3   3    5.37    0.77
  20  -3  -4   38.79    2.76
 -20   3   4   38.01    2.82
  20   3  -4   38.80    2.79
  20  -3  -5    3.53    0.37
  20   3  -5    3.40    0.43
  20  -3  -6   -0.04    0.12
 -20  -3   6   -0.21    0.28
  20   3  -6   -0.09    0.19
 -20   3   6   -0.51    0.33
  20  -3  -7    5.34    0.47
 -20  -3   7    5.95    0.58
  20   3  -7    5.27    0.56
 -20   3   7    4.90    0.62
 -20  -3   8    7.95    0.72
 -20   3   8    8.44    0.73
  20   4   0    7.31    0.89
  20  -4   0   10.65    0.80
  20   4   1   25.01    2.03
  20  -4  -1   22.05    1.93
  20   4  -1   28.71    2.01
  20  -4   1   29.34    1.93
  20  -4  -2    0.20    0.19
  20   4   2   -0.17    0.30
  20   4  -2    0.18    0.23
  20  -4   2    0.24    0.19
  20  -4  -3    0.55    0.18
  20   4   3    0.58    0.30
  20   4  -3    0.56    0.23
  20  -4  -4   20.03    1.45
  20   4  -4   19.93    1.49
 -20   4   4   19.12    1.55
  20  -4  -5    9.60    0.83
 -20  -4   5   11.28    0.93
 -20   4   5    8.20    1.23
  20  -4  -6    0.36    0.13
 -20  -4   6    0.57    0.29
 -20   4   6    0.27    0.32
  20   4  -6    0.60    0.20
  20  -4  -7    9.30    0.75
 -20  -4   7   10.63    0.83
 -20   4  -7   11.86    1.69
  20   4  -7    7.95    0.85
 -20   4   7   11.17    0.87
 -20   4  -8    4.72    1.13
 -20  -4   8    5.61    0.57
 -20   4   8    6.20    0.59
  20   5   0    6.51    0.85
  20  -5   0    9.15    0.71
  20  -5  -1    6.82    0.67
  20   5   1    6.60    0.84
  20  -5   1    7.89    0.65
  20   5  -1    8.51    0.78
  20   5   2   -0.10    0.30
  20  -5  -2    0.15    0.19
 -20   5   2   -0.14    0.31
  20  -5   2   -0.10    0.16
  20   5  -2    0.03    0.22
  20   5   3    8.55    0.79
  20  -5  -3    7.47    0.64
  20   5  -3    7.13    0.70
  20  -5  -4   28.30    2.05
  20   5  -4   27.78    2.09
 -20   5   4   29.19    2.12
  20  -5  -5    6.75    0.54
  20   5  -5    6.59    0.62
 -20  -5   7    2.00    0.31
  20  -5  -7    1.85    0.27
 -20   5  -8    6.54    1.10
 -20   5   8    7.53    0.66
  20  -6   0   11.51    0.91
  20   6   1    8.87    0.94
  20  -6  -1    8.34    0.77
 -20   6  -1    8.42    0.88
  20  -6   1   10.39    0.75
  20   6  -1   10.11    0.88
 -20   6   1    9.40    0.85
  20  -6  -2    0.47    0.19
  20   6   2    0.25    0.31
 -20   6  -2    0.12    0.39
  20  -6   2    0.43    0.17
  20   6  -2    0.69    0.24
 -20   6   2    0.31    0.28
  20   6   3    4.28    0.64
  20  -6  -3    4.13    0.43
 -20   6   3    4.20    0.60
  20   6  -3    4.29    0.51
 -20  -6   4   14.55    1.29
 -20   6  -4   12.97    1.41
 -20   6   4   15.26    1.22
  20   6  -4   15.86    1.37
 -20  -6   5   14.86    1.27
 -20   6  -5   16.13    1.58
  20  -6  -5   16.27    1.16
  20   6  -5   15.82    1.21
 -20  -6   6    0.08    0.28
 -20   6  -6    1.34    0.94
 -20   6   6    0.01    0.31
  20   6  -6    0.32    0.21
 -20  -6   7    4.16    0.54
 -20   6  -7    4.95    1.18
 -20   6   7    4.58    0.56
  20  -7   0   24.01    1.78
 -20   7   0   24.77    1.81
  20  -7  -1    2.78    0.36
 -20   7  -1    2.01    0.37
  20   7   1    2.40    0.45
 -20   7   1    2.35    0.33
  20   7   2    1.98    0.38
  20  -7  -2    2.38    0.34
 -20   7  -2    1.41    0.41
 -20   7   2    1.96    0.32
  20  -7   2    1.91    0.31
  20   7  -2    2.76    0.47
  20  -7  -3    9.38    0.74
  20   7   3    7.87    0.86
 -20   7  -3    8.45    0.91
 -20   7   3    8.42    0.80
  20   7  -3    9.55    0.92
 -20  -7   4   15.92    1.27
  20   7   4   12.12    1.47
 -20   7  -4   15.21    1.30
  20  -7  -4   14.09    1.08
  20   7  -4   14.43    1.13
 -20   7   4   15.09    1.18
 -20   7  -5    5.17    1.05
 -20  -7   5    5.83    0.72
  20  -7  -5    6.62    0.51
  20   7  -5    6.53    0.61
 -20   7  -6    2.03    0.83
 -20  -7   6    0.02    0.28
  20   7  -6    0.31    0.22
 -20   7   6    0.41    0.30
 -20   7  -7    1.91    0.96
 -20   7   7    1.60    0.30
 -20   8   0   11.47    0.97
  20  -8   0   11.21    0.93
  20   8   1    2.10    0.68
 -20   8  -1    3.69    0.59
 -20   8  -1    3.79    0.83
  20  -8  -1    3.38    0.55
  20   8  -1    3.62    0.58
 -20   8   1    3.85    0.50
  20  -8   1    3.64    0.43
  20   8   2    1.02    0.33
  20  -8  -2    0.99    0.21
 -20   8  -2    1.09    0.35
  20   8  -2    0.92    0.35
 -20   8   2    0.80    0.26
  20  -8  -3    8.96    0.70
 -20   8  -3    8.23    0.87
  20   8   3    9.33    0.84
 -20   8   3    8.98    0.78
  20   8  -3    8.52    0.76
 -20  -8   4    8.83    0.93
  20  -8  -4    9.60    0.67
 -20   8  -4    8.35    0.94
  20   8   4    7.83    1.02
 -20   8   4    7.02    0.79
  20   8  -4    9.28    0.74
 -20   8  -5   10.90    1.20
 -20  -8   5   13.92    1.02
  20   8  -5   12.80    0.95
 -20   8   5    9.81    1.01
 -20  -8   6    1.15    0.29
 -20   8  -6    2.16    0.78
  20   8  -6    0.98    0.28
 -20   8   6    0.60    0.30
 -20   9   0   14.94    1.15
 -20   9   0   14.93    1.18
 -20   9  -1    5.68    0.55
  20   9   1    3.93    0.66
 -20   9  -1    3.77    0.55
 -20   9   1    3.58    0.56
  20   9  -1    4.80    0.59
 -20   9   1    4.09    0.51
 -20   9  -2    1.14    0.32
  20  -9  -2    1.19    0.26
 -20   9  -2    1.12    0.32
  20   9   2    0.91    0.33
 -20   9   2    1.05    0.25
  20   9  -2    1.38    0.27
 -20   9  -3    4.95    0.70
  20   9   3    5.06    0.66
 -20   9  -3    6.46    0.75
 -20   9   3    6.02    0.61
  20   9  -3    5.86    0.57
  20   9   4   10.85    1.37
 -20  -9   4   12.81    1.11
 -20   9  -4   13.95    1.10
 -20   9   4   10.51    1.04
  20   9  -4   11.72    0.95
 -20   9   4   12.50    1.01
 -20  -9   5    4.67    0.64
 -20   9  -5    2.40    0.65
 -20   9   5    3.39    0.53
  20   9  -5    3.52    0.46
 -20   9  -6   -0.04    0.73
 -20  -9   6   -0.18    0.30
 -20   9   6    0.05    0.27
 -20   9   6   -0.28    0.27
 -20  10   0    7.78    0.69
 -20  10   0    7.86    0.73
  20  10   0    7.17    0.77
 -20  10  -1    9.42    0.85
 -20  10  -1   10.09    0.83
  20  10  -1    9.34    0.88
 -20  10   1   10.48    0.82
 -20 -10  -1    9.27    0.90
 -20  10   1   10.42    0.88
 -20  10  -2    0.06    0.26
  20  10   2    0.05    0.28
 -20  10  -2    0.57    0.30
 -20  10   2   -0.18    0.34
  20  10  -2    0.09    0.22
 -20  10   2    0.10    0.23
 -20  10  -3    1.84    0.38
 -20  10  -3    2.97    0.59
  20  10   3    1.57    0.32
 -20  10   3    1.64    0.29
 -20  10   3    1.11    0.38
  20  10  -3    1.79    0.38
 -20 -10   4   12.47    1.37
 -20  10  -4    9.48    0.97
 -20  10   4    9.40    0.87
  20  10  -4   10.58    0.81
 -20  10   4    9.39    0.90
 -20  10  -5    7.11    1.00
 -20 -10   5    9.22    0.84
  20  10  -5    7.79    0.73
 -20  10   5    9.19    0.76
 -20  11   0    9.54    0.80
 -20  11   0    9.81    0.85
 -20  11  -1    4.60    0.54
  20  11   1    4.18    0.61
 -20  11  -1    5.07    0.58
 -20  11   1    4.95    0.52
 -20  11   1    4.31    0.63
 -20  11  -2    1.07    0.31
 -20  11  -2    1.09    0.28
  20  11   2    0.83    0.30
  20  11  -2    0.68    0.23
 -20  11   2    0.72    0.35
 -20  11   2    1.20    0.25
 -20 -11  -2    0.86    0.38
 -20  11  -3    2.57    0.59
  20  11   3    3.42    0.55
 -20 -11  -3    2.38    0.45
 -20  11   3    2.97    0.49
  20  11  -3    3.59    0.43
 -20 -11   4   18.94    1.51
 -20  11  -4   14.48    1.34
 -20  11   4   17.25    1.29
  20  11  -4   17.23    1.34
 -20 -11  -4   15.25    1.35
 -20  11   4   15.18    1.27
  20  12   0    3.92    0.54
 -20  12   0    3.73    0.50
 -20  12   0    3.99    0.58
  20  12   1    5.50    0.67
 -20  12  -1    5.72    0.67
 -20  12   1    6.84    0.73
  20  12  -1    6.88    0.64
 -20  12   1    6.74    0.62
 -20  12  -2    0.13    0.35
  20  12   2   -0.05    0.43
 -20  12   2    0.19    0.37
  20  12  -2    0.26    0.20
 -20  12   2    0.21    0.29
  21   0   0    0.23    0.27
  21   0  -1    7.43    0.78
  21   0   1    8.79    0.78
  21   0  -2   14.15    1.09
  21   0   2   12.63    1.06
  21   0  -3   10.70    0.78
  21   0   3    7.32    0.78
  21   0  -4    0.26    0.17
 -21   0   5    1.30    0.44
  21   0  -6    7.88    0.62
 -21   0   6    6.47    0.79
  21   0  -7    2.96    0.38
 -21   0   8   -0.22    0.26
  21  -1   0   -0.16    0.23
  21   1   0   -0.20    0.29
  21  -1  -1   11.65    1.09
  21   1   1   14.08    1.13
  21   1  -1   13.25    1.13
  21  -1   1   14.32    1.08
  21  -1  -2   20.69    1.55
  21   1   2   20.33    1.56
  21   1  -2   21.43    1.57
  21  -1   2   19.05    1.52
  21   1   3    8.45    0.79
  21  -1  -3    9.63    0.76
  21  -1   3    7.95    0.85
  21   1  -3    9.61    0.77
  21  -1  -4    0.11    0.16
 -21   1   4   -0.78    0.47
  21   1  -4    0.04    0.17
 -21  -1   5    4.76    0.80
 -21   1   5    3.17    0.51
 -21  -1   6    9.67    0.92
  21  -1  -6    9.13    0.76
  21   1  -6   10.04    0.78
 -21   1   6   10.37    0.92
  21  -1  -7    7.40    0.59
 -21  -1   7    5.65    0.70
  21   1  -7    7.08    0.61
 -21   1   7    7.42    0.70
 -21  -1   8    0.47    0.28
 -21   1   8    0.29    0.27
  21   2   0    0.12    0.31
  21  -2   0    0.06    0.23
  21  -2  -1    6.74    0.74
  21   2   1    8.52    0.87
  21  -2   1    9.41    0.74
  21   2  -1    8.18    0.85
  21   2   2    9.69    0.92
  21  -2  -2   10.42    0.85
  21   2  -2   10.57    0.89
  21  -2   2    9.62    0.82
  21   2   3    3.10    0.56
  21  -2  -3    4.10    0.44
  21   2  -3    3.58    0.48
  21  -2  -4    0.09    0.16
 -21   2   4   -0.22    0.44
  21   2  -4    0.08    0.17
  21  -2  -5    1.59    0.30
  21   2  -5    1.82    0.35
 -21   2   5    1.37    0.42
 -21  -2   6    7.27    0.78
  21  -2  -6    7.11    0.59
  21   2  -6    7.48    0.63
  21  -2  -7    1.72    0.31
 -21  -2   7    2.11    0.35
 -21   2   7    3.00    0.51
  21   2  -7    2.59    0.41
 -21   2   8   -0.19    0.25
  21  -3   0    0.03    0.21
  21   3   0    0.07    0.31
  21  -3  -1   10.07    0.94
  21   3   1   10.62    1.07
  21   3  -1   12.18    1.03
  21  -3   1   13.04    0.93
  21  -3  -2   19.36    1.48
  21   3   2   20.08    1.55
  21   3  -2   20.50    1.52
  21  -3   2   18.65    1.45
  21   3   3    6.05    0.72
  21  -3  -3    6.87    0.58
  21   3  -3    6.50    0.64
  21  -3  -4    0.38    0.15
 -21   3   4   -0.38    0.49
  21   3  -4    0.42    0.20
  21  -3  -5    9.15    0.71
 -21  -3   5    8.17    0.96
  21   3  -5    9.40    0.75
 -21  -3   6   16.69    1.20
  21  -3  -6   13.92    1.08
  21   3  -6   13.96    1.12
 -21   3   6   14.58    1.21
  21  -3  -7    6.33    0.56
  21   3  -7    7.47    0.64
 -21   3   7    6.57    0.71
 -21   3  -8   -0.86    0.86
 -21  -3   8    0.06    0.34
 -21   3   8    0.18    0.31
  21  -4   0   -0.04    0.21
  21   4   0   -0.14    0.31
  21  -4  -1    9.41    0.90
  21   4   1   11.03    1.03
  21   4  -1   11.09    0.98
  21  -4   1   12.46    0.89
  21  -4  -2   13.54    1.09
  21   4   2   15.06    1.20
  21  -4   2   12.97    1.07
  21   4  -2   14.81    1.15
  21   4   3    4.14    0.66
  21  -4  -3    4.75    0.48
  21   4  -3    4.62    0.55
 -21   4   3    5.99    0.70
  21  -4  -4   -0.14    0.15
  21   4  -4    0.41    0.22
 -21   4   4   -0.59    0.42
 -21  -4   5    2.63    0.46
  21  -4  -5    2.18    0.27
  21   4  -5    1.99    0.36
 -21   4   5    2.46    0.42
  21  -4  -6    6.78    0.52
 -21  -4   6    5.85    0.70
 -21   4   6    4.99    0.75
  21   4  -6    6.74    0.58
  21  -4  -7    2.03    0.28
 -21  -4   7    1.64    0.33
 -21   4  -7    2.84    1.41
 -21   4   7    2.63    0.53
 -21   4  -8    0.32    0.75
  21   5   0    0.29    0.33
  21  -5   0    0.00    0.18
  21   5   1   10.65    1.06
  21  -5  -1   10.00    0.92
  21   5  -1   12.67    1.01
  21  -5   1   12.01    0.89
  21   5   2   18.94    1.44
  21  -5  -2   17.19    1.34
  21  -5   2   16.47    1.31
  21   5  -2   18.90    1.40
  21   5   3    9.20    0.98
  21  -5  -3    9.92    0.76
  21   5  -3    9.02    0.83
  21  -5  -4    0.10    0.14
  21   5  -4    0.16    0.20
 -21   5   4   -0.17    0.33
 -21  -5   5    5.81    0.83
  21  -5  -5    6.89    0.52
  21   5  -5    6.82    0.59
 -21   5   5    5.02    0.75
 -21  -5   6   10.59    0.86
  21  -5  -6    9.52    0.72
 -21   5   6    8.63    0.89
  21   5  -6    9.42    0.78
 -21   5  -7    4.69    1.04
 -21  -5   7    3.62    0.56
 -21   5   7    5.42    0.58
  21  -6   0   -0.02    0.17
  21   6   0    0.03    0.30
  21  -6  -1    8.01    0.73
  21   6   1    7.14    0.89
 -21   6  -1    8.96    0.87
  21  -6   1    9.26    0.70
  21   6  -1    9.22    0.85
  21  -6  -2   11.83    0.97
  21   6   2   12.99    1.11
 -21   6  -2   10.30    1.52
  21   6  -2   13.39    1.04
  21   6   3    4.60    0.61
 -21   6  -3    3.88    0.62
 -21   6   3    3.60    0.60
  21   6  -3    3.42    0.76
  21  -6  -4    0.01    0.13
 -21   6  -4   -0.54    0.64
  21   6  -4    0.19    0.19
 -21   6  -5    3.72    0.88
  21  -6  -5    2.21    0.27
 -21   6   5    2.13    0.40
  21   6  -5    2.58    0.40
 -21   6  -6    6.43    1.47
 -21  -6   6    6.84    0.71
  21  -6  -6    6.74    0.51
 -21   6   6    5.32    0.73
  21   6  -6    6.87    0.60
 -21   6  -7    0.12    0.85
 -21  -6   7    1.07    0.31
 -21   6   7    1.20    0.30
  21  -7   0   -0.10    0.30
 -21   7   0    0.60    0.41
  21   7   0    0.41    0.32
 -21   7  -1    6.64    0.75
  21  -7  -1    6.50    0.83
  21  -7   1    8.32    0.65
  21   7  -1    8.66    0.87
 -21   7   1    8.46    0.77
  21  -7  -2   15.92    1.35
  21   7   2   18.82    1.46
 -21   7  -2   19.93    1.44
  21   7  -2   18.93    1.43
 -21   7   2   18.95    1.38
  21  -7   2   16.40    1.31
  21  -7  -3    7.00    0.55
  21   7   3    7.30    0.72
 -21   7  -3    5.05    0.82
  21   7  -3    7.22    0.63
 -21   7   3    5.09    0.67
  21  -7  -4    0.11    0.11
 -21   7  -4   -0.05    0.55
  21   7  -4    0.15    0.20
 -21   7   4    0.27    0.31
 -21  -7   5    3.67    0.53
  21  -7  -5    5.05    0.40
 -21   7  -5    4.97    1.10
 -21   7   5    3.78    0.65
  21   7  -5    5.53    0.50
 -21   7  -6   10.77    1.39
 -21   7   6   10.24    0.91
  21   7  -6    9.43    1.01
  21  -8   0   -0.04    0.15
  21   8   0    0.10    0.29
 -21   8   0   -0.25    0.28
 -21   8   0   -0.25    0.27
 -21   8  -1    8.46    0.78
  21  -8  -1    8.15    0.68
  21  -8   1    7.73    0.65
  21   8  -1    8.10    0.82
 -21   8   1    9.54    0.79
 -21   8   1    8.12    0.76
  21  -8  -2    8.72    0.71
  21   8   2    8.91    0.87
 -21   8  -2    8.48    0.83
 -21   8   2    8.06    0.86
 -21   8   2    8.97    0.78
  21   8  -2    9.46    0.79
  21  -8  -3    2.24    0.29
 -21   8  -3    2.34    0.45
  21   8   3    3.08    0.56
 -21   8   3    1.91    0.33
  21   8  -3    2.31    0.41
  21  -8  -4    0.16    0.12
 -21   8  -4    0.60    0.50
 -21   8   4   -0.04    0.29
  21   8  -4    0.10    0.19
 -21   8  -5    3.65    0.74
 -21   8   5    2.03    0.37
  21   8  -5    2.36    0.40
 -21   8  -6    5.06    1.12
 -21  -8   6    6.04    0.72
 -21   8   6    7.40    0.62
  21   8  -6    7.08    0.65
 -21   8   6    6.71    0.71
  21   9   0    0.37    0.29
 -21   9   0    0.40    0.29
 -21   9   0   -0.18    0.25
  21   9   1    5.57    0.73
 -21   9  -1    6.08    0.68
 -21   9  -1    6.75    0.71
 -21   9   1    6.75    0.68
 -21   9   1    6.73    0.64
  21   9  -1    6.94    0.70
 -21   9  -2   13.91    1.11
  21   9   2   13.11    1.13
 -21   9   2   13.85    1.06
  21   9  -2   12.81    1.08
 -21   9   2   13.60    1.12
 -21   9  -3    4.15    0.69
  21   9   3    5.56    0.64
  21   9  -3    5.84    0.54
 -21   9   3    4.55    0.60
 -21   9  -4   -0.20    0.49
 -21   9   4   -0.28    0.28
  21   9  -4   -0.05    0.19
 -21   9   4   -0.40    0.33
 -21   9  -5    4.36    0.93
 -21  -9   5    3.90    0.54
 -21   9   5    5.12    0.56
 -21   9   5    2.95    0.60
  21   9  -5    4.65    0.64
  21  10   0    0.23    0.26
 -21  10   0    0.33    0.24
 -21  10   0   -0.41    0.28
  21  10   1    4.23    0.66
 -21  10  -1    5.53    0.62
 -21  10  -1    6.78    0.62
 -21  10   1    5.84    0.58
 -21  10   1    5.49    0.65
  21  10  -1    5.02    0.60
 -21  10  -2    9.61    0.98
  21  10   2   11.22    0.95
 -21  10  -2   10.01    0.91
  21  10  -2   11.52    0.90
 -21  10   2    9.34    0.95
 -21  10   2   12.16    0.89
 -21  10  -3    3.64    0.62
  21  10   3    4.04    0.56
  21  10  -3    3.96    0.45
 -21  10   3    2.71    0.54
 -21  10  -4   -0.21    0.47
 -21  10   4   -0.28    0.33
  21  10  -4    0.04    0.19
 -21  10   4   -0.23    0.28
  21  11   0    0.27    0.25
 -21  11   0    0.27    0.31
 -21  11   0   -0.25    0.26
 -21  11  -1    4.52    0.56
  21  11   1    3.49    0.57
 -21  11  -1    2.88    0.57
  21  11  -1    4.51    0.53
 -21  11   1    4.06    0.59
  21  11   2   12.05    1.06
 -21  11  -2   14.13    1.09
 -21  11  -2   12.16    1.07
  21  11  -2   14.12    1.03
 -21  11   2   11.54    1.10
 -21  11   2   14.43    1.06
  21  11   3    3.01    0.52
 -21  11   3    3.00    0.58
 -21  11   3    2.20    0.44
 -21  12   0   -0.01    0.25
 -21  12   0   -0.11    0.36
  21  12   0    0.13    0.28
  22   0   0    7.12    0.74
  22   0   1    4.57    0.56
  22   0  -1    3.83    0.57
  22   0   2    0.13    0.23
  22   0  -2    0.15    0.22
  22   0   3    4.48    0.59
  22   0  -3    5.46    0.53
  22   0  -4   27.53    2.02
  22   0  -5   27.87    2.01
  22   0  -6    0.15    0.16
 -22   0   6   -0.57    0.36
 -22   0   7    0.81    0.34
  22   0  -7    0.55    0.21
 -22   0   8    6.05    0.63
  22   1   0    3.09    0.60
  22  -1   0    4.48    0.54
  22   1   1    8.33    0.78
  22  -1  -1    7.09    0.72
  22   1  -1    7.17    0.77
  22  -1   1    7.63    0.71
  22  -1  -2    0.64    0.23
  22   1   2    0.10    0.24
  22  -1   2    0.42    0.22
  22   1  -2    0.42    0.24
  22  -1  -3    4.19    0.48
  22   1   3    3.38    0.55
  22   1  -3    4.84    0.49
  22  -1  -4    1.13    0.26
  22   1  -4    1.38    0.30
  22  -1  -5    8.12    0.68
  22   1  -5    8.91    0.70
 -22  -1   6    0.51    0.37
  22  -1  -6    0.08    0.14
  22   1  -6   -0.02    0.16
 -22   1   6   -0.01    0.37
  22  -1  -7   10.57    0.83
 -22  -1   7   11.65    0.96
 -22   1   7   11.39    0.96
  22   1  -7    9.57    0.99
  22   2   0    4.92    0.74
  22  -2   0    6.94    0.63
  22   2   1    9.14    0.89
  22  -2  -1    8.08    0.80
  22  -2   1    9.85    0.78
  22   2  -1    8.82    0.88
  22  -2  -2    0.13    0.21
  22   2   2    0.14    0.26
  22  -2   2   -0.11    0.19
  22   2  -2    0.14    0.24
  22   2   3    1.73    0.34
  22  -2  -3    2.47    0.37
  22   2  -3    2.94    0.42
 -22   2   4   14.89    1.43
 -22  -2   5    9.52    1.16
  22  -2  -5   11.80    0.88
  22   2  -5   12.30    0.90
  22  -2  -6   -0.08    0.13
 -22  -2   6    0.24    0.38
 -22   2   6   -0.05    0.36
  22   2  -6    0.00    0.17
 -22  -2   7    3.26    0.57
  22  -2  -7    2.62    0.37
 -22   2   7    2.54    0.39
  22   2  -7    1.82    0.29
  22   3   0    0.18    0.32
  22  -3   0    0.60    0.23
  22   3   1    7.64    0.82
  22   3  -1    6.55    0.78
  22   3   2   -0.14    0.28
  22  -3  -2    0.28    0.18
  22  -3   2   -0.32    0.19
  22   3  -2   -0.16    0.24
  22  -3  -3    6.06    0.54
  22   3  -3    5.49    0.60
  22  -3  -4   10.07    0.78
 -22   3   4    8.28    1.01
  22   3  -4   10.46    0.81
  22  -3  -5    5.43    0.48
  22   3  -5    5.82    0.52
 -22  -3   6    1.35    0.40
  22  -3  -6    1.34    0.25
  22   3  -6    1.85    0.33
 -22   3   6    0.76    0.38
 -22  -3   7   12.67    1.22
  22  -3  -7    9.21    0.83
 -22   3   7   11.80    0.92
  22   3  -7    9.10    0.89
  22  -4   0   12.32    0.99
  22  -4  -1   12.11    1.13
  22   4   1   14.36    1.26
  22   4  -1   15.24    1.23
  22  -4   1   16.62    1.13
  22  -4  -2    0.13    0.18
  22   4   2    0.13    0.33
  22  -4   2    0.27    0.19
  22   4  -2    0.47    0.27
  22  -4  -3    0.59    0.21
  22   4   3    0.47    0.30
  22   4  -3    0.65    0.27
  22  -4  -4   20.16    1.42
  22   4  -4   20.12    1.46
 -22   4   4   17.60    1.54
  22  -4  -5    5.71    0.47
 -22   4   5    4.04    0.76
  22   4  -5    6.14    0.53
 -22  -4   6    0.17    0.38
  22  -4  -6    0.07    0.12
 -22   4   6   -0.30    0.36
  22   4  -6    0.12    0.19
 -22  -4   7    3.87    0.61
  22  -4  -7    4.06    0.37
  22  -5   0    0.89    0.21
  22   5   0    0.07    0.31
  22   5   1    8.04    0.87
  22  -5  -1    6.79    0.70
  22   5  -1    8.76    0.82
  22  -5   1    8.23    0.67
  22   5   2   -0.57    0.55
  22  -5  -2   -0.13    0.18
  22  -5   2   -0.21    0.16
  22   5  -2   -0.25    0.25
  22  -5  -3    5.75    0.52
  22   5   3    6.05    0.69
 -22   5   3    5.16    0.74
  22   5  -3    6.13    0.60
  22  -5  -4    7.26    0.57
 -22   5   4    6.87    0.79
  22   5  -4    6.86    0.63
  22  -5  -5    8.28    0.64
  22   5  -5    8.47    0.70
 -22   5  -6   -0.16    1.66
 -22  -5   6   -0.19    0.50
  22   5  -6    0.37    0.20
 -22   5   6    0.53    0.35
 -22   5  -7    8.09    1.37
 -22  -5   7    9.49    0.80
 -22   5   7    6.70    0.88
  22  -6   0    9.30    0.88
  22  -6  -1    4.51    0.53
  22   6   1    5.11    0.73
 -22   6  -1    4.29    0.69
  22   6  -1    5.68    1.07
  22  -6   1    5.11    0.46
  22   6   2    0.39    0.32
  22  -6  -2   -0.13    0.17
 -22   6  -2    0.58    0.48
  22   6  -2   -0.27    0.23
  22   6   3    1.99    0.38
 -22   6  -3    4.34    0.99
  22  -6  -3    2.58    0.32
  22   6  -3    2.67    0.44
 -22   6   3    3.24    0.58
  22  -6  -4   18.58    1.27
 -22   6  -4   14.65    1.63
  22   6  -4   17.73    1.31
 -22   6   4   17.13    1.37
  22  -6  -5    8.17    0.60
 -22   6  -5    6.44    1.51
 -22   6   5    7.16    0.82
  22   6  -5    7.83    0.65
 -22   6  -6    1.06    1.06
 -22   6   6   -0.19    0.34
  22   6  -6   -0.04    0.26
  22  -7   0    8.04    0.69
 -22   7   0    8.95    0.80
  22   7   1    5.38    0.76
  22  -7  -1    5.95    0.56
  22  -7   1    6.62    0.53
  22   7  -1    6.98    0.71
  22  -7  -2    2.20    0.32
  22   7   2    2.04    0.40
 -22   7  -2    2.47    0.45
  22   7  -2    2.07    0.46
 -22   7   2    1.88    0.35
  22   7   3    3.19    0.61
 -22   7  -3    4.48    0.78
  22  -7  -3    4.30    0.39
 -22   7   3    4.10    0.59
  22   7  -3    4.39    0.51
  22  -7  -4    3.49    0.34
  22   7  -4    3.96    0.45
 -22   7   4    2.79    0.60
 -22   7  -5    3.66    0.93
  22  -7  -5    5.14    0.42
  22   7  -5    5.61    0.50
 -22   7  -6    0.21    0.88
 -22   7   6   -0.07    0.40
  22   7  -6   -0.31    0.23
 -22   8   0    7.12    0.73
  22  -8   0    7.91    0.62
 -22   8  -1    1.47    0.35
  22   8   1    0.74    0.33
  22  -8  -1    1.46    0.28
  22   8  -1    1.13    0.32
 -22   8   1    0.90    0.31
 -22   8   1    1.65    0.35
  22   8   2   -0.24    0.29
  22  -8  -2    0.20    0.16
 -22   8  -2    0.22    0.36
  22   8  -2    0.10    0.23
 -22   8   2    0.43    0.35
 -22   8   2   -0.04    0.28
 -22   8  -3    5.99    0.76
  22   8   3    5.11    0.65
  22  -8  -3    5.53    0.47
 -22   8   3    5.12    0.71
 -22   8   3    5.70    0.64
  22   8  -3    5.28    0.55
 -22   8  -4   10.96    1.19
  22  -8  -4   14.18    0.91
  22   8  -4   13.07    0.97
 -22   8   4   10.49    1.04
 -22   8   4   11.58    1.04
 -22   8  -5    6.96    1.32
 -22   8   5    7.81    0.72
 -22   9   0    4.78    0.59
 -22   9   0    4.45    0.64
 -22   9  -1    5.10    0.62
  22   9   1    4.45    0.66
  22   9  -1    5.81    0.62
 -22   9   1    5.29    0.65
 -22   9   1    6.13    0.63
  22   9   2    0.87    0.31
 -22   9  -2    0.98    0.37
  22   9  -2    0.94    0.27
 -22   9   2    1.54    0.30
 -22   9  -3    3.94    0.66
  22   9   3    3.50    0.57
  22   9  -3    3.66    0.46
 -22   9   3    3.74    0.57
 -22   9  -4    4.79    0.83
 -22   9   4    3.30    0.73
  22   9  -4    4.51    0.48
 -22   9   4    4.69    0.61
 -22  10   0    7.10    0.70
  22  10   0    6.44    0.71
 -22  10  -1    5.12    0.60
 -22  10  -1    4.98    0.98
  22  10   1    3.57    0.59
 -22  10   1    4.91    0.61
  22  10  -1    3.50    0.54
 -22  10   1    5.33    0.72
  22  10   2    0.27    0.26
 -22  10  -2   -0.09    0.35
  22  10  -2    0.22    0.21
 -22  10   2   -0.30    0.34
 -22  10   2    0.25    0.50
 -22  10  -3    1.40    0.45
  22  10   3    0.86    0.30
 -22  10   3    0.95    0.32
  22  10  -3    0.79    0.21
 -22  10   3    0.09    0.38
  22  11   0    3.17    0.50
 -22  11   0    3.49    0.56
 -22  11   0    2.88    0.56
 -22  11  -1    3.99    0.67
 -22  11  -1    4.00    0.59
  22  11   1    4.59    0.71
 -22  11   1    3.67    0.62
  22  11  -1    4.13    0.51
 -22  11  -2    0.70    0.51
  23   0   0    0.01    0.25
  23   0   1    1.33    0.29
  23   0  -1    1.22    0.29
  23   0  -2   16.62    1.24
  23   0   2   14.79    1.21
  23   0  -4    0.39    0.18
  23   0  -5    4.13    0.41
 -23   0   6   11.91    1.18
  23   0  -6   13.70    0.98
  23   0  -7    2.12    0.34
 -23   0   7    2.21    0.41
  23   1   0    0.12    0.27
  23  -1   0   -0.33    0.24
  23  -1  -1    8.64    0.89
  23   1   1   11.16    0.93
  23  -1   1   11.88    0.89
  23   1  -1    9.62    0.93
  23   1   2    3.92    0.54
  23  -1  -2    4.25    0.53
  23  -1   2    4.38    0.51
  23   1  -2    4.56    0.54
  23   1   3    6.91    0.71
  23  -1  -4    0.04    0.15
  23   1  -4   -0.23    0.15
  23  -1  -5    3.53    0.37
  23   1  -5    3.64    0.39
 -23   1   5    2.68    0.56
  23  -1  -6    1.75    0.28
 -23  -1   6    1.01    0.49
  23   1  -6    1.62    0.31
 -23   1   6    1.61    0.44
 -23  -1   7    3.85    0.68
  23  -1  -7    4.06    0.42
 -23   1   7    3.77    0.68
  23   1  -7    4.55    0.45
  23  -2   0    0.20    0.23
  23   2   0   -0.40    0.29
  23  -2  -1    0.77    0.26
  23   2   1    1.40    0.35
  23  -2   1    1.10    0.25
  23   2  -1    1.32    0.33
  23  -2  -2   14.33    1.19
  23   2  -2   16.19    1.23
  23  -2  -3    9.20    0.77
  23   2  -3    9.06    0.81
  23  -2  -4    0.53    0.16
  23   2  -4    0.42    0.19
  23  -2  -5    4.28    0.40
  23   2  -5    4.01    0.43
  23  -2  -6   14.07    1.01
  23   2  -6   14.28    1.03
 -23   2   6   12.23    1.21
  23  -2  -7    0.77    0.17
 -23  -2   7    1.20    0.40
  23   2  -7    0.80    0.27
 -23   2   7    1.64    0.37
  23  -3   0    0.04    0.22
  23   3   0    0.04    0.32
  23   3   1   11.88    1.10
  23  -3   1   12.63    0.99
  23   3  -1   11.66    1.06
  23  -3  -2    4.64    0.68
  23   3   2    3.76    0.61
  23   3  -2    5.30    0.85
  23  -3   2    3.29    0.45
  23  -3  -3    6.53    0.57
  23   3   3    5.74    0.66
  23   3  -3    6.75    0.62
  23  -3  -4    0.54    0.15
  23   3  -4    0.13    0.16
  23  -3  -5    5.99    0.48
 -23   3   5    4.74    0.86
  23   3  -5    5.56    0.52
  23  -3  -6    3.56    0.32
 -23  -3   6    3.03    0.67
 -23   3   6    2.78    0.48
  23   3  -6    2.65    0.39
 -23  -3   7    3.15    0.51
  23  -3  -7    4.12    0.38
 -23   3   7    4.73    0.63
  23   4   0    0.49    0.58
  23   4   1    1.91    0.54
  23   4  -1    1.94    0.62
  23  -4   1    2.05    0.37
  23   4   2   14.35    1.20
  23  -4  -2   13.99    1.12
  23   4  -2   15.53    1.17
  23  -4   2   13.72    1.08
  23   4   3    7.39    0.74
  23   4  -3    7.34    0.68
  23  -4  -4    0.10    0.13
  23   4  -4    0.29    0.19
 -23   4   4   -0.68    0.43
  23  -4  -5    4.26    0.37
  23   4  -5    3.92    0.44
  23  -4  -6   12.64    0.88
 -23   4   6   10.00    1.09
  23   4  -6   12.17    0.92
  23  -5   0   -0.15    0.19
  23   5   1   10.32    1.04
  23  -5  -1    9.71    0.88
  23   5  -1   11.78    1.00
  23  -5   1   12.27    0.87
  23  -5  -2    4.21    0.45
  23   5   2    3.98    0.62
  23   5  -2    4.66    0.57
  23  -5   2    3.61    0.42
  23  -5  -3    7.50    0.61
  23   5   3    6.92    0.75
  23   5  -3    7.55    0.68
  23   5  -4    0.03    0.17
  23  -5  -5    3.84    0.36
  23   5  -5    4.38    0.43
 -23   5   5    3.26    0.71
  23  -5  -6    2.54    0.26
  23   5  -6    1.90    0.38
 -23   5   6    2.23    0.45
  23  -6   0    0.19    0.17
  23   6   0    0.48    0.31
 -23   6   0   -0.38    0.36
 -23   6  -1    2.39    0.43
  23   6   1    1.72    0.37
  23  -6  -1    1.61    0.33
  23  -6   1    2.11    0.32
  23   6  -1    1.63    0.35
  23   6   2   12.88    1.07
 -23   6  -2   11.50    1.20
  23  -6  -2   11.52    0.94
  23  -6   2   11.86    0.93
  23   6  -2   13.79    1.03
  23   6   3    3.72    0.62
  23  -6  -3    4.81    0.42
  23   6  -3    4.20    0.52
 -23   6   3    5.01    0.72
 -23   6  -4    0.60    1.20
  23   6  -4    0.51    0.19
 -23   6   4   -0.21    0.36
 -23   6  -5    2.44    1.23
  23  -6  -5    2.57    0.27
  23   6  -5    2.42    0.36
 -23   6   5    2.61    0.46
 -23   6  -6    7.63    1.51
 -23   6   6    8.71    0.88
  23   6  -6    9.98    0.75
  23  -7   0   -0.06    0.15
  23   7   0   -0.11    0.29
 -23   7   0   -0.27    0.32
 -23   7  -1    8.88    0.90
  23  -7  -1    9.59    0.78
  23   7   1    9.88    0.93
 -23   7   1    9.44    0.89
  23   7  -1    9.96    0.90
  23  -7   1   10.76    0.76
  23  -7  -2    4.26    0.47
 -23   7  -2    6.36    0.73
  23   7   2    5.03    0.66
  23   7  -2    5.68    0.59
  23  -7  -3    6.25    0.49
 -23   7  -3    4.38    0.87
  23   7   3    4.49    0.67
  23   7  -3    6.16    0.57
 -23   7   3    5.65    0.73
 -23   7  -4   -0.53    0.75
  23  -7  -4    0.13    0.11
  23   7  -4   -0.17    0.18
 -23   7   4   -0.23    0.37
 -23   7  -5    3.49    0.98
 -23   7   5    1.64    0.40
  23   8   0   -0.08    0.29
 -23   8   0    0.41    0.33
  23  -8  -1    1.94    0.31
  23   8   1    1.45    0.36
 -23   8  -1    2.64    0.55
 -23   8   1    2.82    0.55
  23   8   2    9.00    0.81
  23  -8  -2    8.55    0.67
 -23   8  -2    7.51    0.86
  23   8  -2    9.48    0.76
 -23   8   2    7.80    0.84
 -23   8   2    7.40    0.83
 -23   8  -3    1.83    0.52
  23  -8  -3    2.12    0.27
  23   8   3    2.57    0.55
 -23   8   3    2.69    0.46
 -23   8   3    1.34    0.40
 -23   8  -4    0.77    0.69
 -23   8   4   -0.27    0.36
 -23   8   4    0.20    0.34
  23   8  -4    0.34    0.19
  23   9   0   -0.24    0.25
 -23   9   0   -0.45    0.32
  23   9   1    8.00    0.81
 -23   9  -1    7.23    0.80
  23   9  -1    9.21    0.79
 -23   9   1    9.33    0.82
 -23   9  -2    3.77    0.61
  23   9   2    3.26    0.55
 -23   9   2    3.23    0.61
 -23   9   2    4.71    0.64
  23   9  -2    3.43    0.48
  23   9   3    3.83    0.63
 -23   9   3    5.14    0.67
  23   9  -3    4.79    0.50
 -23  10   0    0.42    0.34
  23  10   0    0.22    0.26
  23  10   1    0.67    0.29
 -23  10   1    1.19    0.37
 -23  10   1    1.02    0.35
  23  10  -1    0.84    0.26
 -23  10  -2    7.57    0.90
  23  10   2    9.17    0.79
 -23  10   2    9.27    0.86
  23  10  -2    9.62    0.75
 -23  10   2    7.44    0.87
  24   0   0   21.49    1.89
  24   0   1    0.05    0.25
  24   0  -1    0.46    0.35
  24   0   2    0.63    0.23
  24   0  -2    1.15    0.27
  24   0  -3    0.39    0.19
  24   0  -4   16.41    1.23
  24   0  -5    2.56    0.32
  24   0  -6    1.53    0.27
  24   1   0   13.70    1.34
  24  -1   0   13.67    1.17
  24  -1  -1    4.11    0.65
  24   1   1    5.85    0.62
  24   1  -1    5.62    0.70
  24  -1   1    5.70    0.58
  24  -1  -2    0.44    0.25
  24   1   2    0.64    0.23
  24   1  -2    0.45    0.24
  24  -1   2    0.47    0.22
  24  -1  -3    3.97    0.45
  24   1  -3    4.01    0.45
  24  -1  -4    4.39    0.42
  24   1  -4    3.84    0.44
  24  -1  -5    6.21    0.52
  24   1  -5    5.99    0.52
 -24   1   6   -0.60    0.53
  24   1  -6   -0.18    0.15
  24  -2   0   21.65    1.53
  24   2   0   18.52    1.57
  24   2   1    0.41    0.28
  24  -2  -1    0.10    0.21
  24   2  -1    0.04    0.26
  24  -2   1   -0.29    0.22
  24   2   2    0.22    0.25
  24  -2  -2    0.22    0.19
  24  -2   2    0.06    0.21
  24   2  -2    0.17    0.23
  24  -2  -3   -0.01    0.16
  24   2  -3    0.11    0.18
  24  -2  -4   10.31    0.81
  24   2  -4   10.57    0.83
  24  -2  -5    0.42    0.14
  24   2  -5    0.34    0.16
  24   2  -6   -0.09    0.26
 -24   2   6   -0.82    0.48
  24   3   0    5.41    0.73
  24  -3   0    6.67    0.62
  24   3   1    2.79    0.57
  24  -3  -1    1.91    0.43
  24  -3   1    2.90    0.41
  24   3  -1    2.73    0.54
  24   3   2    0.08    0.26
  24  -3  -2   -0.26    0.18
  24   3  -2    0.10    0.23
  24  -3   2   -0.18    0.20
  24  -3  -3    7.64    0.64
  24   3  -3    7.41    0.67
  24  -3  -4   11.71    0.88
  24   3  -4   11.36    0.90
  24  -3  -5    6.40    0.52
  24   3  -5    6.46    0.56
  24  -3  -6    1.36    0.25
 -24   3   6    0.35    0.48
  24   3  -6    1.42    0.31
  24  -4   0   28.70    2.10
  24   4   1    0.61    0.31
  24  -4  -1    0.62    0.22
  24  -4   1    0.57    0.20
  24   4  -1    0.82    0.30
  24  -4  -2   -0.16    0.16
  24  -4   2   -0.04    0.18
  24   4  -2    0.10    0.23
  24  -4  -3    0.11    0.15
  24   4   3    0.39    0.27
  24   4  -3    0.19    0.19
  24  -4  -4   10.32    0.77
  24   4  -4    9.72    0.80
  24  -4  -5   -0.11    0.11
 -24   4   5   -0.63    0.52
  24   4  -5   -0.02    0.17
  24  -4  -6    0.03    0.12
  24   4  -6    0.04    0.18
  24  -5   0    6.38    0.59
  24  -5  -1    4.02    0.46
  24   5   1    3.29    0.65
  24   5  -1    4.48    0.61
  24  -5   1    4.52    0.44
  24  -5  -2   -0.25    0.17
  24   5   2   -0.09    0.29
  24  -5   2   -0.14    0.18
  24   5  -2   -0.12    0.24
  24  -5  -3    6.67    0.56
  24   5  -3    6.62    0.62
  24  -5  -4    6.92    0.56
  24   5  -4    7.01    0.60
  24  -5  -5    6.84    0.53
  24   5  -5    6.61    0.58
 -24   6   0   16.77    1.40
  24  -6   0   18.67    1.32
 -24   6  -1   -0.29    0.45
  24  -6  -1    0.05    0.16
  24   6   1   -0.07    0.31
  24   6  -1    0.19    0.28
  24  -6   1   -0.09    0.16
  24   6   2    0.03    0.28
  24  -6  -2    0.09    0.16
  24   6  -2   -0.17    0.22
  24   6   3    0.59    0.31
  24  -6  -3    0.20    0.14
  24   6  -3    0.44    0.21
  24  -6  -4   12.05    0.88
  24   6  -4   11.75    0.92
  24  -6  -5    0.44    0.11
 -24   6   5    0.04    0.43
  24   6  -5    0.23    0.19
  24  -7   0   10.43    0.83
 -24   7   0   11.06    0.95
  24   7   1    5.14    0.69
  24  -7  -1    5.18    0.49
  24   7  -1    5.70    0.64
  24   7   2    1.10    0.32
  24  -7  -2    1.46    0.28
 -24   7  -2    0.73    0.47
 -24   7   2    1.14    0.41
  24   7  -2    1.29    0.28
 -24   7  -3    2.42    0.74
  24  -7  -3    3.37    0.34
  24   7  -3    3.63    0.44
  24  -7  -4    3.81    0.36
 -24   7  -4    3.92    0.91
  24   7  -4    3.63    0.43
 -24   7   4    4.92    0.63
 -24   7   4    4.41    0.79
 -24   8  -1    0.52    0.37
  24   8   1   -0.32    0.29
 -24   8   1   -0.32    0.36
  24   8  -1   -0.04    0.25
  24   8   2   -0.09    0.28
 -24   8  -2    0.16    0.67
 -24   8   2   -0.30    0.38
  24   8  -2    0.19    0.23
 -24   8  -3    2.19    0.56
 -24   8   3    1.14    0.41
  24   8  -3    1.82    0.37
  24   9   0    2.73    0.52
 -24   9  -1    4.01    0.90
  24   9   1    3.41    0.63
 -24   9   1    4.34    0.62
  24   9  -1    4.34    0.54
 -24   9  -2    0.18    0.43
  24   9   2    0.12    0.27
 -24   9   2   -0.01    0.43
  25   0   0    0.04    0.25
  25   0  -1    1.85    0.33
  25   0   1    2.61    0.46
  25   0  -2   17.36    1.26
  25   0   2   15.04    1.23
  25   0  -3    3.21    0.40
  25   0  -4    0.13    0.13
  25   0  -6    6.41    0.52
  25   1   0    0.01    0.27
  25  -1   0    0.11    0.24
  25   1   1    7.72    0.71
  25   1  -1    5.90    0.70
  25  -1   1    7.79    0.67
  25   1   2    0.28    0.23
  25  -1  -2    0.03    0.20
  25   1  -2    0.20    0.23
  25  -1   2   -0.22    0.22
  25  -1  -3    7.55    0.65
  25   1  -3    8.05    0.67
  25  -1  -4    0.95    0.18
  25   1  -4    1.07    0.20
  25  -1  -5    9.05    0.69
  25   1  -5    8.79    0.70
  25   2   0   -0.14    0.26
  25  -2   0    0.09    0.23
  25   2   1    2.25    0.51
  25   2  -1    3.04    0.51
  25  -2   1    3.00    0.44
  25  -2  -2   13.81    1.07
  25   2   2   13.25    1.09
  25   2  -2   14.66    1.10
  25  -2   2   13.30    1.06
  25  -2  -3    1.51    0.31
  25   2  -3    1.81    0.36
  25  -2  -4    0.20    0.14
  25   2  -4   -0.16    0.16
  25  -2  -5    0.11    0.12
  25   2  -5    0.10    0.15
  25  -3   0   -0.16    0.22
  25   3   0    0.35    0.29
  25   3   1    8.28    0.76
  25  -3  -1    6.90    0.69
  25   3  -1    8.09    0.76
  25  -3  -2    0.53    0.20
  25   3   2    0.68    0.26
  25  -3   2    0.87    0.22
  25   3  -2    0.83    0.24
  25  -3  -3    5.10    0.48
  25   3  -3    5.33    0.52
  25  -3  -4    0.16    0.14
  25   3  -4   -0.06    0.16
  25  -3  -5    9.56    0.72
  25   3  -5    9.51    0.74
  25   4   0   -0.13    0.28
  25   4   1    1.73    0.34
  25  -4  -1    1.70    0.37
  25   4  -1    2.50    0.50
  25  -4   1    2.13    0.36
  25  -4  -2   13.78    1.07
  25   4   2   13.58    1.12
  25   4  -2   15.00    1.11
  25  -4   2   13.35    1.17
  25  -4  -3    0.84    0.19
  25   4  -3    0.95    0.21
  25  -4  -4    0.02    0.13
  25   4  -4    0.02    0.16
  25  -4  -5    0.37    0.13
  25   5   0   -0.30    0.28
 -25   5   0   -0.26    0.79
  25  -5   0    0.00    0.18
  25   5   1    7.43    0.77
  25  -5  -1    7.25    0.65
  25  -5   1    8.18    0.65
  25   5  -1    7.42    0.76
  25   5   2    0.68    0.28
  25  -5  -2    0.39    0.17
  25   5  -2    0.60    0.23
  25  -5  -3    5.20    0.48
  25   5  -3    5.83    0.54
  25   5  -4    0.02    0.16
 -25   6   0    0.04    0.43
  25   6   0   -0.36    0.29
  25  -6   0    0.01    0.18
 -25   6  -1    1.60    0.68
  25  -6  -1    1.01    0.22
  25   6   1    1.54    0.34
 -25   6   1    1.62    0.43
  25   6  -1    0.99    0.30
  25  -6   1    1.64    0.31
  25  -6  -2   11.99    0.95
  25   6   2   12.23    1.03
  25   6  -2   13.37    1.01
  25  -6  -3    0.70    0.15
  25   6  -3    0.75    0.20
  25  -6  -4    0.01    0.12
  25   6  -4   -0.07    0.19
  25  -7   0    0.07    0.17
  25   7   0   -0.17    0.27
 -25   7   0   -0.48    0.41
  25  -7  -1    7.34    0.60
  25   7   1    7.02    0.73
 -25   7  -1    6.70    0.91
 -25   7   1    6.93    0.77
  25   7  -1    7.25    0.70
  25   7   2    1.38    0.36
 -25   7  -2    1.45    0.54
  25  -7  -2    1.48    0.29
  25   7  -2    1.84    0.40
 -25   7   2    1.21    0.43
  25  -7  -3    4.54    0.40
 -25   7  -3    3.97    0.81
  25   7  -3    4.48    0.46
  25   8   0    0.15    0.26
 -25   8   0   -0.11    0.40
 -25   8  -1    1.49    0.44
  25   8   1    0.39    0.51
 -25   8   1    1.27    0.52
  25   8   2    8.20    0.69
 -25   8  -2    6.59    0.86
 -25   8   2    6.17    0.81
  26   0   0    6.09    0.64
  26   0  -1    0.70    0.25
  26   0   1    0.74    0.24
  26   0  -2    0.26    0.20
  26   0   2    0.01    0.24
  26   0  -3    1.50    0.31
  26   0  -4   17.03    1.25
  26  -1   0    0.99    0.27
  26   1   0    0.68    0.28
  26   1   1    9.47    0.77
  26  -1  -1    7.03    0.75
  26   1  -1    8.13    0.78
  26  -1   1    9.50    0.75
  26  -1  -2    0.40    0.20
  26   1   2    0.31    0.23
  26  -1   2    0.02    0.24
  26   1  -2    0.06    0.21
  26  -1  -3    3.08    0.39
  26   1  -3    3.61    0.40
  26  -1  -4    0.28    0.15
  26   1  -4    0.14    0.15
  26  -1  -5    7.05    0.63
  26   1  -5    7.70    0.61
  26   2   0    6.22    0.69
  26  -2   0    6.87    0.64
  26   2   1    0.99    0.28
  26  -2  -1    0.76    0.24
  26   2  -1    0.85    0.27
  26  -2   1    0.87    0.24
  26  -2  -2   -0.12    0.18
  26   2   2    0.09    0.25
  26  -2   2   -0.42    0.26
  26   2  -2    0.05    0.21
  26  -2  -3    0.84    0.19
  26   2  -3    0.64    0.20
  26  -2  -4   11.75    0.91
  26   2  -4   12.62    0.92
  26   3   0    1.50    0.32
  26  -3  -1    4.35    0.49
  26   3   1    5.27    0.59
  26  -3   1    4.52    0.49
  26   3  -1    4.25    0.57
  26   3   2   -0.41    0.26
  26  -3  -2   -0.08    0.17
  26   3  -2    0.02    0.21
  26  -3  -3    7.87    0.66
  26   3  -3    8.25    0.69
  26   3  -4    0.54    0.18
  26  -4   0   11.00    0.80
  26   4   0    7.83    0.85
  26  -4  -1    1.68    0.36
  26   4   1    2.30    0.49
  26  -4   1    1.97    0.36
  26   4  -1    1.40    0.30
  26   4   2    1.05    0.28
  26  -4  -2    0.54    0.19
  26   4  -2    0.57    0.22
  26  -4  -3    0.51    0.15
  26   4  -3    0.31    0.19
  26  -4  -4    8.88    0.70
  26   4  -4    9.47    0.73
  26   5   0    1.08    0.29
  26   5   1    5.86    0.63
  26  -5  -1    5.03    0.53
 -26   5   1    6.25    1.04
  26   5  -1    5.78    0.62
  26  -5   1    5.36    0.54
  26  -5  -2   -0.19    0.16
  26   5   2    0.42    0.35
  26   5  -2    0.04    0.22
  26  -5  -3    5.82    0.49
  26   5  -3    5.45    0.53
  26  -6   0    7.78    0.64
 -26   6   0    7.41    0.91
  26  -6  -1    0.63    0.19
  26   6   1    0.25    0.27
 -26   6   1    1.48    0.46
  26   6  -1    0.22    0.25
  26   6   2    0.56    0.28
  26  -6  -2    0.04    0.16
  26   6  -2    0.11    0.21
 -26   6   2   -0.66    0.45
 -26   6   3    0.17    0.44
  26   7   0   -0.32    0.37
 -26   7   0   -0.03    0.44
  26   7   1    8.24    0.71
 -26   7  -1    6.40    0.89
 -26   7   1    6.69    0.81
  26   7  -1    7.51    0.70
  27   0   0   -0.05    0.25
  27   0  -1    0.37    0.23
  27   0   1    1.24    0.26
  27   0  -2   25.01    1.83
  27   0  -3    0.20    0.16
  27   0  -4    0.02    0.20
  27  -1   0    0.05    0.23
  27   1   1    8.62    0.71
  27  -1  -1    6.14    0.68
  27  -1   1    8.83    0.69
  27   1  -1    6.72    0.70
  27  -1  -2    0.71    0.22
  27  -1  -3    1.60    0.31
  27   1  -3    1.80    0.32
  27   2   0    0.02    0.26
  27  -2   0   -0.16    0.22
  27  -2  -1    0.63    0.23
  27   2   1    0.56    0.26
  27  -2   1    0.91    0.23
  27   2  -1    0.75    0.26
  27  -2  -2   19.21    1.37
  27   2   2   16.56    1.39
  27   2  -2   19.43    1.39
  27  -2  -3    0.03    0.15
  27   2  -3    0.13    0.17
  27   3   0    0.05    0.27
  27  -3   0   -0.25    0.20
  27   3   1    8.96    0.76
  27  -3  -1    7.73    0.71
  27  -3   1    8.72    0.85
  27   3  -1    7.83    0.76
  27  -3  -2    1.61    0.34
  27  -3  -3    0.99    0.18
  27   3  -3    0.61    0.19
  27   4   0   -0.03    0.26
  27  -4   0    0.20    0.20
  27  -4  -1    0.75    0.20
  27   4  -1    0.10    0.25
  27  -4   1    0.42    0.21
  27   4   2   15.90    1.34
  27  -4  -2   17.00    1.30
  27   4  -2   19.68    1.33
  27  -5   0   -0.19    0.18
  27   5   0    0.03    0.30
  27   5   1    7.93    0.68
  27  -5   1    6.47    0.62
  27   5  -1    6.34    0.66
 -27   5   1    6.79    0.92
 -27   5   2    1.52    0.52
  28   0   0   10.90    1.03
  28   0  -1   -0.01    0.22
  28   0   1   -0.03    0.24
  28   0  -2    0.00    0.19
  28  -1   0    0.06    0.46
  28   1   0   -0.42    0.32
  28  -1  -1    4.49    0.54
  28   1   1    6.21    0.57
  28   1  -1    4.84    0.56
  28  -1   1    6.03    0.56
  28  -1  -2    0.68    0.21
  28   1  -2    0.70    0.22
  28  -2   0   10.50    0.84
  28   2   1    0.08    0.25
  28  -2  -1   -0.15    0.26
  28  -2   1   -0.18    0.22
  28   2  -1   -0.19    0.23
  28  -3   0    0.10    0.21
  28   3   0    0.08    0.25
  28   3   1    2.92    0.46
  28  -3  -1    3.20    0.39
  28   3  -1    1.87    0.45
  28  -3   1    2.45    0.45
   0   0   0    0.00    0.00
;
_shelx_hkl_checksum              99519
_olex2_submission_special_instructions 'No special instructions were received'
loop_
_space_group_symop_operation_xyz
'x, y, z'
'-x+1/2, -y, z+1/2'
'-x, y+1/2, -z'
'x+1/2, -y+1/2, -z+1/2'
'-x, -y, -z'
'x-1/2, y, -z-1/2'
'x, -y-1/2, z'
'-x-1/2, y-1/2, z-1/2'
loop_
_atom_site_label
_atom_site_type_symbol
_atom_site_fract_x
_atom_site_fract_y
_atom_site_fract_z
_atom_site_U_iso_or_equiv
_atom_site_adp_type
_atom_site_occupancy
_atom_site_site_symmetry_order
_atom_site_calc_flag
_atom_site_refinement_flags_posn
_atom_site_refinement_flags_adp
_atom_site_refinement_flags_occupancy
Bi01 Bi 0.73202(3) 0.750000 0.62461(6) 0.0369(3) Uani 1 2 d S T P
S002 S 0.71600(18) 0.3807(2) 0.7510(3) 0.0489(9) Uani 1 1 d . . .
S003 S 0.7879(3) 0.250000 0.4465(4) 0.0491(12) Uani 1 2 d S T P
S004 S 0.4059(3) 0.750000 0.1516(6) 0.0730(18) Uani 1 2 d S T P
S005 S 0.5316(3) 0.750000 0.3776(6) 0.088(3) Uani 1 2 d S T P
S006 S 0.5629(3) 0.750000 -0.0072(7) 0.115(4) Uani 1 2 d S T P
O007 O 0.3029(6) 0.750000 0.0132(13) 0.047(3) Uani 1 2 d S T P
O008 O 0.6920(6) 0.750000 0.4384(13) 0.056(4) Uani 1 2 d S T P
O009 O 0.7457(7) 0.6014(6) 0.5760(11) 0.077(4) Uani 1 1 d . . .
O00A O 0.7038(6) 0.5819(6) 0.7567(10) 0.069(3) Uani 1 1 d . . .
C00B C 0.7288(5) 0.5555(10) 0.6643(13) 0.039(3) Uiso 1 1 d . . .
C00C C 0.7398(6) 0.2976(8) 0.6544(12) 0.039(3) Uani 1 1 d . U .
O00D O 0.3360(7) 0.750000 -0.177(2) 0.096(7) Uani 1 2 d S T P
O00E O 0.6210(8) 0.750000 0.5722(18) 0.110(9) Uani 1 2 d S T P
C00F C 0.7635(6) 0.3314(8) 0.5475(13) 0.040(3) Uani 1 1 d . U .
C00G C 0.7390(7) 0.4590(9) 0.6445(12) 0.047(3) Uani 1 1 d . U .
C00H C 0.3429(9) 0.750000 -0.061(2) 0.062(6) Uani 1 2 d S T P
C00I C 0.6387(9) 0.750000 0.463(2) 0.058(6) Uani 1 2 d S T P
C00J C 0.7634(6) 0.4206(8) 0.5424(13) 0.042(3) Uani 1 1 d . U .
H00J H 0.778293 0.452640 0.476318 0.051 Uiso 1 1 calc R . .
C00K C 0.5217(10) 0.750000 0.218(2) 0.071(7) Uani 1 2 d S T P
C00L C 0.6033(10) 0.750000 0.356(2) 0.068(7) Uani 1 2 d S T P
C00M C 0.6172(11) 0.750000 0.234(2) 0.076(8) Uani 1 2 d S T P
H00M H 0.653282 0.750000 0.204284 0.091 Uiso 1 2 calc RS T P
C00N C 0.4781(10) 0.750000 0.136(2) 0.070(7) Uani 1 2 d S T P
C00O C 0.3985(10) 0.750000 -0.008(2) 0.068(7) Uani 1 2 d S T P
C00P C 0.5700(11) 0.750000 0.157(3) 0.082(8) Uani 1 2 d S T P
C00Q C 0.4905(10) 0.750000 0.013(3) 0.077(8) Uani 1 2 d S T P
C00R C 0.4467(11) 0.750000 -0.070(3) 0.092(10) Uani 1 2 d S T P
H00R H 0.450186 0.750000 -0.157203 0.111 Uiso 1 2 calc RS T P
loop_
_atom_site_aniso_label
_atom_site_aniso_U_11
_atom_site_aniso_U_22
_atom_site_aniso_U_33
_atom_site_aniso_U_23
_atom_site_aniso_U_13
_atom_site_aniso_U_12
Bi01 0.0549(5) 0.0202(4) 0.0355(5) 0.000 0.0040(3) 0.000
S002 0.089(2) 0.0184(14) 0.0395(17) 0.0000(13) 0.0107(17) 0.0021(15)
S003 0.090(4) 0.021(2) 0.036(2) 0.000 0.011(2) 0.000
S004 0.051(3) 0.112(6) 0.056(3) 0.000 -0.001(3) 0.000
S005 0.051(3) 0.157(8) 0.055(4) 0.000 -0.003(3) 0.000
S006 0.056(4) 0.229(12) 0.060(4) 0.000 0.004(3) 0.000
O007 0.050(7) 0.039(7) 0.052(8) 0.000 0.001(6) 0.000
O008 0.062(9) 0.066(9) 0.039(7) 0.000 -0.006(7) 0.000
O009 0.173(12) 0.006(4) 0.052(6) 0.016(4) 0.040(8) 0.017(6)
O00A 0.125(10) 0.026(5) 0.057(6) -0.008(5) 0.028(7) -0.005(6)
C00C 0.072(9) 0.012(6) 0.033(6) 0.001(5) -0.010(5) -0.001(5)
O00D 0.057(10) 0.16(2) 0.075(12) 0.000 -0.008(9) 0.000
O00E 0.056(10) 0.22(3) 0.058(11) 0.000 0.000(9) 0.000
C00F 0.070(9) 0.012(4) 0.038(6) -0.006(4) 0.003(5) -0.001(5)
C00G 0.088(11) 0.020(6) 0.032(6) -0.009(5) 0.007(6) -0.011(6)
C00H 0.052(12) 0.080(17) 0.054(13) 0.000 -0.017(11) 0.000
C00I 0.052(12) 0.079(16) 0.043(11) 0.000 -0.010(9) 0.000
C00J 0.080(9) 0.014(4) 0.034(6) -0.013(4) 0.006(5) -0.015(5)
C00K 0.055(13) 0.11(2) 0.051(12) 0.000 -0.001(10) 0.000
C00L 0.053(13) 0.10(2) 0.048(12) 0.000 -0.005(10) 0.000
C00M 0.065(15) 0.12(2) 0.044(12) 0.000 -0.005(11) 0.000
C00N 0.040(12) 0.10(2) 0.072(16) 0.000 0.008(11) 0.000
C00O 0.054(13) 0.091(19) 0.060(14) 0.000 0.010(11) 0.000
C00P 0.056(14) 0.12(3) 0.070(16) 0.000 -0.007(13) 0.000
C00Q 0.052(13) 0.11(2) 0.069(16) 0.000 -0.002(12) 0.000
C00R 0.062(15) 0.15(3) 0.065(16) 0.000 -0.012(13) 0.000
loop_
_atom_type_symbol
_atom_type_description
_atom_type_scat_dispersion_real
_atom_type_scat_dispersion_imag
_atom_type_scat_source
Bi Bi -4.0111 8.9310 'International Tables Vol C Tables 4.2.6.8 and 6.1.1.4'
C C 0.0181 0.0091 'International Tables Vol C Tables 4.2.6.8 and 6.1.1.4'
O O 0.0492 0.0322 'International Tables Vol C Tables 4.2.6.8 and 6.1.1.4'
S S 0.3331 0.5567 'International Tables Vol C Tables 4.2.6.8 and 6.1.1.4'
H H 0.0000 0.0000 'International Tables Vol C Tables 4.2.6.8 and 6.1.1.4'
loop_
_geom_angle_atom_site_label_1
_geom_angle_atom_site_label_2
_geom_angle_atom_site_label_3
_geom_angle
_geom_angle_site_symmetry_1
_geom_angle_site_symmetry_3
O007 Bi01 O009 75.4(3) 6_656 7_575
O007 Bi01 O009 75.4(3) 6_656 .
O007 Bi01 O00D 52.9(6) 6_656 6_656
O007 Bi01 O00E 127.7(5) 6_656 .
O007 Bi01 C00H 26.4(6) 6_656 6_656
O007 Bi01 C00I 102.1(6) 6_656 .
O008 Bi01 O007 75.5(5) . 6_656
O008 Bi01 O009 82.1(4) . 7_575
O008 Bi01 O009 82.1(4) . .
O008 Bi01 O00D 128.4(6) . 6_656
O008 Bi01 O00E 52.2(6) . .
O008 Bi01 C00H 101.9(7) . 6_656
O008 Bi01 C00I 26.6(6) . .
O009 Bi01 O009 149.4(5) 7_575 .
O009 Bi01 O00D 84.8(4) 7_575 6_656
O009 Bi01 O00D 84.7(4) . 6_656
O009 Bi01 O00E 95.4(4) 7_575 .
O009 Bi01 O00E 95.4(4) . .
O009 Bi01 C00H 78.9(4) . 6_656
O009 Bi01 C00H 78.9(4) 7_575 6_656
O009 Bi01 C00I 88.8(4) 7_575 .
O009 Bi01 C00I 88.8(4) . .
O00D Bi01 O00E 179.3(6) 6_656 .
O00D Bi01 C00H 26.5(7) 6_656 6_656
O00D Bi01 C00I 155.1(7) 6_656 .
O00E Bi01 C00H 154.1(7) . 6_656
O00E Bi01 C00I 25.6(6) . .
C00H Bi01 C00I 128.6(7) 6_656 .
C00C S002 C00G 90.0(6) . .
C00F S003 C00F 90.2(9) . 7_565
C00O S004 C00N 90.5(12) . .
C00K S005 C00L 90.4(11) . .
C00P S006 C00Q 88.7(13) . .
C00H O007 Bi01 100.1(13) . 6_556
C00I O008 Bi01 104.5(12) . .
C00B O009 Bi01 108.9(9) . .
O009 C00B C00G 112.6(12) . .
O00A C00B O009 126.3(14) . .
O00A C00B C00G 121.0(13) . .
C00C C00C S002 136.8(4) 7_565 .
C00F C00C S002 111.3(9) . .
C00F C00C C00C 111.9(7) . 7_565
C00H O00D Bi01 85.4(15) . 6_556
C00I O00E Bi01 81.5(13) . .
C00C C00F S003 113.0(9) . .
C00J C00F S003 133.2(11) . .
C00J C00F C00C 113.8(12) . .
C00B C00G S002 121.4(10) . .
C00J C00G S002 111.7(10) . .
C00J C00G C00B 126.8(13) . .
O007 C00H Bi01 53.5(10) . 6_556
O007 C00H C00O 118(2) . .
O00D C00H Bi01 68.1(12) . 6_556
O00D C00H O007 122(2) . .
O00D C00H C00O 121(2) . .
C00O C00H Bi01 171.3(18) . 6_556
O008 C00I Bi01 48.8(9) . .
O008 C00I C00L 115(2) . .
O00E C00I Bi01 72.9(13) . .
O00E C00I O008 122(2) . .
O00E C00I C00L 123(2) . .
C00L C00I Bi01 164.2(17) . .
C00F C00J C00G 113.2(13) . .
C00N C00K S005 138(2) . .
C00P C00K S005 111.0(19) . .
C00P C00K C00N 111(2) . .
C00I C00L S005 119.3(18) . .
C00M C00L S005 112.1(19) . .
C00M C00L C00I 129(2) . .
C00L C00M C00P 111(2) . .
C00K C00N S004 135(2) . .
C00Q C00N S004 108.4(19) . .
C00Q C00N C00K 117(2) . .
C00H C00O S004 118.8(18) . .
C00R C00O S004 114(2) . .
C00R C00O C00H 128(2) . .
C00K C00P S006 113(2) . .
C00K C00P C00M 115(3) . .
C00M C00P S006 131(2) . .
C00N C00Q S006 109.8(19) . .
C00N C00Q C00R 117(2) . .
C00R C00Q S006 133(2) . .
C00O C00R C00Q 110(3) . .
loop_
_geom_bond_atom_site_label_1
_geom_bond_atom_site_label_2
_geom_bond_distance
_geom_bond_site_symmetry_2
Bi01 O007 2.263(14) 6_656
Bi01 O008 2.213(14) .
Bi01 O009 2.333(9) 7_575
Bi01 O009 2.333(9) .
Bi01 O00D 2.582(18) 6_656
Bi01 O00E 2.751(18) .
Bi01 C00H 2.77(2) 6_656
Bi01 C00I 2.85(2) .
S002 C00C 1.727(13) .
S002 C00G 1.736(14) .
S003 C00F 1.741(12) 7_565
S003 C00F 1.741(12) .
S004 C00N 1.76(2) .
S004 C00O 1.71(3) .
S005 C00K 1.72(3) .
S005 C00L 1.76(3) .
S006 C00P 1.76(3) .
S006 C00Q 1.77(3) .
O007 C00H 1.25(3) .
O008 C00I 1.32(3) .
O009 C00B 1.241(18) .
O00A C00B 1.225(17) .
C00B C00G 1.50(2) .
C00C C00C 1.44(2) 7_565
C00C C00F 1.378(19) .
O00D C00H 1.24(3) .
O00E C00I 1.24(3) .
C00F C00J 1.351(17) .
C00G C00J 1.369(19) .
C00H C00O 1.46(3) .
C00I C00L 1.43(3) .
C00K C00N 1.38(3) .
C00K C00P 1.34(4) .
C00L C00M 1.34(3) .
C00M C00P 1.41(4) .
C00N C00Q 1.35(4) .
C00O C00R 1.35(4) .
C00Q C00R 1.38(4) .
