#------------------------------------------------------------------------------
#$Date: 2019-11-26 13:37:28 +0200 (Tue, 26 Nov 2019) $
#$Revision: 243433 $
#$URL: file:///home/coder/svn-repositories/cod/cif/4/13/37/4133724.cif $
#------------------------------------------------------------------------------
#
# This file is available in the Crystallography Open Database (COD),
# http://www.crystallography.net/
#
# All data on this site have been placed in the public domain by the
# contributors.
#
data_4133724
loop_
_publ_author_name
'Barnett, Brandon R.'
'Parker, Surya T.'
'Paley, Maria V.'
'Gonzalez, Miguel I.'
'Biggins, Naomi'
'Oktawiec, Julia'
'Long, Jeffrey R.'
_publ_section_title
;
 Thermodynamic Separation of 1-Butene from 2-Butene in Metal-Organic
 Frameworks with Open Metal Sites.
;
_journal_issue                   45
_journal_name_full               'Journal of the American Chemical Society'
_journal_page_first              18325
_journal_page_last               18333
_journal_paper_doi               10.1021/jacs.9b09942
_journal_volume                  141
_journal_year                    2019
_chemical_formula_moiety         '(C8 H2 Co2 O6), 1.59(C4 H8)'
_chemical_formula_sum            'C14.36 H14.71 Co2 O6'
_chemical_formula_weight         401.13
_chemical_name_common            Co2(dobdc)(1-butene)1.59
_space_group_crystal_system      trigonal
_space_group_IT_number           148
_space_group_name_Hall           '-R 3'
_space_group_name_H-M_alt        'R -3 :H'
_atom_sites_solution_hydrogens   geom
_atom_sites_solution_primary     direct
_atom_sites_solution_secondary   difmap
_audit_creation_date             2019-07-10
_audit_creation_method
;
Olex2 1.2
(compiled 2018.05.29 svn.r3510 for OlexSys, GUI svn.r5506)
;
_cell_angle_alpha                90
_cell_angle_beta                 90
_cell_angle_gamma                120
_cell_formula_units_Z            9
_cell_length_a                   25.8095(9)
_cell_length_b                   25.8095(9)
_cell_length_c                   6.8241(3)
_cell_measurement_reflns_used    9575
_cell_measurement_temperature    100(2)
_cell_measurement_theta_max      32.55
_cell_measurement_theta_min      3.40
_cell_volume                     3936.7(3)
_computing_cell_refinement       'SAINT V8.38A (?, 2016)'
_computing_data_collection       'Bruker APEX3'
_computing_data_reduction        'SAINT V8.38A (?, 2016)'
_computing_molecular_graphics    'Olex2 (Dolomanov et al., 2009)'
_computing_publication_material  'Olex2 (Dolomanov et al., 2009)'
_computing_structure_refinement  'ShelXL (Sheldrick, 2015)'
_computing_structure_solution    'ShelXS (Sheldrick, 2008)'
_diffrn_ambient_temperature      100(2)
_diffrn_detector_area_resol_mean 10.42
_diffrn_measured_fraction_theta_full 0.997
_diffrn_measured_fraction_theta_max 0.998
_diffrn_measurement_device_type  'Bruker D8 with PHOTON100 CMOS detector'
_diffrn_measurement_method       '\f and \w shutterless scans'
_diffrn_radiation_monochromator  'silicon 111'
_diffrn_radiation_type           synchrotron
_diffrn_radiation_wavelength     0.7749
_diffrn_reflns_av_R_equivalents  0.0793
_diffrn_reflns_av_unetI/netI     0.0378
_diffrn_reflns_Laue_measured_fraction_full 0.997
_diffrn_reflns_Laue_measured_fraction_max 0.998
_diffrn_reflns_limit_h_max       17
_diffrn_reflns_limit_h_min       -35
_diffrn_reflns_limit_k_max       35
_diffrn_reflns_limit_k_min       0
_diffrn_reflns_limit_l_max       9
_diffrn_reflns_limit_l_min       0
_diffrn_reflns_number            30436
_diffrn_reflns_point_group_measured_fraction_full 0.997
_diffrn_reflns_point_group_measured_fraction_max 0.998
_diffrn_reflns_theta_full        27.706
_diffrn_reflns_theta_max         32.554
_diffrn_reflns_theta_min         3.403
_diffrn_source                   'Advanced Light Source station 11.3.1'
_diffrn_standards_number         0
_exptl_absorpt_coefficient_mu    2.431
_exptl_absorpt_correction_T_max  0.964
_exptl_absorpt_correction_T_min  0.362
_exptl_absorpt_correction_type   multi-scan
_exptl_absorpt_process_details
;
 TWINABS-2012/1 (Bruker,2012) was used for absorption correction.

Final HKLF 4 output contains 30436 reflections, Rint = 0.0793
 (22816 with I > 3sig(I), Rint = 0.0767)
;
_exptl_crystal_colour            violet
_exptl_crystal_density_diffrn    1.523
_exptl_crystal_density_method    'not measured'
_exptl_crystal_description       needle
_exptl_crystal_F_000             1826
_exptl_crystal_size_max          0.064
_exptl_crystal_size_mid          0.015
_exptl_crystal_size_min          0.015
_refine_diff_density_max         1.414
_refine_diff_density_min         -0.694
_refine_diff_density_rms         0.142
_refine_ls_extinction_method     none
_refine_ls_goodness_of_fit_ref   1.074
_refine_ls_hydrogen_treatment    constr
_refine_ls_matrix_type           full
_refine_ls_number_parameters     112
_refine_ls_number_reflns         2453
_refine_ls_number_restraints     0
_refine_ls_restrained_S_all      1.074
_refine_ls_R_factor_all          0.0465
_refine_ls_R_factor_gt           0.0438
_refine_ls_shift/su_max          0.002
_refine_ls_shift/su_mean         0.000
_refine_ls_structure_factor_coef Fsqd
_refine_ls_weighting_details
'w=1/[\s^2^(Fo^2^)+(0.0686P)^2^+17.4837P] where P=(Fo^2^+2Fc^2^)/3'
_refine_ls_weighting_scheme      calc
_refine_ls_wR_factor_gt          0.1235
_refine_ls_wR_factor_ref         0.1253
_reflns_Friedel_coverage         0.000
_reflns_number_gt                2266
_reflns_number_total             2453
_reflns_threshold_expression     'I > 2\s(I)'
_cod_data_source_file            ja9b09942_si_001.cif
_cod_data_source_block           Co2dobdc_1-butene_1.59
_cod_original_sg_symbol_H-M      'R -3'
_cod_database_code               4133724
_shelx_shelxl_version_number     2018/3
_shelx_space_group_comment
;
The symmetry employed for this shelxl refinement is uniquely defined
by the following loop, which should always be used as a source of
symmetry information in preference to the above space-group names.
They are only intended as comments.
;
_shelx_estimated_absorpt_t_max   0.964
_shelx_estimated_absorpt_t_min   0.860
_olex2_refinement_description
;
1. Twinned data refinement
 Scales: 0.543(2)
 0.457(2)
2. Fixed Uiso
 At 1.2 times of:
  All C(H) groups, All C(H,H) groups
 At 1.5 times of:
  All C(H,H,H) groups
3. Others
 Sof(C5)=Sof(H5A)=Sof(H5B)=Sof(C6)=Sof(H6)=Sof(C7)=Sof(H7A)=Sof(H7B)=Sof(C8)=
 Sof(H8A)=Sof(H8B)=Sof(H8C)=FVAR(1)
4.a Secondary CH2 refined with riding coordinates:
 C7(H7A,H7B)
4.b Aromatic/amide H refined with riding coordinates:
 C3(H3), C6(H6)
4.c X=CH2 refined with riding coordinates:
 C5(H5A,H5B)
4.d Idealised Me refined as rotating group:
 C8(H8A,H8B,H8C)
;
_shelx_res_file
;
TITL twin4 in R-3
    twin4.res
    created by SHELXL-2018/3 at 14:52:55 on 10-Jul-2019
CELL 0.7749 25.8095 25.8095 6.8241 90 90 120
ZERR 9 0.0009 0.0009 0.0003 0 0 0
LATT 3
SYMM -Y,+X-Y,+Z
SYMM +Y-X,-X,+Z
SFAC C H Co O
DISP C 0.004 0.002 13.872
DISP Co 0.355 1.13 5089.307
DISP H -0 0 0.627
DISP O 0.014 0.007 40.889
UNIT 129.22 132.43 18 54

L.S. 4 0 0
PLAN  20
SIZE 0.015 0.015 0.064
TEMP -173(2)
BOND
LIST 6
MORE -1
CONF
fmap 2 53
acta
REM <olex2.extras>
REM <HklSrc "%./twin5.hkl">
REM </olex2.extras>

WGHT    0.068600   17.483700
BASF   0.45734
FVAR       0.27490   0.79466
CO1   3    0.633874    0.685282    0.482905    11.00000    0.00887    0.00706 =
         0.01511    0.00033    0.00002    0.00414
O2    4    0.657219    0.695106    1.026242    11.00000    0.01247    0.00919 =
         0.01782    0.00182    0.00204    0.00655
O1    4    0.689657    0.748582    0.670934    11.00000    0.01277    0.00953 =
         0.01863   -0.00134   -0.00007    0.00706
O3    4    0.635148    0.739151    1.265206    11.00000    0.01696    0.01294 =
         0.01588    0.00179    0.00276    0.00976
C4    1    0.650517    0.737263    1.091523    11.00000    0.00926    0.00822 =
         0.01736    0.00100   -0.00074    0.00444
C1    1    0.678037    0.788724    0.756260    11.00000    0.01217    0.00985 =
         0.02058   -0.00042   -0.00068    0.00609
C3    1    0.648975    0.830492    1.024566    11.00000    0.01503    0.01202 =
         0.01776    0.00129    0.00029    0.00767
AFIX  43
H3    2    0.636700    0.828184    1.157057    11.00000   -1.20000
AFIX   0
C2    1    0.659862    0.785991    0.953255    11.00000    0.01269    0.00970 =
         0.01841   -0.00030   -0.00207    0.00551

C5    1    0.537623    0.667387    0.670642    21.00000    0.02553    0.02037 =
         0.04101   -0.01190   -0.01309    0.01580
AFIX  93
H5A   2    0.514169    0.628395    0.617309    21.00000   -1.20000
H5B   2    0.560231    0.673093    0.786610    21.00000   -1.20000
AFIX   0
C6    1    0.538773    0.712549    0.585665    21.00000    0.01879    0.03013 =
         0.04069    0.00345    0.00114    0.01174
AFIX  43
H6    2    0.563212    0.750045    0.647580    21.00000   -1.20000
AFIX   0
C7    1    0.507424    0.714840    0.404200    21.00000    0.03622    0.05358 =
         0.05153    0.00539   -0.00300    0.03097
AFIX  23
H7A   2    0.479973    0.729788    0.438866    21.00000   -1.20000
H7B   2    0.537467    0.743658    0.311245    21.00000   -1.20000
AFIX   0
C8    1    0.472610    0.655783    0.305385    21.00000    0.07560    0.06929 =
         0.07475   -0.02457   -0.03085    0.04980
AFIX 137
H8A   2    0.459740    0.661374    0.175855    21.00000   -1.50000
H8B   2    0.437404    0.629590    0.384575    21.00000   -1.50000
H8C   2    0.497764    0.637505    0.290669    21.00000   -1.50000
AFIX   0
HKLF 5




REM  twin4 in R-3
REM wR2 = 0.1253, GooF = S = 1.074, Restrained GooF = 1.074 for all data
REM R1 = 0.0438 for 2266 Fo > 4sig(Fo) and 0.0465 for all 2453 data
REM 112 parameters refined using 0 restraints

END

WGHT      0.0686     17.4837

REM Highest difference peak  1.414,  deepest hole -0.694,  1-sigma level  0.142
Q1    1   0.5585  0.6813  0.5897  11.00000  0.05    1.41
Q2    1   0.6333  0.6856  0.6326  11.00000  0.05    0.75
Q3    1   0.5206  0.6412  0.0356  11.00000  0.05    0.68
Q4    1   0.6339  0.6868  0.3288  11.00000  0.05    0.62
Q5    1   0.5008  0.6771  0.3766  11.00000  0.05    0.60
Q6    1   0.4424  0.6907  0.4247  11.00000  0.05    0.58
Q7    1   0.6335  0.7260  0.6572  11.00000  0.05    0.52
Q8    1   0.5304  0.6871  0.5060  11.00000  0.05    0.51
Q9    1   0.3333  0.6667  0.3683  10.33333  0.05    0.51
Q10   1   0.6032  0.7152  1.4023  11.00000  0.05    0.51
Q11   1   0.6212  0.8605  1.0714  11.00000  0.05    0.51
Q12   1   0.6647  0.7378  0.5761  11.00000  0.05    0.48
Q13   1   0.6397  0.6692  1.0501  11.00000  0.05    0.48
Q14   1   0.6952  0.7575  0.5947  11.00000  0.05    0.46
Q15   1   0.6494  0.6748  1.1850  11.00000  0.05    0.46
Q16   1   0.6255  0.7121  0.7927  11.00000  0.05    0.46
Q17   1   0.6404  0.7233  0.9216  11.00000  0.05    0.42
Q18   1   0.4806  0.5799  0.3888  11.00000  0.05    0.40
Q19   1   0.6535  0.6890  0.9083  11.00000  0.05    0.39
Q20   1   0.7220  0.7391  0.9878  11.00000  0.05    0.38
;
_shelx_res_checksum              99142
_shelx_hkl_file
;
  -2   4   0 1284.57 35.6501  -2
  -2   4   0 1284.57 35.6501   1
  -1   5   0 3147.60 308.447  -2
  -4   5   0 3147.60 308.447   1
  -4   5   0 2518.69 247.118  -2
  -1   5   0 2518.69 247.118   1
  -3   6   0 27.3667 1.16550  -2
  -3   6   0 27.3667 1.16550   1
   0   6   0 4555.49 446.319  -2
   0   6   0 4555.49 446.319   1
  -2   7   0 1328.24 32.9625  -2
  -5   7   0 1328.24 32.9625   1
  -5   7   0 1101.27 27.4006  -2
  -2   7   0 1101.27 27.4006   1
  -1   8   0 2521.53 84.6021  -2
  -7   8   0 2521.53 84.6021   1
  -4   8   0 146.320 4.05676  -2
  -4   8   0 146.320 4.05676   1
  -7   8   0 2174.13 61.1717  -2
  -1   8   0 2174.13 61.1717   1
  -3   9   0 745.718 19.2428  -2
  -6   9   0 745.718 19.2428   1
  -6   9   0 770.085 18.3466  -2
  -3   9   0 770.085 18.3466   1
   0   9   0 6.56786 1.18400  -2
   0   9   0 6.56786 1.18400   1
  -2  10   0 2800.06 76.3998  -2
  -8  10   0 2800.06 76.3998   1
  -5  10   0 427.405 10.3481  -2
  -5  10   0 427.405 10.3481   1
  -8  10   0 2561.87 78.3337  -2
  -2  10   0 2561.87 78.3337   1
  -1  11   0 2220.99 65.2475  -2
 -10  11   0 2220.99 65.2475   1
  -4  11   0 943.532 25.1415  -2
  -7  11   0 943.532 25.1415   1
  -7  11   0 1204.07 33.1484  -2
  -4  11   0 1204.07 33.1484   1
 -10  11   0 2536.71 74.4624  -2
  -1  11   0 2536.71 74.4624   1
  -3  12   0 1354.30 33.1517  -2
  -9  12   0 1354.30 33.1517   1
  -6  12   0 1250.09 29.6845  -2
  -6  12   0 1250.09 29.6845   1
  -9  12   0 1154.22 28.3120  -2
  -3  12   0 1154.22 28.3120   1
   0  12   0 1957.32 60.0390  -2
   0  12   0 1957.32 60.0390   1
  -2  13   0 2995.34 81.0024  -2
 -11  13   0 2995.34 81.0024   1
  -5  13   0 561.091 13.9083  -2
  -8  13   0 561.091 13.9083   1
  -8  13   0 647.456 18.4329  -2
  -5  13   0 647.456 18.4329   1
 -11  13   0 2802.18 90.2045  -2
  -2  13   0 2802.18 90.2045   1
  -1  14   0 4306.99 168.896  -2
 -13  14   0 4306.99 168.896   1
  -4  14   0 3655.13 111.709  -2
 -10  14   0 3655.13 111.709   1
  -7  14   0 1544.52 39.7156  -2
  -7  14   0 1544.52 39.7156   1
 -10  14   0 4005.41 139.777  -2
  -4  14   0 4005.41 139.777   1
 -13  14   0 4730.47 164.995  -2
  -1  14   0 4730.47 164.995   1
  -3  15   0 1810.05 51.1351  -2
 -12  15   0 1810.05 51.1351   1
  -6  15   0 320.510 8.06509  -2
  -9  15   0 320.510 8.06509   1
  -9  15   0 298.355 8.11674  -2
  -6  15   0 298.355 8.11674   1
 -12  15   0 2103.49 65.7305  -2
  -3  15   0 2103.49 65.7305   1
   0  15   0 639.232 19.3153  -2
   0  15   0 639.232 19.3153   1
  -2  16   0 3168.00 85.7411  -2
 -14  16   0 3168.00 85.7411   1
  -5  16   0 646.806 17.1076  -2
 -11  16   0 646.806 17.1076   1
  -8  16   0 208.179 5.79321  -2
  -8  16   0 208.179 5.79321   1
 -11  16   0 790.770 23.9465  -2
  -5  16   0 790.770 23.9465   1
 -14  16   0 2989.09 84.2028  -2
  -2  16   0 2989.09 84.2028   1
  -1  17   0 2664.17 78.3623  -2
 -16  17   0 2664.17 78.3623   1
  -4  17   0 3785.20 106.471  -2
 -13  17   0 3785.20 106.471   1
  -7  17   0 451.658 11.6278  -2
 -10  17   0 451.658 11.6278   1
 -10  17   0 607.861 18.5837  -2
  -7  17   0 607.861 18.5837   1
 -13  17   0 4459.99 135.666  -2
  -4  17   0 4459.99 135.666   1
 -16  17   0 2936.96 84.5650  -2
  -1  17   0 2936.96 84.5650   1
  -3  18   0 919.376 25.3397  -2
 -15  18   0 919.376 25.3397   1
  -6  18   0 770.154 18.5725  -2
 -12  18   0 770.154 18.5725   1
  -9  18   0 5.24813 1.27122  -2
  -9  18   0 5.24813 1.27122   1
 -12  18   0 996.836 28.8033  -2
  -6  18   0 996.836 28.8033   1
 -15  18   0 973.564 35.3934  -2
  -3  18   0 973.564 35.3934   1
   0  18   0 181.322 6.28159  -2
   0  18   0 181.322 6.28159   1
  -2  19   0 371.522 10.9244  -2
 -17  19   0 371.522 10.9244   1
  -5  19   0 160.859 5.98232  -2
 -14  19   0 160.859 5.98232   1
  -8  19   0 50.2328 2.06981  -2
 -11  19   0 50.2328 2.06981   1
 -11  19   0 59.8387 2.37342  -2
  -8  19   0 59.8387 2.37342   1
 -14  19   0 190.492 7.27783  -2
  -5  19   0 190.492 7.27783   1
 -17  19   0 404.392 11.8190  -2
  -2  19   0 404.392 11.8190   1
  -1  20   0 299.817 9.14844  -2
 -19  20   0 299.817 9.14844   1
  -4  20   0 1541.89 45.5381  -2
 -16  20   0 1541.89 45.5381   1
  -7  20   0 704.444 17.1076  -2
 -13  20   0 704.444 17.1076   1
 -10  20   0 18.3748 1.35407  -2
 -10  20   0 18.3748 1.35407   1
 -13  20   0 783.823 25.2142  -2
  -7  20   0 783.823 25.2142   1
 -16  20   0 1649.31 50.7352  -2
  -4  20   0 1649.31 50.7352   1
 -19  20   0 351.529 11.1864  -2
  -1  20   0 351.529 11.1864   1
  -3  21   0 833.976 25.0508  -2
 -18  21   0 833.976 25.0508   1
  -6  21   0 1336.04 39.6295  -2
 -15  21   0 1336.04 39.6295   1
  -9  21   0 427.762 11.5883  -2
 -12  21   0 427.762 11.5883   1
 -12  21   0 364.572 9.53785  -2
  -9  21   0 364.572 9.53785   1
 -15  21   0 1148.57 34.2296  -2
  -6  21   0 1148.57 34.2296   1
 -18  21   0 871.215 29.5354  -2
  -3  21   0 871.215 29.5354   1
   0  21   0 528.173 15.1075  -2
   0  21   0 528.173 15.1075   1
  -2  22   0 543.551 15.5175  -2
 -20  22   0 543.551 15.5175   1
  -5  22   0 380.638 11.1996  -2
 -17  22   0 380.638 11.1996   1
  -8  22   0 109.090 4.02291  -2
 -14  22   0 109.090 4.02291   1
 -11  22   0 233.888 6.54240  -2
 -11  22   0 233.888 6.54240   1
 -14  22   0 114.194 3.66947  -2
  -8  22   0 114.194 3.66947   1
 -17  22   0 435.036 13.8479  -2
  -5  22   0 435.036 13.8479   1
 -20  22   0 586.009 21.9604  -2
  -2  22   0 586.009 21.9604   1
  -1  23   0 864.481 25.5971  -2
 -22  23   0 864.481 25.5971   1
  -4  23   0 391.193 12.5599  -2
 -19  23   0 391.193 12.5599   1
  -7  23   0 1124.41 35.1264  -2
 -16  23   0 1124.41 35.1264   1
 -10  23   0 1216.75 33.3184  -2
 -13  23   0 1216.75 33.3184   1
 -13  23   0 1094.08 28.6655  -2
 -10  23   0 1094.08 28.6655   1
 -16  23   0 1030.74 30.7991  -2
  -7  23   0 1030.74 30.7991   1
 -19  23   0 396.658 13.1518  -2
  -4  23   0 396.658 13.1518   1
 -22  23   0 850.599 23.7526  -2
  -1  23   0 850.599 23.7526   1
  -3  24   0 36.4009 2.61409  -2
 -21  24   0 36.4009 2.61409   1
  -6  24   0 1380.62 46.5394  -2
 -18  24   0 1380.62 46.5394   1
  -9  24   0 2303.28 66.8898  -2
 -15  24   0 2303.28 66.8898   1
 -12  24   0 599.874 15.3317  -2
 -12  24   0 599.874 15.3317   1
 -15  24   0 1829.80 55.4653  -2
  -9  24   0 1829.80 55.4653   1
 -18  24   0 1210.82 42.4506  -2
  -6  24   0 1210.82 42.4506   1
 -21  24   0 41.6174 2.97921  -2
  -3  24   0 41.6174 2.97921   1
   0  24   0 14.7598 3.43665  -2
   0  24   0 14.7598 3.43665   1
  -2  25   0 995.219 34.0355  -2
 -23  25   0 995.219 34.0355   1
  -5  25   0 436.531 14.7152  -2
 -20  25   0 436.531 14.7152   1
  -8  25   0 445.467 16.2606  -2
 -17  25   0 445.467 16.2606   1
 -11  25   0 157.327 5.94234  -2
 -14  25   0 157.327 5.94234   1
 -14  25   0 129.310 5.74818  -2
 -11  25   0 129.310 5.74818   1
 -17  25   0 308.750 14.4651  -2
  -8  25   0 308.750 14.4651   1
 -20  25   0 561.604 23.4991  -2
  -5  25   0 561.604 23.4991   1
 -23  25   0 1048.39 32.7765  -2
  -2  25   0 1048.39 32.7765   1
  -1  26   0 290.814 11.5234  -2
 -25  26   0 290.814 11.5234   1
  -4  26   0 360.230 12.6768  -2
 -22  26   0 360.230 12.6768   1
  -7  26   0 639.651 22.0125  -2
 -19  26   0 639.651 22.0125   1
 -10  26   0 768.289 26.2894  -2
 -16  26   0 768.289 26.2894   1
 -13  26   0 156.252 9.74147  -2
 -13  26   0 156.252 9.74147   1
 -16  26   0 661.477 24.2307  -2
 -10  26   0 661.477 24.2307   1
 -19  26   0 645.442 22.1873  -2
  -7  26   0 645.442 22.1873   1
 -22  26   0 486.108 16.6811  -2
  -4  26   0 486.108 16.6811   1
 -25  26   0 265.092 9.50645  -2
  -1  26   0 265.092 9.50645   1
  -3  27   0 165.984 8.73792  -2
 -24  27   0 165.984 8.73792   1
  -6  27   0 202.602 8.73252  -2
 -21  27   0 202.602 8.73252   1
  -9  27   0 1394.95 48.9814  -2
 -18  27   0 1394.95 48.9814   1
 -12  27   0 983.164 40.1334  -2
 -15  27   0 983.164 40.1334   1
 -15  27   0 889.776 36.6140  -2
 -12  27   0 889.776 36.6140   1
 -18  27   0 1153.64 45.2636  -2
  -9  27   0 1153.64 45.2636   1
 -21  27   0 191.275 7.88950  -2
  -6  27   0 191.275 7.88950   1
 -24  27   0 194.996 7.71661  -2
  -3  27   0 194.996 7.71661   1
   0  27   0 283.787 12.9353  -2
   0  27   0 283.787 12.9353   1
  -2  28   0 184.857 8.48799  -2
 -26  28   0 184.857 8.48799   1
  -5  28   0 705.901 27.2680  -2
 -23  28   0 705.901 27.2680   1
  -8  28   0 301.710 11.7664  -2
 -20  28   0 301.710 11.7664   1
 -11  28   0 335.520 15.4745  -2
 -17  28   0 335.520 15.4745   1
 -14  28   0 246.793 12.5850  -2
 -14  28   0 246.793 12.5850   1
 -17  28   0 298.426 14.6141  -2
 -11  28   0 298.426 14.6141   1
 -20  28   0 339.160 14.3511  -2
  -8  28   0 339.160 14.3511   1
 -23  28   0 844.574 34.3396  -2
  -5  28   0 844.574 34.3396   1
 -26  28   0 242.037 11.4844  -2
  -2  28   0 242.037 11.4844   1
  -1  29   0 65.4062 5.05492  -2
 -28  29   0 65.4062 5.05492   1
  -4  29   0 108.883 6.27335  -2
 -25  29   0 108.883 6.27335   1
  -7  29   0 241.553 9.96974  -2
 -22  29   0 241.553 9.96974   1
 -10  29   0 298.697 14.2016  -2
 -19  29   0 298.697 14.2016   1
 -13  29   0 40.1543 4.62960  -2
 -16  29   0 40.1543 4.62960   1
 -16  29   0 24.0994 4.45994  -2
 -13  29   0 24.0994 4.45994   1
 -19  29   0 304.935 13.8571  -2
 -10  29   0 304.935 13.8571   1
 -22  29   0 256.167 12.0258  -2
  -7  29   0 256.167 12.0258   1
 -25  29   0 124.653 7.64858  -2
  -4  29   0 124.653 7.64858   1
 -28  29   0 61.7902 5.35286  -2
  -1  29   0 61.7902 5.35286   1
  -3  30   0 76.3539 5.25813  -2
 -27  30   0 76.3539 5.25813   1
  -6  30   0 77.2229 5.56619  -2
 -24  30   0 77.2229 5.56619   1
  -9  30   0 225.206 11.8570  -2
 -21  30   0 225.206 11.8570   1
 -12  30   0 344.416 14.8419  -2
 -18  30   0 344.416 14.8419   1
 -15  30   0 224.500 10.9490  -2
 -15  30   0 224.500 10.9490   1
 -18  30   0 279.455 13.6861  -2
 -12  30   0 279.455 13.6861   1
 -21  30   0 219.749 10.5918  -2
  -9  30   0 219.749 10.5918   1
 -24  30   0 85.0530 5.68869  -2
  -6  30   0 85.0530 5.68869   1
 -27  30   0 72.3110 6.10948  -2
  -3  30   0 72.3110 6.10948   1
   0  30   0 152.384 8.51849  -2
   0  30   0 152.384 8.51849   1
  -2  31   0 161.670 8.93431  -2
 -29  31   0 161.670 8.93431   1
  -5  31   0 480.741 21.1115  -2
 -26  31   0 480.741 21.1115   1
  -8  31   0 322.727 12.9768  -2
 -23  31   0 322.727 12.9768   1
 -11  31   0 73.6027 6.87398  -2
 -20  31   0 73.6027 6.87398   1
 -14  31   0 249.080 11.7447  -2
 -17  31   0 249.080 11.7447   1
 -17  31   0 232.956 11.9113  -2
 -14  31   0 232.956 11.9113   1
 -20  31   0 92.4469 7.05826  -2
 -11  31   0 92.4469 7.05826   1
 -23  31   0 329.631 14.3518  -2
  -8  31   0 329.631 14.3518   1
 -26  31   0 537.939 22.1390  -2
  -5  31   0 537.939 22.1390   1
 -29  31   0 170.910 9.45142  -2
  -2  31   0 170.910 9.45142   1
  -4  32   0 123.173 7.02334  -2
 -28  32   0 123.173 7.02334   1
  -7  32   0 234.536 11.7611  -2
 -25  32   0 234.536 11.7611   1
 -10  32   0 174.703 10.3304  -2
 -22  32   0 174.703 10.3304   1
 -13  32   0 49.7528 5.31935  -2
 -19  32   0 49.7528 5.31935   1
 -16  32   0 108.037 7.84939  -2
 -16  32   0 108.037 7.84939   1
 -19  32   0 46.1403 5.23077  -2
 -13  32   0 46.1403 5.23077   1
 -22  32   0 214.046 10.7186  -2
 -10  32   0 214.046 10.7186   1
 -25  32   0 251.178 11.7263  -2
  -7  32   0 251.178 11.7263   1
 -28  32   0 131.923 8.03443  -2
  -4  32   0 131.923 8.03443   1
  -6  33   0 115.902 8.12337  -2
 -27  33   0 115.902 8.12337   1
  -9  33   0 20.0249 4.97466  -2
 -24  33   0 20.0249 4.97466   1
 -12  33   0 78.5700 6.21002  -2
 -21  33   0 78.5700 6.21002   1
 -15  33   0 75.9490 6.74671  -2
 -18  33   0 75.9490 6.74671   1
 -18  33   0 68.8181 5.89682  -2
 -15  33   0 68.8181 5.89682   1
 -21  33   0 50.2243 6.00632  -2
 -12  33   0 50.2243 6.00632   1
 -24  33   0 24.2359 4.49015  -2
  -9  33   0 24.2359 4.49015   1
 -27  33   0 102.057 7.99622  -2
  -6  33   0 102.057 7.99622   1
  -8  34   0 183.383 10.8587  -2
 -26  34   0 183.383 10.8587   1
 -11  34   0 81.2799 6.99322  -2
 -23  34   0 81.2799 6.99322   1
 -14  34   0 121.023 7.99986  -2
 -20  34   0 121.023 7.99986   1
 -17  34   0 349.001 15.5827  -2
 -17  34   0 349.001 15.5827   1
 -20  34   0 112.283 7.95620  -2
 -14  34   0 112.283 7.95620   1
 -23  34   0 88.0756 6.95934  -2
 -11  34   0 88.0756 6.95934   1
 -26  34   0 191.774 12.0374  -2
  -8  34   0 191.774 12.0374   1
 -13  35   0 104.701 7.63322  -2
 -22  35   0 104.701 7.63322   1
 -16  35   0 712.594 30.6144  -2
 -19  35   0 712.594 30.6144   1
 -19  35   0 753.616 31.8953  -2
 -16  35   0 753.616 31.8953   1
 -22  35   0 110.259 7.96993  -2
 -13  35   0 110.259 7.96993   1
  -1   1   1 134.709 3.70586   1
  -3   2   1 1706.49 98.6241   1
   0   2   1 437.908 13.1989   1
  -5   3   1 963.385 24.0073   1
  -2   3   1 2570.16 159.073   1
   1   3   1 368.135 9.29469   1
  -7   4   1 1170.84 30.4300   1
  -4   4   1 121.938 3.24030   1
  -1   4   1 143.698 4.25112   1
   2   4   1 104.633 3.17093   1
  -9   5   1 2.65258 0.58341   1
  -6   5   1 4509.22 441.813   1
  -3   5   1 457.054 13.3136   1
   0   5   1 1746.05 60.8563   1
   3   5   1 772.147 19.3396   1
 -11   6   1 116.080 3.13300   1
  -8   6   1 6414.87 628.216   1
  -5   6   1 1509.84 49.3437   1
  -2   6   1 1906.74 60.4779   1
   1   6   1 1665.49 59.5754   1
   4   6   1 1706.82 45.2737   1
 -13   7   1 772.035 18.3340   1
 -10   7   1 2690.93 91.0284   1
  -7   7   1 40.5799 1.53088   1
  -4   7   1 61.1882 1.92621   1
  -1   7   1 50.5891 1.75736   1
   2   7   1 240.100 5.71886   1
   5   7   1 2248.53 52.7477   1
 -15   8   1 3733.42 104.929   1
 -12   8   1 465.422 11.2095   1
  -9   8   1 988.469 25.0227   1
  -6   8   1 601.390 15.5719   1
  -3   8   1 984.648 29.4896   1
   0   8   1 660.891 16.3650   1
   3   8   1 600.582 14.6484   1
   6   8   1 530.184 12.7454   1
 -17   9   1 513.488 12.8962   1
 -14   9   1 47.3450 1.77386   1
 -11   9   1 2484.11 63.5752   1
  -8   9   1 1328.12 35.5803   1
  -5   9   1 596.650 17.2922   1
  -2   9   1 2119.47 58.6570   1
   1   9   1 119.202 3.33950   1
   4   9   1 1123.58 26.7021   1
   7   9   1 1304.00 31.9487   1
 -19  10   1 1308.92 32.1691   1
 -16  10   1 945.081 23.3168   1
 -13  10   1 716.960 17.8947   1
 -10  10   1 252.303 8.46420   1
  -7  10   1 878.114 21.7391   1
  -4  10   1 402.910 9.97346   1
  -1  10   1 208.056 5.71000   1
   2  10   1 1657.19 42.9067   1
   5  10   1 3457.33 92.4501   1
   8  10   1 2559.18 62.4311   1
 -21  11   1 139.673 4.42377   1
 -18  11   1 1653.39 43.1308   1
 -15  11   1 546.079 13.4651   1
 -12  11   1 1475.24 37.8927   1
  -9  11   1 11.4395 0.98559   1
  -6  11   1 18.4957 0.98653   1
  -3  11   1 257.854 6.00207   1
   0  11   1 743.647 19.4618   1
   3  11   1 534.711 14.8486   1
   6  11   1 336.506 9.04788   1
   9  11   1 6.87903 1.05643   1
 -23  12   1 3.00947 1.16365   1
 -20  12   1 6.69549 1.28321   1
 -17  12   1 377.127 9.75441   1
 -14  12   1 134.857 3.80625   1
 -11  12   1 117.374 3.43745   1
  -8  12   1 163.367 4.91445   1
  -5  12   1 405.871 10.7733   1
  -2  12   1 55.8856 2.35374   1
   1  12   1 61.3952 2.67178   1
   4  12   1 1690.82 47.0458   1
   7  12   1 637.794 15.9295   1
  10  12   1 2.85368 1.10921   1
 -25  13   1 65.2468 2.95106   1
 -22  13   1 9.76468 1.35388   1
 -19  13   1 31.7818 1.68395   1
 -16  13   1 532.810 12.9134   1
 -13  13   1 2231.09 54.8574   1
 -10  13   1 15.2837 1.30634   1
  -7  13   1 4.24366 0.91642   1
  -4  13   1 7.13996 0.80180   1
  -1  13   1 1240.67 33.4439   1
   2  13   1 1945.58 50.4123   1
   5  13   1 2199.20 62.0887   1
   8  13   1 96.2710 3.28191   1
  11  13   1 40.9045 2.18858   1
 -27  14   1 64.4043 4.98836   1
 -24  14   1 19.3691 1.55430   1
 -21  14   1 24.9525 1.48836   1
 -18  14   1 24.0275 1.51068   1
 -15  14   1 2230.99 61.2829   1
 -12  14   1 1249.49 30.8750   1
  -9  14   1 41.3787 1.73859   1
  -6  14   1 16.4086 1.18497   1
  -3  14   1 115.777 4.05942   1
   0  14   1 192.202 5.78921   1
   3  14   1 84.0770 3.40231   1
   6  14   1 13.3421 1.60803   1
   9  14   1 60.9809 2.49650   1
  12  14   1 146.920 6.34852   1
 -29  15   1 848.742 35.1906   1
 -26  15   1 347.160 15.0492   1
 -23  15   1 6.50753 1.30529   1
 -20  15   1 24.2705 1.54887   1
 -17  15   1 42.8455 1.99469   1
 -14  15   1 347.967 9.92465   1
 -11  15   1 284.443 7.59759   1
  -8  15   1 65.5371 2.30868   1
  -5  15   1 1.96443 0.76242   1
  -2  15   1 509.961 13.7180   1
   1  15   1 824.795 21.6926   1
   4  15   1 1001.80 29.4719   1
   7  15   1 48.3937 2.63328   1
  10  15   1 113.822 5.19025   1
  13  15   1 145.185 8.95843   1
 -31  16   1 166.008 9.12383   1
 -28  16   1 167.771 8.93042   1
 -25  16   1 11.9640 2.01732   1
 -22  16   1 409.698 11.7351   1
 -19  16   1 693.497 18.3254   1
 -16  16   1 3379.23 90.5403   1
 -13  16   1 914.670 22.7942   1
 -10  16   1 694.717 18.5392   1
  -7  16   1 261.146 6.29040   1
  -4  16   1 2.36483 1.48589   1
  -1  16   1 487.458 14.2296   1
   2  16   1 712.116 18.9720   1
   5  16   1 51.9262 2.58123   1
   8  16   1 14.3953 1.98322   1
  11  16   1 56.7562 3.63548   1
  14  16   1 293.633 13.0680   1
 -33  17   1 293.498 13.6276   1
 -30  17   1 264.681 12.2552   1
 -27  17   1 312.941 14.3756   1
 -24  17   1 245.430 10.0675   1
 -21  17   1 299.244 8.59122   1
 -18  17   1 1020.45 30.6899   1
 -15  17   1 411.867 10.4100   1
 -12  17   1 57.3178 2.37929   1
  -9  17   1 343.524 8.38529   1
  -6  17   1 722.962 17.5950   1
  -3  17   1 313.951 8.92090   1
   0  17   1 59.1370 2.88713   1
   3  17   1 7.02530 2.01622   1
   6  17   1 308.849 10.0099   1
   9  17   1 0.32322 1.96358   1
  12  17   1 458.117 20.3809   1
  15  17   1 507.430 22.7656   1
 -35  18   1 274.671 14.3155   1
 -32  18   1 789.592 33.1835   1
 -29  18   1 927.862 38.1805   1
 -26  18   1 261.017 10.2347   1
 -23  18   1 54.8075 3.00151   1
 -20  18   1 138.921 5.34901   1
 -17  18   1 999.820 26.3546   1
 -14  18   1 102.296 3.41829   1
 -11  18   1 169.161 4.72762   1
  -8  18   1 29.0812 1.54313   1
  -5  18   1 514.498 14.6775   1
  -2  18   1 486.708 13.3378   1
   1  18   1 176.523 5.83810   1
   4  18   1 421.691 13.9929   1
   7  18   1 180.053 7.15351   1
  10  18   1 6.36727 2.75943   1
  13  18   1 61.5872 4.90329   1
  16  18   1 47.6329 5.59139   1
 -34  19   1 37.7625 4.67643   1
 -31  19   1 125.712 8.11892   1
 -28  19   1 35.1806 3.96222   1
 -25  19   1 133.410 6.11264   1
 -22  19   1 1301.77 38.6730   1
 -19  19   1 2242.02 60.9710   1
 -16  19   1 2059.03 51.2192   1
 -13  19   1 36.6679 1.74655   1
 -10  19   1 1091.33 27.2222   1
  -7  19   1 407.179 9.91382   1
  -4  19   1 410.673 12.0301   1
  -1  19   1 3.42621 1.79997   1
   2  19   1 48.8226 2.49141   1
   5  19   1 4.18352 1.91744   1
   8  19   1 5.50165 2.06630   1
  11  19   1 125.852 8.29634   1
  14  19   1 55.2824 5.91143   1
 -33  20   1 325.377 14.6898   1
 -30  20   1 409.996 18.5751   1
 -27  20   1 415.654 16.0996   1
 -24  20   1 442.433 13.7627   1
 -21  20   1 1007.47 27.8590   1
 -18  20   1 229.649 7.46107   1
 -15  20   1 255.460 7.35639   1
 -12  20   1 311.903 7.87287   1
  -9  20   1 2654.57 60.6715   1
  -6  20   1 2607.53 70.7885   1
  -3  20   1 1308.69 35.9287   1
   0  20   1 1.37595 1.65754   1
   3  20   1 663.682 20.3029   1
   6  20   1 501.211 17.5970   1
   9  20   1 4.82174 2.72960   1
  12  20   1 108.646 8.14912   1
  15  20   1 64.6232 6.09378   1
 -35  21   1 271.097 12.7656   1
 -32  21   1 1030.09 39.2923   1
 -29  21   1 650.267 25.5078   1
 -26  21   1 122.430 5.87681   1
 -23  21   1 14.9274 2.02039   1
 -20  21   1 581.037 16.5403   1
 -17  21   1 513.561 15.0716   1
 -14  21   1 147.542 4.28629   1
 -11  21   1 121.244 3.65361   1
  -8  21   1 567.547 14.1791   1
  -5  21   1 382.455 11.3776   1
  -2  21   1 112.384 4.13527   1
   1  21   1 537.607 19.0594   1
   4  21   1 498.687 17.5807   1
   7  21   1 298.145 11.2351   1
  10  21   1 15.1897 4.06416   1
  13  21   1 30.7295 4.51910   1
 -34  22   1 214.281 11.1554   1
 -31  22   1 176.239 9.71357   1
 -28  22   1 9.05996 2.93103   1
 -25  22   1 144.571 6.47459   1
 -22  22   1 1157.54 34.5611   1
 -19  22   1 1283.54 35.2577   1
 -16  22   1 312.520 8.65834   1
 -13  22   1 2.33168 1.40723   1
 -10  22   1 1606.43 36.9126   1
  -7  22   1 491.116 14.2282   1
  -4  22   1 238.445 7.58711   1
  -1  22   1 15.7451 1.93356   1
   2  22   1 14.4204 2.36638   1
   5  22   1 0.79063 2.45731   1
   8  22   1 12.7400 4.05611   1
  11  22   1 16.0060 4.34956   1
 -33  23   1 38.0787 4.60818   1
 -30  23   1 3.46432 3.09324   1
 -27  23   1 -5.0845 2.67861   1
 -24  23   1 98.5466 4.87666   1
 -21  23   1 5.91833 1.82786   1
 -18  23   1 76.7216 3.35454   1
 -15  23   1 22.1012 1.65943   1
 -12  23   1 1050.80 25.5132   1
  -9  23   1 2229.47 59.9372   1
  -6  23   1 1090.85 36.3252   1
  -3  23   1 283.370 9.31467   1
   0  23   1 732.239 28.0966   1
   3  23   1 800.348 32.9696   1
   6  23   1 703.013 26.4068   1
   9  23   1 362.793 17.3086   1
  12  23   1 111.546 8.21418   1
 -32  24   1 84.2213 6.49617   1
 -29  24   1 37.5165 3.62550   1
 -26  24   1 65.5300 4.54560   1
 -23  24   1 247.150 9.31314   1
 -20  24   1 285.685 10.3956   1
 -17  24   1 51.5668 2.89290   1
 -14  24   1 154.664 5.12766   1
 -11  24   1 210.613 6.21186   1
  -8  24   1 223.118 8.26913   1
  -5  24   1 170.847 6.28272   1
  -2  24   1 350.732 12.0538   1
   1  24   1 1512.03 72.2256   1
   4  24   1 1692.44 67.9112   1
   7  24   1 1092.59 45.0019   1
  10  24   1 233.826 12.3530   1
 -34  25   1 78.5142 6.16940   1
 -31  25   1 32.6514 3.84190   1
 -28  25   1 4.19897 2.95333   1
 -25  25   1 23.1535 3.03601   1
 -22  25   1 207.198 8.26003   1
 -19  25   1 183.012 6.57191   1
 -16  25   1 41.9116 2.58873   1
 -13  25   1 161.455 5.34534   1
 -10  25   1 761.698 25.8391   1
  -7  25   1 242.958 9.71623   1
  -4  25   1 457.196 16.1931   1
  -1  25   1 138.577 6.97187   1
   2  25   1 160.671 7.72143   1
   5  25   1 394.306 15.8520   1
   8  25   1 5.60267 4.40988   1
 -33  26   1 165.585 9.38717   1
 -30  26   1 239.030 10.4296   1
 -27  26   1 124.638 6.63006   1
 -24  26   1 1.05010 2.91421   1
 -21  26   1 124.024 4.83923   1
 -18  26   1 83.0738 4.02981   1
 -15  26   1 53.9682 3.60181   1
 -12  26   1 706.035 22.6347   1
  -9  26   1 904.044 30.5007   1
  -6  26   1 343.053 12.8866   1
  -3  26   1 7.60978 3.06082   1
   0  26   1 412.792 16.2551   1
   3  26   1 292.426 12.4676   1
   6  26   1 122.325 7.33519   1
 -32  27   1 115.521 9.01730   1
 -29  27   1 174.995 8.42397   1
 -26  27   1 12.1497 3.00010   1
 -23  27   1 1.11150 2.30086   1
 -20  27   1 64.6331 3.53341   1
 -17  27   1 25.7541 2.61403   1
 -14  27   1 44.3178 4.09150   1
 -11  27   1 1.69127 2.53379   1
  -8  27   1 33.5596 2.61270   1
  -5  27   1 24.3554 2.31858   1
  -2  27   1 166.164 7.88071   1
   1  27   1 703.500 29.4620   1
   4  27   1 628.701 26.8415   1
 -31  28   1 42.6716 3.95702   1
 -28  28   1 3.58804 3.07325   1
 -25  28   1 5.97536 3.03041   1
 -22  28   1 -1.0916 2.51300   1
 -19  28   1 4.17772 2.32573   1
 -16  28   1 337.271 12.6993   1
 -13  28   1 228.279 9.58904   1
 -10  28   1 75.4879 4.73251   1
  -7  28   1 -1.6700 2.54073   1
  -4  28   1 1.53371 3.00285   1
  -1  28   1 2.86790 3.09566   1
   2  28   1 109.532 7.72455   1
   5  28   1 76.7404 5.36894   1
 -30  29   1 407.737 17.6708   1
 -27  29   1 144.212 7.84597   1
 -24  29   1 21.7075 3.23175   1
 -21  29   1 46.7967 3.89585   1
 -18  29   1 28.8249 4.14009   1
 -15  29   1 4.16025 3.19884   1
 -12  29   1 11.2552 3.37642   1
  -9  29   1 33.3934 3.11901   1
  -6  29   1 17.7900 3.50772   1
  -3  29   1 35.6550 3.67068   1
   0  29   1 183.612 8.72176   1
   3  29   1 57.7700 5.45184   1
 -29  30   1 180.770 9.83753   1
 -26  30   1 6.49346 3.33126   1
 -23  30   1 367.919 16.8062   1
 -20  30   1 215.590 10.5475   1
 -17  30   1 605.492 24.1514   1
 -14  30   1 72.9217 5.69341   1
 -11  30   1 72.9036 6.08828   1
  -8  30   1 104.751 5.76260   1
  -5  30   1 16.4477 3.37930   1
  -2  30   1 8.44352 3.34452   1
   1  30   1 230.962 12.4925   1
 -28  31   1 22.7204 3.73676   1
 -25  31   1 68.0639 4.93985   1
 -22  31   1 76.8188 5.86185   1
 -19  31   1 162.620 9.13377   1
 -16  31   1 194.011 10.3489   1
 -13  31   1 27.6276 4.32477   1
 -10  31   1 128.142 8.05823   1
  -7  31   1 204.702 10.6479   1
  -4  31   1 79.1934 6.68413   1
  -1  31   1 4.10724 3.45581   1
 -27  32   1 -1.0501 3.32721   1
 -24  32   1 252.924 11.6196   1
 -21  32   1 101.042 6.76086   1
 -18  32   1 133.492 8.41539   1
 -15  32   1 39.0139 4.56474   1
 -12  32   1 17.3526 4.07052   1
  -9  32   1 26.4749 4.90615   1
  -6  32   1 89.1697 7.26402   1
  -3  32   1 38.0185 4.43498   1
 -26  33   1 303.423 16.1293   1
 -23  33   1 553.822 24.3979   1
 -20  33   1 869.368 33.8933   1
 -17  33   1 470.065 19.7341   1
 -14  33   1 9.99126 4.20606   1
 -11  33   1 72.6577 6.42019   1
  -8  33   1 74.2360 7.77692   1
  -5  33   1 13.9987 4.19004   1
 -25  34   1 100.586 7.14851   1
 -22  34   1 345.554 15.6266   1
 -19  34   1 345.312 18.8657   1
 -16  34   1 34.4499 4.72779   1
 -13  34   1 113.047 8.31949   1
 -10  34   1 369.467 20.4718   1
 -21  35   1 81.8777 6.68378   1
 -18  35   1 52.8556 5.75996   1
 -15  35   1 41.6279 5.03030   1
 -12  35   1 8.21038 4.73558   1
   0   1   2 5.70017 0.77536   1
  -2   2   2 334.977 9.35364   1
   1   2   2 494.130 12.4864   1
  -4   3   2 114.700 3.30136   1
  -1   3   2 35.9893 1.29194   1
   2   3   2 1190.70 33.0372   1
  -6   4   2 2149.88 58.8784   1
  -3   4   2 40.3938 1.48842   1
   0   4   2 187.653 5.35358   1
   3   4   2 2663.19 82.3541   1
  -8   5   2 1863.09 54.3665   1
  -5   5   2 5.06589 0.71860   1
  -2   5   2 1046.72 28.3426   1
 -10   6   2 1892.60 49.1245   1
  -7   6   2 692.561 19.6182   1
  -4   6   2 10.0125 0.79091   1
  -1   6   2 272.515 7.33421   1
   2   6   2 2519.94 77.0468   1
   5   6   2 148.670 4.45214   1
 -12   7   2 2033.24 58.7653   1
  -9   7   2 4681.29 244.158   1
  -6   7   2 630.300 16.8751   1
  -3   7   2 131.837 3.82611   1
   0   7   2 2071.33 65.2923   1
   3   7   2 3976.43 131.394   1
   6   7   2 1980.23 53.8732   1
 -14   8   2 4.03978 0.92628   1
 -11   8   2 514.337 13.3750   1
  -8   8   2 2544.08 72.3015   1
  -5   8   2 144.676 4.13824   1
  -2   8   2 600.599 15.6814   1
   1   8   2 9999.99 978.957   1
   4   8   2 2721.80 73.8447   1
   7   8   2 474.813 12.8985   1
 -16   9   2 68.5572 2.76471   1
 -13   9   2 290.680 7.55003   1
 -10   9   2 207.851 6.08941   1
  -7   9   2 254.419 7.27533   1
  -4   9   2 163.007 4.33476   1
  -1   9   2 222.968 6.68312   1
   2   9   2 737.487 21.3785   1
   5   9   2 42.2425 1.81300   1
   8   9   2 46.1037 2.09258   1
 -18  10   2 470.967 12.2629   1
 -15  10   2 3.03456 0.93064   1
 -12  10   2 416.808 11.0358   1
  -9  10   2 1166.55 28.6199   1
  -6  10   2 51.6401 2.04607   1
  -3  10   2 494.307 12.9354   1
   0  10   2 1595.86 41.6478   1
   3  10   2 788.266 21.7130   1
   6  10   2 17.6404 1.21989   1
   9  10   2 6.48014 1.19580   1
 -20  11   2 1039.05 27.4136   1
 -17  11   2 615.288 15.4634   1
 -14  11   2 13.4056 1.12455   1
 -11  11   2 112.286 3.48048   1
  -8  11   2 1374.40 35.6291   1
  -5  11   2 10.2772 0.91930   1
  -2  11   2 1366.95 36.8809   1
   1  11   2 988.342 28.0133   1
   4  11   2 823.646 22.7729   1
   7  11   2 26.6123 1.55173   1
  10  11   2 243.415 7.14544   1
 -22  12   2 63.4110 2.79253   1
 -19  12   2 190.684 5.61028   1
 -16  12   2 3.92630 1.15913   1
 -13  12   2 89.3730 3.02045   1
 -10  12   2 347.843 9.77197   1
  -7  12   2 889.080 23.4194   1
  -4  12   2 26.1819 1.29016   1
  -1  12   2 15.7978 1.13801   1
   2  12   2 773.307 20.1743   1
   5  12   2 761.400 20.1483   1
   8  12   2 19.1953 1.45234   1
  11  12   2 340.737 10.1885   1
 -24  13   2 312.727 12.0494   1
 -21  13   2 859.211 22.7636   1
 -18  13   2 570.878 14.3980   1
 -15  13   2 3.48702 1.16802   1
 -12  13   2 8.09956 1.16756   1
  -9  13   2 3.85051 1.04610   1
  -6  13   2 32.0563 1.63165   1
  -3  13   2 35.5167 1.52347   1
   0  13   2 73.1940 2.60954   1
   3  13   2 638.655 18.0241   1
   6  13   2 332.374 9.81032   1
   9  13   2 15.1174 1.31868   1
  12  13   2 47.4304 2.89571   1
 -26  14   2 670.242 24.9842   1
 -23  14   2 2226.38 60.7994   1
 -20  14   2 1554.93 40.6707   1
 -17  14   2 223.292 6.85706   1
 -14  14   2 3.07741 1.13967   1
 -11  14   2 1173.32 29.0598   1
  -8  14   2 1813.50 48.4239   1
  -5  14   2 586.282 16.3181   1
  -2  14   2 629.218 16.8548   1
   1  14   2 5.01253 0.93592   1
   4  14   2 52.1395 2.89960   1
   7  14   2 399.386 12.4155   1
  10  14   2 81.0180 4.73501   1
  13  14   2 105.193 6.31446   1
 -28  15   2 31.8303 4.09907   1
 -25  15   2 144.698 6.45901   1
 -22  15   2 248.930 7.70728   1
 -19  15   2 7.91462 1.33655   1
 -16  15   2 1.04107 1.19300   1
 -13  15   2 1212.65 32.7988   1
 -10  15   2 2679.86 65.0405   1
  -7  15   2 2534.38 61.5329   1
  -4  15   2 338.430 7.71307   1
  -1  15   2 96.6690 3.06738   1
   2  15   2 688.552 19.0671   1
   5  15   2 8.30965 1.91897   1
   8  15   2 19.6354 1.98958   1
  11  15   2 16.2242 2.15068   1
  14  15   2 11.5257 3.67302   1
 -30  16   2 12.2353 3.92426   1
 -27  16   2 434.448 19.2085   1
 -24  16   2 887.364 36.1872   1
 -21  16   2 512.029 14.7790   1
 -18  16   2 33.3231 1.73955   1
 -15  16   2 63.8937 2.77339   1
 -12  16   2 250.292 6.60670   1
  -9  16   2 195.088 4.85882   1
  -6  16   2 138.008 3.87082   1
  -3  16   2 150.018 4.33626   1
   0  16   2 409.572 11.7026   1
   3  16   2 691.303 20.7313   1
   6  16   2 716.745 21.4430   1
   9  16   2 11.1680 2.07422   1
  12  16   2 4.24824 2.73692   1
  15  16   2 -0.6192 3.88157   1
 -32  17   2 94.7979 7.22457   1
 -29  17   2 200.087 10.4161   1
 -26  17   2 1017.93 41.4113   1
 -23  17   2 1054.25 36.4014   1
 -20  17   2 16.2855 1.38717   1
 -17  17   2 6.85061 1.31868   1
 -14  17   2 692.700 17.6767   1
 -11  17   2 1402.18 31.1796   1
  -8  17   2 1048.39 23.9896   1
  -5  17   2 641.751 14.6600   1
  -2  17   2 419.525 11.3855   1
   1  17   2 81.0663 3.42335   1
   4  17   2 403.744 12.5798   1
   7  17   2 75.7894 4.51949   1
  10  17   2 107.807 5.23401   1
  13  17   2 133.022 8.56499   1
  16  17   2 204.821 11.6653   1
 -34  18   2 32.3650 4.64257   1
 -31  18   2 42.2581 4.66702   1
 -28  18   2 0.69390 3.48433   1
 -25  18   2 77.9835 4.38980   1
 -22  18   2 72.0043 2.99289   1
 -19  18   2 80.1086 2.96255   1
 -16  18   2 198.467 5.95450   1
 -13  18   2 2607.70 66.0103   1
 -10  18   2 2771.13 61.6983   1
  -7  18   2 1170.45 27.7019   1
  -4  18   2 6.23144 1.11119   1
  -1  18   2 246.434 7.36096   1
   2  18   2 272.419 9.58810   1
   5  18   2 325.647 10.6971   1
   8  18   2 42.0180 3.19245   1
  11  18   2 164.082 7.94315   1
  14  18   2 109.520 8.57894   1
  17  18   2 26.8148 4.52439   1
 -33  19   2 40.6848 4.81403   1
 -30  19   2 198.127 10.8197   1
 -27  19   2 550.146 20.8735   1
 -24  19   2 93.5696 4.51215   1
 -21  19   2 93.6393 3.35921   1
 -18  19   2 25.7610 1.75240   1
 -15  19   2 39.6782 1.96888   1
 -12  19   2 491.880 11.0890   1
  -9  19   2 84.0505 3.03326   1
  -6  19   2 99.3902 3.23741   1
  -3  19   2 818.014 20.7739   1
   0  19   2 687.570 21.8621   1
   3  19   2 1264.08 40.5241   1
   6  19   2 251.872 9.10813   1
   9  19   2 88.5799 5.82289   1
  12  19   2 47.6712 4.71997   1
  15  19   2 69.0215 5.96449   1
 -32  20   2 105.811 7.39273   1
 -29  20   2 145.784 8.08326   1
 -26  20   2 420.103 15.1202   1
 -23  20   2 89.0708 4.65952   1
 -20  20   2 103.142 3.40640   1
 -17  20   2 184.459 5.16632   1
 -14  20   2 860.299 20.1056   1
 -11  20   2 1275.92 28.7165   1
  -8  20   2 233.720 6.07223   1
  -5  20   2 35.7667 2.24035   1
  -2  20   2 18.8970 1.83437   1
   1  20   2 147.293 5.61657   1
   4  20   2 21.6821 2.33471   1
   7  20   2 30.1912 3.19229   1
  10  20   2 860.272 31.8203   1
  13  20   2 332.589 16.1418   1
 -34  21   2 116.540 6.87837   1
 -31  21   2 307.410 14.7343   1
 -28  21   2 29.6226 3.35355   1
 -25  21   2 25.1340 2.49709   1
 -22  21   2 521.660 16.7904   1
 -19  21   2 45.6730 2.26239   1
 -16  21   2 944.869 25.4786   1
 -13  21   2 1827.76 39.6256   1
 -10  21   2 1042.50 23.7486   1
  -7  21   2 4.13330 1.11119   1
  -4  21   2 366.024 10.3493   1
  -1  21   2 78.9154 3.95058   1
   2  21   2 614.177 20.0980   1
   5  21   2 198.274 9.25406   1
   8  21   2 63.7279 5.01339   1
  11  21   2 429.990 19.7934   1
 -33  22   2 7.69354 4.07261   1
 -30  22   2 365.408 15.5890   1
 -27  22   2 172.933 7.78797   1
 -24  22   2 108.348 4.81566   1
 -21  22   2 19.8259 2.01378   1
 -18  22   2 29.2443 1.89386   1
 -15  22   2 84.3405 2.97500   1
 -12  22   2 453.162 10.7588   1
  -9  22   2 227.262 6.23639   1
  -6  22   2 2.04019 1.67406   1
  -3  22   2 147.255 4.93960   1
   0  22   2 909.287 33.6696   1
   3  22   2 550.573 20.9238   1
   6  22   2 9.62581 2.99198   1
   9  22   2 211.621 10.1280   1
  12  22   2 94.0895 7.17184   1
 -32  23   2 250.805 11.9680   1
 -29  23   2 16.2053 3.59878   1
 -26  23   2 -1.8028 2.84204   1
 -23  23   2 169.111 7.59941   1
 -20  23   2 3.45877 2.01687   1
 -17  23   2 92.2515 3.28453   1
 -14  23   2 48.2134 2.28000   1
 -11  23   2 20.3715 1.59820   1
  -8  23   2 144.756 4.59015   1
  -5  23   2 60.5696 3.54872   1
  -2  23   2 586.757 20.4065   1
   1  23   2 63.1628 4.46026   1
   4  23   2 6.93902 2.94687   1
   7  23   2 153.881 8.04507   1
  10  23   2 616.617 26.8212   1
 -34  24   2 490.526 21.6478   1
 -31  24   2 486.555 21.2239   1
 -28  24   2 4.55260 2.94171   1
 -25  24   2 804.906 27.8710   1
 -22  24   2 758.943 22.4901   1
 -19  24   2 31.6322 2.52275   1
 -16  24   2 8.80874 1.67804   1
 -13  24   2 145.927 5.07306   1
 -10  24   2 22.1723 2.04948   1
  -7  24   2 90.5180 4.43186   1
  -4  24   2 6.24912 2.26773   1
  -1  24   2 139.473 7.42790   1
   2  24   2 124.931 6.78840   1
   5  24   2 5.56659 3.16197   1
   8  24   2 9.76480 3.44486   1
 -33  25   2 7.08628 3.99419   1
 -30  25   2 15.1186 3.27410   1
 -27  25   2 431.629 15.9776   1
 -24  25   2 514.462 18.4698   1
 -21  25   2 583.732 19.2987   1
 -18  25   2 17.6181 2.22320   1
 -15  25   2 12.9961 1.88233   1
 -12  25   2 457.972 12.9832   1
  -9  25   2 115.784 5.60605   1
  -6  25   2 -0.8826 2.01190   1
  -3  25   2 434.615 19.0756   1
   0  25   2 322.305 15.0566   1
   3  25   2 -2.8569 3.04196   1
   6  25   2 175.496 8.95023   1
 -32  26   2 447.920 18.5988   1
 -29  26   2 50.4296 4.07665   1
 -26  26   2 17.5724 3.03613   1
 -23  26   2 5.38102 3.73753   1
 -20  26   2 12.8436 2.14284   1
 -17  26   2 -1.2316 1.96721   1
 -14  26   2 155.571 7.09162   1
 -11  26   2 504.479 16.4580   1
  -8  26   2 387.279 12.7933   1
  -5  26   2 27.5408 3.16381   1
  -2  26   2 92.6912 5.79613   1
   1  26   2 19.8445 3.47463   1
   4  26   2 1.57391 3.23826   1
   7  26   2 83.2152 6.42460   1
 -31  27   2 166.349 8.08071   1
 -28  27   2 385.238 14.7666   1
 -25  27   2 574.993 24.8676   1
 -22  27   2 552.520 18.4832   1
 -19  27   2 237.436 8.56503   1
 -16  27   2 81.7666 5.63386   1
 -13  27   2 100.237 5.43038   1
 -10  27   2 12.9726 2.53608   1
  -7  27   2 7.30675 2.60641   1
  -4  27   2 -0.3993 3.01992   1
  -1  27   2 19.6891 3.46427   1
   2  27   2 55.1591 5.05980   1
   5  27   2 63.9432 5.80164   1
 -30  28   2 94.7028 5.69060   1
 -27  28   2 407.128 17.4476   1
 -24  28   2 773.230 26.9535   1
 -21  28   2 754.027 27.7240   1
 -18  28   2 83.2470 5.09340   1
 -15  28   2 101.228 6.70561   1
 -12  28   2 490.820 18.4267   1
  -9  28   2 731.433 26.7170   1
  -6  28   2 3.30448 3.24896   1
  -3  28   2 0.83773 3.23203   1
   0  28   2 12.7914 3.40357   1
   3  28   2 51.5892 4.55817   1
 -29  29   2 12.0887 3.74338   1
 -26  29   2 45.2375 3.84436   1
 -23  29   2 57.9461 4.15398   1
 -20  29   2 5.84534 3.18945   1
 -17  29   2 199.655 8.71858   1
 -14  29   2 895.927 32.1696   1
 -11  29   2 873.518 31.3663   1
  -8  29   2 53.7655 5.80908   1
  -5  29   2 4.75531 3.34845   1
  -2  29   2 57.9637 5.06876   1
   1  29   2 70.8591 5.70486   1
 -28  30   2 197.030 8.71458   1
 -25  30   2 248.053 9.95347   1
 -22  30   2 410.291 14.9601   1
 -19  30   2 191.892 8.59197   1
 -16  30   2 88.6456 5.92882   1
 -13  30   2 101.242 6.39308   1
 -10  30   2 35.2163 4.27753   1
  -7  30   2 0.33701 3.27553   1
  -4  30   2 84.4117 6.20298   1
  -1  30   2 335.102 15.9227   1
 -27  31   2 299.190 11.9785   1
 -24  31   2 368.588 15.2815   1
 -21  31   2 177.766 8.40345   1
 -18  31   2 52.3371 4.33330   1
 -15  31   2 173.356 8.56509   1
 -12  31   2 429.263 16.6410   1
  -9  31   2 106.061 6.76411   1
  -6  31   2 36.7682 4.34411   1
  -3  31   2 137.030 7.95870   1
 -26  32   2 41.3056 5.46727   1
 -23  32   2 4.62718 4.21654   1
 -20  32   2 6.33780 4.06477   1
 -17  32   2 262.802 11.6281   1
 -14  32   2 513.441 19.2740   1
 -11  32   2 103.364 7.57111   1
  -8  32   2 30.2425 3.91107   1
  -5  32   2 15.6113 3.58927   1
 -25  33   2 44.1487 5.41858   1
 -22  33   2 29.7669 4.57124   1
 -19  33   2 -0.9399 4.28751   1
 -16  33   2 31.9949 4.64033   1
 -13  33   2 -0.8213 4.77638   1
 -10  33   2 -0.3596 3.87302   1
  -7  33   2 99.2827 6.85987   1
 -24  34   2 18.7034 4.73493   1
 -21  34   2 1.41303 4.34693   1
 -18  34   2 103.254 7.86520   1
 -15  34   2 262.500 13.4328   1
 -12  34   2 20.2373 5.06805   1
 -17  35   2 197.234 11.3333   1
   0   0   3 105.894 8.06714  -2
   0   0   3 105.894 8.06714   1
   1   1   3 198.626 5.67990  -2
   1   1   3 198.626 5.67990   1
  -1   2   3 1687.76 42.7363  -2
  -1   2   3 1687.76 42.7363   1
   2   2   3 3962.69 112.438  -2
   2   2   3 3962.69 112.438   1
   0   3   3 2440.63 60.9241  -2
  -3   3   3 2440.63 60.9241   1
  -3   3   3 2366.98 56.8023  -2
   0   3   3 2366.98 56.8023   1
   3   3   3 1620.26 45.6287  -2
   3   3   3 1620.26 45.6287   1
   1   4   3 236.915 6.76924  -2
  -5   4   3 236.915 6.76924   1
  -2   4   3 8.40881 1.04625  -2
  -2   4   3 8.40881 1.04625   1
  -5   4   3 231.532 6.73241  -2
   1   4   3 231.532 6.73241   1
   4   4   3 324.004 8.96722  -2
   4   4   3 324.004 8.96722   1
   2   5   3 1203.51 34.0291  -2
  -7   5   3 1203.51 34.0291   1
  -1   5   3 1542.02 41.3706  -2
  -4   5   3 1542.02 41.3706   1
  -4   5   3 1385.53 42.9829  -2
  -1   5   3 1385.53 42.9829   1
  -7   5   3 1109.15 31.9967  -2
   2   5   3 1109.15 31.9967   1
   5   5   3 210.805 6.30027  -2
   5   5   3 210.805 6.30027   1
   3   6   3 40.4427 1.87360  -2
  -9   6   3 40.4427 1.87360   1
   0   6   3 37.0625 1.59114  -2
  -6   6   3 37.0625 1.59114   1
  -3   6   3 1293.35 33.4803  -2
  -3   6   3 1293.35 33.4803   1
  -6   6   3 45.5365 1.75821  -2
   0   6   3 45.5365 1.75821   1
  -9   6   3 32.4698 1.55934  -2
   3   6   3 32.4698 1.55934   1
   6   6   3 604.237 16.0185  -2
   6   6   3 604.237 16.0185   1
   4   7   3 1244.60 34.0236  -2
 -11   7   3 1244.60 34.0236   1
   1   7   3 1516.54 42.8279  -2
  -8   7   3 1516.54 42.8279   1
  -2   7   3 404.337 12.6354  -2
  -5   7   3 404.337 12.6354   1
  -5   7   3 451.700 12.0408  -2
  -2   7   3 451.700 12.0408   1
  -8   7   3 1495.19 39.0262  -2
   1   7   3 1495.19 39.0262   1
 -11   7   3 1162.80 35.8759  -2
   4   7   3 1162.80 35.8759   1
   7   7   3 1117.19 29.2713  -2
   7   7   3 1117.19 29.2713   1
   5   8   3 47.5680 2.17299  -2
 -13   8   3 47.5680 2.17299   1
   2   8   3 385.023 10.6580  -2
 -10   8   3 385.023 10.6580   1
  -1   8   3 968.591 25.8487  -2
  -7   8   3 968.591 25.8487   1
  -4   8   3 95.8850 3.16928  -2
  -4   8   3 95.8850 3.16928   1
  -7   8   3 1106.19 30.3839  -2
  -1   8   3 1106.19 30.3839   1
 -10   8   3 393.553 11.7880  -2
   2   8   3 393.553 11.7880   1
 -13   8   3 52.7449 2.31328  -2
   5   8   3 52.7449 2.31328   1
   8   8   3 106.581 3.68257  -2
   8   8   3 106.581 3.68257   1
   6   9   3 1481.63 38.6814  -2
 -15   9   3 1481.63 38.6814   1
   3   9   3 1172.92 28.8232  -2
 -12   9   3 1172.92 28.8232   1
   0   9   3 877.108 22.6896  -2
  -9   9   3 877.108 22.6896   1
  -3   9   3 24.1297 1.40658  -2
  -6   9   3 24.1297 1.40658   1
  -6   9   3 24.8651 1.50084  -2
  -3   9   3 24.8651 1.50084   1
  -9   9   3 806.233 20.3438  -2
   0   9   3 806.233 20.3438   1
 -12   9   3 1058.59 28.9598  -2
   3   9   3 1058.59 28.9598   1
 -15   9   3 1385.14 36.1847  -2
   6   9   3 1385.14 36.1847   1
   9   9   3 184.399 5.73385  -2
   9   9   3 184.399 5.73385   1
   7  10   3 1542.61 42.2011  -2
 -17  10   3 1542.61 42.2011   1
   4  10   3 1377.31 36.0262  -2
 -14  10   3 1377.31 36.0262   1
   1  10   3 2401.89 61.0495  -2
 -11  10   3 2401.89 61.0495   1
  -2  10   3 2581.60 73.4198  -2
  -8  10   3 2581.60 73.4198   1
  -5  10   3 1153.53 32.9943  -2
  -5  10   3 1153.53 32.9943   1
  -8  10   3 3164.54 78.9488  -2
  -2  10   3 3164.54 78.9488   1
 -11  10   3 2413.76 62.9035  -2
   1  10   3 2413.76 62.9035   1
 -14  10   3 1305.20 35.6458  -2
   4  10   3 1305.20 35.6458   1
 -17  10   3 1298.24 36.4219  -2
   7  10   3 1298.24 36.4219   1
  10  10   3 111.875 3.83248  -2
  10  10   3 111.875 3.83248   1
   8  11   3 370.096 10.3691  -2
 -19  11   3 370.096 10.3691   1
   5  11   3 341.707 10.0529  -2
 -16  11   3 341.707 10.0529   1
   2  11   3 722.432 18.0077  -2
 -13  11   3 722.432 18.0077   1
  -1  11   3 2446.36 62.6995  -2
 -10  11   3 2446.36 62.6995   1
  -4  11   3 2722.50 76.1381  -2
  -7  11   3 2722.50 76.1381   1
  -7  11   3 3202.73 87.3568  -2
  -4  11   3 3202.73 87.3568   1
 -10  11   3 2853.20 83.2734  -2
  -1  11   3 2853.20 83.2734   1
 -13  11   3 845.792 23.6436  -2
   2  11   3 845.792 23.6436   1
 -16  11   3 315.654 9.30098  -2
   5  11   3 315.654 9.30098   1
 -19  11   3 377.225 10.9598  -2
   8  11   3 377.225 10.9598   1
  11  11   3 1806.51 49.4043  -2
  11  11   3 1806.51 49.4043   1
   9  12   3 641.005 18.0796  -2
 -21  12   3 641.005 18.0796   1
   6  12   3 99.0210 3.87665  -2
 -18  12   3 99.0210 3.87665   1
   3  12   3 334.048 9.22264  -2
 -15  12   3 334.048 9.22264   1
   0  12   3 1298.59 33.4975  -2
 -12  12   3 1298.59 33.4975   1
  -3  12   3 929.748 23.7262  -2
  -9  12   3 929.748 23.7262   1
  -6  12   3 1209.34 34.6163  -2
  -6  12   3 1209.34 34.6163   1
  -9  12   3 777.100 21.3412  -2
  -3  12   3 777.100 21.3412   1
 -12  12   3 1252.64 30.0484  -2
   0  12   3 1252.64 30.0484   1
 -15  12   3 307.308 8.36970  -2
   3  12   3 307.308 8.36970   1
 -18  12   3 117.512 4.32059  -2
   6  12   3 117.512 4.32059   1
 -21  12   3 622.104 16.6837  -2
   9  12   3 622.104 16.6837   1
  12  12   3 2308.27 75.8671  -2
  12  12   3 2308.27 75.8671   1
  10  13   3 148.780 5.40566  -2
 -23  13   3 148.780 5.40566   1
   7  13   3 32.5699 1.95527  -2
 -20  13   3 32.5699 1.95527   1
   4  13   3 664.328 17.7587  -2
 -17  13   3 664.328 17.7587   1
   1  13   3 2009.72 51.6678  -2
 -14  13   3 2009.72 51.6678   1
  -2  13   3 2446.97 65.5972  -2
 -11  13   3 2446.97 65.5972   1
  -5  13   3 2051.93 50.9504  -2
  -8  13   3 2051.93 50.9504   1
  -8  13   3 2405.21 70.2410  -2
  -5  13   3 2405.21 70.2410   1
 -11  13   3 2590.05 72.4821  -2
  -2  13   3 2590.05 72.4821   1
 -14  13   3 1961.64 53.9587  -2
   1  13   3 1961.64 53.9587   1
 -17  13   3 612.074 15.8614  -2
   4  13   3 612.074 15.8614   1
 -20  13   3 25.8958 2.16608  -2
   7  13   3 25.8958 2.16608   1
 -23  13   3 153.518 6.58652  -2
  10  13   3 153.518 6.58652   1
  13  13   3 174.861 8.30935  -2
  13  13   3 174.861 8.30935   1
  11  14   3 1463.92 54.5186  -2
 -25  14   3 1463.92 54.5186   1
   8  14   3 785.025 29.5325  -2
 -22  14   3 785.025 29.5325   1
   5  14   3 79.4305 3.06783  -2
 -19  14   3 79.4305 3.06783   1
   2  14   3 153.976 4.30060  -2
 -16  14   3 153.976 4.30060   1
  -1  14   3 741.044 19.4468  -2
 -13  14   3 741.044 19.4468   1
  -4  14   3 1527.15 42.1191  -2
 -10  14   3 1527.15 42.1191   1
  -7  14   3 2736.48 77.8052  -2
  -7  14   3 2736.48 77.8052   1
 -10  14   3 1914.36 53.7316  -2
  -4  14   3 1914.36 53.7316   1
 -13  14   3 890.072 23.1937  -2
  -1  14   3 890.072 23.1937   1
 -16  14   3 170.098 5.80246  -2
   2  14   3 170.098 5.80246   1
 -19  14   3 102.052 3.71862  -2
   5  14   3 102.052 3.71862   1
 -22  14   3 998.830 40.8888  -2
   8  14   3 998.830 40.8888   1
 -25  14   3 1929.34 59.6303  -2
  11  14   3 1929.34 59.6303   1
  14  14   3 489.948 21.3714  -2
  14  14   3 489.948 21.3714   1
  12  15   3 1451.88 58.1733  -2
 -27  15   3 1451.88 58.1733   1
   9  15   3 1369.41 43.2468  -2
 -24  15   3 1369.41 43.2468   1
   6  15   3 963.895 25.4720  -2
 -21  15   3 963.895 25.4720   1
   3  15   3 540.955 15.5182  -2
 -18  15   3 540.955 15.5182   1
   0  15   3 779.569 20.4236  -2
 -15  15   3 779.569 20.4236   1
  -3  15   3 944.847 23.7174  -2
 -12  15   3 944.847 23.7174   1
  -6  15   3 523.952 12.9856  -2
  -9  15   3 523.952 12.9856   1
  -9  15   3 410.791 11.8108  -2
  -6  15   3 410.791 11.8108   1
 -12  15   3 890.220 22.6165  -2
  -3  15   3 890.220 22.6165   1
 -15  15   3 702.494 18.7857  -2
   0  15   3 702.494 18.7857   1
 -18  15   3 513.846 14.0968  -2
   3  15   3 513.846 14.0968   1
 -21  15   3 1139.81 31.7748  -2
   6  15   3 1139.81 31.7748   1
 -24  15   3 1723.97 56.9928  -2
   9  15   3 1723.97 56.9928   1
 -27  15   3 1766.34 63.1599  -2
  12  15   3 1766.34 63.1599   1
  15  15   3 49.5575 5.44893  -2
  15  15   3 49.5575 5.44893   1
  13  16   3 34.6156 4.84037  -2
 -29  16   3 34.6156 4.84037   1
  10  16   3 108.933 7.29742  -2
 -26  16   3 108.933 7.29742   1
   7  16   3 125.274 4.44782  -2
 -23  16   3 125.274 4.44782   1
   4  16   3 452.765 13.3716  -2
 -20  16   3 452.765 13.3716   1
   1  16   3 520.061 13.3739  -2
 -17  16   3 520.061 13.3739   1
  -2  16   3 841.222 21.9985  -2
 -14  16   3 841.222 21.9985   1
  -5  16   3 676.880 18.6860  -2
 -11  16   3 676.880 18.6860   1
  -8  16   3 649.387 16.6100  -2
  -8  16   3 649.387 16.6100   1
 -11  16   3 844.103 23.8281  -2
  -5  16   3 844.103 23.8281   1
 -14  16   3 809.954 21.3729  -2
  -2  16   3 809.954 21.3729   1
 -17  16   3 513.086 14.6790  -2
   1  16   3 513.086 14.6790   1
 -20  16   3 597.106 17.9794  -2
   4  16   3 597.106 17.9794   1
 -23  16   3 136.709 5.82403  -2
   7  16   3 136.709 5.82403   1
 -26  16   3 90.7224 4.64180  -2
  10  16   3 90.7224 4.64180   1
 -29  16   3 28.6168 5.11687  -2
  13  16   3 28.6168 5.11687   1
  16  16   3 29.5114 5.32223  -2
  16  16   3 29.5114 5.32223   1
  14  17   3 5.30363 4.74312  -2
 -31  17   3 5.30363 4.74312   1
  11  17   3 709.864 35.5887  -2
 -28  17   3 709.864 35.5887   1
   8  17   3 1229.53 44.4368  -2
 -25  17   3 1229.53 44.4368   1
   5  17   3 387.370 14.2543  -2
 -22  17   3 387.370 14.2543   1
   2  17   3 123.323 4.40380  -2
 -19  17   3 123.323 4.40380   1
  -1  17   3 588.834 16.0220  -2
 -16  17   3 588.834 16.0220   1
  -4  17   3 722.044 20.3640  -2
 -13  17   3 722.044 20.3640   1
  -7  17   3 632.547 16.8593  -2
 -10  17   3 632.547 16.8593   1
 -10  17   3 645.056 17.3286  -2
  -7  17   3 645.056 17.3286   1
 -13  17   3 842.527 23.5558  -2
  -4  17   3 842.527 23.5558   1
 -16  17   3 718.730 20.3006  -2
  -1  17   3 718.730 20.3006   1
 -19  17   3 111.760 4.55926  -2
   2  17   3 111.760 4.55926   1
 -22  17   3 379.524 13.5836  -2
   5  17   3 379.524 13.5836   1
 -25  17   3 1308.15 42.6446  -2
   8  17   3 1308.15 42.6446   1
 -28  17   3 894.001 32.8253  -2
  11  17   3 894.001 32.8253   1
 -31  17   3 -6.1060 4.93837  -2
  14  17   3 -6.1060 4.93837   1
  15  18   3 57.1765 6.31949  -2
 -33  18   3 57.1765 6.31949   1
  12  18   3 339.195 15.9024  -2
 -30  18   3 339.195 15.9024   1
   9  18   3 546.768 28.0981  -2
 -27  18   3 546.768 28.0981   1
   6  18   3 965.083 30.3504  -2
 -24  18   3 965.083 30.3504   1
   3  18   3 503.011 17.4035  -2
 -21  18   3 503.011 17.4035   1
   0  18   3 107.254 3.56154  -2
 -18  18   3 107.254 3.56154   1
  -3  18   3 8.91575 1.71823  -2
 -15  18   3 8.91575 1.71823   1
  -6  18   3 8.28011 1.73810  -2
 -12  18   3 8.28011 1.73810   1
  -9  18   3 436.965 11.4700  -2
  -9  18   3 436.965 11.4700   1
 -12  18   3 7.44549 1.43751  -2
  -6  18   3 7.44549 1.43751   1
 -15  18   3 10.3170 1.36850  -2
  -3  18   3 10.3170 1.36850   1
 -18  18   3 85.8996 3.90077  -2
   0  18   3 85.8996 3.90077   1
 -21  18   3 641.055 20.5440  -2
   3  18   3 641.055 20.5440   1
 -24  18   3 1140.03 38.1131  -2
   6  18   3 1140.03 38.1131   1
 -27  18   3 718.136 26.7140  -2
   9  18   3 718.136 26.7140   1
 -30  18   3 333.020 15.6259  -2
  12  18   3 333.020 15.6259   1
 -33  18   3 46.4928 6.04832  -2
  15  18   3 46.4928 6.04832   1
  13  19   3 95.3365 7.67842  -2
 -32  19   3 95.3365 7.67842   1
  10  19   3 19.4992 4.58912  -2
 -29  19   3 19.4992 4.58912   1
   7  19   3 290.022 11.3091  -2
 -26  19   3 290.022 11.3091   1
   4  19   3 62.1020 3.61549  -2
 -23  19   3 62.1020 3.61549   1
   1  19   3 72.1783 3.21552  -2
 -20  19   3 72.1783 3.21552   1
  -2  19   3 126.393 3.83663  -2
 -17  19   3 126.393 3.83663   1
  -5  19   3 172.777 5.05779  -2
 -14  19   3 172.777 5.05779   1
  -8  19   3 886.160 20.8881  -2
 -11  19   3 886.160 20.8881   1
 -11  19   3 808.431 20.6473  -2
  -8  19   3 808.431 20.6473   1
 -14  19   3 204.201 6.01311  -2
  -5  19   3 204.201 6.01311   1
 -17  19   3 111.552 4.42092  -2
  -2  19   3 111.552 4.42092   1
 -20  19   3 85.8320 4.32337  -2
   1  19   3 85.8320 4.32337   1
 -23  19   3 55.2790 3.85338  -2
   4  19   3 55.2790 3.85338   1
 -26  19   3 227.875 11.2863  -2
   7  19   3 227.875 11.2863   1
 -29  19   3 23.0720 3.36374  -2
  10  19   3 23.0720 3.36374   1
 -32  19   3 92.2942 7.80518  -2
  13  19   3 92.2942 7.80518   1
  11  20   3 206.406 11.1566  -2
 -31  20   3 206.406 11.1566   1
   8  20   3 497.237 21.8423  -2
 -28  20   3 497.237 21.8423   1
   5  20   3 913.634 28.7830  -2
 -25  20   3 913.634 28.7830   1
   2  20   3 371.106 12.5167  -2
 -22  20   3 371.106 12.5167   1
  -1  20   3 28.2325 2.17533  -2
 -19  20   3 28.2325 2.17533   1
  -4  20   3 102.759 3.86685  -2
 -16  20   3 102.759 3.86685   1
  -7  20   3 89.7562 3.02276  -2
 -13  20   3 89.7562 3.02276   1
 -10  20   3 26.1517 2.09672  -2
 -10  20   3 26.1517 2.09672   1
 -13  20   3 88.4995 3.02529  -2
  -7  20   3 88.4995 3.02529   1
 -16  20   3 94.2002 3.73603  -2
  -4  20   3 94.2002 3.73603   1
 -19  20   3 28.1382 2.80220  -2
  -1  20   3 28.1382 2.80220   1
 -22  20   3 327.300 13.0421  -2
   2  20   3 327.300 13.0421   1
 -25  20   3 903.820 33.0402  -2
   5  20   3 903.820 33.0402   1
 -28  20   3 416.554 16.4849  -2
   8  20   3 416.554 16.4849   1
 -31  20   3 176.395 10.1676  -2
  11  20   3 176.395 10.1676   1
  12  21   3 142.281 7.74327  -2
 -33  21   3 142.281 7.74327   1
   9  21   3 106.178 6.97002  -2
 -30  21   3 106.178 6.97002   1
   6  21   3 247.090 10.7282  -2
 -27  21   3 247.090 10.7282   1
   3  21   3 389.881 13.0515  -2
 -24  21   3 389.881 13.0515   1
   0  21   3 5.63238 2.50447  -2
 -21  21   3 5.63238 2.50447   1
  -3  21   3 162.931 5.54322  -2
 -18  21   3 162.931 5.54322   1
  -6  21   3 701.122 16.1857  -2
 -15  21   3 701.122 16.1857   1
  -9  21   3 1557.29 38.5296  -2
 -12  21   3 1557.29 38.5296   1
 -12  21   3 1252.71 31.4420  -2
  -9  21   3 1252.71 31.4420   1
 -15  21   3 589.820 14.0819  -2
  -6  21   3 589.820 14.0819   1
 -18  21   3 150.561 6.81566  -2
  -3  21   3 150.561 6.81566   1
 -21  21   3 7.66158 3.25739  -2
   0  21   3 7.66158 3.25739   1
 -24  21   3 376.229 14.8629  -2
   3  21   3 376.229 14.8629   1
 -27  21   3 265.681 11.4850  -2
   6  21   3 265.681 11.4850   1
 -30  21   3 74.3760 5.83039  -2
   9  21   3 74.3760 5.83039   1
 -33  21   3 106.523 8.12886  -2
  12  21   3 106.523 8.12886   1
  10  22   3 78.1604 6.56227  -2
 -32  22   3 78.1604 6.56227   1
   7  22   3 179.752 9.35557  -2
 -29  22   3 179.752 9.35557   1
   4  22   3 158.609 8.16032  -2
 -26  22   3 158.609 8.16032   1
   1  22   3 155.144 7.54642  -2
 -23  22   3 155.144 7.54642   1
  -2  22   3 222.834 9.54075  -2
 -20  22   3 222.834 9.54075   1
  -5  22   3 83.1195 3.38917  -2
 -17  22   3 83.1195 3.38917   1
  -8  22   3 338.924 9.36973  -2
 -14  22   3 338.924 9.36973   1
 -11  22   3 616.745 17.4384  -2
 -11  22   3 616.745 17.4384   1
 -14  22   3 296.523 9.13533  -2
  -8  22   3 296.523 9.13533   1
 -17  22   3 71.6059 3.81843  -2
  -5  22   3 71.6059 3.81843   1
 -20  22   3 210.487 9.23952  -2
  -2  22   3 210.487 9.23952   1
 -23  22   3 112.196 6.45963  -2
   1  22   3 112.196 6.45963   1
 -26  22   3 124.809 6.85592  -2
   4  22   3 124.809 6.85592   1
 -29  22   3 129.368 7.22609  -2
   7  22   3 129.368 7.22609   1
 -32  22   3 69.9864 6.41442  -2
  10  22   3 69.9864 6.41442   1
   8  23   3 387.142 16.0454  -2
 -31  23   3 387.142 16.0454   1
   5  23   3 501.379 18.1177  -2
 -28  23   3 501.379 18.1177   1
   2  23   3 840.321 28.8293  -2
 -25  23   3 840.321 28.8293   1
  -1  23   3 36.0311 3.67453  -2
 -22  23   3 36.0311 3.67453   1
  -4  23   3 178.645 7.20181  -2
 -19  23   3 178.645 7.20181   1
  -7  23   3 375.343 9.62359  -2
 -16  23   3 375.343 9.62359   1
 -10  23   3 539.949 14.3295  -2
 -13  23   3 539.949 14.3295   1
 -13  23   3 464.373 13.4335  -2
 -10  23   3 464.373 13.4335   1
 -16  23   3 346.799 10.8317  -2
  -7  23   3 346.799 10.8317   1
 -19  23   3 135.722 5.95166  -2
  -4  23   3 135.722 5.95166   1
 -22  23   3 38.5778 3.73112  -2
  -1  23   3 38.5778 3.73112   1
 -25  23   3 666.307 24.7111  -2
   2  23   3 666.307 24.7111   1
 -28  23   3 381.550 15.1133  -2
   5  23   3 381.550 15.1133   1
 -31  23   3 310.536 13.2238  -2
   8  23   3 310.536 13.2238   1
   6  24   3 42.5369 4.95144  -2
 -30  24   3 42.5369 4.95144   1
   3  24   3 103.625 5.78780  -2
 -27  24   3 103.625 5.78780   1
   0  24   3 136.086 7.05097  -2
 -24  24   3 136.086 7.05097   1
  -3  24   3 687.762 26.8959  -2
 -21  24   3 687.762 26.8959   1
  -6  24   3 1028.98 32.5662  -2
 -18  24   3 1028.98 32.5662   1
  -9  24   3 1129.33 27.2116  -2
 -15  24   3 1129.33 27.2116   1
 -12  24   3 968.244 29.4758  -2
 -12  24   3 968.244 29.4758   1
 -15  24   3 1016.08 28.1331  -2
  -9  24   3 1016.08 28.1331   1
 -18  24   3 926.025 29.1995  -2
  -6  24   3 926.025 29.1995   1
 -21  24   3 675.313 25.1427  -2
  -3  24   3 675.313 25.1427   1
 -24  24   3 142.339 7.44323  -2
   0  24   3 142.339 7.44323   1
 -27  24   3 75.4223 5.59068  -2
   3  24   3 75.4223 5.59068   1
 -30  24   3 43.5254 3.93460  -2
   6  24   3 43.5254 3.93460   1
   7  25   3 307.038 13.7306  -2
 -32  25   3 307.038 13.7306   1
   4  25   3 206.465 9.02077  -2
 -29  25   3 206.465 9.02077   1
   1  25   3 675.837 23.6704  -2
 -26  25   3 675.837 23.6704   1
  -2  25   3 694.201 29.6159  -2
 -23  25   3 694.201 29.6159   1
  -5  25   3 1008.63 31.5830  -2
 -20  25   3 1008.63 31.5830   1
  -8  25   3 260.023 8.75102  -2
 -17  25   3 260.023 8.75102   1
 -11  25   3 37.5873 3.28151  -2
 -14  25   3 37.5873 3.28151   1
 -14  25   3 37.4623 3.40270  -2
 -11  25   3 37.4623 3.40270   1
 -17  25   3 303.283 11.1868  -2
  -8  25   3 303.283 11.1868   1
 -20  25   3 1160.19 44.8056  -2
  -5  25   3 1160.19 44.8056   1
 -23  25   3 851.282 33.3301  -2
  -2  25   3 851.282 33.3301   1
 -26  25   3 612.422 23.0686  -2
   1  25   3 612.422 23.0686   1
 -29  25   3 164.410 8.41762  -2
   4  25   3 164.410 8.41762   1
 -32  25   3 281.570 12.2957  -2
   7  25   3 281.570 12.2957   1
   5  26   3 343.126 15.1869  -2
 -31  26   3 343.126 15.1869   1
   2  26   3 701.643 27.2611  -2
 -28  26   3 701.643 27.2611   1
  -1  26   3 202.581 9.72496  -2
 -25  26   3 202.581 9.72496   1
  -4  26   3 139.920 6.65318  -2
 -22  26   3 139.920 6.65318   1
  -7  26   3 462.306 15.0876  -2
 -19  26   3 462.306 15.0876   1
 -10  26   3 634.050 23.0488  -2
 -16  26   3 634.050 23.0488   1
 -13  26   3 518.755 19.3544  -2
 -13  26   3 518.755 19.3544   1
 -16  26   3 568.791 16.9094  -2
 -10  26   3 568.791 16.9094   1
 -19  26   3 360.129 14.3276  -2
  -7  26   3 360.129 14.3276   1
 -22  26   3 133.157 7.18526  -2
  -4  26   3 133.157 7.18526   1
 -25  26   3 164.517 8.26599  -2
  -1  26   3 164.517 8.26599   1
 -28  26   3 595.908 22.3824  -2
   2  26   3 595.908 22.3824   1
 -31  26   3 318.688 13.5275  -2
   5  26   3 318.688 13.5275   1
   3  27   3 139.611 7.55335  -2
 -30  27   3 139.611 7.55335   1
   0  27   3 163.844 7.65956  -2
 -27  27   3 163.844 7.65956   1
  -3  27   3 386.861 15.0387  -2
 -24  27   3 386.861 15.0387   1
  -6  27   3 1317.19 47.2320  -2
 -21  27   3 1317.19 47.2320   1
  -9  27   3 1003.23 35.5848  -2
 -18  27   3 1003.23 35.5848   1
 -12  27   3 773.023 27.8840  -2
 -15  27   3 773.023 27.8840   1
 -15  27   3 738.239 23.1281  -2
 -12  27   3 738.239 23.1281   1
 -18  27   3 894.724 32.7019  -2
  -9  27   3 894.724 32.7019   1
 -21  27   3 1356.93 52.2300  -2
  -6  27   3 1356.93 52.2300   1
 -24  27   3 451.682 18.7249  -2
  -3  27   3 451.682 18.7249   1
 -27  27   3 168.876 8.77329  -2
   0  27   3 168.876 8.77329   1
 -30  27   3 131.678 7.63170  -2
   3  27   3 131.678 7.63170   1
   1  28   3 213.305 9.32450  -2
 -29  28   3 213.305 9.32450   1
  -2  28   3 536.414 20.2282  -2
 -26  28   3 536.414 20.2282   1
  -5  28   3 928.227 33.7710  -2
 -23  28   3 928.227 33.7710   1
  -8  28   3 1152.01 46.4318  -2
 -20  28   3 1152.01 46.4318   1
 -11  28   3 6.25952 3.62983  -2
 -17  28   3 6.25952 3.62983   1
 -14  28   3 9.64937 3.39248  -2
 -14  28   3 9.64937 3.39248   1
 -17  28   3 3.43249 3.45972  -2
 -11  28   3 3.43249 3.45972   1
 -20  28   3 1275.79 55.9842  -2
  -8  28   3 1275.79 55.9842   1
 -23  28   3 1031.84 45.6024  -2
  -5  28   3 1031.84 45.6024   1
 -26  28   3 625.278 25.1922  -2
  -2  28   3 625.278 25.1922   1
 -29  28   3 167.263 8.82109  -2
   1  28   3 167.263 8.82109   1
  -1  29   3 122.976 7.77545  -2
 -28  29   3 122.976 7.77545   1
  -4  29   3 75.4786 5.03152  -2
 -25  29   3 75.4786 5.03152   1
  -7  29   3 252.984 11.6040  -2
 -22  29   3 252.984 11.6040   1
 -10  29   3 381.654 14.9222  -2
 -19  29   3 381.654 14.9222   1
 -13  29   3 343.403 13.6484  -2
 -16  29   3 343.403 13.6484   1
 -16  29   3 335.392 13.3942  -2
 -13  29   3 335.392 13.3942   1
 -19  29   3 340.828 13.7496  -2
 -10  29   3 340.828 13.7496   1
 -22  29   3 181.700 8.86974  -2
  -7  29   3 181.700 8.86974   1
 -25  29   3 83.9592 6.18039  -2
  -4  29   3 83.9592 6.18039   1
 -28  29   3 84.5490 6.48428  -2
  -1  29   3 84.5490 6.48428   1
  -3  30   3 184.914 8.36520  -2
 -27  30   3 184.914 8.36520   1
  -6  30   3 462.665 18.0140  -2
 -24  30   3 462.665 18.0140   1
  -9  30   3 801.699 32.6988  -2
 -21  30   3 801.699 32.6988   1
 -12  30   3 385.021 15.1378  -2
 -18  30   3 385.021 15.1378   1
 -15  30   3 144.559 7.22072  -2
 -15  30   3 144.559 7.22072   1
 -18  30   3 348.943 15.8499  -2
 -12  30   3 348.943 15.8499   1
 -21  30   3 847.519 38.0307  -2
  -9  30   3 847.519 38.0307   1
 -24  30   3 547.133 22.4062  -2
  -6  30   3 547.133 22.4062   1
 -27  30   3 196.655 9.64480  -2
  -3  30   3 196.655 9.64480   1
  -5  31   3 428.791 18.9970  -2
 -26  31   3 428.791 18.9970   1
  -8  31   3 767.013 31.3860  -2
 -23  31   3 767.013 31.3860   1
 -11  31   3 82.9565 5.52384  -2
 -20  31   3 82.9565 5.52384   1
 -14  31   3 87.2927 5.53008  -2
 -17  31   3 87.2927 5.53008   1
 -17  31   3 75.2420 6.60657  -2
 -14  31   3 75.2420 6.60657   1
 -20  31   3 73.7500 6.51321  -2
 -11  31   3 73.7500 6.51321   1
 -23  31   3 809.535 36.4996  -2
  -8  31   3 809.535 36.4996   1
 -26  31   3 467.227 22.3276  -2
  -5  31   3 467.227 22.3276   1
  -7  32   3 15.1307 4.57502  -2
 -25  32   3 15.1307 4.57502   1
 -10  32   3 62.5733 5.69804  -2
 -22  32   3 62.5733 5.69804   1
 -13  32   3 25.8473 4.03929  -2
 -19  32   3 25.8473 4.03929   1
 -16  32   3 39.1147 4.51857  -2
 -16  32   3 39.1147 4.51857   1
 -19  32   3 17.2733 5.49349  -2
 -13  32   3 17.2733 5.49349   1
 -22  32   3 63.5735 6.35282  -2
 -10  32   3 63.5735 6.35282   1
 -25  32   3 17.1081 4.25554  -2
  -7  32   3 17.1081 4.25554   1
 -12  33   3 70.8332 5.16609  -2
 -21  33   3 70.8332 5.16609   1
 -15  33   3 21.3031 4.16938  -2
 -18  33   3 21.3031 4.16938   1
 -18  33   3 28.4575 5.50969  -2
 -15  33   3 28.4575 5.50969   1
 -21  33   3 64.3383 6.79647  -2
 -12  33   3 64.3383 6.79647   1
 -17  34   3 410.794 48.3669  -2
 -17  34   3 410.794 48.3669   1
  -1   1   4 22.1281 1.17294   1
  -3   2   4 241.328 6.76997   1
   0   2   4 166.991 4.52432   1
  -5   3   4 141.991 3.82812   1
  -2   3   4 888.303 21.4135   1
   1   3   4 1092.14 26.2528   1
  -7   4   4 4.10577 0.95492   1
  -4   4   4 203.895 5.70820   1
  -1   4   4 404.406 10.0149   1
   2   4   4 292.470 7.90641   1
  -9   5   4 4.33192 0.94626   1
  -6   5   4 202.218 6.05764   1
  -3   5   4 1290.58 32.4114   1
   0   5   4 288.740 7.29280   1
   3   5   4 2.11626 0.90586   1
 -11   6   4 5.81202 0.87313   1
  -8   6   4 410.013 13.0978   1
  -5   6   4 2660.60 65.9200   1
  -2   6   4 2205.23 54.6806   1
   1   6   4 101.419 3.12268   1
   4   6   4 32.9922 1.60397   1
 -13   7   4 348.547 9.63252   1
 -10   7   4 8.47081 1.01472   1
  -7   7   4 379.210 10.2130   1
  -4   7   4 130.919 3.91253   1
  -1   7   4 63.2342 2.29134   1
   2   7   4 3.41304 0.93861   1
   5   7   4 303.875 9.98511   1
 -15   8   4 431.060 11.7883   1
 -12   8   4 12.2181 0.99903   1
  -9   8   4 758.056 19.9316   1
  -6   8   4 2223.59 64.3113   1
  -3   8   4 1389.43 37.7291   1
   0   8   4 97.2244 3.34653   1
   3   8   4 8.69501 1.12615   1
   6   8   4 91.5898 3.69892   1
 -17   9   4 125.919 4.38343   1
 -14   9   4 0.45351 1.29601   1
 -11   9   4 75.3016 2.87928   1
  -8   9   4 2526.63 67.7606   1
  -5   9   4 3738.45 88.9722   1
  -2   9   4 1148.02 31.5651   1
   1   9   4 8.78687 1.14806   1
   4   9   4 210.772 6.55781   1
   7   9   4 820.287 21.6887   1
 -19  10   4 193.422 6.00213   1
 -16  10   4 30.5297 1.79554   1
 -13  10   4 28.5669 1.72418   1
 -10  10   4 19.4161 1.37074   1
  -7  10   4 81.5608 3.39167   1
  -4  10   4 56.5978 2.49269   1
  -1  10   4 9.51160 1.21208   1
   2  10   4 484.461 14.8036   1
   5  10   4 1781.98 51.7840   1
   8  10   4 1210.04 31.6937   1
 -21  11   4 330.299 11.0941   1
 -18  11   4 259.832 7.62396   1
 -15  11   4 79.1251 3.59564   1
 -12  11   4 136.422 4.26894   1
  -9  11   4 2184.42 58.6591   1
  -6  11   4 2114.61 52.8679   1
  -3  11   4 706.395 19.7152   1
   0  11   4 6.32933 1.22041   1
   3  11   4 33.8652 2.16134   1
   6  11   4 51.9663 2.81518   1
   9  11   4 1.92941 1.40628   1
 -23  12   4 96.0740 5.22145   1
 -20  12   4 32.9715 2.43120   1
 -17  12   4 29.8529 1.96378   1
 -14  12   4 2.14522 1.32846   1
 -11  12   4 983.658 24.5394   1
  -8  12   4 3050.51 83.2585   1
  -5  12   4 2240.53 58.4616   1
  -2  12   4 97.9072 3.65026   1
   1  12   4 470.499 14.3116   1
   4  12   4 1045.30 29.1891   1
   7  12   4 971.260 28.3168   1
  10  12   4 577.341 19.7530   1
 -25  13   4 54.9324 3.81877   1
 -22  13   4 348.421 11.5931   1
 -19  13   4 99.2361 3.92745   1
 -16  13   4 13.1096 1.45931   1
 -13  13   4 150.258 4.75977   1
 -10  13   4 10.9727 1.41226   1
  -7  13   4 653.847 17.4869   1
  -4  13   4 518.270 15.9269   1
  -1  13   4 10.9124 1.35442   1
   2  13   4 547.805 15.6583   1
   5  13   4 1182.75 34.6776   1
   8  13   4 877.022 29.3855   1
  11  13   4 11.6749 2.13846   1
 -27  14   4 86.4980 6.03832   1
 -24  14   4 1.00479 2.37752   1
 -21  14   4 436.137 14.1153   1
 -18  14   4 199.787 5.89829   1
 -15  14   4 215.819 6.28296   1
 -12  14   4 9.20508 1.38215   1
  -9  14   4 274.194 7.81738   1
  -6  14   4 44.5681 2.26371   1
  -3  14   4 248.095 8.33729   1
   0  14   4 35.5760 2.18041   1
   3  14   4 10.9365 1.43779   1
   6  14   4 65.7029 3.46826   1
   9  14   4 4.74071 1.99893   1
  12  14   4 103.971 6.41937   1
 -29  15   4 257.373 12.9848   1
 -26  15   4 207.161 9.23398   1
 -23  15   4 5.03647 1.57039   1
 -20  15   4 439.146 15.7446   1
 -17  15   4 1097.69 30.5560   1
 -14  15   4 323.481 9.12276   1
 -11  15   4 17.5443 1.50441   1
  -8  15   4 582.433 14.3355   1
  -5  15   4 317.378 10.2992   1
  -2  15   4 8.97392 1.33355   1
   1  15   4 426.617 12.4747   1
   4  15   4 197.216 8.63249   1
   7  15   4 435.327 15.4821   1
  10  15   4 5.09979 3.21927   1
  13  15   4 3.26853 3.18997   1
 -31  16   4 13.6046 4.45391   1
 -28  16   4 10.4912 3.94079   1
 -25  16   4 6.26318 2.67519   1
 -22  16   4 86.1255 3.76221   1
 -19  16   4 688.607 19.5967   1
 -16  16   4 741.574 20.1299   1
 -13  16   4 73.3035 3.42391   1
 -10  16   4 23.1963 1.70350   1
  -7  16   4 588.520 16.1313   1
  -4  16   4 478.974 13.9451   1
  -1  16   4 4.23381 1.34503   1
   2  16   4 388.612 12.3551   1
   5  16   4 463.666 16.4719   1
   8  16   4 99.8575 6.18100   1
  11  16   4 84.0659 5.85464   1
  14  16   4 347.859 16.3926   1
 -30  17   4 419.526 18.9693   1
 -27  17   4 408.658 18.0240   1
 -24  17   4 85.5605 4.99532   1
 -21  17   4 -0.9811 1.50900   1
 -18  17   4 19.9804 1.65378   1
 -15  17   4 16.7574 1.49941   1
 -12  17   4 85.6403 3.51391   1
  -9  17   4 31.8626 1.73911   1
  -6  17   4 402.699 11.8702   1
  -3  17   4 320.964 9.76821   1
   0  17   4 81.2211 3.54964   1
   3  17   4 80.5836 4.96954   1
   6  17   4 18.3481 3.17390   1
   9  17   4 25.5010 3.34927   1
  12  17   4 62.0427 5.15231   1
  15  17   4 220.410 12.2688   1
 -32  18   4 514.986 22.5805   1
 -29  18   4 403.162 18.2662   1
 -26  18   4 114.542 6.13301   1
 -23  18   4 103.272 4.47108   1
 -20  18   4 1368.80 50.4893   1
 -17  18   4 1028.03 27.6469   1
 -14  18   4 596.642 17.1774   1
 -11  18   4 110.643 3.90077   1
  -8  18   4 60.2694 2.60892   1
  -5  18   4 1.35608 1.23104   1
  -2  18   4 104.966 4.38306   1
   1  18   4 11.7963 3.62324   1
   4  18   4 4.93904 2.95144   1
   7  18   4 34.2153 3.70271   1
  10  18   4 20.4616 3.41626   1
  13  18   4 51.6610 4.93905   1
 -31  19   4 27.4246 4.41437   1
 -28  19   4 13.3723 3.80378   1
 -25  19   4 100.483 5.40284   1
 -22  19   4 768.740 26.0443   1
 -19  19   4 1692.91 51.2911   1
 -16  19   4 885.102 27.2083   1
 -13  19   4 65.8532 3.09679   1
 -10  19   4 22.7817 1.59592   1
  -7  19   4 913.268 25.5826   1
  -4  19   4 582.420 17.7097   1
  -1  19   4 71.7677 5.18081   1
   2  19   4 -1.6487 2.90827   1
   5  19   4 8.82002 3.08157   1
   8  19   4 -2.7505 2.99429   1
  11  19   4 36.5019 4.20461   1
 -30  20   4 137.061 8.24415   1
 -27  20   4 100.595 6.39422   1
 -24  20   4 50.9045 4.20455   1
 -21  20   4 1.68361 2.58539   1
 -18  20   4 34.7860 2.29295   1
 -15  20   4 28.8077 1.96536   1
 -12  20   4 80.0730 3.75694   1
  -9  20   4 302.796 8.85075   1
  -6  20   4 975.513 32.0981   1
  -3  20   4 787.089 29.9478   1
   0  20   4 0.55522 2.85800   1
   3  20   4 87.8992 5.88661   1
   6  20   4 101.072 6.38766   1
   9  20   4 22.4851 3.72263   1
  12  20   4 2.11594 4.38189   1
 -29  21   4 160.228 8.97261   1
 -26  21   4 0.64092 2.95278   1
 -23  21   4 374.896 13.8562   1
 -20  21   4 1076.44 40.2414   1
 -17  21   4 491.492 15.1610   1
 -14  21   4 132.367 5.00617   1
 -11  21   4 155.442 5.05514   1
  -8  21   4 3.42230 1.69114   1
  -5  21   4 4.24231 2.32040   1
  -2  21   4 -0.0688 2.81691   1
   1  21   4 147.585 7.66795   1
   4  21   4 307.657 12.8358   1
   7  21   4 84.0912 6.07166   1
  10  21   4 151.379 8.24635   1
 -31  22   4 100.129 6.74670   1
 -28  22   4 17.6003 4.03065   1
 -25  22   4 107.851 6.08975   1
 -22  22   4 669.271 23.3213   1
 -19  22   4 734.926 28.6921   1
 -16  22   4 88.2545 4.09038   1
 -13  22   4 6.18266 1.71608   1
 -10  22   4 162.649 5.14246   1
  -7  22   4 1067.25 35.8001   1
  -4  22   4 686.712 25.5348   1
  -1  22   4 65.6000 5.07401   1
   2  22   4 56.4859 4.95103   1
   5  22   4 24.1368 3.85025   1
   8  22   4 39.0815 3.80126   1
 -30  23   4 9.30002 3.83230   1
 -27  23   4 4.06565 3.12052   1
 -24  23   4 14.1768 3.12368   1
 -21  23   4 19.2148 3.59790   1
 -18  23   4 8.84971 2.37241   1
 -15  23   4 11.2152 1.88300   1
 -12  23   4 304.606 9.40197   1
  -9  23   4 423.088 16.6913   1
  -6  23   4 1053.67 38.2573   1
  -3  23   4 160.275 8.03733   1
   0  23   4 23.1894 3.63005   1
   3  23   4 160.998 8.56295   1
   6  23   4 19.1893 3.62521   1
 -29  24   4 -1.2242 3.23995   1
 -26  24   4 156.980 7.60457   1
 -23  24   4 372.960 15.6018   1
 -20  24   4 140.706 6.64608   1
 -17  24   4 9.03952 2.27986   1
 -14  24   4 2.95313 1.84780   1
 -11  24   4 49.0644 3.03088   1
  -8  24   4 11.2150 3.37747   1
  -5  24   4 1.36046 3.00876   1
  -2  24   4 11.5537 3.20874   1
   1  24   4 236.120 10.7076   1
   4  24   4 126.156 7.34533   1
 -28  25   4 1.63085 3.26008   1
 -25  25   4 121.058 6.62562   1
 -22  25   4 209.298 8.77057   1
 -19  25   4 117.845 6.14687   1
 -16  25   4 5.64391 2.40229   1
 -13  25   4 170.791 7.06830   1
 -10  25   4 113.935 6.20675   1
  -7  25   4 599.982 25.3699   1
  -4  25   4 14.8648 3.45845   1
  -1  25   4 36.4270 4.08274   1
   2  25   4 4.12752 3.47248   1
   5  25   4 2.22952 3.50161   1
 -27  26   4 66.9004 5.38719   1
 -24  26   4 39.1025 3.56214   1
 -21  26   4 35.2448 3.42825   1
 -18  26   4 230.771 9.38667   1
 -15  26   4 4.27786 2.70263   1
 -12  26   4 248.526 9.20546   1
  -9  26   4 199.794 10.7274   1
  -6  26   4 141.622 7.62788   1
  -3  26   4 47.4195 4.41460   1
   0  26   4 316.561 13.3671   1
   3  26   4 99.9669 6.65118   1
 -29  27   4 28.6592 3.75980   1
 -26  27   4 145.631 8.39879   1
 -23  27   4 36.5495 3.74179   1
 -20  27   4 76.6768 5.03863   1
 -17  27   4 55.6624 4.56549   1
 -14  27   4 8.93182 2.82583   1
 -11  27   4 22.6708 3.43916   1
  -8  27   4 1.64793 3.24599   1
  -5  27   4 11.0191 3.37972   1
  -2  27   4 14.2197 3.54782   1
   1  27   4 216.841 10.3337   1
 -28  28   4 76.7392 6.38513   1
 -25  28   4 -0.7771 3.13007   1
 -22  28   4 3.55822 3.03132   1
 -19  28   4 42.6680 4.31989   1
 -16  28   4 24.7711 3.59792   1
 -13  28   4 131.587 7.04283   1
 -10  28   4 52.8088 4.70125   1
  -7  28   4 36.0473 4.00828   1
  -4  28   4 28.1310 4.09726   1
  -1  28   4 38.5307 4.27559   1
 -27  29   4 70.7039 5.02405   1
 -24  29   4 10.3003 3.32915   1
 -21  29   4 479.276 21.9424   1
 -18  29   4 227.345 10.5861   1
 -15  29   4 7.09247 3.40065   1
 -12  29   4 45.2156 4.43486   1
  -9  29   4 54.0301 4.89697   1
  -6  29   4 4.77246 3.41917   1
  -3  29   4 68.6596 5.61147   1
 -23  30   4 166.253 9.07824   1
 -20  30   4 304.738 16.9812   1
 -17  30   4 121.756 6.77226   1
 -14  30   4 36.0794 4.66932   1
 -11  30   4 18.5108 3.65492   1
  -8  30   4 35.4758 4.32077   1
  -5  30   4 41.8437 4.41114   1
 -22  31   4 5.54146 3.65669   1
 -19  31   4 -0.5751 3.74115   1
 -16  31   4 6.82313 3.99210   1
 -13  31   4 4.28626 4.07629   1
 -10  31   4 117.273 7.33916   1
 -18  32   4 189.484 12.4131   1
 -15  32   4 50.9668 5.75516   1
 -12  32   4 -0.9111 4.06312   1
   0   1   5 63.3625 2.48600   1
  -2   2   5 182.607 5.03323   1
   1   2   5 604.347 16.5362   1
  -4   3   5 1439.37 42.4418   1
  -1   3   5 156.496 5.04526   1
   2   3   5 37.2275 1.94260   1
  -6   4   5 1641.46 42.6125   1
  -3   4   5 170.111 5.05010   1
   0   4   5 1178.43 32.7665   1
   3   4   5 2276.15 61.6681   1
  -8   5   5 177.289 5.29945   1
  -5   5   5 121.143 4.40685   1
  -2   5   5 511.638 14.3631   1
   1   5   5 1219.66 31.9584   1
   4   5   5 562.682 15.6185   1
 -10   6   5 927.736 25.4656   1
  -7   6   5 1336.50 35.5283   1
  -4   6   5 564.946 15.8111   1
  -1   6   5 2.44454 1.11070   1
   2   6   5 180.614 5.23203   1
   5   6   5 32.1215 1.92323   1
 -12   7   5 295.632 9.22094   1
  -9   7   5 136.927 4.52607   1
  -6   7   5 206.643 6.18480   1
  -3   7   5 33.0321 1.76217   1
   0   7   5 1353.71 35.4590   1
   3   7   5 346.664 9.82426   1
   6   7   5 304.147 9.45949   1
 -14   8   5 110.537 3.96334   1
 -11   8   5 28.6332 1.69211   1
  -8   8   5 136.915 4.26638   1
  -5   8   5 8.94486 1.19916   1
  -2   8   5 306.947 8.51918   1
   1   8   5 365.188 10.9903   1
   4   8   5 644.954 19.1029   1
   7   8   5 24.3129 1.69061   1
 -16   9   5 244.893 7.79166   1
 -13   9   5 374.595 11.0854   1
 -10   9   5 5.09742 1.36084   1
  -7   9   5 112.591 3.70419   1
  -4   9   5 51.2799 2.49560   1
  -1   9   5 195.249 5.83974   1
   2   9   5 1.74651 1.35524   1
   5   9   5 2.66601 1.29441   1
   8   9   5 1022.89 63.8307   1
 -18  10   5 153.217 5.56440   1
 -15  10   5 -0.3455 1.23738   1
 -12  10   5 155.270 4.80851   1
  -9  10   5 21.1596 1.50824   1
  -6  10   5 6.54104 1.24561   1
  -3  10   5 360.497 9.93473   1
   0  10   5 645.725 18.8605   1
   3  10   5 96.7970 4.05333   1
   6  10   5 31.7255 2.34811   1
   9  10   5 30.7612 2.14627   1
 -20  11   5 502.237 16.5358   1
 -17  11   5 459.595 14.0418   1
 -14  11   5 56.9453 2.73072   1
 -11  11   5 317.157 8.91227   1
  -8  11   5 20.1640 1.47416   1
  -5  11   5 108.874 3.84164   1
  -2  11   5 4.43605 1.23784   1
   1  11   5 246.868 8.24258   1
   4  11   5 3.24521 1.36201   1
   7  11   5 376.906 24.5334   1
  10  11   5 293.762 10.7274   1
 -22  12   5 6.03318 2.52240   1
 -19  12   5 30.3485 2.24585   1
 -16  12   5 91.8859 3.76336   1
 -13  12   5 119.272 4.20414   1
 -10  12   5 683.489 20.6959   1
  -7  12   5 331.264 9.29156   1
  -4  12   5 847.830 22.5111   1
  -1  12   5 62.0922 3.30576   1
   2  12   5 13.6555 1.53908   1
   5  12   5 1.99744 1.60235   1
   8  12   5 137.349 6.25456   1
  11  12   5 311.640 12.7301   1
 -24  13   5 199.056 9.06348   1
 -21  13   5 543.998 18.4880   1
 -18  13   5 298.659 9.67683   1
 -15  13   5 114.036 4.33356   1
 -12  13   5 19.2374 1.52119   1
  -9  13   5 187.858 5.69215   1
  -6  13   5 173.283 5.18931   1
  -3  13   5 148.112 5.15485   1
   0  13   5 98.5592 4.46668   1
   3  13   5 38.8432 2.75119   1
   6  13   5 87.7046 4.55284   1
   9  13   5 15.8330 2.84731   1
  12  13   5 24.3668 3.64888   1
 -26  14   5 66.8253 5.40925   1
 -23  14   5 413.708 16.1081   1
 -20  14   5 510.213 15.3690   1
 -17  14   5 451.468 15.1004   1
 -14  14   5 199.146 6.64629   1
 -11  14   5 503.107 13.5609   1
  -8  14   5 91.4810 3.32728   1
  -5  14   5 80.3354 3.31623   1
  -2  14   5 109.130 4.55401   1
   1  14   5 345.138 13.6675   1
   4  14   5 1.87164 1.78854   1
   7  14   5 19.1925 2.90137   1
  10  14   5 29.9289 3.43287   1
  13  14   5 -1.0093 3.34944   1
 -28  15   5 1.94155 3.37895   1
 -25  15   5 -1.6998 3.13275   1
 -22  15   5 2.10952 1.84961   1
 -19  15   5 6.19743 1.67221   1
 -16  15   5 66.0861 3.28060   1
 -13  15   5 397.541 12.7551   1
 -10  15   5 524.142 13.5229   1
  -7  15   5 89.3460 3.39587   1
  -4  15   5 1.76849 1.32335   1
  -1  15   5 574.611 24.4407   1
   2  15   5 1066.21 38.4063   1
   5  15   5 378.317 14.9495   1
   8  15   5 0.92919 2.84377   1
  11  15   5 44.5497 4.17668   1
  14  15   5 14.6794 3.60140   1
 -30  16   5 31.6486 4.68238   1
 -27  16   5 102.460 6.50578   1
 -24  16   5 539.839 20.3817   1
 -21  16   5 682.691 22.0392   1
 -18  16   5 269.309 9.53528   1
 -15  16   5 2.01809 1.52187   1
 -12  16   5 102.417 4.26642   1
  -9  16   5 1.80263 1.30487   1
  -6  16   5 188.845 6.35600   1
  -3  16   5 332.354 11.9924   1
   0  16   5 497.120 19.4246   1
   3  16   5 1181.03 48.9325   1
   6  16   5 262.904 11.0241   1
   9  16   5 27.2021 3.31769   1
  12  16   5 49.5525 4.46136   1
 -29  17   5 1.02268 4.09703   1
 -26  17   5 160.367 9.18033   1
 -23  17   5 621.362 25.8397   1
 -20  17   5 454.332 16.5930   1
 -17  17   5 26.1867 2.81965   1
 -14  17   5 609.134 21.3837   1
 -11  17   5 1034.56 29.9359   1
  -8  17   5 481.774 13.1488   1
  -5  17   5 292.038 11.0957   1
  -2  17   5 7.36018 1.92435   1
   1  17   5 24.4108 3.30159   1
   4  17   5 5.60030 2.87668   1
   7  17   5 2.69937 3.04480   1
  10  17   5 84.1709 6.12264   1
  13  17   5 237.109 14.7964   1
 -28  18   5 31.8533 4.63926   1
 -25  18   5 15.6684 3.03727   1
 -22  18   5 4.75486 2.53559   1
 -19  18   5 82.4552 4.09970   1
 -16  18   5 357.096 13.5501   1
 -13  18   5 625.678 17.6613   1
 -10  18   5 928.564 23.5381   1
  -7  18   5 62.1415 3.19802   1
  -4  18   5 66.1659 4.24091   1
  -1  18   5 862.532 31.5328   1
   2  18   5 1469.07 58.8279   1
   5  18   5 213.768 9.62353   1
   8  18   5 20.7343 3.41510   1
  11  18   5 8.43333 3.49127   1
 -30  19   5 4.25128 4.22886   1
 -27  19   5 189.480 10.2929   1
 -24  19   5 279.173 11.0524   1
 -21  19   5 456.757 16.4869   1
 -18  19   5 7.20235 2.15803   1
 -15  19   5 2.44704 1.70194   1
 -12  19   5 8.99165 1.59188   1
  -9  19   5 3.97107 1.55697   1
  -6  19   5 414.535 14.7782   1
  -3  19   5 546.697 20.5145   1
   0  19   5 1114.84 40.3682   1
   3  19   5 696.890 25.9148   1
   6  19   5 34.5882 3.81448   1
   9  19   5 94.8988 6.60955   1
 -29  20   5 39.3506 4.94001   1
 -26  20   5 75.1772 5.91704   1
 -23  20   5 261.706 10.5651   1
 -20  20   5 1.72649 2.48972   1
 -17  20   5 171.476 6.93986   1
 -14  20   5 612.711 18.8042   1
 -11  20   5 654.739 18.5540   1
  -8  20   5 409.810 13.8997   1
  -5  20   5 271.901 11.3313   1
  -2  20   5 15.9245 3.09855   1
   1  20   5 12.3317 3.15350   1
   4  20   5 10.8788 3.12769   1
   7  20   5 66.8187 5.21051   1
 -28  21   5 70.9259 5.94066   1
 -25  21   5 5.80614 3.34603   1
 -22  21   5 2.79773 2.76428   1
 -19  21   5 -0.0286 2.77777   1
 -16  21   5 96.3686 5.45363   1
 -13  21   5 417.062 11.6110   1
 -10  21   5 316.856 10.9103   1
  -7  21   5 1.07467 2.72575   1
  -4  21   5 157.887 7.99189   1
  -1  21   5 729.911 31.1789   1
   2  21   5 518.106 19.9054   1
   5  21   5 38.8515 4.21600   1
   8  21   5 29.3389 4.07672   1
 -27  22   5 14.2551 3.52895   1
 -24  22   5 19.7288 3.51071   1
 -21  22   5 30.4174 3.55981   1
 -18  22   5 44.8878 3.61741   1
 -15  22   5 0.22558 1.91656   1
 -12  22   5 11.1456 2.46730   1
  -9  22   5 18.8597 3.26366   1
  -6  22   5 156.853 7.43382   1
  -3  22   5 528.753 23.3220   1
   0  22   5 319.557 13.3163   1
   3  22   5 307.366 13.0852   1
   6  22   5 22.4309 3.58940   1
 -26  23   5 48.1473 4.26696   1
 -23  23   5 27.3342 4.00399   1
 -20  23   5 1.71724 2.57382   1
 -17  23   5 46.9944 3.95800   1
 -14  23   5 22.0926 2.75511   1
 -11  23   5 12.2696 3.08021   1
  -8  23   5 2.15009 2.89967   1
  -5  23   5 2.38179 3.02648   1
  -2  23   5 18.0189 3.56751   1
   1  23   5 0.23266 3.33597   1
   4  23   5 4.54426 3.41694   1
 -28  24   5 19.9059 3.70515   1
 -25  24   5 89.4738 6.65021   1
 -22  24   5 286.414 11.2008   1
 -19  24   5 74.7782 5.17450   1
 -16  24   5 8.74651 2.68457   1
 -13  24   5 26.4049 3.32172   1
 -10  24   5 2.30786 2.88104   1
  -7  24   5 16.1524 3.42641   1
  -4  24   5 228.847 10.6206   1
  -1  24   5 76.2598 6.00909   1
   2  24   5 54.8807 4.79903   1
 -27  25   5 93.4169 7.10636   1
 -24  25   5 335.287 13.0226   1
 -21  25   5 466.501 16.8790   1
 -18  25   5 215.473 9.02819   1
 -15  25   5 65.0168 4.58740   1
 -12  25   5 58.6379 4.54432   1
  -9  25   5 91.5126 5.67783   1
  -6  25   5 2.56121 3.35764   1
  -3  25   5 24.5823 3.73997   1
   0  25   5 37.8103 4.24145   1
 -26  26   5 19.5407 4.05019   1
 -23  26   5 33.5464 3.74566   1
 -20  26   5 83.2634 5.52036   1
 -17  26   5 -1.5221 3.34547   1
 -14  26   5 109.120 6.38916   1
 -11  26   5 177.188 11.8962   1
  -8  26   5 113.830 6.95965   1
  -5  26   5 12.6939 3.52170   1
  -2  26   5 7.11406 3.61249   1
 -25  27   5 211.323 9.20177   1
 -22  27   5 221.168 9.49553   1
 -19  27   5 67.4389 5.64245   1
 -16  27   5 6.27529 3.62547   1
 -13  27   5 7.56526 3.38143   1
 -10  27   5 5.67232 3.55624   1
  -7  27   5 27.1648 4.10964   1
  -4  27   5 1.43746 3.58316   1
 -24  28   5 321.697 13.8408   1
 -21  28   5 395.072 16.3225   1
 -18  28   5 7.68755 3.63513   1
 -15  28   5 328.054 22.2857   1
 -12  28   5 256.712 11.5952   1
  -9  28   5 43.1987 4.45840   1
  -6  28   5 27.6062 3.97256   1
 -20  29   5 10.1337 3.93253   1
 -17  29   5 89.7673 7.48334   1
 -14  29   5 361.247 20.0335   1
 -11  29   5 315.191 13.4412   1
  -8  29   5 127.843 7.96384   1
 -19  30   5 -1.6415 3.78884   1
 -16  30   5 1.51018 4.23947   1
 -13  30   5 3.23861 3.92246   1
   0   0   6 1780.74 86.2930  -2
   0   0   6 1780.74 86.2930   1
   1   1   6 33.9498 1.82677  -2
   1   1   6 33.9498 1.82677   1
  -1   2   6 2414.82 67.3294  -2
  -1   2   6 2414.82 67.3294   1
   2   2   6 1378.85 40.3576  -2
   2   2   6 1378.85 40.3576   1
   0   3   6 1635.14 47.7794  -2
  -3   3   6 1635.14 47.7794   1
  -3   3   6 1675.14 48.8803  -2
   0   3   6 1675.14 48.8803   1
   3   3   6 1024.27 30.2424  -2
   3   3   6 1024.27 30.2424   1
   1   4   6 61.1848 2.59122  -2
  -5   4   6 61.1848 2.59122   1
  -2   4   6 43.9923 2.17429  -2
  -2   4   6 43.9923 2.17429   1
  -5   4   6 56.9173 2.67833  -2
   1   4   6 56.9173 2.67833   1
   4   4   6 43.8237 2.12201  -2
   4   4   6 43.8237 2.12201   1
   2   5   6 387.467 12.0605  -2
  -7   5   6 387.467 12.0605   1
  -1   5   6 259.024 8.80429  -2
  -4   5   6 259.024 8.80429   1
  -4   5   6 266.749 9.60502  -2
  -1   5   6 266.749 9.60502   1
  -7   5   6 391.116 11.7447  -2
   2   5   6 391.116 11.7447   1
   5   5   6 262.360 8.90592  -2
   5   5   6 262.360 8.90592   1
   3   6   6 397.941 11.7654  -2
  -9   6   6 397.941 11.7654   1
   0   6   6 520.252 15.5358  -2
  -6   6   6 520.252 15.5358   1
  -3   6   6 281.740 9.58840  -2
  -3   6   6 281.740 9.58840   1
  -6   6   6 557.974 17.2573  -2
   0   6   6 557.974 17.2573   1
  -9   6   6 362.707 10.8606  -2
   3   6   6 362.707 10.8606   1
   6   6   6 897.150 44.8285  -2
   6   6   6 897.150 44.8285   1
   4   7   6 437.489 16.3763  -2
 -11   7   6 437.489 16.3763   1
   1   7   6 143.400 4.54347  -2
  -8   7   6 143.400 4.54347   1
  -2   7   6 358.851 11.2343  -2
  -5   7   6 358.851 11.2343   1
  -5   7   6 408.095 12.8133  -2
  -2   7   6 408.095 12.8133   1
  -8   7   6 144.275 5.11928  -2
   1   7   6 144.275 5.11928   1
 -11   7   6 452.667 19.5740  -2
   4   7   6 452.667 19.5740   1
   7   7   6 343.802 13.2878  -2
   7   7   6 343.802 13.2878   1
   5   8   6 244.553 11.4193  -2
 -13   8   6 244.553 11.4193   1
   2   8   6 193.212 6.29086  -2
 -10   8   6 193.212 6.29086   1
  -1   8   6 28.2899 1.91946  -2
  -7   8   6 28.2899 1.91946   1
  -4   8   6 148.519 4.71705  -2
  -4   8   6 148.519 4.71705   1
  -7   8   6 27.7767 1.99488  -2
  -1   8   6 27.7767 1.99488   1
 -10   8   6 226.929 10.6977  -2
   2   8   6 226.929 10.6977   1
 -13   8   6 293.797 15.7425  -2
   5   8   6 293.797 15.7425   1
   8   8   6 2.29876 2.33215  -2
   8   8   6 2.29876 2.33215   1
   6   9   6 654.037 26.2113  -2
 -15   9   6 654.037 26.2113   1
   3   9   6 1453.33 57.5129  -2
 -12   9   6 1453.33 57.5129   1
   0   9   6 473.583 15.4002  -2
  -9   9   6 473.583 15.4002   1
  -3   9   6 60.4787 2.54668  -2
  -6   9   6 60.4787 2.54668   1
  -6   9   6 67.6146 3.07487  -2
  -3   9   6 67.6146 3.07487   1
  -9   9   6 451.436 15.6113  -2
   0   9   6 451.436 15.6113   1
 -12   9   6 1285.84 66.0891  -2
   3   9   6 1285.84 66.0891   1
 -15   9   6 635.178 23.8351  -2
   6   9   6 635.178 23.8351   1
   9   9   6 52.4746 3.68259  -2
   9   9   6 52.4746 3.68259   1
   7  10   6 442.594 15.5404  -2
 -17  10   6 442.594 15.5404   1
   4  10   6 1239.81 37.8579  -2
 -14  10   6 1239.81 37.8579   1
   1  10   6 1316.59 56.6180  -2
 -11  10   6 1316.59 56.6180   1
  -2  10   6 154.436 5.54629  -2
  -8  10   6 154.436 5.54629   1
  -5  10   6 155.186 5.81204  -2
  -5  10   6 155.186 5.81204   1
  -8  10   6 163.033 6.59496  -2
  -2  10   6 163.033 6.59496   1
 -11  10   6 1278.96 46.3970  -2
   1  10   6 1278.96 46.3970   1
 -14  10   6 1351.61 49.1634  -2
   4  10   6 1351.61 49.1634   1
 -17  10   6 412.133 16.0103  -2
   7  10   6 412.133 16.0103   1
  10  10   6 167.210 7.13761  -2
  10  10   6 167.210 7.13761   1
   8  11   6 128.722 5.96442  -2
 -19  11   6 128.722 5.96442   1
   5  11   6 85.8242 4.69633  -2
 -16  11   6 85.8242 4.69633   1
   2  11   6 302.998 13.4206  -2
 -13  11   6 302.998 13.4206   1
  -1  11   6 582.845 20.4726  -2
 -10  11   6 582.845 20.4726   1
  -4  11   6 118.781 4.92600  -2
  -7  11   6 118.781 4.92600   1
  -7  11   6 126.052 5.73593  -2
  -4  11   6 126.052 5.73593   1
 -10  11   6 677.718 25.2261  -2
  -1  11   6 677.718 25.2261   1
 -13  11   6 345.105 16.8472  -2
   2  11   6 345.105 16.8472   1
 -16  11   6 100.695 5.77280  -2
   5  11   6 100.695 5.77280   1
 -19  11   6 142.102 6.18695  -2
   8  11   6 142.102 6.18695   1
  11  11   6 345.163 13.5765  -2
  11  11   6 345.163 13.5765   1
   9  12   6 141.819 7.56979  -2
 -21  12   6 141.819 7.56979   1
   6  12   6 545.515 27.0678  -2
 -18  12   6 545.515 27.0678   1
   3  12   6 1492.51 59.1141  -2
 -15  12   6 1492.51 59.1141   1
   0  12   6 697.753 37.3032  -2
 -12  12   6 697.753 37.3032   1
  -3  12   6 303.385 9.66508  -2
  -9  12   6 303.385 9.66508   1
  -6  12   6 100.507 4.47540  -2
  -6  12   6 100.507 4.47540   1
  -9  12   6 312.824 10.4052  -2
  -3  12   6 312.824 10.4052   1
 -12  12   6 635.834 23.8011  -2
   0  12   6 635.834 23.8011   1
 -15  12   6 1395.45 50.7471  -2
   3  12   6 1395.45 50.7471   1
 -18  12   6 478.056 18.0816  -2
   6  12   6 478.056 18.0816   1
 -21  12   6 171.412 8.13439  -2
   9  12   6 171.412 8.13439   1
  12  12   6 223.460 11.3483  -2
  12  12   6 223.460 11.3483   1
  10  13   6 9.92958 3.75991  -2
 -23  13   6 9.92958 3.75991   1
   7  13   6 178.717 7.66008  -2
 -20  13   6 178.717 7.66008   1
   4  13   6 810.580 29.4512  -2
 -17  13   6 810.580 29.4512   1
   1  13   6 1767.08 59.0908  -2
 -14  13   6 1767.08 59.0908   1
  -2  13   6 1062.64 39.4139  -2
 -11  13   6 1062.64 39.4139   1
  -5  13   6 246.217 8.10759  -2
  -8  13   6 246.217 8.10759   1
  -8  13   6 260.693 8.90463  -2
  -5  13   6 260.693 8.90463   1
 -11  13   6 1223.80 51.4855  -2
  -2  13   6 1223.80 51.4855   1
 -14  13   6 1765.41 63.9225  -2
   1  13   6 1765.41 63.9225   1
 -17  13   6 763.715 27.8860  -2
   4  13   6 763.715 27.8860   1
 -20  13   6 156.740 7.65200  -2
   7  13   6 156.740 7.65200   1
 -23  13   6 16.2297 3.42123  -2
  10  13   6 16.2297 3.42123   1
  13  13   6 4.99910 3.80338  -2
  13  13   6 4.99910 3.80338   1
  11  14   6 129.908 7.16844  -2
 -25  14   6 129.908 7.16844   1
   8  14   6 175.669 7.40758  -2
 -22  14   6 175.669 7.40758   1
   5  14   6 17.5305 2.97590  -2
 -19  14   6 17.5305 2.97590   1
   2  14   6 194.776 8.70500  -2
 -16  14   6 194.776 8.70500   1
  -1  14   6 1003.89 36.0317  -2
 -13  14   6 1003.89 36.0317   1
  -4  14   6 1015.73 32.9646  -2
 -10  14   6 1015.73 32.9646   1
  -7  14   6 139.455 5.33848  -2
  -7  14   6 139.455 5.33848   1
 -10  14   6 1097.85 40.1550  -2
  -4  14   6 1097.85 40.1550   1
 -13  14   6 1192.95 50.3854  -2
  -1  14   6 1192.95 50.3854   1
 -16  14   6 249.013 10.2842  -2
   2  14   6 249.013 10.2842   1
 -19  14   6 26.9461 3.38248  -2
   5  14   6 26.9461 3.38248   1
 -22  14   6 186.210 8.71548  -2
   8  14   6 186.210 8.71548   1
 -25  14   6 123.349 7.10974  -2
  11  14   6 123.349 7.10974   1
  12  15   6 88.1630 6.21838  -2
 -27  15   6 88.1630 6.21838   1
   9  15   6 202.843 9.28718  -2
 -24  15   6 202.843 9.28718   1
   6  15   6 14.2871 3.10160  -2
 -21  15   6 14.2871 3.10160   1
   3  15   6 317.011 12.4414  -2
 -18  15   6 317.011 12.4414   1
   0  15   6 310.717 13.0401  -2
 -15  15   6 310.717 13.0401   1
  -3  15   6 16.7555 2.47002  -2
 -12  15   6 16.7555 2.47002   1
  -6  15   6 146.329 5.47832  -2
  -9  15   6 146.329 5.47832   1
  -9  15   6 137.113 6.14606  -2
  -6  15   6 137.113 6.14606   1
 -12  15   6 23.7357 2.78549  -2
  -3  15   6 23.7357 2.78549   1
 -15  15   6 263.745 10.8841  -2
   0  15   6 263.745 10.8841   1
 -18  15   6 286.823 11.4860  -2
   3  15   6 286.823 11.4860   1
 -21  15   6 28.3264 3.35344  -2
   6  15   6 28.3264 3.35344   1
 -24  15   6 209.685 9.70803  -2
   9  15   6 209.685 9.70803   1
 -27  15   6 75.4993 5.90780  -2
  12  15   6 75.4993 5.90780   1
  10  16   6 63.9084 5.16348  -2
 -26  16   6 63.9084 5.16348   1
   7  16   6 94.2894 5.44428  -2
 -23  16   6 94.2894 5.44428   1
   4  16   6 60.2774 4.12649  -2
 -20  16   6 60.2774 4.12649   1
   1  16   6 309.493 13.3195  -2
 -17  16   6 309.493 13.3195   1
  -2  16   6 686.190 23.6756  -2
 -14  16   6 686.190 23.6756   1
  -5  16   6 408.777 13.6041  -2
 -11  16   6 408.777 13.6041   1
  -8  16   6 257.400 9.93729  -2
  -8  16   6 257.400 9.93729   1
 -11  16   6 481.868 18.5869  -2
  -5  16   6 481.868 18.5869   1
 -14  16   6 696.487 25.5973  -2
  -2  16   6 696.487 25.5973   1
 -17  16   6 281.252 11.3827  -2
   1  16   6 281.252 11.3827   1
 -20  16   6 73.3830 5.27115  -2
   4  16   6 73.3830 5.27115   1
 -23  16   6 100.930 6.37454  -2
   7  16   6 100.930 6.37454   1
 -26  16   6 70.7002 5.68314  -2
  10  16   6 70.7002 5.68314   1
   8  17   6 526.062 27.1875  -2
 -25  17   6 526.062 27.1875   1
   5  17   6 305.673 12.6222  -2
 -22  17   6 305.673 12.6222   1
   2  17   6 123.065 6.47029  -2
 -19  17   6 123.065 6.47029   1
  -1  17   6 102.736 5.51926  -2
 -16  17   6 102.736 5.51926   1
  -4  17   6 424.238 15.2285  -2
 -13  17   6 424.238 15.2285   1
  -7  17   6 381.570 12.2074  -2
 -10  17   6 381.570 12.2074   1
 -10  17   6 407.926 14.9855  -2
  -7  17   6 407.926 14.9855   1
 -13  17   6 460.206 19.6803  -2
  -4  17   6 460.206 19.6803   1
 -16  17   6 110.648 6.00185  -2
  -1  17   6 110.648 6.00185   1
 -19  17   6 119.543 6.77419  -2
   2  17   6 119.543 6.77419   1
 -22  17   6 336.694 13.5171  -2
   5  17   6 336.694 13.5171   1
 -25  17   6 585.601 22.2683  -2
   8  17   6 585.601 22.2683   1
   9  18   6 267.857 13.3357  -2
 -27  18   6 267.857 13.3357   1
   6  18   6 101.088 5.79551  -2
 -24  18   6 101.088 5.79551   1
   3  18   6 35.7529 3.57943  -2
 -21  18   6 35.7529 3.57943   1
   0  18   6 158.745 8.39405  -2
 -18  18   6 158.745 8.39405   1
  -3  18   6 18.6371 2.64298  -2
 -15  18   6 18.6371 2.64298   1
  -6  18   6 254.618 10.1542  -2
 -12  18   6 254.618 10.1542   1
  -9  18   6 62.4889 3.52301  -2
  -9  18   6 62.4889 3.52301   1
 -12  18   6 207.925 10.1747  -2
  -6  18   6 207.925 10.1747   1
 -15  18   6 17.4360 3.00673  -2
  -3  18   6 17.4360 3.00673   1
 -18  18   6 139.072 7.02689  -2
   0  18   6 139.072 7.02689   1
 -21  18   6 38.0087 4.30691  -2
   3  18   6 38.0087 4.30691   1
 -24  18   6 122.132 7.11221  -2
   6  18   6 122.132 7.11221   1
 -27  18   6 271.235 13.7025  -2
   9  18   6 271.235 13.7025   1
   7  19   6 197.818 10.5665  -2
 -26  19   6 197.818 10.5665   1
   4  19   6 233.842 10.0786  -2
 -23  19   6 233.842 10.0786   1
   1  19   6 34.1123 3.70861  -2
 -20  19   6 34.1123 3.70861   1
  -2  19   6 115.670 6.00937  -2
 -17  19   6 115.670 6.00937   1
  -5  19   6 297.878 12.8364  -2
 -14  19   6 297.878 12.8364   1
  -8  19   6 234.794 7.95085  -2
 -11  19   6 234.794 7.95085   1
 -11  19   6 255.232 12.2239  -2
  -8  19   6 255.232 12.2239   1
 -14  19   6 306.293 12.4944  -2
  -5  19   6 306.293 12.4944   1
 -17  19   6 116.106 6.45907  -2
  -2  19   6 116.106 6.45907   1
 -20  19   6 26.4306 3.66959  -2
   1  19   6 26.4306 3.66959   1
 -23  19   6 207.030 9.55937  -2
   4  19   6 207.030 9.55937   1
 -26  19   6 169.384 8.51371  -2
   7  19   6 169.384 8.51371   1
   5  20   6 520.087 19.7179  -2
 -25  20   6 520.087 19.7179   1
   2  20   6 99.7395 7.07318  -2
 -22  20   6 99.7395 7.07318   1
  -1  20   6 35.1749 3.39315  -2
 -19  20   6 35.1749 3.39315   1
  -4  20   6 325.702 12.2092  -2
 -16  20   6 325.702 12.2092   1
  -7  20   6 775.521 28.4579  -2
 -13  20   6 775.521 28.4579   1
 -10  20   6 9.89012 2.84648  -2
 -10  20   6 9.89012 2.84648   1
 -13  20   6 672.294 25.5050  -2
  -7  20   6 672.294 25.5050   1
 -16  20   6 314.244 12.7779  -2
  -4  20   6 314.244 12.7779   1
 -19  20   6 40.4242 4.27287  -2
  -1  20   6 40.4242 4.27287   1
 -22  20   6 93.2409 6.48988  -2
   2  20   6 93.2409 6.48988   1
 -25  20   6 505.285 19.2542  -2
   5  20   6 505.285 19.2542   1
   3  21   6 65.3996 5.68554  -2
 -24  21   6 65.3996 5.68554   1
   0  21   6 53.7220 4.16696  -2
 -21  21   6 53.7220 4.16696   1
  -3  21   6 45.8612 3.87906  -2
 -18  21   6 45.8612 3.87906   1
  -6  21   6 179.670 8.31095  -2
 -15  21   6 179.670 8.31095   1
  -9  21   6 230.433 11.4481  -2
 -12  21   6 230.433 11.4481   1
 -12  21   6 220.748 8.82132  -2
  -9  21   6 220.748 8.82132   1
 -15  21   6 168.733 7.63726  -2
  -6  21   6 168.733 7.63726   1
 -18  21   6 64.5525 5.24879  -2
  -3  21   6 64.5525 5.24879   1
 -21  21   6 66.1643 5.68250  -2
   0  21   6 66.1643 5.68250   1
 -24  21   6 51.6306 4.53919  -2
   3  21   6 51.6306 4.53919   1
   1  22   6 332.572 15.4631  -2
 -23  22   6 332.572 15.4631   1
  -2  22   6 63.2300 4.60160  -2
 -20  22   6 63.2300 4.60160   1
  -5  22   6 65.1079 4.93004  -2
 -17  22   6 65.1079 4.93004   1
  -8  22   6 158.562 7.19463  -2
 -14  22   6 158.562 7.19463   1
 -11  22   6 7.35635 2.70012  -2
 -11  22   6 7.35635 2.70012   1
 -14  22   6 143.183 6.93096  -2
  -8  22   6 143.183 6.93096   1
 -17  22   6 52.9332 4.57451  -2
  -5  22   6 52.9332 4.57451   1
 -20  22   6 59.0477 5.07165  -2
  -2  22   6 59.0477 5.07165   1
 -23  22   6 278.044 12.1225  -2
   1  22   6 278.044 12.1225   1
  -1  23   6 16.4296 3.16571  -2
 -22  23   6 16.4296 3.16571   1
  -4  23   6 57.0904 4.16350  -2
 -19  23   6 57.0904 4.16350   1
  -7  23   6 763.716 29.7600  -2
 -16  23   6 763.716 29.7600   1
 -10  23   6 528.538 24.7438  -2
 -13  23   6 528.538 24.7438   1
 -13  23   6 420.321 19.0654  -2
 -10  23   6 420.321 19.0654   1
 -16  23   6 585.677 25.4838  -2
  -7  23   6 585.677 25.4838   1
 -19  23   6 55.2842 4.85488  -2
  -4  23   6 55.2842 4.85488   1
 -22  23   6 25.5768 3.90541  -2
  -1  23   6 25.5768 3.90541   1
   0  24   6 203.386 8.92024  -2
 -24  24   6 203.386 8.92024   1
  -3  24   6 335.011 12.9104  -2
 -21  24   6 335.011 12.9104   1
  -6  24   6 477.279 17.2885  -2
 -18  24   6 477.279 17.2885   1
  -9  24   6 344.531 14.1301  -2
 -15  24   6 344.531 14.1301   1
 -12  24   6 341.848 15.8101  -2
 -12  24   6 341.848 15.8101   1
 -15  24   6 330.263 14.5217  -2
  -9  24   6 330.263 14.5217   1
 -18  24   6 450.702 17.8491  -2
  -6  24   6 450.702 17.8491   1
 -21  24   6 337.664 13.9990  -2
  -3  24   6 337.664 13.9990   1
 -24  24   6 219.499 10.4562  -2
   0  24   6 219.499 10.4562   1
  -5  25   6 271.668 10.8663  -2
 -20  25   6 271.668 10.8663   1
  -8  25   6 249.898 9.36012  -2
 -17  25   6 249.898 9.36012   1
 -11  25   6 167.044 9.29692  -2
 -14  25   6 167.044 9.29692   1
 -14  25   6 168.419 8.63060  -2
 -11  25   6 168.419 8.63060   1
 -17  25   6 240.358 11.3135  -2
  -8  25   6 240.358 11.3135   1
 -20  25   6 272.139 12.1592  -2
  -5  25   6 272.139 12.1592   1
  -7  26   6 398.659 15.8994  -2
 -19  26   6 398.659 15.8994   1
 -10  26   6 936.060 39.4042  -2
 -16  26   6 936.060 39.4042   1
 -13  26   6 1008.45 51.2523  -2
 -13  26   6 1008.45 51.2523   1
 -16  26   6 903.110 38.0913  -2
 -10  26   6 903.110 38.0913   1
 -19  26   6 319.185 15.4335  -2
  -7  26   6 319.185 15.4335   1
  -9  27   6 244.207 14.6677  -2
 -18  27   6 244.207 14.6677   1
 -12  27   6 370.811 17.1575  -2
 -15  27   6 370.811 17.1575   1
 -15  27   6 330.171 15.9185  -2
 -12  27   6 330.171 15.9185   1
 -18  27   6 235.279 10.8001  -2
  -9  27   6 235.279 10.8001   1
  -1   1   7 4.14566 1.77482   1
  -3   2   7 195.220 8.75083   1
   0   2   7 14.8159 1.91077   1
  -5   3   7 46.9964 2.85011   1
  -2   3   7 141.405 6.61992   1
   1   3   7 370.837 15.2143   1
  -7   4   7 123.899 5.61763   1
  -4   4   7 13.7380 2.03736   1
  -1   4   7 54.5860 3.81489   1
   2   4   7 192.326 8.11337   1
  -9   5   7 73.6737 4.56585   1
  -6   5   7 520.985 20.6645   1
  -3   5   7 364.830 15.4185   1
   0   5   7 110.218 5.01801   1
   3   5   7 1.97786 2.51029   1
 -11   6   7 43.5848 3.62454   1
  -8   6   7 28.0275 2.70296   1
  -5   6   7 234.102 10.1142   1
  -2   6   7 330.381 12.8280   1
   1   6   7 34.8799 2.93460   1
   4   6   7 75.8638 6.06543   1
 -13   7   7 554.369 34.9256   1
 -10   7   7 15.2630 2.82950   1
  -7   7   7 236.396 9.12791   1
  -4   7   7 79.3254 4.01955   1
  -1   7   7 122.162 7.02733   1
   2   7   7 146.211 7.61571   1
   5   7   7 221.373 14.4224   1
 -15   8   7 232.558 9.74452   1
 -12   8   7 3.51096 2.73780   1
  -9   8   7 324.486 14.9980   1
  -6   8   7 1005.83 38.9285   1
  -3   8   7 1058.76 44.1156   1
   0   8   7 322.701 16.5181   1
   3   8   7 2.46975 2.39281   1
   6   8   7 96.6182 6.39022   1
 -17   9   7 201.171 7.93424   1
 -14   9   7 109.511 5.81566   1
 -11   9   7 37.7042 3.18509   1
  -8   9   7 202.117 8.09383   1
  -5   9   7 714.091 30.2566   1
  -2   9   7 83.3867 4.17623   1
   1   9   7 33.7869 3.10165   1
   4   9   7 926.026 43.3462   1
   7   9   7 770.019 36.5583   1
 -19  10   7 358.684 12.7829   1
 -16  10   7 427.396 21.0123   1
 -13  10   7 56.8469 4.80151   1
 -10  10   7 4.50859 2.54234   1
  -7  10   7 170.140 6.81973   1
  -4  10   7 115.144 5.18374   1
  -1  10   7 334.031 14.3615   1
   2  10   7 599.743 28.9609   1
   5  10   7 365.396 16.1745   1
   8  10   7 164.509 9.72276   1
 -21  11   7 109.409 5.85389   1
 -18  11   7 95.1115 5.25483   1
 -15  11   7 38.3305 3.30988   1
 -12  11   7 1.75086 2.32936   1
  -9  11   7 406.100 16.9786   1
  -6  11   7 1441.42 65.6070   1
  -3  11   7 418.789 18.9097   1
   0  11   7 270.245 12.1606   1
   3  11   7 16.1614 2.67664   1
   6  11   7 66.5535 4.23901   1
   9  11   7 10.8758 2.93454   1
 -23  12   7 24.3329 3.78964   1
 -20  12   7 4.19400 2.80633   1
 -17  12   7 1.16643 2.53948   1
 -14  12   7 19.6833 2.97797   1
 -11  12   7 4.15463 2.29114   1
  -8  12   7 276.831 11.4899   1
  -5  12   7 205.780 8.55672   1
  -2  12   7 11.8082 2.60027   1
   1  12   7 160.570 8.64752   1
   4  12   7 449.730 23.6959   1
   7  12   7 252.339 12.1478   1
  10  12   7 181.142 8.37929   1
 -22  13   7 8.39704 3.02834   1
 -19  13   7 14.7189 2.88965   1
 -16  13   7 0.32202 2.72820   1
 -13  13   7 68.5850 4.02861   1
 -10  13   7 42.8470 3.36164   1
  -7  13   7 175.253 7.14855   1
  -4  13   7 11.6509 2.77428   1
  -1  13   7 165.126 8.24892   1
   2  13   7 254.560 11.9780   1
   5  13   7 116.476 6.69713   1
   8  13   7 133.304 7.11536   1
  11  13   7 -2.9424 3.29101   1
 -24  14   7 40.3807 4.79846   1
 -21  14   7 -1.6284 2.76284   1
 -18  14   7 3.53340 2.70728   1
 -15  14   7 -1.8043 2.22319   1
 -12  14   7 56.6256 3.58327   1
  -9  14   7 530.186 20.4941   1
  -6  14   7 158.575 7.84001   1
  -3  14   7 32.6459 3.10109   1
   0  14   7 2.14986 2.70996   1
   3  14   7 24.8252 3.04439   1
   6  14   7 13.1818 3.31697   1
   9  14   7 49.2648 4.37464   1
 -23  15   7 8.99832 3.13715   1
 -20  15   7 82.1709 4.94653   1
 -17  15   7 33.9300 3.62779   1
 -14  15   7 17.7038 2.56830   1
 -11  15   7 23.4234 3.37311   1
  -8  15   7 62.3844 4.49014   1
  -5  15   7 58.9301 4.94066   1
  -2  15   7 9.46443 2.81444   1
   1  15   7 124.012 6.58103   1
   4  15   7 145.506 7.28965   1
   7  15   7 94.3763 6.24844   1
 -22  16   7 30.4573 3.45561   1
 -19  16   7 123.862 6.58638   1
 -16  16   7 26.0821 2.94938   1
 -13  16   7 87.2681 5.14514   1
 -10  16   7 15.5747 2.88418   1
  -7  16   7 70.0694 5.34983   1
  -4  16   7 115.054 6.52378   1
  -1  16   7 5.86314 2.76807   1
   2  16   7 40.1717 3.87243   1
   5  16   7 64.1170 4.99616   1
 -21  17   7 11.6027 3.46171   1
 -18  17   7 2.54838 2.60394   1
 -15  17   7 4.41709 2.50467   1
 -12  17   7 31.6427 3.00575   1
  -9  17   7 130.845 8.25121   1
  -6  17   7 53.9456 4.14714   1
  -3  17   7 204.134 10.4761   1
   0  17   7 18.0413 3.33464   1
   3  17   7 12.9891 3.40872   1
   6  17   7 26.9535 3.82612   1
 -20  18   7 318.601 12.6409   1
 -17  18   7 194.970 8.47761   1
 -14  18   7 135.824 6.41751   1
 -11  18   7 42.8380 3.90762   1
  -8  18   7 3.53032 2.95690   1
  -5  18   7 24.8799 3.70480   1
  -2  18   7 8.92883 3.12042   1
   1  18   7 1.97509 3.20139   1
   4  18   7 4.68186 3.37252   1
 -22  19   7 105.210 7.53662   1
 -19  19   7 256.857 10.4098   1
 -16  19   7 49.4941 3.83265   1
 -13  19   7 99.4410 5.68359   1
 -10  19   7 331.565 14.2248   1
  -7  19   7 377.948 15.1516   1
  -4  19   7 245.402 12.1336   1
  -1  19   7 27.7217 3.65703   1
   2  19   7 22.5395 3.75868   1
 -21  20   7 21.6820 3.11511   1
 -18  20   7 -0.4273 2.67620   1
 -15  20   7 3.62768 2.76218   1
 -12  20   7 156.884 8.42224   1
  -9  20   7 262.751 11.2950   1
  -6  20   7 208.850 9.57705   1
  -3  20   7 132.187 7.03512   1
   0  20   7 3.22295 3.30671   1
 -20  21   7 336.317 14.7766   1
 -17  21   7 112.584 6.38056   1
 -14  21   7 164.256 8.69574   1
 -11  21   7 7.45288 3.42745   1
  -8  21   7 33.9837 3.65108   1
  -5  21   7 4.56135 3.19970   1
  -2  21   7 1.53347 3.19358   1
 -19  22   7 224.998 9.71769   1
 -16  22   7 115.688 6.97543   1
 -13  22   7 89.0632 6.36648   1
 -10  22   7 381.474 21.0115   1
  -7  22   7 390.132 21.5971   1
  -4  22   7 150.525 7.92508   1
 -15  23   7 246.455 13.3437   1
 -12  23   7 156.415 10.8693   1
  -9  23   7 325.692 18.4334   1
  -6  23   7 188.195 10.7180   1
 -14  24   7 20.8253 3.63589   1
 -11  24   7 49.3316 4.62361   1
   0   1   8 0.65905 1.88388   1
  -2   2   8 1.27060 2.14957   1
   1   2   8 102.327 6.05692   1
  -4   3   8 115.370 7.47130   1
  -1   3   8 0.58538 2.09294   1
   2   3   8 24.8215 2.64150   1
  -6   4   8 105.321 6.41360   1
  -3   4   8 1.05299 1.96395   1
   0   4   8 214.945 11.6958   1
   3   4   8 311.578 19.3959   1
  -8   5   8 3.55334 2.35112   1
  -5   5   8 18.5046 2.21423   1
  -2   5   8 41.1449 3.66296   1
   1   5   8 185.635 10.5534   1
   4   5   8 320.651 19.8239   1
 -10   6   8 247.016 16.1103   1
  -7   6   8 113.917 6.51826   1
  -4   6   8 16.6411 2.20761   1
  -1   6   8 50.3697 4.90207   1
   2   6   8 3.16804 2.31829   1
   5   6   8 -1.5534 2.38495   1
 -12   7   8 121.230 9.64194   1
  -9   7   8 222.629 12.0848   1
  -6   7   8 16.8706 2.44982   1
  -3   7   8 169.279 8.50428   1
   0   7   8 188.030 13.4813   1
   3   7   8 338.185 20.8098   1
   6   7   8 82.9416 5.96912   1
 -14   8   8 2.99976 3.36315   1
 -11   8   8 11.7975 2.48053   1
  -8   8   8 3.96949 2.32443   1
  -5   8   8 0.46976 1.98446   1
  -2   8   8 21.1758 2.69117   1
   1   8   8 168.935 10.4639   1
   4   8   8 143.030 10.7401   1
   7   8   8 5.05408 2.83498   1
 -16   9   8 0.39271 2.86579   1
 -13   9   8 53.2179 4.11755   1
 -10   9   8 92.3145 5.42790   1
  -7   9   8 3.25510 2.37663   1
  -4   9   8 142.814 7.21207   1
  -1   9   8 34.7256 3.09783   1
   2   9   8 14.0127 3.14231   1
   5   9   8 10.0109 3.14103   1
   8   9   8 18.7388 2.90920   1
 -18  10   8 187.244 10.7647   1
 -15  10   8 15.6882 2.53610   1
 -12  10   8 1.24684 2.58568   1
  -9  10   8 89.4617 6.74435   1
  -6  10   8 4.98267 2.46699   1
  -3  10   8 89.4271 5.57896   1
   0  10   8 109.748 7.91003   1
   3  10   8 214.071 13.0421   1
   6  10   8 12.4755 2.81063   1
   9  10   8 111.962 6.60471   1
 -17  11   8 18.6857 3.14910   1
 -14  11   8 1.67138 2.44337   1
 -11  11   8 12.8497 2.66460   1
  -8  11   8 251.495 12.8806   1
  -5  11   8 45.2599 3.48688   1
  -2  11   8 5.47886 2.89231   1
   1  11   8 107.560 9.38007   1
   4  11   8 150.072 8.18924   1
   7  11   8 61.4000 4.36462   1
 -19  12   8 66.6691 10.5104   1
 -16  12   8 1.50004 2.51790   1
 -13  12   8 4.12973 2.37724   1
 -10  12   8 13.2928 2.75139   1
  -7  12   8 90.0874 8.93290   1
  -4  12   8 4.93799 2.89247   1
  -1  12   8 7.57533 2.85046   1
   2  12   8 31.3679 3.75354   1
   5  12   8 1.62704 2.79305   1
 -18  13   8 150.383 7.02874   1
 -15  13   8 2.30307 2.47353   1
 -12  13   8 13.6738 2.90468   1
  -9  13   8 211.890 11.4275   1
  -6  13   8 31.6206 3.65276   1
  -3  13   8 4.63041 2.80149   1
   0  13   8 1.90790 3.01362   1
   3  13   8 24.3082 3.15810   1
 -17  14   8 7.06697 2.65501   1
 -14  14   8 82.4257 5.25102   1
 -11  14   8 466.216 22.3308   1
  -8  14   8 953.133 55.9194   1
  -5  14   8 127.600 9.22010   1
  -2  14   8 -4.3253 2.70069   1
   1  14   8 47.3482 3.60694   1
   4  14   8 3.25340 3.25437   1
 -16  15   8 80.4327 5.32974   1
 -13  15   8 284.673 12.0838   1
 -10  15   8 350.055 20.2455   1
  -7  15   8 275.171 15.2349   1
  -4  15   8 8.84222 2.95718   1
  -1  15   8 54.4413 4.57423   1
   2  15   8 14.5167 3.26367   1
 -15  16   8 5.31764 2.65556   1
 -12  16   8 5.61350 2.97609   1
  -9  16   8 44.3390 4.31818   1
  -6  16   8 22.4879 3.23748   1
  -3  16   8 -3.1778 3.03654   1
   0  16   8 27.5747 3.48545   1
 -14  17   8 411.281 18.9065   1
 -11  17   8 531.189 29.7259   1
  -8  17   8 419.389 29.9259   1
  -5  17   8 -1.9793 3.18475   1
  -2  17   8 67.0293 6.20658   1
 -13  18   8 204.917 10.1267   1
 -10  18   8 149.924 7.88816   1
  -7  18   8 17.1120 4.11900   1
  -4  18   8 86.5704 5.59185   1
 -12  19   8 22.7540 4.56844   1
  -9  19   8 51.5474 4.47080   1
   0   0   9 157.952 16.2950  -2
   0   0   9 157.952 16.2950   1
   1   1   9 166.031 9.84950  -2
   1   1   9 166.031 9.84950   1
  -1   2   9 1177.22 49.4296  -2
  -1   2   9 1177.22 49.4296   1
   2   2   9 358.805 22.2937  -2
   2   2   9 358.805 22.2937   1
   0   3   9 80.9347 6.67048  -2
  -3   3   9 80.9347 6.67048   1
  -3   3   9 75.9472 6.37212  -2
   0   3   9 75.9472 6.37212   1
   3   3   9 8.56712 3.66238  -2
   3   3   9 8.56712 3.66238   1
   1   4   9 141.846 10.7647  -2
  -5   4   9 141.846 10.7647   1
  -2   4   9 111.960 7.59049  -2
  -2   4   9 111.960 7.59049   1
  -5   4   9 133.341 8.68082  -2
   1   4   9 133.341 8.68082   1
   4   4   9 56.2406 5.90124  -2
   4   4   9 56.2406 5.90124   1
   2   5   9 49.1315 4.85146  -2
  -7   5   9 49.1315 4.85146   1
  -1   5   9 308.251 19.5475  -2
  -4   5   9 308.251 19.5475   1
  -4   5   9 242.124 16.0025  -2
  -1   5   9 242.124 16.0025   1
  -7   5   9 47.0095 4.72632  -2
   2   5   9 47.0095 4.72632   1
   5   5   9 46.1508 5.32302  -2
   5   5   9 46.1508 5.32302   1
   3   6   9 3.38658 3.72591  -2
  -9   6   9 3.38658 3.72591   1
   0   6   9 36.5232 5.58631  -2
  -6   6   9 36.5232 5.58631   1
  -3   6   9 146.565 9.02458  -2
  -3   6   9 146.565 9.02458   1
  -6   6   9 33.6351 5.39607  -2
   0   6   9 33.6351 5.39607   1
  -9   6   9 1.79479 3.69401  -2
   3   6   9 1.79479 3.69401   1
   4   7   9 46.5145 4.17726  -2
 -11   7   9 46.5145 4.17726   1
   1   7   9 114.397 9.47711  -2
  -8   7   9 114.397 9.47711   1
  -2   7   9 25.8590 4.38398  -2
  -5   7   9 25.8590 4.38398   1
  -5   7   9 28.3114 3.77913  -2
  -2   7   9 28.3114 3.77913   1
  -8   7   9 114.507 9.56522  -2
   1   7   9 114.507 9.56522   1
 -11   7   9 56.5664 5.37503  -2
   4   7   9 56.5664 5.37503   1
   2   8   9 44.2465 4.81212  -2
 -10   8   9 44.2465 4.81212   1
  -1   8   9 18.5732 3.72758  -2
  -7   8   9 18.5732 3.72758   1
  -4   8   9 23.9458 4.43752  -2
  -4   8   9 23.9458 4.43752   1
  -7   8   9 18.0870 3.80917  -2
  -1   8   9 18.0870 3.80917   1
 -10   8   9 30.3121 5.66365  -2
   2   8   9 30.3121 5.66365   1
   0   9   9 159.092 12.0350  -2
  -9   9   9 159.092 12.0350   1
  -3   9   9 28.9323 4.38959  -2
  -6   9   9 28.9323 4.38959   1
  -6   9   9 33.3072 3.95520  -2
  -3   9   9 33.3072 3.95520   1
  -9   9   9 197.583 19.7900  -2
   0   9   9 197.583 19.7900   1
  -2  10   9 297.033 27.0542  -2
  -8  10   9 297.033 27.0542   1
  -5  10   9 49.8876 7.69007  -2
  -5  10   9 49.8876 7.69007   1
  -8  10   9 440.622 33.4840  -2
  -2  10   9 440.622 33.4840   1
  -4  11   9 69.7739 11.9125  -2
  -7  11   9 69.7739 11.9125   1
  -7  11   9 171.189 11.8479  -2
  -4  11   9 171.189 11.8479   1
   0   0   0    0.00    0.00   0
;
_shelx_hkl_checksum              80327
_olex2_submission_special_instructions 'No special instructions were received'
loop_
_space_group_symop_operation_xyz
'x, y, z'
'-y, x-y, z'
'-x+y, -x, z'
'x+2/3, y+1/3, z+1/3'
'-y+2/3, x-y+1/3, z+1/3'
'-x+y+2/3, -x+1/3, z+1/3'
'x+1/3, y+2/3, z+2/3'
'-y+1/3, x-y+2/3, z+2/3'
'-x+y+1/3, -x+2/3, z+2/3'
'-x, -y, -z'
'y, -x+y, -z'
'x-y, x, -z'
'-x+2/3, -y+1/3, -z+1/3'
'y+2/3, -x+y+1/3, -z+1/3'
'x-y+2/3, x+1/3, -z+1/3'
'-x+1/3, -y+2/3, -z+2/3'
'y+1/3, -x+y+2/3, -z+2/3'
'x-y+1/3, x+2/3, -z+2/3'
loop_
_atom_site_label
_atom_site_type_symbol
_atom_site_fract_x
_atom_site_fract_y
_atom_site_fract_z
_atom_site_U_iso_or_equiv
_atom_site_adp_type
_atom_site_occupancy
_atom_site_site_symmetry_order
_atom_site_calc_flag
_atom_site_refinement_flags_posn
_atom_site_refinement_flags_occupancy
Co1 Co 0.63387(2) 0.68528(2) 0.48290(5) 0.01028(13) Uani 1 1 d . .
O2 O 0.65722(9) 0.69511(9) 1.0262(3) 0.0127(4) Uani 1 1 d . .
O1 O 0.68966(9) 0.74858(9) 0.6709(3) 0.0130(4) Uani 1 1 d . .
O3 O 0.63515(9) 0.73915(9) 1.2652(3) 0.0142(4) Uani 1 1 d . .
C4 C 0.65052(12) 0.73726(12) 1.0915(4) 0.0116(5) Uani 1 1 d . .
C1 C 0.67804(12) 0.78872(12) 0.7563(4) 0.0139(5) Uani 1 1 d . .
C3 C 0.64898(13) 0.83049(13) 1.0246(4) 0.0145(5) Uani 1 1 d . .
H3 H 0.636700 0.828184 1.157057 0.017 Uiso 1 1 calc R .
C2 C 0.65986(12) 0.78599(12) 0.9533(4) 0.0136(5) Uani 1 1 d . .
C5 C 0.5376(2) 0.6674(2) 0.6706(7) 0.0270(10) Uani 0.795(9) 1 d . P
H5A H 0.514169 0.628395 0.617309 0.032 Uiso 0.795(9) 1 calc R P
H5B H 0.560231 0.673093 0.786610 0.032 Uiso 0.795(9) 1 calc R P
C6 C 0.5388(2) 0.7125(2) 0.5857(8) 0.0301(11) Uani 0.795(9) 1 d . P
H6 H 0.563212 0.750045 0.647580 0.036 Uiso 0.795(9) 1 calc R P
C7 C 0.5074(3) 0.7148(3) 0.4042(9) 0.0433(14) Uani 0.795(9) 1 d . P
H7A H 0.479973 0.729788 0.438866 0.052 Uiso 0.795(9) 1 calc R P
H7B H 0.537467 0.743658 0.311245 0.052 Uiso 0.795(9) 1 calc R P
C8 C 0.4726(4) 0.6558(4) 0.3054(13) 0.067(2) Uani 0.795(9) 1 d . P
H8A H 0.459740 0.661374 0.175855 0.101 Uiso 0.795(9) 1 calc GR P
H8B H 0.437404 0.629590 0.384575 0.101 Uiso 0.795(9) 1 calc GR P
H8C H 0.497764 0.637505 0.290669 0.101 Uiso 0.795(9) 1 calc GR P
loop_
_atom_site_aniso_label
_atom_site_aniso_U_11
_atom_site_aniso_U_22
_atom_site_aniso_U_33
_atom_site_aniso_U_23
_atom_site_aniso_U_13
_atom_site_aniso_U_12
Co1 0.00887(19) 0.00706(18) 0.0151(2) 0.00033(12) 0.00002(12) 0.00414(13)
O2 0.0125(9) 0.0092(8) 0.0178(9) 0.0018(7) 0.0020(7) 0.0066(7)
O1 0.0128(9) 0.0095(8) 0.0186(9) -0.0013(7) -0.0001(7) 0.0071(7)
O3 0.0170(9) 0.0129(9) 0.0159(9) 0.0018(7) 0.0028(7) 0.0098(8)
C4 0.0093(11) 0.0082(11) 0.0174(11) 0.0010(9) -0.0007(9) 0.0044(9)
C1 0.0122(11) 0.0098(11) 0.0206(12) -0.0004(9) -0.0007(10) 0.0061(10)
C3 0.0150(12) 0.0120(12) 0.0178(12) 0.0013(9) 0.0003(10) 0.0077(10)
C2 0.0127(12) 0.0097(11) 0.0184(12) -0.0003(9) -0.0021(9) 0.0055(9)
C5 0.026(2) 0.0204(19) 0.041(2) -0.0119(17) -0.0131(18) 0.0158(17)
C6 0.019(2) 0.030(2) 0.041(3) 0.0034(19) 0.0011(17) 0.0117(18)
C7 0.036(3) 0.054(4) 0.052(3) 0.005(3) -0.003(2) 0.031(3)
C8 0.076(5) 0.069(5) 0.075(5) -0.025(4) -0.031(4) 0.050(5)
loop_
_atom_type_symbol
_atom_type_description
_atom_type_scat_dispersion_real
_atom_type_scat_dispersion_imag
_atom_type_scat_source
C C 0.0040 0.0020
'ANOMDisVal Program in PLATON Spek, A. L. J. Appl. Crystallogr. 2003, 36, 7-13'
H H 0.0000 0.0000
'ANOMDisVal Program in PLATON Spek, A. L. J. Appl. Crystallogr. 2003, 36, 7-13'
Co Co 0.3550 1.1300
'ANOMDisVal Program in PLATON Spek, A. L. J. Appl. Crystallogr. 2003, 36, 7-13'
O O 0.0140 0.0070
'ANOMDisVal Program in PLATON Spek, A. L. J. Appl. Crystallogr. 2003, 36, 7-13'
loop_
_geom_angle_atom_site_label_1
_geom_angle_atom_site_label_2
_geom_angle_atom_site_label_3
_geom_angle
_geom_angle_site_symmetry_1
_geom_angle_site_symmetry_3
O2 Co1 O2 81.09(2) 8_654 6_564
O1 Co1 O2 92.14(8) . 6_564
O1 Co1 O2 82.10(8) . 8_654
O1 Co1 O2 82.58(8) 8_654 8_654
O1 Co1 O2 80.99(8) 8_654 6_564
O1 Co1 O1 164.02(9) . 8_654
O1 Co1 O3 96.15(8) 8_654 1_554
O1 Co1 O3 98.70(8) . 1_554
O3 Co1 O2 174.83(8) 1_554 8_654
O3 Co1 O2 93.77(8) 1_554 6_564
Co1 O2 Co1 92.29(8) 6_565 8_655
C4 O2 Co1 134.20(18) . 8_655
C4 O2 Co1 128.19(17) . 6_565
Co1 O1 Co1 98.10(8) . 6_565
C1 O1 Co1 123.86(17) . .
C1 O1 Co1 124.24(17) . 6_565
C4 O3 Co1 124.19(18) . 1_556
O2 C4 C2 117.9(2) . .
O3 C4 O2 123.1(2) . .
O3 C4 C2 119.0(2) . .
O1 C1 C3 117.5(2) . 16_666
O1 C1 C2 124.7(2) . .
C3 C1 C2 117.8(2) 16_666 .
C1 C3 C2 123.0(3) 16_666 .
C1 C2 C4 123.6(2) . .
C3 C2 C4 117.2(3) . .
C3 C2 C1 119.2(2) . .
C5 C6 C7 129.8(5) . .
C8 C7 C6 113.3(6) . .
loop_
_geom_bond_atom_site_label_1
_geom_bond_atom_site_label_2
_geom_bond_distance
_geom_bond_site_symmetry_2
Co1 O2 2.1267(19) 6_564
Co1 O2 2.087(2) 8_654
Co1 O1 2.015(2) 8_654
Co1 O1 2.009(2) .
Co1 O3 2.024(2) 1_554
O2 C4 1.265(3) .
O1 C1 1.347(3) .
O3 C4 1.258(3) .
C4 C2 1.492(4) .
C1 C3 1.390(4) 16_666
C1 C2 1.414(4) .
C3 C2 1.399(4) .
C5 C6 1.289(7) .
C6 C7 1.496(7) .
C7 C8 1.489(10) .
loop_
_geom_torsion_atom_site_label_1
_geom_torsion_atom_site_label_2
_geom_torsion_atom_site_label_3
_geom_torsion_atom_site_label_4
_geom_torsion
_geom_torsion_site_symmetry_1
_geom_torsion_site_symmetry_4
Co1 O2 C4 O3 -146.7(2) 6_565 .
Co1 O2 C4 O3 0.1(4) 8_655 .
Co1 O2 C4 C2 35.0(3) 6_565 .
Co1 O2 C4 C2 -178.31(18) 8_655 .
Co1 O1 C1 C3 -76.0(3) . 16_666
Co1 O1 C1 C3 152.6(2) 6_565 16_666
Co1 O1 C1 C2 -27.5(4) 6_565 .
Co1 O1 C1 C2 104.0(3) . .
Co1 O3 C4 O2 12.3(4) 1_556 .
Co1 O3 C4 C2 -169.38(18) 1_556 .
O2 C4 C2 C1 -2.6(4) . .
O2 C4 C2 C3 176.5(3) . .
O1 C1 C2 C4 -0.8(4) . .
O1 C1 C2 C3 -179.8(3) . .
O3 C4 C2 C1 179.0(3) . .
O3 C4 C2 C3 -2.0(4) . .
C1 C3 C2 C4 -179.2(3) 16_666 .
C1 C3 C2 C1 -0.1(5) 16_666 .
C3 C1 C2 C4 179.2(3) 16_666 .
C3 C1 C2 C3 0.1(4) 16_666 .
C5 C6 C7 C8 -3.5(9) . .
loop_
_twin_individual_id
_twin_individual_mass_fraction_refined
1 0.543(2)
2 0.457(2)
