#------------------------------------------------------------------------------
#$Date: 2019-12-14 02:10:58 +0200 (Sat, 14 Dec 2019) $
#$Revision: 245111 $
#$URL: file:///home/coder/svn-repositories/cod/cif/4/13/37/4133765.cif $
#------------------------------------------------------------------------------
#
# This file is available in the Crystallography Open Database (COD),
# http://www.crystallography.net/
#
# All data on this site have been placed in the public domain by the
# contributors.
#
data_4133765
loop_
_publ_author_name
'Zeng, Heng'
'Xie, Xiao-Jing'
'Xie, Mo'
'Huang, Yong-Liang'
'Luo, Dong'
'Wang, Ting'
'Zhao, Yifang'
'Lu, Weigang'
'Li, Dan'
_publ_section_title
;
 Cage-Interconnected Metal-Organic Framework with Tailored Apertures for
 Efficient C<sub>2</sub>H<sub>6</sub>/C<sub>2</sub>H<sub>4</sub>
 Separation under Humid Conditions.
;
_journal_name_full               'Journal of the American Chemical Society'
_journal_paper_doi               10.1021/jacs.9b10923
_journal_year                    2019
_chemical_formula_moiety         '0.01(C1248 H768 Cu96 N864 O384 Zn192)'
_chemical_formula_sum            'C13 H8 Cu N9 O4 Zn2'
_chemical_formula_weight         548.56
_space_group_crystal_system      cubic
_space_group_IT_number           226
_space_group_name_Hall           '-F 4a 2 3'
_space_group_name_H-M_alt        'F m -3 c'
_atom_sites_solution_hydrogens   geom
_atom_sites_solution_primary     dual
_audit_creation_date             2019-06-19
_audit_creation_method
;
Olex2 1.2-beta
(compiled 2018.05.29 svn.r3508 for OlexSys, GUI svn.r5506)
;
_cell_angle_alpha                90
_cell_angle_beta                 90
_cell_angle_gamma                90
_cell_formula_units_Z            96
_cell_length_a                   43.5489(3)
_cell_length_b                   43.5489(3)
_cell_length_c                   43.5489(3)
_cell_measurement_reflns_used    3732
_cell_measurement_temperature    100.00(10)
_cell_measurement_theta_max      74.3360
_cell_measurement_theta_min      2.8630
_cell_volume                     82590.8(10)
_computing_cell_refinement       'CrysAlisPro 1.171.39.33c (Rigaku OD, 2017)'
_computing_data_collection       'CrysAlisPro 1.171.39.33c (Rigaku OD, 2017)'
_computing_data_reduction        'CrysAlisPro 1.171.39.33c (Rigaku OD, 2017)'
_computing_molecular_graphics    'Olex2 (Dolomanov et al., 2009)'
_computing_publication_material  'Olex2 (Dolomanov et al., 2009)'
_computing_structure_refinement  'ShelXL (Sheldrick, 2015)'
_computing_structure_solution    'ShelXT (Sheldrick, 2015)'
_diffrn_ambient_environment      N~2~
_diffrn_ambient_temperature      100.00(10)
_diffrn_detector                 'CCD plate'
_diffrn_measured_fraction_theta_full 0.998
_diffrn_measured_fraction_theta_max 0.984
_diffrn_measurement_details
;
List of Runs (angles in degrees, time in seconds):

  # Type    Start    End  Width  t~exp~   \w     \q     \k     \f   Frames
--------------------------------------------------------------------------
  1  \w    -30.00   4.00   0.50   12.01    --   -0.90 -82.00-146.00   68
  2  \w     54.00  79.00   0.50   20.00    --  105.10 -82.00-146.00   50
  3  \w    116.00 194.00   0.50   20.00    --  105.10  82.00-180.00  156
;
_diffrn_measurement_device       'four-circle diffractometer'
_diffrn_measurement_device_type  'XtaLAB AFC12 (RINC): Kappa single'
_diffrn_measurement_method       '\w scans'
_diffrn_orient_matrix_type
'CrysAlisPro convention (1999,Acta A55,543-557)'
_diffrn_orient_matrix_UB_11      0.0014958000
_diffrn_orient_matrix_UB_12      -0.0261389000
_diffrn_orient_matrix_UB_13      -0.0238020000
_diffrn_orient_matrix_UB_21      -0.0319078000
_diffrn_orient_matrix_UB_22      0.0092015000
_diffrn_orient_matrix_UB_23      -0.0121645000
_diffrn_orient_matrix_UB_31      0.0151750000
_diffrn_orient_matrix_UB_32      0.0220282000
_diffrn_orient_matrix_UB_33      -0.0231513000
_diffrn_radiation_monochromator  mirror
_diffrn_radiation_probe          x-ray
_diffrn_radiation_type           CuK\a
_diffrn_radiation_wavelength     1.54184
_diffrn_reflns_av_R_equivalents  0.0569
_diffrn_reflns_av_unetI/netI     0.0394
_diffrn_reflns_Laue_measured_fraction_full 0.998
_diffrn_reflns_Laue_measured_fraction_max 0.984
_diffrn_reflns_limit_h_max       46
_diffrn_reflns_limit_h_min       -36
_diffrn_reflns_limit_k_max       49
_diffrn_reflns_limit_k_min       -44
_diffrn_reflns_limit_l_max       26
_diffrn_reflns_limit_l_min       -53
_diffrn_reflns_number            20115
_diffrn_reflns_point_group_measured_fraction_full 0.998
_diffrn_reflns_point_group_measured_fraction_max 0.984
_diffrn_reflns_theta_full        67.684
_diffrn_reflns_theta_max         77.604
_diffrn_reflns_theta_min         2.870
_diffrn_source                   'Rotating-anode X-ray tube (dual wavelength)'
_diffrn_source_type              'Rigaku (Cu) X-ray DW Source'
_exptl_absorpt_coefficient_mu    2.557
_exptl_absorpt_correction_T_max  1.00000
_exptl_absorpt_correction_T_min  0.98599
_exptl_absorpt_correction_type   multi-scan
_exptl_absorpt_process_details
;
CrysAlisPro 1.171.39.33c (Rigaku Oxford Diffraction, 2017)
Empirical absorption correction using spherical harmonics,
 implemented in SCALE3 ABSPACK scaling algorithm.
;
_exptl_crystal_colour            'clear light blue'
_exptl_crystal_colour_lustre     clear
_exptl_crystal_colour_modifier   light
_exptl_crystal_colour_primary    blue
_exptl_crystal_density_diffrn    1.059
_exptl_crystal_description       block
_exptl_crystal_F_000             25920
_exptl_crystal_size_max          0.1
_exptl_crystal_size_mid          0.1
_exptl_crystal_size_min          0.06
_refine_diff_density_max         0.334
_refine_diff_density_min         -0.425
_refine_diff_density_rms         0.068
_refine_ls_extinction_method     none
_refine_ls_goodness_of_fit_ref   1.073
_refine_ls_hydrogen_treatment    constr
_refine_ls_matrix_type           full
_refine_ls_number_parameters     160
_refine_ls_number_reflns         3780
_refine_ls_number_restraints     185
_refine_ls_restrained_S_all      1.057
_refine_ls_R_factor_all          0.0652
_refine_ls_R_factor_gt           0.0500
_refine_ls_shift/su_max          0.002
_refine_ls_shift/su_mean         0.000
_refine_ls_structure_factor_coef Fsqd
_refine_ls_weighting_details
'w=1/[\s^2^(Fo^2^)+(0.0648P)^2^+229.8520P] where P=(Fo^2^+2Fc^2^)/3'
_refine_ls_weighting_scheme      calc
_refine_ls_wR_factor_gt          0.1279
_refine_ls_wR_factor_ref         0.1347
_reflns_Friedel_coverage         0.000
_reflns_number_gt                2733
_reflns_number_total             3780
_reflns_threshold_expression     'I > 2\s(I)'
_cod_data_source_file            ja9b10923_si_002.cif
_cod_data_source_block           Desolvated_JNU-2
_cod_original_cell_volume        82590.8(17)
_cod_original_sg_symbol_Hall     '-F 4c 2 3'
_cod_database_code               4133765
_shelx_shelxl_version_number     2018/3
_shelx_space_group_comment
;
The symmetry employed for this shelxl refinement is uniquely defined
by the following loop, which should always be used as a source of
symmetry information in preference to the above space-group names.
They are only intended as comments.
;
_shelx_estimated_absorpt_t_max   0.862
_shelx_estimated_absorpt_t_min   0.784
_reflns_odcompleteness_completeness 99.75
_reflns_odcompleteness_iscentric 1
_reflns_odcompleteness_theta     66.97
_olex2_refinement_description
;
1. Fixed Uiso
 At 1.2 times of:
  All C(H) groups, All N(H,H) groups
2. Restrained distances
 C11-N2
 1.365 with sigma of 0.007
 C3-N2
 1.352 with sigma of 0.013
 C3-N4
 1.318 with sigma of 0.009
 C5-N4
 1.387 with sigma of 0.007
 C11-C5
 1.389 with sigma of 0.009
 C5-C6
 1.409 with sigma of 0.01
 C6-N8
 1.35 with sigma of 0.01
 C6-N7
 1.337 with sigma of 0.014
 C9-N8
 1.334 with sigma of 0.011
 C9-N10
 1.334 with sigma of 0.011
 C11-N10
 1.343 with sigma of 0.013
 C11-C3
 2.176 with sigma of 0.014
 N4-N2
 2.239 with sigma of 0.015
 C5-C3
 2.128 with sigma of 0.012
 C11-N4
 2.28 with sigma of 0.013
 C6-N4
 2.555 with sigma of 0.016
 C11-C6
 2.382 with sigma of 0.04
 C5-N8
 2.36 with sigma of 0.017
 C5-N7
 2.419 with sigma of 0.02
 N8-N7
 2.306 with sigma of 0.021
 C9-C6
 2.308 with sigma of 0.018
 N8-N10
 2.405 with sigma of 0.017
 C9-C11
 2.267 with sigma of 0.04
 C5-N2
 2.197 with sigma of 0.012
 N10-N2
 2.418 with sigma of 0.02
 C5-N10
 2.441 with sigma of 0.017
 Cu1-N2 \\sim N2-Cu0A
 with sigma of 0.02
3. Restrained planarity
 C11, N2, C5, N10
 with sigma of 0.1
 C6, C5, N7, N8
 with sigma of 0.1
 C5, N4, C6, C11
 with sigma of 0.1
 N2, C3, N4, C5
 with sigma of 0.1
 C3, N4, C5, C11
 with sigma of 0.1
 N4, C5, C11, N2
 with sigma of 0.1
 C5, C11, N2, C3
 with sigma of 0.1
 C11, N2, C3, N4
 with sigma of 0.1
 C5, C6, N8, C9
 with sigma of 0.1
 C6, N8, C9, N10
 with sigma of 0.1
 N8, C9, N10, C11
 with sigma of 0.1
 C9, N10, C11, C5
 with sigma of 0.1
 N10, C11, C5, C6
 with sigma of 0.1
 C11, C5, C6, N8
 with sigma of 0.1
4. Uiso/Uaniso restraints and constraints
N2 \\sim C3 \\sim N4 \\sim C5 \\sim C6 \\sim N7 \\sim N8 \\sim C9 \\sim N10
\\sim C11: within 2A with sigma of 0.04 and sigma for terminal atoms of 0.08
5. Rigid body (RIGU) restrains
 N2, C3, N4, C5, C6, N7, N8, C9, N10, C11
 with sigma for 1-2 distances of 0.004 and sigma for 1-3 distances of 0.004
6. Others
 Fixed Sof: N2(0.5) C3(0.5) H3(0.5) N4(0.5) C5(0.5) C6(0.5) N7(0.5) H7A(0.5)
 H7B(0.5) N8(0.5) C9(0.5) H9(0.5) N10(0.5) C11(0.5) Cu1(0.25) Cu0A(0.25)
7.a Free rotating group:
 N2(C3,N4,C5,C6,N7,N8,C9,N10,C11)
7.b Aromatic/amide H refined with riding coordinates:
 C00A(H00A), C00B(H00B), C3(H3), C9(H9)
7.c X=CH2 refined with riding coordinates:
 N7(H7A,H7B)
;
_shelx_res_file
;
TITL xxj-dmf-xifu_a.res in Fm-3c
    xxj-dmf-xifu.res
    created by SHELXL-2018/3 at 11:15:58 on 19-Jun-2019
REM Old TITL XXJ-DMF-XIFU in Fm-3c
REM SHELXT solution in Fm-3c: R1 0.236, Rweak 0.010, Alpha 0.039
REM <I/s> 1.433 for 404 systematic absences, Orientation as input
REM Formula found by SHELXT: C72 N9 O36 Br8
CELL 1.54184 43.5489 43.5489 43.5489 90 90 90
ZERR 96 0.0003 0.0003 0.0003 0 0 0
LATT 4
SYMM -X,-Y,+Z
SYMM -X,+Y,-Z
SYMM +X,-Y,-Z
SYMM +Z,+X,+Y
SYMM +Z,-X,-Y
SYMM -Z,-X,+Y
SYMM -Z,+X,-Y
SYMM +Y,+Z,+X
SYMM -Y,+Z,-X
SYMM +Y,-Z,-X
SYMM -Y,-Z,+X
SYMM 0.5+Y,0.5+X,0.5-Z
SYMM 0.5-Y,0.5-X,0.5-Z
SYMM 0.5+Y,0.5-X,0.5+Z
SYMM 0.5-Y,0.5+X,0.5+Z
SYMM 0.5+X,0.5+Z,0.5-Y
SYMM 0.5-X,0.5+Z,0.5+Y
SYMM 0.5-X,0.5-Z,0.5-Y
SYMM 0.5+X,0.5-Z,0.5+Y
SYMM 0.5+Z,0.5+Y,0.5-X
SYMM 0.5+Z,0.5-Y,0.5+X
SYMM 0.5-Z,0.5+Y,0.5+X
SYMM 0.5-Z,0.5-Y,0.5-X
SFAC C H Cu N O Zn
UNIT 1248 768 96 864 384 192
DFIX 1.365 0.007 C11 N2
DFIX 1.352 0.013 C3 N2
DFIX 1.318 0.009 C3 N4
DFIX 1.387 0.007 C5 N4
DFIX 1.389 0.009 C11 C5
DFIX 1.409 0.01 C5 C6
DFIX 1.35 0.01 C6 N8
DFIX 1.337 0.014 C6 N7
DFIX 1.334 0.011 C9 N8
DFIX 1.334 0.011 C9 N10
DFIX 1.343 0.013 C11 N10
SADI Cu1 N2 N2 Cu0A
DANG 2.176 0.014 C11 C3
DANG 2.239 0.015 N4 N2
DANG 2.128 0.012 C5 C3
DANG 2.28 0.013 C11 N4
DANG 2.555 0.016 C6 N4
DANG 2.382 C11 C6
DANG 2.36 0.017 C5 N8
DANG 2.419 0.02 C5 N7
DANG 2.306 0.021 N8 N7
DANG 2.308 0.018 C9 C6
DANG 2.405 0.017 N8 N10
DANG 2.267 C9 C11
DANG 2.197 0.012 C5 N2
DANG 2.418 0.02 N10 N2
DANG 2.441 0.017 C5 N10
FLAT C11 N2 C5 N10
FLAT C6 C5 N7 N8
FLAT C5 N4 C6 C11
FLAT N2 C3 N4 C5
FLAT C3 N4 C5 C11
FLAT N4 C5 C11 N2
FLAT C5 C11 N2 C3
FLAT C11 N2 C3 N4
FLAT C5 C6 N8 C9
FLAT C6 N8 C9 N10
FLAT N8 C9 N10 C11
FLAT C9 N10 C11 C5
FLAT N10 C11 C5 C6
FLAT C11 C5 C6 N8
SIMU N2 C3 N4 C5 C6 N7 N8 C9 N10 C11
RIGU N2 C3 N4 C5 C6 N7 N8 C9 N10 C11

L.S. 10 0 0
PLAN  99
SIZE 0.1 0.1 0.06
BOND
list 4
ABIN
fmap 2 53
acta
REM <olex2.extras>
REM <HklSrc "%.\\XXJ-DMF-XIFU.hkl">
REM </olex2.extras>

WGHT    0.064800  229.852005
FVAR       0.02048
ZN1   6    0.579967    0.279736    0.620738    11.00000    0.02942    0.02943 =
         0.03170   -0.00285   -0.00015   -0.00085
O003  5    0.583470    0.316856    0.645307    11.00000    0.05495    0.05111 =
         0.04793   -0.01393    0.00210   -0.00242
N004  4    0.595373    0.382217    0.714371    11.00000    0.03159    0.03489 =
         0.03141   -0.00337    0.00327   -0.00306
N005  4    0.579957    0.365700    0.736868    11.00000    0.03244    0.02980 =
         0.03493   -0.00074   -0.00035   -0.00235
O006  5    0.551035    0.293709    0.677158    11.00000    0.07071    0.04438 =
         0.06817   -0.00958    0.00317   -0.01534
C009  1    0.576262    0.339328    0.693333    11.00000    0.03341    0.04224 =
         0.04601   -0.00900   -0.00133   -0.00434
C00A  1    0.568534    0.340445    0.723775    11.00000    0.04520    0.03646 =
         0.03640   -0.00385   -0.00318   -0.01082
AFIX  43
H00A  2    0.556936    0.325665    0.733928    11.00000   -1.20000
AFIX   0
C00B  1    0.593361    0.365756    0.688459    11.00000    0.03868    0.04448 =
         0.03345   -0.01375    0.00456   -0.00341
AFIX  43
H00B  2    0.602192    0.371276    0.669815    11.00000   -1.20000
AFIX   0
C00C  1    0.569558    0.314936    0.670936    11.00000    0.03449    0.04924 =
         0.04809   -0.00655    0.00033    0.00329
PART -1
AFIX   6
N2    4    0.531850    0.289396    0.539045    10.50000    0.03917    0.21425 =
         0.04287    0.00470   -0.01304    0.01551
C3    1    0.555200    0.287923    0.559555    10.50000    0.03093    0.11658 =
         0.02094   -0.01525   -0.00138    0.00796
AFIX  43
H3    2    0.575765    0.288322    0.553814    10.50000   -1.20000
AFIX   5
N4    4    0.546160    0.285873    0.588385    10.50000    0.02056    0.05553 =
         0.01786   -0.00827   -0.00415    0.00532
C5    1    0.514390    0.285955    0.586265    10.50000    0.02687    0.06707 =
         0.02971   -0.00347   -0.00194   -0.00137
C6    1    0.490820    0.284357    0.608396    10.50000    0.02291    0.02942 =
         0.03823   -0.00221    0.00300    0.00000
N7    4    0.495901    0.282165    0.638575    10.50000    0.03546    0.05033 =
         0.02995    0.00231    0.00245   -0.00482
AFIX  93
H7A   2    0.480669    0.281209    0.651108    10.50000   -1.20000
H7B   2    0.514402    0.281710    0.645467    10.50000   -1.20000
AFIX   5
N8    4    0.461440    0.285010    0.598396    10.50000    0.03513    0.03939 =
         0.03022   -0.00991   -0.01048    0.00444
C9    1    0.456140    0.287171    0.568176    10.50000    0.02891    0.13213 =
         0.03780   -0.01277   -0.00568    0.00587
AFIX  43
H9    2    0.435587    0.287562    0.562389    10.50000   -1.20000
AFIX   5
N10   4    0.476430    0.288841    0.545256    10.50000    0.03008    0.22702 =
         0.03588   -0.00617    0.00940    0.00124
C11   1    0.505360    0.288158    0.555766    10.50000    0.04370    0.17264 =
         0.02673   -0.00499   -0.01880   -0.00841
AFIX   0
PART 0
CU1   3    0.532364    0.302594    0.500000    10.25000    0.04168    0.15346 =
         0.06216    0.00000    0.00000    0.00066
CU0A  3    0.531493    0.280209    0.500000    10.25000    0.04659    0.08198 =
         0.05838    0.00000    0.00000    0.00733
HKLF 4




REM  xxj-dmf-xifu_a.res in Fm-3c
REM wR2 = 0.1347, GooF = S = 1.073, Restrained GooF = 1.057 for all data
REM R1 = 0.0500 for 2733 Fo > 4sig(Fo) and 0.0652 for all 3780 data
REM 160 parameters refined using 185 restraints

END

WGHT      0.0646    232.0843

REM Highest difference peak  0.334,  deepest hole -0.425,  1-sigma level  0.068
Q1    1   0.5000  0.2735  0.5000  10.25000  0.05    0.33
Q2    1   0.5591  0.2807  0.5997  11.00000  0.05    0.32
Q3    1   0.5807  0.3799  0.7205  11.00000  0.05    0.31
Q4    1   0.5373  0.3444  0.5000  10.50000  0.05    0.28
Q5    1   0.5351  0.2942  0.5429  11.00000  0.05    0.27
Q6    1   0.5782  0.3392  0.6255  11.00000  0.05    0.26
Q7    1   0.6006  0.2994  0.6188  11.00000  0.05    0.26
Q8    1   0.5000  0.2568  0.5811  10.50000  0.05    0.24
Q9    1   0.5978  0.2563  0.6200  11.00000  0.05    0.23
Q10   1   0.5000  0.2500  0.7500  10.12500  0.05    0.21
Q11   1   0.5000  0.2825  0.5572  10.50000  0.05    0.20
Q12   1   0.4781  0.3010  0.5565  11.00000  0.05    0.20
Q13   1   0.5000  0.2983  0.7176  10.50000  0.05    0.19
Q14   1   0.4864  0.2822  0.6195  11.00000  0.05    0.19
Q15   1   0.5642  0.2653  0.5000  10.50000  0.05    0.19
Q16   1   0.5994  0.2521  0.6077  11.00000  0.05    0.19
Q17   1   0.5000  0.2882  0.7205  10.50000  0.05    0.18
Q18   1   0.5000  0.2637  0.6165  10.50000  0.05    0.18
Q19   1   0.5789  0.3427  0.6331  11.00000  0.05    0.18
Q20   1   0.5000  0.3198  0.7079  10.50000  0.05    0.18
Q21   1   0.5776  0.3643  0.7557  11.00000  0.05    0.18
Q22   1   0.5790  0.3376  0.6535  11.00000  0.05    0.17
Q23   1   0.5000  0.2980  0.5418  10.50000  0.05    0.17
Q24   1   0.5000  0.3775  0.6379  10.50000  0.05    0.16
Q25   1   0.5772  0.3029  0.6435  11.00000  0.05    0.16
Q26   1   0.5000  0.2520  0.6159  10.50000  0.05    0.16
Q27   1   0.5000  0.3228  0.6900  10.50000  0.05    0.14
Q28   1   0.5779  0.3370  0.7053  11.00000  0.05    0.14
Q29   1   0.4590  0.2840  0.5576  11.00000  0.05    0.14
Q30   1   0.5825  0.2626  0.5390  11.00000  0.05    0.14
Q31   1   0.6182  0.2919  0.5000  10.50000  0.05    0.13
Q32   1   0.5383  0.2593  0.4772  11.00000  0.05    0.13
Q33   1   0.5806  0.2855  0.6798  11.00000  0.05    0.13
Q34   1   0.5000  0.3254  0.5000  10.25000  0.05    0.13
Q35   1   0.5828  0.3387  0.7203  11.00000  0.05    0.13
Q36   1   0.6192  0.2992  0.5000  10.50000  0.05    0.13
Q37   1   0.5817  0.3009  0.6634  11.00000  0.05    0.13
Q38   1   0.5000  0.3611  0.6806  10.50000  0.05    0.12
Q39   1   0.5190  0.2538  0.5189  11.00000  0.05    0.12
Q40   1   0.5000  0.3607  0.5000  10.25000  0.05    0.12
Q41   1   0.5809  0.3258  0.5000  10.50000  0.05    0.12
Q42   1   0.5557  0.2633  0.5136  11.00000  0.05    0.12
Q43   1   0.5107  0.3217  0.7041  11.00000  0.05    0.12
Q44   1   0.5000  0.4196  0.5000  10.25000  0.05    0.12
Q45   1   0.5000  0.2558  0.6653  10.50000  0.05    0.12
Q46   1   0.6086  0.3007  0.5000  10.50000  0.05    0.12
Q47   1   0.5613  0.2807  0.6421  11.00000  0.05    0.12
Q48   1   0.6230  0.3649  0.6793  11.00000  0.05    0.11
Q49   1   0.5743  0.2598  0.5000  10.50000  0.05    0.11
Q50   1   0.5000  0.3192  0.5834  10.50000  0.05    0.11
Q51   1   0.6242  0.3183  0.6424  11.00000  0.05    0.11
Q52   1   0.5000  0.3650  0.5813  10.50000  0.05    0.11
Q53   1   0.5409  0.4591  0.4591  10.33333  0.05    0.11
Q54   1   0.5354  0.3453  0.6980  11.00000  0.05    0.10
Q55   1   0.5812  0.2731  0.5000  10.50000  0.05    0.10
Q56   1   0.5000  0.3606  0.5405  10.50000  0.05    0.10
Q57   1   0.5394  0.3595  0.6215  11.00000  0.05    0.10
Q58   1   0.6602  0.2665  0.6984  11.00000  0.05    0.10
Q59   1   0.6363  0.3018  0.7396  11.00000  0.05    0.10
Q60   1   0.6219  0.3002  0.6997  11.00000  0.05    0.10
Q61   1   0.5000  0.4611  0.5000  10.25000  0.05    0.10
Q62   1   0.5811  0.3161  0.7656  11.00000  0.05    0.10
Q63   1   0.5440  0.2800  0.6833  11.00000  0.05    0.10
Q64   1   0.5367  0.2967  0.7036  11.00000  0.05    0.10
Q65   1   0.4589  0.3820  0.5614  11.00000  0.05    0.10
Q66   1   0.6015  0.2973  0.7298  11.00000  0.05    0.09
Q67   1   0.5462  0.3584  0.6169  11.00000  0.05    0.09
Q68   1   0.4661  0.3217  0.6209  11.00000  0.05    0.09
Q69   1   0.5847  0.3180  0.5570  11.00000  0.05    0.09
Q70   1   0.5577  0.3575  0.7456  11.00000  0.05    0.09
Q71   1   0.5374  0.3768  0.6017  11.00000  0.05    0.09
Q72   1   0.6605  0.2744  0.7033  11.00000  0.05    0.09
Q73   1   0.5000  0.3110  0.5825  10.50000  0.05    0.09
Q74   1   0.6175  0.3392  0.7321  11.00000  0.05    0.09
Q75   1   0.5970  0.3005  0.7324  11.00000  0.05    0.09
Q76   1   0.5954  0.2943  0.7278  11.00000  0.05    0.09
Q77   1   0.5343  0.3929  0.5000  10.50000  0.05    0.08
Q78   1   0.6242  0.3541  0.7418  11.00000  0.05    0.08
Q79   1   0.5379  0.2780  0.7178  11.00000  0.05    0.08
Q80   1   0.5835  0.3656  0.5383  11.00000  0.05    0.08
Q81   1   0.6388  0.3147  0.7391  11.00000  0.05    0.08
Q82   1   0.5000  0.3202  0.6485  10.50000  0.05    0.08
Q83   1   0.5000  0.3248  0.6612  10.50000  0.05    0.08
Q84   1   0.6185  0.3815  0.6185  10.33333  0.05    0.08
Q85   1   0.6648  0.3406  0.6959  11.00000  0.05    0.08
Q86   1   0.6943  0.3024  0.7008  11.00000  0.05    0.08
Q87   1   0.5000  0.3996  0.5971  10.50000  0.05    0.08
Q88   1   0.6060  0.3007  0.7356  11.00000  0.05    0.08
Q89   1   0.5704  0.3550  0.5000  10.50000  0.05    0.08
Q90   1   0.5827  0.3338  0.5000  10.50000  0.05    0.08
Q91   1   0.5655  0.2974  0.7482  11.00000  0.05    0.08
Q92   1   0.5412  0.3459  0.5402  11.00000  0.05    0.08
Q93   1   0.7071  0.2971  0.7450  11.00000  0.05    0.08
Q94   1   0.6197  0.2985  0.6861  11.00000  0.05    0.08
Q95   1   0.5364  0.3232  0.6583  11.00000  0.05    0.07
Q96   1   0.6009  0.3997  0.6067  11.00000  0.05    0.07
Q97   1   0.5574  0.3566  0.6813  11.00000  0.05    0.07
Q98   1   0.5798  0.4156  0.6607  11.00000  0.05    0.07
Q99   1   0.5820  0.2790  0.7587  11.00000  0.05    0.07
;
_shelx_res_checksum              25003
_shelx_hkl_file
;
   2   0   2 9999.00  314.67
  -1   3  -1    0.19    0.66
   1   3  -1   -0.14    1.03
  -3  -1  -1   -0.08    1.11
   3  -1   3    4.32    0.78
   3   1   3    4.32    1.24
   0   4   0  203.07    6.69
  -4   0  -2 2505.57   77.83
   0  -4   2 2431.87   77.82
   4   2   2  721.72   22.88
  -4  -2  -2  700.66   22.88
  -2  -4   2  707.54   22.87
  -2   4  -2  724.68   22.67
   4   0   4   12.17    1.35
   4  -2   4 1870.36   58.85
   4   2   4 1858.32   59.06
   4   4   4 2910.99   91.98
   1   5   1   -0.18    1.68
  -1   5  -1    1.14    1.21
  -1  -5   1    0.23    1.44
   1   5  -1   -0.47    1.44
  -5  -1  -1   -0.70    1.66
  -5  -1  -3  363.16   11.64
  -5   1  -3  364.66   11.50
  -5  -3  -1  336.93   11.74
   1  -5   3  360.05   11.48
  -3  -5   1  333.22   11.75
  -1  -5   3  365.46   11.61
   5   1   3  366.28   11.60
   5   3   3   -1.90    1.97
  -5  -3  -3   -0.26    2.02
   5  -1   5    1.84    1.39
   5   1   5    2.63    1.82
   5   3   5    0.36    2.13
   5   5   5   -1.59    2.45
   0   6   0 2048.27   64.75
   0  -6   2  594.20   19.00
  -6   0  -2  601.44   19.03
   0   6  -2  600.21   19.03
  -2  -6   0  582.06   19.14
   2   6   0  590.65   19.16
  -2   6  -2 1038.43   32.89
  -2  -6   2 1035.54   33.06
  -6  -2  -2 1043.28   33.09
  -6   0  -4  619.20   20.20
   6   0   4  650.61   20.21
   0  -6   4  626.50   20.20
  -6  -2  -4  412.39   13.46
  -6  -4  -2  406.52   13.63
   6   2   4  426.45   13.50
   2  -6   4  406.24   13.18
  -6   2  -4  418.84   13.21
   6   4   2  410.37   13.61
  -4  -6   2  409.00   13.59
   6   4   4 1145.48   36.56
   6   0   6   13.18    1.84
   6  -2   6 1097.22   34.65
   6   2   6 1088.76   34.89
   6   4   6  313.64   10.82
   6   6   4  325.82   10.94
   6   6   6 1092.89   35.06
  -1  -7   1    7.49    1.82
   1   7  -1    2.40    2.14
   1   7   1    3.37    2.23
  -1   7  -1    2.64    1.72
   3   7   1  440.33   15.13
  -7  -1  -3  457.95   14.99
  -1  -7   3  467.28   14.95
  -3  -7   1  461.25   15.12
  -7   1  -3  464.67   14.89
   3   7  -1  470.12   15.12
  -7  -3  -1  463.94   15.13
  -1   7  -3  466.60   14.88
   1  -7   3  460.70   14.85
  -3  -7   3    0.28    2.05
  -3   7  -3    0.51    1.31
  -7  -3  -3   -1.96    2.36
   7   3   3    1.22    2.33
   7   1   5    4.84    1.94
   1  -7   5    3.33    1.55
  -7  -5  -1    1.43    2.46
  -1  -7   5    2.33    2.03
  -5  -7   1    5.61    2.70
   7   3   5  317.81   10.64
  -5  -7   3  316.60   10.76
  -7  -5  -3  315.05   10.78
   7   5   3  316.77   10.80
   7   5   5    0.57    2.53
   7   1   7    2.51    2.09
   7  -1   7    1.22    1.66
   7   3   7    1.86    2.53
   7  -3   7    1.77    1.22
  -7  -7   3    0.18    2.91
   3  -7   7    1.53    1.11
  -7  -7  -3   -0.12    2.90
   5   7   7    0.73    2.96
   7   5   7   -1.29    2.74
   7   7   5    1.17    2.92
   7   7   7    3.73    3.08
   0   8   0  946.27   30.21
   2   8   0    0.46    2.39
  -8   0  -2    1.88    2.09
   0   8  -2    3.24    1.97
  -2   8  -2 1108.09   36.00
   2   8   2 1144.70   36.25
  -2  -8   2 1128.54   36.15
   2   8  -2 1150.43   36.18
  -8  -2  -2 1156.00   36.18
  -8   0  -4  191.56    6.57
   4   8   0  173.81    6.94
  -4  -8   0  197.01    6.92
  -8  -4   0  185.02    6.95
   0  -8   4  190.09    6.50
  -8  -4  -2    1.53    2.60
  -2  -8   4    2.74    1.99
  -8   2  -4    3.40    1.54
  -8  -2  -4    4.16    2.43
  -4  -8   2    1.61    2.43
   8   2   4    3.95    2.39
  -8   4  -4    4.65    1.28
  -8  -4  -4    2.57    2.52
  -4   8  -4    5.38    1.24
  -4  -8   4    3.38    2.30
   8   4   4    4.66    2.70
   8   0   6 1895.27   59.74
   0  -8   6 1876.37   59.72
   6   0   8 1887.99   59.73
   6   2   8  117.91    4.76
   6  -2   8  123.01    4.24
   8   6   2  115.13    5.09
  -2  -8   6  110.56    4.79
  -6  -8   2  115.74    5.20
   8   2   6  119.77    4.82
  -8  -6  -2  122.10    5.17
   2  -8   6  119.80    4.21
  -8  -6  -4  424.57   14.72
   6  -4   8  437.46   14.02
  -6   8  -4  441.55   14.00
   6   4   8  443.89   14.63
   8   4   6  457.18   14.66
   8   6   4  444.27   14.74
  -6  -8   4  440.04   14.74
   6   6   8  482.91   16.42
   6   8   6  500.38   16.52
   8   6   6  500.11   16.44
   8   0   8    8.69    1.98
   2  -8   8   45.46    2.27
   8  -2   8   44.24    2.27
   8   2   8   47.18    2.99
  -8  -8   4   21.78    3.33
   8   4   8   20.66    2.74
   4  -8   8   22.61    1.21
   8   8   4   20.54    3.01
   8   8   6  385.39   12.84
   8   6   8  373.57   12.77
   6   8   8  362.58   12.81
   8   8   8 1005.36   32.56
  -1   9  -1    9.29    2.09
   1   9  -1   10.17    2.53
   1   9   1    6.23    2.69
  -9  -3  -1   11.35    2.80
  -1  -9   3    8.07    2.01
  -3  -9   1    9.07    2.63
  -9  -1  -3   11.76    2.48
   3   9   1    8.88    2.74
   3   9  -1   12.96    2.76
  -1   9  -3   10.39    1.96
  -9   1  -3    9.54    2.11
   3   9   3    7.04    2.87
  -3  -9   3    4.98    2.29
  -3   9  -3    3.48    1.61
  -9  -3  -3    6.57    2.57
  -9   1  -5 1185.39   37.00
  -5  -9   1 1179.64   37.34
  -1  -9   5 1146.48   37.10
  -5  -9  -1 1117.64   37.33
   5   9   1 1134.76   37.34
  -9  -5  -1 1192.06   37.35
  -9  -1  -5 1191.79   37.12
   1  -9   5 1166.67   36.99
  -9  -5   1 1136.00   37.34
  -9  -5  -3    2.97    2.91
  -3  -9   5    3.45    2.10
  -5  -9   3    4.03    2.70
  -9   3  -5    4.91    1.47
   9   3   5    3.60    2.47
  -9  -3  -5    2.86    2.58
  -5   9  -3    4.15    1.37
  -5  -9   5    1.59    2.48
  -9   5  -5    0.93    1.04
   9   5   5   -2.08    2.81
   9   1   7  298.67    9.83
   7  -1   9  296.63    9.71
  -7  -9   1  275.43   10.32
   1  -9   7  290.07    9.67
  -9  -7  -1  280.08   10.31
  -1  -9   7  292.06    9.86
   7   1   9  299.33    9.83
   3  -9   7   -0.04    1.28
   7   3   9    3.16    2.44
   7  -3   9    1.82    1.41
  -9  -7  -3    1.77    2.87
  -7  -9   3   -0.66    3.08
   9   7   3   -0.27    2.96
  -3  -9   7    2.08    2.31
   9   3   7    1.32    2.52
   9   7   5  391.38   12.95
  -7  -9   5  374.03   12.96
   7   5   9  372.06   12.79
   9   5   7  375.75   12.81
   7   9   7    0.15    3.21
   7   7   9    0.14    2.79
   9   7   7   -0.07    2.77
   9   1   9   -0.89    2.29
   9  -1   9    3.31    1.82
   1  -9   9    2.19    1.80
   3  -9   9    0.84    1.31
  -9  -9   3   -0.99    2.94
  -9  -9  -3    1.59    3.21
   9   3   9   -0.63    2.51
   9   9   5   -1.03    3.31
  -9  -9   5   -1.53    3.28
   9   5   9    1.42    2.70
   9   7   9   -1.87    3.03
   9   9   7    0.17    3.03
   7   9   9   -0.83    3.20
   9   9   9    2.77    3.10
   0  10   0 6426.94  202.69
   0  10  -2  321.23   10.86
  -2  10   0  330.86   10.83
 -10   0  -2  322.93   10.87
   2  10   0  315.62   11.05
  -2  10  -2  147.46    5.29
   2  10   2  140.30    5.76
   2  10  -2  141.46    5.58
  -2 -10   2  138.18    5.49
 -10  -2  -2  147.54    5.64
   4  10   0  120.37    5.24
  -4 -10   0  117.34    5.22
 -10   0  -4  128.38    4.69
 -10  -4   0  123.76    5.31
   0 -10   4  118.05    4.63
  -4 -10   2  138.48    5.61
 -10  -4  -2  137.37    5.64
   2  10   4  135.65    5.79
  -2  10  -4  137.87    5.07
   4  10   2  137.77    5.84
 -10   2  -4  142.86    5.10
  -2 -10   4  140.60    5.22
 -10  -2  -4  144.21    5.53
  -4  10  -2  134.73    5.02
  -4  10  -4    4.85    1.52
 -10  -4  -4    3.43    2.61
 -10   4  -4    4.57    1.60
  -4 -10   4    2.43    2.38
 -10   0  -6   18.98    2.25
 -10  -6   0   16.75    3.29
   0 -10   6   16.95    2.24
  -6 -10   0   27.42    3.21
   6  10   0   21.44    3.28
  -6 -10   2   65.40    4.06
 -10  -6  -2   64.32    4.04
  -2 -10   6   67.08    3.37
 -10   2  -6   66.82    2.98
  10   2   6   65.49    3.55
   2 -10   6   64.26    2.88
  -4 -10   6  127.62    5.30
  -6  10  -4  136.80    4.57
 -10  -6  -4  139.85    5.71
  -6 -10   4  124.51    5.55
  10   6   4  133.24    5.68
  10   4   6  129.64    5.48
  10   6   6   32.79    3.24
  -6 -10   6   28.49    2.93
   0 -10   8  344.01   11.83
  10   0   8  362.10   11.89
   8   0  10  368.28   11.89
   2 -10   8  177.86    5.92
 -10  -8  -2  169.00    6.79
   8   2  10  167.48    6.30
   8  -2  10  171.79    5.97
  -8 -10   2  176.37    6.82
  10   2   8  172.82    6.37
  -2 -10   8  158.30    6.36
 -10  -8  -4   97.72    4.91
  10   8   4  104.76    5.00
  -4 -10   8  102.76    4.52
   8   4  10  109.20    4.63
   8  -4  10  104.80    3.61
  -8  10  -4  105.07    3.57
  10   4   8   92.35    4.66
  -8 -10   4   98.56    4.96
   4  -8  10   98.54    3.56
  10   6   8  180.00    6.99
   6   8  10  183.83    7.04
   8  10   6  183.87    7.21
   8   6  10  170.45    6.92
  10   8   6  179.36    7.02
  -8 -10   6  171.50    7.02
   6  10   8  167.80    7.03
   8   8  10   89.27    4.67
   8  10   8   93.38    4.83
  10   8   8   95.97    4.78
  10   0  10    9.88    2.18
   0 -10  10   10.22    2.15
  10  -2  10   48.00    2.41
  10   2  10   44.77    3.05
   2 -10  10   43.51    2.34
  10   4  10   70.55    3.86
   4 -10  10   66.65    2.53
  10  10   4   64.06    4.15
 -10 -10   4   72.74    4.27
 -10 -10   6   27.64    3.45
  10  10   6   25.74    3.66
  10   6  10   31.59    3.20
   6  10  10   41.29    3.63
  10   8  10  479.31   16.05
  10  10   8  467.27   16.16
   8  10  10  470.25   16.14
  10  10  10   69.44    4.35
  -1  11   1    6.04    2.67
  -1  11  -1    1.82    2.35
   1  11  -1    3.97    2.55
   1  11   1    6.10    2.80
  -1 -11   3  423.36   14.12
  -1  11  -3  418.41   14.08
 -11   1  -3  425.82   14.08
   3  11   1  424.76   14.37
  -3  11  -1  434.93   14.05
   1  11   3  420.58   14.38
   1  11  -3  421.60   14.16
   3  11  -1  444.74   14.38
 -11  -3  -1  443.88   14.37
 -11  -1  -3  427.78   14.20
  -3  11  -3   12.86    1.95
 -11  -3  -3   13.57    2.77
  -3 -11   3   12.45    2.42
   3  11   3   13.06    3.13
 -11   1  -5   48.74    2.91
  -5 -11   1   57.16    3.74
  -1 -11   5   45.15    2.88
 -11  -1  -5   49.51    3.13
   5  11   1   51.65    3.76
   5  11  -1   55.82    3.75
 -11  -5   1   53.20    3.80
 -11  -5  -1   46.65    3.77
 -11  -3  -5   53.38    3.47
 -11   3  -5   50.72    2.57
  -3 -11   5   52.62    3.04
  -5 -11   3   53.89    3.57
   3  11   5   52.16    3.66
   5  11   3   52.41    3.84
 -11  -5  -3   50.78    3.70
  -5  11  -3   51.49    2.55
 -11   5  -5    3.86    1.41
  -5 -11   5   10.12    2.50
 -11  -5  -5    7.50    2.92
 -11  -7  -1    0.30    3.13
  -7 -11   1    7.76    3.16
  -1 -11   7    4.39    2.19
   1 -11   7    1.29    1.86
 -11  -7   1    2.22    3.30
  -7 -11  -1    4.66    2.99
   7  11   1    3.55    3.22
  -7  11  -3   68.56    2.84
 -11  -7  -3   63.09    4.20
  -7 -11   3   68.57    4.22
  -3 -11   7   71.33    3.55
  11   3   7   69.07    3.77
   7  -3  11   68.17    2.88
  -5 -11   7  283.23    9.97
  -7 -11   5  296.77   10.28
  11   5   7  279.92   10.10
   7  -5  11  290.75    9.24
   7   5  11  283.29   10.05
 -11   7  -5  284.26    9.24
 -11  -7  -5  282.18   10.21
  11   7   5  276.01   10.22
  -7 -11   7    0.88    2.75
   7   7  11   -1.67    3.09
  11   7   7   -0.97    2.95
  11   1   9  290.26    9.77
 -11  -9  -1  255.24   10.29
   9  -1  11  292.70    9.57
   1 -11   9  285.09    9.52
  -9 -11   1  300.83   10.29
  -1 -11   9  267.36    9.73
   9   1  11  292.66    9.74
  -9 -11   3   35.27    3.53
  11   3   9   34.24    3.08
   9  -3  11   39.61    2.08
  -3 -11   9   41.51    3.08
   3 -11   9   38.08    2.04
   9   3  11   34.64    2.99
 -11  -9  -3   33.03    3.80
  -9 -11   5   48.42    3.84
  -5 -11   9   60.50    3.28
 -11  -9   5   68.46    4.26
  11   5   9   55.19    3.54
   5  -9  11   49.23    1.83
  11   9   5   58.79    3.94
   9   5  11   55.45    3.48
  11   7   9 1036.99   33.76
   7  11   9 1026.99   33.85
   7   9  11 1029.27   33.80
  -7 -11   9 1024.68   33.70
   9   7  11 1058.55   33.75
  11   9   7 1060.09   33.84
   9  11   7 1031.36   33.87
  -9 -11   7 1053.24   33.81
  -9 -11   9    1.26    2.88
  11   9   9   -1.85    3.00
   9  11   9   -1.42    3.16
   9   9  11    1.06    3.20
  -1 -11  11    1.68    2.16
  11  -1  11   -0.46    1.90
  11   1  11    0.91    2.19
   1 -11  11    0.48    1.78
   3 -11  11    1.09    1.46
 -11 -11  -3   -1.44    3.37
  11   3  11   -1.37    2.49
 -11 -11   3    1.15    3.44
 -11 -11   5   -0.69    3.21
  11  11   5   -2.01    3.15
  11   5  11   -0.32    2.76
  11  11   7    6.41    3.17
   7  11  11   -0.71    2.99
 -11 -11   7    4.17    3.27
 -11 -11   9   -1.53    3.09
  11  11   9    3.52    3.40
  11   9  11   -2.05    2.99
   9  11  11    1.31    3.26
  11  11  11   12.12    3.12
   0  12   0 1818.95   57.87
   0  12  -2 4437.70  140.38
  -2  12   0 4467.57  140.36
   2  12   0 4516.12  140.50
   0  12   2 4507.07  140.48
 -12   0  -2 4305.57  140.40
   2  12  -2    4.82    2.75
  -2  12  -2    3.21    2.16
 -12  -2  -2    3.22    2.67
   2  12   2    4.48    2.86
 -12   0  -4  239.72    8.28
   4  12   0  236.02    8.62
 -12  -4   0  234.82    8.71
 -12  -2  -4  235.02    8.49
  -4  12  -2  246.26    8.17
  -2 -12   4  227.15    8.33
   2  12   4  232.14    8.76
   4  12   2  235.22    8.76
 -12   2  -4  242.26    8.23
  -2  12  -4  239.04    8.17
  -4 -12   2  244.16    8.62
 -12  -4  -2  235.37    8.67
 -12   4  -4  659.91   21.12
  -4  12  -4  653.94   21.09
   4  12   4  655.42   21.67
  -4 -12   4  663.68   21.48
 -12  -4  -4  649.96   21.55
  -6 -12   0  771.93   25.50
 -12  -6   0  796.43   25.56
   0 -12   6  758.69   25.09
   6  12   0  811.06   25.54
 -12   0  -6  779.34   25.14
 -12   2  -6  150.95    5.40
 -12  -6   2  149.68    6.28
  -6  12  -2  146.18    5.30
 -12  -6  -2  135.19    6.08
  -2 -12   6  145.88    5.67
 -12  -2  -6  149.11    5.66
   6  12   2  147.61    6.10
  -6 -12   2  149.90    6.23
  -6  12  -4    2.46    1.53
  -4 -12   6    0.33    2.21
 -12  -4  -6    1.81    2.62
  -6 -12   4    1.42    2.83
 -12  -6  -4    1.89    2.84
 -12   4  -6    1.11    1.61
  12   6   6  227.68    8.40
 -12   6  -6  221.89    7.34
  -6 -12   6  228.44    8.24
   0 -12   8  145.22    5.36
   8   0  12  140.84    5.35
  -8 -12   0  143.74    6.13
 -12  -8   0  137.44    6.11
   8   2  12  502.96   16.83
  -2 -12   8  494.31   16.77
   2 -12   8  519.43   16.51
  -8 -12   2  526.86   17.26
   8  -2  12  507.73   16.53
 -12  -8  -2  509.70   17.22
 -12  -8  -4  503.52   17.03
  -4 -12   8  486.86   16.70
   8  -4  12  514.51   16.20
  -8  12  -4  498.04   16.15
   8   4  12  506.91   16.79
  -8 -12   4  512.95   16.99
  12   4   8  502.96   16.84
  12   6   8   32.45    3.26
  -6 -12   8   31.18    2.86
   8   6  12   34.54    3.26
  -8 -12   6   31.06    3.56
  12   8   6   33.41    3.59
   8  12   8  227.17    8.89
  -8 -12   8  230.60    8.59
  12   8   8  228.63    8.76
   8   8  12  232.89    8.65
  10   0  12  789.90   25.10
   0 -12  10  765.79   25.07
 -10 -12   2  345.66   12.33
  10   2  12  354.65   11.87
 -12 -10  -2  354.23   12.38
  -2 -12  10  345.04   11.75
  10  -2  12  348.29   11.47
  12   2  10  345.39   11.83
   2 -12  10  343.66   11.44
 -12 -10  -4  178.77    7.08
 -10 -12   4  169.60    7.07
   4 -10  12  171.50    5.78
  10   4  12  174.59    6.69
  12   4  10  175.51    6.73
 -10  12  -4  172.13    5.77
  -4 -12  10  170.65    6.61
 -12 -10   6   11.35    3.39
  12   6  10   15.34    2.82
  12  10   6   10.84    3.30
  10  12   6   13.70    3.38
 -10 -12   6   15.90    3.23
   6  12  10   11.78    3.44
  -6 -12  10   16.37    2.48
  10   6  12   15.90    2.94
   8  10  12   21.08    3.19
  10  12   8   25.83    3.49
   8  12  10   30.81    3.39
  -8 -12  10   23.13    2.82
  12  10   8   28.57    3.43
  12   8  10   28.56    3.36
  10   8  12   22.37    3.19
 -10 -12   8   22.64    3.41
 -10 -12  10  479.29   16.57
  10  12  10  474.87   16.58
  12  10  10  482.39   16.56
  10  10  12  490.74   16.56
  12   0  12 1974.69   61.51
   0 -12  12 1897.75   61.46
   2 -12  12 2140.50   68.50
  -2 -12  12 2174.81   68.81
  12   2  12 2191.73   68.83
  12   4  12  349.70   11.61
   4 -12  12  325.78   10.81
  -4 -12  12  347.56   11.59
 -12 -12   4  339.14   12.07
  12  12   6  115.45    5.68
   6  12  12  117.54    5.70
 -12 -12   6  126.07    5.89
  12   6  12  116.46    5.32
 -12 -12   8  282.66   10.14
  12  12   8  257.93    9.98
  12   8  12  264.11    9.80
   8  12  12  259.53   10.01
  10  12  12   12.50    3.50
 -12 -12  10   13.00    3.11
  12  12  10   10.35    3.33
  12  10  12   10.80    2.98
  12  12  12 4262.89  135.53
  -1  13   1   71.28    4.08
   1  13   1   65.38    4.16
   1  13  -1   68.36    4.05
 -13  -1  -1   68.10    4.18
  -1  13  -1   74.45    3.87
 -13  -3  -1   34.39    3.48
  -1  13  -3   33.68    2.84
   1  13  -3   36.19    3.10
  -3  13  -1   38.86    2.69
   3  13  -1   32.12    3.32
 -13   1  -3   32.78    2.88
   3  13   1   36.34    3.53
 -13  -1  -3   29.54    3.00
   1  13   3   31.95    3.46
  -3 -13   3    5.58    2.67
 -13  -3  -3    9.48    2.85
 -13   3  -3    7.90    2.16
  -3  13  -3    1.45    2.14
   3  13   3    6.69    2.96
 -13  -1  -5   12.66    2.56
  -5 -13   1    9.27    2.99
  -1 -13   5   11.34    2.16
   5  13  -1    9.62    3.07
 -13  -5   1   14.09    3.18
 -13   1  -5    9.87    2.25
   5  13   1    7.60    3.15
  -5  13  -1    7.41    2.28
 -13  -5  -1    6.93    3.12
   5  13   3  932.05   30.78
  -3 -13   5  940.80   30.51
   3  13   5  946.04   30.79
 -13  -5  -3  936.91   30.68
  -5  13  -3  950.91   30.23
  -5 -13   3  953.55   30.66
 -13  -3  -5  947.82   30.59
 -13   3  -5  950.66   30.27
 -13  -5  -5   12.17    2.85
 -13   5  -5    5.12    1.74
   5  13   5    3.27    3.20
  -5 -13   5   10.82    2.63
  -7 -13   1    3.02    3.34
 -13  -7   1    1.58    3.12
 -13  -7  -1   -0.43    3.19
   7  13   1    3.26    3.23
  -1 -13   7    3.13    2.17
  -7  13  -3   66.80    3.06
   3  13   7   78.13    4.54
 -13  -7   3   65.55    4.51
 -13  -7  -3   75.14    4.27
  -3 -13   7   66.58    3.58
  -7 -13   3   80.05    4.32
   7  13   3   75.45    4.53
 -13   7  -5  596.84   19.36
 -13  -7  -5  622.74   20.15
  -7 -13   5  608.82   20.13
  -5 -13   7  599.26   19.95
  -7  13  -5  609.78   19.35
  13   7   7    0.81    2.92
  -7 -13   7   -0.27    2.83
   7  -7  13    0.05    0.66
   9  -1  13  419.52   13.44
   1 -13   9  399.86   13.40
   9   1  13  409.33   13.57
  -1 -13   9  404.06   13.56
  -9 -13   1  401.56   14.04
 -13  -9   1  388.55   14.13
 -13  -9  -1  396.30   14.08
  -9 -13  -1  424.61   14.21
  -9 -13   3    2.18    3.05
 -13  -9  -3    3.80    3.20
   9  -3  13    0.04    1.61
  -3 -13   9    1.04    2.41
   9   3  13   -1.88    2.63
  -9 -13   5 1316.09   41.77
   9  -5  13 1320.11   40.86
  -9  13  -5 1256.18   40.81
   9   5  13 1313.22   41.56
 -13   9  -5 1294.26   40.84
  13   5   9 1315.93   41.61
   5  -9  13 1286.11   40.84
  -5 -13   9 1291.80   41.53
 -13  -9  -5 1305.86   41.78
   7   9  13  321.68   11.13
   7  13   9  299.90   11.20
   9  13   7  311.59   11.26
  13   9   7  305.43   11.10
  -7 -13   9  300.23   10.83
  -9 -13   7  305.70   11.10
   9   9  13    6.24    3.01
  13   9   9    3.27    2.98
  -9 -13   9    4.49    2.98
   9  13   9    3.65    3.31
  13   1  11  355.11   11.92
   1 -11  13  357.94   11.72
  11  -1  13  357.70   11.73
  -1 -13  11  344.27   11.86
 -13 -11  -1  332.30   12.43
  11   1  13  349.27   11.89
 -11 -13   1  346.94   12.51
   1 -13  11  350.82   11.68
  11   3  13    4.52    2.27
 -11 -13   3    2.76    2.99
   3 -13  11    2.25    1.44
 -13 -11  -3    0.84    3.27
   3 -11  13    1.47    1.46
  13   3  11    1.05    2.35
  -3 -13  11    2.03    2.48
  11  -3  13    3.15    1.53
  -5 -13  11 1045.50   29.73
   5  13  11 1031.14   30.05
 -13 -11   5 1067.49   30.10
 -11 -13   5 1081.49   30.10
  13   5  11 1104.76   29.79
  11  13   5 1010.03   30.04
  11   5  13 1074.93   29.76
   7  11  13   16.79    3.23
  11   7  13   17.30    3.03
  -7 -13  11   22.21    2.62
  11  13   7   23.87    3.52
  13   7  11   17.90    2.90
  13  11   7   17.54    3.30
   7  13  11   18.99    3.17
 -11 -13   7   18.71    3.42
 -13 -11   7   16.10    3.44
   9  11  13   64.20    4.29
  11   9  13   68.04    4.29
  -9 -13  11   66.34    3.94
 -13 -11   9   64.25    4.33
   9  13  11   62.14    4.47
  13  11   9   64.11    4.37
  13   9  11   61.08    4.21
  11  13   9   59.36    4.28
 -11 -13   9   59.47    4.29
  11  11  13    3.45    2.98
  11  13  11    4.90    3.08
  13  11  11   13.00    3.14
 -11 -13  11   10.79    3.11
  13   1  13    2.50    2.14
   1 -13  13    2.99    1.84
  -1 -13  13    1.50    2.15
  -3 -13  13    1.49    2.49
 -13 -13   3    0.59    3.34
  13   3  13    3.49    2.50
 -13 -13  -3   -0.23    3.33
   3 -13  13    2.11    1.41
 -13 -13   5    2.30    3.42
  13   5  13   -0.09    2.47
  -5 -13  13    0.82    2.46
   7  13  13    0.62    3.38
  -7 -13  13    3.63    2.44
 -13 -13   7    1.75    3.20
  13   7  13   -1.79    2.66
  13  13   7    4.33    3.47
  13  13   9   13.06    3.60
  -9 -13  13   13.57    2.50
   9  13  13   18.84    3.34
  13   9  13   10.41    3.15
 -13 -13   9   13.24    3.34
 -13 -13  11    7.74    3.16
 -11 -13  13    3.40    2.89
  11  13  13    9.59    3.16
  13  11  13    2.24    3.05
  13  13  11    1.51    2.97
 -13 -13  13   36.78    4.03
  13  13  13   33.71    3.93
   0  14   0 7903.83  249.38
   2  14   0   81.41    4.18
   0  14  -2   78.35    3.82
  -2  14   0   75.87    3.92
 -14   0  -2   73.72    4.02
   0  14   2   77.38    4.27
  -2  14  -2 1299.97   42.18
   2  14   2 1334.84   42.44
   2  14  -2 1350.93   42.36
  -2  14   2 1290.26   42.32
 -14  -2  -2 1333.68   42.36
 -14  -4   0  372.97   13.08
   0  14   4  378.74   13.03
  -4  14   0  390.53   12.72
   4  14   0  369.08   13.06
 -14   0  -4  375.44   12.69
 -14   2  -4   88.81    4.12
 -14  -4  -2   92.66    4.63
 -14  -2  -4   88.87    4.37
   2  14   4   95.00    4.79
   4  14   2   90.13    4.66
  -4  14  -2   89.30    3.92
  -2  14  -4   91.21    4.02
 -14  -4  -4  338.44   11.56
  -4 -14   4  324.71   11.42
 -14   4  -4  323.65   11.01
  -4  14  -4  331.25   10.99
   4  14   4  335.17   11.71
   6  14   0   11.79    3.47
 -14   0  -6    5.29    2.37
 -14  -6   0    6.90    3.11
 -14  -6   2   73.14    4.29
 -14   2  -6   74.24    3.40
  -2 -14   6   68.42    3.48
  -6  14  -2   68.57    3.35
  -6 -14   2   70.25    4.28
   2  14   6   76.98    4.37
 -14  -6  -2   77.93    4.36
 -14  -2  -6   73.52    3.94
   6  14   2   75.13    4.42
 -14   6  -4  254.44    8.35
   6  14   4  251.09    9.37
 -14   4  -6  245.90    8.35
 -14  -6  -4  243.05    9.10
 -14  -4  -6  245.95    8.93
   4  14   6  245.18    9.31
  -6 -14   4  237.81    9.02
  -4 -14   6  246.23    8.76
  -6  14  -4  243.52    8.32
 -14   6  -6   57.74    2.58
  -6 -14   6   65.29    3.64
 -14  -6  -6   60.26    3.93
  -8 -14   0  157.77    6.53
 -14  -8   0  138.10    6.41
   0 -14   8  153.81    5.68
 -14  -8  -2   10.86    3.36
  -2 -14   8    7.58    2.31
  -8  14  -2   10.84    1.81
   8  14   2   12.00    3.34
  -8 -14   2   13.72    3.31
   8  -2  14    8.94    1.88
 -14  -8   2   10.42    3.30
   4  14   8  106.91    5.28
   8   4  14  112.41    4.94
  -8 -14   4  103.09    5.25
   8  -4  14  116.07    4.12
   8  14   4  110.51    5.53
  -4 -14   8  104.55    4.68
 -14  -8  -4  121.55    5.46
  -8  14  -4  107.51    4.03
  -8 -14   6  187.23    7.42
   8  -6  14  182.42    6.11
 -14   8  -6  186.06    6.09
   8   6  14  188.26    7.28
  -6 -14   8  185.29    7.04
   8   8  14    4.02    2.91
  -8 -14   8    8.17    2.75
  14   8   8    6.65    2.93
   0 -14  10   11.97    2.24
  10   0  14   11.95    2.19
 -10 -14   0   11.94    3.33
 -14 -10   0   16.33    3.74
  10  -2  14   50.34    2.61
  10   2  14   48.19    3.33
 -14 -10  -2   49.70    4.04
  -2 -14  10   49.97    2.99
 -10 -14   2   48.60    3.89
  10  -4  14  285.06    9.12
   4 -10  14  269.82    9.09
 -10  14  -4  268.43    9.06
 -10 -14   4  278.35   10.27
  -4 -14  10  280.50    9.77
  10   4  14  277.03    9.80
 -14 -10  -4  291.63   10.37
 -10 -14   6   25.63    3.54
  14   6  10   27.75    3.24
  -6 -14  10   18.19    2.55
  10   6  14   28.56    3.23
 -10 -14   8    8.14    3.17
  14  10   8    5.40    3.20
   8  10  14    8.73    3.07
  10  14   8    9.58    3.41
 -14 -10   8    8.96    3.37
   8  14  10    7.41    3.25
  -8 -14  10    8.93    2.45
  14   8  10    8.11    3.05
  10   8  14    9.58    2.91
  14  10  10    3.33    3.05
 -10 -14  10    8.79    2.81
  10  10  14    4.37    3.05
  10  14  10    7.18    3.19
   0 -12  14  100.88    4.21
  12   0  14  100.19    4.17
   0 -14  12   95.73    4.12
 -14 -12  -2  250.99    9.68
  12   2  14  260.47    8.97
   2 -14  12  242.87    8.49
  14   2  12  259.38    8.98
 -12 -14   2  253.05    9.68
  -2 -14  12  250.72    8.89
  12  -2  14  253.40    8.56
   2 -12  14  246.93    8.49
 -12 -14   4  101.54    5.32
  12   4  14  107.98    4.82
  -4 -14  12  104.48    4.65
 -12  14  -4  103.62    3.69
  14   4  12  105.69    4.85
   4 -12  14  101.58    3.70
   6  14  12   66.30    4.46
   6  12  14   64.62    4.40
 -14 -12   6   58.95    4.47
  14   6  12   65.33    3.93
  -6 -14  12   65.52    3.80
 -12 -14   6   64.11    4.26
  12   6  14   61.82    3.89
  12  14   6   65.19    4.43
 -14 -12   8   10.33    3.52
  14   8  12    6.15    2.81
  -8 -14  12    5.95    2.25
   8  12  14    0.75    3.26
 -12 -14   8    8.45    3.46
  12  14   8    2.76    2.97
   8  14  12    3.12    3.29
  14  12   8    6.68    3.27
  12   8  14    6.76    2.89
 -10 -14  12   11.98    2.86
 -14 -12  10   12.05    3.44
  10  14  12    9.95    3.16
  12  10  14    9.67    3.08
 -12 -14  10   11.30    3.32
  14  12  10   14.71    3.02
  14  10  12    8.89    3.17
  10  12  14   13.17    3.24
  12  14  10   15.48    3.20
  12  12  14   22.28    3.30
  12  14  12   20.74    3.26
  14  12  12   17.55    3.49
 -12 -14  12   21.08    3.19
 -14 -12  12   19.89    3.33
   0 -14  14  442.30   14.70
  14   2  14   34.22    2.68
  -2 -14  14   36.41    2.74
 -14 -14   2   34.83    3.91
   2 -14  14   34.54    2.16
 -14 -14   4  116.43    5.77
  14   4  14  116.05    5.15
  -4 -14  14  115.24    5.11
   6  14  14  104.77    5.61
  -6 -14  14  112.78    4.99
 -14 -14   6   98.58    5.73
  14   6  14  112.53    5.07
  14  14   8  483.55   16.80
   8  14  14  469.15   16.71
  14   8  14  474.18   16.43
  -8 -14  14  478.00   16.33
 -14 -14   8  478.31   16.75
  10  14  14  179.93    7.53
  14  14  10  183.75    7.82
 -14 -14  10  175.83    7.69
 -10 -14  14  174.80    7.20
  14  10  14  179.18    7.45
 -14 -14  12  633.49   21.90
  14  14  12  636.69   21.93
  12  14  14  636.38   21.91
  14  12  14  651.07   21.85
 -12 -14  14  640.46   21.84
  14  14  14  265.54   10.32
 -14 -14  14  260.43   10.33
   1  15  -1   47.34    3.64
  -1  15   1   46.24    3.59
  -1  15  -1   39.30    3.41
 -15  -1  -1   46.37    3.59
   1  15   1   42.29    3.66
 -15  -1  -3   85.66    4.12
  -3  15   1   90.33    4.28
  -1  15  -3   83.94    4.15
   3  15  -1   83.73    4.48
   3  15   1   84.42    4.54
   1  15  -3   85.72    4.33
 -15   1  -3   84.78    4.03
  -3  15  -1   89.90    4.09
  -1  15   3   79.86    4.39
 -15  -3  -1   80.62    4.53
   1  15   3   94.78    4.61
  -3  15  -3    6.87    2.23
   3  15   3   16.83    3.37
 -15   3  -3   12.38    2.43
 -15  -3  -3   12.40    3.15
 -15  -5  -1    8.15    3.21
  -5  15  -1   10.70    2.33
   5  15  -1    8.63    3.20
 -15  -1  -5   11.67    2.35
 -15   1  -5    9.17    2.46
   5  15   1   13.37    3.15
   1  15   5   12.05    3.17
 -15  -5   1   11.00    3.24
 -15   3  -5  367.29   12.75
 -15  -5  -3  392.97   13.29
  -3 -15   5  380.22   13.03
  -5  15  -3  391.29   12.71
 -15  -3  -5  395.41   13.12
   5  15   3  366.08   13.29
   3  15   5  392.31   13.37
  -5 -15   3  381.71   13.23
   5  15   5   -0.40    3.13
 -15  -5  -5   -0.09    2.94
  -5 -15   5    1.94    2.56
 -15   5  -5    0.61    1.73
   7  15   1   52.07    3.99
  -7  15  -1   51.04    2.87
 -15  -7   1   45.24    4.06
 -15  -1  -7   53.63    3.19
 -15  -7  -1   51.40    4.00
  -1 -15   7   47.03    2.80
 -15   1  -7   52.89    2.99
  -7 -15   1   50.54    3.85
   3  15   7  105.62    5.28
  -3 -15   7  107.19    4.61
   7  15   3  120.71    5.55
 -15  -3  -7  111.24    4.91
 -15  -7   3  105.13    5.52
 -15  -7  -3  114.64    5.38
  -7  15  -3  111.38    4.28
  -7 -15   3  107.08    5.29
 -15   3  -7  113.84    4.37
  -5 -15   7  134.26    5.67
 -15   7  -5  144.81    5.06
   5  15   7  149.65    6.35
 -15  -7  -5  148.09    6.18
 -15   5  -7  142.62    5.04
   7  15   5  154.28    6.49
  -7  15  -5  134.93    4.97
  -7 -15   5  138.22    6.12
  -7 -15   7    1.65    2.50
  -9 -15   1   99.29    5.12
 -15  -9   1  101.76    5.36
   9  -1  15  104.84    4.22
  -1 -15   9   95.78    4.36
 -15  -9  -1   94.32    5.08
   9   1  15  101.69    4.37
   9   3  15  115.14    5.06
   9  15   3  124.85    5.68
   3  15   9  120.57    5.67
   9  -3  15  118.43    4.42
 -15  -9  -3  119.50    5.67
  -3 -15   9  120.79    4.92
  -9 -15   3  110.70    5.45
  -9  15  -3  115.49    4.37
 -15  -9   3  116.55    5.95
   9   5  15   25.64    3.03
 -15  -9  -5   23.88    3.47
  -9 -15   5   24.17    3.42
  -9  15  -5   23.97    1.54
   9  -5  15   22.92    1.56
 -15   9  -5   25.11    1.60
  -5 -15   9   22.67    2.50
  -7 -15   9  136.93    5.85
   9   7  15  146.52    6.07
  -9 -15   7  137.97    6.24
   9  15   9    9.45    3.58
   9   9  15    5.07    2.86
  -9 -15   9    7.28    2.71
 -15 -11  -1  292.23   10.95
   1 -15  11  296.45   10.05
  -1 -15  11  293.49   10.25
  11  -1  15  297.23   10.10
  11   1  15  301.77   10.31
 -15 -11   1  301.71   11.07
 -11 -15   1  289.27   10.86
 -11 -15  -1  299.72   11.04
  -3 -15  11   49.01    3.30
   3 -11  15   57.70    2.63
  11   3  15   55.88    3.27
 -15 -11  -3   59.88    4.08
 -11  15  -3   53.30    2.56
  11  -3  15   60.09    2.66
 -11 -15   3   55.35    4.22
   5 -11  15  147.58    5.03
  -5 -15  11  159.21    6.24
 -11  15  -5  149.08    5.00
  11   5  15  169.42    6.30
 -15  11  -5  152.55    5.05
 -11 -15   5  170.40    6.76
  11  15   7  164.78    7.42
   7  11  15  182.74    7.43
  -7 -15  11  174.65    6.96
  11   7  15  187.02    7.20
 -15 -11   7  181.75    7.70
   7  15  11  181.08    7.59
  15   7  11  181.13    7.20
 -11 -15   7  177.22    7.40
  -9 -15  11   12.70    2.67
  15   9  11   11.84    2.97
  11  15   9    4.92    3.57
  11   9  15   11.07    2.97
   9  15  11   12.62    3.34
 -11 -15   9   11.17    3.03
  15  11   9    7.59    3.14
   9  11  15    7.57    2.99
 -15 -11   9    5.79    3.08
  11  11  15   16.68    3.21
  11  15  11   15.87    3.45
  15  11  11   14.26    3.14
 -11 -15  11   20.97    3.30
   1 -15  13   98.84    4.11
  13   1  15  106.03    4.36
 -15 -13  -1   99.50    5.38
   1 -13  15  103.26    4.13
  -1 -15  13  104.22    4.37
  13  -1  15  103.00    4.22
 -13 -15   1   98.52    5.29
  -1 -13  15  102.38    4.40
  13   3  15   83.06    3.99
   3 -13  15   77.62    3.12
  -3 -13  15   76.97    3.95
 -13 -15   3   71.75    4.89
 -15 -13  -3   75.55    4.83
  -3 -15  13   76.41    3.95
  -5 -15  13  117.63    5.16
  13   5  15  115.14    5.21
 -13 -15   5  117.96    5.99
 -15 -13   5  112.21    6.01
   5  15  13  114.73    5.84
  15   5  13  124.54    5.34
   7  13  15  103.63    5.51
  15   7  13  106.96    5.10
  13  15   7  102.97    5.46
  -7 -15  13  104.17    4.87
   7  15  13   98.00    5.27
  13   7  15  109.60    5.15
 -13 -15   7  106.84    5.46
 -15 -13   7   95.60    5.56
  15  13   9  391.86   13.96
   9  13  15  396.76   13.92
  15   9  13  373.52   13.68
 -13 -15   9  390.58   13.94
  13  15   9  379.67   13.98
 -15 -13   9  376.98   13.88
  -9 -15  13  386.14   13.56
   9  15  13  383.33   13.98
  13   9  15  389.41   13.70
  15  13  11   36.55    3.73
 -15 -13  11   32.98    3.94
 -13 -15  11   33.22    3.62
 -11 -15  13   35.59    3.36
  15  11  13   44.09    3.66
  13  15  11   35.52    3.92
  11  15  13   30.48    3.79
  13  11  15   38.26    3.57
  11  13  15   39.39    3.91
 -13 -15  13    1.84    3.13
 -15 -13  13    0.65    2.99
  15  13  13    2.02    2.86
  13  15  13    2.26    2.84
  13  13  15    4.19    3.10
  -1 -15  15   -2.15    2.07
   1 -15  15    1.21    1.71
  15   3  15    1.38    2.18
 -15 -15   3    1.58    3.29
  -3 -15  15    6.89    2.31
   3 -15  15    1.32    1.30
  -5 -15  15    7.30    2.55
   5  15  15    3.34    3.02
  15   5  15    1.37    2.38
 -15 -15   5    1.90    3.36
   7  15  15    0.15    2.86
  15   7  15    2.74    2.57
  -7 -15  15    7.23    2.55
 -15 -15   7   -0.15    3.10
   9  15  15   -0.31    2.71
  15  15   9    3.80    3.37
  -9 -15  15    3.14    2.19
 -15 -15   9    0.47    3.21
  15   9  15    1.73    2.71
 -11 -15  15   15.19    2.70
  15  15  11   15.50    3.69
 -15 -15  11   12.29    3.46
  11  15  15   12.98    3.43
  15  11  15   10.93    3.08
  13  15  15   -2.41    3.27
 -15 -13  15   -0.34    3.28
  15  13  15    3.27    3.18
 -15 -15  13   -3.91    3.35
 -13 -15  15    0.97    2.95
  15  15  13    1.03    2.73
 -15 -15  15   11.61    3.00
   0  16   0  295.24   10.39
  -2  16   0 1080.24   35.52
 -16   0  -2 1116.67   35.58
   0  16   2 1091.90   35.66
   0  16  -2 1111.21   35.56
 -16  -2   0 1124.76   35.72
   2  16   0 1092.24   35.67
   2  16   2  184.03    7.43
   2  16  -2  179.55    7.21
  -2  16  -2  190.66    6.99
 -16   2  -2  185.34    7.04
 -16  -2  -2  191.04    7.26
  -2  16   2  185.09    7.16
   0  16   4  115.85    5.47
 -16   0  -4  116.69    5.12
   4  16   0  128.35    5.58
 -16  -4   0  119.80    5.58
  -4  16   0  119.29    5.09
  -2  16  -4  167.47    6.38
 -16  -4  -2  179.03    6.98
 -16   2  -4  165.00    6.39
  -4  16  -2  166.60    6.39
   2  16   4  176.11    7.12
 -16  -2  -4  170.46    6.63
   4  16   2  177.21    7.15
  -4  16  -4  204.90    7.35
 -16  -4  -4  195.68    7.93
   4  16   4  213.25    8.14
 -16   4  -4  214.44    7.40
   6  16   0   56.30    4.06
   0  16   6   59.72    4.05
 -16  -6   0   62.68    4.15
  -6  16   0   60.43    3.29
 -16   0  -6   61.20    3.42
   2  16   6  287.31   10.33
   6  16   2  283.12   10.30
 -16   2  -6  277.79    9.63
 -16  -6   2  282.65   10.42
 -16  -2  -6  277.00    9.91
 -16  -6  -2  278.06   10.20
  -6  16  -2  274.96    9.54
  -6 -16   4  267.64    9.73
   6  16   4  257.87    9.88
 -16  -6  -4  273.97    9.82
 -16   4  -6  271.59    9.06
  -4 -16   6  257.59    9.49
 -16  -4  -6  265.49    9.62
   4  16   6  272.70    9.93
  -6  16  -4  259.09    9.01
 -16   6  -4  264.92    9.05
 -16   6  -6    3.98    1.57
 -16  -6  -6    5.92    2.81
  -6 -16   6    4.29    2.69
   6  16   6    2.72    3.12
 -16  -8   0  638.07   21.48
  -8 -16   2  302.62   11.11
   2  16   8  301.12   11.20
  -8  16  -2  308.92   10.33
 -16  -8  -2  299.52   11.13
  -2 -16   8  300.15   10.57
   8  16   2  308.56   11.21
 -16  -8   2  320.11   11.37
  -4 -16   8  199.36    7.44
   4  16   8  199.07    8.09
 -16   8  -4  195.34    6.88
 -16  -8   4  203.80    8.06
 -16  -8  -4  204.39    7.91
  -8 -16   4  192.41    7.87
  -8  16  -4  199.17    6.86
   8  16   4  208.97    8.14
   8  -6  16   91.74    3.36
   8  16   6   90.26    5.05
  -6 -16   8   91.45    4.41
  -8 -16   6   88.37    4.79
   6  16   8   93.11    5.03
 -16   8  -6   89.71    3.38
   8   8  16  389.72   13.50
  -8 -16   8  377.98   13.42
 -16 -10   0  261.92   10.15
   0 -16  10  263.44    9.31
  10   0  16  279.19    9.38
  -2 -16  10   65.80    3.41
 -16 -10   2   60.72    4.53
  10  -2  16   64.95    3.07
  10   2  16   63.20    3.63
 -10  16  -2   65.19    3.05
 -16 -10  -2   65.52    4.54
 -10 -16   2   62.81    4.23
 -16 -10  -4   17.98    3.18
  -4 -16  10   19.73    2.44
 -10  16  -4   19.81    1.61
  10  16   4   19.71    3.31
   4  16  10   20.17    3.27
 -10 -16   4   14.77    3.30
  10   4  16   18.35    2.87
  10  -4  16   24.72    1.72
  10   6  16   56.77    3.50
 -10 -16   6   52.97    3.95
   6 -10  16   44.12    1.70
  -6 -16  10   55.23    3.21
 -16  10  -6   48.85    1.73
 -10 -16   8   59.07    4.05
   8  10  16   63.62    4.16
  -8 -16  10   63.25    3.79
  10   8  16   68.49    4.08
  10  10  16  142.21    6.42
  10  16  10  142.09    6.52
 -10 -16  10  149.42    6.36
 -12 -16   0  105.96    5.55
   0 -16  12  109.27    4.54
  12   0  16  116.20    4.61
 -16 -12   0  111.99    5.67
  12  -2  16   77.47    3.28
  12   2  16   72.65    3.80
  -2 -16  12   71.41    3.65
   2 -12  16   69.69    3.23
 -12 -16   2   75.69    4.55
 -16 -12  -2   71.96    4.62
  12   4  16  346.87   11.94
 -12 -16   4  344.96   12.45
 -16 -12  -4  365.89   12.51
   4 -12  16  332.59   11.10
 -12  16  -4  338.07   11.08
  -4 -16  12  351.34   11.92
 -16 -12   6   51.06    4.42
  -6 -16  12   57.62    3.45
 -12 -16   6   54.65    4.08
  12   6  16   61.04    3.75
  12   8  16    6.45    2.70
 -12 -16   8    6.37    3.27
 -16 -12   8    5.25    3.10
   8  16  12   10.86    3.45
  16   8  12    7.04    2.83
  12  16   8    9.49    3.49
   8  12  16    8.65    3.23
  -8 -16  12    6.64    2.24
  16  10  12   22.13    3.39
  12  10  16   27.44    3.30
 -12 -16  10   24.71    3.46
  12  16  10   18.98    3.17
  10  12  16   28.84    3.35
 -10 -16  12   26.32    3.05
  10  16  12   28.75    3.61
 -16 -12  10   23.44    3.60
  16  12  12  393.91   14.13
 -16 -12  12  389.96   14.27
  12  16  12  389.53   14.17
 -12 -16  12  371.06   13.93
  12  12  16  403.64   14.12
   0 -14  16  113.66    4.64
 -14 -16   0  114.10    5.90
   0 -16  14  111.04    4.63
  14   0  16  120.19    4.71
  -2 -16  14   66.90    3.59
  -2 -14  16   75.15    3.71
 -16 -14  -2   74.95    4.69
  14   2  16   76.74    3.69
   2 -16  14   65.86    3.09
 -14 -16   2   71.02    4.57
   2 -14  16   67.21    3.09
  -4 -14  16   15.54    2.64
 -16 -14   4   13.71    3.34
  -4 -16  14   11.50    2.49
 -14 -16   4   12.94    3.46
  14   4  16   12.51    2.55
 -14  16  -4    9.52    1.12
  14   6  16  562.55   18.87
   6  16  14  554.47   19.27
  16   6  14  558.36   18.88
 -16 -14   6  544.77   19.23
  -6 -16  14  565.50   18.83
   6  14  16  560.22   19.25
 -14 -16   6  534.76   19.20
  -6 -14  16  565.05   18.84
   8  14  16  138.18    6.66
  -8 -14  16  141.20    6.22
  16   8  14  134.95    6.31
  14  16   8  148.43    6.72
 -16 -14   8  143.41    6.78
 -14 -16   8  152.28    6.79
   8  16  14  149.57    6.84
  14   8  16  147.79    6.40
  -8 -16  14  141.50    6.09
  16  10  14    9.08    2.96
 -14 -16  10   17.14    3.39
 -10 -14  16   12.29    2.41
 -10 -16  14   21.33    2.57
  14  10  16   17.55    3.21
  10  16  14   19.85    3.64
  14  16  10   10.31    3.39
  10  14  16    4.55    3.11
 -16 -14  10   16.87    3.11
 -14 -16  12  537.21   18.59
  16  14  12  518.94   18.59
 -12 -14  16  531.24   18.44
  12  14  16  535.88   18.63
 -16 -14  12  530.91   18.69
  14  16  12  519.13   18.59
  16  12  14  525.52   18.53
  12  16  14  535.52   18.68
  14  12  16  531.30   18.51
 -12 -16  14  538.25   18.45
 -16 -14  14  373.96   13.53
 -14 -14  16  364.37   13.38
 -14 -16  14  341.66   13.17
   0 -16  16 1115.63   35.85
 -16 -16   2   21.45    3.31
   2 -16  16   16.94    1.69
 -16 -16   4   40.56    4.12
  16   4  16   40.40    3.04
 -16  16  -4   33.80    1.47
  -4 -16  16   39.98    3.02
  -6 -16  16  490.64   16.66
   6  16  16  491.90   17.27
  16   6  16  481.65   16.71
 -16 -16   6  486.04   17.22
 -16 -16   8  450.27   16.51
  16   8  16  467.88   16.19
  -8 -16  16  463.28   16.07
   8  16  16  469.27   16.51
  16  10  16   16.85    3.06
 -16 -16  10   24.48    3.69
 -10 -16  16   17.57    2.53
 -12 -16  16  234.01    9.18
 -16 -16  12  222.30    9.36
  16  12  16  232.65    9.24
 -14  16 -16  689.87   23.28
  16  14 -16  718.18   23.36
 -16  16 -16  194.33    7.69
  16  16 -16  208.53    7.95
   1  17   1    1.69    2.79
 -17  -1  -1    2.34    3.00
  -1  17  -1    1.33    2.64
   1  17  -1   -0.76    2.57
  -1  17   1   -0.25    2.72
   3  17   1  672.46   22.77
 -17   1  -3  666.33   22.48
  -1  17  -3  691.34   22.51
 -17  -1  -3  697.16   22.64
   1  17   3  675.00   22.79
   1  17  -3  689.76   22.64
  -1  17   3  694.82   22.72
  -3  17  -1  690.30   22.47
 -17  -3   1  699.58   22.86
  -3  17   1  689.01   22.58
   3  17  -1  688.48   22.75
 -17  -3  -1  688.01   22.77
 -17   3  -3    3.33    2.42
  -3  17  -3    2.37    2.29
 -17  -3  -3    0.90    2.76
  -3  17   3    1.22    2.79
   3  17   3    0.91    3.18
  -1  17   5  348.71   12.19
  -5  17   1  339.68   11.87
 -17   1  -5  343.32   11.72
   5  17   1  349.71   12.31
   5  17  -1  350.15   12.25
 -17  -1  -5  336.77   11.92
   1  17   5  339.62   12.21
 -17  -5   1  351.07   12.33
  -5  17  -1  346.62   11.72
 -17  -5  -1  340.30   12.27
  -5  17  -3   76.07    3.64
 -17   5  -3   84.85    3.77
 -17  -5  -3   80.89    4.51
 -17  -5   3   77.37    4.76
 -17   3  -5   82.20    3.80
 -17  -3  -5   76.54    4.31
   3  17   5   85.38    4.64
   5  17   3   79.37    4.66
  -5 -17   5   -2.18    2.58
 -17  -5  -5    0.78    2.79
 -17   5  -5   -1.12    1.91
   5  17   5   -2.84    3.27
 -17  -7  -1  386.00   13.55
   7  17   1  392.77   13.60
 -17  -1  -7  384.29   13.10
 -17   1  -7  382.11   12.96
   1  17   7  396.18   13.60
 -17  -7   1  376.65   13.61
  -7  17  -1  375.21   12.89
  -3 -17   7  126.19    5.34
 -17  -3  -7  130.81    5.64
 -17  -7  -3  136.30    6.01
  -7 -17   3  130.83    5.86
   3  17   7  128.28    5.98
 -17  -7   3  127.94    6.11
   7  17   3  130.45    6.08
  -7  17  -3  134.71    5.03
 -17   3  -7  141.29    5.14
  -7 -17   5   48.86    3.56
 -17   7  -5   50.12    2.58
 -17   5  -7   48.61    2.53
   7  17   5   58.12    4.02
 -17  -7  -5   50.54    3.84
   5  17   7   52.81    4.23
  -5 -17   7   55.37    3.43
 -17  -7   5   51.66    4.30
  -7 -17   7    1.39    2.64
   7  17   7    5.22    3.37
   1  17   9  624.83   21.27
   9   1  17  637.31   20.73
   9  -1  17  639.63   20.61
  -9  17  -1  635.44   20.56
 -17  -9   1  619.57   21.34
 -17  -9  -1  606.42   21.27
  -9 -17   3    1.51    3.21
 -17  -9  -3   -1.07    3.27
  -3 -17   9   -0.42    1.77
 -17  -9   3    0.75    3.23
  -9  17  -3    0.54    1.63
   3  17   9    4.66    3.29
   9   3  17    1.92    2.27
   9  17   3   -1.27    3.37
   9  -3  17    0.05    1.72
   9   5  17   91.54    4.72
   5  17   9   91.44    5.28
 -17  -9  -5  102.57    5.25
   9  17   5   85.18    5.14
   9  -5  17   96.55    3.61
  -5 -17   9   88.84    4.27
 -17   9  -5   99.20    3.62
  -9 -17   5   99.49    5.04
 -17  -9   5   86.59    5.36
  -7 -17   9   15.37    2.57
  -9 -17   7   17.11    3.07
   9   7  17   17.55    2.85
   9  -7  17   11.15    0.77
   9   9  17    8.74    3.20
  -9 -17   9    4.29    2.79
  11  -1  17   43.06    2.68
 -11 -17   1   40.63    3.89
  11   1  17   42.39    2.97
  -1 -17  11   42.89    2.86
 -17 -11   1   45.68    4.10
 -11  17  -3    6.84    1.58
  -3 -17  11    6.68    2.36
 -17 -11   3    2.97    3.41
   3  17  11    8.96    3.27
  11  -3  17    5.34    1.60
  11   3  17    8.65    2.38
 -17 -11  -3   10.59    3.13
 -11 -17   3    6.01    3.18
  11  -5  17  148.12    4.98
  11   5  17  147.98    6.09
  -5 -17  11  154.24    6.00
   5 -11  17  142.06    4.91
 -11 -17   5  145.47    6.50
 -17  11  -5  140.36    4.92
  11   7  17  134.86    5.94
   7  11  17  131.94    6.11
 -11 -17   7  133.08    6.27
  -7 -17  11  134.20    5.68
  -9 -17  11  172.24    6.87
 -11 -17   9  164.20    7.10
 -17 -11   9  175.95    7.53
   9  17  11  164.74    7.38
   9  11  17  156.71    7.14
  11  17   9  149.69    7.14
  11   9  17  174.45    7.08
 -17 -11  11   -1.13    3.33
  11  17  11    2.09    2.92
 -11 -17  11   -0.56    2.90
  11  11  17    1.00    3.03
  -1 -17  13   93.17    4.15
 -17 -13  -1   97.56    5.44
 -13 -17   1   89.22    5.23
  13  -1  17   99.11    4.02
  -1 -13  17   99.83    4.29
  13   1  17   94.06    4.26
   1 -13  17   89.42    3.93
 -17 -13   1   96.90    5.47
 -17 -13  -3    6.13    3.04
  -3 -17  13    9.87    2.33
  13   3  17    6.96    2.39
   3 -13  17    4.05    1.46
 -13 -17   3    7.05    3.29
 -13  17  -3    4.35    1.38
  -5 -17  13   94.71    4.73
  13   5  17  105.97    4.81
 -13 -17   5  101.40    5.53
   7  13  17    8.40    3.21
   7  17  13    9.57    3.53
  13   7  17    5.28    2.58
 -17 -13   7   10.42    3.51
  13  17   7   10.70    3.50
 -13 -17   7    8.21    3.06
  -7 -17  13   10.91    2.32
 -13 -17   9   25.71    3.49
   9  13  17   22.28    3.25
  13  17   9   27.06    3.84
   9  17  13   16.73    3.60
  13   9  17   25.89    3.30
 -17 -13   9   22.22    3.75
  -9 -17  13   27.58    2.73
 -17 -13  11  258.57   10.45
  13  17  11  251.84   10.39
  11  17  13  246.61   10.35
  11  13  17  263.71   10.25
  17  11  13  280.48   10.27
 -11 -17  13  264.28   10.07
 -13 -17  11  257.07   10.24
  13  11  17  280.66   10.19
  17  13  13   14.82    3.29
 -17 -13  13   15.56    3.72
  13  13  17   16.93    3.47
 -13 -17  13   15.72    3.17
  -1 -17  15   -3.82    2.06
 -17 -15  -1    2.01    3.31
   1 -17  15    0.60    1.51
   1 -15  17   -0.49    1.66
  15   1  17    0.92    2.08
 -15 -17   1    3.23    3.41
  -1 -15  17    2.45    1.90
   3 -15  17  188.48    6.51
  -3 -17  15  192.19    7.21
  15   3  17  197.98    7.37
  -3 -15  17  197.06    7.32
 -15  17  -3  189.24    6.50
 -15 -17   3  187.76    8.18
 -17 -15   5    1.77    2.80
   5  15  17   -3.15    2.74
  15   5  17   -0.34    2.31
  -5 -17  15    1.30    2.31
  -5 -15  17   -3.71    2.48
 -15 -17   5    0.16    3.28
   5  17  15    2.07    3.27
  -7 -17  15   42.38    3.40
  17   7  15   50.46    3.62
   7  15  17   54.69    4.32
  -7 -15  17   50.90    3.57
   7  17  15   46.94    4.36
  15   7  17   54.84    3.66
 -15 -17   7   44.67    4.14
 -17 -15   7   50.85    4.40
 -15 -17   9   29.86    3.82
  17   9  15   27.58    3.23
  -9 -17  15   22.61    2.59
  15   9  17   22.31    3.17
   9  15  17   31.35    3.76
  -9 -15  17   28.31    2.97
  15  17   9   27.18    3.88
 -17 -15   9   23.21    3.29
   9  17  15   26.15    3.35
 -11 -15  17   15.28    2.45
  17  11  15   14.15    3.33
  15  11  17   13.47    3.09
 -11 -17  15   14.95    2.53
 -15 -17  11   14.60    3.38
 -17 -15  11   15.52    3.13
  17  13 -15    7.68    2.78
 -13 -15  17    3.27    2.64
 -13 -17  15    0.51    2.94
 -15  15 -17    3.35    2.60
  15  15 -17    2.00    2.86
  15  17 -15    7.17    2.89
  17  15 -15    0.84    2.85
 -15  17 -15    0.20    2.60
  -1 -17  17    2.67    1.87
   1 -17  17    0.73    1.57
 -17 -17   3    2.90    2.92
  -3 -17  17   -0.88    2.19
 -17  17  -3    0.07    1.00
  17   5  17   -2.97    2.35
  -5 -17  17    1.15    2.39
 -17 -17   5   -5.06    3.38
  17   7  17   -1.08    2.51
 -17 -17   7    0.53    3.38
  -7 -17  17    1.82    2.46
  17   9 -17    1.93    2.58
  17   9  17    3.91    2.88
  -9 -17  17    3.34    2.40
  17  11 -17    8.32    3.00
 -11 -17  17    3.71    2.10
 -11  17 -17    6.20    2.71
  17  11  17    6.16    2.96
  17  13 -17    6.67    3.10
  13  17 -17    8.32    2.71
 -17  13 -17    2.75    2.60
 -13  17 -17    2.74    2.72
  17  17 -15    4.28    3.19
 -17  15 -17   -0.31    2.68
  17  15 -17    1.08    3.00
 -17  17 -15   -0.40    2.50
  15  17 -17    0.10    2.72
 -15  17 -17    2.04    2.74
 -17  17 -17    1.74    2.80
  17  17 -17   -1.92    3.04
   0  18   0  578.48   19.33
   2  18   0  594.67   19.91
 -18   0  -2  601.55   19.81
  -2  18   0  580.32   19.72
 -18  -2   0  601.41   19.97
   0  18   2  587.97   19.90
   0  18  -2  602.70   19.78
  -2  18   2   11.37    2.78
  -2  18  -2   12.39    2.37
   2  18  -2   10.89    3.07
   2  18   2    8.53    3.03
 -18  -2  -2   12.04    2.95
 -18   2  -2   11.12    2.75
   4  18   0   57.22    3.83
   0  18   4   58.86    3.86
 -18   0  -4   56.92    3.53
 -18  -4   0   48.30    3.93
  -4  18   0   50.29    3.33
  -2  18   4  301.71   11.27
 -18  -4  -2  309.09   11.32
  -4  18   2  308.02   11.13
 -18   2  -4  318.33   10.99
  -4  18  -2  321.38   10.92
 -18  -4   2  319.10   11.52
   4  18   2  325.76   11.47
   2  18   4  325.06   11.44
 -18  -4  -4  353.70   12.81
  -4  18  -4  369.92   12.32
 -18   4  -4  363.02   12.31
   4  18   4  369.32   13.04
 -18   0  -6  664.68   21.80
   6  18   0  670.57   22.24
   0  18   6  669.66   22.18
  -6  18   0  652.92   21.74
 -18  -6   0  655.48   22.24
 -18  -2  -6   28.13    2.86
  -6  18  -2   36.50    2.51
 -18  -6   2   26.97    3.61
 -18   2  -6   29.30    2.67
   2  18   6   35.42    3.50
 -18  -6  -2   31.32    3.49
   6  18   2   30.07    3.34
  -6  18   2   33.58    3.04
 -18  -6  -4   16.92    3.09
 -18   4  -6   18.91    2.15
 -18  -6   4   16.64    3.48
 -18   6  -4   22.33    2.19
 -18  -4  -6   20.51    2.98
   4  18   6   27.10    3.54
  -6  18  -4   20.75    2.08
   6  18   4   27.23    3.70
 -18  -6  -6  102.65    5.04
   6  18   6  110.36    5.58
 -18   6  -6   98.16    4.06
  -6 -18   6  111.94    4.97
 -18  -8   0  468.66   16.61
   0  18   8  484.99   16.56
  -8  18   0  480.32   15.95
   8  18   2  899.74   29.23
 -18  -8   2  884.86   29.18
  -8  18  -2  868.95   28.37
   2  18   8  873.30   29.10
 -18  -8  -2  884.88   29.13
  -8 -18   4  313.21   11.32
 -18  -8  -4  323.17   11.40
  -4 -18   8  300.05   10.81
   4  18   8  311.23   11.46
 -18  -8   4  309.04   11.55
  -8  18  -4  302.94   10.33
   8  18   4  309.39   11.48
 -18   8  -4  309.85   10.36
   8  -6  18    4.07    1.34
 -18  -8  -6    5.96    3.00
  -8 -18   6    4.80    2.79
 -18  -8   6    3.32    3.33
   6  18   8    6.75    3.47
  -6 -18   8    7.78    2.47
 -18   8  -6    3.77    1.32
   8  18   6    8.99    3.58
  -8 -18   8   16.97    2.88
   8  18   8   15.51    3.41
   8   8  18   17.53    3.06
   8  -8  18   11.46    0.88
  10   0  18   65.27    3.44
 -18 -10   0   68.18    4.47
 -18 -10   2  100.01    5.55
  10   2  18  102.49    4.58
 -10  18  -2   99.25    4.14
  -2 -18  10   98.77    4.45
  10  -2  18  106.03    4.23
   2  18  10  106.96    5.53
 -18 -10  -2  105.48    5.49
 -18 -10  -4  116.46    5.74
 -10 -18   4  106.75    5.58
  10  18   4  113.44    5.76
  10  -4  18  111.80    4.32
 -18 -10   4  110.23    5.87
  -4 -18  10  107.88    4.91
   4  18  10  118.62    5.93
 -18  10  -4  117.52    4.32
 -10  18  -4  117.93    4.28
  10   4  18  121.05    5.10
   6 -10  18   99.00    3.61
 -10 -18   6  117.51    5.46
  10  18   6  109.69    5.76
  -6 -18  10  115.71    4.80
   6  18  10  106.46    5.44
  10  -6  18  110.20    3.68
 -18  10  -6   97.92    3.60
  10   6  18  115.66    5.08
 -10 -18   8   58.47    4.00
  -8 -18  10   56.94    3.70
  10   8  18   62.65    4.04
   8  10  18   57.09    4.01
 -18 -10  10    2.57    3.50
 -10 -18  10    6.97    2.63
  10  10  18    5.39    2.85
 -18 -12   0    8.82    3.56
  12   0  18    7.93    2.04
 -12 -18   2  391.95   14.31
 -12  18  -2  390.68   13.16
  -2 -18  12  386.29   13.54
  12  -2  18  403.30   13.26
   2  18  12  398.21   14.35
  12   2  18  403.93   13.65
 -18 -12  -2  408.78   14.36
 -18 -12   2  403.76   14.43
   2 -12  18  401.44   13.21
 -12  18  -4   33.45    1.80
   4  18  12   35.38    3.95
 -12 -18   4   26.10    3.34
 -18 -12  -4   32.29    3.62
  12  -4  18   32.55    1.90
 -18  12  -4   33.53    1.82
  12   4  18   37.44    3.05
  -4 -18  12   36.00    2.76
   4 -12  18   32.71    1.82
  -6 -18  12   63.41    3.61
  12   6  18   62.41    3.97
 -12 -18   6   60.84    4.29
   8  12  18 1233.09   40.74
  -8 -18  12 1261.10   40.48
 -18 -12   8 1167.51   40.78
 -12 -18   8 1267.69   40.79
  12   8  18 1276.26   40.58
 -12 -18  10   20.69    3.21
  12  18  10   34.53    3.90
 -10 -18  12   29.42    3.12
 -18 -12  10   20.92    3.76
  10  18  12   26.33    3.75
  12  10  18   25.31    3.41
  10  12  18   30.44    3.34
 -18 -12  12 1464.80   48.54
 -12 -18  12 1477.87   48.27
  12  12  18 1497.77   48.32
  14   0  18   65.56    3.30
   0 -18  14   62.93    3.18
 -18 -14   0   60.39    4.76
   0 -14  18   67.47    3.28
 -14  18  -2    6.29    1.45
  -2 -18  14    9.28    2.17
   2 -14  18    7.20    1.54
  -2 -14  18    7.51    2.15
 -14 -18   2    7.25    3.33
  14   2  18    5.67    2.13
 -18 -14  -2    6.37    3.38
  -4 -18  14   14.94    2.47
 -18  14  -4   12.71    1.14
 -14 -18   4   15.68    3.16
  14   4  18   13.76    2.64
 -14  18  -4   12.24    1.04
  -4 -14  18   19.09    2.68
   4 -14  18   12.50    1.12
  14   6  18    4.25    2.51
  -6 -18  14    5.13    2.39
   6  14  18    9.84    3.35
 -18 -14   6   -0.50    3.02
 -14 -18   6    8.10    3.35
 -14 -18   8   13.47    3.37
  -8 -18  14    8.27    2.15
   8  14  18    9.40    3.13
 -18 -14   8    7.08    3.20
  14  18   8    6.77    3.51
  14   8  18   11.37    2.91
   8  18  14    4.97    2.94
 -14 -18  10   22.64    3.35
 -10 -18  14   22.12    2.60
  10  14  18   24.49    3.30
  14  10  18   28.15    3.37
 -18 -14  10   20.13    3.55
 -12 -18  14   16.88    2.82
  18  12 -14   12.28    2.90
  14  12  18   10.72    3.27
 -14 -18  12   10.86    3.23
 -14  14 -18  110.17    5.09
  14  14 -18  107.27    5.05
  18  14 -14  111.60    5.33
   0 -18  16   71.42    3.37
   0 -16  18   67.08    3.38
  -2 -18  16  195.16    7.22
   2 -16  18  182.01    6.66
  16   2  18  202.40    7.35
  -2 -16  18  194.15    7.22
 -16 -18   2  190.25    8.29
  -4 -18  16  247.05    9.15
  16   4  18  251.87    9.30
 -16 -18   4  259.34    9.97
  -4 -16  18  252.03    9.23
 -18 -16   4  236.20   10.00
  16   6  18   25.40    3.05
  -6 -18  16   34.29    3.00
  -6 -16  18   25.47    2.98
 -18 -16   6   25.25    4.00
 -16 -18   6   30.85    3.97
  -8 -18  16    9.87    2.57
  -8 -16  18    9.98    2.67
  16   8  18   15.05    2.91
 -16 -18   8    7.67    3.02
  16  10 -18    1.25    2.59
 -10 -16  18    3.87    2.32
 -10  16 -18   -0.51    2.67
  18  10 -16    3.81    2.90
  16  10  18    6.48    2.87
 -10 -18  16    1.08    2.04
 -10  18 -16    2.24    2.85
 -12  18 -16   16.54    3.09
 -12 -18  16   23.01    2.96
  18  12 -16   20.00    3.23
 -12  16 -18   20.40    2.99
 -16  12 -18   14.35    2.75
  16  12 -18   17.40    3.08
 -12 -16  18   20.21    2.64
 -18  14 -16   74.45    3.96
  14  16 -18   68.01    4.06
 -16  14 -18   71.03    4.13
 -14  18 -16   74.35    4.19
  18  14 -16   70.74    4.32
  18  16 -14   65.72    4.22
 -16  18 -14   69.00    3.96
  16  14 -18   70.86    4.13
  14  18 -16   65.66    4.07
 -14  16 -18   71.98    4.29
  16  18 -16  367.62   13.18
 -16  18 -16  366.90   13.11
  16  16 -18  377.79   13.18
 -16  16 -18  382.95   13.16
  18  16 -16  370.88   13.22
 -18  16 -16  371.54   13.04
   0 -18  18  189.07    6.72
   0  18 -18  176.42    7.34
  -2 -18  18  125.82    5.20
  18   4 -18    3.28    2.86
  -4 -18  18    4.85    2.23
  -6  18 -18    5.95    2.92
  -6 -18  18    5.34    2.30
   6  18 -18   10.92    2.83
  18   6 -18    8.55    3.04
   8  18 -18  443.15   15.57
  -8  18 -18  460.34   15.67
  18   8  18  455.27   15.98
  -8 -18  18  460.91   15.95
  18   8 -18  449.39   15.53
 -10 -18  18   93.85    4.89
  18  10 -18   97.10    5.02
 -18  10 -18   99.19    4.74
 -10  18 -18   94.08    4.87
  10  18 -18   94.42    4.80
  12  18 -18 1144.79   38.97
 -12  18 -18 1204.20   39.12
  12  18 -18 1203.40   38.91
 -18  12 -18 1228.97   38.99
  18  12 -18 1234.79   39.12
  14  18 -18    6.32    2.82
  14  18 -18    5.45    2.68
 -14  18 -18    2.85    3.11
 -18  14 -18    2.13    2.78
  18  14 -18    1.91    3.05
 -18  18 -14    0.70    2.62
  18  18 -16  104.44    5.66
 -16  18 -18  121.30    5.63
  16  18 -18  116.26    5.53
 -18  16 -18  122.94    5.58
  18  16 -18  118.41    5.75
 -18  18 -16  118.78    5.42
 -18  18 -18  694.71   23.13
  18  18 -18  684.43   23.18
 -19   1  -1    1.31    2.76
 -19  -1  -1    0.30    2.78
  -1  19  -1    0.45    2.62
  -1  19   1   -0.29    2.62
   1  19  -1    1.07    2.72
   1  19   1   -1.13    2.94
 -19  -1  -3   27.65    3.22
  -3  19   1   25.33    2.96
  -3  19  -1   27.02    2.80
   3  19   1   27.75    3.20
 -19  -3  -1   23.69    3.31
  -1  19   3   28.95    3.25
   1  19   3   20.59    3.23
 -19   1  -3   34.26    3.10
 -19  -3   1   26.67    3.53
  -1  19  -3   28.31    2.97
   3  19  -1   25.02    3.11
   3  19   3    0.11    3.13
 -19  -3  -3    3.17    2.78
  -3  19   3   -0.69    2.68
  -3  19  -3   -0.31    2.30
 -19   3  -3   -2.62    2.37
  -1  19   5  295.95   10.83
 -19   1  -5  291.33   10.43
   1  19   5  301.00   10.94
 -19  -5   1  291.12   10.96
 -19  -1  -5  303.83   10.59
  -5  19   1  307.61   10.52
   5  19   1  304.09   10.96
  -5  19  -1  283.19   10.39
 -19  -5  -1  301.26   10.92
   3  19   5   49.21    4.10
 -19  -5   3   52.18    4.23
  -5  19  -3   57.57    3.19
 -19   5  -3   53.54    3.08
   5  19   3   50.03    3.97
 -19   3  -5   58.61    3.14
 -19  -3  -5   55.06    3.74
  -5  19   3   55.80    3.70
 -19  -5  -3   50.82    3.99
  -3  19   5   61.00    3.82
 -19   5  -5    2.67    1.79
   5  19   5   -0.64    2.90
 -19  -5  -5    0.11    2.89
   1  19   7  314.19   11.49
 -19  -1  -7  311.06   10.92
 -19  -7  -1  321.27   11.51
 -19  -7   1  304.04   11.50
 -19   1  -7  312.15   10.77
  -7  19   1  308.33   10.92
   7  19   1  300.17   11.50
  -1  19   7  320.89   11.42
  -7  19  -1  313.08   10.77
  -7  19  -3  149.71    5.51
 -19  -3  -7  150.92    6.06
 -19   7  -3  144.85    5.54
   7  19   3  136.31    6.44
 -19  -7  -3  143.81    6.37
 -19  -7   3  149.49    6.72
   3  19   7  150.42    6.49
 -19   3  -7  138.65    5.49
   5  19   7  203.46    8.01
 -19   7  -5  187.75    6.69
 -19  -7  -5  187.96    7.68
   7  19   5  186.83    7.99
 -19   5  -7  191.34    6.70
  -5 -19   7  189.66    7.39
 -19  -7   5  178.78    7.82
  -7 -19   7    2.82    2.51
 -19   7  -7    0.04    1.26
   7  19   7    3.27    3.46
 -19  -9   1    1.64    3.33
   9   1  19    2.05    2.06
 -19  -9  -1    4.95    3.15
   1  19   9    1.33    3.33
  -9  19   1    3.94    2.00
  -9  19  -1    5.14    1.94
   9  -1  19    1.47    1.96
   9  19   3  257.39   10.25
 -19  -9  -3  269.41   10.20
   9   3  19  260.38    9.74
   9  -3  19  286.51    9.29
 -19  -9   3  279.76   10.48
   3  19   9  259.79   10.17
  -9  19  -3  264.79    9.21
   9  19   5  267.24   10.30
   9   5  19  274.67    9.87
 -19  -9   5  281.16   10.52
 -19   9  -5  265.68    8.98
  -9 -19   5  265.16   10.14
  -5 -19   9  271.48    9.68
 -19  -9  -5  264.41   10.20
   5  19   9  272.34   10.41
   9  -5  19  264.44    9.01
   9  -7  19  999.27   33.11
   9  19   7 1088.04   34.62
  -9 -19   7 1061.03   34.34
  -7 -19   9 1092.90   34.23
   7  19   9 1090.18   34.64
   9   7  19 1126.61   34.32
 -19  -9   7 1107.90   34.71
  -9 -19   9    7.18    2.70
   9   9  19    6.19    2.93
   1  19  11    0.58    3.15
  11   1  19    4.22    2.21
 -19 -11   1   -1.03    3.28
 -11  19  -1    0.81    1.77
  11  -1  19    3.75    1.91
 -19 -11  -1    3.05    3.05
 -11 -19   3   46.23    3.92
  11   3  19   39.77    3.09
  11  -3  19   38.07    2.32
  -3 -19  11   39.61    2.78
 -11  19  -3   37.27    2.21
   3  19  11   43.55    3.81
 -19 -11   3   36.38    4.04
 -19 -11  -3   43.27    3.90
 -19  11  -5    2.81    1.02
  11  19   5    2.67    3.31
 -19 -11   5   -1.09    3.43
  11   5  19    3.36    2.50
   5 -11  19    0.65    1.09
  11  -5  19    2.39    1.22
  -5 -19  11    1.41    1.79
   5  19  11    1.39    3.15
 -11 -19   5    0.85    3.13
 -11 -19   7   40.27    3.73
  -7 -19  11   43.63    2.96
  11   7  19   32.87    3.35
 -11 -19   9    6.65    2.96
   9  11  19   13.05    2.94
  -9 -19  11   13.83    2.66
  11   9  19    8.38    2.95
  11  11  19    2.16    3.03
 -11 -19  11    2.72    2.77
 -19 -11  11   10.01    3.59
  13  -1  19   50.04    2.70
   1 -13  19   51.55    2.71
 -19 -13   1   44.60    3.97
 -19 -13  -1   39.77    4.28
  13   1  19   42.05    2.93
 -13  19  -1   43.72    2.63
  13   3  19  260.02    9.40
 -13 -19   3  261.82   10.14
 -19 -13  -3  257.19   10.21
  13  -3  19  266.76    8.76
   3 -13  19  246.03    8.66
  -3 -19  13  269.18    9.33
   3  19  13  275.48   10.26
 -13  19  -3  250.20    8.64
 -19 -13   3  247.28   10.05
 -13 -19   5    0.78    2.94
  13   5  19    1.84    2.37
  -5 -19  13    2.23    2.18
   7  13  19  159.57    7.08
  13   7  19  155.42    6.75
  -7 -19  13  159.72    6.52
 -13 -19   7  171.41    7.30
 -13 -19   9  511.51   17.79
  13   9  19  516.67   17.61
 -19 -13   9  476.50   17.85
   9  13  19  509.66   17.85
  -9 -19  13  512.60   17.49
  19  11 -13  275.07   10.10
 -11 -19  13  280.98   10.62
 -13 -19  11  277.66   10.73
  13  11  19  281.97   10.67
 -13  13 -19    7.94    2.78
  19  13 -13   11.38    3.08
 -13 -19  13    8.11    2.96
  15   1  19   12.05    2.07
 -19 -15  -1   14.23    3.40
  -1 -19  15   16.07    2.04
   1 -15  19   14.04    1.82
 -19 -15   1   14.71    3.31
  -1 -15  19   19.03    2.17
  15   3  19    4.92    2.24
   3 -15  19    3.89    1.20
  -3 -15  19    3.13    2.24
  -3 -19  15    0.89    2.16
 -15  19  -3    3.23    1.09
 -15 -19   3    5.91    3.00
  -5 -19  15    6.91    2.37
 -15 -19   5    6.31    3.41
  15   5  19    9.79    2.56
  -5 -15  19    7.75    2.53
  -7 -15  19   23.95    2.99
  15   7  19   20.91    2.94
 -15 -19   7   20.40    3.58
  -7 -19  15   25.99    2.83
 -15 -19   9    2.15    2.89
  15   9  19    6.18    2.79
  19   9 -15    9.71    3.00
  -9 -19  15    8.47    2.15
  -9 -15  19    6.57    2.61
  -9  15 -19   10.49    3.12
  15  11 -19   57.79    3.81
 -11  15 -19   54.31    3.82
 -11 -19  15   52.76    3.71
 -11  19 -15   53.13    3.75
 -15  11 -19   59.66    3.83
  19  11 -15   57.63    4.00
 -11 -15  19   52.05    3.66
 -15  19 -13   16.21    2.72
  13  15 -19   13.13    2.70
  15  13 -19   16.75    3.09
 -15  13 -19   19.97    2.97
  19  13 -15   14.30    3.10
 -13  19 -15   20.38    3.03
  13  19 -15   16.96    3.02
 -13  15 -19   14.11    3.05
  15  19 -15    2.54    2.84
  15  15 -19   -0.31    2.89
 -15  15 -19    1.54    2.84
 -15  19 -15    2.44    2.74
 -19  15 -15    1.06    2.36
  19  15 -15   -0.57    3.04
  -1  19 -17   27.84    3.21
   1  19 -17   32.22    3.38
  -1 -17  19   27.20    2.40
   1 -17  19   30.10    2.02
  -1  17 -19   27.42    3.27
  -1 -19  17   33.20    2.41
   1  17 -19   20.48    3.26
   3  19 -17    7.68    3.11
  -3 -19  17   13.57    2.28
  -3 -17  19   14.14    2.35
  17   5  19    8.16    2.35
  -5 -17  19   10.00    2.43
  -5  19 -17    9.89    3.00
   5  19 -17    8.11    3.01
  17   5 -19    4.64    2.82
  -5 -19  17    7.03    2.31
  19   5 -17    9.03    3.04
  -7  17 -19   22.01    3.29
   7  19 -17   23.14    3.19
  -7 -19  17   20.47    2.65
  17   7 -19   19.26    3.05
  -7  19 -17   21.47    3.37
  19   7 -17   21.30    3.08
  -7 -17  19   25.67    2.88
  17   7  19   23.45    2.94
   7  17 -19   15.44    2.90
  -9 -17  19  217.13    8.59
  -9  19 -17  220.04    8.36
  -9 -19  17  218.20    8.53
  17   9 -19  211.80    8.19
   9  19 -17  218.30    8.33
  19   9 -17  214.52    8.29
  17   9  19  223.41    8.67
 -17   9 -19  207.87    8.11
  -9  17 -19  215.44    8.42
   9  17 -19  201.36    8.17
 -11  19 -17  152.89    6.42
  11  19 -17  131.33    6.21
 -11  17 -19  150.52    6.42
  11  17 -19  140.58    6.14
 -17  11 -19  149.57    6.20
 -19  11 -17  153.14    6.08
  17  11 -19  150.80    6.40
  19  11 -17  147.20    6.48
  13  17 -19   47.81    3.39
 -13  19 -17   41.84    3.71
 -17  19 -13   45.56    3.35
 -13  17 -19   40.64    3.68
 -19  13 -17   47.01    3.49
  17  13 -19   41.18    3.61
 -19  17 -13   42.55    3.15
  13  19 -17   48.33    3.69
  19  13 -17   43.39    3.85
 -17  13 -19   46.06    3.63
  13  17 -19   40.97    3.45
  13  19 -17   42.04    3.50
  19  17 -15    3.44    3.40
  17  15 -19    0.45    3.00
  15  17 -19    1.25    2.52
  19  15 -17   -0.12    3.16
  15  17 -19   -1.08    2.81
  15  19 -17   -1.41    2.90
 -17  15 -19   -2.59    2.99
 -15  17 -19   -1.86    3.08
 -19  17 -15    2.03    2.57
 -15  19 -17   -2.05    2.98
  17  19 -15    0.23    3.19
 -17  19 -15    0.86    2.76
 -19  15 -17   -1.05    2.56
 -17  19 -17   -1.96    3.01
 -17  17 -19   -1.77    2.95
 -19  17 -17    4.07    2.85
  17  19 -17    0.12    3.03
  19  17 -17    0.12    3.42
  17  17 -19    0.58    3.15
  -1  19 -19    3.94    3.16
 -19  -1 -19   -2.94    2.89
 -19   1 -19    0.40    2.59
   1  19 -19    1.12    2.86
 -19   3 -19    2.68    2.60
   3  19 -19   -4.38    3.28
  -3 -19  19    1.58    1.92
  19   5 -19   -1.46    3.11
 -19   5 -19   -3.88    2.78
  -5 -19  19    1.73    2.17
   5  19 -19    2.58    2.99
  -5  19 -19    3.08    3.15
  -7 -19  19    3.11    2.32
  19   7 -19    1.38    2.91
  -7  19 -19   -2.08    3.04
   7  19 -19    6.40    3.02
 -19   7 -19    1.41    2.59
  19   9 -19   -0.33    3.16
  -9  19 -19   -1.40    3.14
  -9 -19  19   -1.75    2.31
   9  19 -19    1.69    2.99
 -19   9 -19   -0.52    2.69
  19  11 -19   -1.24    3.10
 -11  19 -19    2.73    3.28
  11  19 -19    0.57    2.90
 -19  11 -19    2.75    2.78
  11  19 -19    1.22    2.34
 -19  19 -11   -6.35    2.49
  13  19 -19    5.04    2.99
  19  13 -19    3.96    3.35
  13  19 -19    6.26    2.76
 -13  19 -19    9.05    3.24
 -19  19 -13    6.55    2.70
 -19  13 -19    6.92    2.87
 -15  19 -19    2.32    3.13
  19  15 -19   -0.12    3.34
  19  19 -15   -1.48    3.36
 -19  15 -19   -2.75    2.90
 -19  19 -15   -0.76    2.72
  15  19 -19   -0.67    2.92
 -19  19 -17   -1.98    2.95
 -17  19 -19   -2.10    3.25
  17  19 -19   -0.12    3.24
  19  17 -19    1.99    3.45
 -19  17 -19   -1.07    3.02
  19  19 -17    1.51    3.36
 -19  19 -19    0.50    3.22
  19  19 -19    2.06    3.54
 -20   0   0 3524.83  111.20
   0  20   0 3471.23  111.16
   2  20   0   12.43    2.99
  -2  20   0   13.43    2.72
   0  20   2   23.04    3.06
 -20  -2   0   18.05    3.08
   0  20  -2   16.00    2.88
 -20   0  -2   16.59    2.90
   2  20   2   29.44    3.39
 -20   2  -2   26.21    2.76
 -20  -2   2   25.11    3.29
  -2  20   2   27.02    3.09
 -20  -2  -2   24.83    3.15
   2  20  -2   25.22    3.13
  -2  20  -2   28.32    2.81
   0  20   4  453.28   15.47
   4  20   0  438.79   15.49
 -20  -4   0  428.34   15.47
  -4  20   0  456.60   15.16
 -20   0  -4  445.95   15.19
  -4  20   2  139.26    5.90
 -20  -2  -4  129.78    5.89
   2  20   4  134.24    6.26
 -20   4  -2  146.34    5.70
 -20   2  -4  138.55    5.62
 -20  -4  -2  137.82    6.18
  -4  20  -2  144.89    5.62
   4  20   2  135.41    6.20
  -2  20   4  132.35    6.02
 -20  -4   2  131.23    6.27
 -20  -4  -4  249.09    9.13
   4  20   4  239.01    9.36
  -4  20   4  236.75    9.01
 -20   4  -4  236.95    8.59
 -20   0  -6  943.55   30.21
  -6  20   0  922.24   30.19
   0  20   6  909.31   30.61
 -20  -6   0  932.09   30.68
   6  20   2   13.38    3.35
 -20  -6   2    8.74    3.32
  -2  20   6   16.81    3.00
 -20   6  -2   14.06    2.17
   2  20   6   14.59    3.37
 -20  -6  -2   15.68    3.16
 -20   2  -6   12.17    2.29
  -6  20  -2   19.18    2.36
 -20  -2  -6   12.87    2.61
  -6  20   2   11.10    2.49
 -20  -4  -6  113.97    5.23
   4  20   6  118.69    5.74
  -4  20   6  116.00    5.44
 -20  -6   4  110.19    5.65
 -20   4  -6  110.56    4.52
  -6  20  -4  111.76    4.56
 -20  -6  -4  108.18    5.39
   6  20   4  108.46    5.74
 -20   6  -4  107.06    4.50
  -6  20   4  109.32    5.17
   6  20   6  280.57   10.54
 -20   6  -6  276.17    9.37
 -20  -6  -6  265.73   10.21
 -20  -8   0  142.11    6.61
  -8  20   0  142.53    5.76
   0  20   8  146.74    6.58
  -2  20   8   19.44    3.29
   8  20   2   16.71    3.14
   2  20   8   17.35    3.31
 -20  -8  -2   19.72    3.34
 -20  -8   2   24.31    3.46
  -8  20  -2   19.82    2.19
  -8  20   2   22.42    2.54
 -20   8  -4   15.76    1.82
 -20  -8  -4   17.60    3.19
  -8  20  -4   15.43    1.93
 -20  -8   4   15.42    3.24
   8  20   4   14.44    3.59
   4  20   8    7.37    2.97
  -8 -20   6  209.85    8.43
  -6 -20   8  208.97    8.17
   6  20   8  201.82    8.64
 -20  -8  -6  218.28    8.47
 -20   8  -6  206.19    7.23
 -20  -8   6  227.18    8.94
   8  20   6  224.72    8.64
  -8 -20   8  148.62    6.14
   8  -8  20  131.04    4.61
 -20  -8   8  144.48    6.56
   8  20   8  144.49    6.62
 -10  20   0  102.82    4.44
   0  20  10  103.96    5.58
 -20 -10   0  103.11    5.68
  10   0  20  100.84    4.39
  10   2  20    4.90    2.37
  10  -2  20    2.02    1.77
 -20 -10  -2    0.44    3.08
   2  20  10    0.74    3.33
 -10  20  -2    5.02    1.74
 -20 -10   2    2.42    3.32
 -20 -10  -4   -0.72    3.23
  10   4  20    0.87    2.47
 -20 -10   4   -0.47    3.35
  10  20   4   -0.47    3.34
   4  20  10    8.34    3.29
  10  -4  20    4.18    1.57
 -20  10  -4    1.11    1.30
 -10  20  -4    1.69    1.42
  -4 -20  10    1.16    1.79
  10   6  20   23.38    2.90
  10  20   6   25.82    3.67
  -6 -20  10   27.54    2.57
 -10 -20   6   31.16    3.48
 -20 -10   6   24.88    3.78
  10  -6  20   23.97    1.51
 -20  10  -6   23.09    1.38
   6  20  10   32.98    3.45
  10   8  20   13.95    2.99
  -8 -20  10   20.51    2.80
   8  10  20   10.85    2.96
   8  20  10   12.23    3.65
 -10 -20   8   16.38    3.08
  10  20   8   14.77    3.19
 -10 -20  10    2.50    2.73
  10  10  20    5.70    2.67
   0  20  12   40.72    4.15
 -20 -12   0   34.27    3.92
 -12  20   0   37.42    2.59
  12   0  20   36.75    2.70
 -12  20  -2  193.99    7.12
  12  -2  20  205.85    7.21
 -20 -12   2  200.28    8.43
  12   2  20  209.64    7.66
 -20 -12  -2  200.54    8.44
   2  20  12  202.25    8.51
  12  -4  20    7.63    1.39
 -12 -20   4    8.53    3.23
  -4 -20  12    9.59    2.14
 -20 -12  -4    7.85    3.19
 -20 -12   4    0.67    3.59
   4  20  12    7.07    3.50
  12   4  20   10.05    2.46
   4 -12  20    5.83    1.31
 -20  12  -4    4.97    1.19
 -12  20  -4    6.79    1.22
   6  20  12  351.55   12.99
 -12 -20   6  353.03   12.83
  -6 -20  12  340.79   12.17
  12   6  20  343.09   12.39
  12  20   6  338.63   12.94
 -12 -20   8   77.72    4.90
  12   8  20   77.73    4.52
  -8 -20  12   78.48    4.15
   8  12  20   73.88    4.58
  20  10 -12    4.09    2.85
  10  12  20    4.30    2.99
 -10 -20  12    2.88    2.42
  12  10  20    6.20    2.71
 -12 -20  10   -0.16    2.80
  20  12 -12  502.63   17.31
 -12  12 -20  496.35   17.28
 -12 -20  12  537.66   18.01
 -20 -14   0  678.92   22.89
 -14  20   0  649.17   21.76
   0 -14  20  661.77   21.80
  14   0  20  679.79   21.87
 -20 -14   2   44.62    4.29
   2 -14  20   43.42    2.47
  14  -2  20   42.39    2.55
 -20 -14  -2   53.03    4.53
  -2 -20  14   49.16    3.02
 -14  20  -2   49.00    2.41
  -2 -14  20   49.48    3.12
  14   2  20   49.63    3.12
   4 -14  20   39.73    1.87
  14   4  20   46.00    3.26
 -14 -20   4   54.42    4.39
  -4 -20  14   54.02    3.24
 -20  14  -4   43.40    1.86
  -6 -20  14  107.08    5.01
 -14 -20   6  101.76    5.67
  14   6  20  107.08    5.12
  20   8 -14   97.30    5.02
  -8  14 -20  100.00    5.05
  14   8  20   94.53    5.04
 -14 -20   8  104.42    5.62
  -8 -20  14  102.37    4.84
 -10 -20  14   62.54    3.83
 -10  14 -20   61.06    4.12
  14  10 -20   54.35    3.65
  20  10 -14   63.90    4.14
 -14  10 -20   57.52    3.90
  14  10  20   64.82    4.17
 -10  20 -14   59.93    3.81
  20  12 -14   92.67    4.87
 -12  14 -20   86.10    4.83
 -14  12 -20   87.98    4.64
  14  12 -20   86.38    4.48
 -12  20 -14   85.38    4.59
 -14  14 -20   39.21    3.63
  14  14 -20   41.46    3.38
  20  14 -14   45.36    3.82
 -14  20 -14   44.30    3.50
   0  20 -16    3.74    3.09
   0 -16  20    2.59    1.75
   0  16 -20    4.63    2.94
  -2 -20  16   69.38    3.54
   2  16 -20   69.59    4.02
   2  20 -16   72.16    4.14
   2 -16  20   65.16    2.94
  16   2  20   68.34    3.67
  -2  16 -20   74.25    4.17
  -2 -16  20   69.60    3.61
  -4 -20  16  133.68    5.71
  -4  20 -16  132.84    6.09
  -4 -16  20  128.49    5.67
  16   4  20  134.86    5.72
   4  20 -16  147.97    6.10
  -6  20 -16   11.24    3.18
  20   6 -16   12.53    2.96
  -6  16 -20   15.92    2.97
   6  20 -16   14.90    3.08
 -16   6 -20    8.09    2.85
  -6 -16  20    7.70    2.53
  -6 -20  16   11.33    2.43
  16   6  20    9.14    2.47
  16   8 -20   63.64    4.03
  20   8 -16   74.23    4.30
  -8  20 -16   75.05    4.24
   8  20 -16   65.20    4.27
  -8 -16  20   70.04    4.21
   8  16 -20   72.45    4.11
  -8  16 -20   66.37    4.37
 -16   8 -20   74.13    4.08
  16   8  20   65.67    4.25
  -8 -20  16   68.64    4.00
  16  10 -20    1.92    2.67
  20  10 -16    1.85    2.99
 -10 -20  16    2.26    1.99
  10  16 -20    2.13    2.57
 -10 -16  20    4.42    2.44
  10  20 -16    4.76    3.06
 -10  20 -16    2.54    2.92
 -10  16 -20    3.81    3.20
 -16  10 -20    2.42    2.72
  12  16 -20   14.33    2.80
 -16  12 -20   12.15    3.03
  12  20 -16    9.09    2.91
 -12  20 -16   12.44    3.07
 -20  12 -16   12.13    2.55
 -16  20 -12   12.84    2.73
  20  12 -16   12.75    3.22
 -12  16 -20   10.41    3.29
  16  12 -20   12.47    2.94
  12  20 -16   12.82    2.67
  12  16 -20   14.41    2.70
 -16  20 -14   24.21    3.07
  20  14 -16   22.86    3.51
  20  16 -14   22.41    3.64
  14  16 -20   19.10    2.78
  16  14 -20   23.44    3.24
 -14  16 -20   22.17    3.35
 -16  14 -20   23.15    3.31
  14  20 -16   26.09    3.17
  14  16 -20   15.61    3.04
 -14  20 -16   22.49    3.32
 -20  14 -16   26.94    2.90
 -20  16 -14   22.74    2.69
 -16  20 -16  189.66    7.63
 -20  16 -16  184.22    7.33
  16  16 -20  190.19    7.54
  20  16 -16  182.62    7.72
 -16  16 -20  188.68    7.67
  16  20 -16  182.87    7.63
 -18   0 -20  148.21    6.11
   0  18 -20  129.78    6.25
   0  20 -18  139.59    6.35
   2  20 -18   15.70    3.42
   2  18 -20   17.09    3.16
 -18   2 -20   17.84    2.92
  -2  18 -20   20.59    3.36
   4  20 -18   61.40    4.25
  -4 -20  18   49.49    3.35
 -18   4 -20   58.01    3.72
  -4  20 -18   61.62    4.35
   4  18 -20   51.85    3.95
  -4 -18  20   53.92    3.32
 -18   6 -20   73.54    4.17
  18   6 -20   74.56    4.56
  -6  18 -20   75.68    4.59
  -6 -18  20   77.98    4.16
 -20   6 -18   74.65    4.09
   6  18 -20   74.42    4.53
  20   6 -18   72.80    4.40
  -6 -20  18   67.56    4.02
   6  20 -18   67.64    4.38
  -6  20 -18   71.91    4.69
  -8  20 -18  147.30    6.48
   8  18 -20  132.45    6.28
  -8 -20  18  144.31    6.43
 -20   8 -18  152.63    6.12
  -8 -18  20  141.20    6.43
  -8  18 -20  143.78    6.52
   8  20 -18  146.92    6.45
  18   8  20  150.97    6.58
  18   8 -20  150.39    6.45
  20   8 -18  156.67    6.49
 -18   8 -20  149.80    6.24
 -20  10 -18  117.57    5.21
  20  10 -18  121.64    5.68
  10  20 -18  102.54    5.41
  10  20 -18  107.46    4.93
 -18  10 -20  118.28    5.33
  10  18 -20  107.39    4.90
  18  10 -20  107.95    5.36
 -10  20 -18  111.70    5.72
 -10  18 -20  119.54    5.61
  10  18 -20  109.68    5.31
  12  20 -18   72.80    4.33
  18  12 -20   72.67    4.50
  12  20 -18   64.57    3.91
 -12  18 -20   64.73    4.54
 -20  18 -12   71.07    3.71
 -18  20 -12   65.71    3.91
  12  18 -20   61.72    4.07
 -18  12 -20   66.50    4.22
 -12  20 -18   61.58    4.44
 -20  12 -18   67.14    4.00
  12  18 -20   63.20    3.89
  20  12 -18   68.77    4.53
  20  18 -14   32.20    3.92
  14  20 -18   32.41    3.38
 -20  18 -14   33.70    3.18
 -18  14 -20   36.58    3.54
 -14  20 -18   36.08    3.79
  14  18 -20   32.42    3.38
 -18  20 -14   32.02    3.23
  18  14 -20   30.06    3.65
  14  18 -20   36.00    3.35
  20  14 -18   42.37    3.99
 -20  14 -18   35.74    3.37
 -14  18 -20   33.18    3.86
 -16  18 -20    3.74    3.31
 -16  20 -18   -4.92    3.29
  18  16 -20    1.32    3.06
 -18  20 -16    7.05    3.01
  18  20 -16    5.28    3.22
 -20  16 -18    6.20    2.91
  16  20 -18    3.38    3.25
  16  18 -20    3.67    3.01
  20  18 -16    4.43    3.46
 -20  18 -16    4.81    2.81
  20  16 -18    6.65    3.47
 -18  16 -20    2.29    3.04
 -20  18 -18  162.51    6.80
  20  18 -18  152.60    7.20
 -18  18 -20  167.27    7.05
 -18  20 -18  161.28    6.93
  18  20 -18  153.46    7.02
  18  18 -20  153.83    7.06
 -20   0 -20  743.54   25.10
   0  20 -20  776.22   25.36
   2  20 -20    1.33    3.31
 -20   2 -20    0.21    2.75
 -20   4 -20  164.93    6.72
   4  20 -20  159.83    7.00
  -6  20 -20  286.28   10.54
   6  20 -20  275.24   10.52
 -20   6 -20  277.11   10.21
 -20   8 -20  112.23    5.49
   8  20 -20  122.91    5.88
  -8  20 -20  122.92    5.93
  20   8 -20  123.05    5.77
 -10  20 -20   20.48    3.67
  10  20 -20   18.35    2.62
  20  10 -20   12.09    3.39
 -20  10 -20   15.14    2.98
  10  20 -20   14.21    3.24
 -20  12 -20   23.48    3.24
 -12  20 -20   29.45    3.74
 -20  20 -12   27.91    2.89
  12  20 -20   22.02    2.99
  12  20 -20   26.05    3.44
  20  12 -20   33.31    3.71
 -20  20 -14   69.53    4.07
  14  20 -20   63.12    4.10
 -14  20 -20   62.00    4.56
  20  20 -14   67.30    4.75
  20  14 -20   68.91    4.70
  14  20 -20   55.60    4.22
 -20  14 -20   66.57    4.25
 -20  20 -16    0.23    2.96
  20  16 -20    4.48    3.62
 -16  20 -20    1.44    3.45
 -20  16 -20    2.44    3.03
  20  20 -16    2.50    3.67
  16  20 -20    4.13    3.19
 -20  20 -18   20.75    3.41
 -20  18 -20   23.16    3.49
 -18  20 -20   23.48    3.77
  18  20 -20   28.81    3.65
  20  18 -20   25.24    4.07
  20  20 -18   15.34    3.96
 -20  20 -20  611.23   20.87
  -1  21  -1   10.06    2.66
 -21  -1  -1   12.51    2.94
 -21  -1   1   10.31    3.13
  -1  21   1    5.34    2.72
 -21   1  -1    7.49    2.70
   1  21   1   15.67    3.08
   1  21  -1   10.02    2.89
 -21  -1  -3  473.18   16.07
  -1  21   3  469.15   16.17
   3  21   1  472.43   16.28
 -21   1  -3  472.75   15.98
 -21   3  -1  469.80   15.98
   3  21  -1  458.15   16.20
  -3  21   1  470.97   16.02
   1  21   3  467.40   16.23
 -21  -3   1  463.09   16.28
 -21  -3  -1  467.19   16.25
  -3  21  -1  470.75   15.94
   3  21   3    2.99    2.87
 -21  -3  -3    3.58    2.75
 -21  -3   3    4.91    3.14
 -21   3  -3    0.09    2.12
  -3  21   3   -0.56    2.68
  -3  21  -3    4.02    2.25
   5  21   1   -0.93    3.02
 -21   1  -5    4.94    2.39
 -21  -5  -1    6.29    3.12
  -5  21   1    3.68    2.53
 -21  -1  -5    2.36    2.36
   1  21   5    8.61    3.14
  -5  21  -1    5.32    2.40
 -21  -5   1    2.80    3.07
  -1  21   5    0.25    2.77
  -5  21   3    5.00    2.59
  -5  21  -3    3.23    2.07
 -21  -3  -5    1.12    2.63
   3  21   5    9.26    3.15
  -3  21   5    6.06    2.91
 -21   3  -5    7.19    2.19
 -21   5  -3    2.51    2.10
   5  21   3    1.64    2.89
 -21  -5   3    4.46    3.37
 -21  -5  -3    5.39    3.01
 -21  -5  -5   -0.85    2.70
 -21   5  -5    0.82    1.75
   5  21   5   -1.01    2.88
 -21  -5   5    1.32    3.32
  -5  21   5    4.30    2.70
 -21   1  -7    9.06    2.05
 -21  -1  -7   10.48    2.54
  -7  21   1   10.69    2.32
  -1  21   7   11.18    3.09
  -7  21  -1   10.88    2.15
 -21  -7  -1   15.32    3.35
   1  21   7    8.52    3.09
 -21  -7   1   15.22    3.44
 -21  -7  -3   14.82    3.22
  -7  21  -3   15.14    2.06
  -3  21   7   11.00    3.14
 -21  -7   3   15.54    3.33
 -21  -3  -7   11.51    2.60
 -21   3  -7   12.98    2.02
 -21   7  -3   11.23    2.01
  -7  21   3   11.13    2.53
   3  21   7   11.16    2.98
   7  21   3    9.51    3.32
 -21  -7   5  940.55   31.11
   5  21   7  938.45   31.07
 -21   5  -7  941.43   30.07
   7  21   5  925.24   31.13
 -21   7  -5  931.56   30.07
 -21  -7  -5  914.32   30.84
 -21  -7   7    0.97    3.28
   7  21   7    2.08    2.90
  -1  21   9   27.99    3.22
   9  -1  21   24.89    2.46
   9   1  21   24.47    2.77
 -21  -9   1   21.23    3.55
 -21  -9  -1   23.73    3.33
   1  21   9   26.52    3.67
  -9  21  -1   25.59    2.44
  -9  21   1   30.50    2.66
 -21   9  -3  150.07    5.62
 -21  -9   3  138.78    6.72
  -9  21   3  162.97    6.21
   9  -3  21  155.17    5.70
   9  21   3  151.26    6.83
 -21  -9  -3  136.82    6.59
   3  21   9  151.74    6.80
  -9  21  -3  147.12    5.60
   9   3  21  149.39    6.19
   9  -5  21   66.51    2.94
   9   5  21   72.52    4.07
 -21  -9   5   68.02    4.75
   9  21   5   71.37    4.77
 -21   9  -5   64.26    2.87
   5  21   9   69.50    4.44
 -21  -9  -5   52.71    4.40
   7  21   9  346.00   12.53
   9  -7  21  317.04   10.89
  -9 -21   7  342.78   12.31
 -21  -9   7  358.55   12.65
   9  21   7  343.64   12.64
   9   7  21  352.37   12.27
  -7 -21   9  365.97   12.20
  -9 -21   9   -0.58    2.60
 -21  -9   9   -0.54    3.51
   9   9  21   -2.64    2.84
  -1  21  11    0.31    3.30
  11  -1  21    3.21    1.93
  11   1  21    4.27    1.99
   1  21  11    5.58    3.17
 -21 -11   1   -4.25    3.38
 -11  21   1    3.24    2.07
 -11  21  -1    4.02    1.85
 -21 -11  -1    0.48    2.82
  11   3  21   20.98    2.70
  11  -3  21   23.37    1.94
   3  21  11   21.08    3.66
 -21 -11   3   20.36    3.62
 -21  11  -3   19.77    1.81
 -21 -11  -3   20.48    3.54
 -11  21  -3   19.09    1.80
   5 -11  21   82.84    3.20
  11  21   5   88.16    4.97
   5  21  11   93.69    5.22
  -5 -21  11   85.59    4.06
  11  -5  21   83.78    3.26
 -21 -11   5   82.22    5.25
 -21  11  -5   76.39    3.14
  11   5  21   98.01    4.55
  11   7  21  547.73   18.41
 -11 -21   7  573.75   18.74
 -21 -11   7  497.15   18.68
  -7 -21  11  520.28   18.24
   9  11  21    3.87    2.98
  11   9  21   14.82    3.07
 -11 -21   9    7.28    2.87
  -9 -21  11   12.02    2.72
 -11  11 -21   12.05    3.11
 -11 -21  11   11.37    2.95
 -13  21  -1  109.70    4.61
 -21 -13  -1  122.70    6.18
 -13  21   1  123.90    4.96
  13   1  21  120.61    5.02
  13  -1  21  117.14    4.76
   1 -13  21  112.27    4.69
 -21 -13   1  129.94    6.24
 -13  21  -3   20.35    1.57
   3 -13  21   17.83    1.66
  13  -3  21   23.73    1.78
 -21  13  -3   21.42    1.61
  13   3  21   22.13    2.64
 -21 -13  -3   20.12    3.54
 -21 -13   3   21.28    3.63
  13   5  21 1014.65   33.41
 -13 -21   5 1034.61   33.94
  -5 -21  13 1010.84   33.31
 -13 -21   7  161.15    7.38
  -7 -21  13  176.56    6.91
  -7  13 -21  160.33    6.82
  13   7  21  177.69    7.18
  13   9  21  290.74   10.84
  -9 -21  13  278.40   10.65
 -13   9 -21  283.24   10.41
 -13 -21   9  285.68   11.09
  -9  13 -21  292.55   10.44
  -9  21 -13  293.18   10.44
   9  21 -13  276.47   10.42
 -13  11 -21  264.89    9.96
  21  11 -13  277.90   10.07
 -11 -21  13  268.46   10.37
 -11  13 -21  273.82   10.02
  13  11 -21  265.90    9.72
 -11  21 -13  262.19    9.85
  13  13 -21    8.58    2.70
  21  13 -13    3.06    3.16
 -13  21 -13    2.45    2.85
 -13  13 -21    0.22    3.14
   1 -15  21   57.69    2.86
  21   1 -15   63.75    3.88
  -1  15 -21   54.19    4.04
   1  21 -15   59.36    4.08
 -15   1 -21   57.95    3.76
  15   1  21   55.52    3.18
 -15  21  -1   54.24    2.75
   1  15 -21   59.34    4.03
  -1 -15  21   56.15    3.13
  -3  15 -21    7.41    2.98
  -3  21 -15    9.05    2.91
  21   3 -15    7.45    2.85
  -3 -21  15    7.74    2.04
 -15   3 -21   10.13    2.86
  15   3  21    6.35    2.22
   3  21 -15    7.76    2.92
   3  15 -21   13.31    3.01
  -3 -15  21    7.77    2.31
   5  15 -21    1.01    2.58
  -5 -15  21   -0.63    2.32
  -5 -21  15    3.63    2.20
  15   5  21    2.81    2.36
 -15   5 -21    3.16    2.91
  -5  21 -15    1.53    3.09
   5  21 -15    7.05    3.06
  15   7  21  142.19    6.21
  -7  21 -15  136.27    6.10
  -7  15 -21  135.10    6.02
   7  21 -15  139.93    6.08
  -7 -21  15  136.97    5.92
  -7 -15  21  133.21    6.06
   7  15 -21  134.47    5.92
 -15   7 -21  135.44    6.04
   9  15 -21    0.30    2.66
 -15   9 -21    4.58    3.03
  15   9 -21    3.26    2.73
  -9  15 -21   -0.22    3.15
  -9 -21  15   -0.62    1.95
  -9  21 -15   -1.00    2.92
   9  21 -15    0.79    3.06
  -9 -15  21    1.27    2.61
  15   9  21    7.27    2.82
  21   9 -15   -0.43    3.12
  11  15 -21   35.70    3.04
  21  11 -15   49.29    3.87
  11  21 -15   35.33    3.60
 -15  11 -21   41.03    3.63
 -11  21 -15   39.33    3.67
 -15  21 -11   38.07    3.21
 -11  15 -21   34.71    3.66
  15  11 -21   35.14    3.32
  11  15 -21   38.46    3.24
 -13  21 -15  149.68    6.65
  13  15 -21  154.03    6.41
 -15  21 -13  152.07    6.52
 -21  13 -15  149.77    6.22
  13  15 -21  156.33    6.36
  15  13 -21  158.22    6.57
  21  13 -15  167.38    6.95
 -13  15 -21  159.73    6.87
 -15  13 -21  161.39    6.80
  21  15 -13  157.65    6.89
 -15  15 -21   11.85    3.33
 -15  21 -15    8.49    3.00
  15  15 -21    8.92    2.60
  15  15 -21   11.93    3.07
 -21  15 -15    8.95    2.63
  21  15 -15   16.11    3.68
  -1  17 -21   29.20    3.53
 -17   1 -21   27.56    3.37
   1  17 -21   33.78    3.58
 -17  -1 -21   26.24    3.38
   1  21 -17   31.20    3.58
   3  21 -17    1.61    3.27
  -3 -17  21    5.88    2.18
 -17   3 -21    4.32    2.73
  -3 -21  17    1.06    1.90
   3  17 -21    1.43    2.96
  17   5  21   96.36    4.85
 -17   5 -21  110.69    5.07
  -5  21 -17   97.38    5.18
  -5 -21  17   98.06    4.69
   5  21 -17   98.69    5.25
   5  17 -21   97.46    5.09
  -5 -17  21   91.23    4.65
  -7  21 -17    9.14    3.40
  -7 -21  17    5.41    2.30
  17   7  21   11.38    2.55
  21   7 -17    6.66    3.04
  -7 -17  21   11.48    2.55
   7  17 -21    8.26    2.98
 -17   7 -21    6.13    3.05
  -7  17 -21   13.32    3.33
   7  21 -17    6.54    3.08
 -17   9 -21  112.67    5.45
   9  21 -17  113.76    5.64
  -9 -17  21  119.00    5.64
  21   9 -17  111.89    5.63
  -9  17 -21  114.13    5.63
  17   9 -21  115.00    5.48
   9  17 -21  113.69    5.40
 -21   9 -17  114.53    5.10
  -9  21 -17  117.58    5.76
  -9 -21  17  108.74    5.37
  11  17 -21  152.35    6.47
 -17  11 -21  165.73    6.98
 -11  21 -17  173.35    7.17
  11  17 -21  168.20    6.86
  11  21 -17  165.02    6.60
 -17  21 -11  171.40    6.66
  17  11 -21  158.65    6.92
  21  11 -17  169.14    7.09
 -11  17 -21  168.96    7.12
 -21  11 -17  157.64    6.57
  11  21 -17  167.34    7.07
  13  21 -17    6.38    2.74
 -17  13 -21    9.94    3.11
  13  17 -21   10.41    2.78
 -17  21 -13    8.32    2.77
 -21  13 -17   10.12    2.70
 -13  17 -21   10.24    3.38
 -21  17 -13    7.15    2.40
  17  13 -21   14.62    3.22
  21  17 -13   10.65    3.45
 -13  21 -17   13.81    3.44
  13  17 -21    5.79    2.75
  21  13 -17    6.93    3.35
 -15  21 -17  121.42    5.86
 -17  21 -15  114.57    5.70
  21  17 -15  126.06    6.13
 -17  15 -21  122.48    5.92
  17  21 -15  120.18    5.86
 -21  15 -17  122.73    5.48
  15  17 -21  116.34    5.51
 -15  17 -21  124.63    5.98
  15  17 -21  119.53    5.67
  17  15 -21  129.69    5.91
 -21  17 -15  125.36    5.39
  15  21 -17  122.79    5.75
  21  15 -17  115.77    6.01
 -21  17 -17    4.20    2.79
 -17  21 -17   -0.49    3.12
  17  17 -21    0.24    3.06
 -17  17 -21   -3.18    3.30
  21  17 -17    1.04    3.55
  17  21 -17   -0.49    3.12
  -1  21 -19   16.33    3.37
 -19  -1 -21   19.04    3.26
 -21   1 -19   20.42    2.92
 -19   1 -21   18.49    3.27
   1  19 -21   19.90    3.54
   1  21 -19   30.87    3.80
 -21  -1 -19   20.01    2.98
  -1  19 -21   17.86    3.66
 -21   3 -19    3.48    2.61
   3  19 -21    1.79    3.32
   3  21 -19   -4.27    3.30
 -19   3 -21    2.51    2.73
   5  21 -19    4.78    3.40
  -5  21 -19   12.39    3.33
 -19   5 -21    5.27    2.87
 -21   5 -19    6.18    2.66
  21   5 -19    6.09    3.23
   5  19 -21    7.18    3.30
   7  21 -19  397.74   14.15
  21   7 -19  408.21   14.10
  -7  19 -21  407.60   14.21
   7  19 -21  401.55   14.14
  -7  21 -19  390.45   14.14
 -19   7 -21  394.88   13.96
 -21   7 -19  390.65   13.82
  21   9 -19   26.31    3.67
   9  21 -19   24.23    3.70
  -9  21 -19   23.64    3.55
  19   9 -21   21.01    3.52
   9  19 -21   23.22    2.49
  -9  19 -21   18.88    3.73
 -21   9 -19   21.88    3.03
   9  19 -21   18.87    3.39
 -19   9 -21   21.49    3.24
   9  21 -19   17.84    2.59
 -19  11 -21    1.73    3.00
  11  19 -21    4.37    2.53
 -19  21 -11    5.44    2.55
  11  21 -19    4.49    3.36
 -21  11 -19    7.88    2.88
  11  19 -21    8.35    3.14
  21  11 -19    6.18    3.53
 -11  19 -21    5.24    3.40
 -11  21 -19    6.27    3.48
  11  21 -19    6.03    2.63
  19  11 -21    5.51    3.32
 -13  21 -19  518.78   17.74
  21  13 -19  532.48   17.78
 -19  21 -13  524.21   17.43
  13  21 -19  498.20   17.63
 -13  19 -21  520.86   17.78
  13  19 -21  492.59   17.34
  13  19 -21  509.60   17.57
  13  21 -19  504.24   17.38
  19  13 -21  530.71   17.70
 -21  13 -19  507.14   17.46
 -21  19 -13  496.16   17.28
 -19  13 -21  517.91   17.59
  21  15 -19   27.39    4.04
  19  21 -15   25.22    3.91
  15  19 -21   19.75    3.25
 -15  21 -19   22.81    3.77
  21  19 -15   27.10    3.99
  19  15 -21   26.37    3.83
  15  19 -21   26.00    3.33
 -19  15 -21   23.53    3.50
  15  21 -19   32.03    3.48
 -21  19 -15   29.36    3.12
 -19  21 -15   28.45    3.39
 -21  15 -19   28.03    3.34
 -15  19 -21   25.29    3.81
 -19  21 -17   93.68    4.98
  17  21 -19   90.89    5.11
  21  19 -17   88.29    5.33
  19  17 -21   91.36    5.35
  17  19 -21   93.69    5.02
 -21  19 -17   86.11    4.81
 -17  19 -21   83.03    5.18
 -21  17 -19   92.23    4.92
 -19  17 -21   88.20    5.04
  21  17 -19   95.45    5.54
 -17  21 -19   92.23    5.23
  19  21 -17   87.46    5.35
  19  21 -19    2.37    3.60
 -19  19 -21    5.04    3.50
 -21  19 -19   -5.98    3.17
  19  19 -21   -0.13    3.52
 -19  21 -19    0.65    3.21
  21  19 -19    9.28    3.90
  -1  21 -21    3.00    3.40
 -21   1 -21    2.83    2.96
   1  21 -21   -1.30    3.68
 -21  -1 -21    3.81    3.10
   3  21 -21    2.07    3.34
 -21  -3 -21    3.52    3.05
 -21   3 -21    0.79    2.94
   5  21 -21   -9.17    3.66
 -21   5 -21   -1.13    2.89
  -5  21 -21   -0.13    3.43
 -21   7 -21    4.77    2.93
  -7  21 -21    2.80    3.68
   7  21 -21    6.87    3.43
   9  21 -21   -0.26    3.30
 -21   9 -21    1.97    2.99
  21   9 -21   -3.70    3.44
  -9  21 -21    3.64    3.71
  21  11 -21   16.69    3.73
 -11  21 -21   15.67    3.67
  11  21 -21    4.94    3.40
 -21  11 -21    6.59    3.16
  11  21 -21   10.03    2.71
  13  21 -21   -1.04    3.25
 -21  21 -13    2.45    2.67
  13  21 -21    0.64    2.70
 -13  21 -21    4.81    3.59
 -21  13 -21   -3.03    2.97
  21  13 -21    1.03    3.55
  21  15 -21    3.15    3.72
 -21  15 -21    7.09    3.22
 -21  21 -15    4.80    2.94
  15  21 -21    5.30    3.09
 -15  21 -21   10.25    3.73
  21  21 -15    8.91    3.87
 -17  21 -21   -4.03    3.65
 -21  17 -21   -1.28    3.36
 -21  21 -17    2.32    3.02
  17  21 -21   -0.25    3.27
  21  21 -17    6.50    3.95
  21  17 -21    2.15    3.82
  19  21 -21    1.71    3.52
  21  19 -21    1.23    3.70
 -21  19 -21    4.10    3.42
  21  21 -19    0.14    3.92
 -19  21 -21    0.69    3.64
 -21  21 -21   15.86    3.71
  21  21 -21    7.88    4.02
 -22   0   0 1322.77   43.35
   0  22   0 1348.12   43.34
   0  22  -2    3.87    2.52
 -22   0  -2   -0.45    2.64
   0  22   2    7.46    2.87
 -22   2   0    3.98    2.57
 -22  -2   0    4.91    2.82
   2  22   0    3.47    2.81
  -2  22   0    3.29    2.60
 -22  -2   2   74.26    4.48
  -2  22   2   77.45    4.33
   2  22   2   84.92    4.67
 -22   2  -2   77.14    4.10
  -2  22  -2   74.81    4.05
 -22  -2  -2   71.01    4.30
 -22  -4   0  174.66    7.56
  -4  22   0  184.74    7.08
   0  22   4  176.99    7.44
   4  22   0  189.27    7.59
 -22   0  -4  177.55    7.05
 -22  -2  -4   50.76    3.57
  -4  22   2   54.67    3.55
   4  22   2   47.95    4.03
  -2  22   4   51.88    3.83
  -4  22  -2   52.02    3.27
   2  22   4   54.98    4.01
 -22   2  -4   47.31    3.11
 -22   4  -2   48.80    3.27
 -22  -4  -2   49.26    3.83
 -22  -4   2   54.17    4.13
 -22  -4  -4  202.16    7.91
  -4  22   4  188.87    7.82
 -22  -4   4  189.25    8.17
   4  22   4  204.18    8.26
 -22   4  -4  201.15    7.37
 -22   0  -6    1.71    2.06
  -6  22   0   -0.78    2.29
   0  22   6   -1.54    3.05
 -22  -6   0    5.14    2.97
 -22  -6  -2    4.73    3.01
  -2  22   6    2.58    2.85
 -22  -6   2   -0.30    3.22
   6  22   2    4.88    3.05
 -22  -2  -6    2.11    2.40
   2  22   6    8.13    3.29
 -22   6  -2    7.43    2.03
  -6  22   2    2.40    2.43
 -22   2  -6    1.72    1.93
  -6  22  -2    5.58    2.17
 -22   4  -6  105.12    4.42
 -22   6  -4  101.65    4.42
 -22  -4  -6  116.39    5.22
 -22  -6  -4  104.36    5.41
 -22  -6   4  110.22    5.67
  -4  22   6  102.69    5.31
   6  22   4  109.79    5.56
  -6  22   4  110.09    5.14
   4  22   6  104.55    5.44
 -22   6  -6   57.09    2.83
   6  22   6   55.27    4.47
  -6  22   6   56.97    3.86
 -22  -6  -6   56.91    3.93
 -22  -6   6   53.40    4.26
  -8  22   0   59.66    3.44
   0  22   8   60.71    4.17
 -22  -8   0   63.67    4.37
 -22   8  -2    5.48    1.81
  -2  22   8    5.68    2.75
  -8  22  -2    4.22    1.91
 -22  -8  -2    6.60    3.01
  -8  22   2    6.52    2.35
 -22  -8   2    3.34    3.38
   2  22   8    5.90    3.24
 -22  -8   4   71.23    4.79
 -22  -8  -4   75.16    4.68
   4  22   8   69.68    4.72
   8  22   4   79.20    4.71
  -4  22   8   66.69    4.34
 -22   8  -4   71.17    3.29
  -8  22   4   70.14    4.13
 -22  -8  -6   85.54    4.85
   8  22   6   86.96    4.95
 -22   8  -6   80.36    3.37
   6  22   8   80.39    5.11
 -22  -8   6   93.86    5.28
 -22  -8   8  199.33    7.92
   8  -8  22  161.81    5.63
  10   0  22   39.78    2.76
 -22 -10   0   32.85    4.01
   0  22  10   39.60    3.69
 -10  22   0   38.09    2.76
   2  22  10    9.27    2.95
  -2  22  10    9.04    2.84
 -10  22  -2   10.52    1.89
 -22  10  -2    8.91    1.81
 -10  22   2    9.62    2.40
 -22 -10  -2    6.28    3.25
  10  -2  22    8.71    1.83
  10   2  22    9.36    2.35
 -22 -10   2   13.55    3.29
 -22 -10  -4    2.38    3.19
  10  -4  22    3.65    1.56
 -22  10  -4    5.28    1.38
 -22 -10   4   -3.49    3.34
   4  22  10   -0.17    3.34
  10   4  22    6.47    2.47
  10   6  22   90.37    4.45
 -22 -10   6   80.05    4.89
 -22  10  -6   71.06    2.87
  10  -6  22   77.88    2.98
  -8 -22  10   49.70    3.66
   8  10  22   37.97    3.76
  10   8  22   47.21    3.74
  22   8 -10   49.90    3.74
 -10   8 -22   46.96    3.52
 -10 -22   8   48.29    3.90
  -8  10 -22   47.68    3.76
 -10 -22  10   32.93    3.39
  10  10  22   30.14    3.47
 -10  10 -22   31.70    3.23
 -22 -12   0  127.10    6.31
  12   0  22  126.51    5.11
 -12  22   0  119.17    5.03
  12   2  22   38.37    2.99
 -22 -12  -2   34.17    3.99
 -12  22   2   36.74    2.81
 -12  22  -2   34.39    2.22
 -22 -12   2   41.60    3.77
  12  -2  22   34.22    2.36
  12  -4  22  310.09   10.05
 -22  12  -4  286.57    9.96
  -4  12 -22  310.71   10.87
   4 -12  22  295.80    9.99
 -22 -12  -4  308.07   11.62
  12   4  22  310.35   10.95
  12   6  22   -0.55    2.53
  -6 -22  12    1.70    1.79
 -12   6 -22    4.00    2.68
  22   6 -12    5.70    2.98
  -6  22 -12    2.63    2.74
   6  22 -12    2.86    3.21
 -12 -22   8   68.87    4.54
 -12   8 -22   75.47    4.24
  -8  22 -12   77.35    4.38
  12   8  22   70.32    4.36
  -8 -22  12   70.47    4.09
  -8  12 -22   70.09    4.43
   8  22 -12   75.55    4.50
 -10 -22  12   95.85    4.88
 -10  12 -22   89.91    4.83
 -10  22 -12   89.09    4.65
 -12  10 -22   83.34    4.63
 -12  12 -22   72.21    4.41
  22  12 -12   66.00    4.49
  12  12 -22   64.12    3.86
 -12  22 -12   69.89    4.20
 -14   0 -22    8.30    3.15
   0  14 -22    1.25    3.06
  22   0 -14    3.57    2.81
  14   0  22    1.41    1.76
 -14  22   0    5.15    1.67
   0 -14  22    2.54    1.83
 -14  22   2   76.54    3.80
   2  14 -22   70.95    4.22
  -2 -14  22   70.54    3.78
  22   2 -14   78.55    4.25
  -2  14 -22   81.39    4.39
  14   2  22   77.45    3.90
 -14   2 -22   79.27    4.39
   2  22 -14   72.50    4.37
  14   4  22   51.45    3.27
  22   4 -14   50.84    3.77
  -4  14 -22   42.10    3.57
   4  14 -22   39.17    3.49
   4  22 -14   48.63    4.02
 -14   4 -22   48.41    3.64
  -4  22 -14   49.99    3.73
 -14   6 -22  165.65    6.85
  -6  22 -14  161.65    6.91
  14   6  22  166.54    6.98
  -6 -22  14  168.77    6.71
   6  14 -22  167.26    6.76
   6  22 -14  165.11    7.00
 -14   8 -22   59.66    4.03
   8  22 -14   63.66    4.29
  -8 -22  14   61.99    3.62
  14   8  22   54.82    3.91
  -8  22 -14   62.00    4.01
  -8  14 -22   54.76    4.06
   8  14 -22   59.35    3.80
 -14  10 -22   53.56    4.00
 -10  14 -22   43.71    3.86
  10  14 -22   47.02    3.45
 -10 -22  14   43.53    3.47
  22  10 -14   47.84    4.06
 -14  22 -10   48.26    3.50
  10  22 -14   47.62    3.89
 -10  22 -14   41.45    3.86
  22  12 -14    8.91    3.52
  14  12 -22   11.47    2.93
  22  14 -12   14.69    3.47
  12  14 -22   10.86    2.67
 -12  22 -14   10.85    3.25
 -14  22 -12   14.14    2.98
 -12  14 -22   12.48    3.28
  12  14 -22    8.80    2.56
 -14  12 -22   11.09    3.20
 -14  14 -22  334.43   11.82
  22  14 -14  325.66   11.84
  14  14 -22  312.66   11.34
 -14  22 -14  334.91   11.75
 -22  14 -14  316.79   11.27
  14  14 -22  319.12   11.52
   0  16 -22   21.76    3.45
 -16   0 -22   18.82    3.36
  -2  16 -22   15.28    3.22
 -16   2 -22   12.70    3.20
   2  22 -16   13.75    3.24
  22   2 -16   12.42    3.03
   2  16 -22   16.94    3.15
 -16   4 -22   19.96    3.14
  -4  22 -16   24.37    3.60
   4  22 -16   20.20    3.62
  -4 -16  22   22.56    2.61
  -4 -22  16   24.74    2.51
   4  16 -22   23.39    3.19
  16   6  22  138.06    6.20
  -6 -16  22  140.69    6.19
 -16   6 -22  143.36    6.30
   6  22 -16  137.05    6.39
  -6  22 -16  146.11    6.50
  -6 -22  16  137.41    6.00
   6  16 -22  143.54    6.19
  -8 -22  16   21.46    2.49
   8  22 -16   15.22    3.57
  -8 -16  22   25.09    3.05
 -16   8 -22   22.13    3.20
  -8  22 -16   20.07    3.34
  -8  16 -22   20.12    3.40
   8  16 -22   21.99    3.21
  10  22 -16    8.93    3.35
 -10  22 -16   10.35    3.45
  10  16 -22    9.56    2.50
  10  16 -22    7.15    2.89
 -16  10 -22   12.20    3.22
 -22  10 -16   10.80    2.46
  16  10 -22    8.54    3.02
 -16  22 -10   12.98    2.74
 -10  16 -22   10.33    3.32
  22  10 -16    8.34    3.33
  10  22 -16    8.84    2.51
  16  12 -22  125.67    5.79
 -12  22 -16  124.03    5.98
  12  16 -22  128.63    5.45
 -12  16 -22  116.89    5.89
 -16  12 -22  129.08    5.98
 -22  12 -16  120.84    5.38
  12  22 -16  121.77    5.52
  22  12 -16  129.32    6.09
 -16  22 -12  121.94    5.64
  12  16 -22  125.10    5.59
 -14  16 -22   99.78    5.36
  22  14 -16   93.87    5.45
  22  16 -14   99.75    5.61
 -22  16 -14  100.90    4.59
 -22  14 -16  100.12    4.74
 -16  14 -22   98.44    5.22
 -16  22 -14   98.89    5.09
  14  22 -16   97.63    5.04
  14  16 -22   90.93    4.81
 -14  22 -16   97.12    5.28
  14  16 -22   92.92    4.86
  16  14 -22   97.33    5.05
  16  16 -22   87.76    5.00
  22  16 -16  104.18    5.51
  16  16 -22   83.49    4.59
 -16  16 -22  100.74    5.38
 -16  22 -16   99.66    5.25
  16  22 -16  106.34    5.20
 -22  16 -16   95.71    4.70
   0  22 -18  227.17    9.04
   0  18 -22  236.26    9.02
 -18   0 -22  220.79    8.86
 -22   0 -18  233.08    8.61
 -18   2 -22    7.76    2.98
 -18  -2 -22    7.95    3.09
   2  18 -22    8.81    3.44
 -22   2 -18    5.07    2.51
  -2  18 -22    8.80    3.22
   2  22 -18    5.45    3.23
 -22  -2 -18    5.68    2.69
   4  18 -22  100.56    5.36
 -22   4 -18  109.23    4.88
 -18   4 -22  103.37    5.24
   4  22 -18   97.06    5.47
  -4  22 -18  101.11    5.53
  -6  18 -22    4.47    3.32
   6  18 -22    4.63    3.12
 -18   6 -22    2.73    2.95
  -6  22 -18    7.42    3.58
 -22   6 -18    3.08    2.59
   6  22 -18    4.87    3.48
   8  22 -18    3.03    3.24
  -8  18 -22    3.78    3.23
  -8  22 -18    3.17    3.31
 -22   8 -18    2.42    2.55
  22   8 -18    1.18    3.51
 -18   8 -22    2.65    3.14
   8  18 -22   -2.24    3.17
  10  22 -18    1.41    2.35
 -22  10 -18    6.37    2.61
  10  22 -18    3.44    3.42
 -18  10 -22    1.18    3.08
 -10  22 -18   -0.26    3.48
  10  18 -22    2.59    2.92
  18  10 -22   -0.80    3.17
 -18  22 -10    1.12    2.48
  10  18 -22    0.99    2.33
 -10  18 -22    1.80    3.22
  12  22 -18   20.68    3.51
 -12  22 -18   24.66    3.82
 -12  18 -22   23.59    3.82
 -22  12 -18   24.00    3.12
  18  12 -22   23.14    3.58
  12  18 -22   24.38    2.88
  12  18 -22   24.14    3.36
 -18  22 -12   29.85    3.17
  22  12 -18   23.74    3.87
  12  22 -18   24.23    3.01
 -18  12 -22   34.62    3.71
  14  18 -22   22.05    3.23
  22  18 -14   24.83    3.97
  14  22 -18   28.54    3.28
 -18  22 -14   17.52    3.22
  18  14 -22   19.83    3.49
 -22  14 -18   24.55    3.03
 -18  14 -22   19.81    3.59
 -22  18 -14   26.80    2.80
 -14  22 -18   22.37    3.78
 -14  18 -22   18.77    3.88
  22  14 -18   29.59    4.02
  14  18 -22   18.32    3.21
  22  16 -18   64.59    4.73
 -18  22 -16   59.36    4.25
  22  18 -16   60.17    4.84
 -22  16 -18   63.58    3.99
  18  16 -22   55.64    4.40
  18  22 -16   60.86    4.53
  16  18 -22   54.72    4.08
  16  22 -18   61.89    4.32
 -16  18 -22   57.46    4.62
 -16  22 -18   64.32    4.61
 -22  18 -16   61.30    3.94
 -18  16 -22   56.35    4.47
 -22  18 -18   42.19    3.66
  22  18 -18   33.64    4.42
 -18  22 -18   42.45    4.05
  18  22 -18   39.76    4.06
 -18  18 -22   42.60    4.24
  18  18 -22   45.67    4.00
   0  20 -22   33.32    3.93
 -22   0 -20   39.43    3.57
 -20   0 -22   33.05    3.64
   0  22 -20   33.16    3.94
 -22  -2 -20   11.54    3.17
 -22   2 -20   12.45    3.12
 -20  -2 -22   12.66    3.49
  -2  20 -22    8.33    3.60
   2  22 -20    6.15    3.65
   2  20 -22   14.43    3.56
 -20   2 -22   10.33    3.24
   4  20 -22   36.63    4.04
   4  22 -20   34.24    3.97
 -20   4 -22   41.34    3.73
 -22   4 -20   30.80    3.40
 -20   6 -22    6.43    3.02
  -6  20 -22    4.49    3.52
   6  20 -22    7.28    3.59
   6  22 -20   10.39    3.64
  -6  22 -20    6.81    3.71
 -22   6 -20    5.90    2.96
  22   8 -20   57.05    4.26
 -22   8 -20   51.30    3.85
   8  22 -20   53.06    4.47
  -8  22 -20   56.49    4.49
  -8  20 -22   47.16    4.40
   8  20 -22   57.46    4.38
 -20   8 -22   54.56    4.00
  20  10 -22    6.16    3.30
  10  22 -20    3.48    2.42
 -20  10 -22    6.74    3.14
  10  22 -20    4.78    3.47
  22  10 -20    2.77    3.39
 -22  10 -20    3.48    2.85
 -10  22 -20   11.67    3.80
  10  20 -22    6.72    2.33
 -10  20 -22    3.24    3.44
  10  20 -22    3.82    3.28
  12  22 -20    3.92    2.66
 -12  20 -22    5.33    3.46
 -12  22 -20    5.61    3.73
  12  20 -22    5.65    2.68
  22  12 -20    3.60    3.65
 -20  22 -12    6.65    2.66
  20  12 -22    9.14    3.62
 -22  12 -20    2.19    2.89
  12  22 -20    1.20    3.41
 -20  12 -22    3.69    3.14
  12  20 -22    2.42    3.23
 -20  22 -14    1.72    2.94
  14  20 -22   -0.51    3.25
 -20  14 -22    2.79    3.21
  22  20 -14    4.83    3.87
 -14  22 -20    3.72    3.72
  20  22 -14    1.75    3.76
 -14  20 -22    1.94    3.62
  14  20 -22    5.60    2.85
  22  14 -20    6.88    3.67
  14  22 -20    6.07    2.90
  20  14 -22    1.91    3.51
 -22  14 -20    1.66    3.01
 -20  16 -22   14.91    3.69
  20  22 -16    7.74    3.92
  20  16 -22   12.75    3.85
 -22  20 -16    8.61    2.96
 -16  22 -20   10.24    3.81
  22  20 -16   14.37    4.03
 -16  20 -22    7.24    3.79
  22  16 -20    6.67    3.86
  16  20 -22   11.36    3.34
  16  22 -20   16.69    3.33
 -22  16 -20   13.63    3.17
 -20  22 -16   18.03    3.22
  18  22 -20   -2.32    3.55
  20  18 -22    7.53    3.76
  22  20 -18    6.78    4.00
 -18  20 -22    3.77    3.78
  20  22 -18    1.91    3.69
 -22  18 -20    5.38    3.00
  22  18 -20   -0.28    3.88
 -20  18 -22   -0.13    3.52
  18  20 -22    1.26    3.31
 -20  22 -18    0.65    3.36
 -18  22 -20    4.15    3.56
 -22  20 -18    3.91    3.02
 -20  22 -20   14.24    3.57
  20  22 -20   13.91    3.79
  20  20 -22   12.30    3.97
  22  20 -20   13.70    4.23
 -20  20 -22    7.65    3.73
   0  22 -22   59.58    4.74
 -22   0 -22   57.08    4.13
 -22  -2 -22   13.79    3.38
 -22   2 -22    8.58    3.13
   2  22 -22   14.00    3.74
  -2  22 -22    5.47    3.83
 -22   4 -22    1.31    2.99
 -22  -4 -22    2.51    3.28
   4  22 -22    5.80    3.57
 -22   6 -22    4.65    3.02
   6  22 -22    4.98    3.69
  -6  22 -22    7.37    3.88
 -22   8 -22   63.16    4.23
   8  22 -22   63.24    4.70
  -8  22 -22   59.86    5.01
 -10  22 -22   11.52    4.07
  10  22 -22   15.06    3.84
 -22  10 -22   13.67    3.29
  12  22 -22   47.94    4.32
  22  12 -22   39.61    4.39
  12  22 -22   45.59    3.38
 -22  12 -22   48.33    3.93
 -12  22 -22   44.68    4.50
  14  22 -22    5.45    2.93
 -22  14 -22   -2.55    3.52
 -14  22 -22   10.06    3.77
  22  22 -14    2.99    4.14
  22  14 -22    2.30    3.88
 -22  22 -14    1.34    2.71
  22  16 -22    7.57    4.06
 -22  16 -22   -1.56    3.28
  16  22 -22   -0.60    3.11
 -16  22 -22    2.33    3.86
  22  22 -16   -1.29    4.12
 -22  22 -16    2.51    2.98
 -22  22 -18   15.16    3.44
  22  18 -22   18.95    4.11
 -22  18 -22   17.53    3.74
 -18  22 -22   21.35    4.17
  22  22 -18   13.79    4.10
  18  22 -22   12.10    3.57
  20  22 -22   23.33    3.97
  22  20 -22   25.92    4.06
 -22  22 -20   15.86    3.58
 -22  20 -22   17.73    3.78
 -20  22 -22   19.52    4.12
  22  22 -20   15.69    4.08
  22  22 -22   16.35    4.07
 -22  22 -22   22.13    3.89
 -23   1   1   21.22    3.16
   1  23   1   21.03    3.23
  -1  23   1   18.17    3.10
 -23  -1   1   20.01    3.25
   1  23  -1   26.02    3.17
 -23  -1  -1   21.30    3.07
  -1  23  -1   16.37    2.97
 -23   1  -1   21.47    2.91
  -1  23   3   73.87    4.34
 -23  -1  -3   64.26    3.93
 -23  -3   1   62.15    4.42
   1  23   3   78.41    4.61
 -23  -3  -1   74.44    4.46
  -3  23   1   70.54    4.18
  -3  23  -1   68.37    4.02
 -23  -1   3   73.11    4.57
   3  23   1   68.90    4.45
 -23   1  -3   69.36    3.99
 -23   3  -1   71.18    3.96
 -23   3  -3   15.74    2.52
  -3  23   3   14.67    2.93
 -23  -3   3   11.90    3.35
   3  23   3   15.03    3.05
 -23  -3  -3    8.18    2.79
   1  23   5   54.93    4.03
   5  23   1   61.57    4.31
 -23  -5  -1   51.19    4.08
  -1  23   5   61.50    4.15
  -5  23  -1   52.15    3.41
 -23  -5   1   46.46    4.01
 -23   5  -1   63.73    3.47
 -23  -1  -5   57.10    3.56
  -5  23   1   56.73    3.57
 -23   1  -5   49.96    3.27
   5  23   3  674.33   23.02
 -23  -5  -3  665.40   22.85
 -23  -3  -5  666.23   22.66
  -3  23   5  664.29   22.80
  -5  23  -3  682.47   22.29
 -23   5  -3  690.10   22.33
  -5  23   3  679.19   22.64
   3  23   5  686.92   23.02
 -23   3  -5  676.24   22.32
 -23  -5   3  652.75   23.01
 -23  -5  -5   -2.17    2.62
 -23  -5   5    1.15    3.22
  -5  23   5   -1.59    2.69
   5  23   5   -3.36    2.95
 -23   5  -5   -2.12    1.79
  -7  23   1  227.87    8.41
 -23  -1  -7  225.67    8.41
   1  23   7  226.66    8.94
 -23   7  -1  234.40    8.30
 -23  -7   1  212.49    8.93
  -1  23   7  218.66    8.94
 -23   1  -7  224.55    8.21
  -7  23  -1  217.47    8.23
 -23  -7  -1  215.17    9.01
  -3  23   7   40.22    3.64
  -7  23  -3   35.04    2.61
   7  23   3   32.59    3.92
 -23  -7   3   31.38    3.88
 -23   3  -7   35.31    2.46
   3  23   7   35.41    3.53
 -23  -3  -7   35.56    3.09
 -23  -7  -3   33.98    3.63
  -7  23   3   42.88    3.23
 -23   7  -3   39.89    2.58
  -7  23   5   78.90    4.31
 -23  -7  -5   74.17    4.60
 -23   5  -7   77.55    3.42
   7  23   5   71.22    4.61
   5  23   7   74.15    4.83
 -23  -7   5   83.71    5.10
  -5  23   7   80.99    4.60
 -23   7  -5   74.55    3.40
  -7  23   7    0.29    2.67
 -23  -7   7    2.52    3.08
  -9  23  -1   44.27    2.88
   9   1  23   43.64    3.16
 -23  -9  -1   50.18    4.06
  -1  23   9   50.05    4.09
  -9  23   1   48.30    3.15
   9  -1  23   49.22    3.03
   1  23   9   41.84    4.05
 -23  -9   1   56.93    4.37
 -23  -9  -3    9.67    3.09
   9   3  23    3.83    2.29
  -9  23   3    4.51    2.30
  -9  23  -3    3.23    1.67
 -23   9  -3    1.02    1.54
   9  -3  23    6.65    1.81
 -23  -9   3    4.70    3.55
  -3  23   9   -1.43    2.71
 -23  -9   5  342.17   12.74
 -23   9  -5  325.83   11.21
   9  -5  23  332.38   11.23
 -23  -9  -5  317.97   12.35
  -5  23   9  335.51   12.36
   9   5  23  349.50   12.16
  -9  23   5  354.51   12.12
  23   7  -9    6.59    2.85
   9   7  23    3.24    2.80
  -9   7 -23    7.05    2.89
   9   9  23    2.09    2.70
  -9   9 -23    0.75    2.88
  23   9  -9    0.83    2.82
 -23 -11  -1  125.86    6.26
  11   1  23  128.48    5.37
  -1  23 -11  127.51    5.91
  11  -1  23  126.58    5.18
 -11   1 -23  128.75    5.86
 -11  -1 -23  134.98    5.86
 -11  23  -1  125.48    5.10
 -11  23   1  128.35    5.38
 -23 -11   1  121.41    6.42
 -23  11  -3  195.28    6.93
  -3  23 -11  197.25    7.70
  23   3 -11  195.23    7.56
  -3  11 -23  195.19    7.61
   3  23 -11  191.01    7.87
 -11   3 -23  190.07    7.61
 -11  23   3  183.17    7.50
 -23 -11  -3  204.57    8.30
  11   3  23  204.06    7.65
 -11  23  -3  189.83    6.88
  11  -3  23  195.28    6.99
  11   5  23   75.87    4.36
 -11   5 -23   80.38    4.59
  23   5 -11   85.21    4.50
   5  23 -11   80.92    4.61
  -5  11 -23   79.30    4.62
  -5  23 -11   86.49    4.66
 -11   7 -23    4.82    2.75
  -7  23 -11    5.31    2.96
  11   7  23    0.59    2.45
  23   7 -11    4.78    3.14
  23   9 -11   38.39    3.78
 -11   9 -23   33.51    3.66
  -9  11 -23   38.21    3.73
 -11  23  -9   37.95    3.36
  -9 -23  11   34.34    3.31
  -9  23 -11   36.53    3.57
 -11  23 -11    3.82    2.91
 -11  11 -23   -3.87    3.14
  23   1 -13  111.63    5.01
   1  13 -23  102.32    5.06
 -13  -1 -23   97.11    5.11
  -1  13 -23  105.62    5.09
  13   1  23  100.39    4.58
 -13   1 -23  105.07    5.26
 -13  23   1  104.27    4.55
  23   3 -13   74.88    4.24
   3  13 -23   67.69    4.15
 -13  23   3   77.97    3.94
   3  23 -13   75.24    4.55
  -3  13 -23   73.63    4.48
  -3  23 -13   74.21    4.45
  13   3  23   72.82    3.95
 -13   3 -23   70.63    4.44
  23   5 -13   67.60    4.34
 -13   5 -23   74.79    4.28
  -5  23 -13   77.99    4.61
   5  13 -23   68.47    4.13
   5  23 -13   66.52    4.38
  13   5  23   76.15    4.16
 -13   7 -23    1.44    3.14
  13   7  23    0.45    2.51
  -7  23 -13   -0.68    2.83
  23   7 -13    3.69    2.97
   7  23 -13    3.57    3.23
   7  13 -23    2.41    2.59
  -7 -23  13    1.30    1.87
  -9  23 -13   12.00    3.24
  -9 -23  13    8.03    2.55
   9  13 -23   10.88    2.73
 -13  23  -9   17.48    2.97
 -13   9 -23    9.74    3.06
  -9  13 -23   11.09    3.18
  11  13 -23    4.15    2.47
 -13  23 -11   11.63    2.94
 -13  11 -23    6.20    3.19
 -11  13 -23    9.12    3.33
 -11  23 -13    5.52    3.04
  13  13 -23    6.22    2.54
 -13  13 -23   10.43    3.40
  23  13 -13   12.11    3.74
 -13  23 -13   12.86    3.18
 -15  -1 -23   13.69    3.26
  -1  15 -23   13.02    3.09
  23   1 -15   11.07    3.19
   1  15 -23   16.33    3.15
   1  23 -15   13.68    3.30
 -15   1 -23   19.06    3.20
  -3  15 -23   37.54    3.61
  23   3 -15   42.90    3.62
 -15   3 -23   37.80    3.61
   3  23 -15   35.97    3.75
   3  15 -23   33.04    3.66
  -3  23 -15   34.77    3.80
   5  15 -23   10.01    2.96
  -5  23 -15    8.01    3.42
  -5 -15  23    9.14    2.36
  23   5 -15    4.80    2.98
 -15   5 -23   10.80    3.05
   5  23 -15   11.11    3.56
  -7 -15  23   12.11    2.62
  -7  23 -15   10.46    3.26
   7  23 -15   11.38    3.30
  15   7  23   18.54    2.79
 -15   7 -23   16.35    3.32
  -7 -23  15   14.81    2.25
   7  15 -23   13.78    3.03
  -7  15 -23   15.17    3.39
  -9  15 -23   43.83    4.08
  -9  23 -15   40.69    3.90
 -15  23  -9   32.07    3.23
 -15   9 -23   35.06    3.64
   9  23 -15   41.00    3.99
   9  15 -23   36.57    3.47
  23  11 -15  127.55    6.01
 -11  23 -15  120.87    5.80
  11  15 -23  112.91    5.38
 -15  23 -11  128.19    5.55
 -15  11 -23  124.73    5.83
 -23  11 -15  104.73    4.97
 -11  15 -23  115.26    5.83
  23  13 -15  117.71    5.74
  13  15 -23  108.89    5.19
 -15  23 -13  112.70    5.47
  23  15 -13  116.74    5.90
 -13  23 -15  107.48    5.58
 -23  13 -15  102.25    4.81
  15  13 -23  112.10    5.41
 -15  13 -23  112.01    5.67
 -13  15 -23  119.17    5.65
  13  15 -23  101.81    5.10
  15  15 -23    1.54    2.96
 -15  23 -15   -0.49    3.19
 -15  15 -23   -0.65    3.25
  23  15 -15    3.27    3.67
  15  15 -23   -2.70    2.51
 -23  15 -15    1.45    2.28
 -23   1 -17  141.99    6.01
   1  23 -17  142.90    6.75
 -23  -1 -17  148.35    6.08
 -17  -1 -23  147.09    6.47
  -1  17 -23  147.68    6.51
   1  17 -23  138.35    6.52
 -17   1 -23  157.08    6.52
  23   3 -17    2.82    3.17
   3  23 -17    0.38    3.37
  -3  17 -23   -0.12    3.21
   3  17 -23    0.59    3.02
 -17   3 -23    0.92    2.97
 -23   3 -17   -1.05    2.36
  -3  23 -17    4.29    3.25
   5  23 -17  123.59    6.05
 -23   5 -17  129.90    5.45
  -5  23 -17  119.16    6.00
 -17   5 -23  122.02    5.85
   5  17 -23  127.97    5.96
   7  23 -17    5.02    3.48
 -17   7 -23   12.72    3.45
 -23   7 -17   11.64    2.56
  -7  23 -17   12.51    3.66
   7  17 -23   10.33    3.25
 -17  23  -7    7.48    2.61
  -7  17 -23   11.49    3.38
  23   9 -17   62.79    4.53
   9  17 -23   46.91    3.93
 -17  23  -9   57.02    3.70
 -23   9 -17   57.94    3.63
  -9  23 -17   58.91    4.49
  -9  17 -23   59.58    4.46
   9  23 -17   64.27    4.61
 -17   9 -23   54.86    4.24
   9  23 -17   57.38    3.49
  23  11 -17   54.01    4.47
 -11  17 -23   55.50    4.54
  11  23 -17   55.47    3.60
 -17  11 -23   55.03    4.15
 -17  23 -11   52.41    3.74
  11  17 -23   49.90    3.47
 -11  23 -17   51.32    4.35
 -23  11 -17   53.92    3.53
  11  17 -23   59.71    4.03
  13  17 -23   10.56    3.07
  13  17 -23   10.48    2.81
  23  17 -13    3.19    3.70
 -17  13 -23    8.37    3.53
 -13  23 -17    2.35    3.60
 -13  17 -23    9.43    3.57
 -23  13 -17   12.26    2.75
  23  13 -17    5.86    3.75
 -17  23 -13   13.49    3.08
  13  23 -17    7.82    3.05
  17  13 -23   10.61    3.38
  15  17 -23   21.30    3.22
 -23  17 -15   20.74    2.77
 -17  15 -23   25.15    3.62
 -15  23 -17   20.93    3.71
  23  17 -15   22.80    3.99
 -23  15 -17   19.32    2.98
  23  15 -17   19.92    3.97
  17  15 -23   19.56    3.48
  15  17 -23   19.97    3.18
 -15  17 -23   22.64    3.80
  17  23 -15   15.34    3.55
  15  23 -17   18.04    3.30
 -17  23 -15   25.74    3.45
  17  23 -17    3.14    3.41
  17  17 -23    0.96    3.38
  23  17 -17    6.93    3.93
 -17  23 -17    4.57    3.45
 -23  17 -17    1.43    2.64
 -17  17 -23    2.04    3.57
  -1  19 -23    1.68    3.48
 -19   1 -23    1.20    3.12
   1  19 -23    5.77    3.37
   1  23 -19    1.33    3.50
 -19  -1 -23    1.70    3.08
 -23  -1 -19    7.93    2.85
 -23   1 -19    4.79    2.74
 -19  -3 -23   51.17    4.17
   3  23 -19   45.32    4.39
 -19   3 -23   53.52    4.03
 -23   3 -19   43.63    3.51
   3  19 -23   56.06    4.40
  -3  19 -23   45.11    4.30
 -23  -3 -19   52.25    3.73
   5  19 -23   40.77    3.92
 -23   5 -19   33.20    3.16
   5  23 -19   29.23    3.97
  -5  23 -19   22.33    4.08
 -19   5 -23   31.37    3.67
   7  19 -23  224.78    8.80
   7  23 -19  207.22    8.81
  -7  19 -23  226.44    8.89
  -7  23 -19  209.25    8.88
 -19   7 -23  224.32    8.67
 -23   7 -19  207.63    8.30
  23   7 -19  228.28    8.83
   9  19 -23   61.07    4.43
  -9  23 -19   58.93    4.78
 -19   9 -23   68.09    4.40
  23   9 -19   55.43    4.63
 -23   9 -19   56.72    3.92
 -19  23  -9   66.26    3.80
  -9  19 -23   64.27    4.74
   9  23 -19   56.84    4.64
  11  23 -19   31.79    3.16
 -11  19 -23   38.22    4.28
  11  19 -23   40.14    3.13
 -19  11 -23   38.06    3.85
  11  19 -23   36.98    3.78
  11  23 -19   48.60    4.32
 -19  23 -11   38.75    3.39
 -23  11 -19   39.55    3.35
  23  11 -19   42.31    4.30
 -11  23 -19   40.54    4.23
  23  19 -13  116.50    6.11
 -19  23 -13  119.17    5.47
  23  13 -19  115.90    6.06
  13  23 -19  112.18    5.43
 -19  13 -23  117.33    5.84
  13  19 -23  110.65    5.29
  13  19 -23  112.10    5.72
 -13  23 -19  114.01    5.99
 -23  13 -19  109.31    5.38
 -13  19 -23  111.37    5.97
  19  13 -23  111.69    5.92
 -15  19 -23   27.97    4.27
  23  19 -15   24.00    4.11
  15  19 -23   28.11    3.46
 -23  19 -15   24.26    2.89
  19  15 -23   20.27    3.85
  19  23 -15   29.59    4.09
  15  23 -19   27.91    3.52
  23  15 -19   27.15    4.17
 -19  15 -23   23.70    3.84
  15  19 -23   20.72    3.38
 -15  23 -19   24.95    4.03
 -23  15 -19   17.18    3.16
 -19  23 -15   24.23    3.35
 -19  17 -23  161.24    7.31
  23  17 -19  170.57    7.60
  23  19 -17  171.45    7.66
 -17  19 -23  163.50    7.45
  19  17 -23  163.34    7.29
  17  19 -23  159.57    7.01
 -23  17 -19  154.60    6.79
 -19  23 -17  155.62    7.08
 -17  23 -19  162.46    7.38
  17  23 -19  160.60    7.14
  19  23 -17  171.15    7.39
 -23  19 -17  161.33    6.77
  23  19 -19   -2.15    4.17
  19  23 -19    5.90    3.70
 -23  19 -19   -4.16    3.13
 -19  23 -19    0.96    3.50
  19  19 -23    0.13    3.68
 -19  19 -23   -3.79    3.65
  -1  23 -21    3.24    3.89
 -21   1 -23   -0.62    3.36
   1  23 -21    2.52    3.63
 -23  -1 -21    2.01    3.00
 -23   1 -21    1.39    2.90
   1  21 -23    6.63    3.85
  -1  21 -23   -0.97    3.83
 -21  -1 -23    5.64    3.33
 -21   3 -23   17.31    3.40
   3  21 -23   18.14    3.96
   3  23 -21   27.06    4.11
 -23  -3 -21   21.04    3.47
 -23   3 -21   22.30    3.24
 -21  -3 -23   17.47    3.47
   5  23 -21   12.61    3.82
 -23   5 -21   11.76    3.09
   5  21 -23   12.14    3.62
  -5  23 -21   12.83    3.90
 -21   5 -23   16.01    3.42
  -7  23 -21    8.59    3.86
   7  23 -21    7.99    3.73
 -21   7 -23    9.52    3.34
 -23   7 -21   11.24    3.10
   7  21 -23    8.17    3.67
  -7  21 -23   13.63    4.02
   9  23 -21   64.21    4.80
 -21   9 -23   58.57    4.40
  23   9 -21   58.95    4.67
   9  21 -23   55.02    4.55
 -23   9 -21   55.77    4.00
  -9  23 -21   61.08    4.88
  -9  21 -23   66.87    4.98
  11  23 -21   59.47    4.72
 -21  11 -23   67.59    4.60
  11  23 -21   62.49    3.85
 -11  21 -23   70.26    5.12
 -11  23 -21   66.13    5.07
  23  11 -21   73.53    5.05
 -23  11 -21   66.63    4.31
  11  21 -23   70.62    4.83
  11  21 -23   67.60    3.90
 -21  23 -13    9.49    2.83
 -21  13 -23   16.16    3.57
  21  13 -23   12.75    3.88
  13  21 -23   14.69    2.82
  23  21 -13   14.77    4.28
  13  21 -23   17.21    3.65
 -13  21 -23   17.91    4.05
 -23  13 -21   17.49    3.24
  13  23 -21    7.36    2.96
 -13  23 -21   11.21    3.92
  23  13 -21   13.22    4.09
 -21  15 -23   50.51    4.37
  23  15 -21   57.63    4.68
  15  21 -23   56.55    4.01
  21  15 -23   52.43    4.63
 -15  23 -21   52.84    5.02
 -23  21 -15   52.17    3.71
  15  23 -21   61.90    4.11
 -15  21 -23   49.24    4.76
  21  23 -15   57.95    4.88
 -23  15 -21   55.71    4.20
 -21  23 -15   54.81    3.90
  23  21 -15   56.43    4.98
 -17  23 -21    5.38    3.93
 -17  21 -23    2.64    3.90
 -21  23 -17    2.42    3.11
  17  21 -23    2.70    3.43
  23  21 -17    1.17    4.20
  23  17 -21    1.13    3.98
  17  23 -21   -5.00    3.27
 -21  17 -23    3.40    3.67
  21  17 -23    1.76    3.81
  21  23 -17    0.28    4.02
 -23  21 -17    1.07    2.82
 -23  19 -21   67.77    4.59
 -19  21 -23   81.82    5.14
  19  23 -21   69.37    4.84
  21  19 -23   65.14    5.03
 -21  19 -23   75.08    4.96
 -23  21 -19   68.83    4.61
 -19  23 -21   72.79    5.07
 -21  23 -19   67.34    4.81
  23  21 -19   63.98    5.23
  23  19 -21   68.73    5.23
  19  21 -23   72.55    4.89
  21  23 -19   75.71    5.33
  21  21 -23    0.82    3.80
  23  21 -21   -1.58    4.10
  21  23 -21    3.04    3.93
 -23  21 -21    3.19    3.50
 -21  21 -23   -0.71    3.73
 -21  23 -21    0.14    3.71
   1  23 -23    9.29    4.08
 -23   1 -23   10.57    3.44
  -1  23 -23    8.02    4.11
 -23  -1 -23    9.84    3.40
 -23  -3 -23    0.78    3.42
 -23   3 -23    1.76    3.20
   3  23 -23    1.47    3.91
 -23  -5 -23    1.47    3.49
 -23   5 -23    0.62    3.33
   5  23 -23    1.91    3.82
 -23   7 -23    1.38    3.25
  -7  23 -23    3.48    4.18
   7  23 -23   -0.73    3.92
 -23   9 -23    0.89    3.23
   9  23 -23    2.34    3.60
  -9  23 -23    2.58    4.23
  11  23 -23    2.54    2.54
  11  23 -23   -6.55    3.92
 -11  23 -23    1.07    4.25
 -23  11 -23   -1.28    3.36
 -13  23 -23    5.66    3.97
 -23  13 -23    2.47    3.33
  23  23 -13    0.74    4.08
  13  23 -23    1.28    2.71
 -15  23 -23   -1.38    4.05
 -23  23 -15    4.98    2.74
  23  15 -23    2.27    4.15
 -23  15 -23   -3.97    3.45
  15  23 -23    0.11    2.97
  23  23 -15   -2.08    4.19
 -17  23 -23    6.08    4.27
  23  23 -17    4.14    4.30
 -23  23 -17    1.60    3.14
  23  17 -23    5.56    4.09
 -23  17 -23    6.55    3.60
  17  23 -23    5.28    3.44
  23  23 -19    7.62    4.33
 -19  23 -23    1.05    3.80
  19  23 -23   10.23    3.70
 -23  23 -19    7.86    3.41
 -23  19 -23    9.68    3.74
  23  19 -23    7.69    4.21
  21  23 -23    4.05    3.88
 -23  21 -23    0.41    3.56
  23  21 -23    4.53    3.89
  23  23 -21    3.57    4.08
 -21  23 -23    5.79    3.86
 -23  23 -21    5.23    3.58
 -23  23 -23    4.27    3.64
  23  23 -23    2.23    3.89
 -24   0   0 3263.91  104.77
   0  24   0 3305.79  104.76
  -2  24   0  238.12    9.05
   2  24   0  234.45    9.23
 -24   0   2  247.52    9.39
 -24   0  -2  244.43    9.08
 -24   2   0  238.95    9.07
   0  24   2  232.89    9.20
 -24  -2   0  232.36    9.25
   2  24   2  249.57    9.55
 -24  -2  -2  238.69    9.36
  -2  24   2  250.54    9.41
  -2  24  -2  245.80    9.17
 -24  -2   2  233.58    9.59
 -24   2  -2  251.01    9.17
 -24   4   0  211.27    8.32
 -24  -4   0  222.10    8.78
   0  24   4  211.36    8.60
 -24   0  -4  218.01    8.29
  -4  24   0  224.46    8.34
   2  24   4  434.51   15.28
  -4  24  -2  431.15   14.68
   4  24   2  421.23   15.20
 -24  -2   4  424.80   15.26
 -24  -2  -4  421.76   14.92
 -24  -4   2  429.13   15.27
  -4  24   2  421.72   14.88
 -24   2  -4  428.33   14.69
  -2  24   4  436.70   15.10
 -24   4  -2  422.03   14.64
 -24  -4  -2  416.92   15.12
 -24  -4   4  751.46   25.01
   4  24   4  715.14   24.83
 -24  -4  -4  723.40   24.65
 -24   4  -4  733.53   24.16
  -4  24   4  743.18   24.64
  -6  24   0  193.44    7.49
 -24   6   0  195.17    7.43
 -24   0  -6  190.40    7.39
   0  24   6  183.17    8.02
 -24  -6   0  195.68    8.18
   6  24   2    7.73    3.20
 -24  -6  -2    4.34    2.99
 -24   2  -6    4.97    1.95
  -6  24  -2    6.22    2.16
 -24  -6   2   -0.83    3.24
  -6  24   2    5.09    2.33
  -2  24   6    5.16    2.87
 -24  -2  -6    0.37    2.26
   2  24   6    4.54    2.89
 -24   6  -2    4.30    1.94
   6  24   4   63.19    4.58
   4  24   6   70.23    4.69
 -24  -6   4   65.79    4.65
 -24   6  -4   63.04    3.29
 -24  -6  -4   63.77    4.17
 -24  -4   6   64.21    4.52
 -24  -4  -6   62.86    3.97
  -6  24   4   69.74    4.09
  -4  24   6   67.75    4.21
 -24   4  -6   63.13    3.27
  -6   6 -24  405.05   13.89
  -6  24   6  402.06   14.25
 -24  -6  -6  403.89   14.26
 -24   6  -6  388.13   13.38
 -24  -6   6  405.39   14.68
 -24  -8   0   11.70    3.23
   0  24   8   12.04    3.09
  -8  24   0   13.41    2.17
 -24  -8   2  118.35    5.99
 -24  -8  -2  112.25    6.01
  -8  24  -2  116.40    4.95
  -2  24   8  118.83    5.75
 -24   8  -2  121.64    4.90
  -8  24   2  113.84    5.19
 -24  -8   4    7.62    3.40
  -4  24   8    5.55    2.85
  -8  24   4    6.87    2.49
 -24  -8  -4    5.01    3.02
  -4   8 -24    5.22    2.77
 -24   8  -4    5.25    1.58
  -6  24  -8    0.54    3.04
  24   6  -8    0.20    2.87
  -6   8 -24   -1.58    2.85
  -8  24   6   -0.14    2.43
  -6  24   8    0.63    2.65
  24   8  -8   40.44    3.61
   8   8  24   45.12    3.68
  -8  24  -8   44.05    3.72
  -8  24   8   45.30    3.67
  10   0  24  139.18    5.84
 -10  24   0  153.49    5.87
   0  10 -24  139.69    6.12
 -10  24   2   14.93    2.30
  -2  24 -10   11.39    3.06
  -2  10 -24   11.96    3.16
  24   2 -10   15.70    2.79
 -24 -10  -2   10.09    3.23
  10   2  24   18.16    2.49
  10  -2  24   15.29    2.03
 -10  24  -2   17.77    1.99
 -24  10  -2   14.53    1.86
  24   4 -10    0.90    2.77
  10   4  24    0.79    2.30
  -4  24 -10    5.27    3.16
  -4  10 -24    0.85    3.14
 -10  24   4    1.78    2.30
   4  24 -10   -0.81    3.01
 -24 -10  -4    7.74    3.03
 -10   4 -24    0.11    2.90
 -10  24   6  103.89    5.05
  10   6  24  106.73    5.19
 -10   6 -24  103.56    5.18
  24   6 -10   96.11    5.04
  -6  24 -10   96.26    5.06
  24   8 -10    6.93    2.96
 -10  24  -8    3.22    2.77
  -8  24 -10    1.34    2.84
 -10   8 -24    1.45    2.84
 -10  10 -24   14.92    3.42
 -10  24 -10   11.85    3.12
  24  10 -10   11.46    3.50
  24   0 -12  481.72   16.16
   0  12 -24  462.90   16.27
 -12   0 -24  477.06   16.33
   2  12 -24    0.21    2.74
  -2  12 -24    2.84    2.89
  24   2 -12    1.51    2.95
 -12   2 -24   -1.22    3.25
  12   2  24    2.32    2.05
 -12  24   2   -0.88    2.03
  -2  24 -12    1.76    3.33
   4  12 -24  103.52    5.14
 -12   4 -24  116.63    5.58
  24   4 -12  115.85    5.39
  -4  24 -12  109.90    5.56
 -12  24   4  116.54    5.21
   4  24 -12  116.04    5.77
  -4  12 -24  116.80    5.39
  12   4  24  102.90    5.16
   6  12 -24    7.88    2.79
 -12   6 -24    9.62    3.21
   6  24 -12    7.43    3.45
  24   6 -12    6.41    3.09
  -6  24 -12    7.22    3.21
  12   6  24    4.44    2.58
 -12  24  -8    7.73    2.83
  -8  12 -24   -0.47    3.38
  -8  24 -12    2.10    3.26
 -12   8 -24    6.91    3.02
   8  12 -24    1.40    2.66
  24   8 -12    0.23    3.31
  10  12 -24    3.67    2.50
 -10  12 -24    4.43    3.41
 -12  10 -24    5.59    3.18
 -12  24 -10    4.92    2.91
 -10  24 -12    2.34    3.10
 -12  12 -24    0.61    3.49
 -12  24 -12    1.88    3.16
  12  12 -24    1.57    2.43
   0  14 -24   71.42    4.54
 -14   0 -24   66.16    4.27
 -14   2 -24    4.48    3.21
  -2  14 -24    4.86    3.06
 -14  -2 -24    8.99    3.18
   2  14 -24    2.80    2.99
  24   2 -14    5.41    3.00
  -2  24 -14    8.07    3.21
   2  24 -14    8.91    3.47
  -4  14 -24   10.94    3.24
 -14   4 -24   16.11    3.50
   4  24 -14   14.76    3.47
  24   4 -14   12.76    3.38
  -4  24 -14   14.31    3.39
   4  14 -24    8.94    2.89
  24   6 -14  127.37    5.94
 -14   6 -24  120.96    5.98
  -6  24 -14  126.05    6.03
 -14  24  -6  123.13    5.54
   6  24 -14  136.48    6.26
   6  14 -24  127.39    5.66
   8  14 -24    2.16    2.83
  -8  24 -14    3.32    3.17
  -8  14 -24    2.94    3.37
   8  24 -14    0.38    3.30
 -14  24  -8    1.07    2.62
 -14   8 -24   -1.54    3.30
 -14  24 -10   47.13    3.68
 -14  10 -24   46.34    4.04
 -10  24 -14   44.14    4.05
  10  14 -24   44.83    3.54
 -10  14 -24   40.66    4.10
 -14  24 -12    2.35    2.96
  24  14 -12    3.07    3.50
 -12  24 -14    3.10    3.37
 -12  14 -24    5.63    3.34
 -14  12 -24    1.76    3.25
  12  14 -24    6.85    2.69
  24  14 -14    9.70    3.76
  14  14 -24    7.34    2.64
 -14  14 -24   12.27    3.54
 -14  24 -14    8.82    3.24
 -24   0 -16  127.63    5.45
 -16   0 -24  124.01    6.01
   0  16 -24  131.70    6.12
  24   2 -16   58.49    4.20
   2  24 -16   53.61    4.33
 -16  -2 -24   53.28    4.17
 -24  -2 -16   52.97    3.54
 -16   2 -24   63.76    4.22
 -24   2 -16   55.72    3.45
  -2  16 -24   54.65    4.25
   2  16 -24   59.51    4.27
 -24   4 -16  151.37    6.12
   4  24 -16  151.23    6.91
  -4  16 -24  147.95    6.79
  -4  24 -16  156.04    6.95
  24   4 -16  152.99    6.75
 -16   4 -24  151.27    6.73
   4  16 -24  157.23    6.69
 -16   6 -24   73.25    4.54
 -24   6 -16   70.10    3.73
   6  24 -16   67.80    4.76
   6  16 -24   71.12    4.44
  -6  24 -16   70.77    4.69
  -8  16 -24   15.72    3.56
 -16  24  -8   10.22    2.75
   8  24 -16    8.11    3.69
  -8  24 -16    9.31    3.48
 -24   8 -16   12.58    2.51
   8  16 -24   10.47    3.10
 -16   8 -24    5.13    3.24
 -10  24 -16  125.04    6.01
 -16  10 -24  124.77    5.84
  10  24 -16  110.24    5.20
 -16  24 -10  123.38    5.48
 -10  16 -24  119.39    6.02
 -24  10 -16  111.45    5.11
  10  16 -24  113.92    5.52
 -24  12 -16    0.19    2.39
  24  16 -12   -6.79    3.80
  24  12 -16    0.52    3.58
  12  24 -16    0.53    2.67
 -16  24 -12    1.88    2.97
  12  16 -24   -0.80    2.91
 -12  24 -16   -4.44    3.47
 -12  16 -24    0.67    3.41
 -16  12 -24    4.11    3.37
  24  16 -14   27.48    4.15
 -14  16 -24   24.75    3.85
 -16  14 -24   21.42    3.74
  14  24 -16   20.75    3.36
 -14  24 -16   26.96    3.83
 -16  24 -14   22.48    3.45
  24  14 -16   21.30    3.90
  14  16 -24   23.07    3.09
 -24  14 -16   23.17    2.80
 -16  24 -16    2.23    3.40
  16  16 -24    5.91    2.71
 -24  16 -16    4.11    2.55
 -16  16 -24   -1.93    3.84
  16  24 -16    1.60    3.19
  24  16 -16   -0.14    3.80
 -24   0 -18   98.72    4.70
   0  24 -18   85.45    5.42
 -18   0 -24   96.34    5.36
   0  18 -24   95.78    5.38
  -2  18 -24  151.84    6.66
   2  18 -24  132.74    6.45
 -24   2 -18  135.51    5.88
 -18   2 -24  143.35    6.41
 -24  -2 -18  132.16    5.94
 -18  -2 -24  142.18    6.46
   2  24 -18  136.91    6.55
 -18   4 -24  519.73   17.53
   4  24 -18  514.79   17.76
  -4  24 -18  505.46   17.72
   4  18 -24  504.37   17.59
 -24   4 -18  497.29   17.17
 -18   6 -24   26.56    3.67
  -6  24 -18   28.12    3.89
   6  24 -18   27.84    3.96
 -24   6 -18   27.13    3.01
   6  18 -24   29.30    3.73
  -8  24 -18   22.00    3.83
  -8  18 -24   21.97    4.03
 -24   8 -18   27.60    2.93
 -18   8 -24   27.76    3.65
 -18  24  -8   23.21    2.99
   8  18 -24   29.69    3.72
   8  24 -18   28.74    4.06
 -18  10 -24    9.73    3.44
  10  24 -18    9.59    2.53
 -18  24 -10   12.06    2.81
  24  10 -18   12.06    3.62
 -10  24 -18    5.50    3.66
  10  18 -24   10.19    3.34
  10  24 -18    6.65    3.67
 -24  10 -18   12.42    2.69
 -10  18 -24   12.12    3.89
 -12  18 -24   10.48    3.84
  12  24 -18    8.57    2.80
 -24  12 -18    7.85    2.68
 -18  12 -24   11.12    3.49
  24  12 -18   10.96    3.76
  24  18 -12    9.84    3.95
  12  18 -24    7.62    3.20
 -12  24 -18   16.71    3.82
 -18  24 -12   10.50    3.07
 -18  14 -24   12.95    3.72
  24  14 -18   29.35    4.27
 -18  24 -14   23.32    3.51
 -14  18 -24   28.70    4.16
 -14  24 -18   24.90    4.05
  14  18 -24   21.36    3.28
  14  24 -18   22.36    3.26
  24  18 -14   18.92    4.10
  14  18 -24   23.28    3.14
 -24  14 -18   24.14    3.12
  18  16 -24   95.93    5.42
 -24  18 -16   97.90    4.85
 -18  16 -24   98.46    5.67
  16  24 -18   91.46    5.17
  16  18 -24   89.25    5.12
  18  24 -16   92.74    5.55
 -16  24 -18   97.42    5.64
 -24  16 -18   89.15    4.77
 -18  24 -16   99.84    5.35
 -16  18 -24   95.62    5.61
  24  18 -16  101.89    6.06
  16  18 -24   95.63    4.92
  24  16 -18   98.54    5.73
 -18  18 -24   70.68    5.04
  18  18 -24   73.69    4.85
  18  24 -18   79.33    4.91
 -24  18 -18   67.71    4.16
 -18  24 -18   77.32    4.92
  24  18 -18   67.84    5.37
 -24   0 -20  320.03   11.59
   0  24 -20  313.96   12.08
   0  20 -24  312.59   11.97
 -20   0 -24  335.12   11.91
 -20  -2 -24   81.82    4.99
  -2  20 -24   75.33    5.24
 -20   2 -24   86.74    4.99
   2  24 -20   79.15    5.40
 -24  -2 -20   82.36    4.57
   2  20 -24   77.59    5.18
 -24   2 -20   88.57    4.62
 -20   4 -24   35.74    3.92
 -24   4 -20   33.42    3.46
 -20  -4 -24   41.71    4.15
 -24  -4 -20   33.55    3.53
  -4  24 -20   35.98    4.47
   4  20 -24   29.86    4.01
   4  24 -20   36.09    4.33
   6  20 -24  222.85    9.29
   6  24 -20  231.56    9.58
 -24   6 -20  234.76    8.90
 -20   6 -24  235.58    9.23
  -6  24 -20  249.74    9.69
  24   8 -20   16.32    3.91
  -8  20 -24   16.23    4.06
   8  24 -20   16.81    4.01
  -8  24 -20   14.59    4.10
   8  20 -24   14.25    3.62
 -20   8 -24   15.69    3.45
 -24   8 -20   16.92    2.99
 -20  24 -10   46.72    3.53
  24  10 -20   53.57    4.60
 -24  10 -20   50.42    3.73
 -10  20 -24   45.36    4.72
  10  24 -20   49.33    4.52
 -20  10 -24   48.98    4.20
  10  20 -24   44.45    4.32
 -10  24 -20   53.74    4.69
 -12  20 -24  219.04    8.75
  12  20 -24  189.25    8.24
  24  12 -20  215.99    8.63
  12  24 -20  187.26    7.75
 -12  24 -20  199.72    8.62
 -24  12 -20  205.96    8.00
  24  20 -12  210.86    8.73
 -20  24 -12  199.85    8.01
 -20  12 -24  197.02    8.37
  14  24 -20  192.97    7.65
  20  24 -14  194.46    8.29
  24  20 -14  189.33    8.45
 -24  14 -20  185.30    7.62
 -14  20 -24  189.69    8.26
 -20  24 -14  188.03    7.67
  24  14 -20  205.00    8.43
 -14  24 -20  194.46    8.33
 -20  14 -24  183.65    8.10
  14  20 -24  174.29    7.86
  14  20 -24  191.69    7.58
 -24  20 -16  105.21    5.10
  20  24 -16  119.47    6.07
 -24  16 -20   98.05    5.27
  16  24 -20  102.44    5.39
 -20  24 -16  111.10    5.53
 -20  16 -24  109.50    5.85
  24  16 -20  107.25    6.04
  16  20 -24  101.85    5.33
 -16  24 -20   99.51    5.88
 -16  20 -24   94.70    5.83
  24  20 -16  103.77    6.10
  24  20 -18   46.49    4.96
 -20  18 -24   43.09    4.46
 -20  24 -18   44.29    4.22
 -18  24 -20   52.24    4.60
  20  18 -24   53.61    4.55
 -18  20 -24   39.68    4.49
  24  18 -20   48.15    4.95
  18  24 -20   46.61    4.19
  20  24 -18   50.11    4.60
  18  20 -24   54.62    4.34
 -24  20 -18   41.12    3.67
 -24  18 -20   42.31    3.95
 -24  20 -20  102.43    5.31
  20  20 -24  100.32    5.62
  24  20 -20  100.08    6.19
  20  24 -20  106.19    5.79
 -20  20 -24  101.25    5.93
 -20  24 -20   98.91    5.81
 -24   0 -22   30.23    3.61
   0  24 -22   35.17    4.60
 -22   0 -24   28.05    3.85
   0  22 -24   37.30    4.49
   2  24 -22   47.28    4.65
 -24   2 -22   51.34    4.00
 -22   2 -24   54.55    4.31
 -24  -2 -22   45.48    4.05
   2  22 -24   53.85    4.90
  -2  22 -24   53.90    4.84
 -22  -2 -24   53.38    4.24
   4  24 -22   66.36    5.12
 -24   4 -22   60.18    4.17
   4  22 -24   53.30    4.72
 -22   4 -24   59.07    4.37
 -24  -4 -22   54.71    4.32
 -22  -4 -24   60.11    4.56
 -24   6 -22   13.53    3.18
   6  24 -22    9.06    4.22
 -22   6 -24    5.03    3.35
   6  22 -24   12.32    4.10
  -6  24 -22    7.42    4.08
  -6  22 -24    7.35    4.28
   8  22 -24    4.47    3.70
 -24   8 -22    0.85    3.11
 -22   8 -24    3.13    3.42
  -8  22 -24    8.46    4.23
  -8  24 -22    2.13    4.01
   8  24 -22    2.38    3.93
 -24  10 -22   11.50    3.17
 -22  10 -24   15.38    3.62
  10  24 -22   23.79    4.26
 -10  24 -22   17.75    4.45
 -10  22 -24   13.84    4.21
  10  22 -24   21.07    4.08
  24  12 -22   13.82    4.11
 -22  12 -24    5.88    3.80
 -24  12 -22   11.06    3.27
  12  24 -22   11.69    2.81
  12  22 -24    9.52    3.92
 -12  24 -22    3.53    4.13
 -12  22 -24    3.36    4.14
 -24  14 -22    0.88    3.14
 -22  14 -24    2.31    3.69
  24  14 -22    4.43    4.14
 -14  24 -22    2.60    3.91
  14  24 -22    0.11    2.67
  24  22 -14    6.15    4.22
  22  24 -14   -0.88    4.09
  14  22 -24   -0.11    2.87
 -22  24 -14    1.65    2.93
 -14  22 -24   -0.92    4.11
 -16  22 -24   67.84    5.16
  22  24 -16   59.25    5.04
  24  16 -22   61.83    5.12
 -22  16 -24   59.25    4.67
 -22  24 -16   56.30    4.17
  16  24 -22   51.73    4.22
 -24  22 -16   61.20    4.03
 -16  24 -22   59.58    5.10
  16  22 -24   45.27    4.21
 -24  16 -22   62.34    4.43
  24  22 -16   61.70    5.12
 -22  24 -18    0.52    3.22
  24  18 -22    0.58    4.00
  22  18 -24    4.76    3.88
 -18  22 -24   -0.30    4.13
  22  24 -18    2.61    4.07
 -22  18 -24    2.09    3.69
  18  24 -22    3.05    3.55
 -18  24 -22   -2.69    4.15
 -24  22 -18    2.31    3.13
  18  22 -24    2.77    3.51
  24  22 -18   -1.65    4.17
 -24  18 -22   -1.56    3.31
  22  24 -20   16.67    4.06
 -20  22 -24   16.52    4.37
  20  24 -22   13.71    3.86
 -22  24 -20   14.14    3.72
 -24  22 -20   21.37    3.62
 -24  20 -22   17.04    3.63
  24  20 -22   24.13    4.20
  24  22 -20   19.90    4.27
 -20  24 -22   20.41    4.20
 -22  20 -24   17.77    3.90
  20  22 -24   19.58    3.85
  22  20 -24   14.77    3.99
  22  22 -24   23.07    4.03
  24  22 -22   25.49    4.50
  22  24 -22   30.32    4.17
 -24  22 -22   28.41    3.87
 -22  22 -24   22.87    4.12
 -22  24 -22   21.75    4.13
 -24   0 -24    4.10    3.44
   0  24 -24    5.77    4.18
 -24   2 -24   80.02    4.97
  -2  24 -24   76.13    5.84
   2  24 -24   80.08    5.61
 -24  -2 -24   83.25    5.13
 -24  -4 -24  119.97    6.47
 -24   4 -24  139.87    6.44
   4  24 -24  136.89    6.91
 -24  -6 -24   20.52    4.01
  -6  24 -24   18.91    4.52
   6  24 -24    8.95    4.07
 -24   6 -24   12.38    3.55
   8  24 -24    5.24    4.05
  -8  24 -24    0.80    4.52
 -24   8 -24    3.52    3.29
 -24  10 -24   15.73    3.58
 -10  24 -24   15.37    4.65
  10  24 -24    9.02    4.18
 -12  24 -24    2.08    4.54
  12  24 -24    1.20    3.93
 -24  12 -24    4.24    3.54
  14  24 -24   -2.95    3.02
 -14  24 -24   12.44    4.42
  24  24 -14    8.41    4.31
 -24  14 -24    2.68    3.48
 -16  24 -24  168.80    7.88
  16  24 -24  165.99    7.00
  24  24 -16  166.06    7.77
 -24  16 -24  164.21    7.23
 -24  24 -16  153.23    6.86
 -24  18 -24   76.49    4.84
 -18  24 -24   72.07    5.48
 -24  24 -18   64.00    4.48
  24  24 -18   75.36    5.41
  18  24 -24   69.14    4.56
  24  24 -20    2.77    4.27
  20  24 -24    6.09    3.70
 -24  20 -24   -3.55    3.69
 -20  24 -24   -1.50    4.22
 -24  24 -20    0.38    3.39
  22  24 -24   16.43    4.05
  24  24 -22   21.43    4.21
 -24  24 -22   21.73    3.70
 -22  24 -24   13.16    3.93
 -24  22 -24   15.87    3.86
 -24  24 -24    7.49    3.67
 -25  -1   1   20.64    3.22
  -1  25   1   27.71    3.27
 -25   1  -1   18.94    2.96
 -25  -1  -1   25.34    3.17
 -25   1   1   29.65    3.26
   1  25   1   28.61    3.33
  -1  25  -1   15.44    2.97
 -25   1  -3   71.23    3.97
   1  25   3   70.99    4.55
 -25   1   3   76.20    4.48
  -3  25   1   75.88    4.26
  -1  25   3   68.08    4.34
 -25   3   1   68.20    4.14
 -25  -1   3   65.18    4.41
  -3  25  -1   73.21    4.10
 -25  -1  -3   69.52    4.09
 -25   3  -1   67.87    3.98
 -25  -3   1   73.12    4.64
   3  25   1   64.36    4.47
 -25  -3  -1   71.42    4.42
 -25  -3   3    0.82    2.89
  -3  25   3    3.10    2.69
 -25   3  -3    2.88    2.13
   3  25   3   -0.81    3.06
 -25  -3  -3    5.93    2.53
  -5  25  -1  116.52    5.25
 -25  -5  -1  124.81    5.90
 -25   5  -1  111.29    5.16
 -25   1  -5  120.89    5.20
 -25  -1  -5  118.18    5.35
 -25   5   1  120.11    5.36
  -1  25   5  123.26    5.88
  -5  25   1  106.87    5.33
  -5   1 -25  108.40    5.30
   1  25   5  124.25    6.01
 -25  -5   1  123.93    5.94
  -3  25   5    8.65    2.86
 -25  -5   3   16.02    3.11
  -5  25   3   10.05    2.56
 -25  -3  -5    8.03    2.48
 -25  -5  -3    7.45    2.66
 -25   5  -3   11.47    2.08
 -25  -3   5    8.74    3.05
  -5   3 -25    8.83    2.75
  -3   5 -25    8.24    3.10
 -25   3  -5   10.10    2.10
 -25  -5  -5    1.20    2.42
  -5  25   5    5.77    2.73
  -5   5 -25    0.31    2.66
 -25   5  -5    2.09    1.69
  -7  25  -1  356.71   12.80
  -7   1 -25  372.88   13.05
  -7  -1 -25  356.99   12.96
 -25  -1  -7  371.89   12.98
  -1   7 -25  360.11   12.88
 -25   7  -1  381.64   12.92
 -25  -7  -1  375.53   13.67
 -25   1  -7  379.15   12.87
  -7  25   1  366.52   12.95
 -25  -7   1  368.19   13.62
  -7   3 -25  354.73   12.56
  -3   7 -25  353.29   12.48
  -7  25   3  351.53   12.61
 -25  -7  -3  369.01   13.12
 -25   3  -7  346.59   12.18
 -25   7  -3  352.14   12.18
  -3  25   7  348.27   12.96
 -25  -7  -5   59.84    4.09
 -25   7  -5   57.27    2.95
  -7  25   5   69.29    3.98
  -5  25   7   55.25    4.09
  -5   7 -25   55.64    4.06
  -5  25  -7   57.99    4.18
  -7   5 -25   56.31    4.14
  25   5  -7   57.67    3.94
  25   7  -7    3.35    3.01
  -7  25  -7    4.68    2.94
  -7  25   7    2.51    2.62
   1   9 -25  127.57    5.82
  -1  25  -9  131.00    6.01
  25   1  -9  139.46    5.76
  -9  25  -1  123.61    5.34
  -9  25   1  126.94    5.56
   9  -1  25  125.89    5.43
 -25   9  -1  135.63    5.36
  -1   9 -25  125.11    5.87
  25  -1  -9  136.25    5.60
   9   1  25  126.88    5.61
  25   3  -9    3.01    2.64
  -3   9 -25   -0.11    2.84
  -9  25   3   -2.69    2.34
  -3  25  -9    5.96    3.35
   9   3  25    0.40    2.33
   3   9 -25    3.22    2.77
  -5  25  -9   37.05    3.74
   5   9 -25   36.71    3.21
   9   5  25   39.51    3.37
  -5   9 -25   40.69    3.82
  -9  25   5   37.22    3.26
  25   5  -9   39.89    3.54
  -9  25   7  885.71   29.44
  -9  25  -7  889.38   29.04
   7   9 -25  840.66   28.81
  -7  25  -9  891.55   29.13
  25   7  -9  911.71   29.06
  -9  25  -9    1.96    2.95
  25   9  -9    3.86    3.22
  -9   9 -25    3.87    3.14
   1  11 -25  141.88    6.42
  -1  11 -25  153.31    6.56
  25  -1 -11  150.94    6.28
 -11   1 -25  145.52    6.49
  25   1 -11  154.35    6.36
  -1  25 -11  138.27    6.64
  -3  25 -11   55.81    4.03
  25   3 -11   52.56    3.90
   3  11 -25   47.94    3.75
 -11  25   3   53.71    3.34
  -3  11 -25   50.79    3.96
 -11   3 -25   54.14    4.03
  11   3  25   46.00    3.40
   3  25 -11   43.81    4.22
  11   5  25    8.72    2.63
  -5  25 -11   13.59    3.35
  25   5 -11    9.13    3.08
 -11   5 -25   12.95    3.42
 -11  25   5   16.55    2.64
   5  11 -25   14.73    2.92
  -5  11 -25    9.68    3.00
  25   7 -11  316.35   11.47
 -11   7 -25  313.48   11.53
  -7  25 -11  323.42   11.57
 -11  25  -7  312.05   11.32
   7  11 -25  305.32   11.19
 -11  25  -9    1.84    2.90
  25   9 -11   -1.99    3.35
  25  11  -9    3.67    3.24
  -9  11 -25    3.03    3.27
 -11   9 -25    2.65    3.40
  -9  25 -11    2.28    3.16
   9  11 -25   -0.20    2.49
  25  11 -11    0.49    3.26
 -11  11 -25    4.72    3.35
 -11  25 -11    2.76    3.04
  11  11 -25   -2.46    2.44
 -13   1 -25  124.31    5.80
  -1  13 -25  121.78    5.92
  -1  25 -13  119.39    6.08
 -13  -1 -25  130.75    6.01
  25   1 -13  121.45    5.72
   1  13 -25  120.63    5.87
   3  13 -25  264.82   10.18
  -3  25 -13  281.88   10.49
  25   3 -13  274.64   10.22
   3  25 -13  281.41   10.58
  -3  13 -25  270.19   10.35
 -13   3 -25  281.11   10.34
   5  25 -13    8.69    3.44
  -5  25 -13    8.51    3.35
   5  13 -25   13.84    3.10
 -13   5 -25   14.23    3.36
  -5  13 -25   16.66    3.46
  25   5 -13   13.09    3.30
   7  13 -25    4.56    2.84
 -13   7 -25    6.18    3.25
  -7  25 -13    3.88    3.39
  25   7 -13   10.45    3.40
 -13  25  -7    1.21    2.86
  -9  13 -25  582.85   19.79
  25   9 -13  585.56   19.81
   9  13 -25  559.03   19.50
 -13  25  -9  585.69   19.66
 -13   9 -25  579.66   19.78
  -9  25 -13  589.59   19.83
 -11  25 -13  473.32   15.84
 -13  11 -25  456.62   15.82
  13  11 -25  421.94   15.25
  11  13 -25  448.32   15.43
 -13  25 -11  462.61   15.69
 -11  13 -25  445.90   15.82
 -13  25 -13    0.38    3.17
 -13  13 -25   -1.58    3.55
  13  13 -25    2.28    2.57
 -15  -1 -25    5.32    3.34
  -1  15 -25    0.61    3.36
   1  15 -25    8.23    3.26
 -15   1 -25    8.09    3.37
 -25  -1 -15    5.61    2.35
  -3  15 -25   28.34    3.59
  25   3 -15   22.44    3.46
   3  25 -15   20.79    3.90
  -3  25 -15   18.48    3.68
 -15   3 -25   21.00    3.67
   3  15 -25   16.07    3.48
 -15  -3 -25   19.17    3.54
 -25  -3 -15   17.67    2.56
  25   5 -15  112.22    5.70
  -5  25 -15  113.24    5.75
 -15   5 -25  112.15    5.52
   5  25 -15  101.59    5.70
   5  15 -25  108.41    5.50
  25   7 -15   49.99    4.21
  -7  25 -15   48.21    4.32
   7  15 -25   49.33    3.91
 -15   7 -25   49.41    4.05
   7  25 -15   49.37    4.37
 -15  25  -9    1.37    2.85
 -15   9 -25    1.91    3.42
  -9  25 -15    5.93    3.39
  -9  15 -25    1.98    3.47
   9  15 -25    3.12    2.99
 -15  25 -11   21.91    3.27
 -11  15 -25   24.33    3.97
 -11  25 -15   24.33    3.68
 -15  11 -25   23.88    3.69
  11  15 -25   24.71    3.28
 -13  25 -15    7.68    3.51
  25  15 -13    8.72    3.89
 -13  15 -25    0.82    3.75
 -15  25 -13    7.66    3.26
  13  15 -25   -0.34    2.82
  25  13 -15    2.70    3.76
 -15  13 -25    4.16    3.41
 -15  15 -25    2.78    3.65
  25  15 -15    4.74    3.93
  15  15 -25    2.07    2.74
 -15  25 -15    2.25    3.42
 -25   1 -17  218.32    8.17
   1  25 -17  217.58    8.94
 -17  -1 -25  232.62    8.84
   1  17 -25  212.93    8.75
 -25  -1 -17  216.34    8.20
  -1  17 -25  204.36    8.72
 -17   1 -25  218.44    8.73
 -17  -3 -25  171.28    7.53
  -3  17 -25  181.18    7.66
 -25   3 -17  169.00    6.85
 -17   3 -25  181.63    7.54
   3  25 -17  170.88    7.69
 -25  -3 -17  168.39    6.98
  -3  25 -17  188.25    7.80
   3  17 -25  169.36    7.49
  25   5 -17   16.00    3.68
 -17   5 -25   17.05    3.58
 -25   5 -17   17.03    2.65
   5  17 -25   23.82    3.65
   5  25 -17   20.83    4.01
  -5  25 -17   21.61    3.99
   7  25 -17  393.25   14.14
  -7  25 -17  386.07   14.07
   7  17 -25  378.33   13.80
 -25   7 -17  385.41   13.37
 -17   7 -25  397.73   13.95
  -9  17 -25  482.51   16.29
 -17  25  -9  444.62   15.78
 -25   9 -17  446.83   15.56
  -9  25 -17  465.85   16.23
   9  17 -25  448.03   15.96
 -17   9 -25  474.23   16.15
  25  17 -11  172.56    7.70
 -17  11 -25  170.28    7.42
 -11  25 -17  172.81    7.51
  25  11 -17  171.87    7.62
 -17  25 -11  169.48    7.13
  11  17 -25  163.11    7.18
 -25  11 -17  167.79    6.70
  11  25 -17  157.05    6.73
 -11  17 -25  179.86    7.68
  13  25 -17  172.29    7.13
 -13  17 -25  167.18    7.74
  25  17 -13  175.55    7.88
  13  17 -25  173.61    7.26
 -17  25 -13  183.01    7.39
 -13  25 -17  180.80    7.81
 -25  13 -17  164.49    6.94
  25  13 -17  181.67    7.82
 -17  13 -25  183.05    7.66
  25  17 -15   19.73    4.24
  25  15 -17   17.40    4.15
  17  25 -15   18.19    3.62
  15  25 -17   11.81    3.30
 -17  25 -15   18.90    3.59
  15  17 -25   16.71    3.15
 -17  15 -25   23.27    4.04
 -25  15 -17   16.12    2.70
 -15  25 -17   19.73    3.95
 -15  17 -25   16.84    4.32
  17  25 -17    1.03    3.30
 -17  17 -25    2.90    3.92
 -17  25 -17   -4.41    3.71
  25  17 -17    1.76    3.93
 -19   1 -25   22.64    3.76
 -19  -1 -25   21.12    3.84
   1  25 -19   21.34    4.07
 -25   1 -19   23.95    3.08
  -1  19 -25   14.47    3.97
   1  19 -25   22.04    3.82
 -25  -1 -19   23.61    3.11
   3  19 -25   96.22    5.59
 -25   3 -19   81.10    4.68
 -19  -3 -25   89.62    5.41
 -19   3 -25   99.08    5.34
   3  25 -19   88.21    5.61
 -25  -3 -19  102.29    4.96
  -3  19 -25   98.17    5.68
  -5  25 -19   70.86    5.13
 -19   5 -25   76.37    4.82
   5  25 -19   69.18    5.07
 -25   5 -19   63.61    4.00
   5  19 -25   66.31    4.80
 -19   7 -25   29.91    3.93
 -25   7 -19   34.83    3.21
   7  25 -19   26.03    4.31
  -7  19 -25   37.43    4.49
  -7  25 -19   31.72    4.42
   7  19 -25   38.28    4.11
 -19   9 -25  168.40    7.22
  -9  19 -25  168.24    7.53
  25   9 -19  164.35    7.40
   9  25 -19  154.32    7.56
  -9  25 -19  174.97    7.55
   9  19 -25  155.48    7.19
 -25   9 -19  156.15    6.62
 -19  25 -11  181.45    7.33
  25  11 -19  186.78    8.01
 -25  11 -19  184.99    7.24
  11  25 -19  169.95    7.07
 -19  11 -25  186.47    7.89
 -11  25 -19  185.39    8.07
  11  19 -25  179.46    7.74
 -11  19 -25  177.70    8.03
  25  13 -19    5.07    4.04
 -19  13 -25    8.44    3.56
 -13  19 -25    4.13    3.99
  25  19 -13   11.28    4.31
  13  19 -25    3.24    3.27
 -25  13 -19    8.56    2.83
 -13  25 -19    7.15    3.99
 -19  25 -13    5.17    3.13
  13  25 -19    5.56    2.83
  25  19 -15    4.74    4.34
 -15  25 -19    5.52    3.68
 -19  15 -25    5.54    3.75
  25  15 -19    3.75    4.09
  19  25 -15    6.86    3.80
 -15  19 -25    9.93    3.96
 -25  15 -19    4.29    2.88
 -19  25 -15    9.05    3.41
  15  25 -19    2.75    3.03
  15  19 -25    8.59    3.27
 -19  17 -25   -0.87    3.69
  19  25 -17    3.00    3.82
 -25  19 -17   -0.78    2.76
 -17  25 -19    1.44    3.83
  25  17 -19    0.29    4.32
  25  19 -17    7.18    4.28
 -25  17 -19   -0.35    2.88
  17  25 -19   -2.17    3.33
 -19  25 -17   -0.41    3.57
 -17  19 -25    0.74    3.99
 -25  19 -19    1.66    2.97
  19  25 -19    3.51    3.57
 -19  19 -25   -6.93    4.18
  25  19 -19    2.84    4.20
 -19  25 -19    2.55    3.83
 -25   1 -21   20.76    3.33
   1  25 -21   25.84    4.55
 -25  -1 -21   17.90    3.29
   1  21 -25   23.69    4.21
  -1  21 -25   19.22    4.24
 -21   1 -25   19.06    3.64
 -21  -1 -25   15.26    3.70
 -25   3 -21   65.41    4.31
 -21  -3 -25   68.04    4.95
   3  21 -25   71.02    5.08
 -25  -3 -21   75.11    4.48
   3  25 -21   75.73    5.29
  -3  21 -25   62.03    5.11
 -21   3 -25   66.43    4.79
 -25  -5 -21    4.30    3.12
 -21  -5 -25   -2.38    3.68
   5  21 -25    1.58    3.68
 -21   5 -25   -2.66    3.57
   5  25 -21    5.59    4.12
 -25   5 -21    2.09    2.97
  -5  25 -21    2.43    4.08
 -25   7 -21  294.18   11.09
   7  25 -21  312.74   11.74
  -7  25 -21  325.26   11.93
   7  21 -25  300.67   11.58
 -21   7 -25  303.55   11.44
  -7  21 -25  294.59   11.77
 -25   9 -21  112.80    5.44
  -9  25 -21  118.05    6.46
  -9  21 -25  113.14    6.32
   9  21 -25  106.67    6.03
   9  25 -21  100.11    6.18
 -21   9 -25  104.80    5.75
 -11  21 -25   56.09    5.19
  11  25 -21   53.94    3.52
 -25  11 -21   58.98    4.11
  25  11 -21   59.00    5.14
  11  21 -25   56.60    4.71
 -21  11 -25   53.21    4.60
 -11  25 -21   54.16    4.93
 -13  21 -25  535.16   18.31
  13  25 -21  484.69   17.50
 -21  25 -13  510.35   17.68
 -13  25 -21  532.26   18.30
 -25  13 -21  523.45   17.70
  13  21 -25  495.39   17.91
 -21  13 -25  525.09   18.04
  25  13 -21  529.93   18.20
  25  21 -13  526.69   18.31
 -25  15 -21    2.18    3.14
 -21  15 -25    4.10    3.97
 -15  21 -25    4.00    4.33
  25  15 -21    5.39    4.19
  15  25 -21    3.16    3.12
  25  21 -15   -1.52    4.11
 -15  25 -21    3.95    4.12
 -21  25 -15    3.78    3.30
  21  25 -15    6.35    4.03
 -25  17 -21  183.60    7.73
  25  17 -21  184.28    8.46
  17  25 -21  173.96    7.76
 -17  25 -21  193.03    8.34
  25  21 -17  195.84    8.53
  21  25 -17  187.87    8.22
 -17  21 -25  181.54    8.28
 -25  21 -17  181.18    7.49
 -21  17 -25  192.30    8.27
 -21  25 -17  190.39    7.90
 -19  25 -21  114.57    6.29
  25  21 -19  123.01    6.72
 -21  25 -19  111.31    5.93
  19  25 -21  117.70    6.13
 -25  21 -19  114.07    5.57
 -19  21 -25  112.56    6.43
  21  25 -19  116.56    6.31
  25  19 -21  109.08    6.44
 -25  19 -21  114.51    5.64
 -21  19 -25  116.40    6.31
 -25  21 -21    1.89    3.29
 -21  25 -21    9.24    3.89
  25  21 -21    0.89    4.13
  21  25 -21   -7.53    3.89
 -21  21 -25    1.33    4.10
   1  23 -25   40.08    4.82
  -1  25 -23   32.85    4.91
 -23  -1 -25   32.18    4.06
 -25   1 -23   34.05    3.63
   1  25 -23   37.98    4.85
  -1  23 -25   30.74    4.79
 -23   1 -25   41.45    4.27
 -25  -1 -23   30.34    3.79
   3  23 -25  122.13    6.40
 -25   3 -23  105.05    5.59
 -25  -3 -23   99.61    5.72
 -23  -3 -25  105.54    5.94
   3  25 -23  108.70    6.39
 -23   3 -25  109.53    5.91
 -25  -5 -23   37.32    4.06
   5  25 -23   30.10    4.71
  -5  25 -23   43.82    4.98
 -25   5 -23   35.28    3.69
 -23   5 -25   34.90    4.06
 -23  -5 -25   41.03    4.48
   5  23 -25   27.57    4.55
 -25  -7 -23  203.33    8.50
 -23   7 -25  205.65    8.43
  -7  25 -23  201.13    9.04
  -7  23 -25  204.04    8.96
 -23  -7 -25  203.13    8.62
   7  25 -23  201.26    8.91
 -25   7 -23  200.14    8.17
   7  23 -25  188.60    8.75
  -9  23 -25  218.25    9.27
   9  23 -25  204.16    9.01
  -9  25 -23  218.64    9.30
 -23   9 -25  201.68    8.64
 -11  25 -23  190.96    8.82
 -25  11 -23  202.16    8.13
  11  23 -25  188.84    8.49
 -11  23 -25  205.75    8.91
 -23  11 -25  193.84    8.31
 -13  23 -25  108.18    6.63
  13  25 -23  104.52    5.07
  25  23 -13  108.13    6.44
 -25  13 -23  115.18    5.73
  23  25 -13  116.99    6.50
 -23  13 -25  109.52    5.94
 -13  25 -23  108.93    6.55
  23  25 -15    3.46    4.43
  15  25 -23    1.59    3.09
  25  23 -15    2.00    4.45
 -23  15 -25    4.18    3.84
 -23  25 -15    2.88    3.08
 -25  15 -23    3.73    3.15
 -15  23 -25   -1.11    4.30
 -15  25 -23    2.68    4.51
  25  17 -23  163.64    7.71
 -25  17 -23  161.31    7.07
  25  23 -17  158.69    7.86
 -23  17 -25  164.61    7.43
  23  25 -17  157.68    7.68
 -17  25 -23  163.19    7.71
 -23  25 -17  156.03    6.91
 -17  23 -25  167.48    7.68
 -25  23 -17  152.34    6.73
  17  25 -23  157.99    7.00
 -25  23 -19   29.73    3.54
  23  25 -19   40.60    4.63
  25  19 -23   37.50    4.85
 -19  25 -23   35.57    4.57
  19  25 -23   26.03    3.91
 -23  25 -19   30.02    3.96
  25  23 -19   28.88    4.85
 -19  23 -25   29.12    4.48
 -25  19 -23   40.72    4.08
 -23  19 -25   39.19    4.42
  25  21 -23    7.25    4.15
  23  25 -21    0.70    3.90
  21  25 -23    2.50    3.80
 -25  23 -21   -3.14    3.31
  25  23 -21   -3.65    4.12
 -23  25 -21    0.81    3.48
 -25  21 -23    2.08    3.26
 -21  25 -23    4.95    3.83
 -21  23 -25   -1.48    4.13
 -23  21 -25    0.14    3.94
  25  23 -23    0.85    4.30
 -23  25 -23    3.29    3.77
  23  25 -23    2.43    3.71
 -23  23 -25    0.14    3.87
 -25  23 -23    2.32    3.46
 -25  -1 -25    8.40    3.62
  -1  25 -25    3.45    4.75
   1  25 -25   -0.49    4.62
 -25   1 -25   -1.91    3.70
   3  25 -25   -1.14    4.56
 -25   3 -25    4.19    3.38
 -25  -3 -25    6.03    3.84
 -25   5 -25   -3.63    3.71
   5  25 -25    1.62    4.20
 -25  -5 -25   -3.87    3.82
   7  25 -25    2.74    4.10
 -25   7 -25    0.80    3.49
 -25  -7 -25    1.90    3.76
  -7  25 -25    1.16    4.77
   9  25 -25   -4.79    4.49
 -25   9 -25   -1.20    3.58
  -9  25 -25   -1.16    4.72
 -25  11 -25   -4.84    3.55
  11  25 -25   -2.82    4.33
 -11  25 -25    7.95    4.69
  25  25 -13   -3.76    4.62
 -13  25 -25    3.13    4.49
 -25  13 -25   -0.27    3.45
  25  25 -15   -2.48    4.31
 -25  15 -25    2.83    3.49
 -15  25 -25    0.32    4.32
 -17  25 -25    7.31    4.53
 -25  17 -25    8.20    3.49
  25  25 -17   -1.68    4.13
 -25  25 -17   -1.86    3.10
 -25  19 -25    9.27    3.49
  25  25 -19    2.08    4.15
 -25  25 -19    4.95    3.18
 -19  25 -25    2.46    4.08
  25  25 -21   -0.28    4.22
 -25  21 -25    0.93    3.49
 -21  25 -25    2.80    4.08
 -25  25 -21   -7.80    3.32
 -25  23 -25    0.65    3.57
 -23  25 -25    3.03    3.79
 -25  25 -23   -1.75    3.17
  25  25 -23   -2.99    3.94
 -25  25 -25   -3.74    3.42
 -26   0   0  851.50   28.62
   0  26   0  864.14   28.64
  -2   0 -26  380.40   13.41
  -2  26   0  367.86   13.65
 -26  -2   0  404.95   14.00
 -26   2   0  387.24   13.68
   0  26   2  382.46   13.91
 -26   0   2  395.91   13.92
 -26   0  -2  373.38   13.65
 -26  -2   2  120.36    5.97
  -2   2 -26  125.77    5.57
  -2  -2 -26  122.55    5.53
 -26   2   2  130.57    5.87
   2  26   2  121.09    6.08
  -2  26   2  128.81    5.91
 -26   2  -2  132.86    5.62
 -26  -2  -2  113.84    5.72
 -26  -4   0   10.78    2.93
   0  26   4    9.00    2.78
 -26   0  -4    7.86    2.31
 -26   4   0    7.22    2.21
 -26   0   4   11.60    3.13
  -4  26   0    7.40    2.50
   0   4 -26    8.89    2.91
  -4   0 -26    9.93    2.87
 -26   2  -4  208.21    7.91
 -26  -4  -2  225.29    8.51
 -26   4  -2  212.12    7.96
 -26  -2   4  209.96    8.63
  -2   4 -26  198.40    7.94
  -4  26   2  188.73    8.16
 -26   4   2  215.62    8.28
  -2  26   4  197.05    8.40
  -4  -2 -26  218.16    8.17
  -2  -4 -26  206.82    8.00
 -26  -2  -4  196.64    8.19
 -26  -4   2  202.82    8.65
  -4   2 -26  207.24    8.11
  26   4  -4  173.06    6.85
 -26   4  -4  170.91    6.73
 -26  -4  -4  173.34    7.29
  -4   4 -26  172.82    7.14
  -4  26   4  172.40    7.33
 -26   0  -6   15.72    2.24
   0   6 -26   15.84    2.98
 -26   6   0   16.71    2.38
  -6  26   0   14.39    2.33
  -6   0 -26   16.77    3.21
 -26   2  -6   38.89    2.78
  -6  -2 -26   41.77    3.59
  26   2  -6   34.42    3.25
  -6  26   2   38.60    3.14
   2   6 -26   37.28    3.24
 -26  -2  -6   42.39    3.16
  -2   6 -26   33.69    3.34
 -26   6  -2   30.54    2.65
  -6  26  -2   32.37    2.82
  -6   2 -26   35.20    3.55
 -26  -6  -2   40.80    3.59
  26   4  -6   13.48    2.88
  26   6  -4   16.46    3.11
  -6  26   4    9.10    2.65
   4   6 -26   22.17    2.94
 -26  -4  -6   15.44    2.54
  -4   6 -26   19.83    3.33
  -6   4 -26   19.94    3.41
 -26  -6  -4   14.54    2.76
  -6  26   6   16.97    2.95
  26   6  -6   20.62    3.22
  -6   6 -26   17.40    3.45
  -8   0 -26   42.27    3.85
  26   0  -8   46.42    3.47
   0   8 -26   45.76    3.64
 -26   8   0   40.83    2.93
  -8  -2 -26   46.09    3.93
  -8  26   2   46.48    3.26
  26  -2  -8   40.10    3.24
   2   8 -26   47.89    3.51
  -8   2 -26   44.48    3.89
  26   2  -8   45.67    3.60
  -2   8 -26   44.72    3.73
  -4  26  -8   29.30    3.85
   4   8 -26   27.53    3.16
  26   4  -8   28.32    3.31
  -4   8 -26   25.74    3.64
  -8  26   4   28.65    3.00
  26   8  -6   59.41    4.13
   6   8 -26   63.44    3.83
  -6   8 -26   65.78    4.32
  -6  26  -8   62.66    4.32
  -8  26   6   63.40    4.06
  26   6  -8   59.81    4.07
  26   8  -8    1.13    3.24
   8   8 -26   -0.29    2.42
  -8  26  -8   -1.79    3.21
   0  26 -10   19.79    3.63
  26   0 -10   18.20    2.94
   0  10 -26   20.28    3.31
  -2  26 -10    7.39    3.60
  26  -2 -10   11.12    2.82
   2  10 -26    8.41    2.94
  26   2 -10   11.16    3.10
  -2  10 -26    5.13    3.03
   4  10 -26   11.47    2.98
  -4  10 -26    9.46    3.41
  -4  26 -10   10.96    3.56
  10   4  26   12.32    2.62
  26   4 -10   13.00    3.21
  -6  26 -10    8.32    3.42
   6  10 -26    0.11    2.80
 -10   6 -26   -1.56    3.29
  -6  10 -26    5.27    3.35
  26   6 -10    1.24    3.22
   8  10 -26   -0.72    2.67
 -10   8 -26    0.73    3.37
  10   8 -26    3.12    2.41
 -10  26  -8    4.04    3.21
  26   8 -10   -0.94    3.35
  -8  26 -10   -2.72    3.19
  26  10  -8    0.24    3.28
  10  10 -26   18.14    2.70
  26  10 -10   19.18    3.53
 -10  26 -10   17.80    3.40
 -10  10 -26   22.98    3.54
 -12   0 -26   74.46    4.76
   0  12 -26   78.69    4.79
  26   0 -12   82.56    4.60
   2  12 -26   12.44    3.27
  -2  12 -26   15.27    3.34
 -12  -2 -26   13.91    3.43
 -12   2 -26   19.89    3.48
  -2  26 -12   11.29    3.71
  26   2 -12   11.64    3.23
   4  12 -26    2.82    2.92
  -4  26 -12    1.29    3.31
  -4  12 -26   -1.09    3.23
  26   4 -12   -1.80    3.13
 -12   4 -26    2.20    3.25
  -6  26 -12   60.46    4.43
   6  12 -26   53.95    3.88
 -12   6 -26   58.01    4.31
  26   6 -12   60.67    4.31
  26   8 -12   82.92    5.01
   8  12 -26   79.45    4.47
  -8  26 -12   88.63    5.11
 -12  26  -8   79.06    4.65
 -12   8 -26   85.65    5.06
  26  12 -10    4.85    3.51
 -10  12 -26    4.55    3.62
  10  12 -26    1.92    2.65
 -12  10 -26    0.52    3.25
  12  10 -26    0.10    2.35
  26  10 -12    4.92    3.51
 -12  26 -10    7.40    3.30
 -10  26 -12    9.63    3.49
 -12  12 -26   -3.33    3.59
 -12  26 -12    0.13    3.33
  12  12 -26    6.06    2.60
 -14   0 -26  331.71   12.27
   0  14 -26  336.78   12.18
 -14  -2 -26   60.26    4.48
 -14   2 -26   61.58    4.47
  26   2 -14   64.68    4.38
   2  14 -26   61.42    4.40
  -2  26 -14   61.46    4.56
   2  26 -14   54.00    4.74
  -2  14 -26   60.74    4.43
   4  14 -26   95.80    5.20
 -14   4 -26   99.41    5.43
  -4  26 -14  100.45    5.56
   4  26 -14   97.00    5.68
  -4  14 -26  107.15    5.53
  26   4 -14  106.28    5.47
  26   6 -14   92.31    5.20
   6  14 -26   84.81    4.93
 -14   6 -26   93.38    5.25
  -6  26 -14   92.33    5.33
  -8  26 -14    9.92    3.59
  26   8 -14    4.91    3.50
 -14   8 -26    4.53    3.51
 -14  26  -8    3.51    3.01
   8  14 -26    6.26    3.01
 -10  14 -26   41.45    4.22
 -14  10 -26   45.63    4.13
 -14  26 -10   42.08    3.83
 -10  26 -14   43.87    4.29
  10  14 -26   39.21    3.66
 -12  14 -26   10.77    3.75
 -14  12 -26   10.20    3.79
 -14  26 -12    7.81    3.23
  12  14 -26   13.89    2.88
 -12  26 -14   12.07    3.62
 -14  14 -26   10.54    3.89
 -14  26 -14    2.27    3.46
  14  14 -26    5.01    2.60
   0  16 -26  305.06   11.50
 -26   0 -16  302.79   10.92
 -16   0 -26  319.81   11.54
  -2  16 -26   38.97    4.21
 -16   2 -26   41.69    4.05
 -16  -2 -26   39.35    4.11
   2  26 -16   39.00    4.53
 -26   2 -16   37.06    3.03
   2  16 -26   35.01    4.06
  -2  26 -16   42.78    4.33
 -26  -2 -16   36.16    3.12
   4  16 -26  137.20    6.58
  26   4 -16  150.87    6.70
 -16   4 -26  144.01    6.79
 -16  -4 -26  142.81    6.78
 -26  -4 -16  137.74    5.98
   4  26 -16  149.10    6.95
  -4  26 -16  150.73    6.91
  -4  16 -26  147.30    6.75
  26   6 -16   59.85    4.51
 -16   6 -26   51.43    4.46
   6  26 -16   54.65    4.76
  -6  26 -16   68.90    4.91
   6  16 -26   58.80    4.34
 -16   8 -26   18.08    3.81
  -8  16 -26    6.24    3.86
   8  16 -26   12.65    3.39
  -8  26 -16   13.47    3.88
  10  26 -16   89.31    4.48
 -16  10 -26   89.19    5.46
  10  16 -26   81.85    4.90
 -16  26 -10   98.35    5.08
 -10  26 -16   90.21    5.47
 -10  16 -26   97.08    5.59
 -12  16 -26    1.15    4.06
 -16  12 -26   -0.97    3.59
  12  26 -16   -5.37    2.89
 -12  26 -16    2.67    3.68
 -16  26 -12    3.43    3.22
  12  16 -26    0.48    3.04
  14  26 -16   14.19    3.36
  14  16 -26   21.18    3.28
 -14  16 -26   21.65    4.30
  26  14 -16   23.03    4.36
  26  16 -14   25.69    4.27
 -14  26 -16   24.37    3.99
 -16  26 -14   22.06    3.63
 -16  14 -26   28.94    4.33
  16  16 -26   62.61    4.19
  26  16 -16   86.45    5.56
 -16  26 -16   76.20    5.02
 -16  16 -26   70.54    5.23
  16  26 -16   82.03    4.83
 -26   0 -18    8.83    2.72
 -18   0 -26   12.21    3.54
   0  18 -26   15.91    3.79
 -26   2 -18   87.64    4.47
 -26  -2 -18   93.29    4.57
 -18  -2 -26   84.11    5.32
   2  26 -18   93.10    5.75
  -2  18 -26   87.51    5.43
   2  18 -26   83.14    5.34
 -18   2 -26   90.32    5.22
 -18  -4 -26  146.48    6.64
  -4  18 -26  129.60    6.64
 -26  -4 -18  135.66    5.99
   4  26 -18  137.29    6.85
  -4  26 -18  132.11    6.81
   4  18 -26  143.93    6.62
 -26   4 -18  120.51    5.66
 -18   4 -26  132.84    6.47
 -18   6 -26   30.35    3.99
 -26   6 -18   30.93    3.08
  -6  26 -18   29.79    4.45
   6  26 -18   29.26    4.44
   6  18 -26   27.63    3.87
   8  26 -18   28.66    4.33
 -26   8 -18   32.76    2.98
  -8  26 -18   27.34    4.32
   8  18 -26   30.20    3.86
  -8  18 -26   36.39    4.39
 -18   8 -26   31.30    4.07
 -10  18 -26    3.82    4.03
  10  18 -26   11.22    3.45
 -18  26 -10    2.26    2.97
 -26  10 -18    6.09    2.65
 -18  10 -26    6.35    3.90
  10  26 -18    2.08    2.40
 -10  26 -18   11.19    3.85
 -18  26 -12    4.13    3.21
 -12  18 -26    1.78    4.07
  12  26 -18    1.19    2.70
  26  18 -12    3.97    4.09
 -18  12 -26    2.11    3.67
 -26  12 -18    1.36    2.48
  26  12 -18    5.23    3.96
  12  18 -26   -0.51    3.29
 -12  26 -18    6.47    4.01
  26  18 -14   16.51    4.44
 -18  14 -26   15.12    4.02
  26  14 -18   13.92    4.44
 -14  26 -18   17.16    4.13
 -18  26 -14   16.54    3.62
  14  18 -26   12.32    3.35
  14  26 -18   18.94    3.21
 -14  18 -26    9.90    3.90
  16  26 -18   97.02    5.38
 -26  16 -18   86.26    4.70
  26  16 -18  102.32    6.01
  26  18 -16  102.45    6.13
 -16  26 -18   90.90    5.69
 -18  26 -16  113.83    5.67
 -16  18 -26   98.33    6.04
 -18  16 -26   93.68    5.96
  16  18 -26   91.27    5.11
  18  26 -16  101.51    5.70
  26  18 -18   21.79    4.70
 -18  18 -26   25.07    4.30
 -26  18 -18   20.92    2.95
  18  26 -18   32.14    4.04
 -18  26 -18   29.14    4.08
   0  20 -26  517.21   18.45
   0  26 -20  527.33   18.65
 -26   0 -20  513.95   17.96
 -20   0 -26  547.69   18.33
 -26   2 -20   61.53    3.97
   2  26 -20   48.75    5.00
 -26  -2 -20   54.99    4.01
 -20   2 -26   57.48    4.57
  -2  20 -26   52.60    4.89
   2  20 -26   61.02    4.74
 -20  -2 -26   65.21    4.81
 -26  -4 -20   -1.33    2.92
 -26   4 -20   -1.34    2.74
   4  26 -20   -1.08    4.27
 -20   4 -26    2.74    3.53
  -4  26 -20    0.15    4.16
   4  20 -26    4.47    3.89
 -20  -4 -26   -0.99    3.74
   6  26 -20   46.01    4.91
  -6  26 -20   44.37    4.86
 -26   6 -20   38.44    3.56
 -20   6 -26   33.92    4.12
   6  20 -26   43.83    4.39
 -20  -6 -26   41.63    4.48
   8  26 -20    4.32    4.11
 -20   8 -26    9.55    3.81
   8  20 -26    4.79    3.71
 -26   8 -20   -0.78    2.83
  -8  26 -20    4.15    4.20
  -8  20 -26    3.17    4.21
 -26  10 -20   26.53    3.28
 -10  26 -20   28.78    4.57
 -10  20 -26   25.47    4.53
  26  10 -20   25.24    4.36
 -20  10 -26   29.06    4.04
  10  20 -26   24.75    3.96
 -26  12 -20   47.27    3.76
  26  20 -12   61.02    5.13
 -12  20 -26   49.62    5.08
 -20  26 -12   52.27    3.96
 -20  12 -26   52.90    4.63
  26  12 -20   47.43    4.95
  12  20 -26   49.08    4.37
 -12  26 -20   59.92    5.15
  12  26 -20   46.71    3.57
  14  26 -20   79.43    4.60
  26  14 -20   81.29    5.63
 -14  20 -26   93.60    5.70
  20  26 -14   86.24    5.56
 -20  14 -26   86.79    5.39
  14  20 -26   79.32    5.13
 -20  26 -14   81.41    4.87
 -26  14 -20   87.60    4.67
  26  20 -14   83.15    5.78
 -14  26 -20   81.67    5.76
 -20  26 -16   20.58    3.79
 -16  20 -26   16.03    4.36
  26  16 -20   20.10    4.43
  20  26 -16   12.29    4.04
  16  26 -20   20.50    3.47
  26  20 -16   21.05    4.54
 -26  16 -20   15.54    3.12
 -20  16 -26   14.54    4.16
 -16  26 -20   15.43    4.02
 -20  18 -26   69.84    5.26
  26  20 -18   60.65    5.54
  26  18 -20   79.88    5.60
  18  26 -20   64.91    4.81
 -18  26 -20   69.06    5.31
 -20  26 -18   71.37    4.89
  20  26 -18   71.64    5.13
 -26  18 -20   62.95    4.30
 -18  20 -26   66.22    5.15
 -26  20 -18   68.01    4.17
 -20  20 -26  122.65    6.55
  26  20 -20  105.72    6.66
 -26  20 -20  118.42    5.53
 -20  26 -20  116.79    6.27
  20  26 -20  123.36    6.13
 -22   0 -26    0.14    3.61
   0  22 -26    7.75    4.45
   0  26 -22   -0.32    4.54
 -26   0 -22   -0.87    3.15
   2  22 -26   38.10    4.79
 -26  -2 -22   37.50    3.88
 -22   2 -26   31.04    4.24
 -26   2 -22   32.63    3.61
 -22  -2 -26   29.92    4.21
   2  26 -22   33.43    4.87
  -2  22 -26   34.46    4.84
   4  26 -22   62.43    5.42
 -26  -4 -22   62.98    4.44
 -22   4 -26   68.04    4.81
 -22  -4 -26   64.30    4.89
   4  22 -26   59.00    5.05
 -26   4 -22   63.43    4.32
 -22  -6 -26   11.78    4.22
 -26  -6 -22   12.10    3.55
 -26   6 -22   11.74    3.29
 -22   6 -26   12.33    3.81
   6  26 -22   13.88    4.44
   6  22 -26    3.78    4.10
  -6  26 -22    8.82    4.37
 -26   8 -22    9.77    3.20
 -22   8 -26   11.84    3.95
  -8  26 -22   11.55    4.45
   8  22 -26    8.22    4.13
  -8  22 -26   13.19    4.66
   8  26 -22   16.08    4.44
 -10  26 -22    1.44    4.34
 -26  10 -22    5.21    2.96
  10  22 -26   -1.92    3.95
 -22  10 -26    8.13    3.57
 -10  22 -26    3.35    4.39
 -22  12 -26    4.11    3.79
  12  26 -22    0.20    2.56
 -12  26 -22    3.03    4.19
  12  22 -26    9.60    3.88
  26  22 -12    2.02    4.68
 -12  22 -26    3.52    4.37
 -26  12 -22    2.69    3.17
  14  26 -22    0.88    2.93
  22  26 -14   -2.38    4.09
 -14  22 -26    3.20    4.55
 -22  26 -14    0.61    2.85
 -26  14 -22    2.82    3.11
 -22  14 -26   -0.14    3.94
  26  22 -14   -2.49    4.44
 -14  26 -22    3.65    4.29
  26  14 -22   -4.17    4.56
 -16  22 -26   14.12    4.58
  26  16 -22   14.37    4.68
 -26  16 -22   11.05    3.26
  16  26 -22   12.15    3.40
 -22  26 -16   11.02    3.45
  26  22 -16    8.08    4.60
 -16  26 -22   12.84    4.48
  22  26 -16   12.94    4.41
 -22  16 -26    5.49    3.79
 -22  18 -26   17.40    3.96
 -18  26 -22   14.23    4.34
 -22  26 -18   10.79    3.56
  26  18 -22   20.80    4.49
  18  26 -22   14.35    3.55
  22  26 -18   17.50    4.30
 -18  22 -26   18.45    4.56
  26  22 -18   20.62    4.51
 -26  18 -22   17.35    3.50
 -26  22 -20    4.15    2.96
  26  22 -20   10.22    4.17
  26  20 -22    7.13    4.52
  20  26 -22    4.42    3.67
 -22  26 -20    4.39    3.67
  22  26 -20    5.46    3.91
 -20  26 -22    4.58    3.98
 -22  20 -26    7.17    4.05
 -20  22 -26    5.65    4.07
 -26  20 -22    8.43    3.23
 -22  26 -22    2.94    3.77
  26  22 -22   -1.17    4.24
  22  26 -22   -0.54    3.66
 -26  22 -22    0.37    3.22
 -22  22 -26    4.84    4.15
 -24   0 -26   13.67    3.76
   0  26 -24   11.08    4.90
 -26   0 -24   10.35    3.58
   0  24 -26    8.29    4.64
 -26   2 -24   45.03    4.23
   2  26 -24   45.30    5.22
 -24  -2 -26   41.10    4.47
 -24   2 -26   44.14    4.42
 -26  -2 -24   46.14    4.25
  -2  24 -26   41.90    5.38
   2  24 -26   57.42    5.26
   4  24 -26   51.11    5.17
 -26   4 -24   49.69    4.28
 -24   4 -26   49.40    4.44
   4  26 -24   55.54    5.40
 -24  -4 -26   53.39    4.63
 -26  -4 -24   48.86    4.38
   6  26 -24    2.79    4.26
 -26   6 -24    6.35    3.30
 -24   6 -26    3.61    3.70
 -24  -6 -26    2.38    3.65
   6  24 -26    7.97    4.35
  -6  26 -24    0.83    4.64
 -26  -6 -24    3.38    3.93
 -26  -8 -24   -0.43    4.00
 -24  -8 -26    8.93    3.93
  -8  24 -26    5.32    4.70
  -8  26 -24    3.16    4.72
 -26   8 -24    2.96    3.24
 -24   8 -26    5.13    3.77
   8  26 -24   -0.33    4.59
   8  24 -26    3.16    4.12
  10  24 -26    8.43    4.29
 -26  10 -24    1.68    3.29
 -24  10 -26    6.80    3.64
  10  26 -24   10.42    4.22
 -10  26 -24    9.78    4.62
 -10  24 -26    5.49    4.59
 -12  26 -24   14.01    4.62
 -26  12 -24   13.85    3.44
  24  26 -12   14.13    4.53
  26  24 -12    5.39    4.78
  12  24 -26   11.86    4.21
 -24  12 -26   11.88    3.92
 -12  24 -26    7.30    4.77
  24  26 -14   43.45    5.11
 -14  26 -24   46.97    5.13
 -24  14 -26   43.60    4.50
 -26  14 -24   45.53    4.07
 -14  24 -26   42.10    5.15
  26  24 -14   47.83    5.11
 -24  26 -16   40.30    3.66
  16  26 -24   39.64    3.74
 -16  26 -24   50.58    5.12
  26  24 -16   47.67    5.29
 -24  16 -26   40.52    4.36
 -16  24 -26   41.33    5.15
 -26  16 -24   45.23    3.94
  24  26 -16   42.17    5.05
 -24  18 -26   10.63    3.80
  26  24 -18    8.24    4.25
 -24  26 -18   10.29    3.20
 -18  26 -24    8.44    4.49
 -18  24 -26   10.43    4.43
 -26  18 -24    8.50    3.53
  24  26 -18    4.90    4.41
  18  26 -24   11.02    3.50
 -20  26 -24    5.40    4.26
 -26  20 -24    6.52    3.52
 -26  24 -20    3.28    3.05
 -24  26 -20    4.46    3.32
  26  24 -20   -1.33    4.32
  24  26 -20    9.68    4.30
 -20  24 -26    9.27    4.03
 -24  20 -26    8.09    3.70
  20  26 -24    7.73    3.57
 -22  24 -26   22.05    4.44
 -24  26 -22   20.86    3.75
 -22  26 -24   22.89    4.24
 -26  24 -22   22.16    3.44
 -26  22 -24   26.95    3.71
  26  24 -22   21.12    4.54
  24  26 -22   20.36    4.03
 -24  22 -26   25.79    3.96
 -24  26 -24   19.22    3.79
 -24  24 -26   17.77    3.93
 -26  24 -24   17.60    3.44
   0  26 -26   31.37    5.06
 -26   0 -26   26.15    4.09
 -26  -2 -26   44.53    4.36
   2  26 -26   51.51    5.60
  -2  26 -26   36.44    5.52
 -26   2 -26   37.02    4.40
 -26   4 -26   46.73    4.39
 -26  -4 -26   40.97    4.36
   4  26 -26   46.52    5.41
 -26   6 -26   43.08    4.28
 -26  -6 -26   54.56    4.60
  -6  26 -26   42.63    5.58
   6  26 -26   38.49    5.19
 -26   8 -26   24.31    4.02
  -8  26 -26   15.39    5.27
 -26  -8 -26   16.07    4.43
   8  26 -26   27.47    4.54
 -10  26 -26    3.24    4.95
 -26 -10 -26   -3.06    4.12
 -26  10 -26    6.65    3.47
  10  26 -26   -1.13    4.51
  26  26 -12   55.23    5.45
 -12  26 -26   52.66    5.66
 -26  12 -26   53.83    4.52
 -14  26 -26   20.47    4.98
 -26  14 -26   12.09    3.78
  26  26 -14   16.18    4.82
 -26  16 -26    5.71    3.58
 -16  26 -26    2.77    4.38
  26  26 -16    2.62    4.16
  26  26 -18   73.70    5.25
 -26  18 -26   62.56    4.74
 -18  26 -26   65.22    5.28
 -20  26 -26    7.36    4.17
 -26  26 -20   11.69    3.05
  26  26 -20   11.56    4.25
 -26  20 -26    4.01    3.64
 -26  22 -26    2.75    3.51
  26  26 -22    0.81    4.09
 -26  26 -22    0.46    3.07
 -22  26 -26    2.11    3.97
 -26  24 -26    3.58    3.31
 -26  26 -24   -4.93    3.22
 -24  26 -26   -0.77    3.62
 -26  26 -26    4.47    3.13
 -27   1   1   12.03    2.69
   1   1 -27    9.57    2.96
 -27  -1   1    6.28    2.63
   1  27   1    9.46    2.90
   1  -1 -27   15.78    2.89
 -27  -1  -1    9.05    2.56
 -27   1  -1   12.78    2.61
  -1   1 -27   18.71    3.20
  -1  -1 -27   11.87    3.06
  -1  27   1    9.10    2.84
 -27   3  -1   57.61    3.66
   3   1 -27   54.47    3.65
 -27  -1   3   61.35    4.27
 -27   1   3   54.04    4.06
 -27  -3   1   52.89    4.02
  -3  -1 -27   62.10    4.10
   1  -3 -27   55.35    3.72
  -1  -3 -27   57.01    3.84
  -3  27   1   43.90    3.72
 -27  -3  -1   56.90    4.01
  -1   3 -27   51.85    3.91
   3  -1 -27   57.33    3.67
 -27   3   1   59.60    3.75
 -27   1  -3   56.14    3.54
 -27  -1  -3   56.05    3.76
   1   3 -27   53.43    3.75
  -3   1 -27   53.72    4.05
  27   3  -3    1.82    2.58
  -3   3 -27    7.05    3.04
 -27  -3  -3    6.71    2.46
 -27   3  -3    2.69    2.01
   3   3 -27    6.80    2.67
 -27   3   3    6.00    2.54
  -3  -3 -27    3.74    3.18
   3  -3 -27    4.59    2.67
  -3  27   3    1.88    2.58
   1  -5 -27   -0.21    2.64
  -5   1 -27    1.69    3.14
  -1  -5 -27   -1.50    2.98
 -27   5   1   -0.14    2.08
 -27   1  -5   -0.52    1.89
 -27   5  -1    2.35    2.00
 -27  -1  -5   -0.98    2.07
  -1   5 -27   -2.82    2.86
  27  -1  -5   -0.27    2.44
   1   5 -27   -1.37    2.67
  27   1  -5    0.29    2.57
  -5  27   1    0.83    2.34
  -5  -1 -27   -1.58    3.20
   5   3 -27  127.07    5.34
  27   5  -3  125.26    5.54
 -27  -3  -5  118.65    5.61
   3  -5 -27  125.94    5.44
  -5  -3 -27  121.20    5.75
  -3   5 -27  122.46    5.69
  -5   3 -27  117.27    5.72
  27   3  -5  123.56    5.50
  -5  27   3  104.40    5.55
   3   5 -27  118.15    5.43
  27   5  -5   -1.67    2.95
 -27  -5  -5   -0.66    2.49
  -5   5 -27   -1.50    3.31
   5   5 -27    0.40    2.62
  27   1  -7   48.66    3.53
  27  -1  -7   44.36    3.36
   1   7 -27   38.05    3.63
  -1   7 -27   45.93    3.75
 -27   7   1   45.73    3.17
  -7  -1 -27   43.02    3.88
  -7   1 -27   43.03    3.91
  -7   3 -27   11.59    3.45
   3  -7 -27   12.57    2.71
  27  -3  -7   14.31    2.70
  27   3  -7   14.76    3.02
  -3   7 -27   19.42    3.51
  -7  27   3   16.93    2.68
   3   7 -27   12.63    2.97
  -7  -3 -27   12.89    3.39
   5   7 -27   98.99    4.76
  -5   7 -27   95.80    5.18
  27   5  -7   90.61    4.97
  -7   5 -27   92.12    5.11
  27   7  -5   99.43    5.08
   7   5 -27   99.93    4.65
   5  -7 -27   97.32    4.60
  27   7  -7    1.25    3.22
   7   7 -27   -0.81    2.51
  -7   7 -27   -0.61    3.33
   1   9 -27  117.66    5.66
  -9  -1 -27  112.20    5.64
  27   1  -9  114.34    5.40
  -1   9 -27  111.15    5.66
  27  -1  -9  118.25    5.32
  27   3  -9   55.14    3.86
   3   9 -27   49.14    3.82
  -9  -3 -27   50.92    4.25
  -3   9 -27   56.78    4.19
  -5   9 -27  444.33   16.12
  27   5  -9  490.84   16.12
   5   9 -27  474.86   15.95
  -5  27  -9  473.72   16.27
   9   5 -27  441.87   15.67
   7  -9 -27   42.09    3.09
  27   7  -9   43.01    3.87
   7   9 -27   47.77    3.58
   9   7 -27   43.20    3.27
  27   9  -7   42.13    4.13
  -7  27  -9   48.68    4.28
   9   9 -27    0.82    2.59
  27   9  -9   -2.68    3.36
  -9  27  -9   -1.78    3.36
  27   1 -11  144.10    6.47
  -1  27 -11  155.14    6.93
  -1  11 -27  142.03    6.53
  27  -1 -11  153.61    6.43
   1  11 -27  152.71    6.63
  -3  27 -11   52.87    4.50
   3  11 -27   58.31    4.19
  -3  11 -27   57.48    4.27
  27   3 -11   56.70    4.08
 -11   5 -27  224.34    8.95
  -5  11 -27  225.38    8.98
  -5  27 -11  226.52    9.09
   5  11 -27  213.96    8.66
  27   5 -11  235.99    8.92
  -7  27 -11   10.21    3.59
  27  11  -7    4.83    3.43
  27   7 -11    5.35    3.26
 -11   7 -27    7.57    3.61
   7  11 -27   -2.22    2.96
  11   7 -27   -0.19    2.23
  27   9 -11   74.00    4.78
  27  11  -9   60.87    4.57
  11   9 -27   55.98    3.66
 -11  27  -9   67.02    4.46
 -11   9 -27   66.06    4.61
  -9  27 -11   62.22    4.61
   9  11 -27   56.49    3.92
  11  11 -27    0.11    2.59
 -11  11 -27   -3.91    3.63
 -11  27 -11   -3.42    3.47
  27  11 -11    1.44    3.60
 -13   1 -27   72.15    4.78
  27   1 -13   76.72    4.63
  -1  27 -13   71.24    4.94
   1  13 -27   71.48    4.74
  -1  13 -27   72.74    4.72
 -13  -1 -27   64.69    4.65
  -3  27 -13   29.91    4.00
 -13  -3 -27   37.92    4.08
  -3  13 -27   32.41    3.95
   3  27 -13   30.09    4.31
 -13   3 -27   32.90    3.96
  27   3 -13   34.45    3.76
   3  13 -27   26.67    3.71
 -13   5 -27  107.89    5.81
  27   5 -13  120.85    5.82
   5  13 -27  105.91    5.52
  -5  27 -13  115.78    6.04
  -5  13 -27  106.81    5.88
  27   7 -13    1.26    3.45
   7  13 -27    8.53    3.08
 -13   7 -27   10.94    3.51
  -7  27 -13    2.61    3.63
  -9  13 -27    5.59    3.66
  27  13  -9    1.20    3.72
 -13   9 -27    7.42    3.54
  27   9 -13    8.48    3.75
 -13  27  -9    1.25    3.22
  -9  27 -13    3.70    3.70
   9  13 -27    3.34    3.03
  11  13 -27    3.62    2.87
  27  13 -11    4.50    3.73
 -13  27 -11    4.06    3.41
 -13  11 -27    9.79    3.72
 -11  13 -27    5.57    3.72
  27  11 -13    2.84    3.71
  13  11 -27    5.54    2.43
 -11  27 -13    6.02    3.52
 -13  27 -13    4.36    3.64
 -13  13 -27    1.13    3.87
  13  13 -27    2.30    2.77
  -1  15 -27    3.71    3.45
 -15  -1 -27   -1.21    3.41
   1  15 -27   -1.57    3.33
 -15   1 -27   -1.33    3.67
   3  15 -27  148.46    6.77
  27   3 -15  152.85    6.88
 -15  -3 -27  159.41    7.07
  -3  15 -27  154.03    6.98
 -15   3 -27  159.01    6.99
   3  27 -15  146.69    7.23
 -27  -3 -15  143.60    6.15
  -3  27 -15  160.53    7.26
  -5  15 -27   53.64    4.57
   5  27 -15   51.71    4.62
  -5  27 -15   52.38    4.73
  27   5 -15   47.43    4.41
   5  15 -27   46.56    4.17
 -15   5 -27   61.13    4.65
  -7  27 -15    0.14    3.73
  27   7 -15    3.63    3.60
 -15   7 -27    3.79    3.41
   7  15 -27    7.48    3.23
  -9  15 -27   33.37    4.35
  -9  27 -15   32.82    4.15
  27   9 -15   32.54    4.29
 -15   9 -27   31.37    4.10
   9  15 -27   30.09    3.64
 -11  15 -27   18.92    4.09
 -15  27 -11   14.53    3.35
 -11  27 -15   17.95    3.84
 -15  11 -27   17.16    3.92
  11  15 -27   20.11    3.32
 -13  27 -15  129.09    6.49
  13  15 -27  116.93    5.72
 -15  27 -13  123.25    6.18
 -15  13 -27  126.48    6.43
 -13  15 -27  135.34    6.80
 -15  15 -27   -1.93    4.03
 -15  27 -15    0.42    3.53
  15  27 -15   -0.87    3.26
  15  15 -27    0.23    2.82
  27  15 -15   -1.47    4.13
   1  17 -27   25.99    3.96
   1  27 -17   24.09    4.40
 -27   1 -17   35.62    2.95
 -17  -1 -27   31.55    3.96
 -17   1 -27   34.91    4.23
 -27  -1 -17   32.10    2.99
  -1  17 -27   32.77    4.29
 -17  -3 -27   14.17    3.80
  -3  17 -27   15.39    4.04
 -17   3 -27   15.61    3.79
   3  27 -17   12.56    4.34
   3  17 -27   16.66    3.57
 -27  -3 -17    9.29    2.65
 -27   3 -17   17.22    2.66
  -3  27 -17   23.71    4.22
 -17   5 -27  198.74    8.16
  -5  17 -27  177.03    8.17
 -27  -5 -17  193.24    7.52
 -17  -5 -27  177.64    8.20
  -5  27 -17  188.46    8.41
   5  17 -27  181.77    8.07
  27   5 -17  199.87    8.21
   5  27 -17  197.15    8.48
  27   7 -17   47.74    4.52
  -7  27 -17   46.28    4.77
 -17   7 -27   62.20    4.59
   7  17 -27   50.32    4.38
  -9  17 -27   42.98    4.62
  -9  27 -17   47.78    4.75
 -17   9 -27   44.37    4.42
   9  17 -27   43.28    4.13
 -17  27 -11   23.41    3.53
  11  27 -17   12.41    2.83
 -11  17 -27   15.55    4.28
 -17  11 -27   15.15    4.10
 -11  27 -17   18.72    4.23
  11  17 -27   18.85    3.49
  27  17 -13    4.77    4.12
  13  27 -17    4.45    2.83
 -17  13 -27    1.90    3.87
 -17  27 -13    6.41    3.41
  13  17 -27    0.87    3.17
 -13  27 -17    2.52    3.86
  27  13 -17    2.18    4.12
 -13  17 -27    4.69    4.25
  15  17 -27    7.87    3.08
 -15  27 -17    6.02    4.00
 -17  15 -27    5.25    4.01
  27  15 -17    9.86    4.27
  17  27 -15    5.95    3.63
  27  17 -15    9.69    4.39
 -17  27 -15    3.20    3.75
  15  27 -17   11.76    3.44
 -15  17 -27    7.77    4.21
  17  27 -17   -0.91    3.45
 -17  27 -17   -1.45    3.85
 -17  17 -27   -2.29    4.34
  27  17 -17    1.83    4.22
   1  19 -27   73.65    5.23
 -27   1 -19   74.49    4.35
  -1  19 -27   74.78    5.29
 -27  -1 -19   80.49    4.40
 -19  -1 -27   81.27    5.18
 -19   1 -27   77.52    5.20
   1  27 -19   72.39    5.53
 -27  -3 -19   18.47    3.21
  -3  19 -27   20.25    4.46
  -3  27 -19   19.42    4.49
 -27   3 -19   18.82    2.86
 -19  -3 -27   23.16    4.20
 -19   3 -27   19.94    4.11
   3  27 -19   21.64    4.51
   3  19 -27   17.53    4.17
 -27   5 -19  103.84    5.29
 -19   5 -27  120.94    6.27
   5  27 -19  121.50    6.66
  -5  27 -19  126.64    6.63
   5  19 -27  115.31    6.26
 -27  -5 -19  126.47    5.79
 -19  -5 -27  121.44    6.34
  -7  27 -19  137.90    7.23
 -27   7 -19  133.58    5.95
   7  19 -27  143.42    6.85
 -19   7 -27  145.89    6.85
   7  27 -19  146.87    7.28
  -9  19 -27   67.86    5.53
  -9  27 -19   72.48    5.46
   9  19 -27   69.68    4.92
 -19   9 -27   69.66    5.14
 -27   9 -19   69.02    3.94
  27  19 -11   17.65    4.46
  11  19 -27   13.63    3.64
 -27  11 -19   13.49    2.80
 -11  27 -19   15.18    4.34
  11  27 -19   14.47    2.76
  27  11 -19   10.55    4.04
 -11  19 -27   15.43    4.34
 -19  11 -27   12.43    3.92
  27  19 -13   81.87    5.88
 -13  19 -27   89.29    5.83
  13  27 -19   82.25    4.65
 -19  13 -27   87.69    5.56
  13  19 -27   79.92    5.02
 -13  27 -19   81.18    5.72
 -19  27 -13   76.70    4.93
 -27  13 -19   81.84    4.43
  27  13 -19   91.01    5.74
 -27  15 -19   -4.23    2.77
 -15  19 -27   -4.20    4.43
  19  27 -15   -0.70    3.89
  15  27 -19    1.80    3.11
  27  19 -15    4.64    4.62
  27  15 -19    1.65    4.52
 -15  27 -19   -5.94    4.08
 -19  15 -27   -2.54    3.92
  15  19 -27    1.80    3.27
 -19  27 -15    4.62    3.62
 -17  19 -27   47.59    4.99
  27  19 -17   57.87    5.35
 -19  27 -17   52.51    4.62
 -17  27 -19   55.13    4.87
  27  17 -19   61.22    5.31
 -19  17 -27   59.98    5.16
  19  27 -17   56.68    4.72
  17  27 -19   52.53    4.25
 -27  17 -19   50.46    3.65
  27  19 -19    2.30    4.54
 -19  27 -19    4.23    3.88
  19  27 -19   -6.04    3.64
 -19  19 -27    1.53    3.94
   1  27 -21   32.16    4.95
 -21   1 -27   29.00    4.25
   1  21 -27   31.54    4.61
  -1  21 -27   34.37    4.74
 -27  -1 -21   27.06    3.45
 -27   1 -21   21.35    3.38
 -21  -1 -27   30.26    4.29
 -21  -3 -27    1.47    3.87
   3  27 -21    1.62    4.52
   3  21 -27    2.74    4.14
 -27   3 -21   -3.27    2.95
 -27  -3 -21    3.58    3.06
 -21   3 -27   -5.71    3.74
  -3  21 -27    1.72    4.34
 -21   5 -27   82.90    5.53
  -5  27 -21   82.42    5.94
   5  27 -21   90.14    6.16
 -27   5 -21   91.25    4.81
   5  21 -27   93.66    5.60
 -27  -5 -21   84.68    5.05
 -21  -5 -27   90.96    5.69
 -27   7 -21   45.73    3.62
 -21  -7 -27   46.64    4.85
   7  27 -21   47.12    5.13
  -7  27 -21   50.11    5.30
 -27  -7 -21   52.24    4.25
 -21   7 -27   53.80    4.74
   7  21 -27   43.95    4.74
   9  21 -27    2.06    3.77
 -21   9 -27    1.29    3.66
  -9  27 -21   -2.74    4.44
 -27   9 -21   -0.69    2.93
  -9  21 -27    7.49    4.55
 -27  11 -21   36.35    3.46
  27  11 -21   35.90    4.67
  27  21 -11   26.44    4.92
 -11  27 -21   43.58    4.92
  11  21 -27   35.78    4.24
 -21  11 -27   32.88    4.47
 -11  21 -27   34.44    4.96
 -27  13 -21   35.75    3.37
 -13  21 -27   44.92    5.01
 -21  13 -27   35.66    4.40
  27  13 -21   31.76    4.73
 -13  27 -21   39.15    4.91
  13  27 -21   33.36    3.25
  13  21 -27   38.95    4.37
  27  21 -13   39.69    5.00
 -15  27 -21    1.73    4.29
 -21  15 -27    8.60    4.15
  21  27 -15    7.58    4.13
 -21  27 -15    5.60    3.44
 -27  15 -21    8.34    2.99
 -15  21 -27    6.73    4.35
  27  15 -21    9.51    4.36
  15  27 -21    7.99    3.08
  27  21 -15    9.12    4.80
  27  17 -21   54.79    5.38
  21  27 -17   51.84    4.69
 -21  17 -27   60.69    4.89
  17  27 -21   50.07    4.10
  27  21 -17   55.28    5.34
 -21  27 -17   36.87    4.22
 -27  17 -21   49.76    3.87
 -17  21 -27   54.42    5.25
  27  19 -21    0.30    4.16
 -19  27 -21    8.38    4.11
 -19  21 -27    9.33    4.34
 -27  19 -21    3.51    3.10
  19  27 -21    2.19    3.33
  27  21 -19    5.39    4.65
  21  27 -19   10.45    3.91
 -21  27 -19    8.53    3.77
 -21  19 -27    4.50    3.82
 -27  21 -21   -3.81    3.10
  27  21 -21    0.15    4.61
  21  27 -21    2.66    3.77
 -21  21 -27   -2.26    4.32
 -21  27 -21    0.29    3.63
 -27   1 -23   10.06    3.32
 -23  -1 -27   13.81    4.09
  -1  27 -23   13.87    4.87
  -1  23 -27   11.23    4.68
 -27  -1 -23    9.40    3.34
 -23   1 -27    6.65    3.95
   1  23 -27   10.16    4.40
   1  27 -23    8.68    4.82
 -23   3 -27    7.61    3.95
  -3  23 -27   13.29    4.86
 -23  -3 -27    5.76    4.07
   3  23 -27   -0.16    4.34
 -27  -3 -23    5.26    3.53
   3  27 -23    3.34    4.71
  -5  27 -23   23.63    5.04
   5  27 -23   26.00    4.77
 -27   5 -23   18.19    3.44
 -23   5 -27   21.99    4.17
 -23  -5 -27   14.60    4.12
 -27  -5 -23   18.75    3.79
   5  23 -27   16.34    4.52
   7  27 -23   -4.98    4.65
 -27  -7 -23   -0.55    3.49
 -23  -7 -27   -1.23    4.18
 -23   7 -27    1.43    3.81
  -7  27 -23   -0.50    4.59
 -27   7 -23    0.25    3.17
  -7  23 -27   -1.32    4.71
   7  23 -27    6.27    4.21
 -27  -9 -23    9.63    3.74
  -9  27 -23    5.18    4.74
 -23  -9 -27    6.71    4.15
 -27   9 -23    0.49    3.22
 -23   9 -27   -0.14    3.80
   9  23 -27    6.81    3.96
  -9  23 -27    4.98    4.75
 -23  11 -27    9.64    3.66
 -27  11 -23   14.33    3.21
  27  23 -11   12.30    4.74
  11  23 -27   21.15    4.43
 -11  27 -23   15.95    4.97
 -11  23 -27   18.72    4.86
  27  23 -13    3.18    4.55
  13  23 -27    1.76    3.79
 -23  13 -27   -1.60    3.96
 -13  27 -23   -2.30    4.48
  13  27 -23   -1.02    2.52
  23  27 -13    0.31    4.44
 -13  23 -27    1.32    4.76
 -27  13 -23    4.69    3.13
  15  27 -23   -0.55    2.90
  27  23 -15    4.43    4.71
 -23  15 -27    8.86    3.92
  23  27 -15    1.96    4.42
 -27  15 -23    4.16    3.24
 -15  27 -23   -6.80    4.44
 -15  23 -27    6.72    4.78
 -23  27 -17    9.51    3.41
 -23  17 -27    1.73    3.81
  17  27 -23    4.21    3.15
 -17  27 -23   14.37    4.32
  23  27 -17    0.15    4.39
  27  23 -17    3.91    4.61
 -17  23 -27    8.53    4.36
 -27  17 -23    8.93    3.30
  19  27 -23   14.18    3.32
  27  19 -23   19.91    4.44
 -19  23 -27   23.98    4.69
 -23  27 -19   11.65    3.56
 -19  27 -23   17.65    4.25
  27  23 -19   10.81    4.72
 -27  19 -23   12.65    3.41
  23  27 -19   15.67    4.30
 -23  19 -27   13.03    4.13
 -23  27 -21    4.67    3.70
 -21  27 -23    4.77    4.03
  27  21 -23    5.13    4.48
 -21  23 -27    5.09    4.12
  23  27 -21    8.12    3.97
 -27  23 -21    5.53    2.96
 -27  21 -23    4.28    3.16
  27  23 -21    3.67    4.52
 -23  21 -27    8.93    4.06
  21  27 -23    5.04    3.34
  23  27 -23   -1.92    3.72
 -27  23 -23   -1.61    3.02
 -23  23 -27   -3.09    3.98
  27  23 -23   -7.08    4.38
 -23  27 -23    2.55    3.57
 -25   1 -27   38.20    4.33
  -1  27 -25   42.61    5.38
   1  25 -27   41.48    5.31
  -1  25 -27   36.07    5.25
 -27   1 -25   41.82    4.33
   1  27 -25   39.44    5.32
 -25  -1 -27   44.61    4.60
 -27  -1 -25   34.45    4.22
 -25   3 -27  132.36    6.61
   3  27 -25  113.30    7.12
 -27   3 -25  128.01    6.28
 -25  -3 -27  133.40    6.55
 -27  -3 -25  133.09    6.47
   3  25 -27  128.00    7.36
  -3  25 -27  125.67    7.38
 -27  -5 -25   13.58    4.02
   5  27 -25   19.26    4.96
 -25  -5 -27   15.58    4.14
   5  25 -27   19.40    4.67
 -27   5 -25   16.66    3.78
 -25   5 -27   18.60    3.95
 -27   7 -25   73.56    4.67
 -25   7 -27   82.23    5.09
   7  27 -25   66.69    5.86
   7  25 -27   71.30    5.81
 -25  -7 -27   78.13    5.27
  -7  27 -25   76.48    6.26
  -7  25 -27   83.66    6.31
 -27  -7 -25   72.73    5.29
 -25   9 -27  189.63    8.27
 -27  -9 -25  198.77    8.46
 -25  -9 -27  198.08    8.75
  -9  25 -27  191.24    9.18
   9  25 -27  193.56    8.80
 -27   9 -25  185.05    8.08
  -9  27 -25  210.30    9.28
 -25 -11 -27  161.86    7.62
 -11  25 -27  157.82    8.06
  27  25 -11  165.88    8.01
 -11  27 -25  175.19    8.17
 -27  11 -25  148.45    7.01
 -25  11 -27  157.61    7.35
  11  25 -27  142.20    7.64
 -27 -11 -25  153.06    7.37
 -27  13 -25   56.00    4.33
 -25  13 -27   62.20    4.64
 -13  25 -27   55.19    5.59
 -13  27 -25   55.80    5.64
  27  25 -13   50.98    5.52
  25  27 -13   54.11    5.41
 -25  15 -27   11.68    3.90
 -15  25 -27   20.99    4.73
 -27  15 -25   18.44    3.63
 -15  27 -25   31.29    5.09
  27  25 -15   15.77    4.65
  25  27 -15   16.13    4.49
 -17  27 -25  115.46    6.59
  27  25 -17  103.36    6.55
  25  27 -17   94.67    6.26
 -27  17 -25  105.58    5.60
 -25  17 -27  114.16    5.98
 -17  25 -27  104.22    6.55
  25  27 -19   14.08    4.14
 -25  27 -19   13.61    3.23
  27  25 -19   19.17    4.55
 -19  27 -25   16.07    4.19
 -25  19 -27   17.60    3.91
 -19  25 -27   15.32    4.44
 -27  19 -25   12.44    3.37
 -25  21 -27   94.24    5.49
  27  25 -21   94.86    5.90
  25  27 -21   92.53    5.77
 -21  25 -27   97.50    5.89
 -21  27 -25   97.17    5.85
 -27  21 -25   83.66    4.99
 -25  27 -21   92.94    5.12
 -27  25 -21   82.36    4.74
 -25  27 -23   12.36    3.37
  25  27 -23   20.76    4.10
 -23  25 -27   15.52    4.00
 -23  27 -25   14.76    3.86
 -27  23 -25   11.85    3.20
 -27  25 -23   12.05    3.15
 -25  23 -27    8.24    3.68
 -27  25 -25   -1.52    2.96
 -25  25 -27    3.42    3.41
 -25  27 -25    4.13    3.31
  -1  27 -27    0.53    5.00
 -27   1 -27    2.96    3.62
   1  27 -27   -0.70    5.05
 -27  -1 -27   -3.00    3.73
   3  27 -27    4.16    4.85
 -27   3 -27    5.58    3.88
 -27  -3 -27   10.39    4.05
 -27   5 -27   -1.79    3.60
 -27  -5 -27    2.64    3.81
   5  27 -27    2.24    4.66
 -27  -7 -27   -3.13    4.10
   7  27 -27    0.85    4.73
 -27   7 -27   -0.68    3.52
  -7  27 -27   -1.40    5.45
 -27   9 -27    4.61    3.64
   9  27 -27    1.33    4.37
  -9  27 -27    1.57    4.99
 -27  -9 -27   -0.15    3.93
 -27 -11 -27   -2.30    4.31
 -27  11 -27   -0.40    3.67
  27  27 -11    8.07    4.91
 -11  27 -27   -3.97    5.02
 -27  13 -27   -3.85    3.73
  27  27 -13    0.63    4.71
 -27 -13 -27   -2.17    4.31
 -13  27 -27   -1.02    4.90
  27  27 -15    6.50    4.77
 -27  15 -27   -1.17    3.32
 -15  27 -27    4.80    4.88
  27  27 -17   -0.90    4.64
 -27  17 -27    0.77    3.37
 -17  27 -27    2.88    4.49
  27  27 -19   -5.97    4.42
 -19  27 -27    1.97    4.24
 -27  19 -27    2.37    3.28
 -27  21 -27   -1.55    3.27
 -21  27 -27   -0.14    4.09
  27  27 -21    0.54    4.05
 -23  27 -27    4.28    3.80
 -27  23 -27   -2.37    3.08
 -27  25 -27    0.63    3.00
 -25  27 -27    2.05    3.27
 -28   0   0  523.69   18.69
   0   0 -28  548.66   18.28
  28   0  -2  131.01    5.31
   0   2 -28  122.01    5.56
   2   0 -28  118.86    5.43
  28   2   0  128.75    5.27
   0  -2 -28  119.12    5.53
  -2  28   0  105.59    5.59
 -28   0  -2  116.65    5.55
  -2   0 -28  120.73    5.74
 -28   2   0  111.19    5.56
 -28  -2  -2   -0.66    2.40
 -28   2  -2    1.88    2.08
  -2  -2 -28    3.71    3.17
   2   2 -28   -0.42    2.68
   2  -2 -28   -0.31    2.63
 -28   2   2    0.33    2.27
  -2   2 -28    3.50    3.15
  28   2  -2    2.86    2.47
  -4   0 -28    2.78    3.09
 -28   0  -4    2.33    2.06
   0  -4 -28   -0.11    2.82
  28   4   0    4.58    2.63
   0   4 -28    1.56    3.05
   4   0 -28    1.82    2.59
 -28   4   0    1.32    2.03
  28   0  -4    0.38    2.54
   4   2 -28  157.31    6.46
  28  -2  -4  152.25    6.19
  28   2  -4  157.63    6.41
  -2   4 -28  158.01    6.69
 -28  -2  -4  157.59    6.74
  -4   2 -28  158.81    6.74
   4  -2 -28  158.21    6.41
  28   4  -2  159.00    6.46
   2  -4 -28  158.52    6.51
  -4  -2 -28  160.81    6.81
  -2  -4 -28  153.84    6.66
 -28   4   2  158.78    6.75
   2   4 -28  154.58    6.55
  -4  28   2  133.55    6.63
  28  -4  -4  132.05    5.38
   4   4 -28  122.07    5.65
  28   4  -4  134.26    5.77
   4  -4 -28  125.44    5.58
  -4  -4 -28  125.01    5.97
  -4   4 -28  130.84    6.08
  28   0  -6   98.51    4.77
  -6   0 -28   90.04    5.19
   0   6 -28   99.45    5.02
   6   0 -28   95.15    4.62
   0  -6 -28   92.72    4.88
  28   2  -6  151.78    6.49
   6  -2 -28  158.38    6.29
  -6   2 -28  151.36    6.78
  -2   6 -28  160.22    6.80
  28   6  -2  157.93    6.58
  -6  -2 -28  160.94    6.88
   2  -6 -28  153.12    6.46
  28  -2  -6  154.64    6.27
   6   2 -28  152.36    6.31
   2   6 -28  147.13    6.53
   4   6 -28  123.82    5.59
  -4   6 -28  122.61    5.85
  28   4  -6  122.58    5.59
   6   4 -28  112.14    5.32
  -6   4 -28  121.13    6.04
  28   6  -4  112.28    5.54
   6  -4 -28  117.25    5.23
   4  -6 -28  127.24    5.43
  -6  -4 -28  131.99    6.05
   6   6 -28   40.28    3.45
  -6   6 -28   36.09    3.93
  28   6  -6   45.51    3.78
   6  -6 -28   38.33    3.09
  28   0  -8   74.46    4.24
   8   0 -28   70.26    3.81
  -8   0 -28   73.55    4.71
   0   8 -28   66.28    4.51
  -8  -2 -28   60.23    4.37
  28  -2  -8   59.32    3.80
  28   2  -8   62.21    4.06
   8  -2 -28   59.74    3.49
  -2   8 -28   55.89    4.08
   8   2 -28   54.91    3.50
   2   8 -28   56.63    4.19
  -8   2 -28   58.57    4.30
   4  -8 -28    9.23    2.70
  -8  -4 -28    7.98    3.34
   4   8 -28    9.60    2.99
   8   4 -28   13.90    2.52
  28   8  -4   11.49    3.31
  -4   8 -28   10.64    3.33
   8  -4 -28   11.44    2.42
  -8   4 -28   16.22    3.52
  28   4  -8    8.20    3.04
  28   6  -8   84.73    4.84
  -6   8 -28   76.40    4.84
   6  -8 -28   86.68    4.20
   6   8 -28   72.35    4.39
  28   8  -6   83.84    4.92
   8   6 -28   83.46    4.34
  28   8  -8   -2.44    3.55
   8   8 -28    2.12    2.64
   0  10 -28   33.43    3.67
  28   0 -10   37.36    3.55
   2  10 -28   35.64    3.74
  -2  10 -28   36.57    3.92
  28   2 -10   32.88    3.46
  28   4 -10   -2.21    3.25
 -10  -4 -28   -1.31    3.50
   4  10 -28   -0.23    3.04
  -4  10 -28    2.04    3.38
  10   4 -28    0.56    2.19
  -6  28 -10   17.53    3.83
   6  10 -28   12.88    3.13
  10   6 -28   15.11    2.58
  28   6 -10   19.53    3.61
  28  10  -6   14.13    3.61
  -6  10 -28   19.17    3.78
   6 -10 -28   14.77    2.69
  28  10  -8   13.63    3.68
  -8  28 -10    5.68    3.53
  28   8 -10   10.46    3.48
  10   8 -28   12.78    2.66
   8  10 -28   14.67    2.99
  28  10 -10   -3.14    3.81
  10  10 -28    2.36    2.73
 -10  28 -10    0.81    3.48
   0  12 -28   11.94    3.43
  28   0 -12   13.16    3.26
  28   2 -12    6.54    3.16
   2  12 -28    9.25    3.52
  -2  12 -28   10.89    3.40
 -12   2 -28    6.88    3.50
  -2  28 -12    7.40    3.97
  -4  12 -28  141.90    6.75
  28   4 -12  140.36    6.53
 -12   4 -28  134.06    6.61
  -4  28 -12  154.20    6.98
   4  12 -28  144.87    6.51
  28   6 -12    0.63    3.48
   6  12 -28    5.26    3.18
  -6  12 -28    3.10    3.66
  -6  28 -12    4.52    3.84
 -12   6 -28    6.06    3.61
   8  12 -28    3.73    3.04
 -12   8 -28    1.92    3.62
  12   8 -28    2.83    2.47
  -8  28 -12    1.27    3.81
  28  12  -8    2.26    3.67
  28   8 -12    3.51    3.66
  10  12 -28    3.54    2.78
 -10  12 -28    5.62    3.77
 -12  10 -28    3.22    3.82
 -10  28 -12    2.66    3.68
  28  12 -10    6.53    3.85
  12  10 -28    3.64    2.56
  28  10 -12    1.62    3.78
  28  12 -12   -1.54    3.71
  12  12 -28   -0.89    2.86
 -12  28 -12    4.46    3.70
 -12  12 -28    0.29    3.96
 -14   0 -28  124.00    6.30
   0  14 -28  120.25    6.17
   2  14 -28   11.37    3.54
  -2  14 -28   11.25    3.82
  28   2 -14   14.01    3.67
  -2  28 -14   14.19    4.14
 -14   2 -28   15.94    3.91
 -14  -2 -28    9.41    3.73
   4  14 -28    0.90    3.23
  -4  14 -28    0.69    3.62
 -14   4 -28    3.16    3.50
 -14  -4 -28   -4.63    3.74
  28   4 -14   -0.63    3.43
  -4  28 -14   -1.77    3.88
  28   6 -14  155.07    6.67
 -14   6 -28  142.60    6.71
   6  14 -28  128.91    6.31
  -6  14 -28  124.42    6.77
  -6  28 -14  140.57    6.91
 -14   8 -28  125.84    6.68
  28   8 -14  143.59    6.81
  -8  28 -14  142.96    6.89
  28  14  -8  147.02    6.91
   8  14 -28  131.58    6.30
  28  14 -10   38.67    4.38
 -10  14 -28   40.14    4.69
 -14  10 -28   38.86    4.49
 -10  28 -14   47.40    4.60
  10  14 -28   44.01    3.67
  28  10 -14   39.32    4.48
 -12  14 -28   89.30    5.74
  12  14 -28   93.14    5.00
 -14  28 -12   95.19    5.51
 -12  28 -14   96.74    5.76
 -14  12 -28   90.84    5.73
  14  14 -28   40.67    3.50
 -14  28 -14   42.78    4.47
 -14  14 -28   39.44    4.63
   0  16 -28   45.21    4.42
 -16   0 -28   42.63    4.49
   2  16 -28   26.22    3.93
  -2  16 -28   24.22    4.10
   2  28 -16   23.31    4.47
  -2  28 -16   20.80    4.48
 -16   2 -28   20.17    4.15
 -16  -2 -28   28.07    4.27
 -16  -4 -28   19.07    4.30
 -28  -4 -16   19.62    2.81
  -4  16 -28   21.87    4.03
  -4  28 -16   18.90    4.23
  28   4 -16   19.57    3.80
   4  16 -28   23.59    3.92
 -16   4 -28   20.58    4.07
   4  28 -16   22.10    4.44
  28   6 -16  172.18    7.42
 -16   6 -28  159.24    7.42
  -6  28 -16  164.82    7.59
   6  16 -28  150.31    7.12
 -16  -6 -28  154.73    7.52
  -8  28 -16   75.45    5.48
 -16   8 -28   79.06    5.35
   8  16 -28   74.41    4.86
  28   8 -16   80.13    5.35
 -10  16 -28    9.18    4.16
 -16  10 -28    3.63    3.79
 -10  28 -16    3.78    3.80
  10  28 -16    4.11    2.64
  10  16 -28    1.03    3.24
  12  28 -16  173.13    7.19
 -12  16 -28  176.01    8.11
 -16  12 -28  197.41    8.12
 -16  28 -12  177.29    7.63
 -12  28 -16  175.13    8.09
  12  16 -28  162.51    7.34
  14  16 -28   39.80    3.78
 -14  16 -28   52.01    4.88
 -16  28 -14   35.51    4.46
  14  28 -16   39.39    3.72
 -16  14 -28   41.04    4.66
 -14  28 -16   54.37    4.74
  16  28 -16    0.26    3.35
 -16  28 -16    8.81    4.05
  28  16 -16    3.22    4.48
  16  16 -28    1.38    2.64
 -16  16 -28   -1.08    4.16
   0  18 -28    9.48    4.16
 -28   0 -18    5.25    2.64
 -18   0 -28    6.34    3.76
 -18   2 -28   92.77    5.66
 -28  -2 -18   85.37    4.60
 -18  -2 -28   99.10    5.71
   2  28 -18   79.21    5.98
 -28   2 -18   86.27    4.45
  -2  18 -28   88.48    5.70
   2  18 -28  100.75    5.67
 -18  -4 -28   36.74    4.68
 -28  -4 -18   32.28    3.37
 -18   4 -28   36.14    4.43
  -4  28 -18   43.56    4.81
   4  28 -18   38.40    4.88
  -4  18 -28   34.38    4.69
   4  18 -28   34.99    4.38
 -28  -6 -18   13.31    3.14
 -18  -6 -28   18.08    4.30
 -18   6 -28   16.86    4.15
  -6  28 -18   22.06    4.46
   6  18 -28   17.81    3.98
 -18   8 -28   -0.73    3.90
  -8  28 -18    4.87    4.30
   8  18 -28    2.92    3.58
 -10  18 -28    6.84    4.25
 -18  10 -28    8.25    4.05
 -10  28 -18    5.48    4.08
  10  18 -28    7.77    3.61
 -12  18 -28   20.08    4.57
 -18  12 -28   23.61    4.30
 -12  28 -18   23.19    4.63
  12  18 -28   16.72    3.63
  12  28 -18   21.66    3.07
 -18  14 -28   14.01    4.44
  28  14 -18   10.86    4.57
  14  28 -18    3.76    3.17
 -14  28 -18    9.09    4.32
 -14  18 -28   14.50    4.38
 -18  28 -14    7.03    3.62
  14  18 -28    9.53    3.42
  28  18 -14   11.03    4.66
  16  18 -28   30.37    3.58
  18  28 -16   28.98    4.05
 -16  18 -28   28.34    4.71
 -18  16 -28   24.72    4.65
 -18  28 -16   28.98    4.28
  28  18 -16   27.83    4.91
  16  28 -18   23.18    3.65
  28  16 -18   28.41    4.82
 -16  28 -18   32.19    4.42
 -18  18 -28    6.87    4.27
  18  28 -18    9.78    3.73
 -18  28 -18   12.13    4.02
  28  18 -18   10.12    4.52
 -28   0 -20   69.87    4.27
 -20   0 -28   70.57    5.30
   0  20 -28   79.03    5.57
 -28  -2 -20    7.23    2.98
  -2  20 -28   15.84    4.43
 -20   2 -28   14.94    4.14
   2  28 -20   14.18    4.72
 -20  -2 -28   16.18    4.10
 -28   2 -20   10.66    2.92
   2  20 -28   15.09    4.22
  -4  20 -28   46.38    4.99
   4  20 -28   36.40    4.56
   4  28 -20   51.49    5.24
 -28   4 -20   42.39    3.53
 -20   4 -28   48.49    4.53
 -28  -4 -20   43.69    3.86
  -4  28 -20   36.96    5.06
 -20  -4 -28   38.64    4.76
 -28  -6 -20   25.57    3.55
 -28   6 -20   26.61    3.11
 -20   6 -28   25.86    4.26
  -6  28 -20   19.57    4.91
 -20  -6 -28   24.10    4.50
   6  28 -20   24.84    4.86
  -8  20 -28    8.27    4.45
 -20   8 -28    5.60    3.95
  -8  28 -20    9.61    4.58
 -28   8 -20    6.20    2.70
   8  20 -28    6.15    4.10
 -10  20 -28    5.92    4.47
 -20  10 -28    6.52    3.88
 -10  28 -20    3.89    4.41
  10  20 -28   -1.15    3.67
 -28  10 -20    4.47    2.72
 -28  12 -20    8.93    2.73
  28  20 -12   10.25    4.69
 -20  12 -28   15.14    4.27
  28  12 -20   12.63    4.55
  12  20 -28    7.87    3.79
  12  28 -20    8.65    2.78
 -12  20 -28   11.89    4.70
 -12  28 -20    6.93    4.44
 -14  20 -28   65.13    5.66
 -20  14 -28   60.47    5.22
  14  20 -28   57.32    4.47
  20  28 -14   64.00    5.10
  28  14 -20   65.24    5.40
 -14  28 -20   61.29    5.23
  14  28 -20   56.89    4.10
 -28  14 -20   54.77    3.84
  28  20 -14   55.39    5.60
 -16  20 -28   33.92    5.06
  20  28 -16   40.02    4.41
 -20  16 -28   30.90    4.58
  16  28 -20   33.22    3.84
 -20  28 -16   34.73    4.03
  28  16 -20   40.51    4.95
 -16  28 -20   33.24    4.51
  28  20 -16   38.29    5.28
 -18  28 -20    6.69    4.21
  28  18 -20    3.54    4.58
 -20  28 -18    3.28    3.77
 -18  20 -28    3.80    4.53
 -20  18 -28    2.91    4.20
  18  28 -20    5.97    3.56
  28  20 -18    2.19    4.39
  20  28 -18    5.51    3.76
 -20  28 -20   -0.29    3.97
  28  20 -20   -1.38    4.71
 -20  20 -28    0.77    3.94
  20  28 -20   -5.28    3.86
   0  28 -22    5.59    4.66
 -22   0 -28    1.63    3.99
 -28   0 -22    1.23    3.15
   0  22 -28   -1.62    4.63
   2  28 -22   10.17    5.02
  -2  22 -28    9.12    4.76
 -22   2 -28   10.36    3.94
 -28  -2 -22   13.62    3.39
 -22  -2 -28   15.88    4.11
   2  22 -28   11.04    4.59
 -28   2 -22   16.43    3.20
   4  22 -28    2.84    4.29
 -28   4 -22    2.75    3.03
 -22   4 -28    5.43    4.09
  -4  22 -28    2.46    4.64
  -4  28 -22   -1.18    4.69
   4  28 -22    8.14    4.76
 -28  -4 -22    2.82    3.26
 -22  -4 -28   -4.12    4.16
 -22  -6 -28   32.89    4.67
 -28   6 -22   35.20    3.62
   6  28 -22   39.64    5.20
  -6  28 -22   34.24    5.31
   6  22 -28   35.18    4.80
 -22   6 -28   43.42    4.51
 -28  -6 -22   38.22    3.98
 -28  -8 -22    3.93    3.54
 -28   8 -22   16.30    3.05
   8  22 -28    7.07    4.10
 -22  -8 -28    5.05    4.49
  -8  28 -22   11.43    4.84
 -22   8 -28    5.30    3.86
  -8  22 -28    5.30    4.58
 -28  10 -22   -0.94    2.95
  10  22 -28    2.72    3.84
 -22  10 -28    1.18    3.92
  28  22 -10    0.80    4.75
 -10  28 -22    5.52    4.60
 -10  22 -28   -3.49    4.73
 -28  12 -22   21.69    3.11
  28  22 -12   16.39    4.65
 -22  12 -28   19.77    4.32
 -12  28 -22   29.48    4.96
  12  22 -28   15.80    4.07
 -12  22 -28   17.25    5.02
 -14  22 -28   16.15    4.75
 -28  14 -22    8.66    3.02
 -22  14 -28   12.53    4.01
  14  28 -22   11.73    2.97
  22  28 -14   11.37    4.35
 -14  28 -22    8.33    4.71
  28  22 -14   14.88    4.66
 -28  16 -22    2.54    2.92
 -16  22 -28    0.16    4.42
  16  28 -22   -3.31    3.06
  28  22 -16    0.32    4.52
 -16  28 -22    3.83    4.23
  28  16 -22    9.82    4.63
 -22  16 -28    1.79    3.86
  22  28 -16    1.02    4.19
 -22  18 -28   30.03    4.59
 -18  28 -22   24.90    4.61
  28  18 -22   33.83    4.77
  18  28 -22   21.87    3.68
  28  22 -18   26.75    5.04
 -22  28 -18   22.45    3.79
  22  28 -18   17.89    4.38
 -18  22 -28   32.35    4.72
 -28  18 -22   27.49    3.33
  28  20 -22    0.45    4.56
  20  28 -22    0.12    3.58
  28  22 -20    1.21    4.48
  22  28 -20    6.90    3.94
 -28  20 -22    8.39    2.95
 -22  28 -20    4.23    3.49
 -20  28 -22   -2.81    4.14
 -20  22 -28    0.15    4.34
 -22  20 -28    1.93    4.07
 -22  28 -22    5.10    3.72
  28  22 -22    0.59    4.06
 -22  22 -28    0.74    3.91
 -28  22 -22   -2.06    2.82
  22  28 -22   -0.64    3.62
   0  28 -24   33.17    5.47
 -28   0 -24   41.45    4.14
 -24   0 -28   40.63    4.45
   0  24 -28   25.16    5.26
   2  28 -24    9.20    5.04
 -28   2 -24    7.57    3.40
 -24   2 -28   -0.15    3.86
 -28  -2 -24    3.58    3.30
   2  24 -28    8.83    4.67
  -2  24 -28    3.89    4.95
 -24  -2 -28    2.85    4.13
   4  24 -28   35.16    5.03
 -24  -4 -28   35.59    4.43
 -24   4 -28   30.41    4.36
 -28   4 -24   31.94    3.85
   4  28 -24   40.18    5.33
 -28  -4 -24   28.23    3.85
 -28   6 -24    8.55    3.20
   6  24 -28   11.41    4.57
 -24   6 -28    5.41    3.76
   6  28 -24    9.97    4.97
 -24  -6 -28    9.14    4.22
  -6  28 -24    9.00    5.08
 -28  -6 -24    8.16    3.85
 -28  -8 -24    4.25    3.85
 -24  -8 -28    2.99    4.26
 -24   8 -28    0.73    3.92
  -8  24 -28   -3.94    4.93
 -28   8 -24    4.36    3.25
   8  24 -28    0.16    4.11
  -8  28 -24    0.86    5.00
 -28 -10 -24   10.41    3.87
 -24  10 -28    1.60    3.76
 -28  10 -24    1.49    3.19
  28  24 -10    3.58    4.88
 -24 -10 -28    9.59    4.46
 -10  28 -24    4.11    4.81
 -10  24 -28    8.89    4.98
  10  24 -28    0.79    4.07
 -28  12 -24    1.23    3.02
  28  24 -12    0.49    4.55
 -24  12 -28    3.35    3.94
  12  24 -28    1.83    4.05
  24  28 -12    0.16    4.64
 -12  28 -24    5.58    4.86
 -12  24 -28    2.89    5.01
 -14  24 -28    0.17    4.92
 -28  14 -24    2.90    3.08
 -24  14 -28   -1.30    3.96
  24  28 -14    3.37    4.15
 -14  28 -24    2.66    4.74
  28  24 -14    3.52    4.53
 -24  16 -28   29.90    4.35
 -16  28 -24   45.12    4.92
 -16  24 -28   33.85    5.28
  28  24 -16   28.35    5.08
  24  28 -16   36.44    4.62
 -28  16 -24   27.63    3.70
 -18  28 -24   33.37    4.98
  28  24 -18   50.48    5.35
  24  28 -18   45.72    4.81
 -18  24 -28   38.35    5.16
 -28  18 -24   43.08    3.76
 -24  18 -28   44.12    4.65
 -24  28 -20    3.58    3.30
 -20  28 -24    2.81    4.18
  28  24 -20    2.05    4.48
  24  28 -20   -0.55    4.00
 -20  24 -28    4.71    4.46
 -28  20 -24    3.20    3.02
 -24  20 -28   -1.12    3.94
 -24  28 -22   -2.49    3.45
  28  24 -22   -5.20    4.44
  24  28 -22    2.18    3.59
 -24  22 -28   -2.32    3.82
 -28  22 -24    1.76    2.96
 -22  24 -28    1.29    3.76
 -22  28 -24    2.06    3.83
 -24  28 -24   -0.74    3.27
 -24  24 -28   -1.70    3.78
 -28  24 -24    2.07    2.80
   0  28 -26   20.48    5.26
 -28   0 -26   25.87    4.00
 -26   0 -28   23.44    4.35
   0  26 -28   17.21    5.24
 -28  -2 -26    0.56    3.79
   2  26 -28    2.59    4.96
 -28   2 -26   -1.35    3.49
 -26   2 -28   -1.73    3.93
   2  28 -26    1.41    4.99
  -2  26 -28   -1.57    5.12
 -28   4 -26   35.80    4.10
 -26   4 -28   37.07    4.26
   4  28 -26   34.34    5.41
   4  26 -28   38.30    5.31
 -28  -4 -26   36.43    4.19
 -26  -4 -28   21.68    4.32
 -26   6 -28    6.40    3.98
   6  26 -28   -0.17    4.56
   6  28 -26    0.87    4.73
  -6  28 -26   12.87    5.11
 -28  -6 -26    2.29    3.79
 -26  -6 -28    0.15    4.01
 -28   6 -26    3.16    3.48
 -28   8 -26    1.43    3.30
  -8  26 -28   12.20    5.08
 -26   8 -28    0.42    3.84
  -8  28 -26    3.86    4.97
   8  26 -28    1.50    4.23
 -28  -8 -26    3.07    3.81
 -26  -8 -28   -2.32    4.27
 -28 -10 -26   14.40    4.07
 -26 -10 -28   17.99    4.62
 -26  10 -28   20.07    4.11
 -10  26 -28   15.91    5.22
  28  26 -10   16.49    4.78
 -10  28 -26   17.38    5.35
 -28  10 -26   14.22    3.65
  10  26 -28   15.50    4.54
 -28  12 -26    8.29    3.46
 -26 -12 -28   12.79    4.70
 -28 -12 -26   12.47    4.33
  28  26 -12   10.16    4.98
 -26  12 -28   13.49    3.81
 -12  26 -28   10.59    4.94
 -12  28 -26   11.98    4.90
  26  28 -12    1.11    4.78
  26  28 -14    6.95    4.63
 -28  14 -26   11.60    3.49
 -26  14 -28   12.08    3.89
  28  26 -14   11.87    4.89
 -14  26 -28   10.05    5.16
 -14  28 -26    6.86    4.63
 -26  16 -28    1.75    3.51
 -16  28 -26    2.92    4.87
  28  26 -16    8.64    4.36
 -28  16 -26    4.79    3.30
 -16  26 -28    9.77    4.85
  26  28 -16   -0.45    4.35
  28  26 -18   12.13    4.78
 -18  28 -26   20.17    4.37
  26  28 -18   19.66    4.71
 -18  26 -28   19.30    4.64
 -28  18 -26   18.49    3.52
 -26  18 -28   19.85    3.92
  28  26 -20   -1.40    4.14
 -28  20 -26    0.34    3.01
  26  28 -20    6.49    4.04
 -26  20 -28   -2.45    3.55
 -20  28 -26    1.46    3.81
 -20  26 -28   -2.08    4.31
 -28  22 -26   11.86    3.07
 -26  22 -28    0.74    3.34
  28  26 -22   -0.66    4.11
  26  28 -22    1.77    3.90
 -22  28 -26    0.13    3.73
 -22  26 -28    7.83    3.78
 -26  24 -28   10.66    3.43
 -24  28 -26    9.13    3.60
 -24  26 -28    9.65    3.62
 -28  24 -26   11.42    2.97
 -26  26 -28    0.75    3.08
 -28   0 -28    8.73    3.81
   0  28 -28    1.60    5.12
   2  28 -28    9.39    5.16
  -2  28 -28    7.49    5.40
 -28  -2 -28    4.15    3.87
 -28   2 -28    4.04    3.73
 -28  -4 -28   18.66    4.23
 -28   4 -28   21.87    4.02
 -28   6 -28    5.70    3.65
 -28  -6 -28   -1.46    4.12
   6  28 -28    3.11    4.74
 -28   8 -28    3.62    3.58
 -28  -8 -28    7.99    4.04
  -8  28 -28    4.94    5.39
 -28  10 -28   -2.25    3.70
 -28 -10 -28    1.20    4.10
  28  28 -10   -2.91    4.83
 -10  28 -28   -3.31    5.30
 -28 -12 -28    8.75    4.06
 -28  12 -28   10.77    3.65
  28  28 -12   18.80    4.76
 -12  28 -28    2.39    5.26
 -28  14 -28   -2.27    3.49
 -14  28 -28   -4.99    4.95
  28  28 -14   -2.00    4.43
 -28 -14 -28   -2.57    4.46
 -28 -16 -28   -3.45    4.23
 -16  28 -28   -4.48    4.86
  28  28 -16    2.07    4.60
 -28  16 -28    3.33    3.27
 -28  18 -28    2.74    3.23
  28  28 -18   13.23    4.06
 -18  28 -28    0.30    4.25
  28  28 -20    2.37    4.04
 -28  20 -28   -2.49    3.24
 -20  28 -28    9.53    4.09
 -22  28 -28    7.55    3.84
 -28  22 -28    2.75    3.00
 -28  24 -28   -1.45    2.83
 -24  28 -28    2.06    3.33
 -29   1  -1   14.03    2.61
   1  -1 -29   14.77    3.26
  -1   1 -29   19.69    3.60
  -1  -1 -29   19.45    3.33
  29   1  -1   19.34    2.81
   1   1 -29   12.80    3.25
  29  -1  -1   16.45    2.60
  29   1   1   10.67    2.59
  29   3  -1    8.88    2.68
   3   1 -29    3.36    2.84
  29   3   1    4.35    2.52
   3  -1 -29    4.40    2.78
  29  -1  -3    3.24    2.40
  -3  -1 -29    5.85    3.25
  -3   1 -29    8.12    3.39
  -1   3 -29    2.46    3.15
  -1  -3 -29    6.61    3.13
  29   1  -3   11.02    2.71
   1   3 -29    5.45    3.05
   1  -3 -29    8.02    2.92
  -3  -3 -29    1.20    3.32
  29  -3  -3   -1.49    2.36
  29   3   3    2.33    2.41
   3   3 -29    2.53    2.82
  -3   3 -29    0.12    3.31
   3  -3 -29    2.24    2.72
  29   3  -3    1.86    2.75
  -1  -5 -29    1.06    3.07
   5  -1 -29    2.58    2.64
  29   5  -1    3.60    2.94
  29  -1  -5    0.39    2.54
   1   5 -29    4.41    3.13
   1  -5 -29    5.64    2.97
  -1   5 -29    2.02    3.28
   5   1 -29   -0.21    2.64
  29   1  -5    4.00    2.67
  -5   1 -29    3.08    3.40
  -5  -1 -29    3.83    3.28
  -3  -5 -29   50.81    4.13
  -5   3 -29   45.06    4.10
  29  -3  -5   41.28    3.19
   5  -3 -29   54.30    3.50
   3   5 -29   43.63    3.75
   5   3 -29   38.98    3.48
  29   3  -5   42.17    3.67
  -3   5 -29   47.89    4.09
  29   5  -3   41.71    3.78
   3  -5 -29   47.17    3.58
  -5  -3 -29   44.64    4.09
  -5  -5 -29   -1.77    3.30
   5   5 -29   -3.71    2.72
  -5   5 -29    2.65    3.39
   5  -5 -29    1.54    2.52
  29   5  -5   -2.82    3.00
   7  -1 -29   65.59    3.84
  29  -1  -7   69.26    4.06
  -1   7 -29   69.56    4.51
   7   1 -29   67.54    3.90
  -7   1 -29   70.31    4.61
  29   1  -7   73.39    4.23
   1  -7 -29   61.74    4.26
  -1  -7 -29   76.90    4.57
   1   7 -29   70.22    4.56
  -7  -1 -29   64.52    4.61
  -7  -3 -29   32.43    3.91
   3  -7 -29   30.82    3.24
   3   7 -29   26.87    3.36
   7  -3 -29   27.07    2.84
   7   3 -29   28.00    2.97
  -3   7 -29   30.94    3.77
  29   3  -7   27.23    3.43
  -7   3 -29   29.45    3.79
  29   7  -3   29.05    3.48
  -5   7 -29  211.88    8.60
  -7   5 -29  212.54    8.54
  29   5  -7  214.45    8.38
  29   7  -5  205.56    8.35
   7  -5 -29  201.76    7.88
   5  -7 -29  207.19    7.97
  -7  -5 -29  215.57    8.60
   5   7 -29  212.30    8.22
   7   5 -29  206.00    8.04
   7   7 -29    1.86    2.82
  -7   7 -29    0.79    3.40
   7  -7 -29   -0.59    2.42
  29   7  -7   -0.85    3.37
  29  -1  -9   27.43    3.29
  29   1  -9   26.90    3.40
   1   9 -29   24.20    3.62
  -9   1 -29   26.95    4.02
  -1   9 -29   27.07    3.77
   9   1 -29   30.77    2.77
  -9  -1 -29   18.51    3.81
  -9  -3 -29   15.36    3.67
   3  -9 -29    8.16    2.91
   3   9 -29   12.26    3.33
   9   3 -29   13.86    2.64
  -3   9 -29   10.58    3.44
  29   3  -9   10.07    3.18
  -9  -5 -29   -0.27    3.80
   5   9 -29    1.41    2.99
   9   5 -29    2.43    2.46
  29   9  -5    0.12    3.57
  -5   9 -29    3.44    3.41
   5  -9 -29    5.73    2.70
  29   5  -9    6.88    3.40
   9   7 -29   -2.22    2.60
   7   9 -29   -2.28    2.88
  -7   9 -29    1.36    3.53
  29   9  -7    1.90    3.37
  29   7  -9    1.26    3.48
   7  -9 -29    4.79    2.55
   9   9 -29    0.11    2.75
  29   9  -9   -1.18    3.50
   1  11 -29    5.51    3.44
  -1  11 -29    3.92    3.56
  29   1 -11    3.26    3.26
   3  11 -29    3.64    3.38
  -3  11 -29    2.00    3.63
  29   3 -11    2.04    3.30
  29   5 -11  145.57    6.46
   5 -11 -29  143.52    6.01
  -5  11 -29  132.68    6.63
   5  11 -29  125.55    6.30
   7  11 -29  221.12    8.83
  29   7 -11  238.67    9.14
  11   7 -29  218.48    8.45
   7 -11 -29  217.38    8.44
  29  11  -7  249.62    9.28
  -7  11 -29  222.54    9.22
  11   9 -29   -0.32    2.57
  29  11  -9    6.52    3.67
 -11   9 -29   -3.98    3.81
  29   9 -11    3.50    3.79
   9  11 -29    7.75    2.97
 -11  11 -29    1.31    3.94
  29  11 -11   -5.30    4.11
  11  11 -29   -3.71    2.76
   1  13 -29   99.98    5.63
  -1  13 -29  102.06    5.63
 -13   1 -29  102.24    5.79
 -13  -1 -29  101.21    5.77
   3  13 -29   12.97    3.59
  29   3 -13    9.25    3.68
 -13   3 -29   14.60    3.90
  -3  29 -13    7.82    4.16
  -3  13 -29   10.95    3.82
  29   5 -13  695.27   22.49
 -13   5 -29  657.04   22.56
  -5  29 -13  646.96   22.73
   5  13 -29  645.01   22.37
  -5  13 -29  661.16   22.58
   7 -13 -29    9.79    2.61
  -7  29 -13    6.87    3.89
  29  13  -7    7.62    3.93
 -13   7 -29    5.42    3.82
   7  13 -29   10.00    3.19
  29   7 -13    9.85    3.90
 -13   9 -29  174.25    7.91
   9  13 -29  169.48    7.25
  29   9 -13  171.51    7.72
  29  13  -9  177.61    7.81
  -9  29 -13  174.16    7.84
 -13  11 -29  222.80    9.30
 -11  29 -13  205.74    9.19
  13  11 -29  217.30    8.45
  11  13 -29  214.17    8.67
  29  11 -13  241.52    9.36
  29  13 -11  232.61    9.31
 -11  13 -29  231.24    9.38
 -13  29 -13   -2.33    3.69
 -13  13 -29   -1.06    4.12
  13  13 -29    2.40    2.89
  -1  15 -29   55.79    4.69
  -1  29 -15   49.31    5.19
   1  15 -29   60.22    4.62
 -15   1 -29   59.40    4.77
 -15  -1 -29   54.63    4.85
  -3  15 -29    1.15    3.81
 -15   3 -29    1.59    3.95
  -3  29 -15    3.59    4.14
   3  15 -29    3.41    3.61
 -15  -3 -29    7.76    4.26
   5  15 -29   20.79    3.80
  29   5 -15   12.41    3.81
  -5  29 -15   17.56    4.30
 -15   5 -29   16.48    4.02
 -15  -5 -29   19.46    4.27
  -5  15 -29   14.24    4.22
  29   7 -15  205.57    8.61
   7  15 -29  201.27    8.31
 -15   7 -29  202.68    8.70
  -7  29 -15  191.17    8.76
  29  15  -9   -3.38    4.05
 -15   9 -29   -2.52    4.04
  29   9 -15    3.39    3.92
  -9  29 -15   -1.08    4.10
   9  15 -29    0.91    3.31
 -11  15 -29   -3.08    4.35
 -11  29 -15    1.38    3.94
 -15  11 -29    0.75    4.12
  11  29 -15    5.90    2.92
  11  15 -29    4.16    3.11
  13  29 -15   85.38    4.83
 -15  13 -29   90.47    5.86
 -15  29 -13   97.32    5.55
 -13  29 -15   99.88    5.72
  13  15 -29   79.58    4.78
 -13  15 -29   95.65    5.88
 -15  15 -29   -2.35    4.33
 -15  29 -15   -3.88    4.01
  15  29 -15    0.50    3.43
  15  15 -29   -1.04    2.72
 -17   1 -29   43.78    4.71
  -1  17 -29   47.47    4.66
   1  17 -29   48.52    4.72
 -17  -1 -29   39.81    4.57
   3  17 -29    6.61    3.84
  -3  17 -29   -0.90    4.18
  -3  29 -17   -2.74    4.45
   3  29 -17    4.55    4.38
 -17   3 -29   -1.62    4.04
 -29  -3 -17    1.35    2.51
 -17  -3 -29   -4.80    4.18
 -17  -5 -29   53.14    4.93
  -5  17 -29   52.86    5.00
 -17   5 -29   49.36    4.81
  -5  29 -17   58.82    5.40
   5  17 -29   50.75    4.62
 -29  -5 -17   51.67    3.58
 -29  -7 -17   24.49    3.02
 -17  -7 -29   24.14    4.46
  29   7 -17   25.35    4.33
  -7  29 -17   21.93    4.62
   7  17 -29   27.00    3.97
 -17   7 -29   23.78    4.37
   9  17 -29    1.91    3.67
  -9  29 -17    7.80    4.29
 -17   9 -29    5.10    4.04
  11  29 -17  100.23    5.08
 -11  17 -29  115.86    6.61
 -11  29 -17  110.16    6.37
  11  17 -29  104.75    5.67
 -17  11 -29  117.96    6.29
 -17  13 -29    8.65    4.26
  13  17 -29    3.09    3.29
 -13  29 -17   -0.16    3.97
 -13  17 -29    1.43    4.54
  13  29 -17    1.38    2.91
  29  17 -15   49.62    5.39
 -15  29 -17   50.41    4.98
 -17  15 -29   59.17    5.30
  17  29 -15   50.90    4.37
  29  15 -17   58.23    5.49
  15  29 -17   57.18    4.34
 -15  17 -29   58.62    5.28
  15  17 -29   53.00    3.93
 -17  29 -15   49.70    4.54
  17  29 -17    3.77    3.52
 -17  17 -29    2.07    4.50
  29  17 -17   -2.04    4.53
 -17  29 -17    1.95    4.03
  -1  19 -29   23.17    4.52
   1  29 -19   14.91    4.91
 -29   1 -19   19.67    2.89
 -29  -1 -19   18.01    2.97
 -19   1 -29   19.93    4.39
 -19  -1 -29   19.59    4.28
   1  19 -29   27.85    4.63
 -29   3 -19   24.29    3.03
   3  29 -19   29.98    5.09
 -29  -3 -19   27.79    3.13
  -3  29 -19   27.80    4.81
  -3  19 -29   21.85    4.58
 -19   3 -29   29.22    4.37
 -19  -3 -29   25.50    4.53
   3  19 -29   29.78    4.52
 -19  -5 -29    6.98    4.31
  -5  29 -19    4.15    4.69
  -5  19 -29   12.13    4.55
 -19   5 -29    4.48    4.12
   5  19 -29    6.88    3.84
 -29  -5 -19    9.72    2.90
 -29  -7 -19  120.58    5.98
 -19  -7 -29  126.63    6.87
   7  19 -29  127.02    6.66
 -19   7 -29  139.87    6.75
  -7  29 -19  136.20    7.28
  -9  19 -29    1.60    4.56
 -19   9 -29    4.99    4.01
  -9  29 -19   -4.77    4.60
   9  19 -29    2.44    3.85
 -19  11 -29    0.91    4.14
 -11  29 -19    1.47    4.50
  11  19 -29    2.52    3.68
 -11  19 -29    3.23    4.63
  13  29 -19  331.57   12.79
  29  13 -19  381.19   13.72
  29  19 -13  371.68   13.84
  13  19 -29  346.65   13.19
 -13  19 -29  378.83   13.90
 -19  13 -29  376.80   13.63
 -13  29 -19  384.42   13.78
 -15  29 -19    8.08    4.35
  29  19 -15    7.49    4.86
 -19  15 -29    2.03    4.41
  29  15 -19    1.54    4.57
  15  29 -19    2.49    3.22
 -15  19 -29   -0.81    4.58
  15  19 -29    3.23    3.16
  19  29 -15    9.10    3.86
 -19  17 -29   41.41    4.98
  29  19 -17   38.75    5.25
 -19  29 -17   38.15    4.39
  29  17 -19   36.86    5.00
 -17  19 -29   33.59    4.92
 -17  29 -19   34.70    4.71
  17  29 -19   40.15    3.94
  19  29 -17   29.93    4.30
 -19  19 -29   -4.40    4.09
  29  19 -19   -3.74    4.55
 -19  29 -19   -8.15    4.24
  19  29 -19    1.18    3.41
 -21   1 -29    3.49    4.17
 -29  -1 -21    0.95    2.97
 -29   1 -21    7.78    2.97
   1  29 -21    5.68    5.03
 -21  -1 -29   10.36    4.19
   1  21 -29   -0.16    4.28
  -1  21 -29    3.07    4.48
   3  21 -29   -6.81    4.39
  -3  21 -29    0.82    4.47
   3  29 -21    2.06    4.79
 -29   3 -21    2.51    2.81
 -21   3 -29    3.78    3.95
 -29  -3 -21    3.39    3.01
 -21  -3 -29    6.63    4.38
 -29   5 -21   22.92    3.11
   5  29 -21   27.20    5.21
 -21   5 -29   20.61    4.38
  -5  29 -21   20.81    4.95
   5  21 -29   22.91    4.56
 -29  -5 -21   22.69    3.55
 -21  -5 -29   19.77    4.63
 -29  -7 -21    0.26    3.35
   7  21 -29    1.69    4.28
 -29   7 -21    2.22    2.68
 -21   7 -29   -4.23    4.05
 -21  -7 -29    3.03    4.33
  -7  29 -21    1.02    4.84
 -29  -9 -21    2.12    3.17
 -29   9 -21    5.74    2.88
 -21   9 -29    2.27    3.91
  -9  29 -21   -2.03    4.62
 -21  -9 -29   -4.70    4.59
   9  21 -29    0.60    4.09
  -9  21 -29   -0.17    4.60
 -29  11 -21    9.86    2.84
  29  21 -11    9.36    4.72
 -21  11 -29   12.61    4.17
 -11  29 -21    4.69    4.72
  11  21 -29    7.35    3.97
 -11  21 -29    5.66    4.96
 -13  21 -29    1.49    4.59
  21  29 -13    0.74    4.28
  13  29 -21    0.10    2.75
 -21  13 -29   -1.53    4.20
  29  13 -21    4.79    4.40
 -13  29 -21    2.31    4.44
  29  21 -13    9.66    4.69
  13  21 -29   -1.85    3.66
 -21  15 -29   13.65    4.11
 -15  29 -21   14.89    4.79
  21  29 -15   22.04    4.20
  29  15 -21   17.18    4.62
  15  29 -21   13.70    3.23
  29  21 -15   21.98    4.94
 -15  21 -29   17.45    5.04
  29  21 -17    0.47    4.57
 -17  21 -29    4.70    4.73
  21  29 -17    6.05    4.00
  29  17 -21    3.86    4.67
 -21  17 -29   -1.22    4.30
  17  29 -21    0.71    3.21
 -17  29 -21    1.73    4.28
 -21  29 -19    1.39    3.84
  21  29 -19    2.56    3.70
  29  19 -21    8.71    4.74
  19  29 -21    3.94    3.25
 -19  29 -21    3.46    4.24
  29  21 -19    3.55    4.62
 -21  19 -29   16.02    4.09
 -19  21 -29    8.83    4.55
 -21  29 -21    5.23    3.84
  21  29 -21    5.31    3.56
  29  21 -21    6.75    4.55
 -21  21 -29    1.52    4.39
   1  23 -29    1.33    4.63
   1  29 -23    6.69    5.01
 -29  -1 -23   -0.63    3.30
 -29   1 -23    0.74    3.15
 -23   1 -29    2.13    4.19
 -23  -1 -29   -1.22    4.12
  -1  23 -29   -3.03    4.68
   3  23 -29   25.34    5.06
 -29   3 -23   15.00    3.43
 -23   3 -29   14.15    4.35
 -23  -3 -29   18.97    4.49
   3  29 -23   14.22    5.09
 -29  -3 -23   16.81    3.35
  -3  23 -29   13.24    5.09
 -29   5 -23   71.43    4.48
   5  29 -23   70.23    6.06
 -29  -5 -23   68.09    4.65
 -23   5 -29   69.42    5.17
   5  23 -29   61.13    5.51
  -5  29 -23   80.24    6.22
 -23  -5 -29   71.87    5.55
 -29   7 -23    4.50    3.03
 -23   7 -29    1.50    4.21
   7  23 -29    2.40    4.24
 -23  -7 -29    4.14    4.35
  -7  29 -23    2.96    5.07
 -29  -7 -23    8.10    3.60
 -29  -9 -23   19.20    3.94
 -23  -9 -29   18.90    4.45
 -29   9 -23   17.41    3.24
 -23   9 -29   16.12    4.20
  29  23  -9   12.43    4.96
   9  23 -29    8.94    4.38
  -9  29 -23   18.12    4.98
  -9  23 -29   17.24    5.16
 -29 -11 -23    7.06    3.77
 -23  11 -29    4.34    3.95
  29  23 -11    6.21    4.80
  11  23 -29    3.06    4.00
 -29  11 -23    3.72    3.02
 -11  29 -23   10.07    4.76
 -11  23 -29    4.59    4.94
 -23 -11 -29    9.00    4.47
 -13  23 -29    2.53    4.73
  23  29 -13   10.67    4.34
 -29  13 -23    1.94    2.90
 -23  13 -29    1.34    4.05
 -13  29 -23    2.18    4.77
  29  23 -13    6.47    4.85
  23  29 -15    1.48    3.95
  29  23 -15    5.12    5.02
  15  29 -23    3.43    2.76
 -15  23 -29    9.98    4.75
 -15  29 -23    4.26    4.37
 -23  15 -29   10.56    4.21
 -29  15 -23    4.86    2.93
 -23  17 -29   17.61    4.16
 -17  29 -23   21.55    4.57
  17  29 -23   15.89    3.19
 -29  17 -23   21.39    3.22
 -17  23 -29   20.02    4.94
  23  29 -17   20.23    4.49
  29  23 -17   19.41    5.06
  23  29 -19   -0.27    3.91
  19  29 -23    2.19    3.26
  29  23 -19    5.74    4.61
 -23  19 -29    1.60    4.09
 -19  29 -23   -1.21    4.20
 -29  19 -23   -3.44    2.91
 -19  23 -29    0.47    4.35
  21  29 -23   -2.36    3.41
  29  23 -21    7.27    4.26
  23  29 -21    6.26    3.86
 -21  29 -23   -1.98    3.91
 -21  23 -29    4.31    4.02
 -23  21 -29    4.01    4.03
 -23  29 -23   -6.27    3.53
  23  29 -23    1.19    3.40
 -23  23 -29   -2.35    3.66
  -1  29 -25    8.40    5.25
 -29  -1 -25    2.65    3.60
   1  29 -25   -3.57    5.44
 -25  -1 -29    8.18    4.09
 -29   1 -25    7.67    3.25
 -25   1 -29    2.10    4.06
   1  25 -29    2.41    4.93
  -1  25 -29    5.02    5.10
  -3  25 -29    4.34    4.85
   3  29 -25   11.73    5.34
 -29   3 -25   20.69    3.50
 -25   3 -29   24.01    4.31
 -29  -3 -25   17.63    3.81
 -25  -3 -29   19.06    4.30
   3  25 -29   15.13    4.81
   5  29 -25   14.44    5.26
   5  25 -29   19.33    4.95
 -29   5 -25   10.37    3.24
 -25   5 -29    5.76    3.90
 -29  -5 -25   16.14    3.72
  -5  29 -25   15.64    5.40
 -25  -5 -29    5.86    4.24
 -25   7 -29  283.59   10.91
  -7  29 -25  276.59   11.67
   7  25 -29  270.80   11.14
 -29  -7 -25  286.04   10.76
 -25  -7 -29  267.07   11.08
 -29   7 -25  270.86   10.42
  29  25  -9   28.81    5.14
 -29   9 -25   23.92    3.49
 -25   9 -29   26.76    4.30
   9  25 -29   28.35    4.84
  -9  29 -25   29.45    5.39
  -9  25 -29   35.10    5.53
 -29  -9 -25   27.20    4.24
 -25  -9 -29   26.51    4.79
 -11  25 -29   54.26    5.75
 -29  11 -25   51.13    3.97
  29  25 -11   53.87    5.88
 -11  29 -25   48.92    5.77
  25  29 -11   50.94    5.64
  11  25 -29   50.29    4.89
 -25 -11 -29   60.50    5.30
 -25  11 -29   56.88    4.97
 -29 -11 -25   51.20    4.85
  29  25 -13  172.37    8.14
  25  29 -13  170.89    8.01
 -29 -13 -25  170.10    7.58
 -25 -13 -29  161.88    8.09
 -13  25 -29  155.80    8.36
 -29  13 -25  159.83    6.92
 -25  13 -29  161.62    7.57
 -13  29 -25  153.34    8.21
 -15  29 -25   19.40    4.80
 -29  15 -25   17.99    3.38
  29  25 -15   23.96    4.75
 -15  25 -29   15.58    5.16
  25  29 -15   17.99    4.58
 -25  15 -29   22.98    3.97
 -29  17 -25  105.52    5.38
  29  25 -17  109.36    6.60
  25  29 -17  104.18    6.30
 -17  29 -25  110.38    6.64
 -17  25 -29  110.85    6.62
 -25  17 -29  113.56    6.13
 -25  19 -29    8.55    3.75
 -19  25 -29   10.43    4.60
  29  25 -19   10.51    4.42
 -29  19 -25   12.88    3.01
  25  29 -19   11.18    3.96
 -19  29 -25   12.61    4.11
 -21  29 -25    1.26    4.01
  29  25 -21    0.28    4.35
  25  29 -21    2.54    3.82
 -29  21 -25    2.17    2.76
 -21  25 -29    3.89    4.13
 -25  21 -29    0.53    3.50
 -25  23 -29   35.30    4.03
 -23  29 -25   30.21    4.03
 -23  25 -29   30.89    3.94
 -25  25 -29    2.70    3.43
 -27  -1 -29   18.95    4.07
  -1  29 -27    8.63    5.43
   1  29 -27    8.43    5.43
 -29   1 -27   17.10    3.68
 -27   1 -29    6.22    3.96
 -29  -1 -27   20.66    3.74
  -1  27 -29   20.33    5.72
   1  27 -29   21.95    5.13
   3  29 -27    7.48    5.41
 -29  -3 -27    2.78    3.83
   3  27 -29   -4.18    5.18
 -29   3 -27    1.46    3.54
 -27   3 -29    1.01    3.94
 -27  -3 -29    0.30    4.10
  -3  27 -29   -2.30    5.02
 -27  -5 -29   14.21    4.12
 -29   5 -27   15.96    3.59
 -27   5 -29   13.04    3.90
   5  27 -29   17.57    5.13
 -29  -5 -27   19.39    4.04
   5  29 -27   18.11    5.22
   7  27 -29    1.01    4.67
  -7  29 -27    6.58    5.56
 -29   7 -27   -1.94    3.41
  -7  27 -29    3.71    5.14
 -27   7 -29   -4.90    3.86
 -29  -7 -27    1.00    3.90
 -27  -7 -29    1.66    4.25
 -27   9 -29   16.09    4.01
 -29   9 -27   25.57    3.78
  29  27  -9   25.36    5.09
  -9  29 -27   29.85    5.53
  -9  27 -29   23.11    5.70
 -27  -9 -29   20.66    4.60
 -29  -9 -27   23.52    4.38
  29  27 -11   88.20    6.45
  27  29 -11   66.93    5.81
 -29  11 -27   75.01    4.61
 -27  11 -29   72.29    5.17
 -27 -11 -29   87.34    5.56
 -11  27 -29   81.31    6.53
 -11  29 -27   82.35    6.17
 -29 -11 -27   64.53    5.43
 -29 -13 -27    4.25    4.17
 -27 -13 -29    3.71    4.26
  27  29 -13    7.40    4.49
 -29  13 -27    8.23    3.35
  29  27 -13    2.36    4.58
 -27  13 -29    2.28    3.73
 -13  29 -27    4.22    5.17
 -13  27 -29    2.20    5.15
 -27  15 -29   19.06    3.87
 -27 -15 -29   10.95    4.76
  29  27 -15   16.06    4.67
 -29 -15 -27   18.90    4.41
  27  29 -15   22.35    4.80
 -15  29 -27   25.59    4.86
 -15  27 -29   12.77    4.69
 -29  15 -27   12.65    3.37
 -17  27 -29    5.49    4.69
 -29 -17 -27    3.34    4.19
  27  29 -17    1.00    4.07
  29  27 -17    6.87    4.56
 -17  29 -27    5.45    4.45
 -29  17 -27    7.89    3.08
 -27  17 -29    3.82    3.46
 -27 -17 -29    5.64    4.56
 -29  19 -27   62.37    4.13
 -19  29 -27   55.07    5.15
 -19  27 -29   72.51    5.43
  29  27 -19   59.73    5.03
  27  29 -19   57.00    4.96
 -27  19 -29   62.24    4.51
 -21  27 -29    9.61    3.98
 -29  21 -27    8.63    2.88
  29  27 -21    8.19    3.93
  27  29 -21    9.68    3.99
 -21  29 -27   10.02    3.86
 -27  21 -29   12.78    3.32
 -23  27 -29   18.13    3.84
 -27  23 -29   10.52    3.22
 -23  29 -27    9.39    3.69
 -29  23 -27   14.77    2.77
 -25  27 -29    2.26    3.20
 -27  25 -29    7.51    2.94
   1  29 -29    4.62    5.42
 -29   1 -29    3.43    3.80
 -29  -1 -29   -4.85    3.95
  -1  29 -29    9.82    5.22
 -29   3 -29    2.43    3.76
   3  29 -29    1.59    5.09
 -29  -3 -29    4.51    4.00
 -29   5 -29    0.93    3.44
 -29  -5 -29   -1.71    4.03
   5  29 -29   -6.58    4.90
 -29   7 -29    0.13    3.59
 -29  -7 -29    2.72    3.94
  -7  29 -29   -4.93    5.22
  -9  29 -29    9.04    5.51
  29  29  -9   10.23    5.22
 -29   9 -29    1.80    3.51
 -29  -9 -29    5.61    4.13
  29  29 -11    4.37    4.89
 -11  29 -29    2.38    5.30
 -29  11 -29    3.88    3.58
 -29 -11 -29    5.49    3.89
 -29  13 -29   -0.60    3.28
 -13  29 -29    5.30    5.21
  29  29 -13    5.45    4.92
 -29 -13 -29    4.19    4.17
 -29 -15 -29    0.72    4.19
 -15  29 -29    2.71    4.85
 -29  15 -29   -4.45    3.10
  29  29 -15    0.87    4.54
 -29 -17 -29   -0.14    3.87
  29  29 -17   -0.83    4.13
 -17  29 -29    2.27    4.53
 -29  17 -29   -2.81    3.12
 -29 -19 -29    0.41    4.14
  29  29 -19   -1.03    3.69
 -29  19 -29   -4.84    3.04
 -19  29 -29   -1.55    4.25
  29  29 -21   -2.50    3.81
 -29 -21 -29    4.34    3.72
 -29  21 -29   -1.17    2.84
 -21  29 -29   -2.83    3.74
 -23  29 -29    4.53    3.41
 -29 -23 -29    4.11    3.74
 -29  23 -29   -3.06    2.50
 -29 -25 -29    1.39    3.72
 -29 -27 -29   -2.44    3.54
 -29 -29 -29   -1.22    3.12
   0   0 -30 1483.99   48.56
  30   0   0 1513.63   48.26
  30  -2   0    5.14    2.16
  30   0  -2   -0.29    2.52
  30   0   2    1.59    2.33
   0   2 -30    2.28    3.32
   2   0 -30    1.15    3.03
  -2   0 -30    0.74    3.28
   0  -2 -30    1.89    3.09
  30   2   0    3.55    2.61
  30  -2  -2   33.91    2.95
   2  -2 -30   31.65    3.55
   2   2 -30   36.78    3.60
  30   2  -2   40.88    3.31
  -2  -2 -30   42.06    3.93
  -2   2 -30   35.79    3.77
  30   2   2   39.83    3.13
   0   4 -30  398.17   14.15
  30   0  -4  413.62   13.88
   4   0 -30  390.13   13.94
  30   4   0  395.89   13.90
  -4   0 -30  398.02   14.22
   0  -4 -30  395.79   14.11
   4   2 -30   62.92    4.18
  30  -2  -4   67.97    3.92
  30   2  -4   70.53    4.18
  30   4  -2   65.75    4.15
   4  -2 -30   76.15    4.22
  30   4   2   64.51    4.00
   2  -4 -30   78.41    4.35
  -2  -4 -30   70.15    4.59
  -2   4 -30   59.51    4.47
   2   4 -30   69.88    4.40
  -4  -2 -30   72.26    4.67
  30   2   4   63.00    3.69
  -4   2 -30   72.41    4.62
   4   4 -30  152.39    6.54
  -4   4 -30  155.76    6.89
  30   4  -4  153.08    6.59
   4  -4 -30  156.93    6.46
  30   4   4  142.80    6.20
  -4  -4 -30  153.58    6.84
   6   0 -30  486.90   17.03
  30   0  -6  508.82   17.12
   0   6 -30  501.66   17.37
  30   6   0  510.12   17.20
  -6   0 -30  510.46   17.48
   0  -6 -30  495.47   17.30
  -6   2 -30   35.78    3.95
  30   6  -2   37.55    3.60
  30  -2  -6   29.31    3.13
   2   6 -30   31.03    3.76
  -6  -2 -30   39.32    4.15
   6   2 -30   31.81    3.31
  -2   6 -30   26.72    3.91
  30   2  -6   30.62    3.42
   6  -2 -30   30.69    3.12
  -2  -6 -30   32.13    3.68
   2  -6 -30   32.79    3.51
  -6  -4 -30   11.43    3.59
  30   6  -4   13.02    3.38
  -4  -6 -30   12.36    3.61
   4  -6 -30   10.26    2.92
  -6   4 -30   19.78    3.80
  30   4  -6   13.93    3.22
   4   6 -30    9.25    3.15
   6   4 -30   11.89    2.87
  -4   6 -30   12.84    3.56
   6  -4 -30   14.41    2.73
  -6  -6 -30   28.32    3.98
   6   6 -30   26.55    3.33
  -6   6 -30   22.32    4.07
   6  -6 -30   25.90    2.90
  30   6  -6   29.94    3.71
   0   8 -30   78.03    5.02
  30   0  -8   85.18    4.66
  -8   0 -30   80.75    5.19
   8   0 -30   78.26    4.23
   0  -8 -30   83.27    4.87
   2  -8 -30   18.82    3.25
  -2  -8 -30   27.94    3.77
   2   8 -30   20.36    3.64
   8   2 -30   24.15    2.83
  30   8  -2   24.37    3.57
  -2   8 -30   30.20    3.90
  30   2  -8   21.78    3.35
   8  -2 -30   24.74    2.83
  -8  -2 -30   25.26    4.06
  -8   2 -30   23.42    3.93
  -8  -4 -30   10.31    3.71
  -8   4 -30    5.47    3.83
   8   4 -30    9.09    2.69
   4   8 -30   16.11    3.27
  -4   8 -30   11.41    3.73
  30   4  -8    9.34    3.27
   8  -4 -30    9.45    2.62
  30   8  -4    5.55    3.49
   4  -8 -30   19.28    2.97
  30   6  -8   38.53    4.08
  -8  -6 -30   37.78    4.29
  30   8  -6   32.61    3.95
   6   8 -30   39.01    3.56
   8   6 -30   35.75    3.34
   6  -8 -30   37.08    3.15
  -6   8 -30   37.61    4.32
  -8   6 -30   36.99    4.27
   8  -6 -30   37.69    3.10
  30   8  -8    7.16    3.58
  -8   8 -30    0.85    3.66
   8  -8 -30   -2.66    2.48
   8   8 -30    0.34    2.75
  30   0 -10  112.31    5.65
   0  10 -30  120.68    5.95
   2  10 -30   24.88    3.79
  -2  10 -30   16.01    3.74
  10   2 -30   15.67    2.59
  30   2 -10   20.64    3.56
   2 -10 -30   19.54    3.28
 -10  -2 -30   21.88    4.18
   4 -10 -30   45.32    3.68
  10   4 -30   43.40    3.27
  -4  10 -30   45.44    4.39
   4  10 -30   53.45    4.13
  30  10  -4   44.43    4.28
  30   4 -10   49.71    4.21
 -10  -6 -30   56.44    4.74
  30  10  -6   63.04    4.75
  30   6 -10   55.71    4.57
   6  10 -30   60.06    4.28
  -6  10 -30   60.84    4.78
   6 -10 -30   57.27    3.78
  10   6 -30   54.00    3.70
  30   8 -10    0.54    3.81
  30  10  -8   10.56    3.71
   8  10 -30    6.89    3.14
  10   8 -30    6.34    2.69
  10  10 -30    7.21    2.87
  30  10 -10    2.22    3.74
   0  12 -30    6.71    3.62
   2  12 -30    5.63    3.42
  -2  12 -30   11.59    3.74
  30   2 -12    7.60    3.60
  -4  12 -30    9.25    3.87
   4  12 -30    6.82    3.56
  30   4 -12    4.61    3.64
 -12   6 -30  230.80    9.71
  30   6 -12  238.09    9.50
  30  12  -6  242.63    9.63
   6 -12 -30  229.81    8.94
   6  12 -30  243.19    9.32
  -6  12 -30  241.39    9.73
 -12   8 -30   84.46    5.71
  30   8 -12   85.25    5.65
  30  12  -8   88.30    5.66
  12   8 -30   84.05    4.47
   8  12 -30   95.71    5.04
 -12  10 -30   24.59    4.43
  30  10 -12   17.66    4.15
  12  10 -30   15.63    2.90
  30  12 -10   17.99    4.28
  10  12 -30   12.93    3.19
  30  12 -12  328.36   12.36
  12  12 -30  312.32   11.63
 -12  12 -30  332.92   12.46
 -14   0 -30  222.68    9.20
   0  14 -30  214.44    9.10
   2  14 -30    5.86    3.67
  -2  14 -30    3.91    3.98
 -14   2 -30    5.15    3.90
 -14  -2 -30    9.19    4.15
  30   4 -14  107.71    5.84
 -14   4 -30  103.55    6.00
  -4  14 -30  113.21    6.30
  -4  30 -14  101.09    6.49
   4  14 -30   96.58    5.67
 -14  -4 -30  118.30    6.33
  -6  30 -14   44.26    4.88
   6  14 -30   41.60    4.05
  -6  14 -30   34.07    4.69
   6 -14 -30   44.46    3.53
  30   6 -14   50.91    4.57
  30  14  -6   44.58    4.70
 -14   6 -30   34.11    4.59
  30  14  -8   -0.44    3.97
 -14   8 -30    5.42    4.17
  30   8 -14    6.19    4.00
   8  14 -30    2.35    3.42
  -8  30 -14    5.17    4.08
 -10  30 -14   19.73    4.21
  10  14 -30   26.69    3.65
 -14  10 -30   23.47    4.60
  30  10 -14   22.94    4.38
  30  14 -10   22.32    4.38
 -12  14 -30    9.09    4.43
 -14  12 -30   10.54    4.39
  14  12 -30    7.59    2.68
  30  12 -14    6.73    4.44
 -12  30 -14    2.46    4.03
  12  14 -30    5.15    3.12
  30  14 -12    5.30    4.41
 -14  14 -30   15.20    4.78
  14  14 -30   10.64    3.01
 -14  30 -14   10.86    4.04
   0  16 -30    8.26    4.11
 -16   0 -30   10.68    4.26
   2  16 -30   35.06    4.38
  -2  16 -30   30.81    4.61
 -16   2 -30   29.82    4.63
  -2  30 -16   38.58    4.95
 -16  -2 -30   36.58    4.60
 -16   4 -30  135.63    7.22
  -4  16 -30  144.83    7.29
 -16  -4 -30  150.74    7.37
  -4  30 -16  149.17    7.57
   4  16 -30  142.57    6.86
  -6  16 -30   -1.86    4.44
  30   6 -16    6.92    4.12
 -16   6 -30    9.97    4.32
 -16  -6 -30    9.22    4.44
  -6  30 -16    2.45    4.41
   6  16 -30    8.01    3.71
 -30  -8 -16   14.90    2.82
 -16  -8 -30   18.41    4.61
  30  16  -8   22.64    4.60
  30   8 -16   25.64    4.27
 -16   8 -30   16.22    4.44
  -8  30 -16   16.04    4.62
   8  16 -30   17.24    4.05
 -10  30 -16   11.42    4.52
  30  16 -10   23.06    4.59
 -10  16 -30   18.27    4.53
 -16  10 -30   12.19    4.36
  30  10 -16   13.11    4.37
  10  16 -30    7.77    3.55
  12  30 -16   15.59    3.05
 -12  16 -30    5.13    4.58
 -16  12 -30    3.91    4.36
 -12  30 -16   11.12    4.22
  12  16 -30    3.50    3.40
  14  30 -16   33.95    3.71
 -14  16 -30   35.29    5.22
 -16  14 -30   45.50    5.01
  14  16 -30   36.54    3.76
 -14  30 -16   34.06    4.76
  16  30 -16  103.57    5.74
 -16  16 -30  114.39    6.71
 -16  30 -16  114.93    6.34
   0  18 -30   20.46    4.58
 -18   0 -30   10.57    4.40
  -2  30 -18   55.74    5.57
 -18   2 -30   58.41    5.11
  -2  18 -30   51.16    5.12
 -30  -2 -18   48.96    3.55
 -18  -2 -30   49.01    5.00
   2  18 -30   45.33    4.78
  -4  18 -30   36.05    4.93
 -18  -4 -30   34.97    4.75
  -4  30 -18   39.14    5.31
 -18   4 -30   37.45    4.80
 -30  -4 -18   30.14    3.20
   4  18 -30   29.79    4.47
 -18   6 -30  140.53    7.05
   6  18 -30  131.82    6.86
 -30  -6 -18  124.66    5.90
 -18  -6 -30  140.23    7.13
  -6  30 -18  137.95    7.49
 -18  -8 -30   17.29    4.61
 -30  -8 -18   20.93    3.28
  30   8 -18   20.18    4.60
  30  18  -8   23.35    4.66
 -18   8 -30   22.84    4.52
   8  18 -30   22.50    4.22
  -8  30 -18   17.69    4.79
 -10  18 -30    1.79    4.45
 -10  30 -18    6.45    4.73
 -18  10 -30    9.01    4.45
  10  18 -30    9.42    3.74
  12  30 -18   62.58    4.07
 -18  12 -30   68.46    5.44
 -12  18 -30   74.72    5.66
 -12  30 -18   66.32    5.49
  12  18 -30   61.74    4.63
 -18  14 -30   17.97    4.60
  18  30 -14   17.53    3.97
 -14  30 -18   15.91    4.46
  14  18 -30   17.03    3.63
  14  30 -18   14.58    3.19
 -14  18 -30   16.51    4.73
 -16  18 -30   13.15    4.98
 -16  30 -18   15.48    4.25
 -18  16 -30   11.83    4.78
  30  18 -16   -0.48    4.90
  16  18 -30   10.65    3.10
  18  30 -16   12.87    3.62
  16  30 -18    3.93    3.36
  30  16 -18   11.89    4.79
  30  18 -18  119.10    7.04
  18  30 -18  117.92    6.05
 -18  30 -18  114.93    6.44
 -18  18 -30  119.99    6.93
 -30   0 -20  416.56   14.87
 -20   0 -30  433.60   15.71
   0  20 -30  454.58   15.84
 -20   2 -30   16.11    4.37
 -20  -2 -30   14.69    4.67
 -30   2 -20   12.77    2.68
   2  30 -20   17.22    5.13
  -2  20 -30   13.48    4.61
 -30  -2 -20    7.05    2.95
   2  20 -30   11.12    4.41
 -30  -4 -20   42.38    3.69
   4  20 -30   43.75    4.94
 -20   4 -30   50.20    4.88
  -4  20 -30   42.43    5.22
  -4  30 -20   39.51    5.66
 -20  -4 -30   43.06    5.19
  -6  30 -20  195.28    9.38
 -20   6 -30  204.85    8.92
 -30  -6 -20  209.85    8.23
 -20  -6 -30  204.60    9.19
   6  20 -30  206.21    8.87
 -30  -8 -20   22.47    3.41
 -20  -8 -30   21.38    4.98
 -20   8 -30   19.94    4.46
  -8  30 -20   26.88    5.29
   8  20 -30   17.02    4.31
 -10  20 -30   64.74    5.88
 -20 -10 -30   70.17    5.77
 -20  10 -30   68.63    5.53
 -10  30 -20   63.11    5.74
 -30 -10 -20   74.59    4.64
  10  20 -30   63.60    5.04
 -20  12 -30   23.26    4.65
 -12  20 -30   25.13    5.17
 -12  30 -20   24.42    4.84
  12  20 -30   16.21    3.93
  30  14 -20  125.03    6.62
  14  30 -20   92.20    5.13
  30  20 -14  112.76    6.63
  20  30 -14  104.89    6.18
 -14  20 -30  121.66    6.81
 -20  14 -30  110.56    6.56
  14  20 -30  106.99    5.64
 -14  30 -20   97.08    6.32
  30  20 -16   14.88    5.04
 -20  16 -30   16.80    4.70
  30  16 -20   16.66    4.91
 -16  30 -20   12.76    4.56
  16  30 -20   10.32    3.28
 -16  20 -30   24.73    4.88
  20  30 -16    6.12    3.76
  30  18 -20   20.62    4.87
  30  20 -18   19.75    5.20
  18  30 -20   21.42    3.54
 -20  18 -30   26.17    4.61
  20  30 -18   24.85    4.15
 -18  30 -20   17.61    4.45
 -18  20 -30   22.34    4.91
  20  30 -20  228.59    9.41
 -20  20 -30  250.55   10.16
  30  20 -20  251.91   10.28
 -20  30 -20  249.64    9.87
   0  30 -22    0.36    4.86
   0  22 -30    9.52    4.73
 -22   0 -30    3.43    4.34
 -30   0 -22    4.51    2.96
 -22  -2 -30    4.39    4.30
 -30   2 -22    6.05    3.00
 -22   2 -30    4.03    4.17
   2  30 -22    2.84    5.06
 -30  -2 -22    6.44    3.00
   2  22 -30    1.32    4.61
  -2  22 -30   11.11    4.69
 -30   4 -22   17.58    3.08
 -22   4 -30   29.98    4.44
 -30  -4 -22   23.28    3.57
  -4  30 -22   28.49    5.44
   4  22 -30   19.62    4.78
 -22  -4 -30   23.62    4.59
  -4  22 -30   18.80    5.10
 -30   6 -22   -1.46    2.81
 -22   6 -30   -0.15    4.31
   6  22 -30   -1.44    4.25
  -6  30 -22    0.18    5.10
 -30  -6 -22    4.33    3.38
 -22  -6 -30    3.38    4.57
 -22  -8 -30   66.85    5.47
 -30   8 -22   57.26    3.96
  -8  30 -22   60.97    5.86
 -22   8 -30   63.63    5.12
   8  22 -30   57.38    5.09
 -30  -8 -22   62.22    4.40
 -22 -10 -30    6.61    4.66
 -30  10 -22    6.76    2.77
  10  22 -30    8.08    3.93
 -22  10 -30   -0.77    4.36
 -10  30 -22   12.62    5.04
 -30 -10 -22    8.19    3.67
 -10  22 -30    6.14    5.15
 -12  30 -22   28.56    5.04
  30  22 -12   33.74    5.15
 -30 -12 -22   28.10    3.93
 -22 -12 -30   25.69    5.27
 -22  12 -30   32.22    4.80
 -12  22 -30   26.62    5.35
  12  22 -30   33.43    4.30
 -22  14 -30    3.52    4.37
  22  30 -14    3.10    4.27
  30  22 -14    0.16    5.07
  14  30 -22    1.00    2.73
 -14  30 -22    1.00    4.39
 -14  22 -30    8.38    4.83
 -16  22 -30   27.85    5.10
  30  22 -16   20.02    5.09
  16  30 -22   14.17    3.10
 -16  30 -22   18.37    4.60
 -22  16 -30   20.48    4.48
  22  30 -16   27.38    4.36
  22  30 -18    5.45    3.99
  18  30 -22    6.88    3.16
 -22  18 -30    9.44    4.02
  30  22 -18    8.96    4.94
 -18  30 -22    8.79    4.47
 -18  22 -30    7.20    4.56
  20  30 -22    3.49    3.26
 -20  30 -22   -0.29    3.93
 -22  20 -30    3.70    4.17
  22  30 -20   -0.51    3.63
  30  22 -20    3.58    4.63
 -20  22 -30    4.00    4.60
 -22  22 -30    3.47    4.24
  22  30 -22    3.19    3.29
 -30   0 -24  145.52    6.81
 -24   0 -30  162.70    7.51
   0  24 -30  149.08    8.06
   0  30 -24  155.63    8.18
 -30  -2 -24    3.45    3.24
 -30   2 -24    2.09    3.28
   2  24 -30   -3.39    4.81
 -24   2 -30    0.15    4.07
   2  30 -24    9.35    5.15
  -2  24 -30    0.52    5.13
 -24  -2 -30   -3.11    4.14
 -30  -4 -24   -1.43    3.39
   4  24 -30    6.53    4.55
 -30   4 -24    2.53    3.12
 -24   4 -30   -1.06    3.90
   4  30 -24    4.81    5.33
 -24  -4 -30   -4.55    4.30
  -4  24 -30    3.30    5.08
 -30   6 -24   46.93    3.78
 -24   6 -30   44.96    4.73
 -24  -6 -30   48.72    5.15
  -6  30 -24   55.94    6.16
   6  24 -30   39.53    5.26
 -30  -6 -24   44.22    4.29
 -24   8 -30    0.60    4.01
 -30  -8 -24    6.37    3.71
   8  24 -30   -2.10    4.54
  -8  30 -24    3.18    5.10
 -30   8 -24    3.04    2.90
 -24  -8 -30   -0.64    4.57
 -30  10 -24    5.17    2.87
  30  24 -10   17.78    5.34
 -24 -10 -30    9.11    4.68
 -10  24 -30   16.13    5.36
 -10  30 -24    2.45    5.24
 -30 -10 -24    4.28    3.59
 -24  10 -30    6.43    4.23
  10  24 -30   14.60    4.30
 -30 -12 -24    3.79    3.63
 -30  12 -24    5.04    2.88
 -24  12 -30   -3.71    4.05
  24  30 -12    0.46    4.32
 -12  24 -30   -1.03    5.16
  30  24 -12    2.93    4.78
 -24 -12 -30    0.16    4.86
 -12  30 -24    4.63    4.64
  24  30 -14   23.90    4.45
 -24  14 -30   34.97    4.60
 -30 -14 -24   28.49    4.33
 -24 -14 -30   33.00    5.25
 -14  30 -24   35.08    5.13
 -14  24 -30   27.98    5.49
  30  24 -14   36.67    5.34
 -30  14 -24   26.47    3.27
 -24  16 -30   31.96    4.46
  24  30 -16   34.00    4.37
  30  24 -16   26.22    5.13
 -16  30 -24   35.79    4.99
 -16  24 -30   27.38    5.20
 -30  16 -24   21.60    3.19
 -18  30 -24   31.19    4.82
 -24  18 -30   28.95    4.33
  30  24 -18   36.05    5.17
 -18  24 -30   40.20    5.20
  24  30 -18   33.08    4.52
  30  24 -20   54.19    5.24
  24  30 -20   49.86    4.65
 -20  24 -30   61.68    5.24
 -24  20 -30   52.11    4.88
 -20  30 -24   43.72    4.88
 -24  22 -30    2.52    3.87
 -22  24 -30    3.34    3.78
  24  30 -22    0.59    3.50
 -24  24 -30    0.13    3.70
   0  30 -26   11.24    5.64
 -30   0 -26   14.00    3.58
   0  26 -30    7.00    5.17
 -26   0 -30   23.85    4.34
 -26  -2 -30   -0.15    4.27
 -30   2 -26    4.61    3.48
 -26   2 -30    6.53    4.05
   2  30 -26    4.69    5.37
   2  26 -30   -1.04    5.22
  -2  26 -30    3.52    5.18
 -30  -2 -26    2.64    3.51
 -30  -4 -26   13.84    3.82
   4  26 -30    3.77    5.14
   4  30 -26   13.91    5.28
 -30   4 -26   11.92    3.46
 -26   4 -30   18.57    4.22
 -26  -4 -30   15.29    4.40
 -30  -6 -26    3.81    3.72
  -6  30 -26    4.12    5.16
 -30   6 -26   10.72    3.37
 -26   6 -30    8.30    4.06
   6  26 -30    5.22    4.80
 -26  -6 -30    9.71    4.17
 -30   8 -26    7.76    3.17
 -26   8 -30    8.07    4.14
  30  26  -8    9.07    4.96
   8  26 -30   12.35    4.73
  -8  30 -26   10.48    5.56
  -8  26 -30    7.00    4.92
 -30  -8 -26    2.35    3.74
 -26  -8 -30    8.72    4.24
 -30  10 -26    2.02    3.25
 -26  10 -30    6.56    3.76
 -10  30 -26    5.76    5.03
 -26 -10 -30   -5.34    4.68
 -30 -10 -26    4.20    3.91
  26  30 -10   -2.84    4.83
 -10  26 -30    1.56    5.33
  30  26 -10   -1.31    4.96
  26  30 -12    7.41    4.60
 -12  30 -26   11.63    5.31
 -30 -12 -26    1.13    3.77
 -26  12 -30    9.69    3.74
 -26 -12 -30    6.94    4.74
 -12  26 -30   -2.55    5.33
  30  26 -12    6.56    5.19
 -30  12 -26    9.56    3.25
 -30 -14 -26   -0.99    3.82
 -26  14 -30    0.41    3.78
  26  30 -14   -0.75    4.48
 -14  30 -26   -1.66    5.06
  30  26 -14   -3.75    4.79
 -14  26 -30    0.17    5.17
 -26 -14 -30   -1.89    4.70
 -30  14 -26   -3.25    3.12
 -30 -16 -26   -1.27    3.98
 -26 -16 -30    0.16    4.79
  30  26 -16    4.68    4.65
 -16  30 -26    4.46    4.77
  26  30 -16    2.00    4.39
 -16  26 -30    7.23    4.68
 -26  16 -30    3.89    3.86
 -30  16 -26   -2.27    2.85
 -26 -18 -30    4.46    4.53
  30  26 -18    4.02    4.64
  26  30 -18    4.31    4.18
 -18  26 -30    2.61    4.42
 -18  30 -26   -0.15    4.29
 -30  18 -26    5.85    2.80
 -26  18 -30    7.69    3.72
  30  26 -20   56.30    5.05
  26  30 -20   45.43    4.37
 -20  26 -30   44.12    4.69
 -20  30 -26   49.75    4.89
 -26  20 -30   47.51    4.23
 -22  26 -30    8.17    3.87
 -26  22 -30   -0.83    3.42
 -22  30 -26    7.66    3.68
 -24  26 -30    4.11    3.46
 -26  24 -30   -1.43    3.19
 -26  26 -30   18.71    3.04
 -30   0 -28   13.51    3.81
 -28   0 -30   10.28    3.97
   0  28 -30   15.18    5.47
   0  30 -28   10.79    5.39
 -30  -2 -28   72.49    4.75
  -2  30 -28   61.63    6.49
 -30   2 -28   61.43    4.68
 -28   2 -30   66.54    5.07
   2  28 -30   63.27    6.15
 -28  -2 -30   71.29    5.06
  -2  28 -30   71.61    6.64
   2  30 -28   53.42    6.16
   4  30 -28   38.00    5.81
 -30  -4 -28   36.97    4.30
 -30   4 -28   37.23    3.93
 -28  -4 -30   40.39    4.44
 -28   4 -30   43.05    4.46
   4  28 -30   33.95    5.52
   6  28 -30   -4.92    4.79
 -30   6 -28    2.64    3.31
 -28   6 -30    0.69    3.71
 -28  -6 -30   -5.15    4.12
  -6  30 -28    0.89    5.51
 -30  -6 -28    0.41    3.55
 -30   8 -28   13.69    3.42
 -28   8 -30    9.33    3.93
  30  28  -8   13.45    5.20
  -8  30 -28    8.45    5.42
  -8  28 -30   13.96    5.27
 -30  -8 -28    6.23    3.91
 -28  -8 -30   14.62    4.44
 -30  10 -28    4.32    3.31
 -28  10 -30   -0.80    3.63
  28  30 -10    1.10    4.52
  30  28 -10    1.91    5.10
 -10  30 -28    8.30    5.40
 -30 -10 -28    3.21    3.83
 -10  28 -30    6.36    5.32
 -28 -10 -30    4.45    3.83
  30  28 -12   38.13    5.46
  28  30 -12   44.52    5.23
 -28  12 -30   34.91    4.23
 -12  30 -28   47.46    5.86
 -30  12 -28   42.73    3.95
 -30 -12 -28   49.51    4.75
 -12  28 -30   42.28    5.57
 -28 -12 -30   50.19    4.88
 -28  14 -30   24.23    3.62
  30  28 -14   25.96    5.13
 -30  14 -28   21.66    3.35
  28  30 -14   27.12    4.85
 -14  30 -28   21.13    5.27
 -14  28 -30   25.82    4.92
 -30 -14 -28   19.80    4.27
 -28 -14 -30   23.02    4.50
 -30 -16 -28   29.06    4.47
 -28 -16 -30   25.62    4.60
  30  28 -16   15.61    4.69
 -16  30 -28   26.07    5.07
 -16  28 -30   30.03    5.15
 -30  16 -28   22.78    3.44
  28  30 -16   28.83    4.58
 -28  16 -30   28.70    3.78
 -30 -18 -28   12.53    3.80
 -28 -18 -30    3.98    4.26
 -28  18 -30    3.83    3.28
 -18  30 -28    8.16    4.18
  30  28 -18   10.79    4.02
  28  30 -18    6.00    4.03
 -18  28 -30    3.96    4.46
 -30  18 -28    5.74    2.83
 -20  30 -28    2.01    3.99
 -30 -20 -28    3.26    3.73
 -28 -20 -30    1.65    4.15
  30  28 -20    3.53    3.90
  28  30 -20    4.58    3.71
 -20  28 -30   -1.63    3.78
 -30  20 -28   -2.23    2.68
 -28  20 -30   -1.41    3.16
 -30 -22 -28   -1.37    3.95
 -28 -22 -30    0.52    4.16
 -22  30 -28    2.50    3.55
 -28  22 -30    5.50    2.91
 -22  28 -30    5.89    3.70
 -28  24 -30    1.26    2.61
 -30 -24 -28    1.40    3.64
 -28 -24 -30   -4.56    4.11
 -24  28 -30   -0.43    3.25
 -30 -26 -28    5.38    3.55
 -28 -26 -30    3.98    3.77
 -28 -28 -30    6.37    3.50
 -30 -28 -28    9.77    3.20
   0  30 -30  552.00   18.52
 -30   0 -30  470.14   17.43
 -30   2 -30   14.20    3.85
  -2  30 -30   18.50    5.84
 -30  -2 -30   11.11    3.90
   2  30 -30    9.75    5.55
 -30   4 -30   18.53    3.80
 -30  -4 -30   20.85    4.17
 -30  -6 -30  133.82    6.62
 -30   6 -30  124.00    6.26
 -30   8 -30    7.96    3.53
  30  30  -8   20.33    5.02
 -30  -8 -30    5.88    3.78
  -8  30 -30    8.42    5.54
  30  30 -10  145.91    7.28
 -30 -10 -30  127.18    6.66
 -30  10 -30  119.06    6.13
 -10  30 -30  140.84    7.64
 -30  12 -30    7.18    3.25
 -12  30 -30    9.14    5.14
  30  30 -12   13.84    4.91
 -30 -12 -30    6.10    4.08
  30  30 -14  120.13    6.76
 -30 -14 -30  120.56    6.32
 -30  14 -30  108.58    5.56
 -14  30 -30  127.81    7.25
 -30  16 -30   18.70    3.20
  30  30 -16   20.05    4.45
 -30 -16 -30   19.44    4.13
 -16  30 -30   18.56    4.95
  30  30 -18    0.49    4.04
 -18  30 -30   -4.70    4.25
 -30 -18 -30    4.58    3.74
 -30  18 -30    0.10    2.76
  30  30 -20  124.40    6.17
 -30 -20 -30  114.01    6.21
 -20  30 -30  134.24    6.39
 -30  20 -30  117.23    5.26
 -30 -22 -30    1.26    3.57
 -30  22 -30    1.60    2.15
 -30 -24 -30   25.96    3.63
 -30 -26 -30   53.03    4.03
 -28 -30 -30   -1.08    3.00
 -30 -30 -28    2.78    2.91
 -30 -28 -30   -3.14    2.87
 -30 -30 -30  191.78    7.20
   1   1 -31    3.42    3.17
  31  -1  -1    0.75    2.44
  31   1   1    0.48    2.45
  31   1  -1    2.81    2.55
  -1   1 -31    8.86    3.45
   1  -1 -31    0.73    3.16
  -1  -1 -31    3.89    3.22
  31  -3  -1   -2.20    2.17
  31  -1  -3   -0.99    2.58
   1   3 -31    2.35    3.31
   3   1 -31    2.94    2.95
  31   1  -3    0.84    2.72
  -1   3 -31    0.13    3.40
  -1  -3 -31    2.64    3.25
   3  -1 -31   -2.57    2.91
   1  -3 -31    1.57    3.21
  -3   1 -31   -0.91    3.42
  -3  -1 -31   -1.04    3.52
  31   1   3    0.46    2.36
  31   3  -1    3.63    2.78
  31   3   1    1.75    2.67
  31   3   3   -0.40    2.54
  -3  -3 -31    2.08    3.47
   3   3 -31    1.20    2.90
  -3   3 -31    1.97    3.46
   3  -3 -31    1.51    2.88
  31   3  -3   -8.07    3.07
  31   5   1   21.13    3.20
  31   5  -1   28.05    3.33
  31  -1  -5   26.73    3.22
   1   5 -31   27.15    3.76
  -1   5 -31   25.33    3.78
  31   1  -5   27.84    3.35
   5   1 -31   24.59    3.28
   5  -1 -31   24.93    3.23
  -5  -1 -31   25.44    3.84
  -1  -5 -31   22.73    3.68
  -5   1 -31   33.59    4.12
   1  -5 -31   26.57    3.57
   5   3 -31  137.40    6.11
  -3   5 -31  138.98    6.55
  31   3  -5  139.06    6.21
  31   5  -3  139.02    6.25
  -5   3 -31  139.88    6.62
  31   3   5  132.39    5.72
   5  -3 -31  136.02    5.99
  31   5   3  129.10    5.94
   3  -5 -31  139.20    6.14
  -5  -3 -31  146.94    6.63
  -3  -5 -31  135.46    6.51
   3   5 -31  137.47    6.31
  -5  -5 -31    0.27    3.59
   5   5 -31   -1.89    2.99
  -5   5 -31    2.19    3.69
   5  -5 -31    4.00    2.94
  31   5  -5    4.44    3.29
   1   7 -31   89.49    5.21
   7   1 -31   91.46    4.74
   7  -1 -31  101.07    4.76
  31  -1  -7   94.96    4.88
  31   1  -7   93.49    5.01
  -1   7 -31   97.12    5.34
  31   7  -1   89.42    5.04
  -7   1 -31   76.10    5.33
  31   7   1   90.06    4.93
   1  -7 -31   87.92    5.15
  -1  -7 -31  104.77    5.37
  -7  -1 -31   98.54    5.53
  -3   7 -31  145.34    6.72
   7  -3 -31  135.89    5.94
  31   7  -3  148.07    6.50
  -7   3 -31  148.61    6.83
  31   3  -7  146.92    6.44
   3   7 -31  131.37    6.43
   3  -7 -31  138.77    6.27
  -7  -3 -31  123.89    6.74
  -3  -7 -31  129.89    6.60
   7   3 -31  137.67    6.05
  -5  -7 -31   64.84    4.81
  31   5  -7   73.22    4.58
  31   7  -5   64.84    4.68
   7  -5 -31   63.88    3.94
   5  -7 -31   74.57    4.17
  -5   7 -31   59.14    4.87
  -7  -5 -31   71.31    4.91
  -7   5 -31   67.27    5.01
   5   7 -31   75.78    4.52
   7   5 -31   64.12    4.23
  31   7  -7   -0.26    3.62
  -7  -7 -31   -0.57    3.65
  -7   7 -31   -6.16    4.18
   7  -7 -31    0.74    2.59
   7   7 -31    0.83    2.93
   1  -9 -31    3.52    3.32
  -1  -9 -31    0.92    3.52
   1   9 -31    4.91    3.49
  -1   9 -31    2.58    3.62
  31   1  -9    9.34    3.35
   9   1 -31    7.68    2.63
   9  -1 -31    4.42    2.49
  -9   1 -31    3.42    4.02
  -9  -1 -31    6.70    3.87
   3   9 -31   70.65    4.64
  -9   3 -31   70.83    5.09
  31   9  -3   61.69    4.75
  -3   9 -31   58.04    4.72
  31   3  -9   62.65    4.57
   3  -9 -31   68.10    4.41
  -3  -9 -31   73.45    4.80
   9   3 -31   60.84    3.90
  -9  -3 -31   69.77    5.12
  -9  -5 -31   31.76    4.43
  31   9  -5   34.68    4.06
   5   9 -31   32.97    3.77
   5  -9 -31   31.66    3.39
  -5   9 -31   42.33    4.40
  31   5  -9   33.95    4.12
  -9   5 -31   27.69    4.35
   9   5 -31   37.64    3.34
  -7   9 -31  105.65    6.11
  31   7  -9  117.80    6.01
  31   9  -7  110.38    5.99
   7  -9 -31  102.87    5.07
   9   7 -31  113.83    5.35
  -9  -7 -31  107.64    6.24
   7   9 -31  105.40    5.45
   9   9 -31   -2.23    3.01
  31   9  -9    0.97    3.90
   1  11 -31    6.05    3.62
  31   1 -11    8.06    3.47
  -1  11 -31   -0.14    3.84
   1 -11 -31    0.13    3.33
   3 -11 -31   20.88    3.37
   3  11 -31   18.01    3.78
  -3  11 -31   24.67    4.27
  31   3 -11   20.97    3.82
  31  11  -3   26.48    4.06
  31   5 -11  110.26    5.82
  31  11  -5  108.76    5.92
   5 -11 -31  103.22    5.14
 -11  -5 -31  109.98    6.21
  -5  11 -31  100.62    5.91
  11   5 -31   95.11    4.81
   5  11 -31  100.35    5.58
 -11  -7 -31   76.75    5.71
  31   7 -11   75.99    5.28
  31  11  -7   89.14    5.44
   7  11 -31   87.60    4.90
   7 -11 -31   78.70    4.39
  11   7 -31   77.21    4.42
  -7  11 -31   79.43    5.60
  11   9 -31    2.81    2.77
   9  11 -31    1.59    3.03
  31   9 -11    4.67    3.95
  31  11  -9    4.45    4.16
  31  11 -11    6.15    4.11
  11  11 -31    2.60    2.82
   1  13 -31  214.28    9.19
  -1  13 -31  222.63    9.21
  31   3 -13  182.32    7.66
 -13   3 -31  165.96    7.95
   3  13 -31  167.82    7.64
  -3  13 -31  169.58    7.95
   5  13 -31   -0.81    3.53
  -5  13 -31    5.13    4.21
  31  13  -5    3.01    3.95
  31   5 -13    9.36    3.84
 -13   5 -31    1.66    4.08
   5 -13 -31   -0.59    2.84
 -13   7 -31  309.33   11.88
  31   7 -13  315.34   11.74
  31  13  -7  309.64   11.83
   7 -13 -31  295.73   11.02
   7  13 -31  311.59   11.49
  -7  13 -31  293.64   11.88
  31   9 -13  290.18   11.02
  31  13  -9  283.98   10.99
   9  13 -31  272.84   10.59
 -13   9 -31  273.58   11.14
  31  11 -13   14.73    4.42
 -11  13 -31   14.07    4.53
 -13  11 -31    9.56    4.55
  13  11 -31   12.49    2.95
  31  13 -11   15.39    4.42
  11  13 -31    9.73    3.11
  31  13 -13    9.03    4.49
 -13  13 -31    0.80    4.46
  13  13 -31    3.07    2.75
 -15   1 -31   25.33    4.66
 -15  -1 -31   21.39    4.52
  -1  15 -31   24.99    4.42
   1  15 -31   21.97    4.33
   3  15 -31   16.15    3.97
 -15   3 -31   20.15    4.45
  -3  15 -31   20.83    4.37
 -15  -3 -31   20.83    4.59
   5  15 -31   11.62    3.89
  -5  15 -31   13.83    4.43
  31   5 -15   14.20    4.09
 -15   5 -31    7.23    4.34
 -15  -5 -31    8.99    4.45
   7 -15 -31   13.86    2.80
   7  15 -31   12.63    3.83
  31   7 -15   12.33    4.06
 -15   7 -31   13.68    4.45
  31  15  -7   12.87    4.34
  31  15  -9   21.28    4.66
  -9  31 -15   18.05    4.57
 -15   9 -31   36.33    4.87
  31   9 -15   31.14    4.56
   9  15 -31   23.56    3.86
 -11  15 -31   23.29    4.76
  11  31 -15   14.47    2.99
 -15  11 -31   18.20    4.64
  31  11 -15   22.60    4.62
  11  15 -31   15.51    3.61
  31  15 -11   22.21    4.86
 -13  15 -31    7.49    4.76
 -15  13 -31    7.89    4.55
  13  15 -31   10.71    3.27
  13  31 -15    9.92    3.02
 -15  15 -31   -3.26    4.76
  15  31 -15    1.38    3.26
  15  15 -31   -0.93    2.96
 -17   1 -31   89.36    5.97
 -17  -1 -31   86.61    5.89
  -1  17 -31   86.98    5.96
   1  17 -31   85.66    5.74
  -3  17 -31   14.66    4.62
   3  17 -31   11.63    4.30
  -3  31 -17   11.45    4.79
 -17   3 -31   15.32    4.53
 -17  -3 -31   13.76    4.61
  -5  17 -31   21.28    4.60
   5  17 -31   22.50    4.15
 -17   5 -31   28.55    4.57
  -5  31 -17   22.12    4.78
 -17  -5 -31   22.48    4.75
   7 -17 -31   37.04    3.30
  31  17  -7   35.94    4.90
 -17   7 -31   36.35    4.99
 -17  -7 -31   38.56    5.14
  -7  31 -17   32.65    5.04
 -31  -7 -17   36.04    3.20
   7  17 -31   35.81    4.50
 -17  -9 -31   45.73    5.19
 -31  -9 -17   37.46    3.54
  31  17  -9   45.27    5.28
 -17   9 -31   45.97    5.05
   9  17 -31   44.74    4.41
  -9  31 -17   42.41    5.18
  31   9 -17   38.59    4.99
 -11  17 -31    2.64    4.69
 -17  11 -31    1.75    4.47
 -11  31 -17    0.99    4.43
  11  17 -31   -3.00    3.60
 -13  17 -31   17.03    4.92
 -13  31 -17   31.00    4.79
 -17  13 -31   23.82    4.90
  13  31 -17   15.79    3.13
  13  17 -31   18.25    3.66
 -17  15 -31   12.65    4.75
 -15  31 -17   13.58    4.23
  15  17 -31    2.95    3.13
  15  31 -17   10.36    3.35
 -15  17 -31    4.78    4.67
 -17  17 -31   -2.28    4.73
  31  17 -17   -7.60    4.67
  17  31 -17   -0.76    3.44
 -19  -1 -31   14.90    4.59
  -1  19 -31   15.34    4.77
   1  19 -31   15.93    4.51
 -19   1 -31   25.18    4.86
  -3  19 -31   45.29    5.20
  -3  31 -19   47.37    5.53
 -19   3 -31   38.42    4.83
 -31  -3 -19   36.86    3.38
 -19  -3 -31   39.50    5.05
   3  19 -31   35.34    4.73
   5  19 -31    3.10    4.26
  -5  19 -31    1.81    4.57
 -31  -5 -19    1.68    2.82
 -19   5 -31    0.16    4.37
  -5  31 -19    0.70    5.00
 -19  -5 -31    6.81    4.53
  31  19  -7  103.47    6.27
 -19  -7 -31   85.15    6.20
 -19   7 -31   84.49    5.97
 -31  -7 -19   77.79    4.53
   7  19 -31   88.68    5.67
  -7  31 -19   85.01    6.19
 -31  -9 -19   -1.81    2.97
 -19   9 -31    3.48    4.30
  -9  31 -19    1.55    4.86
   9  19 -31   -0.74    3.86
 -19  -9 -31   -1.83    4.68
 -11  19 -31    8.68    4.74
 -19  11 -31    7.31    4.44
 -11  31 -19   11.35    4.80
 -19 -11 -31    9.78    5.04
 -31 -11 -19    9.08    3.20
  11  19 -31    5.25    3.62
 -19  13 -31   10.39    4.75
  13  31 -19    4.55    2.70
 -13  31 -19    6.31    4.68
 -13  19 -31   10.33    5.04
  13  19 -31    2.04    3.44
 -15  19 -31    1.98    4.64
  19  31 -15    5.50    3.84
 -19  15 -31   -4.32    4.49
  15  31 -19    0.34    3.02
  31  15 -19    0.94    4.99
 -15  31 -19    0.65    4.31
  15  19 -31    3.57    3.32
  31  19 -15   -1.29    4.80
 -19  17 -31   19.60    4.80
  17  31 -19   27.44    3.71
 -17  19 -31   28.29    5.19
 -17  31 -19   21.98    4.50
  31  17 -19   22.70    5.13
  31  19 -17   18.55    5.21
  19  31 -17   26.14    3.77
  19  31 -19   -5.97    3.52
  31  19 -19    3.57    4.85
 -19  19 -31    8.72    4.79
   1  31 -21    9.85    5.05
   1  21 -31   18.86    4.93
 -31   1 -21   15.64    2.96
 -31  -1 -21   16.74    2.99
 -21  -1 -31   20.24    4.68
 -21   1 -31    9.20    4.41
  -1  21 -31   15.88    4.88
   3  21 -31    4.23    4.49
  -3  21 -31    2.52    4.94
 -21  -3 -31   -0.16    4.61
 -31   3 -21   -1.08    2.70
 -21   3 -31    3.15    4.32
 -31  -3 -21    0.35    2.90
  -3  31 -21    1.97    5.28
  -5  31 -21  105.30    7.06
 -21   5 -31  121.63    6.55
 -31  -5 -21  102.90    5.49
 -21  -5 -31  121.90    6.73
   5  21 -31  112.75    6.59
  -5  21 -31  104.95    7.02
   7  21 -31  117.19    6.39
 -31  -7 -21  105.94    5.68
 -21  -7 -31  124.46    7.09
 -21   7 -31  120.00    6.72
  -7  31 -21  122.55    7.15
 -21  -9 -31    4.16    4.75
 -21   9 -31    9.08    4.44
   9  21 -31   11.26    4.15
 -31  -9 -21   13.65    3.28
  -9  31 -21   12.95    5.27
 -31 -11 -21   17.50    3.63
 -21 -11 -31   14.63    5.07
  11  21 -31   14.74    4.18
 -21  11 -31   18.05    4.70
 -11  21 -31   18.05    4.96
 -11  31 -21    7.24    5.14
  31  21 -13  151.75    7.81
  21  31 -13  141.06    6.99
  13  21 -31  130.73    6.75
 -13  31 -21  143.78    7.63
 -13  21 -31  148.46    7.83
 -21  13 -31  131.33    7.36
  21  31 -15    9.32    4.16
 -21  15 -31   12.18    4.40
 -15  21 -31    3.17    4.85
  15  31 -21    9.79    2.85
  31  21 -15    9.32    5.06
 -15  31 -21   11.44    4.49
  31  21 -17   53.32    5.36
  21  31 -17   44.87    4.57
  17  31 -21   43.33    3.83
 -21  17 -31   46.94    5.05
 -17  21 -31   48.18    5.51
  31  17 -21   59.98    5.44
 -17  31 -21   43.51    5.07
  31  21 -19   47.65    5.29
  19  31 -21   48.49    3.98
  21  31 -19   42.04    4.48
 -19  21 -31   57.66    5.16
  31  19 -21   55.55    5.26
 -21  19 -31   53.89    5.23
  31  21 -21   -1.18    4.79
  21  31 -21   -2.58    3.33
 -21  21 -31    6.44    4.33
   1  31 -23   35.90    5.81
 -31   1 -23   48.20    3.79
 -23   1 -31   51.16    5.17
   1  23 -31   51.40    5.42
 -23  -1 -31   50.07    5.21
 -31  -1 -23   45.05    3.85
  -1  23 -31   56.87    5.65
 -31   3 -23   59.15    4.22
 -31  -3 -23   68.97    4.54
 -23   3 -31   69.41    5.45
 -23  -3 -31   76.23    5.71
   3  23 -31   68.71    5.90
  -3  23 -31   77.48    6.34
 -31   5 -23   36.47    3.50
   5  23 -31   37.31    5.03
 -23   5 -31   32.94    4.86
  -5  31 -23   38.84    5.82
 -31  -5 -23   41.03    3.93
 -23  -5 -31   40.47    5.20
 -31   7 -23   16.70    3.06
 -23   7 -31   15.26    4.49
  -7  31 -23   18.98    5.56
   7  23 -31   22.99    4.47
 -31  -7 -23   18.39    3.59
 -23  -7 -31   16.57    4.80
 -31   9 -23   23.00    3.12
 -23   9 -31   19.46    4.30
  -9  31 -23   21.23    5.37
   9  23 -31   26.18    4.40
  -9  23 -31   21.88    5.45
 -31  -9 -23   22.89    3.70
 -23  -9 -31   24.49    4.99
 -23 -11 -31    3.31    4.98
  31  23 -11    7.37    4.87
 -23  11 -31   12.22    4.30
  11  23 -31   22.39    4.32
 -11  31 -23   12.16    5.31
 -11  23 -31   13.25    5.00
 -31 -11 -23    8.00    3.56
 -23  13 -31   77.06    5.61
  23  31 -13   68.62    5.59
 -23 -13 -31   75.76    6.23
 -31 -13 -23   78.31    5.03
  31  23 -13   74.62    6.38
 -13  31 -23   72.61    6.12
 -13  23 -31   83.01    6.51
 -15  23 -31   -0.83    4.92
 -23  15 -31    2.54    4.27
 -15  31 -23    3.28    4.66
  31  23 -15    3.81    4.82
 -31 -15 -23    3.41    3.50
 -23 -15 -31    4.81    4.87
  23  31 -15   -6.16    4.27
 -17  31 -23   38.62    5.11
 -17  23 -31   56.03    5.43
 -23  17 -31   51.58    5.00
  31  23 -17   54.17    5.40
  23  31 -17   59.75    4.87
  23  31 -19   -1.15    3.71
  31  23 -19    0.15    4.68
 -19  31 -23    2.49    3.85
 -19  23 -31   -2.62    4.47
 -23  19 -31    3.74    4.04
  31  23 -21   16.27    4.62
  23  31 -21    7.40    3.53
 -21  23 -31    4.92    4.34
 -23  21 -31   10.36    4.13
 -23  23 -31    3.20    3.95
 -25  -1 -31   43.31    5.09
   1  31 -25   48.38    6.04
 -31   1 -25   47.89    4.07
 -31  -1 -25   51.88    4.05
 -25   1 -31   65.10    5.08
   1  25 -31   46.83    5.88
  -1  25 -31   54.91    6.01
   3  25 -31   13.11    4.80
 -31   3 -25   23.78    3.46
 -25   3 -31    8.21    4.34
 -31  -3 -25   16.89    3.49
 -25  -3 -31   10.92    4.61
  -3  25 -31   19.23    5.24
  -5  31 -25    2.54    5.34
 -31   5 -25    5.73    3.15
 -25   5 -31   14.59    4.28
 -31  -5 -25    8.40    3.52
   5  25 -31   15.43    4.85
 -25  -5 -31   12.38    4.24
 -25  -7 -31   18.49    4.86
 -31   7 -25   13.87    3.14
  -7  31 -25   12.38    5.51
 -25   7 -31   19.80    4.41
   7  25 -31   20.39    4.87
 -31  -7 -25   15.59    3.58
   9  25 -31   78.31    5.81
  31  25  -9   79.22    6.51
 -31  -9 -25   78.94    5.11
  -9  31 -25   85.13    6.66
 -31   9 -25   78.09    4.46
  -9  25 -31   81.54    6.54
 -25   9 -31   81.60    5.41
 -25  -9 -31   85.16    5.97
  31  25 -11  109.04    7.05
  25  31 -11  107.35    6.41
 -31  11 -25   92.36    4.96
 -31 -11 -25  102.88    5.83
 -25 -11 -31   94.91    6.43
 -11  31 -25  103.32    7.03
 -11  25 -31  101.83    6.90
 -25  11 -31  112.69    5.96
 -25 -13 -31    9.30    4.63
 -13  31 -25    7.42    5.05
  25  31 -13   23.55    4.55
 -25  13 -31   11.50    4.03
  31  25 -13   15.26    5.14
 -31 -13 -25   16.05    3.97
 -13  25 -31   11.11    5.32
 -31  13 -25    6.21    2.86
 -31 -15 -25   21.64    4.25
 -25 -15 -31   24.22    5.15
 -15  31 -25   27.75    5.00
  31  25 -15   30.41    5.48
 -25  15 -31   28.97    4.12
 -15  25 -31   36.28    5.42
  25  31 -15   24.77    4.51
 -31 -17 -25   -1.22    3.84
 -25 -17 -31   -4.41    4.60
  25  31 -17    0.14    3.80
 -17  25 -31    7.38    4.90
  31  25 -17    5.63    4.87
 -17  31 -25   -4.16    4.20
 -25  17 -31    6.99    3.91
 -19  31 -25   17.50    4.23
  31  25 -19    3.95    4.55
  25  31 -19    4.03    3.82
 -19  25 -31    3.43    4.42
 -25  19 -31    6.77    3.84
 -21  25 -31   53.04    4.80
  31  25 -21   46.07    5.03
  25  31 -21   47.84    4.37
 -25  21 -31   47.31    4.53
 -25  23 -31   39.07    4.11
 -23  25 -31   47.83    4.42
 -25  25 -31    2.41    3.24
 -31   1 -27   14.88    3.45
 -27   1 -31   14.37    4.22
 -31  -1 -27   14.09    3.52
 -27  -1 -31   19.51    4.49
   1  31 -27   21.09    5.62
  -1  31 -27   19.58    5.84
   1  27 -31   14.96    5.19
  -1  27 -31   16.32    5.66
 -31   3 -27   21.79    3.64
 -27   3 -31   25.37    4.39
 -31  -3 -27   20.66    3.82
  -3  27 -31   20.76    5.36
 -27  -3 -31   21.25    4.49
   3  27 -31   27.23    5.51
 -31   5 -27   23.62    3.53
 -27   5 -31   27.30    4.25
 -27  -5 -31   25.92    4.27
 -31  -5 -27   22.06    3.96
   5  27 -31   17.79    5.34
 -31   7 -27   16.79    3.34
 -27   7 -31   18.62    4.11
   7  27 -31   22.13    4.94
  31  27  -7   23.19    5.42
  -7  31 -27   20.10    5.89
 -31  -7 -27   22.39    4.04
 -27  -7 -31   25.52    4.54
  31  27  -9   48.31    5.77
 -27   9 -31   46.42    4.55
  27  31  -9   34.45    5.41
  -9  31 -27   45.70    6.06
  -9  27 -31   48.42    6.02
 -31  -9 -27   36.29    4.37
 -31   9 -27   48.25    3.76
 -27  -9 -31   50.79    4.94
  31  27 -11   49.32    5.80
 -31  11 -27   43.84    3.74
 -27  11 -31   52.82    4.64
  27  31 -11   51.67    5.25
 -11  31 -27   56.93    5.97
 -31 -11 -27   51.15    4.62
 -11  27 -31   53.31    6.02
 -27 -11 -31   42.96    4.87
 -27  13 -31   35.77    4.10
 -13  27 -31   32.38    5.47
 -27 -13 -31   39.78    5.03
 -13  31 -27   52.34    5.67
 -31 -13 -27   31.32    4.40
  31  27 -13   48.36    5.37
  27  31 -13   41.14    5.02
 -31  13 -27   38.53    3.46
 -27  15 -31   20.13    3.82
  27  31 -15   17.43    4.68
  31  27 -15   21.57    5.04
 -15  31 -27   15.22    4.99
 -15  27 -31   18.47    4.87
 -31  15 -27   14.89    2.94
 -31 -15 -27   17.62    3.72
 -27 -15 -31   12.87    4.40
 -31 -17 -27   20.10    3.77
 -27 -17 -31   21.58    4.79
 -27  17 -31   13.38    3.81
  31  27 -17   16.96    4.67
  27  31 -17   15.17    4.29
 -17  31 -27   22.59    4.54
 -17  27 -31   21.36    4.76
 -31 -19 -27    4.60    3.79
 -27 -19 -31    5.56    4.31
  31  27 -19    6.34    4.28
 -19  31 -27    5.53    3.85
  27  31 -19    9.26    3.76
 -19  27 -31   -4.68    4.49
 -27  19 -31    5.08    3.38
  27  31 -21   15.99    3.72
 -21  27 -31    4.55    3.73
 -27  21 -31    5.08    3.31
 -27 -21 -31    6.16    4.35
 -31 -21 -27    7.73    3.69
 -27 -23 -31    2.72    4.34
 -23  27 -31    2.55    3.67
 -31 -23 -27   11.27    3.74
 -27  23 -31    4.56    3.01
 -31 -25 -27    8.52    3.44
 -27 -25 -31    9.90    4.08
 -25  27 -31    6.60    3.13
 -27  25 -31   10.14    2.85
 -31 -27 -27    3.13    3.24
 -27 -27 -31    0.55    3.70
  -1  29 -31    7.68    5.33
  -1  31 -29   -4.79    5.86
 -31   1 -29   -2.51    3.40
 -29   1 -31    0.27    3.72
 -31  -1 -29    3.70    3.51
 -29  -1 -31   -5.39    3.98
   1  29 -31    5.03    5.38
   1  31 -29   -5.10    5.66
 -31   3 -29    0.12    3.31
 -29   3 -31   -1.75    3.75
 -31  -3 -29    0.77    3.62
 -29  -3 -31    0.84    3.87
  -3  29 -31    0.87    5.53
   3  29 -31    0.69    4.92
 -31   5 -29   32.37    3.70
   5  29 -31   40.32    5.34
 -29   5 -31   38.09    4.29
 -31  -5 -29   37.49    4.25
 -29  -5 -31   31.70    4.45
 -31   7 -29  147.04    6.61
 -31  -7 -29  148.68    6.99
 -29  -7 -31  145.94    7.18
  31  29  -7  155.75    7.86
  -7  31 -29  159.77    8.48
 -29   7 -31  145.02    6.94
  31  29  -9   15.05    5.12
  29  31  -9   18.38    5.14
 -29   9 -31   14.31    3.71
 -31   9 -29   15.81    3.24
  -9  31 -29   13.64    5.43
  -9  29 -31   13.54    5.50
 -31  -9 -29   17.90    3.89
 -29  -9 -31   12.82    3.90
  29  31 -11   15.10    4.54
 -31  11 -29   10.45    3.15
 -29  11 -31    9.83    3.45
 -11  29 -31   11.56    5.33
 -11  31 -29    5.64    4.95
 -31 -11 -29   10.49    3.62
 -29 -11 -31    3.93    4.13
  31  29 -11    9.20    4.79
  31  29 -13  177.12    8.14
 -29  13 -31  157.76    7.12
  29  31 -13  164.73    7.93
 -31 -13 -29  155.92    7.36
 -29 -13 -31  166.60    7.66
 -13  29 -31  172.65    8.39
 -13  31 -29  161.55    8.33
 -29  15 -31   16.09    3.42
  31  29 -15   16.06    4.69
 -15  31 -29    9.30    4.79
  29  31 -15   13.64    4.02
 -15  29 -31   11.60    5.02
 -31 -15 -29   10.25    3.79
 -31  15 -29   14.08    2.92
 -29 -15 -31   10.52    4.04
 -29 -17 -31    8.78    4.20
 -17  31 -29    7.00    4.41
 -17  29 -31    7.48    4.65
  31  29 -17   10.52    4.25
  29  31 -17   11.69    4.17
 -31  17 -29    3.38    2.67
 -31 -17 -29   10.50    3.75
 -29  17 -31    6.02    3.17
 -29 -19 -31    3.72    4.12
  31  29 -19   -0.97    3.80
 -19  31 -29    5.10    4.00
 -19  29 -31    1.06    4.12
  29  31 -19    0.35    3.75
 -29  19 -31    4.47    2.96
 -31 -19 -29    2.29    3.56
 -29 -21 -31   -2.19    3.83
 -29  21 -31   -3.25    2.69
 -21  29 -31   -2.52    3.72
 -31 -21 -29    0.23    3.58
 -31 -23 -29   29.68    3.82
 -29  23 -31   35.04    2.93
 -29 -23 -31   37.71    4.14
 -23  29 -31   39.22    3.75
 -31 -25 -29   36.13    3.73
 -29 -25 -31   41.61    3.90
 -31 -29 -27   32.47    3.36
 -29 -27 -31   37.07    3.70
 -27 -29 -31   41.84    3.90
 -31 -27 -29   36.72    3.41
 -29 -31 -29    1.13    2.72
 -29 -29 -31   -0.57    2.75
  -1  31 -31    5.62    5.36
   1  31 -31    4.22    5.40
 -31   1 -31   -4.91    3.54
 -31  -1 -31   -2.00    3.40
  -3  31 -31   -3.24    5.86
 -31   3 -31    1.81    3.40
 -31  -3 -31   -4.55    3.53
 -31   5 -31    5.78    3.49
 -31  -5 -31    1.40    3.64
 -31   7 -31    1.72    3.15
  31  31  -7   -1.96    4.87
 -31  -7 -31   -4.21    3.68
  -7  31 -31    5.68    5.50
  31  31  -9   -1.46    4.44
 -31   9 -31    1.10    3.09
  -9  31 -31   -0.49    5.48
 -31  -9 -31   -1.40    3.66
 -11  31 -31   -0.32    4.87
 -31 -11 -31   -6.04    3.80
  31  31 -11    2.83    4.55
 -31  11 -31    6.41    3.02
 -31 -13 -31   -3.83    3.73
 -13  31 -31   -5.92    4.80
  31  31 -13    2.83    4.44
 -31  13 -31   -3.01    2.90
 -31  15 -31   -0.66    2.69
  31  31 -15    3.55    4.00
 -31 -15 -31   -0.60    3.48
 -15  31 -31   -6.89    4.79
  31  31 -17    0.47    3.67
 -17  31 -31    0.27    4.29
 -31 -17 -31   -0.12    3.57
 -31  17 -31    2.31    2.53
  31  31 -19    1.40    3.48
 -31  19 -31   -1.81    2.27
 -19  31 -31    6.52    3.60
 -31 -19 -31    2.76    3.47
 -31 -21 -31   -0.52    3.18
 -31 -23 -31   -1.62    3.06
 -31 -25 -31   -3.25    2.90
 -31 -31 -27    1.97    2.53
 -27 -31 -31    1.61    2.95
 -31 -29 -31    0.31    2.07
 -31 -31 -29   -0.91    2.01
 -29 -31 -31    3.16    2.30
 -31 -31 -31   -0.60    1.46
   0   0 -32  757.78   25.55
  32   0   0  766.20   25.14
   0   2 -32  233.51    9.14
   2   0 -32  216.57    8.89
  32   2   0  217.01    8.63
  32   0  -2  232.26    8.63
  -2   0 -32  230.75    9.20
   0  -2 -32  242.86    9.12
   2   2 -32  106.70    5.54
  32  -2  -2  101.70    4.83
  32   2  -2  102.64    5.13
  32   2   2  107.60    4.95
  -2   2 -32  112.33    5.74
   2  -2 -32  113.17    5.54
  -2  -2 -32  106.47    5.65
   0  -4 -32   -0.38    3.31
  32   0  -4   -2.77    2.75
   0   4 -32    2.11    3.46
  -4   0 -32   -1.24    3.68
   4   0 -32    3.57    2.95
  32   4   0    0.66    2.92
   2   4 -32   79.15    4.92
   4   2 -32   79.82    4.74
  32  -2  -4   84.08    4.34
  32   2  -4   89.07    4.71
   4  -2 -32   89.13    4.69
  32   2   4   79.35    4.17
  32   4   2   72.46    4.33
  -4   2 -32   85.22    5.17
   2  -4 -32   80.67    4.74
  -4  -2 -32   78.87    5.03
  -2  -4 -32   76.71    5.01
  -2   4 -32   74.26    5.16
  32   4  -2   83.92    4.73
   4   4 -32  447.16   15.71
  -4   4 -32  442.45   15.98
  32   4  -4  464.29   15.69
  32   4   4  445.23   15.40
   4  -4 -32  447.02   15.61
  -4  -4 -32  448.66   15.94
   0   6 -32   83.90    5.26
   6   0 -32   82.80    4.76
  32   0  -6   93.49    4.86
  32   6   0  102.01    5.04
  -6   0 -32   83.79    5.51
   0  -6 -32   95.94    5.24
  32   6  -2    3.38    3.17
  -2  -6 -32    1.75    3.55
  32   6   2    2.40    2.90
   2   6 -32    0.78    3.41
   6   2 -32   -0.70    2.95
  -2   6 -32   -0.28    3.58
  32   2  -6   -0.12    3.09
   6  -2 -32    4.05    2.72
  -6   2 -32    3.98    3.75
  -6  -2 -32    5.09    3.72
   2  -6 -32    1.74    3.05
  32   4   6   19.70    2.75
   4   6 -32   19.53    3.51
   6   4 -32   23.08    3.29
  32   6   4   18.93    3.18
  -4   6 -32   18.56    4.16
  32   6  -4   21.41    3.62
  -6   4 -32   21.30    4.13
  32   4  -6   19.58    3.53
   6  -4 -32   24.26    3.10
   4  -6 -32   24.80    3.36
  -6  -4 -32   25.83    4.22
  -4  -6 -32   20.14    3.98
  -6  -6 -32   17.05    4.08
   6  -6 -32   18.28    3.07
   6   6 -32   18.06    3.30
  -6   6 -32   16.26    4.24
  32   6  -6   23.47    3.88
  32   0  -8    7.61    3.26
  32   8   0   10.05    3.29
   0   8 -32    5.21    3.46
  -8   0 -32    4.65    3.98
   8   0 -32    9.73    2.76
   0  -8 -32    4.60    3.46
  -2   8 -32  101.56    5.74
   8  -2 -32   96.35    4.83
  32   2  -8   94.52    5.32
  32   8  -2  101.80    5.54
  -8   2 -32   96.06    5.82
  -8  -2 -32  102.43    5.94
   2  -8 -32  103.87    5.34
  -2  -8 -32  105.61    5.77
   2   8 -32   95.43    5.54
   8   2 -32  106.78    4.99
  -4  -8 -32   27.95    4.32
   4   8 -32   32.78    3.90
   8   4 -32   33.28    3.41
  32   8  -4   27.45    4.01
  -4   8 -32   33.44    4.41
  32   4  -8   36.65    3.96
   8  -4 -32   31.10    3.14
  -8   4 -32   27.88    4.44
   4  -8 -32   32.56    3.52
  -8  -4 -32   28.13    4.42
  -6  -8 -32    5.57    4.17
   6   8 -32    4.55    3.14
   8   6 -32    6.58    3.04
   8  -6 -32    3.04    2.54
  -6   8 -32    6.20    4.12
  -8   6 -32    7.73    4.16
  32   6  -8    3.42    3.79
  -8  -6 -32    4.63    3.95
   6  -8 -32    3.82    2.94
  32   8  -6    9.63    3.96
  32   8  -8  233.47    9.59
   8  -8 -32  243.54    8.85
  -8  -8 -32  228.47    9.85
  -8   8 -32  249.78    9.79
   8   8 -32  226.23    9.17
   0  10 -32   71.37    5.04
   0 -10 -32   67.45    4.73
 -10   0 -32   68.51    5.42
   2 -10 -32   12.26    3.41
  -2 -10 -32   15.02    3.93
   2  10 -32   16.28    3.88
  10   2 -32   21.63    2.74
  -2  10 -32   15.88    4.15
  32   2 -10   18.02    3.69
  32  10  -2   16.14    3.92
 -10   2 -32   12.61    4.15
 -10  -2 -32   21.57    4.48
  -4 -10 -32    0.58    3.95
  32  10  -4   -0.95    3.78
   4  10 -32   -1.08    3.57
  10   4 -32   -0.43    2.68
  -4  10 -32   -2.50    3.99
  32   4 -10    4.16    3.57
 -10  -4 -32   -1.67    4.34
   4 -10 -32    1.09    3.02
 -10  -6 -32    4.45    4.26
  32  10  -6    2.64    3.83
  10   6 -32    1.23    2.77
   6  10 -32    0.13    3.32
  -6  10 -32    1.81    4.20
   6 -10 -32    5.33    2.72
  32   6 -10   -3.11    3.70
  10   8 -32    7.26    2.99
   8  10 -32   12.55    3.22
 -10  -8 -32    6.38    4.37
  -8  10 -32   12.74    4.35
   8 -10 -32    4.71    2.58
  32  10  -8    7.69    4.26
  32   8 -10    8.01    3.89
  32  10 -10    0.44    3.91
  10  10 -32    6.50    3.16
   0 -12 -32   68.60    4.89
   0  12 -32   69.01    5.21
   2 -12 -32  220.67    9.15
   2  12 -32  233.98    9.46
  -2  12 -32  239.96    9.55
   4 -12 -32    1.35    3.05
   4  12 -32    0.70    3.73
  -4  12 -32    5.76    4.22
  32  12  -4   11.67    4.06
  32   4 -12    7.40    3.92
  32  12  -6    3.33    4.00
  -6  12 -32    6.34    4.25
  32   6 -12    2.63    3.84
   6  12 -32    2.96    3.66
   6 -12 -32    3.91    2.81
  32   8 -12  268.73   10.42
  32  12  -8  256.27   10.43
 -12  -8 -32  273.33   10.70
  12   8 -32  254.23    9.57
   8  12 -32  253.41    9.97
  12  10 -32   10.66    2.99
 -12  10 -32   10.15    4.54
  32  12 -10    9.60    4.36
  32  10 -12    5.62    4.24
  10  12 -32    4.54    3.29
  12  12 -32  328.82   12.39
  32  12 -12  361.45   13.15
 -12  12 -32  356.72   13.30
 -14   0 -32  109.50    6.56
   0  14 -32  120.04    6.45
   2  14 -32    3.09    3.84
  -2  14 -32    5.51    4.22
 -14   2 -32    2.67    4.24
   4 -14 -32    6.73    3.26
  -4  14 -32    4.83    4.36
  32  14  -4   14.94    4.09
 -14   4 -32   15.51    4.52
   4  14 -32   13.76    4.02
   6 -14 -32    5.47    2.96
  -6  14 -32    5.55    4.56
  32  14  -6    3.31    4.22
  32   6 -14    1.14    4.02
 -14   6 -32    5.84    4.58
   6  14 -32    1.96    3.61
  32  14  -8    3.81    4.30
  32   8 -14    4.96    4.25
 -14   8 -32    7.64    4.52
   8  14 -32    8.46    3.52
  10  14 -32    2.25    3.40
 -14  10 -32    3.37    4.57
  32  10 -14    7.49    4.40
  32  14 -10    0.46    4.50
  32  14 -12   15.80    4.80
 -12  14 -32   12.32    4.84
 -14  12 -32   20.16    4.68
  12  14 -32   20.10    3.53
  12  32 -14   11.88    3.03
  32  12 -14   17.97    4.62
  32  14 -14   16.49    4.90
 -14  14 -32   21.77    4.91
  14  32 -14   14.54    3.32
  14  14 -32   13.23    3.12
 -16   0 -32   26.77    4.87
   0  16 -32   18.08    4.54
   2  16 -32    7.44    4.29
  -2  16 -32    1.10    4.37
 -16   2 -32    3.98    4.31
 -16  -2 -32   14.71    4.60
 -16   4 -32   78.15    5.75
   4  16 -32   77.87    5.41
  -4  16 -32   93.89    5.97
 -16  -4 -32   79.95    6.06
  -6  16 -32    2.11    4.57
   6 -16 -32    3.88    2.90
 -16   6 -32   -6.07    4.58
 -16  -6 -32    4.42    4.65
   6  16 -32    2.77    3.76
  32  16  -6   -2.18    4.32
 -16  -8 -32    8.13    4.72
  32  16  -8    9.25    4.65
  32   8 -16    8.97    4.25
 -16   8 -32   10.27    4.60
   8  16 -32    6.28    3.83
 -16  10 -32   11.78    4.82
  32  10 -16    9.27    4.65
  10  16 -32   11.39    3.57
  32  16 -10   10.14    4.50
  12  32 -16    5.48    2.91
  12  16 -32    8.14    3.33
 -16  12 -32    1.31    4.70
  32  12 -16    2.63    4.65
  32  16 -12    5.75    4.47
 -12  16 -32    1.17    4.89
  14  32 -16   50.56    4.08
 -14  16 -32   62.57    5.82
 -16  14 -32   63.75    5.61
  16  32 -14   58.18    4.49
  14  16 -32   51.70    4.12
 -16  16 -32   58.82    5.48
  16  32 -16   63.55    4.53
   0  18 -32   57.91    5.46
 -18   0 -32   64.56    5.56
 -18  -2 -32   62.08    5.45
  -2  18 -32   82.51    5.79
   2  18 -32   61.39    5.38
 -18   2 -32   72.86    5.68
  -4  18 -32   14.09    4.77
 -18  -4 -32   15.51    4.82
 -18   4 -32    6.24    4.50
   4  18 -32   20.34    4.45
   6 -18 -32   33.25    3.59
  32  18  -6   50.14    5.22
 -18   6 -32   36.18    5.21
 -18  -6 -32   54.46    5.47
  -6  18 -32   48.97    5.49
   6  18 -32   34.71    4.84
 -18   8 -32  321.74   12.06
   8  18 -32  313.09   11.74
  32  18  -8  305.34   12.16
 -32  -8 -18  277.88   11.01
 -18  -8 -32  322.74   12.30
  -8  32 -18  315.05   12.29
 -18 -10 -32   31.67    5.47
  32  10 -18   38.04    5.09
 -10  32 -18   33.64    5.08
 -32 -10 -18   31.96    3.50
 -18  10 -32   35.13    5.19
  32  18 -10   40.36    5.43
  10  18 -32   32.68    4.20
 -18 -12 -32  350.60   13.56
  12  18 -32  322.85   12.71
 -12  18 -32  349.54   13.40
 -18  12 -32  371.64   13.40
 -14  18 -32   13.51    5.11
 -18  14 -32   15.46    4.89
  14  32 -18    7.42    3.02
  18  32 -14   12.37    3.87
  14  18 -32   14.95    3.53
 -16  18 -32   46.08    5.57
 -18  16 -32   46.67    5.45
  16  32 -18   43.28    3.91
  18  32 -16   48.17    4.25
  32  18 -18  229.87    9.82
  18  32 -18  213.40    8.85
 -18  18 -32  227.36    9.84
   0  20 -32   22.97    4.77
 -20   0 -32   23.82    4.72
  -2  20 -32   31.76    5.15
 -20  -2 -32   25.51    5.07
 -20   2 -32   31.84    5.04
   2  20 -32   19.79    4.85
 -20   4 -32   44.52    4.93
  -4  32 -20   33.39    5.60
 -32  -4 -20   34.60    3.36
 -20  -4 -32   46.82    5.25
   4  20 -32   30.47    4.93
  -4  20 -32   32.08    5.45
  -6  20 -32   18.87    5.02
  32  20  -6   15.98    4.91
 -20   6 -32   17.81    4.59
 -20  -6 -32   18.21    4.83
 -32  -6 -20   17.12    3.11
   6  20 -32   15.49    4.58
  -6  32 -20   12.84    5.21
 -20   8 -32   74.15    5.69
  32  20  -8   58.97    5.89
   8  20 -32   65.19    5.07
  -8  32 -20   69.72    6.11
 -32  -8 -20   57.13    4.12
 -20  -8 -32   62.02    5.89
  10  20 -32    5.89    4.13
 -20 -10 -32    2.88    4.90
 -20  10 -32    6.07    4.49
 -10  32 -20    3.65    4.96
 -32 -10 -20    7.38    3.23
 -10  20 -32    8.51    5.02
 -32 -12 -20  129.75    6.33
 -20 -12 -32  155.16    7.79
 -12  32 -20  154.06    7.73
  12  20 -32  139.23    6.79
 -12  20 -32  141.21    7.71
 -20  12 -32  142.31    7.49
 -14  32 -20    9.89    4.73
 -20  14 -32    1.11    4.41
  20  32 -14    7.99    3.91
  14  32 -20    7.37    2.77
  14  20 -32    5.43    3.55
 -14  20 -32    3.69    5.09
 -20  16 -32    1.74    4.32
  32  16 -20   -0.31    4.67
  16  32 -20    2.05    2.77
  32  20 -16    8.40    5.00
  20  32 -16   -0.13    3.59
 -16  20 -32    2.97    4.86
 -20  18 -32   32.22    4.66
 -18  20 -32   33.03    5.36
  32  18 -20   25.81    5.24
  32  20 -18   25.31    5.00
  18  32 -20   21.86    3.44
  20  32 -18   29.34    4.00
  32  20 -20   18.17    4.75
  20  32 -20   16.32    3.52
 -20  20 -32   20.74    4.61
 -32   0 -22   -0.44    2.82
   0  22 -32    3.90    5.13
 -22   0 -32   -0.48    4.44
   2  22 -32   19.70    4.91
 -22   2 -32   22.28    4.83
 -32  -2 -22   17.89    3.17
 -22  -2 -32   16.34    4.66
  -2  22 -32   18.72    5.37
  -4  32 -22   27.09    5.55
 -22   4 -32   31.60    4.64
 -32  -4 -22   20.74    3.28
 -22  -4 -32   24.19    5.04
   4  22 -32   29.70    4.85
  -4  22 -32   18.84    5.34
  32  22  -6   10.07    5.38
 -22   6 -32   14.05    4.50
  -6  32 -22   12.46    5.45
 -32  -6 -22    6.90    3.16
 -22  -6 -32    7.71    4.74
   6  22 -32   12.39    4.64
 -22   8 -32   -0.16    4.35
   8  22 -32   -1.57    4.24
 -22  -8 -32   -0.33    4.67
  -8  32 -22    0.71    5.06
 -32  -8 -22    4.52    3.17
 -22  10 -32    3.28    4.47
 -10  32 -22   -1.75    5.00
  10  22 -32   -4.84    4.28
 -10  22 -32    6.71    5.08
 -32 -10 -22    2.38    3.32
 -22 -10 -32    4.51    4.90
 -32 -12 -22   14.16    3.59
 -22 -12 -32   16.76    5.27
 -22  12 -32   17.46    4.76
  22  32 -12   26.44    4.42
 -12  32 -22   15.59    5.11
  12  22 -32   12.12    4.17
 -12  22 -32   24.89    5.19
 -32 -14 -22    5.43    3.48
 -22 -14 -32    1.34    5.11
  22  32 -14    2.28    3.89
 -22  14 -32    0.92    4.24
  32  22 -14    1.76    4.98
 -14  32 -22    3.48    4.68
 -14  22 -32    3.86    5.18
 -22  16 -32   18.27    4.39
 -22 -16 -32   27.16    5.33
  16  32 -22   12.65    2.75
  32  22 -16   19.51    5.06
 -16  32 -22   23.42    4.59
  22  32 -16   18.73    4.26
 -16  22 -32   11.79    4.74
  18  32 -22    2.15    2.83
  32  22 -18   -0.45    4.77
  22  32 -18    1.02    3.68
 -18  22 -32   -1.74    4.67
 -22  18 -32   -0.74    4.19
  20  32 -22    0.32    2.96
  32  22 -20   -0.43    4.56
  22  32 -20    5.02    3.23
 -20  22 -32    4.66    4.58
 -22  20 -32    2.18    4.26
  22  32 -22   12.09    3.30
 -22  22 -32   11.31    4.10
 -32   0 -24  104.99    5.50
 -24   0 -32  124.82    6.77
   0  24 -32  127.09    7.24
 -24  -2 -32    9.83    4.48
 -32   2 -24    2.71    2.95
 -24   2 -32    7.31    4.21
 -32  -2 -24    5.90    3.02
   2  24 -32   -2.21    4.94
  -2  24 -32    6.24    5.17
  -4  24 -32   59.83    5.87
 -24   4 -32   52.24    5.08
   4  24 -32   58.68    5.70
  -4  32 -24   55.30    6.21
 -32  -4 -24   49.76    4.12
 -24  -4 -32   58.31    5.12
 -32   4 -24   56.70    3.83
  -6  32 -24   13.58    5.89
 -32   6 -24   15.78    3.04
 -24   6 -32   19.47    4.44
 -32  -6 -24   18.48    3.51
 -24  -6 -32   19.06    4.83
   6  24 -32   18.15    4.67
 -24   8 -32   12.75    4.29
  -8  32 -24    9.29    5.08
   8  24 -32    5.26    4.30
 -32  -8 -24    5.63    3.42
 -24  -8 -32    3.23    4.52
 -10  32 -24    8.41    4.89
 -24  10 -32    9.79    4.45
  10  24 -32    4.30    4.31
 -10  24 -32    8.47    5.14
 -32 -10 -24    6.37    3.43
 -24 -10 -32   14.44    4.97
 -24  12 -32   15.01    4.07
  24  32 -12   14.13    4.47
 -32 -12 -24    8.91    3.45
 -12  32 -24   17.76    5.29
  32  24 -12   21.20    5.20
 -12  24 -32   14.64    5.17
 -24 -12 -32   17.87    5.17
  24  32 -14   -2.71    4.23
 -32 -14 -24    2.98    3.65
 -24 -14 -32   -3.88    4.98
 -24  14 -32    0.88    4.01
  32  24 -14   -4.24    5.21
 -14  24 -32   -0.17    5.02
 -24  16 -32   12.35    4.11
 -24 -16 -32   18.08    5.11
 -32 -16 -24   20.70    3.83
  32  24 -16   16.22    4.80
 -16  32 -24   19.41    4.83
 -16  24 -32   19.58    4.85
  24  32 -16   16.00    4.21
 -32 -18 -24    7.92    3.66
 -24 -18 -32    3.30    4.78
  32  24 -18    8.25    4.50
 -18  24 -32    6.43    4.50
  24  32 -18    5.30    3.86
 -24  18 -32    9.42    4.07
 -24 -20 -32   18.77    4.82
  32  24 -20   20.14    4.70
  24  32 -20    7.05    3.62
 -20  24 -32   17.10    4.36
 -24  20 -32   12.06    3.95
 -24  22 -32   24.44    4.05
 -22  24 -32   23.20    4.20
 -24  24 -32   15.27    3.77
 -32   0 -26  172.38    7.31
   0  26 -32  163.79    8.85
 -26   0 -32  179.41    8.03
   2  26 -32    6.85    5.30
 -32   2 -26   -1.97    3.09
 -26   2 -32    5.55    4.21
 -32  -2 -26    1.81    3.15
 -26  -2 -32    1.22    4.38
  -2  26 -32   -1.57    5.03
 -32   4 -26    6.01    3.14
   4  26 -32   10.46    5.08
 -26   4 -32   12.87    4.19
 -32  -4 -26    3.45    3.41
 -26  -4 -32    7.23    4.57
  -4  26 -32   15.22    5.67
 -32   6 -26   28.31    3.33
 -26   6 -32   38.67    4.48
  -6  32 -26   28.74    5.90
   6  26 -32   40.74    5.06
 -32  -6 -26   39.03    3.94
 -26  -6 -32   28.66    4.88
 -32   8 -26   -4.72    2.97
 -26   8 -32    1.73    4.15
   8  26 -32    3.20    4.69
  -8  32 -26   -1.06    5.61
 -32  -8 -26   -3.42    3.47
 -26  -8 -32    3.86    4.59
  32  26 -10   25.96    5.47
 -32  10 -26   23.14    3.04
 -26  10 -32   23.77    4.21
  26  32 -10   20.11    4.69
 -10  32 -26   17.31    5.45
 -32 -10 -26   22.82    3.93
 -10  26 -32   23.53    5.32
 -26 -10 -32   32.29    5.06
  26  32 -12   -0.88    4.39
 -26  12 -32    3.62    4.02
 -12  32 -26    3.52    4.91
  32  26 -12    1.25    5.02
 -26 -12 -32   -1.70    4.67
 -32 -12 -26   -0.64    3.48
 -12  26 -32    2.34    5.09
 -26  14 -32   10.10    3.91
 -14  32 -26   16.45    4.93
  32  26 -14    7.57    4.88
  26  32 -14   14.07    4.56
 -14  26 -32   12.79    4.89
 -32 -14 -26   14.08    3.54
 -26 -14 -32   20.82    4.63
 -26 -16 -32   -5.57    4.59
 -16  32 -26    9.76    4.53
  32  26 -16    3.76    4.65
  26  32 -16   -4.53    4.03
 -32 -16 -26   -1.39    3.64
 -26  16 -32    2.23    3.88
 -32 -18 -26    1.24    3.55
 -26 -18 -32    4.11    4.56
  32  26 -18    1.64    4.14
  26  32 -18    7.99    3.83
 -18  26 -32   10.73    4.75
 -26  18 -32   -2.52    3.70
 -32 -20 -26   26.46    4.04
 -26 -20 -32   24.77    4.58
  32  26 -20   34.85    4.71
  26  32 -20   37.83    4.09
 -26  20 -32   31.21    3.92
 -20  26 -32   39.68    4.63
 -26  22 -32    7.22    3.38
 -32 -22 -26   16.65    3.66
 -22  26 -32   10.27    3.80
 -26 -22 -32   14.29    4.59
 -32 -24 -26   21.11    3.53
 -26 -24 -32   21.90    4.43
 -24  26 -32   31.57    3.76
 -26  24 -32   29.69    3.39
 -32 -26 -26   21.37    3.33
 -26 -26 -32   18.20    4.19
 -26  26 -32   18.65    2.96
   0  28 -32   26.24    5.58
 -32   0 -28   27.62    3.69
 -28   0 -32   29.28    4.42
 -32  -2 -28   72.74    4.86
 -28  -2 -32   88.22    5.57
  -2  28 -32   83.43    6.71
   2  28 -32   83.86    6.50
 -32   2 -28   75.57    4.74
 -28   2 -32   88.92    5.47
   4  28 -32   68.75    5.85
 -32  -4 -28   64.92    4.58
 -32   4 -28   52.83    4.15
 -28   4 -32   65.46    5.00
 -28  -4 -32   73.08    5.11
  -4  28 -32   65.91    6.59
 -32   6 -28   14.04    3.16
 -28   6 -32   11.29    4.09
   6  28 -32   18.42    5.02
 -32  -6 -28    6.75    3.47
  -6  32 -28    8.95    5.83
 -28  -6 -32    8.71    4.23
 -32   8 -28    0.65    2.97
  32  28  -8    4.40    5.04
 -28   8 -32   -2.00    3.70
 -28  -8 -32   -2.90    4.05
  28  32  -8   -1.84    4.74
  -8  32 -28    2.07    5.63
 -32  -8 -28    9.57    3.61
  -8  28 -32    6.63    5.67
 -32  10 -28    0.92    2.83
 -28  10 -32    6.64    3.63
  28  32 -10    2.23    4.73
 -10  28 -32    7.32    5.13
 -32 -10 -28    6.53    3.59
 -28 -10 -32    3.03    4.18
 -10  32 -28    3.03    5.29
  32  28 -10    5.83    4.92
 -12  32 -28   22.80    5.38
 -32  12 -28   16.03    2.93
 -12  28 -32   18.63    5.31
 -32 -12 -28   25.62    3.91
  32  28 -12   21.30    4.95
 -28 -12 -32   20.44    4.38
  28  32 -12   19.44    4.59
 -28  12 -32   18.23    3.84
 -28  14 -32    4.49    3.54
  28  32 -14    1.09    4.28
 -14  32 -28    0.62    4.86
  32  28 -14    8.29    4.76
 -14  28 -32    8.73    5.12
 -32 -14 -28    2.60    3.55
 -28 -14 -32    6.62    4.36
  32  28 -16   28.10    4.84
  28  32 -16   28.74    4.34
 -16  32 -28   29.24    4.74
 -16  28 -32   29.47    4.80
 -32 -16 -28   29.68    3.99
 -28 -16 -32   27.31    4.60
 -28  16 -32   27.60    3.74
 -18  28 -32   32.60    4.84
  32  28 -18   22.06    4.52
  28  32 -18   27.95    4.12
 -28  18 -32   29.50    3.68
 -32 -18 -28   25.17    3.82
 -28 -18 -32   32.18    4.52
  28  32 -20   -1.71    3.38
 -28  20 -32   -2.94    2.99
 -20  28 -32   -3.18    3.93
 -32 -20 -28    6.07    3.32
 -28 -20 -32   -3.32    4.00
 -28 -22 -32    2.77    4.09
 -28  22 -32    6.15    2.74
 -22  28 -32    3.74    3.35
 -32 -22 -28    6.45    3.38
 -24  28 -32    5.27    3.08
 -28 -24 -32    0.78    3.71
 -28  24 -32    5.29    2.60
 -32 -24 -28    4.48    3.11
 -28 -26 -32    4.86    3.51
 -32 -28 -26    4.17    2.88
 -26 -28 -32    7.58    3.61
 -32 -26 -28    3.07    2.90
 -32 -28 -28    2.97    2.60
 -28 -28 -32    1.43    3.10
 -32   0 -30    1.41    3.20
 -30   0 -32    0.78    3.65
   0  30 -32   -3.71    5.16
  -2  30 -32   49.52    5.96
  -2  32 -30   33.67    5.88
 -32   2 -30   34.99    3.75
 -30   2 -32   37.29    4.21
 -32  -2 -30   33.91    3.96
 -30  -2 -32   36.42    4.38
   2  30 -32   29.61    5.43
 -32   4 -30   33.79    3.58
 -30   4 -32   30.50    4.01
 -32  -4 -30   29.24    3.93
 -32   6 -30   48.55    3.90
 -30   6 -32   52.96    4.22
 -30  -6 -32   48.92    4.40
  32  30  -6   62.08    5.90
  30  32  -6   46.49    5.58
 -32  -6 -30   53.23    4.38
 -32   8 -30    3.16    2.98
  32  30  -8    7.89    5.10
 -30   8 -32    5.11    3.44
  -8  32 -30    2.65    5.49
  30  32  -8    6.63    4.97
 -32  -8 -30   -0.37    3.61
 -30  -8 -32    4.89    3.92
  -8  30 -32    4.44    5.51
  30  32 -10    4.55    4.66
 -32  10 -30    4.50    2.88
 -30  10 -32    2.63    3.35
 -32 -10 -30   10.57    3.71
 -10  32 -30   -1.45    5.42
 -10  30 -32    7.06    5.26
 -30 -10 -32    3.02    3.60
  32  30 -10    2.32    4.95
 -30  12 -32   35.32    3.70
 -12  30 -32   40.74    5.50
 -32 -12 -30   21.78    3.87
 -30 -12 -32   42.28    4.53
  32  30 -12   42.78    5.09
  30  32 -12   39.58    4.99
 -12  32 -30   31.61    5.16
 -32  12 -30   32.98    3.22
 -32 -14 -30    5.27    3.50
 -14  32 -30    2.21    4.71
  32  30 -14    2.64    4.37
  30  32 -14    4.00    4.01
 -14  30 -32    2.07    4.60
 -30 -14 -32    1.39    3.70
 -32  14 -30   -0.53    2.57
 -30  14 -32    2.18    3.04
 -30  16 -32   -2.14    2.92
 -16  30 -32   -2.92    4.43
 -30 -16 -32   -0.24    3.74
  32  30 -16   -2.59    4.08
  30  32 -16    0.84    3.79
 -32 -16 -30   -2.04    3.38
 -16  32 -30   -2.61    4.35
 -30 -18 -32   37.27    4.15
  32  30 -18   25.43    3.97
  30  32 -18   26.69    3.98
 -32 -18 -30   31.54    3.88
 -18  30 -32   32.10    4.48
 -30  18 -32   33.36    3.22
 -30  20 -32   10.26    2.54
 -20  30 -32    5.18    3.53
 -32 -20 -30    1.54    3.23
 -30 -20 -32    2.22    3.69
 -32 -22 -30    2.76    3.12
 -30 -22 -32   -5.67    3.48
 -32 -24 -30   19.25    3.06
 -30 -24 -32   15.20    3.29
 -32 -30 -26   14.44    2.62
 -26 -30 -32   11.08    3.41
 -32 -26 -30   12.97    2.71
 -30 -26 -32   12.90    2.92
 -28 -32 -30    4.86    2.63
 -30 -28 -32   -0.43    2.44
 -30 -32 -28    1.75    2.39
 -32 -28 -30   -1.21    2.12
 -32 -30 -28    2.52    2.10
 -30 -32 -30   10.89    2.03
 -32 -30 -30    3.70    1.64
 -30 -30 -32    7.95    1.98
 -32   0 -32    0.45    3.23
 -32   2 -32   30.34    3.63
 -32  -2 -32   35.83    3.88
 -32   4 -32    4.86    3.14
  32  32  -4    8.13    5.00
 -32  -4 -32   11.47    3.55
 -32   6 -32   -1.88    3.05
  32  32  -6   -5.13    4.86
 -32  -6 -32    1.97    3.41
 -32  -8 -32   91.47    5.27
  32  32  -8   99.85    6.27
  -8  32 -32   90.83    6.63
 -32   8 -32   88.85    4.75
 -32  10 -32   12.20    2.95
 -10  32 -32   14.79    5.07
 -32 -10 -32    9.13    3.49
  32  32 -10    6.00    4.55
  32  32 -12  120.75    6.31
 -32 -12 -32  106.80    5.44
 -12  32 -32  110.54    6.57
 -32  12 -32   95.33    4.81
 -32 -14 -32    8.70    3.49
  32  32 -14    8.09    4.15
 -14  32 -32   12.67    4.53
 -32  14 -32    9.82    2.47
  32  32 -16    2.96    3.62
 -32 -16 -32    4.68    3.34
  32  32 -18  143.15    6.35
 -32 -18 -32  133.39    6.15
 -32 -20 -32   11.79    3.04
 -32 -22 -32   12.22    2.84
 -32 -32 -24    2.96    2.33
 -24 -32 -32    4.33    3.29
 -32 -24 -32    0.66    2.47
 -32 -32 -26    1.14    1.98
 -26 -32 -32    2.89    2.60
 -32 -26 -32   -2.37    2.09
 -28 -32 -32    9.40    2.14
 -32 -28 -32    4.34    1.64
 -32 -32 -28    6.08    1.59
 -30 -32 -32   10.46    1.44
   1  -1 -33   -3.79    3.49
  33  -1  -1    1.08    2.40
  33   1  -1    0.42    2.69
   1   1 -33   -0.66    3.45
  33   1   1   -2.00    2.51
  -1   1 -33    0.54    3.66
  -1  -1 -33   -0.41    3.55
  33   3  -1    4.59    2.94
   1  -3 -33    9.77    3.49
  33  -1  -3    8.91    2.78
  33   1  -3    7.00    2.92
   1   3 -33    4.53    3.46
   3   1 -33    3.93    3.28
  -1   3 -33   10.15    3.53
   3  -1 -33    6.77    3.23
  -3   1 -33    5.48    3.71
  -3  -1 -33   12.03    3.68
  -1  -3 -33    5.80    3.48
  33   3   1    9.91    2.91
   3   3 -33    0.51    3.30
  -3   3 -33    2.40    3.71
  33   3  -3   -0.35    3.10
   3  -3 -33    0.38    3.19
  -3  -3 -33    0.14    3.54
  33   3   3    0.83    2.68
   1   5 -33  161.45    7.29
   5   1 -33  158.77    6.90
  33   1  -5  161.89    6.86
  33   5  -1  160.09    6.96
  33   5   1  163.48    6.86
  -5   1 -33  160.34    7.53
  -5  -1 -33  158.85    7.54
   1  -5 -33  152.03    7.10
  -1  -5 -33  157.21    7.21
  -1   5 -33  169.79    7.42
  33  -1  -5  165.35    6.78
   5  -1 -33  171.05    6.94
   3   5 -33  111.47    5.82
  -3   5 -33  109.61    6.10
  -5   3 -33  117.29    6.14
  33   3  -5  110.66    5.62
   5  -3 -33  117.93    5.57
  33   5  -3  118.81    5.63
  33   3   5  106.83    5.02
  33   5   3  104.45    5.30
   3  -5 -33  109.43    5.57
  -5  -3 -33  107.96    6.19
  -3  -5 -33  111.38    6.17
   5   3 -33  114.52    5.63
  33   5   5   -0.32    2.68
   5   5 -33   -1.26    3.07
  -5   5 -33    3.53    3.94
  33   5  -5   -0.63    3.44
   5  -5 -33    2.14    2.96
  -5  -5 -33   -1.16    4.00
   7   1 -33   68.44    4.39
   7  -1 -33   71.17    4.34
  33   1  -7   80.47    4.65
  33   7  -1   69.04    4.67
  33   7   1   69.97    4.59
  -7  -1 -33   75.69    5.38
  -1   7 -33   64.68    5.14
   1  -7 -33   68.29    4.83
  -1  -7 -33   76.42    5.00
  -7   1 -33   68.92    5.32
   1   7 -33   72.66    4.89
  33   7   3   -5.45    3.09
   3   7 -33    0.67    3.49
   7   3 -33    0.83    2.98
  -3   7 -33   -1.46    3.98
  33   3  -7    2.23    3.31
   7  -3 -33   -0.56    2.67
  -7   3 -33   -0.60    4.08
   3  -7 -33    1.00    3.29
  -7  -3 -33   -0.15    4.19
  33   7  -3    6.68    3.52
  -3  -7 -33    0.43    3.79
  -5   7 -33  354.31   13.08
  -7   5 -33  345.30   13.02
  33   5  -7  347.94   12.71
   7  -5 -33  335.85   12.32
  33   7  -5  355.99   12.81
  33   5   7  329.52   12.19
   5  -7 -33  348.84   12.44
  33   7   5  340.70   12.40
  -7  -5 -33  362.01   13.08
  -5  -7 -33  359.67   12.98
   5   7 -33  355.50   12.68
   7   5 -33  335.28   12.48
  -7  -7 -33   -0.61    4.15
   7   7 -33   -1.75    3.19
   7  -7 -33    0.67    2.78
  -7   7 -33   -7.03    4.42
  33   7  -7    0.41    3.80
   1   9 -33  166.08    7.51
  33   1  -9  165.44    7.21
  33   9  -1  151.73    7.22
  -9   1 -33  154.39    7.63
  33   9   1  163.96    7.25
  -9  -1 -33  168.35    7.82
   1  -9 -33  167.32    7.17
  -1  -9 -33  169.98    7.47
  -1   9 -33  159.02    7.52
   9   1 -33  158.95    6.70
   9  -1 -33  157.43    6.65
  -3  -9 -33    4.91    3.78
  33   9  -3   -1.21    3.68
   3   9 -33    2.62    3.65
   9   3 -33    4.03    2.64
  -3   9 -33    3.86    3.97
  33   3  -9    6.16    3.57
   9  -3 -33    4.30    2.49
  -9   3 -33    3.98    4.24
  -9  -3 -33    2.44    4.21
   3  -9 -33    2.78    3.15
  -9   5 -33  206.61    8.67
  33   5  -9  186.08    8.18
  33   9  -5  186.63    8.27
   5  -9 -33  189.02    7.77
  -9  -5 -33  186.44    8.61
  -5  -9 -33  187.94    8.48
   9   5 -33  189.12    7.66
   5   9 -33  202.14    8.20
  -5   9 -33  193.79    8.55
  -7   9 -33  164.32    7.89
  -9   7 -33  171.12    7.88
  33   7  -9  163.26    7.51
  33   9  -7  172.05    7.71
   7  -9 -33  155.99    6.65
  -9  -7 -33  168.20    7.85
  -7  -9 -33  156.08    7.71
   9   7 -33  165.56    6.93
   7   9 -33  152.16    7.13
  33   9  -9   -0.29    3.91
  -9  -9 -33    1.90    4.30
   9   9 -33   -2.95    3.16
  -1  11 -33  104.13    6.15
  33  11  -1  100.35    5.94
 -11  -1 -33  108.30    6.54
   1 -11 -33  110.16    5.78
  -1 -11 -33  114.65    6.02
   1  11 -33  108.28    6.02
  -3 -11 -33    5.57    4.03
   3  11 -33    5.26    3.86
  33  11  -3    9.29    3.87
  -3  11 -33    4.87    4.21
  33   3 -11    8.80    3.82
 -11  -3 -33   11.59    4.61
   3 -11 -33    1.92    3.21
  11   5 -33  137.48    6.12
  33   5 -11  139.75    6.99
  33  11  -5  154.31    7.20
   5 -11 -33  151.47    6.52
 -11  -5 -33  150.00    7.55
  -5 -11 -33  142.12    7.29
   5  11 -33  143.08    6.91
  -5  11 -33  154.66    7.56
  33  11  -7   81.00    5.59
  -7 -11 -33   78.37    5.59
   7 -11 -33   78.26    4.37
  33   7 -11   68.60    5.43
  11   7 -33   77.09    4.39
   7  11 -33   76.79    4.95
 -11  -7 -33   83.92    5.88
  -7  11 -33   81.65    5.76
 -11  -9 -33    5.37    4.56
  11   9 -33    2.93    2.76
  33   9 -11   -2.05    4.08
  33  11  -9    5.21    4.11
   9  11 -33   -0.90    3.34
 -11 -11 -33   -1.81    4.49
  33  11 -11    1.51    4.28
  11  11 -33    2.57    3.19
   1 -13 -33   23.53    3.86
   1  13 -33   17.86    4.32
  -1 -13 -33   19.45    4.07
  -1  13 -33   14.39    4.33
   3 -13 -33   23.76    3.71
  -3  13 -33   19.38    4.59
  33  13  -3   24.61    4.59
   3  13 -33   22.68    4.30
   5  13 -33    2.98    3.91
  33  13  -5    3.57    4.23
  33   5 -13    4.52    3.96
  -5  13 -33    8.28    4.59
   5 -13 -33   -1.34    3.28
   7  13 -33    3.18    3.71
  33  13  -7   -0.75    4.40
  -7  13 -33    0.97    4.55
  33   7 -13    1.01    4.12
 -13   7 -33    6.94    4.58
   7 -13 -33    2.13    2.70
   9  13 -33    6.41    3.53
 -13   9 -33    3.41    4.64
  33  13  -9    3.84    4.35
  33   9 -13    0.45    4.25
 -13 -11 -33    0.34    4.85
 -13  11 -33    3.93    4.74
  33  11 -13    3.96    4.36
  33  13 -11    7.61    4.53
  13  11 -33    3.55    2.92
  11  13 -33    2.30    3.28
 -13  13 -33   -3.99    4.73
  13  13 -33   -3.36    3.10
  33  13 -13    0.47    4.44
   1  15 -33    8.30    4.19
  -1  15 -33    5.35    4.53
 -15  -1 -33   -0.97    4.46
 -15   1 -33    6.00    4.70
   3  15 -33    6.47    3.95
   3 -15 -33    5.38    3.49
  -3  15 -33    4.33    4.46
  33  15  -3   -0.61    4.49
 -15   3 -33    4.04    4.58
   5 -15 -33    9.45    3.28
  -5  15 -33    6.02    4.62
  33  15  -5    3.70    4.51
 -15   5 -33    1.62    4.56
   5  15 -33    1.18    3.84
  33  15  -7   -1.24    4.61
  -7  15 -33    3.62    4.61
  33   7 -15    5.94    4.33
 -15   7 -33    4.89    4.76
   7 -15 -33    0.56    2.66
   7  15 -33    8.61    3.85
  33   9 -15   10.26    4.59
 -15   9 -33    9.65    4.54
   9  15 -33   13.92    3.86
  33  15  -9   18.10    4.53
  11  33 -15    0.75    2.73
 -15  11 -33   -1.15    4.71
  11  15 -33   -0.53    3.25
  33  11 -15   -2.77    4.40
  33  15 -11   -3.02    4.46
  13  33 -15   10.24    3.20
 -13  15 -33    8.38    4.76
 -15  13 -33    8.64    4.79
  33  13 -15   10.78    4.63
  33  15 -13   17.51    5.02
  13  15 -33   10.23    3.33
  15  33 -15   -5.86    3.34
 -15  15 -33    0.17    5.02
   1  17 -33   18.74    4.81
  -1  17 -33   17.85    4.73
 -17  -1 -33   15.91    4.89
 -17   1 -33   15.72    4.62
  -3  17 -33    2.78    4.73
   3  17 -33   -0.94    4.30
   3 -17 -33    6.35    3.35
 -17   3 -33    2.44    4.59
 -17  -3 -33    1.98    4.75
   5 -17 -33    4.19    3.13
  -5  17 -33   12.90    4.80
  33  17  -5    1.43    4.78
 -17   5 -33    4.73    4.82
 -17  -5 -33   16.12    5.02
   5  17 -33    5.50    4.04
   7  17 -33    2.98    4.07
 -17   7 -33    8.98    4.89
  -7  17 -33    2.85    4.85
  33  17  -7    0.80    4.59
 -17  -7 -33    7.74    4.98
   7 -17 -33    5.18    2.90
 -17  -9 -33   22.27    5.30
 -17   9 -33   26.83    5.24
   9  17 -33   19.61    3.98
  33  17  -9   14.45    4.84
 -17 -11 -33   16.80    5.32
 -11  17 -33   11.49    5.12
 -17  11 -33   13.15    4.73
  33  11 -17   17.57    4.71
  11  17 -33   10.58    3.85
  33  17 -11   15.50    4.82
 -13  17 -33    3.71    5.23
 -33 -13 -17    5.53    2.90
 -17  13 -33    0.50    4.86
  13  17 -33    4.01    3.18
  17  33 -13    1.60    3.74
  13  33 -17    2.90    2.82
 -15  17 -33    1.17    5.12
  17  33 -15    3.96    3.23
 -17  15 -33    3.46    4.70
  15  33 -17   -2.98    3.07
  15  17 -33   -3.70    2.95
 -17  17 -33   -2.45    4.75
  17  33 -17    2.05    3.11
 -19   1 -33   35.08    5.11
   1  19 -33   27.44    4.82
 -19  -1 -33   31.65    5.14
  -1  19 -33   34.50    5.22
  -3  19 -33   59.40    5.71
 -19   3 -33   57.35    5.68
 -19  -3 -33   66.08    5.72
   3  19 -33   61.51    5.54
  -5  19 -33   50.52    5.55
 -19  -5 -33   54.62    5.73
  33  19  -5   65.59    5.62
 -19   5 -33   58.91    5.48
   5 -19 -33   55.45    4.28
   5  19 -33   46.13    5.05
 -19   7 -33  138.18    7.22
  33  19  -7  140.59    7.38
 -19  -7 -33  131.27    7.41
   7 -19 -33  113.05    5.71
   7  19 -33  124.41    6.76
  33  19  -9   93.67    6.41
 -19   9 -33   87.77    6.23
   9  19 -33   86.31    5.42
 -33  -9 -19   68.66    4.41
 -19  -9 -33   84.80    6.34
 -11  19 -33   88.02    6.51
 -19 -11 -33   93.57    6.38
  11  19 -33   72.18    5.04
 -19  11 -33   80.50    5.92
 -33 -11 -19   74.70    4.56
 -13  19 -33   -7.76    5.28
 -33 -13 -19   -1.53    3.00
 -19 -13 -33   -4.98    5.31
 -19  13 -33   -4.06    4.81
  19  33 -13   -1.38    3.75
  13  19 -33    5.35    3.49
 -15  19 -33   -2.99    4.95
  19  33 -15   -1.19    3.45
 -19 -15 -33   -4.63    5.18
  15  33 -19    1.36    2.83
 -19  15 -33   -9.03    4.72
 -17  19 -33    1.30    4.86
  33  17 -19    3.56    4.62
  33  19 -17    3.42    5.05
  17  33 -19    3.21    3.00
  19  33 -17    4.85    3.49
 -19  17 -33    4.44    4.57
  33  19 -19   -0.15    4.56
  19  33 -19   -5.60    3.19
 -19  19 -33   -3.30    4.66
 -21   1 -33   27.31    4.95
 -21  -1 -33   21.80    5.02
   1  21 -33   29.84    5.33
  -1  21 -33   23.43    5.13
 -21   3 -33   -7.11    4.72
 -21  -3 -33   -5.75    4.65
   3  21 -33   -0.33    4.45
  -3  21 -33   -6.51    5.21
 -21   5 -33  171.57    8.15
 -33  -5 -21  153.52    6.84
  33  21  -5  173.37    8.46
 -21  -5 -33  171.53    8.33
   5 -21 -33  174.00    7.16
   5  21 -33  160.89    8.12
  -5  21 -33  167.44    8.65
   7 -21 -33   40.04    3.55
  33  21  -7   50.35    5.82
 -21   7 -33   42.78    5.17
 -33  -7 -21   40.23    3.64
   7  21 -33   39.14    4.80
 -21  -7 -33   38.15    5.42
 -21   9 -33   81.25    5.82
 -33  -9 -21   73.42    4.58
   9  21 -33   80.23    5.46
 -21  -9 -33   89.05    6.24
 -21  11 -33   61.77    5.70
 -33 -11 -21   53.10    4.21
  11  21 -33   67.90    5.13
 -11  21 -33   80.47    6.16
 -21 -11 -33   71.53    5.99
 -33 -13 -21   35.49    3.78
 -21 -13 -33   38.64    5.76
 -21  13 -33   43.45    5.01
  21  33 -13   34.18    4.40
  13  21 -33   32.74    4.12
 -13  21 -33   36.02    5.71
 -33 -15 -21    3.29    3.11
 -21 -15 -33   -0.34    5.25
 -21  15 -33    8.08    4.63
  33  21 -15   -1.26    4.84
 -15  21 -33    6.79    5.12
  21  33 -15    7.79    4.00
 -21  17 -33    1.06    4.58
 -33 -17 -21    2.81    3.24
 -21 -17 -33   -0.50    5.20
  17  33 -21    2.18    2.71
  33  21 -17    1.68    4.90
 -17  21 -33   -2.41    5.06
  21  33 -17    7.21    3.60
  33  21 -19   34.06    5.19
  19  33 -21   30.84    3.40
  21  33 -19   24.95    3.66
 -19  21 -33   34.42    4.84
 -21  19 -33   30.60    4.79
  21  33 -21    7.00    3.13
 -21  21 -33    1.16    4.22
  -1  23 -33   48.54    5.62
 -33  -1 -23   34.94    3.47
   1  23 -33   34.88    5.48
 -23   1 -33   48.17    5.27
 -23  -1 -33   37.24    5.17
 -23   3 -33    4.60    4.72
 -33  -3 -23    1.33    2.93
 -23  -3 -33    0.97    4.87
   3  23 -33   -2.00    4.99
  -3  23 -33    3.12    5.16
 -23   5 -33  113.68    6.48
 -33  -5 -23   91.31    5.11
 -23  -5 -33   93.02    6.48
  33  23  -5  111.29    6.76
   5  23 -33   96.48    6.48
  -5  23 -33  113.24    7.10
 -23   7 -33    2.33    4.28
 -23  -7 -33    3.42    4.85
  -7  33 -23    0.72    5.46
   7  23 -33    2.22    4.28
 -33  -7 -23   -1.28    3.00
 -23  -9 -33   -1.64    4.92
 -23   9 -33    0.93    4.44
  -9  33 -23    7.58    5.28
   9  23 -33    8.29    4.20
 -33  -9 -23   -0.95    3.04
 -23  11 -33    2.60    4.47
 -11  33 -23   -5.50    5.10
 -11  23 -33    4.45    5.06
  23  33 -11    5.46    4.45
 -33 -11 -23    5.67    3.26
 -23 -11 -33    6.89    4.95
  11  23 -33    2.93    4.05
 -33 -13 -23    3.05    3.20
  23  33 -13    5.53    4.21
 -23  13 -33    6.02    4.58
  33  23 -13    2.06    5.24
 -13  23 -33   -1.18    5.27
 -23 -13 -33    8.18    4.68
 -33 -15 -23    4.65    3.43
 -23 -15 -33   17.34    4.86
 -23  15 -33    2.21    4.15
  33  23 -15    8.00    4.87
  23  33 -15   11.46    4.12
 -15  23 -33    8.99    5.21
 -23  17 -33    1.00    4.24
 -33 -17 -23    4.49    3.51
 -23 -17 -33    1.91    5.00
  33  23 -17    6.49    4.98
  23  33 -17    9.72    3.72
 -17  23 -33    6.12    4.58
 -23 -19 -33   21.77    5.22
  33  23 -19   31.38    5.13
  23  33 -19   23.05    3.77
 -33 -19 -23   28.60    3.78
 -19  23 -33   31.20    5.03
 -23  19 -33   33.27    4.58
 -33 -21 -23   13.61    3.51
 -23 -21 -33   13.95    4.92
  23  33 -21   15.93    3.31
 -21  23 -33   17.53    4.47
 -23  21 -33   11.34    4.11
 -23  23 -33   -1.76    3.85
 -33   1 -25   35.95    3.51
 -33  -1 -25   40.34    3.65
 -25   1 -33   46.24    5.10
 -25  -1 -33   45.43    5.13
   1  25 -33   49.46    5.79
  -1  25 -33   45.37    5.82
 -33   3 -25   43.32    3.54
  -3  25 -33   48.00    6.06
 -25   3 -33   48.92    5.23
 -33  -3 -25   40.18    3.83
 -25  -3 -33   52.59    5.36
   3  25 -33   47.63    5.58
 -25   5 -33    1.66    4.25
 -25  -5 -33    6.74    4.57
  -5  33 -25    3.78    5.37
  -5  25 -33    2.60    5.27
   5  25 -33   10.18    4.53
 -33  -5 -25   -1.52    3.04
 -33  -7 -25   86.01    5.18
 -25  -7 -33  105.44    6.53
  -7  33 -25   95.54    6.88
   7  25 -33   99.26    6.19
 -25   7 -33  112.84    6.12
 -33  -9 -25   96.64    5.24
 -25  -9 -33  106.46    6.32
  -9  33 -25   97.85    7.08
 -25   9 -33  108.49    6.21
   9  25 -33   95.25    6.21
 -25  11 -33   76.41    5.29
  25  33 -11   78.42    5.76
 -11  33 -25   80.58    6.31
 -33 -11 -25   64.55    4.57
 -11  25 -33   83.44    6.47
  33  25 -11   73.10    6.09
 -25 -11 -33   78.57    5.86
  25  33 -13   46.88    4.63
 -25  13 -33   55.63    4.86
 -13  33 -25   50.99    5.32
  33  25 -13   46.56    5.45
 -33 -13 -25   40.64    4.12
 -25 -13 -33   48.36    5.48
 -13  25 -33   48.49    5.97
 -25  15 -33   -2.73    3.88
  33  25 -15    5.02    5.18
 -33 -15 -25    3.01    3.30
  25  33 -15    2.26    3.83
 -15  25 -33    1.58    5.02
 -25 -15 -33   -4.30    4.80
 -25 -17 -33    4.50    4.65
  33  25 -17    5.48    4.62
  25  33 -17    0.74    3.80
 -17  25 -33    1.21    4.69
 -25  17 -33    3.70    3.98
 -33 -17 -25    2.61    3.47
 -33 -19 -25    8.30    3.37
 -25 -19 -33   14.39    4.84
  33  25 -19   10.67    4.47
  25  33 -19    2.59    3.48
 -19  25 -33    9.21    4.49
 -25  19 -33    6.09    3.56
  25  33 -21  121.07    6.04
 -33 -21 -25  123.99    6.19
 -25 -21 -33  139.41    7.15
 -25  21 -33  151.96    6.55
 -21  25 -33  139.67    6.70
 -25 -23 -33   65.81    5.42
 -25  23 -33   69.46    4.62
 -33 -23 -25   61.70    4.37
 -23  25 -33   65.66    4.60
 -33 -25 -25   -0.86    3.02
 -25 -25 -33    6.35    4.19
 -25  25 -33   -1.10    3.22
 -33   1 -27   42.88    3.76
 -33  -1 -27   37.75    3.71
 -27   1 -33   52.44    4.99
 -27  -1 -33   41.48    4.83
   1  27 -33   45.56    5.91
  -1  27 -33   52.11    5.97
 -33   3 -27    5.37    2.96
 -27  -3 -33    8.53    4.42
 -27   3 -33    7.01    4.08
 -33  -3 -27   12.33    3.17
  -3  27 -33    9.09    5.49
   3  27 -33   10.87    5.20
 -27  -5 -33   87.12    5.66
 -27   5 -33   73.15    5.21
 -33  -5 -27   62.69    4.49
  -5  33 -27   70.01    6.42
   5  27 -33   68.65    6.03
 -33   5 -27   64.19    4.09
 -33   7 -27    1.51    2.76
 -27   7 -33    0.14    3.83
  -7  33 -27   -3.30    5.25
   7  27 -33   -5.52    4.64
 -33  -7 -27   -1.18    3.14
 -27  -7 -33   -0.59    4.43
  33  27  -9    2.17    4.82
 -27   9 -33    0.68    3.90
  -9  27 -33    5.53    5.17
  27  33  -9    4.46    4.70
  -9  33 -27    3.22    5.18
 -33  -9 -27    6.43    3.39
 -27  -9 -33    5.45    4.13
  27  33 -11    8.02    4.29
 -11  27 -33   13.09    5.03
 -11  33 -27   11.02    4.99
 -33 -11 -27   11.86    3.42
 -27 -11 -33    6.88    4.30
  33  27 -11    6.36    4.98
 -27  13 -33    8.05    3.83
  33  27 -13    9.51    4.71
 -13  33 -27   10.87    4.70
  27  33 -13   15.73    4.37
 -13  27 -33    1.59    5.20
 -33 -13 -27   13.54    3.47
 -27 -13 -33   11.13    4.50
  33  27 -15   -0.70    4.65
  27  33 -15   -0.26    3.94
 -15  27 -33   -1.37    4.78
 -33 -15 -27    3.02    3.36
 -27 -15 -33   -3.40    4.40
 -27  15 -33    6.05    3.59
  33  27 -17    0.53    4.38
  27  33 -17   -1.78    3.62
 -17  27 -33   -5.01    4.54
 -33 -17 -27    1.81    3.32
 -27  17 -33    1.06    3.53
 -27 -17 -33    1.38    4.21
  33  27 -19   31.12    4.50
  27  33 -19   35.82    3.85
 -19  27 -33   31.50    4.60
 -27  19 -33   30.83    3.75
 -33 -19 -27   33.89    3.79
 -27 -19 -33   37.26    4.63
 -21  27 -33   16.02    3.86
 -27  21 -33    9.68    3.26
 -33 -21 -27   15.89    3.33
 -27 -21 -33   16.85    4.17
 -23  27 -33    2.11    3.28
 -27  23 -33    1.47    2.81
 -33 -23 -27    2.20    3.05
 -27 -23 -33   -0.59    3.80
 -27 -25 -33   38.89    3.95
 -33 -27 -25   32.29    3.14
 -27  25 -33   32.27    2.97
 -25  27 -33   31.96    3.13
 -25 -27 -33   30.36    4.26
 -33 -25 -27   27.79    3.25
 -33 -27 -27    1.30    2.47
 -27 -27 -33    3.38    3.40
 -33   1 -29    8.06    3.05
 -33  -1 -29   11.92    3.28
 -29   1 -33    5.18    3.69
 -29  -1 -33    9.44    3.84
   1  29 -33   15.12    5.48
  -1  29 -33   17.26    5.54
 -33   3 -29    8.72    3.08
 -33  -3 -29   11.70    3.26
 -29  -3 -33    0.14    4.00
   3  29 -33    2.28    5.05
  -3  29 -33    8.73    5.61
 -33  -5 -29  136.34    6.29
 -29  -5 -33  144.00    6.76
 -29   5 -33  134.96    6.54
 -33   5 -29  142.46    6.12
 -33   7 -29   15.33    2.95
  33  29  -7   26.24    4.99
 -29   7 -33   21.16    3.86
  -7  33 -29   14.50    5.71
  29  33  -7   20.37    4.87
 -33  -7 -29   21.78    3.60
 -29  -7 -33   14.99    4.17
 -33  -9 -29   16.87    3.54
 -33   9 -29   14.97    2.76
 -29   9 -33   18.69    3.73
  29  33  -9   17.30    4.78
 -29  -9 -33   11.93    4.01
  -9  33 -29   17.08    5.48
  -9  29 -33   14.04    5.64
  33  29  -9   17.50    5.23
 -33 -11 -29   68.01    4.48
  33  29 -11   63.96    5.75
 -11  33 -29   67.37    6.06
 -11  29 -33   71.29    6.17
 -29  11 -33   67.81    4.63
 -29 -11 -33   55.82    4.89
  29  33 -11   54.34    5.25
 -29  13 -33   13.25    3.46
 -13  29 -33    9.05    4.65
 -33 -13 -29    6.08    3.32
  33  29 -13    6.28    4.67
  29  33 -13   11.08    4.33
 -29 -13 -33    1.96    3.97
 -15  29 -33   17.21    4.84
 -33 -15 -29   24.01    3.56
  33  29 -15   26.23    4.65
  29  33 -15   26.07    4.16
 -29 -15 -33   22.40    4.19
 -29  15 -33   17.40    3.41
  33  29 -17    9.38    4.03
  29  33 -17    4.02    3.44
 -33 -17 -29    8.66    3.29
 -17  29 -33    9.24    4.49
 -29 -17 -33    8.59    3.95
 -29  17 -33    2.89    3.00
  33  29 -19   62.54    4.56
  29  33 -19   59.24    4.32
 -33 -19 -29   66.83    4.18
 -29  19 -33   56.54    3.83
 -29 -19 -33   62.03    4.76
 -19  29 -33   60.43    4.81
 -21  29 -33    8.48    3.51
 -29  21 -33    1.94    2.47
 -33 -21 -29    7.59    3.06
 -29 -21 -33    5.04    3.56
 -29  23 -33    3.00    2.03
 -23 -29 -33   11.28    3.93
 -33 -23 -29    2.65    2.83
 -29 -23 -33   11.21    3.46
 -33 -29 -25   33.33    3.12
 -25 -29 -33   52.13    4.15
 -33 -25 -29   45.04    3.15
 -29 -25 -33   44.66    3.65
 -27 -33 -29    5.42    2.88
 -29 -27 -33    2.86    2.65
 -33 -27 -29    2.77    2.12
 -33 -29 -27    2.86    2.13
 -27 -29 -33   -0.25    3.00
 -29 -33 -29   -0.99    2.21
 -33 -29 -29    1.53    1.68
 -29 -29 -33   -0.33    2.25
  -1  31 -33    4.49    5.69
 -33   1 -31    6.72    3.02
 -33  -1 -31    8.57    3.15
 -31  -1 -33   11.45    3.61
 -31   1 -33    8.45    3.49
 -33   3 -31   19.46    3.16
 -31   3 -33   14.20    3.59
 -33  -3 -31   11.97    3.29
 -31  -3 -33   17.14    3.67
 -33   5 -31    6.22    2.87
 -31   5 -33    6.87    3.33
  33  31  -5    1.15    4.82
  31  33  -5   -4.29    4.81
 -33  -5 -31    2.53    3.17
 -31  -5 -33    4.48    3.63
  33  31  -7   71.25    5.70
 -31   7 -33   51.38    4.07
  31  33  -7   65.27    5.45
 -33  -7 -31   51.86    4.21
 -31  -7 -33   59.70    4.41
 -33   7 -31   59.38    3.84
 -33  -9 -31   54.51    4.15
 -31  -9 -33   49.86    4.52
  -9  31 -33   55.05    5.82
 -33   9 -31   52.87    3.56
  33  31  -9   62.48    5.45
 -31   9 -33   58.65    4.00
  31  33  -9   61.45    5.30
 -31  11 -33   24.81    3.31
 -33 -11 -31   25.64    3.56
 -11  31 -33   31.95    5.43
  31  33 -11   41.70    4.68
 -31 -11 -33   28.51    3.98
  33  31 -11   29.29    4.73
 -13  31 -33   17.48    4.98
 -33 -13 -31   11.89    3.30
  33  31 -13   13.68    4.43
  31  33 -13   10.80    4.05
 -31 -13 -33   11.26    3.68
 -31  13 -33   10.79    2.79
 -33 -15 -31   -0.20    3.11
 -15  31 -33   -3.17    4.35
  33  31 -15    3.13    3.76
  31  33 -15    0.90    3.31
 -31 -15 -33    3.87    3.55
 -31  15 -33   -0.51    2.51
 -17  31 -33   10.20    4.03
  33  31 -17    3.32    3.73
  31  33 -17    8.52    3.58
 -31 -17 -33    5.47    3.26
 -31  17 -33    9.74    2.45
 -33 -17 -31    7.42    3.19
 -31 -19 -33   -1.88    3.18
 -31  19 -33    2.70    2.01
 -31 -21 -33   22.51    3.25
 -33 -21 -31   19.27    3.01
 -23 -31 -33   14.34    3.56
 -33 -23 -31   16.77    2.58
 -31 -23 -33   14.63    2.92
 -25 -31 -33    1.70    3.01
 -31 -33 -25    5.54    2.38
 -25 -33 -31    0.60    2.94
 -33 -25 -31    6.16    2.06
 -31 -25 -33    0.22    2.39
 -33 -31 -25    2.60    1.98
 -27 -33 -31   -0.42    2.37
 -27 -31 -33    0.70    2.30
 -31 -27 -33   -2.10    2.04
 -33 -27 -31    2.35    1.65
 -33 -31 -27   -0.88    1.64
 -31 -33 -27    1.15    1.92
 -29 -33 -31    3.69    1.73
 -31 -29 -33    1.97    1.45
 -29 -31 -33    5.54    1.80
 -31 -33 -29    2.45    1.39
 -33   1 -33    0.30    2.91
 -33  -1 -33    0.20    2.99
 -33   3 -33    4.21    2.79
  33  33  -3    6.07    4.63
 -33  -3 -33   -1.62    3.04
 -33   5 -33    0.55    2.68
  33  33  -5   -2.25    4.67
 -33  -5 -33    0.82    2.97
 -33   7 -33   -0.87    2.57
 -33  -7 -33    2.04    3.11
  33  33  -7   -3.21    4.15
  33  33  -9    4.70    4.24
 -33  -9 -33    2.91    3.06
 -33   9 -33    1.23    2.51
 -33 -11 -33    0.88    3.05
  33  33 -11   -2.00    4.09
 -33  11 -33   -0.08    2.12
  33  33 -13   -1.64    3.87
 -33 -13 -33   -0.28    2.97
 -33 -15 -33   -2.08    2.90
  33  33 -15    2.43    3.47
  33  33 -17   -3.69    3.07
 -33 -17 -33   -3.24    2.76
 -33 -19 -33    3.37    2.57
 -33 -21 -33   -4.78    2.43
 -33 -33 -23    0.88    1.76
 -23 -33 -33    2.83    2.96
 -33 -23 -33   -1.03    1.91
 -33 -25 -33    1.86    1.54
 -33 -33 -25    0.88    1.34
 -25 -33 -33   -0.28    2.40
 -27 -33 -33   -2.27    1.87
  34   0   0   11.11    2.78
   0   0 -34   18.67    3.71
  34   0  -2   35.37    3.26
   0   2 -34   37.55    4.22
   2   0 -34   36.24    3.99
  34   2   0   33.16    3.41
  -2   0 -34   42.57    4.39
   0  -2 -34   33.34    4.14
   2   2 -34  266.87   10.23
  -2   2 -34  271.47   10.34
  34   2  -2  259.38    9.80
  34   2   2  252.60    9.60
   2  -2 -34  262.09   10.18
  -2  -2 -34  268.37   10.44
   0   4 -34  365.37   13.19
   4   0 -34  360.95   12.93
  34   0  -4  355.59   12.68
  34   4   0  351.55   12.72
  -4   0 -34  360.97   13.36
   0  -4 -34  348.69   13.05
  34   4  -2    6.32    3.35
   2   4 -34    4.35    3.59
   4   2 -34    2.96    3.30
  34   2  -4    3.84    3.08
  -2   4 -34   10.58    3.89
   4  -2 -34    8.80    3.26
  -4   2 -34   12.50    3.96
   2  -4 -34   10.00    3.57
  -4  -2 -34    5.85    3.87
  -2  -4 -34    5.10    3.84
  34   4   2    8.43    2.89
   4   4 -34    6.28    3.47
  -4   4 -34    5.06    3.90
  34   4  -4    9.11    3.41
   4  -4 -34    8.28    3.33
  -4  -4 -34    4.83    3.99
  34   4   4    9.46    2.80
   0   6 -34   26.53    4.12
   6   0 -34   21.67    3.40
  -6   0 -34   18.44    4.37
   0  -6 -34   28.51    3.78
  34   6   0   30.28    3.77
  34   6   2   -1.30    3.03
   2   6 -34    3.32    3.70
   6   2 -34    6.27    3.07
  34   2  -6    2.31    3.21
  -2   6 -34    2.35    3.98
   6  -2 -34    3.71    3.12
  -6   2 -34    3.33    4.30
  -6  -2 -34    5.42    4.10
   2  -6 -34    3.02    3.45
  34   6  -2    3.15    3.36
  -2  -6 -34   -1.28    4.01
  -4   6 -34   98.30    6.03
  -6   4 -34   94.90    5.96
   6  -4 -34   92.84    5.04
  34   4  -6   95.09    5.52
  34   6  -4   97.31    5.40
  34   4   6   96.42    4.70
  34   6   4  104.05    5.01
   4  -6 -34   90.64    5.21
  -6  -4 -34   89.74    6.00
  -4  -6 -34   97.79    5.80
   4   6 -34  108.52    5.59
   6   4 -34   93.61    5.24
  34   6   6   -0.33    2.83
   6   6 -34    1.55    3.30
  -6   6 -34   -0.93    4.30
  34   6  -6    5.72    3.74
   6  -6 -34    0.71    3.06
  -6  -6 -34    0.15    4.04
  34   8   0   91.97    5.46
  -8   0 -34  102.50    6.17
   0  -8 -34   99.70    5.75
   8   0 -34   98.36    5.06
   0   8 -34  104.79    5.88
   2  -8 -34   44.59    4.09
  34   8   2   44.32    4.09
   2   8 -34   44.40    4.55
   8   2 -34   41.48    3.63
  34   2  -8   40.92    4.15
  -2   8 -34   44.59    4.64
   8  -2 -34   43.96    3.45
  -2  -8 -34   50.04    4.72
  -8   2 -34   43.75    4.97
  -8  -2 -34   42.97    5.06
  34   8  -2   45.58    4.31
   4   8 -34   31.91    4.00
   8   4 -34   28.12    3.53
  -4   8 -34   26.89    4.61
  34   4  -8   26.43    4.03
   8  -4 -34   27.82    3.08
  -8  -4 -34   24.39    4.61
  -8   4 -34   29.12    4.59
   4  -8 -34   20.89    3.44
  34   8  -4   23.19    4.11
  -4  -8 -34   28.42    4.43
   6  -8 -34   44.82    3.67
   6   8 -34   50.46    4.25
   8   6 -34   49.56    3.92
  34   6   8   44.79    3.58
  -6   8 -34   45.90    5.09
  34   8   6   48.09    3.84
  -8   6 -34   48.91    5.21
  34   6  -8   42.02    4.31
   8  -6 -34   37.72    3.30
  34   8  -6   44.60    4.52
  -8  -6 -34   50.86    4.97
  -6  -8 -34   51.28    4.94
   8   8 -34   40.05    3.90
  -8   8 -34   39.64    5.05
   8  -8 -34   28.82    3.29
  34   8  -8   42.64    4.61
  -8  -8 -34   46.54    4.84
  34  10   0   -0.81    3.66
   0  10 -34   -2.84    3.92
 -10   0 -34   -0.16    4.55
   0 -10 -34   -0.84    3.61
  -2 -10 -34   19.84    4.06
  34  10  -2   18.66    3.98
   2  10 -34   17.47    4.20
  10   2 -34   15.82    2.89
  -2  10 -34    9.78    4.22
  34  10   2   13.23    3.60
 -10   2 -34   18.57    4.59
 -10  -2 -34   15.67    4.65
   2 -10 -34   13.85    3.58
  34  10  -4   36.43    4.52
  10   4 -34   43.32    3.45
   4  10 -34   45.15    4.45
  -4  10 -34   47.08    5.00
  34   4 -10   34.56    4.48
 -10   4 -34   48.17    5.23
   4 -10 -34   38.11    3.75
 -10  -4 -34   43.95    5.09
  -4 -10 -34   46.32    4.79
  -6 -10 -34    1.41    4.25
   6  10 -34   -0.95    3.49
  10   6 -34    2.20    2.96
  -6  10 -34    6.67    4.55
  34   6 -10    0.42    3.84
   6 -10 -34   -1.29    2.83
  34  10  -6   -1.59    3.92
 -10  -6 -34    4.51    4.50
  -8 -10 -34    2.73    4.50
  -8  10 -34   -1.94    4.46
  10   8 -34   -2.15    2.94
  34   8 -10    0.14    4.07
   8 -10 -34   -1.41    2.66
  34  10  -8    0.74    4.09
   8  10 -34   -0.65    3.20
 -10  -8 -34   -2.61    4.56
  34  10 -10    1.34    4.17
 -10 -10 -34   -1.15    4.74
  10  10 -34   -1.74    3.19
   0 -12 -34   53.11    4.56
   0  12 -34   38.66    4.86
  34  12   0   43.88    4.62
  -2 -12 -34   17.57    3.90
  -2  12 -34   18.61    4.65
  34  12  -2   20.06    4.22
   2 -12 -34   15.09    3.78
   2  12 -34   18.96    4.23
  34  12  -4   18.77    4.39
  -4  12 -34   20.39    4.76
   4  12 -34   23.04    4.01
 -12  -4 -34   22.12    4.67
   4 -12 -34   17.48    3.51
  -4 -12 -34   20.37    4.43
  -6 -12 -34   47.93    5.00
  -6  12 -34   42.40    5.14
  34   6 -12   48.04    4.67
   6 -12 -34   44.60    3.71
   6  12 -34   42.25    4.46
 -12  -6 -34   46.51    5.37
  34  12  -6   54.19    5.08
  -8 -12 -34   16.42    4.63
  -8  12 -34   15.11    4.75
  34   8 -12   16.59    4.48
  34  12  -8   21.69    4.72
  12   8 -34   17.82    3.08
 -12  -8 -34   17.12    4.92
   8  12 -34   18.41    3.68
 -12 -10 -34    0.17    4.57
 -10 -12 -34    5.16    4.84
  34  12 -10    7.22    4.27
  34  10 -12    0.90    4.34
  10  12 -34   -1.94    3.33
  12  10 -34    5.62    3.04
 -12 -12 -34   34.92    5.27
  34  12 -12   44.54    5.12
  12  12 -34   31.89    3.50
   0 -14 -34   42.19    4.46
   0  14 -34   40.70    4.89
   2 -14 -34   11.96    3.72
  -2 -14 -34    9.55    4.00
  -2  14 -34   10.55    4.54
  34  14  -2   13.49    4.26
   2  14 -34   14.94    4.37
   4  14 -34   49.83    4.71
  -4  14 -34   43.38    5.22
  34  14  -4   47.87    4.93
 -14   4 -34   41.78    5.23
   4 -14 -34   39.48    3.90
  34  14  -6   26.60    4.87
  -6  14 -34   25.37    5.11
   6  14 -34   20.02    4.13
 -14   6 -34   21.78    4.84
   6 -14 -34   25.47    3.23
  34   8 -14   84.21    5.76
 -14   8 -34   89.77    6.29
  -8  14 -34   97.36    6.41
   8  14 -34   85.02    5.47
  34  14  -8   83.24    6.10
  10  14 -34   25.10    3.61
 -14  10 -34   24.07    5.04
  34  10 -14   19.20    4.62
  34  14 -10   24.73    4.74
  34  12 -14   88.31    5.86
 -12  14 -34   81.16    6.32
 -14  12 -34   81.25    6.34
  12  34 -14   72.40    4.48
  12  14 -34   72.50    4.86
  34  14 -12   84.00    6.12
 -14  14 -34   81.48    6.14
  14  34 -14   81.38    4.76
  34  14 -14   89.72    6.19
  14  14 -34   76.21    4.58
   0  16 -34   67.70    5.53
   0 -16 -34   61.79    4.99
 -16   0 -34   60.32    5.81
   2  16 -34   18.04    4.51
  -2  16 -34   24.53    4.98
   2 -16 -34   23.92    3.76
  34  16  -2   19.47    4.70
 -16   2 -34   31.92    5.07
 -16  -2 -34   20.62    5.14
   4 -16 -34   -2.43    3.37
  -4  16 -34    3.80    4.76
  34  16  -4    2.51    4.49
 -16   4 -34   -1.32    4.76
 -16  -4 -34   -1.00    4.94
   4  16 -34   -0.92    4.12
  34  16  -6   81.88    5.76
  -6  16 -34   82.71    6.23
   6 -16 -34   69.15    4.48
 -16   6 -34   78.29    6.02
   6  16 -34   72.28    5.49
 -16   8 -34   49.05    5.45
   8  16 -34   49.67    4.84
  34  16  -8   55.91    5.55
  34  10 -16    9.26    4.50
  10  16 -34    4.97    3.67
 -16  10 -34    6.81    4.68
  34  16 -10    6.73    4.86
  34  12 -16  121.81    6.89
  34  16 -12  117.05    7.25
  12  16 -34  111.66    5.99
 -12  16 -34  135.64    7.32
 -16  12 -34  132.84    7.37
 -14  16 -34   26.13    5.39
  16  34 -14   29.47    3.92
  34  14 -16   28.86    5.27
  14  16 -34   30.31    3.60
  34  16 -14   19.55    5.12
  14  34 -16   31.68    3.45
 -16  16 -34   79.34    6.20
  16  34 -16   57.41    4.31
   0  18 -34   12.31    4.76
 -18   0 -34   11.32    4.94
 -18  -2 -34   18.89    5.00
   2 -18 -34   12.72    3.61
 -18   2 -34   15.39    5.18
  -2  18 -34   24.44    5.14
   2  18 -34   16.92    4.75
  -4  18 -34   28.38    5.26
   4 -18 -34   26.20    3.74
  34  18  -4   20.83    4.96
 -18   4 -34   26.46    4.95
 -18  -4 -34   30.32    5.06
   4  18 -34   22.14    4.70
  -6  18 -34    4.57    5.04
  34  18  -6    5.00    4.95
 -18   6 -34    1.32    4.92
 -18  -6 -34   -2.36    4.82
   6  18 -34    6.15    4.23
   6 -18 -34    1.99    3.03
  34  18  -8   21.82    5.18
 -18   8 -34   22.23    5.17
   8  18 -34   18.37    4.29
 -18  -8 -34   24.16    5.38
 -18  10 -34    8.56    4.60
  10  18 -34   -3.27    3.96
  34  18 -10    6.32    4.78
 -18 -10 -34    9.60    5.05
 -18 -12 -34   -0.69    4.90
 -12  18 -34    3.55    5.17
  34  18 -12   -6.14    4.96
 -18  12 -34    4.61    4.84
  12  18 -34    3.35    3.43
 -14  18 -34   17.74    5.23
 -34 -14 -18    5.92    2.86
 -18 -14 -34    4.81    5.31
  18  34 -14    6.89    3.57
 -18  14 -34   14.88    4.92
  14  34 -18    9.36    2.82
  14  18 -34    9.32    3.35
 -16  18 -34   40.34    5.48
 -18  16 -34   39.95    5.42
 -34 -16 -18   33.86    3.56
  16  34 -18   34.05    3.50
  18  34 -16   38.35    4.07
 -18  18 -34   -1.27    4.64
  18  34 -18    1.46    3.00
 -20   0 -34   56.05    5.55
   0  20 -34   57.60    5.52
   2  20 -34    1.65    4.71
 -20   2 -34    5.58    4.76
 -20  -2 -34    7.65    4.76
  -2  20 -34    2.88    4.88
   4 -20 -34   21.63    3.63
  34  20  -4   23.74    5.23
 -20   4 -34   21.81    5.08
 -20  -4 -34   24.82    5.25
   4  20 -34   34.12    4.88
  -4  20 -34   22.56    5.36
   6 -20 -34    0.11    2.91
  34  20  -6    2.77    4.94
 -20   6 -34    5.54    4.62
  -6  20 -34    8.42    5.25
   6  20 -34   -2.50    4.34
 -20  -6 -34    7.03    5.21
  34  20  -8    2.44    5.08
 -20   8 -34    0.81    4.53
   8  20 -34    1.36    4.24
 -20  -8 -34    5.56    4.82
 -20  10 -34   12.61    4.57
  10  20 -34   12.59    3.82
 -34 -10 -20   11.43    2.98
  34  20 -10   12.52    5.05
 -20 -10 -34   15.24    5.38
 -20 -12 -34    4.91    5.38
 -20  12 -34    7.40    4.87
  20  34 -12    9.76    3.79
  12  20 -34    1.51    3.72
 -34 -12 -20    1.77    2.79
 -12  20 -34    8.32    5.48
 -34 -14 -20    2.93    2.94
 -20 -14 -34   10.63    5.32
  20  34 -14    2.12    3.82
 -20  14 -34    3.33    4.40
 -14  20 -34    2.17    5.03
 -34 -16 -20   28.00    3.51
 -20  16 -34   31.08    5.02
 -20 -16 -34   28.74    5.72
 -16  20 -34   29.42    5.31
  16  34 -20   29.55    3.03
  20  34 -16   26.81    3.94
 -34 -18 -20    8.58    3.21
 -20 -18 -34    9.20    5.43
  34  20 -18   16.55    5.27
  18  34 -20    9.43    2.85
 -20  18 -34    8.70    4.72
  20  34 -18    8.02    3.36
 -18  20 -34   12.21    4.72
  20  34 -20    1.13    2.96
 -20  20 -34    2.68    4.55
 -22   0 -34  112.74    6.73
   0  22 -34  102.06    6.92
 -22   2 -34    1.13    4.52
   2  22 -34    3.49    4.64
  -2  22 -34    1.89    5.13
 -22  -2 -34    5.72    4.76
   4 -22 -34    2.85    3.25
  34  22  -4    0.82    4.61
 -22   4 -34    0.80    4.74
 -22  -4 -34   -0.49    4.83
   4  22 -34    2.28    4.31
  -4  22 -34   -2.25    5.22
   6 -22 -34   24.78    3.31
  34  22  -6   42.37    5.41
   6  22 -34   28.39    4.83
 -22   6 -34   41.16    4.96
 -34  -6 -22   25.02    3.22
 -22  -6 -34   29.04    5.27
  -6  22 -34   32.04    5.68
   8  22 -34   55.66    5.20
  34  22  -8   68.09    5.85
 -22   8 -34   65.34    5.34
 -34  -8 -22   48.63    3.86
 -22  -8 -34   55.82    5.60
 -22  10 -34   24.85    4.74
  10  22 -34   24.21    4.35
 -34 -10 -22   18.17    3.19
 -22 -10 -34   22.11    5.17
  12  22 -34   28.33    4.21
 -22  12 -34   40.56    5.11
  22  34 -12   32.09    4.65
 -34 -12 -22   27.36    3.35
 -12  22 -34   34.60    5.66
 -22 -12 -34   34.09    5.49
 -22 -14 -34   78.46    6.02
 -22  14 -34   73.64    5.45
  22  34 -14   80.22    5.31
 -34 -14 -22   63.17    4.51
 -14  22 -34   89.99    6.49
 -34 -16 -22    7.94    3.19
 -22 -16 -34   12.57    5.06
  34  22 -16   14.36    5.11
  22  34 -16   10.27    3.84
 -16  22 -34   15.16    4.91
 -22  16 -34   15.17    4.60
 -34 -18 -22   14.67    3.30
 -22 -18 -34   13.39    5.25
  34  22 -18   15.96    5.00
  22  34 -18    8.03    3.44
 -22  18 -34   16.39    4.48
 -34 -20 -22   23.23    3.48
 -22 -20 -34   31.26    5.00
  22  34 -20   31.88    3.46
 -22  20 -34   29.83    4.63
 -20  22 -34   23.19    4.58
 -34 -22 -22   -3.03    3.09
 -22 -22 -34   -2.77    4.95
 -22  22 -34    0.92    4.02
   0  24 -34   41.39    5.53
 -24   0 -34   39.75    5.12
  -2  24 -34   38.02    5.86
 -34  -2 -24   30.59    3.31
 -24   2 -34   39.59    5.05
 -24  -2 -34   38.66    4.92
   2  24 -34   44.49    5.73
   4 -24 -34   51.92    4.18
  34  24  -4   55.07    5.70
 -24   4 -34   54.58    5.21
  -4  24 -34   58.22    5.86
 -34  -4 -24   52.64    3.75
 -24  -4 -34   54.48    5.65
   4  24 -34   51.08    5.54
   6 -24 -34   26.62    3.08
 -34  -6 -24   19.73    3.16
 -24   6 -34   25.75    4.71
   6  24 -34   26.59    4.67
 -24  -6 -34   21.29    4.98
 -24   8 -34   13.57    4.50
 -24  -8 -34    4.44    4.52
   8  24 -34    3.23    4.44
 -34  -8 -24    8.00    3.14
 -24  10 -34    2.08    4.39
  24  34 -10   -0.15    4.43
  10  24 -34   -0.73    4.16
 -34 -10 -24    1.34    3.08
 -24 -10 -34    5.85    4.67
 -10  24 -34    5.57    5.01
  24  34 -12    1.82    3.91
 -24  12 -34    5.54    4.14
 -12  24 -34    2.81    5.25
 -34 -12 -24   11.82    3.23
 -24 -12 -34   11.02    4.92
 -24  14 -34   10.19    4.14
  34  24 -14   -6.14    5.19
 -34 -14 -24   -4.50    3.12
 -14  24 -34    1.28    4.94
  24  34 -14   -1.32    3.99
 -24 -14 -34    1.56    4.62
 -24  16 -34   21.13    4.30
  34  24 -16   24.68    4.88
  24  34 -16   28.02    4.20
 -16  24 -34   20.46    5.04
 -34 -16 -24   15.27    3.34
 -24 -16 -34   18.77    4.98
 -24 -18 -34   48.06    5.20
  34  24 -18   52.06    5.27
 -18  24 -34   48.19    5.30
  24  34 -18   45.41    4.08
 -24  18 -34   45.61    4.50
 -34 -18 -24   42.73    3.80
 -34 -20 -24   27.19    3.50
 -24 -20 -34   32.78    5.12
  24  34 -20   25.94    3.46
 -20  24 -34   29.26    4.49
 -24  20 -34   41.83    4.21
 -34 -22 -24   11.24    3.08
 -22 -24 -34   19.26    4.89
 -34 -24 -22   13.45    3.09
 -22  24 -34   14.04    3.81
 -24  22 -34   11.42    3.71
 -24 -22 -34   18.54    4.65
 -34 -24 -24   29.97    3.26
 -24 -24 -34   40.48    4.86
 -24  24 -34   35.69    3.83
 -26   0 -34   96.31    5.82
   0  26 -34   96.70    6.79
 -34   0 -26   76.60    4.45
 -34   2 -26   39.48    3.36
 -26   2 -34   48.06    4.94
 -34  -2 -26   40.02    3.52
  -2  26 -34   49.99    5.79
 -26  -2 -34   40.79    5.02
   2  26 -34   48.42    5.69
   4 -26 -34   40.90    3.84
   4  26 -34   49.15    5.53
  34  26  -4   50.47    5.82
 -26   4 -34   48.27    4.97
  -4  26 -34   53.72    6.04
 -34  -4 -26   43.04    3.68
 -26  -4 -34   47.57    4.97
 -26   6 -34   25.52    4.42
 -34  -6 -26   27.62    3.43
 -26  -6 -34   33.52    4.74
   6  26 -34   34.93    5.07
   8  26 -34    0.61    4.40
 -26   8 -34    2.40    3.83
 -26  -8 -34   -1.35    4.55
 -34  -8 -26   -0.55    3.06
 -26  10 -34    2.07    4.19
  26  34 -10   -1.43    3.99
 -34 -10 -26    2.78    3.09
 -10  26 -34   -2.96    4.99
 -26 -10 -34   -4.62    4.62
  26  34 -12   10.91    4.21
 -26  12 -34   17.84    4.11
 -12  26 -34   12.81    5.25
  34  26 -12   11.43    4.88
 -34 -12 -26   13.61    3.23
 -26 -12 -34   22.98    4.73
 -26  14 -34    0.13    3.72
  34  26 -14   -3.56    4.81
  26  34 -14    3.61    3.97
 -14  26 -34    2.63    4.73
 -34 -14 -26   -4.38    3.12
 -26 -14 -34   -4.63    4.63
 -16  26 -34    9.71    4.82
 -26 -16 -34   15.40    4.33
  34  26 -16   11.21    4.49
  26  34 -16    2.87    3.78
 -34 -16 -26   10.72    3.11
 -26  16 -34   17.17    3.86
  34  26 -18    1.53    4.23
  26  34 -18    5.19    3.47
 -18  26 -34    1.24    4.39
 -34 -18 -26    5.81    3.10
 -26  18 -34    0.95    3.43
 -26 -18 -34   11.60    4.40
  26  34 -20   15.54    3.22
 -26  20 -34   10.58    3.43
 -20  26 -34    8.22    3.97
 -34 -20 -26   10.58    3.09
 -26 -20 -34   16.79    4.44
 -34 -26 -22   17.65    3.03
 -22 -26 -34   21.84    4.61
 -22  26 -34   23.62    3.69
 -26  22 -34   22.75    3.44
 -34 -22 -26   17.65    3.16
 -26 -22 -34   28.15    4.39
 -34 -26 -24   38.17    3.23
 -24 -26 -34   41.49    4.65
 -26  24 -34   43.90    3.41
 -24  26 -34   37.14    3.65
 -34 -24 -26   37.58    3.28
 -26 -24 -34   50.94    4.38
 -26  26 -34   14.03    2.73
 -34 -26 -26   19.58    2.55
 -26 -26 -34   21.34    3.74
 -28   0 -34   77.51    5.27
   0  28 -34   66.87    6.07
 -34   0 -28   64.91    4.10
 -34   2 -28    2.67    2.67
 -28   2 -34    3.67    4.05
 -34  -2 -28    5.31    2.86
 -28  -2 -34    7.91    4.13
   2  28 -34   -0.49    5.11
  -2  28 -34    8.12    5.42
   4 -28 -34    6.17    2.99
 -34   4 -28    4.39    2.71
 -28   4 -34    6.42    3.86
 -34  -4 -28    9.36    2.96
 -28  -4 -34    6.95    4.10
   4  28 -34    9.53    4.74
  -4  28 -34    1.16    5.35
 -34  -6 -28   72.76    4.47
 -28   6 -34   76.52    5.23
 -28  -6 -34   76.79    5.43
 -28   8 -34   46.09    4.41
  28  34  -8   52.12    5.27
 -34  -8 -28   47.31    3.81
 -28  -8 -34   41.71    4.71
  34  28 -10    4.34    4.96
  28  34 -10   -2.75    4.28
 -28  10 -34   -7.35    3.76
 -34 -10 -28    5.18    3.02
 -28 -10 -34    1.51    4.13
 -10  28 -34    7.90    5.29
 -28  12 -34   21.34    3.80
  34  28 -12   17.14    4.99
 -34 -12 -28   20.60    3.36
 -12  28 -34   20.51    5.24
 -28 -12 -34   14.83    4.35
  28  34 -12   12.04    4.34
  28  34 -14   39.10    4.29
  34  28 -14   39.69    5.04
 -14  28 -34   34.85    5.31
 -34 -14 -28   39.34    3.68
 -28 -14 -34   40.40    4.63
 -28  14 -34   37.21    4.00
  34  28 -16    1.25    4.24
  28  34 -16    4.18    3.77
 -16  28 -34    3.31    4.42
 -34 -16 -28    1.21    3.09
 -28 -16 -34   -0.13    4.07
 -28  16 -34    1.30    3.29
  34  28 -18   27.32    4.33
  28  34 -18   25.77    3.77
 -28  18 -34   27.75    3.46
 -18  28 -34   33.94    4.51
 -34 -18 -28   25.84    3.32
 -28 -18 -34   29.49    4.31
 -20  28 -34   17.26    3.71
 -28  20 -34   18.05    3.04
 -34 -20 -28   20.55    3.08
 -28 -20 -34   18.42    4.01
 -34 -28 -22    3.04    2.57
 -22 -28 -34   -0.23    4.22
 -22  28 -34    2.63    3.26
 -28  22 -34    3.64    2.53
 -34 -22 -28   -0.92    2.64
 -28 -22 -34    9.73    3.68
 -34 -28 -24   -1.88    2.24
 -24 -28 -34    1.25    3.73
 -28  24 -34    1.90    2.14
 -34 -24 -28    1.64    2.42
 -28 -24 -34    3.12    3.38
 -34 -26 -28    7.26    2.23
 -28 -26 -34   12.74    3.09
 -34 -28 -26    8.77    2.11
 -26 -28 -34   12.68    3.25
 -34 -28 -28    1.02    1.65
 -28 -28 -34   -2.98    2.60
 -34   0 -30    4.92    2.80
 -30   0 -34    3.57    3.67
   0  30 -34    7.59    4.97
 -34   2 -30    1.63    2.71
 -30   2 -34    0.48    3.65
 -34  -2 -30    0.50    2.86
 -30  -2 -34    0.12    3.62
   2  30 -34    1.55    4.70
  -2  30 -34    1.75    5.44
  -4  30 -34   27.21    5.61
   4 -30 -34   22.08    2.94
 -34   4 -30   19.05    2.93
 -30   4 -34   27.14    3.82
 -34  -4 -30   17.23    3.17
 -30  -4 -34   21.29    4.01
 -34   6 -30   11.03    2.65
 -30   6 -34   11.73    3.47
  30  34  -6    6.02    4.73
 -34  -6 -30    9.06    3.10
 -30  -6 -34    8.48    3.89
  30  34  -8   16.62    4.58
 -30   8 -34    4.37    3.38
 -34  -8 -30   10.87    3.13
 -30  -8 -34   12.53    3.83
  34  30  -8    9.17    4.88
 -30  10 -34   -1.82    3.37
 -30 -10 -34    1.72    3.79
 -34 -10 -30    1.83    3.00
 -10  30 -34    6.45    5.05
  34  30 -10    8.86    4.69
  30  34 -10    0.52    4.23
  34  30 -12   13.08    4.45
 -34 -12 -30   11.31    3.02
 -30 -12 -34    7.44    3.78
 -12  30 -34   18.14    4.88
  30  34 -12    8.11    4.19
 -30  12 -34    6.63    3.10
 -14  30 -34    7.51    4.36
  34  30 -14   15.69    3.94
  30  34 -14    6.74    3.79
 -34 -14 -30   18.17    3.17
 -30 -14 -34   14.99    3.80
 -30  14 -34   11.02    3.03
  34  30 -16   17.66    3.93
  30  34 -16   13.44    3.63
 -34 -16 -30   14.42    3.06
 -16  30 -34   18.19    4.06
 -30  16 -34   13.48    2.91
 -30 -16 -34   16.12    3.76
 -18  30 -34   -0.81    3.80
  30  34 -18   -2.36    3.26
 -34 -18 -30    2.63    2.77
 -30 -18 -34   -0.63    3.36
 -30  18 -34    0.71    2.34
 -34 -20 -30    1.70    2.58
 -30 -20 -34    8.91    3.25
 -30  20 -34    1.29    2.16
 -34 -30 -22   14.13    2.47
 -22 -30 -34   20.66    3.76
 -34 -22 -30   16.48    2.55
 -30 -22 -34   24.07    3.18
 -24 -30 -34    6.66    3.26
 -34 -24 -30    6.10    2.13
 -30 -24 -34    5.82    2.76
 -34 -30 -24    4.62    1.91
 -30 -34 -26   11.69    2.29
 -26 -34 -30    9.37    2.86
 -34 -26 -30    4.46    1.81
 -30 -26 -34    6.93    2.36
 -34 -30 -26    4.88    1.59
 -26 -30 -34    5.79    2.83
 -30 -28 -34   18.76    2.13
 -28 -30 -34   16.97    2.28
 -30 -34 -28    9.22    1.93
 -28 -34 -30   15.13    2.16
 -30 -30 -34    2.87    1.32
 -34   0 -32   -2.21    2.74
 -32   0 -34    2.00    3.17
   2 -32 -34   -2.69    2.74
 -34   2 -32    2.78    2.52
 -32   2 -34    2.58    3.11
 -34  -2 -32    0.19    2.74
 -32  -2 -34    4.69    3.19
 -34   4 -32   16.68    2.71
 -32   4 -34   15.87    3.23
  32  34  -4   19.70    4.82
 -34  -4 -32   13.70    2.96
 -32  -4 -34   15.45    3.33
  34  32  -6   -0.65    4.34
 -34   6 -32   -0.40    2.27
  32  34  -6   -1.81    4.37
 -32   6 -34    0.29    2.90
 -34  -6 -32   -4.39    2.91
 -32  -6 -34   -2.15    3.33
 -32   8 -34    9.52    2.82
 -34  -8 -32   10.93    2.91
 -32  -8 -34   10.73    3.43
  -8  32 -34   11.02    4.76
  34  32  -8    1.52    4.49
  32  34  -8    7.37    4.43
 -34   8 -32    7.67    2.35
 -34 -10 -32   -1.96    2.86
 -32 -10 -34    2.39    3.20
 -10  32 -34   -0.69    4.33
  34  32 -10   -0.37    4.24
  32  34 -10   -5.61    4.03
 -32  10 -34    0.69    2.56
 -34 -12 -32   -0.91    2.82
  34  32 -12    2.18    3.91
 -32 -12 -34   -4.15    3.13
  32  34 -12    5.27    3.55
 -12  32 -34    0.26    4.43
 -32  12 -34    4.25    2.45
  34  32 -14    9.50    3.55
  32  34 -14    8.90    3.33
 -34 -14 -32   10.81    2.83
 -32 -14 -34    5.07    3.09
 -32  14 -34    5.54    2.09
  34  32 -16   18.39    3.62
  32  34 -16   24.20    3.47
 -34 -16 -32   18.98    2.87
 -32 -16 -34   18.03    3.31
 -34 -18 -32    0.61    2.47
 -32 -18 -34    6.12    2.83
 -34 -32 -20    0.06    1.91
 -32 -20 -34    0.08    2.63
 -34 -32 -22    6.07    1.83
 -34 -22 -32    4.63    2.05
 -24 -34 -32   -2.38    2.67
 -32 -34 -24    2.23    1.75
 -32 -24 -34    5.41    2.06
 -34 -32 -24   -0.60    1.35
 -34 -24 -32   -0.64    1.53
 -24 -32 -34    3.45    2.69
 -32 -34 -26    2.29    1.40
 -32 -26 -34    2.25    1.55
 -26 -32 -34    6.59    2.07
 -26 -34 -32    5.96    2.08
 -28 -32 -34    8.78    1.59
 -28 -34 -32    6.20    1.42
 -34   0 -34    7.68    2.66
   2 -34 -34   16.64    2.36
 -34   2 -34   15.88    2.66
  34  34  -2   22.66    4.56
 -34  -2 -34   17.27    2.83
  34  34  -4    3.72    4.23
 -34  -4 -34    0.77    2.59
 -34   4 -34   -2.53    2.23
 -34   6 -34   21.58    2.50
 -34  -6 -34   21.65    2.90
  34  34  -6   26.64    4.39
 -34  -8 -34    3.98    2.65
  34  34  -8    6.75    3.95
 -34   8 -34    6.05    1.93
 -34 -10 -34    0.33    2.47
  34  34 -10   -3.51    3.72
 -34 -12 -34   34.01    3.11
  34  34 -12   42.86    3.98
  34  34 -14   31.37    3.49
 -34 -14 -34   31.34    2.86
 -34 -16 -34    5.44    2.25
 -18 -34 -34   39.80    3.62
 -34 -18 -34   27.15    2.45
 -34 -34 -20    4.15    1.45
 -34 -20 -34   10.23    1.85
 -34 -22 -34   -0.13    1.46
 -24 -34 -34   11.30    2.14
 -26 -34 -34    2.92    1.48
  35   1  -1   -1.18    2.81
  35   1   1    3.36    2.65
   1   1 -35   -1.53    3.89
   1  -1 -35    1.79    3.58
  35   1  -3   46.40    3.85
   1   3 -35   53.02    4.41
   3   1 -35   47.00    4.32
  -1   3 -35   43.61    4.60
   3  -1 -35   50.76    4.35
  35   3  -1   42.14    3.71
  -1  -3 -35   55.33    4.50
  -3   1 -35   44.55    4.73
  35   3   1   48.17    3.64
   1  -3 -35   48.81    4.45
  -3  -1 -35   36.05    4.70
   3   3 -35   -2.44    3.50
  35   3  -3   -0.12    3.13
  -3   3 -35    0.75    4.12
   3  -3 -35    6.05    3.32
  35   3   3    1.89    2.70
  -3  -3 -35   -1.78    4.04
  35   5  -1    2.44    3.21
  -5   1 -35    2.75    4.31
  35   1  -5    2.60    3.11
   1   5 -35    1.43    3.90
   5   1 -35    3.71    3.20
  -1   5 -35   -2.06    3.80
   5  -1 -35   -1.27    3.18
  -5  -1 -35   -2.29    4.22
   1  -5 -35   -0.69    3.60
  -1  -5 -35    2.43    3.81
  35   5   1    2.01    3.17
   3   5 -35   -1.10    3.59
   5   3 -35    2.47    3.42
  35   3  -5    3.09    3.38
  -3   5 -35   -0.45    4.05
  -5   3 -35    5.69    4.05
   5  -3 -35    3.25    3.22
  35   5  -3   -0.63    3.38
   3  -5 -35    4.61    3.47
  -5  -3 -35    0.46    4.20
  -3  -5 -35    0.15    3.72
  35   5   3   -2.50    2.87
   5   5 -35    1.73    3.60
  -5   5 -35   -3.11    4.36
  35   5  -5   -2.20    3.56
   5  -5 -35    1.24    3.11
  -5  -5 -35   -0.61    3.97
  35   5   5   -0.33    2.79
   1   7 -35   10.48    4.03
  -1   7 -35   11.51    3.91
   7   1 -35    8.72    3.17
   7  -1 -35   15.61    3.24
  -7   1 -35    2.67    4.35
  -7  -1 -35    9.89    4.36
   1  -7 -35    6.05    3.65
  -1  -7 -35    6.31    3.78
  35   7  -1    8.38    3.50
  35   7   1    8.50    3.46
  -3   7 -35  100.32    5.88
   7  -3 -35   85.07    4.89
  -7   3 -35   99.10    6.17
  35   3  -7   87.70    5.29
  35   7  -3   95.34    5.43
  35   7   3   98.58    5.18
   3  -7 -35   95.54    5.23
  -7  -3 -35   92.06    6.05
  -3  -7 -35   89.08    5.71
   3   7 -35   95.27    5.58
   7   3 -35   92.05    5.02
  35   7   5   42.94    3.76
   5   7 -35   50.83    4.22
   7   5 -35   40.67    3.96
  -5   7 -35   47.42    4.91
  35   5  -7   39.49    4.45
  -7   5 -35   42.32    5.20
   7  -5 -35   41.02    3.68
   5  -7 -35   43.93    3.88
  35   7  -5   46.60    4.42
  -7  -5 -35   43.55    5.05
  -5  -7 -35   43.59    4.86
  35   5   7   38.20    3.23
   7   7 -35    6.51    3.51
  35   7   7    4.82    2.96
  -7   7 -35   -0.32    4.68
  -7  -7 -35    4.44    4.50
  35   7  -7    2.08    3.99
   7  -7 -35    2.53    2.79
  35   9   1    3.81    3.56
   1   9 -35    1.04    4.12
   9   1 -35    3.63    2.85
  -1   9 -35   11.00    4.23
   9  -1 -35    3.76    2.86
  -9   1 -35   -0.32    4.65
  -9  -1 -35    4.82    4.72
   1  -9 -35    7.04    3.75
  -1  -9 -35   11.86    3.83
  35   9  -1    7.56    3.63
   3   9 -35    3.18    3.69
  35   9   3   -3.72    3.32
   9   3 -35   -0.70    2.89
  35   3  -9    4.12    3.68
  -3   9 -35    1.25    4.13
   9  -3 -35    1.74    2.66
   3  -9 -35    0.39    3.45
  -9   3 -35   -9.31    4.67
  -9  -3 -35   -2.08    4.57
  35   9  -3    3.05    3.77
  -3  -9 -35    2.26    4.15
   9   5 -35   17.61    3.37
   5   9 -35   21.19    3.75
  35   9   5   16.57    3.46
  -5   9 -35   24.82    4.61
  35   5  -9   23.00    4.05
  -9   5 -35   25.77    4.93
   5  -9 -35   18.29    3.26
  35   9  -5   25.49    4.23
  -9  -5 -35   19.02    4.70
  -5  -9 -35   26.48    4.59
   9   7 -35   23.49    3.50
   7   9 -35   25.10    3.76
  35   7   9   16.81    2.95
   7  -9 -35   18.23    3.08
  -7   9 -35   22.02    4.97
  35   9   7   23.70    3.50
  -9   7 -35   23.63    4.95
  35   7  -9   27.33    4.23
  35   9  -7   19.92    4.32
  -9  -7 -35   28.81    4.87
  -7  -9 -35   24.69    4.57
   9   9 -35   -1.14    3.34
  -9   9 -35    5.26    4.83
  35   9  -9    2.05    4.13
  -9  -9 -35   -1.15    4.72
  35  11  -1    1.13    4.00
   1  11 -35   -2.43    4.10
  -1  11 -35    6.56    4.28
  35  11   1    2.21    3.72
 -11   1 -35   -1.64    4.57
 -11  -1 -35   -2.79    4.57
   1 -11 -35    1.95    3.66
  -1 -11 -35   -1.61    3.86
   3  11 -35   -1.33    3.85
  -3  11 -35    9.39    4.50
  35  11   3    4.46    3.69
   3 -11 -35    3.56    3.24
 -11  -3 -35    7.36    4.69
  35  11  -3    6.62    3.98
  -3 -11 -35    4.86    4.04
  -5 -11 -35   20.59    4.66
  11   5 -35   27.05    3.11
   5  11 -35   16.55    3.89
  -5  11 -35   20.42    4.82
  35   5 -11   20.29    4.22
   5 -11 -35   22.16    3.48
 -11  -5 -35   20.24    4.93
  35  11  -5   19.37    4.28
  11   7 -35    5.85    2.92
  -7 -11 -35    4.04    4.46
   7  11 -35    4.93    3.48
  -7  11 -35    1.81    4.75
  35   7 -11    4.48    4.02
   7 -11 -35    2.05    2.76
  35  11  -7    7.62    3.99
 -11  -7 -35    6.64    4.84
  -9 -11 -35    6.63    4.64
  -9  11 -35    3.67    4.87
  35   9 -11    1.78    4.32
  35  11  -9   -0.30    4.29
  11   9 -35    0.83    3.03
 -11  -9 -35    3.69    4.97
   9  11 -35   -1.57    3.19
 -11 -11 -35    5.23    4.95
  35  11 -11    5.04    4.23
  11  11 -35   -0.25    3.00
  -1 -13 -35   11.92    4.06
   1  13 -35    5.90    4.34
  -1  13 -35    6.99    4.49
  35  13  -1    9.70    4.04
  35  13   1    6.77    4.04
   1 -13 -35    5.19    3.80
   3  13 -35   16.12    4.33
  35  13  -3   16.54    4.51
  -3  13 -35   22.18    4.99
  -3 -13 -35   31.09    4.24
   3 -13 -35   24.87    3.68
   5  13 -35    7.45    3.91
  -5 -13 -35    0.32    4.44
  -5  13 -35    2.96    4.79
   5 -13 -35    2.83    3.18
  35  13  -5   12.58    4.50
  -7 -13 -35    7.82    4.69
  -7  13 -35    0.84    4.87
  35   7 -13    5.76    4.08
   7 -13 -35   10.47    2.73
  35  13  -7    5.38    4.56
 -13  -7 -35    5.90    5.14
   7  13 -35    8.78    3.84
  -9 -13 -35    5.50    4.76
  35   9 -13    4.97    4.17
  35  13  -9    3.88    4.59
   9  13 -35    6.92    3.67
 -13  -9 -35    6.13    4.82
 -13 -11 -35   13.18    5.14
 -11 -13 -35   -0.34    5.06
 -13  11 -35    4.89    5.18
  11  35 -13   10.21    2.80
  35  11 -13   12.73    4.61
  35  13 -11    8.42    4.44
  13  11 -35   11.03    3.01
  11  13 -35    3.32    3.32
 -13 -13 -35    6.01    5.16
 -13  13 -35    1.70    5.09
  13  35 -13   -0.12    3.10
  35  13 -13   -0.47    4.79
  13  13 -35   -0.24    3.02
   1 -15 -35    6.90    3.68
  -1 -15 -35    7.09    3.78
 -15   1 -35    5.19    4.94
  35  15  -1    5.77    4.37
  -1  15 -35    0.81    4.65
   1  15 -35    2.37    4.28
   3  15 -35    6.80    4.05
  -3  15 -35    5.59    4.72
  -3 -15 -35    2.00    4.36
  35  15  -3   -4.00    4.42
 -15   3 -35   -3.34    4.73
   3 -15 -35    3.05    3.49
  35  15  -5    4.67    4.49
  -5  15 -35    0.67    4.95
  -5 -15 -35    9.08    4.34
 -15   5 -35    4.69    5.07
   5 -15 -35    3.68    3.20
   5  15 -35    5.87    3.96
  -7  15 -35    7.43    4.81
  -7 -15 -35    8.51    4.57
 -15   7 -35    2.68    4.74
  35  15  -7    3.78    4.55
   7 -15 -35    4.11    2.91
   7  15 -35    3.64    3.94
  -9 -15 -35  -10.04    4.76
  35   9 -15    2.90    4.55
 -15   9 -35    4.18    4.80
  35  15  -9    1.11    4.47
   9  15 -35   -1.12    3.66
 -11 -15 -35   -3.57    4.91
 -15  11 -35    2.02    4.91
  35  11 -15    4.17    4.41
  35  15 -11    2.54    4.84
  11  15 -35    2.76    3.33
  13  35 -15   -2.48    2.92
 -13 -15 -35   -0.17    4.94
 -13  15 -35    0.68    5.02
 -15  13 -35    2.52    5.03
  15  35 -13    1.96    3.33
  35  13 -15   -5.14    4.63
  35  15 -13    0.63    4.66
  13  15 -35    4.51    3.10
  15  35 -15    3.21    2.94
 -15  15 -35   -0.84    5.00
  35  15 -15    5.32    4.85
  -1  17 -35   -8.05    4.75
   1 -17 -35    0.28    3.61
  -1 -17 -35   -2.52    3.94
  35  17  -1   -4.21    4.38
 -17   1 -35    5.87    4.75
 -17  -1 -35    4.38    4.88
   1  17 -35    1.46    4.49
   3 -17 -35    8.06    3.44
  -3  17 -35    2.66    4.66
  35  17  -3    2.21    4.78
 -17   3 -35    6.85    5.14
 -17  -3 -35    3.21    5.18
   3  17 -35    3.80    4.06
  -5  17 -35    6.56    4.81
  35  17  -5   -2.07    4.56
 -17   5 -35    0.33    4.97
 -17  -5 -35    1.52    5.05
   5  17 -35    5.56    4.10
   5 -17 -35    2.31    3.16
  -7  17 -35   21.69    5.31
 -17   7 -35   21.33    5.28
   7 -17 -35   25.22    3.19
 -17  -7 -35   28.08    5.41
   7  17 -35   29.98    4.43
  35  17  -7   27.82    4.75
 -17   9 -35    6.98    5.14
  35  17  -9    9.63    4.78
   9  17 -35    2.14    3.78
 -17  11 -35   -0.17    4.99
  35  17 -11    5.28    5.04
  11  17 -35    8.36    3.56
 -13  17 -35   17.16    5.31
 -17  13 -35   12.41    5.06
  35  13 -17   15.24    4.71
  17  35 -13   16.59    3.69
  13  17 -35   13.52    3.33
  35  17 -13   19.48    5.12
 -15  17 -35    2.81    5.02
 -17  15 -35    0.16    4.96
  15  35 -17    5.04    2.79
  15  17 -35    7.29    3.02
 -17  17 -35   -0.16    5.01
  17  35 -17    6.81    3.04
   1 -19 -35    5.58    3.74
 -19   1 -35    0.33    4.75
 -19  -1 -35    2.01    5.17
   1  19 -35    7.25    4.81
  -1  19 -35   10.03    4.88
   3 -19 -35   14.10    3.62
  35  19  -3   12.67    4.64
 -19  -3 -35    6.39    5.03
  -3  19 -35   12.19    5.11
 -19   3 -35   14.61    5.12
   3  19 -35   12.78    4.67
  35  19  -5   10.47    4.94
 -19   5 -35   15.21    5.07
 -19  -5 -35   10.59    5.11
   5  19 -35   17.41    4.41
   5 -19 -35   14.38    3.26
  -5  19 -35   23.05    5.52
  35  19  -7    3.22    5.02
  -7  19 -35   -2.39    4.94
 -19   7 -35    9.37    4.99
   7  19 -35    1.21    4.25
 -19  -7 -35   -3.37    5.12
 -19   9 -35    8.51    4.86
 -19  -9 -35    4.91    5.36
   9  19 -35    1.60    3.92
  35  19  -9   10.64    4.94
 -19  11 -35    2.28    4.90
 -19 -11 -35   -0.85    5.17
  35  19 -11    3.04    5.08
  11  19 -35   -1.65    3.63
 -13  19 -35    4.02    4.96
 -19  13 -35   -1.45    4.74
  19  35 -13   -2.09    3.57
 -19 -13 -35    2.20    5.22
  13  19 -35   -0.25    3.44
 -19 -15 -35   -2.01    5.08
 -19  15 -35    2.06    4.77
  19  35 -15   -0.49    3.43
 -15  19 -35    2.62    4.86
 -35 -15 -19   -0.51    2.73
 -19  17 -35   -2.48    4.73
 -35 -17 -19    2.47    2.83
  17  35 -19    1.46    2.66
  19  35 -17   -3.83    3.18
 -17  19 -35    2.38    4.86
 -35 -19 -19   -4.28    2.83
  19  35 -19   -1.00    2.80
   1 -21 -35   14.28    3.95
 -21   1 -35    8.98    4.76
 -21  -1 -35    3.45    4.64
   1  21 -35    4.82    4.90
  -1  21 -35   12.02    5.22
  -3  21 -35   28.36    5.25
   3 -21 -35   24.17    3.65
  35  21  -3   27.91    5.29
 -21   3 -35   34.37    5.00
 -21  -3 -35   37.21    5.44
   3  21 -35   26.50    4.98
  35  21  -5    2.10    4.79
 -21   5 -35   -1.13    4.79
 -21  -5 -35    0.83    5.05
   5  21 -35    0.48    4.39
  -5  21 -35   -0.17    5.04
   5 -21 -35    3.38    3.06
  35  21  -7   14.02    5.22
 -21  -7 -35    4.96    5.07
 -21   7 -35    6.73    4.58
   7  21 -35    3.22    4.25
 -21   9 -35    0.95    4.55
 -21  -9 -35    3.80    5.23
   9  21 -35   -0.59    3.97
  35  21  -9    3.21    4.83
  11  21 -35   -3.75    3.86
 -21  11 -35   10.08    4.60
  21  35 -11    1.11    4.11
 -35 -11 -21   -1.02    2.74
 -21 -11 -35    0.17    5.12
 -11  21 -35    0.34    5.17
  21  35 -13   46.70    4.50
 -21  13 -35   50.79    5.39
 -35 -13 -21   46.30    3.60
 -13  21 -35   48.64    5.90
 -21 -13 -35   57.04    5.81
 -21  15 -35    1.66    4.38
  21  35 -15   -1.73    3.66
 -35 -15 -21    6.22    2.85
 -15  21 -35    1.29    5.14
 -21 -15 -35    1.13    5.27
 -21  17 -35   20.90    4.70
 -21 -17 -35   13.02    5.24
  35  21 -17   18.32    5.21
  21  35 -17    9.09    3.36
 -17  21 -35   12.40    4.91
 -35 -17 -21    7.11    2.91
 -35 -19 -21    2.42    2.95
 -21 -19 -35    2.16    5.22
 -35 -21 -19    3.77    2.79
  21  35 -19    7.79    2.93
 -19  21 -35    1.91    4.64
 -21  19 -35    5.84    4.30
 -35 -21 -21    3.69    2.81
 -21 -21 -35   -1.33    4.88
 -21  21 -35   -2.32    4.31
 -23   1 -35    3.17    4.73
 -23  -1 -35    2.70    4.75
   1  23 -35    0.83    4.83
  -1  23 -35   12.29    5.05
  35  23  -3    8.19    5.02
 -23   3 -35    9.75    4.71
 -23  -3 -35    7.37    4.56
   3  23 -35    2.12    4.83
  -3  23 -35    4.42    5.42
   5 -23 -35    9.13    3.07
  35  23  -5    8.98    5.36
 -23   5 -35   12.60    4.63
   5  23 -35    7.61    4.50
 -23  -5 -35   12.05    4.66
  -5  23 -35   13.66    5.38
  35  23  -7    3.50    5.34
 -23   7 -35   11.23    4.62
   7  23 -35   12.74    4.52
 -23  -7 -35   17.46    5.09
 -23   9 -35    7.75    4.58
   9  23 -35   -1.91    4.26
 -35  -9 -23    5.30    2.74
 -23  -9 -35    2.07    4.66
 -23  11 -35   -0.15    4.52
  23  35 -11   -4.02    4.23
 -35 -11 -23    0.62    2.76
 -11  23 -35    6.65    5.55
 -23 -11 -35    2.85    4.84
  11  23 -35    0.27    3.83
  23  35 -13   11.15    3.93
 -23  13 -35   12.86    4.55
 -35 -13 -23    8.46    2.94
 -13  23 -35   15.09    5.28
 -23 -13 -35   10.36    5.00
 -23  15 -35    1.13    4.29
  35  23 -15   -2.90    4.98
  23  35 -15    3.93    3.62
 -35 -15 -23    4.52    2.85
 -15  23 -35    2.19    4.94
 -23 -15 -35   -1.70    4.82
 -17  23 -35   -4.47    4.70
  35  23 -17    0.97    4.71
  23  35 -17    2.91    3.36
 -35 -17 -23    8.28    2.95
 -23 -17 -35    3.61    4.85
 -23  17 -35    1.51    4.03
 -23 -19 -35    3.19    4.83
  23  35 -19   -0.80    3.00
 -23  19 -35   -0.66    3.98
 -19  23 -35   -2.37    4.43
 -35 -19 -23    2.06    2.83
 -23 -21 -35   -1.94    4.68
 -35 -23 -21   -0.73    2.64
 -21 -23 -35    6.45    4.74
 -21  23 -35    1.03    3.75
 -23  21 -35   -2.10    3.79
 -35 -21 -23    3.08    2.74
 -23 -23 -35   -2.73    4.46
 -23  23 -35   -1.73    3.68
 -35 -23 -23    0.52    2.63
 -25   1 -35    6.64    4.54
 -25  -1 -35    2.27    4.59
   1  25 -35    1.15    5.15
  -1  25 -35    6.34    5.26
   3 -25 -35    0.70    3.17
   3  25 -35    7.42    4.75
  35  25  -3    2.05    5.26
 -25   3 -35    3.13    4.33
 -25  -3 -35    1.06    4.28
  -3  25 -35    7.39    5.14
   5 -25 -35    9.41    2.88
  35  25  -5    6.75    5.02
 -25   5 -35    2.20    4.33
 -25  -5 -35   11.76    4.50
 -35  -5 -25    9.48    2.70
   5  25 -35    6.15    4.70
  -5  25 -35   -0.84    5.39
 -25   7 -35    2.76    4.36
   7  25 -35    9.57    4.63
 -35  -7 -25    0.30    2.72
 -25  -7 -35   -0.76    4.69
 -25   9 -35   -3.14    4.28
  25  35  -9    4.12    4.02
   9  25 -35   -0.14    4.26
 -35  -9 -25    4.79    2.83
 -25  -9 -35    4.69    4.61
  25  35 -11   20.79    4.29
 -25  11 -35   11.82    4.15
 -35 -11 -25   14.82    3.02
 -11  25 -35   13.86    5.16
 -25 -11 -35   23.31    4.94
 -25  13 -35    1.88    3.77
  35  25 -13    2.02    5.01
 -35 -13 -25   -0.71    2.90
 -13  25 -35   -2.19    5.03
 -25 -13 -35    2.21    4.51
  25  35 -13    5.01    3.94
 -25  15 -35   -2.46    3.96
  25  35 -15    0.12    3.63
  35  25 -15   -0.41    4.68
 -35 -15 -25   -1.30    2.80
 -15  25 -35    2.25    4.84
 -25 -15 -35    0.86    4.62
  35  25 -17    6.14    4.61
  25  35 -17   -2.93    3.36
 -17  25 -35   -5.81    4.68
 -35 -17 -25   -1.16    2.81
 -25 -17 -35   -3.49    4.26
 -25  17 -35   -3.48    3.85
  25  35 -19    1.16    2.94
 -19  25 -35    2.10    4.14
 -35 -19 -25    2.60    2.73
 -25  19 -35    1.64    3.41
 -25 -19 -35    0.27    4.29
 -35 -25 -21    2.19    2.58
 -21 -25 -35    1.44    4.35
 -25  21 -35    3.59    3.46
 -21  25 -35    0.24    3.74
 -35 -21 -25   -1.48    2.67
 -25 -21 -35   -0.63    4.12
 -23 -25 -35    4.33    4.16
 -23  25 -35    2.52    3.31
 -25  23 -35    4.85    3.21
 -35 -23 -25   -3.27    2.41
 -25 -23 -35   -2.47    4.11
 -35 -25 -23    1.81    2.46
 -25  25 -35    2.98    2.80
 -35 -25 -25    2.19    2.22
 -25 -25 -35   -0.43    3.77
 -35  -1 -27    1.58    2.51
 -27   1 -35    0.84    3.95
  35  27  -1   -1.07    4.74
 -27  -1 -35    0.99    4.23
   1  27 -35   -0.64    4.82
  -1  27 -35   -3.58    4.98
   3 -27 -35    8.40    3.13
  35  27  -3    9.45    5.17
   3  27 -35    5.54    4.93
 -27   3 -35    6.07    3.91
 -35  -3 -27    9.18    2.72
 -27  -3 -35    5.10    4.14
  -3  27 -35    5.56    5.23
 -27   5 -35    5.44    4.07
 -35  -5 -27    3.42    2.69
 -27  -5 -35    5.81    4.09
   5  27 -35    2.61    4.65
  -5  27 -35    1.63    5.13
   5 -27 -35    5.23    2.75
 -27   7 -35   26.16    4.15
  27  35  -7   19.22    4.71
 -35  -7 -27   17.75    3.03
 -27  -7 -35   15.58    4.56
 -27   9 -35    6.37    3.95
  27  35  -9    9.34    4.24
 -35  -9 -27    5.85    2.85
 -27  -9 -35    6.61    4.34
  27  35 -11   24.29    4.37
 -27  11 -35   25.62    4.03
 -11  27 -35   32.89    5.44
 -35 -11 -27   21.57    3.14
  35  27 -11   23.89    5.18
 -27 -11 -35   22.53    4.67
 -27  13 -35    5.05    3.61
 -13  27 -35   22.73    4.87
  35  27 -13    9.06    4.72
 -35 -13 -27    9.75    3.00
 -27 -13 -35   13.90    4.34
  27  35 -13   11.57    3.73
  35  27 -15   -1.41    4.38
  27  35 -15    8.99    3.66
 -35 -15 -27   -2.75    2.72
 -15  27 -35    0.71    4.60
 -27 -15 -35    1.44    4.18
 -27  15 -35   -2.65    3.47
  35  27 -17    3.38    4.23
  27  35 -17   13.57    3.40
 -17  27 -35    6.47    4.39
 -35 -17 -27    8.63    2.82
 -27 -17 -35   13.73    4.26
 -27  17 -35   10.45    3.41
  27  35 -19    4.85    3.02
 -19  27 -35    7.40    3.86
 -35 -19 -27    3.26    2.60
 -27  19 -35    1.80    3.07
 -27 -19 -35    5.02    3.98
 -35 -27 -21    0.53    2.29
 -27  21 -35    0.73    2.82
 -21  27 -35    8.89    3.49
 -35 -21 -27   -1.19    2.45
 -27 -21 -35   -2.02    3.76
 -23  27 -35    5.10    3.03
 -23 -27 -35   -0.87    3.82
 -27  23 -35    3.43    2.46
 -35 -27 -23   -1.92    2.21
 -35 -23 -27   -4.47    2.26
 -27 -23 -35   -4.02    3.29
 -35 -25 -27    1.47    1.95
 -35 -27 -25   -1.85    1.82
 -27 -25 -35   -1.21    3.27
 -25 -27 -35    0.29    3.24
 -35 -27 -27   -0.63    1.53
 -27 -27 -35    2.11    2.77
   1 -29 -35    4.17    3.10
   1  29 -35   -0.62    4.98
 -35   1 -29    1.22    2.49
 -35  -1 -29   -1.53    2.55
 -29   1 -35    0.25    3.76
  35  29  -1    1.74    5.14
 -29  -1 -35    1.91    3.65
  -1  29 -35    3.61    5.15
   3 -29 -35   -3.34    2.83
 -29   3 -35   -4.84    3.58
 -35  -3 -29   -1.48    2.61
 -29  -3 -35   -0.51    3.93
  -3  29 -35    2.68    5.30
   3  29 -35   -5.90    4.86
 -29   5 -35    1.71    3.63
 -35  -5 -29   -0.84    2.66
  29  35  -5   -3.48    4.30
  -5  29 -35    0.78    4.99
 -29  -5 -35    8.08    3.96
 -29   7 -35   26.76    3.96
 -29  -7 -35   33.80    4.26
  29  35  -9   -2.85    4.12
 -29   9 -35    3.89    3.48
 -35  -9 -29    0.56    2.71
 -29  -9 -35   -6.19    3.80
  35  29  -9    7.35    4.76
  -9  29 -35    0.60    5.04
 -29  11 -35    4.03    3.24
  35  29 -11    8.25    4.56
 -35 -11 -29    0.47    2.74
 -29 -11 -35    1.74    3.89
 -11  29 -35    3.36    4.91
  29  35 -11    4.19    3.96
 -13  29 -35    9.35    4.81
  35  29 -13    7.70    4.34
 -35 -13 -29    5.09    2.74
  29  35 -13    2.54    3.74
 -29 -13 -35   10.02    3.92
 -29  13 -35    1.35    3.13
  35  29 -15   -0.82    3.77
  29  35 -15    3.39    3.48
 -35 -15 -29    2.72    2.57
 -15  29 -35    4.07    4.26
 -29 -15 -35    9.87    3.72
 -29  15 -35    2.73    3.07
  35  29 -17    0.65    3.62
  29  35 -17    0.67    3.16
 -17  29 -35    0.49    4.00
 -35 -17 -29    2.91    2.59
 -29 -17 -35   -1.77    3.53
 -29  17 -35   -1.51    2.83
 -35 -29 -19    6.05    2.07
 -19  29 -35    4.60    3.57
 -35 -19 -29    3.09    2.38
 -29  19 -35    2.79    2.48
 -29 -19 -35    8.29    3.32
 -35 -29 -21    1.53    1.94
 -29 -21 -35    2.77    3.22
 -21  29 -35    3.89    3.11
 -29  21 -35    3.63    2.18
 -35 -21 -29    1.95    2.20
 -23 -29 -35   -0.10    3.31
 -35 -23 -29    2.55    1.98
 -29 -23 -35   -1.56    2.84
 -35 -29 -23    1.29    1.72
 -35 -25 -29    2.43    1.63
 -29 -25 -35    0.53    2.61
 -35 -29 -25   -1.01    1.48
 -25 -29 -35   -0.67    2.93
 -29 -35 -27    3.11    2.08
 -27 -35 -29   -2.63    2.27
 -29 -27 -35    3.71    2.19
 -27 -29 -35   -1.09    2.33
 -29 -29 -35    0.55    1.61
 -29 -35 -29   -2.71    1.59
   1 -31 -35   -4.85    2.88
 -35   1 -31    1.97    2.40
 -35  -1 -31   -0.34    2.48
 -31   1 -35   -0.55    3.31
 -31  -1 -35   -5.65    3.39
   3 -31 -35   -0.68    2.47
 -35   3 -31   -0.78    2.36
 -31   3 -35    2.36    3.14
 -35  -3 -31   -0.26    2.57
 -31  -3 -35   -3.79    3.40
  31  35  -3    2.66    4.61
  -3  31 -35    3.25    4.97
 -31   5 -35    7.69    3.14
  31  35  -5   -3.51    4.23
 -35  -5 -31   -3.67    2.72
 -31  -5 -35    0.34    3.33
 -31   7 -35    5.10    3.05
 -35  -7 -31    5.35    2.66
 -31  -7 -35    4.78    3.33
  31  35  -7   10.53    4.27
  35  31  -7    1.29    4.56
 -35  -9 -31    0.17    2.60
 -31  -9 -35    2.62    3.28
  -9  31 -35   -5.05    4.86
  35  31  -9    0.75    4.06
  31  35  -9    1.44    3.99
 -31   9 -35    3.60    2.89
 -35 -11 -31    6.97    2.66
 -31 -11 -35   13.85    3.51
  35  31 -11    7.46    4.21
 -11  31 -35   11.05    4.63
  31  35 -11   10.46    3.81
 -31  11 -35   13.46    2.89
  35  31 -13    7.34    3.83
 -35 -13 -31    4.76    2.60
  31  35 -13    9.16    3.57
 -31 -13 -35    8.66    3.41
 -13  31 -35   12.50    4.35
 -31  13 -35    8.51    2.59
  35  31 -15   -5.79    3.70
  31  35 -15    3.45    3.32
 -35 -15 -31   -0.86    2.50
 -31 -15 -35   -7.59    3.24
 -31  15 -35   -0.90    2.28
 -15  31 -35    2.60    3.90
  31  35 -17   -1.12    2.95
 -35 -17 -31    0.58    2.33
 -31 -17 -35   -0.74    2.93
 -31  17 -35   -1.04    1.94
 -35 -31 -19    0.56    1.63
 -31 -19 -35   -0.09    2.90
 -35 -19 -31   -2.05    2.17
 -35 -21 -31    0.69    1.92
 -31 -21 -35    0.16    2.55
 -35 -31 -21    0.54    1.48
 -35 -23 -31   -1.90    1.48
 -31 -23 -35    0.68    2.23
 -35 -31 -23    0.04    1.25
 -23 -31 -35    4.52    2.96
 -31 -35 -25    1.52    1.75
 -25 -35 -31    3.37    2.43
 -31 -25 -35    3.34    1.94
 -25 -31 -35    1.65    2.52
 -31 -27 -35   -0.13    1.37
 -27 -31 -35   -0.32    1.80
 -27 -35 -31   -1.00    1.74
   1 -33 -35   12.95    2.60
  -1 -33 -35   14.49    2.83
 -35   1 -33   12.91    2.33
 -33   1 -35   15.22    2.84
 -35  -1 -33   13.08    2.48
 -33  -1 -35   10.51    2.93
  33  35  -1   15.09    4.30
 -35   3 -33    4.20    2.17
 -33   3 -35    7.22    2.74
  33  35  -3    3.62    4.30
 -35  -3 -33    4.84    2.45
 -33  -3 -35    1.46    2.82
  33  35  -5    7.17    4.14
 -33   5 -35    2.21    2.54
 -35  -5 -33    4.00    2.38
 -33  -5 -35    3.20    2.83
  35  33  -5   -2.49    4.20
 -33   7 -35    8.96    2.44
 -35  -7 -33    8.76    2.50
 -33  -7 -35   12.26    3.00
  35  33  -7    6.79    4.14
  33  35  -7   15.23    4.13
 -35  -9 -33    3.54    2.35
 -33  -9 -35    7.86    2.88
  35  33  -9   -3.09    4.00
  33  35  -9    3.79    3.73
 -33   9 -35    4.66    2.24
 -35 -11 -33   -2.24    2.39
 -33 -11 -35    1.82    2.78
  35  33 -11    2.08    3.66
  33  35 -11   -1.42    3.49
  35  33 -13    6.36    3.36
  33  35 -13    2.89    3.24
 -35 -13 -33    6.70    2.37
 -33 -13 -35    6.61    2.71
  35  33 -15   -1.06    3.04
  33  35 -15    0.51    2.86
 -35 -15 -33    0.93    2.07
 -33 -15 -35   -0.93    2.61
 -17 -33 -35    4.39    3.45
 -35 -17 -33    5.12    1.94
 -33 -17 -35    2.50    2.32
 -19 -33 -35   -0.70    3.05
 -35 -19 -33    0.37    1.72
 -33 -19 -35    2.37    2.16
 -33 -35 -21    0.60    1.48
 -35 -21 -33    2.11    1.43
 -33 -21 -35    4.51    1.80
 -23 -35 -33    7.55    2.26
  35  33  23    4.27    1.43
 -33 -23 -35    5.60    1.49
 -23 -33 -35    7.48    2.30
 -25 -33 -35    3.38    1.67
 -25 -35 -33    1.32    1.81
 -35  -1 -35    0.98    1.84
   1 -35 -35    2.93    1.83
  -3 -35 -35   -4.77    2.65
 -35  -3 -35    1.74    2.05
  35  35  -3   -2.55    3.85
  -5 -35 -35   -0.35    2.82
 -35  -5 -35    0.81    1.95
  35  35   5   -0.11    3.84
  35  35  -5   -1.87    3.69
 -35  -7 -35   -1.00    2.21
  35  35  -7   -0.30    3.52
 -35  -9 -35    0.32    2.14
  35  35  -9    2.17    3.29
 -35 -11 -35    1.73    2.00
  35  35 -11    0.87    3.08
 -13 -35 -35   -1.43    3.07
  35  35 -13   -4.41    2.99
 -35 -13 -35   -3.34    1.77
 -15 -35 -35   -0.08    3.00
 -35 -15 -35    2.96    1.69
 -17 -35 -35   -0.47    2.77
 -35 -17 -35   -1.39    1.42
 -19 -35 -35   -0.14    2.39
  35  35  21    0.73    1.43
 -23 -35 -35   -2.46    1.73
   0   0 -36  560.38   18.90
  36   0   0  528.62   18.18
   0  -2 -36   16.65    4.08
  36   2   0   21.40    3.13
   0   2 -36   15.77    4.17
   2   0 -36   18.93    3.87
  -2   0 -36   17.89    4.16
  36   2  -2    3.65    3.02
   2   2 -36   -0.14    3.80
  36   2   2    2.37    2.59
  -2   2 -36    1.51    3.96
   2  -2 -36   -0.55    3.66
  -2  -2 -36   -1.34    3.84
   0   4 -36    3.68    3.78
   4   0 -36   -2.53    3.41
  36   4   0    0.82    3.17
  -4   0 -36    4.77    4.30
   0  -4 -36   -2.01    4.01
  36   2  -4    2.38    3.18
   2   4 -36    3.70    3.74
   4   2 -36    8.47    3.70
  -2   4 -36    3.34    4.22
   4  -2 -36   -0.66    3.38
  36   4  -2    7.74    3.40
  -4   2 -36    1.24    4.26
   2  -4 -36    8.78    3.70
  36   4   2    4.25    2.81
  -2  -4 -36    5.81    4.06
  -4  -2 -36    1.54    4.25
   4   4 -36   34.73    4.27
  -4  -4 -36   36.54    4.80
  36   4  -4   43.03    3.90
  -4   4 -36   35.78    4.68
  36   4   4   39.52    3.33
   4  -4 -36   38.01    3.87
   0   6 -36   -0.75    4.08
   6   0 -36    2.14    3.11
  -6   0 -36    2.69    4.40
  36   6   0    5.59    3.29
   0  -6 -36    3.01    3.72
   2  -6 -36   23.73    3.87
  36   2  -6   22.90    3.57
   2   6 -36   26.20    4.31
   6   2 -36   20.98    3.55
  -2   6 -36   27.16    4.53
   6  -2 -36   18.14    3.38
  -6   2 -36   28.34    4.75
  -6  -2 -36   26.10    4.85
  36   6  -2   22.66    3.73
  -2  -6 -36   27.91    4.18
  36   6   2   27.55    3.44
  -4   6 -36  132.53    6.91
  -6   4 -36  128.42    6.89
   6  -4 -36  113.02    5.76
  36   4  -6  108.65    6.07
  36   6  -4  120.77    6.11
   4  -6 -36  121.24    6.01
  36   6   4  112.79    5.64
  -6  -4 -36  135.74    6.91
  -4  -6 -36  131.26    6.70
   4   6 -36  124.10    6.28
   6   4 -36  110.73    6.00
   6   6 -36    0.54    3.45
  -6   6 -36   -0.16    4.45
  36   6  -6    3.24    3.69
   6  -6 -36    0.73    3.08
  -6  -6 -36    6.48    4.33
  36   6   6    3.18    2.88
  -8   0 -36  175.88    8.21
  36   8   0  157.54    7.39
   0  -8 -36  177.28    7.65
   0   8 -36  162.66    7.80
   8   0 -36  167.11    7.03
   2   8 -36   36.77    4.48
   8   2 -36   26.87    3.49
  -2   8 -36   29.45    4.74
   8  -2 -36   30.92    3.46
  -8   2 -36   35.74    5.26
  -8  -2 -36   33.85    5.03
   2  -8 -36   32.91    4.26
  36   8  -2   33.26    4.09
  -2  -8 -36   34.41    4.29
  36   8   2   37.04    3.95
  36   8   4   54.13    4.28
   4   8 -36   60.30    4.64
   8   4 -36   48.88    4.10
  36   4  -8   56.16    4.72
  -4   8 -36   55.71    5.22
   8  -4 -36   45.63    3.91
  -8   4 -36   66.53    5.59
  36   8  -4   63.55    4.86
   4  -8 -36   49.84    4.31
  -8  -4 -36   53.99    5.40
  -4  -8 -36   52.49    5.12
  36   8   6   45.11    3.98
   8   6 -36   52.76    4.10
   6   8 -36   50.17    4.57
  -6   8 -36   46.72    5.40
  36   6  -8   42.70    4.45
  -8   6 -36   56.02    5.52
   8  -6 -36   53.65    3.78
  36   8  -6   61.52    4.76
   6  -8 -36   54.57    4.03
  -8  -6 -36   51.43    5.34
  -6  -8 -36   51.91    5.08
   8   8 -36   30.76    3.84
  36   8   8   29.41    3.45
  -8   8 -36   34.97    5.22
  36   8  -8   31.47    4.63
   8  -8 -36   25.19    3.16
  -8  -8 -36   38.36    4.98
   0  10 -36   37.50    4.61
 -10   0 -36   29.04    5.16
   0 -10 -36   32.97    4.33
  36  10   0   30.54    4.33
  36  10   2    5.73    3.68
  10   2 -36    3.00    2.73
   2  10 -36   -1.05    3.88
  36  10  -2    3.93    3.89
  -2  10 -36    5.07    4.27
 -10   2 -36    2.80    4.61
 -10  -2 -36   -1.98    4.74
   2 -10 -36   -3.96    3.76
  -2 -10 -36   -0.60    4.07
  10   4 -36    1.60    2.79
   4  10 -36    2.91    3.88
  36  10   4   -1.82    3.63
  -4  10 -36    0.32    4.71
 -10   4 -36   -0.83    4.90
  36  10  -4    4.02    4.10
   4 -10 -36   -1.16    3.20
 -10  -4 -36   -0.66    4.77
  -4 -10 -36    3.11    4.00
  10   6 -36   -6.57    2.86
   6  10 -36    1.11    3.82
  36  10   6   -0.25    3.23
  -6  10 -36   -0.49    4.91
  36   6 -10    0.57    4.11
 -10   6 -36    0.50    4.64
   6 -10 -36    5.87    3.02
  36  10  -6   -0.29    4.25
 -10  -6 -36   -2.32    4.87
  -6 -10 -36    1.76    4.48
  10   8 -36    2.80    3.23
   8  10 -36    3.05    3.36
  36   8  10    2.98    2.79
  -8  10 -36    3.84    4.85
  36  10   8   -0.36    3.01
 -10   8 -36    0.84    4.94
  36   8 -10    4.51    4.10
  36  10  -8    4.88    4.11
 -10  -8 -36    2.17    4.70
  -8 -10 -36    0.66    4.50
  36  10  10    6.11    3.06
  36  10 -10   11.67    4.42
  10  10 -36    2.76    3.24
 -10 -10 -36    7.05    5.07
  36  12   0   47.96    4.83
   0  12 -36   43.00    5.03
   0 -12 -36   47.12    4.47
  36  12  -2    7.13    4.16
   2  12 -36    1.23    3.93
  -2  12 -36    7.88    4.55
  36  12   2   10.62    3.95
 -12  -2 -36    6.21    5.06
   2 -12 -36    6.28    3.56
  -2 -12 -36    4.68    3.80
  36  12  -4  107.27    6.20
  36  12   4  102.12    5.63
 -12  -4 -36   94.64    6.61
   4 -12 -36   97.41    5.43
  -4 -12 -36  102.14    6.14
   4  12 -36   99.37    6.06
  -4  12 -36  108.46    6.71
  -6 -12 -36   -5.16    4.64
   6  12 -36   -2.85    3.60
  -6  12 -36    3.17    4.91
  36  12   6   -2.78    3.63
   6 -12 -36    1.54    3.04
  36  12  -6    1.36    4.02
 -12  -6 -36   -0.17    4.91
  -8 -12 -36    2.65    4.54
  -8  12 -36    4.22    5.12
  36   8 -12   -1.78    4.08
  36  12  -8    3.05    4.36
 -12  -8 -36    5.58    5.13
  12   8 -36    2.58    2.89
   8  12 -36    2.33    3.67
 -10 -12 -36    1.85    4.82
  36  10  12    7.50    2.89
  36  10 -12    2.72    4.17
  36  12 -10    9.05    4.56
  12  10 -36    5.93    3.00
  10  12 -36    4.93    3.19
 -12 -10 -36    7.32    4.94
 -12 -12 -36    6.14    5.11
  36  12 -12    7.98    4.49
  12  12 -36    6.22    3.13
   0  14 -36    1.12    4.46
  36  14   0    0.30    4.18
   0 -14 -36    6.78    4.00
  -2 -14 -36    0.45    4.11
   2  14 -36   -1.40    4.04
  36  14  -2    0.60    4.33
  -2  14 -36    2.94    4.44
  36  14   2    1.45    3.94
   2 -14 -36    4.37    3.51
   4  14 -36    4.55    4.15
  -4 -14 -36    4.86    4.54
  -4  14 -36    3.32    4.97
   4 -14 -36    7.50    3.22
  36  14  -4    5.34    4.43
  -6 -14 -36   81.03    5.88
  -6  14 -36   84.28    6.18
   6 -14 -36   83.79    4.57
   6  14 -36   75.62    5.32
  36  14  -6   79.72    5.67
  -8 -14 -36   71.89    6.18
  -8  14 -36   66.13    6.16
 -14   8 -36   68.59    6.05
   8  14 -36   68.53    4.94
  36  14  -8   72.19    5.63
 -10 -14 -36   -2.53    5.17
 -14  10 -36   -0.84    4.67
  36  10 -14    6.55    4.66
  36  14 -10    2.34    4.43
  10  14 -36    0.13    3.52
 -14 -10 -36    1.89    5.01
  36  12 -14   93.62    6.25
  36  14 -12  105.68    6.37
  12  36 -14   80.79    4.63
 -12 -14 -36   95.84    6.49
  12  14 -36   89.36    5.03
 -14  12 -36   97.19    6.71
 -14 -12 -36   93.14    6.81
  14  36 -14   95.85    5.07
  36  14 -14   94.10    6.67
 -14 -14 -36  116.67    7.09
 -14  14 -36  111.27    7.15
   0  16 -36   81.55    6.21
  36  16   0  101.54    5.97
   0 -16 -36   88.11    5.60
 -16   0 -36   88.10    6.24
  -2  16 -36   13.99    5.05
  -2 -16 -36   11.16    4.25
  36  16  -2   17.28    4.36
  36  16   2   13.15    4.44
 -16   2 -36   20.54    5.21
   2 -16 -36   13.72    3.61
   2  16 -36   12.08    4.52
  36  16  -4   14.79    4.54
  -4  16 -36    7.84    4.89
  -4 -16 -36   10.80    4.53
 -16   4 -36   15.35    4.78
   4  16 -36    2.94    4.37
   4 -16 -36   13.34    3.45
 -16   6 -36  173.85    8.61
  36  16  -6  170.52    8.34
   6 -16 -36  163.07    7.04
  -6 -16 -36  170.04    8.12
   6  16 -36  171.62    7.94
  -6  16 -36  185.72    8.57
  -8  16 -36   56.75    5.81
  -8 -16 -36   64.61    5.82
 -16   8 -36   69.66    6.04
  36  16  -8   61.66    5.76
   8  16 -36   60.05    4.93
 -10 -16 -36   -0.34    5.09
 -16  10 -36  -10.21    4.96
  36  16 -10   -2.84    4.99
  10  16 -36    0.14    3.47
 -12 -16 -36   31.53    5.22
 -16  12 -36   31.60    5.48
  36  12 -16   32.82    4.95
  16  36 -12   25.30    3.81
  36  16 -12   28.87    4.93
  12  16 -36   22.91    3.63
 -14  16 -36  120.34    7.14
  36  14 -16  121.90    6.88
  36  16 -14  115.25    6.85
  14  36 -16   89.45    4.91
  16  36 -14  104.20    5.31
 -14 -16 -36  118.39    7.18
  14  16 -36   91.01    5.13
 -16  14 -36  117.82    7.07
  36  16 -16  277.85   11.05
  16  36 -16  242.28    9.64
 -16  16 -36  282.41   11.13
   0 -18 -36   13.83    4.11
  36  18   0   15.97    4.61
 -18   0 -36    8.56    5.02
   0  18 -36    7.73    4.79
  -2 -18 -36   10.77    4.27
  36  18  -2    5.03    4.36
 -18   2 -36    7.19    4.92
 -18  -2 -36   14.34    5.07
   2  18 -36    6.46    4.47
  -2  18 -36    5.68    4.90
   2 -18 -36    6.03    3.61
  -4  18 -36   14.88    5.18
  36  18  -4   24.32    5.05
  -4 -18 -36   23.64    4.55
 -18  -4 -36   15.90    4.98
 -18   4 -36   20.73    5.06
   4  18 -36   17.02    4.67
   4 -18 -36   24.66    3.62
  -6  18 -36    5.94    5.25
  -6 -18 -36   10.09    4.63
 -18   6 -36   -1.33    5.15
 -18  -6 -36    7.43    5.19
   6 -18 -36    3.79    2.91
   6  18 -36    1.21    4.19
  36  18  -6   -1.75    4.53
  -8 -18 -36    9.17    4.65
 -18   8 -36    0.66    4.84
   8  18 -36    7.13    4.09
  36  18  -8    1.11    4.62
 -18  -8 -36    0.85    5.24
 -10 -18 -36    4.65    4.85
 -18  10 -36    3.29    5.02
  36  18 -10    0.32    4.71
  10  18 -36    0.96    3.72
 -18 -10 -36    2.37    5.25
 -12  18 -36   41.83    5.72
 -12 -18 -36   35.14    5.69
 -18  12 -36   32.79    5.40
  18  36 -12   33.74    4.08
  36  18 -12   35.01    5.48
  12  18 -36   28.72    3.85
  18  36 -14   52.82    4.36
 -14  18 -36   68.58    5.97
 -14 -18 -36   57.46    6.08
 -18  14 -36   60.95    5.69
  36  18 -14   59.10    5.80
  14  18 -36   47.73    3.94
 -16  18 -36   30.41    5.44
 -18  16 -36   37.85    5.34
  16  36 -18   28.85    3.03
  18  36 -16   28.30    3.60
 -18  18 -36    1.69    4.74
  18  36 -18    0.98    2.72
   0 -20 -36   42.72    4.64
  36  20   0   51.05    5.17
 -20   0 -36   53.05    5.67
   0  20 -36   58.49    5.74
   2 -20 -36    4.86    3.55
  -2 -20 -36   -2.95    4.23
  36  20  -2    3.33    4.51
 -20   2 -36    1.65    4.76
 -20  -2 -36    0.33    5.09
   2  20 -36   -4.39    4.75
  -2  20 -36   -3.20    4.94
  36  20  -4   45.87    5.44
 -20   4 -36   45.47    5.37
 -20  -4 -36   31.30    5.61
  -4  20 -36   44.07    5.77
   4  20 -36   38.55    5.11
   4 -20 -36   42.84    3.90
 -20  -6 -36    9.97    5.17
 -20   6 -36    9.40    5.10
   6  20 -36    7.04    4.45
   6 -20 -36    4.40    2.87
  -6  20 -36    8.67    5.26
  36  20  -6    3.02    4.62
 -20   8 -36   61.97    5.77
   8  20 -36   63.46    5.23
 -20  -8 -36   64.62    6.02
  36  20  -8   54.74    5.93
 -20  10 -36   13.23    4.75
  10  20 -36   12.20    3.89
  36  20 -10   22.04    5.04
 -20 -10 -36   13.87    5.31
 -20  12 -36   13.20    4.86
  20  36 -12   14.30    3.85
  36  20 -12   14.05    5.23
  12  20 -36    4.12    3.38
 -20 -12 -36   11.00    5.42
 -12  20 -36    7.14    5.44
 -20  14 -36   -1.23    4.74
 -14 -20 -36    2.28    4.81
 -20 -14 -36    2.76    5.24
  20  36 -14   -4.86    3.54
 -14  20 -36    4.37    5.22
 -16 -20 -36   26.63    5.67
  20  36 -16   22.77    3.56
 -16  20 -36   41.76    5.24
 -20 -16 -36   27.41    5.46
 -20 -18 -36    9.15    5.28
  18  36 -20   10.26    2.50
  20  36 -18   10.02    3.04
 -18  20 -36   19.41    4.61
 -36 -18 -20   11.85    2.64
 -20  18 -36   18.38    4.79
  20  36 -20   23.40    2.89
 -36 -20 -20   21.21    2.89
   0 -22 -36   11.71    3.82
   0  22 -36   15.50    5.11
  36  22   0   19.86    5.09
 -22   0 -36    5.92    4.75
   2 -22 -36    5.71    3.41
  -2 -22 -36    5.31    4.10
  36  22  -2    3.79    5.02
 -22   2 -36    0.64    4.55
 -22  -2 -36    7.23    4.99
  -2  22 -36   -2.01    5.14
   2  22 -36    4.06    4.95
  36  22  -4    6.79    4.95
 -22   4 -36   -0.16    4.48
 -22  -4 -36    3.07    4.85
   4  22 -36   -0.95    4.60
  -4  22 -36    0.51    5.09
   4 -22 -36    5.21    2.99
  36  22  -6   14.63    5.26
 -22   6 -36   12.02    4.91
   6  22 -36   11.31    4.60
 -22  -6 -36    4.36    5.11
   6 -22 -36    7.62    2.81
  -6  22 -36   14.05    5.34
 -22   8 -36   69.74    5.67
   8  22 -36   53.38    5.04
 -22  -8 -36   63.53    6.00
  36  22  -8   66.28    6.15
 -22  10 -36   -6.26    4.37
  22  36 -10    1.37    4.06
  10  22 -36    1.80    3.74
  36  22 -10    1.23    5.21
 -22 -10 -36    2.55    5.10
  22  36 -12   73.43    5.14
 -22  12 -36   79.13    5.87
 -22 -12 -36   79.96    6.08
 -12  22 -36   83.62    6.43
 -22  14 -36   29.74    4.72
  22  36 -14   20.72    3.73
 -14  22 -36   24.36    5.56
 -22 -14 -36   25.14    5.05
 -22  16 -36    1.54    4.14
 -16 -22 -36    4.93    5.41
  22  36 -16    6.43    3.30
 -36 -16 -22    2.54    2.56
 -16  22 -36    6.37    4.78
 -22 -16 -36    8.64    4.99
  36  22 -18    2.56    4.73
  22  36 -18    7.59    2.99
 -18  22 -36    3.58    4.34
 -36 -18 -22    5.14    2.61
 -22  18 -36    4.20    4.14
 -22 -18 -36   11.01    4.82
  22  36 -20    5.06    2.60
 -20  22 -36    8.63    4.48
 -22  20 -36    5.56    3.80
 -36 -20 -22    5.25    2.55
 -22 -20 -36    4.49    4.81
 -22 -22 -36    3.98    4.58
 -22  22 -36   10.86    3.82
 -36 -22 -22    3.32    2.33
   0 -24 -36   54.64    4.65
  36  24   0   53.50    5.76
 -24   0 -36   55.08    5.50
   0  24 -36   49.53    5.83
   2 -24 -36    4.47    3.34
   2  24 -36    9.78    4.69
  36  24  -2   10.71    5.19
 -24   2 -36    6.37    4.73
 -24  -2 -36   -0.61    4.77
  -2  24 -36    5.95    5.21
  36  24  -4   -0.93    5.13
   4 -24 -36    9.37    3.02
 -24   4 -36    4.50    4.49
 -24  -4 -36    8.46    4.87
   4  24 -36   -0.47    4.47
  -4  24 -36   -1.33    5.36
  36  24  -6   24.59    5.37
 -24   6 -36   23.09    4.73
  -6  24 -36   23.47    5.31
 -24  -6 -36   33.40    5.16
   6  24 -36   34.36    4.78
 -24   8 -36   -1.60    4.32
   8  24 -36   -7.23    4.23
 -24  -8 -36    5.66    4.72
  36  24  -8    4.11    5.18
 -24  10 -36    9.57    4.43
  24  36 -10    8.76    4.35
 -24 -10 -36    0.60    4.93
  24  36 -12    6.36    3.87
 -24  12 -36   12.93    4.10
 -36 -12 -24    9.88    2.70
 -24 -12 -36   11.61    4.70
 -12  24 -36    7.53    5.13
 -24  14 -36    1.07    4.19
  24  36 -14    2.49    3.61
 -14  24 -36   -4.09    4.96
 -24 -14 -36    2.91    4.63
 -36 -14 -24   -0.09    2.52
 -36 -16 -24    0.53    2.59
  36  24 -16    0.53    4.76
  24  36 -16    3.78    3.30
 -16  24 -36    2.45    4.31
 -24 -16 -36    0.28    4.74
 -24  16 -36    4.52    3.96
 -36 -24 -18    1.67    2.32
 -36 -18 -24    5.67    2.48
  24  36 -18    3.07    2.95
 -18  24 -36    4.59    4.36
 -24 -18 -36    5.17    4.65
 -24  18 -36    7.87    3.66
 -36 -24 -20   26.79    2.70
 -20  24 -36   47.58    4.55
 -36 -20 -24   29.20    2.85
 -24  20 -36   32.81    4.06
 -24 -20 -36   46.83    4.82
 -22 -24 -36    3.58    4.38
 -24  22 -36   11.68    3.48
 -22  24 -36    5.55    3.58
 -36 -22 -24    2.20    2.17
 -36 -24 -22    3.66    2.30
 -24 -22 -36   11.15    4.01
 -24  24 -36   41.73    3.60
 -36 -24 -24   26.35    2.44
 -24 -24 -36   39.82    4.27
 -26   0 -36  117.70    6.43
   0  26 -36  114.88    6.82
  36  26   0  103.92    6.72
   0 -26 -36  105.11    5.75
   2 -26 -36   13.86    3.26
   2  26 -36    8.95    5.04
  36  26  -2   15.64    4.95
 -26   2 -36   13.71    4.11
 -26  -2 -36   12.50    4.43
  -2  26 -36   18.52    5.34
  36  26  -4   20.32    5.36
 -26   4 -36   22.84    4.54
   4  26 -36   24.20    5.11
 -26  -4 -36   28.85    4.78
  -4  26 -36   30.33    5.53
   4 -26 -36   24.81    3.12
 -26   6 -36   17.44    4.43
 -26  -6 -36   25.69    4.45
   6  26 -36   26.38    4.47
  -6  26 -36   22.32    5.69
  36  26  -6   21.01    5.24
 -26   8 -36    5.79    4.05
  26  36  -8    0.14    4.24
 -36  -8 -26    2.30    2.51
 -26  -8 -36    5.14    4.43
  26  36 -10    3.64    3.94
 -26  10 -36    2.61    4.01
 -36 -10 -26    6.93    2.64
 -26 -10 -36    3.80    4.44
 -10  26 -36    2.17    5.37
 -26  12 -36   -1.51    3.74
 -36 -12 -26   -0.53    2.52
 -26 -12 -36   -0.96    4.37
 -12  26 -36   -0.60    4.92
  26  36 -12    2.33    3.85
 -26  14 -36   -1.93    3.77
  26  36 -14   -2.50    3.53
  36  26 -14   -2.22    4.46
 -36 -14 -26    3.55    2.45
 -14  26 -36    3.88    4.86
 -26 -14 -36    2.68    4.31
  36  26 -16    5.56    4.37
  26  36 -16   10.48    3.30
 -36 -16 -26    2.59    2.46
 -16  26 -36   10.03    4.56
 -26 -16 -36    1.03    4.29
 -26  16 -36    3.55    3.59
 -36 -26 -18    1.94    2.14
  26  36 -18    1.37    2.89
 -36 -18 -26    2.61    2.47
 -18  26 -36    3.52    4.15
 -26 -18 -36    5.54    4.05
 -26  18 -36    6.25    3.37
 -36 -26 -20   17.32    2.33
 -26  20 -36   23.62    3.44
 -20  26 -36   29.63    3.90
 -36 -20 -26   16.30    2.38
 -26 -20 -36   30.63    4.08
 -22 -26 -36    8.43    4.07
 -22  26 -36    3.91    3.33
 -26  22 -36    5.95    2.87
 -36 -22 -26    3.94    2.13
 -26 -22 -36    7.31    3.71
 -24  26 -36   15.85    2.84
 -26  24 -36   12.49    2.56
 -36 -26 -24    7.82    1.80
 -36 -24 -26    7.54    1.77
 -26 -24 -36   20.14    3.60
 -24 -26 -36   13.08    3.75
 -36 -26 -26   11.98    1.62
 -26 -26 -36   30.41    3.26
   0 -28 -36    1.92    3.21
  36  28   0    2.57    4.93
 -28   0 -36    2.21    3.84
   0  28 -36    2.92    5.02
   2 -28 -36    5.31    2.93
  36  28  -2   13.30    4.96
 -28   2 -36   11.40    3.94
 -28  -2 -36    1.05    3.88
   2  28 -36   -1.21    4.56
  -2  28 -36    8.98    4.98
  -4  28 -36   -2.32    5.23
  36  28  -4   -2.13    5.06
   4  28 -36    8.92    4.49
 -28   4 -36    6.19    3.76
 -28  -4 -36    4.85    3.83
   4 -28 -36    5.31    2.54
 -36  -6 -28   70.21    4.05
 -28  -6 -36   88.34    5.62
  28  36  -6   86.15    5.58
 -28   6 -36   93.53    5.06
 -28   8 -36   23.27    3.91
  28  36  -8   32.78    4.53
 -36  -8 -28   28.54    2.85
 -28  -8 -36   33.09    4.38
 -28  10 -36   -2.08    3.25
 -36 -10 -28    0.93    2.47
 -28 -10 -36    1.15    3.93
 -10  28 -36   -1.47    4.81
  28  36 -10    8.00    4.08
 -28  12 -36   24.12    3.60
  36  28 -12   15.71    4.73
 -36 -12 -28   13.97    2.58
 -12  28 -36   22.43    4.82
  28  36 -12   14.00    3.96
 -28 -12 -36   18.29    4.04
  36  28 -14   11.24    4.17
  28  36 -14   15.20    3.59
 -36 -14 -28   13.65    2.62
 -28 -14 -36   15.27    4.10
 -14  28 -36   12.59    4.49
 -28  14 -36   12.75    3.35
 -16 -28 -36   14.66    4.53
  36  28 -16   21.27    4.18
  28  36 -16   19.80    3.30
 -36 -16 -28    7.04    2.34
 -16  28 -36   11.29    4.01
 -28 -16 -36   16.53    3.87
 -28  16 -36   11.06    3.23
 -18 -28 -36    9.03    4.06
 -18  28 -36    5.63    3.93
  28  36 -18   12.47    2.93
 -36 -18 -28    6.64    2.16
 -28 -18 -36   12.25    3.72
 -28  18 -36   10.16    2.86
 -20  28 -36   19.92    3.59
 -36 -20 -28   12.99    2.12
 -28  20 -36   12.03    2.72
 -28 -20 -36   17.94    3.54
 -22  28 -36    3.73    2.86
 -36 -22 -28    1.40    1.64
 -28  22 -36   -2.02    2.10
 -28 -22 -36   -0.37    3.16
 -22 -28 -36   -3.41    3.64
 -36 -24 -28    1.77    1.45
 -28 -24 -36    5.83    2.86
 -28 -26 -36    1.98    2.41
 -26 -28 -36   -0.59    2.57
 -28 -36 -28   -0.73    1.83
 -28 -28 -36    0.99    1.90
   0 -30 -36    5.01    2.97
  36  30   0    5.35    4.75
 -30   0 -36   10.81    3.42
   0  30 -36    1.73    4.80
  -2 -30 -36    5.87    3.22
  36  30  -2    6.53    4.58
 -30   2 -36    6.07    3.47
  -2  30 -36    1.61    4.78
 -30  -2 -36    0.80    3.46
  36  30   2    5.31    4.63
   2 -30 -36    6.41    2.68
 -30   4 -36   22.01    3.52
 -36  -4 -30   19.18    2.51
  30  36  -4   18.25    4.62
 -30  -4 -36   25.02    3.78
  -4  30 -36   23.05    5.29
 -30   6 -36    2.98    3.31
  30  36  -6    2.01    4.23
 -36  -6 -30    1.96    2.44
 -30  -6 -36    6.55    3.58
  30  36  -8   12.26    4.25
 -30   8 -36    9.61    3.29
 -36  -8 -30   10.57    2.52
 -30  -8 -36   19.26    3.75
 -30  10 -36   -2.52    3.10
 -36 -10 -30    6.27    2.28
 -30 -10 -36    1.55    3.51
  36  30 -10    3.51    4.22
 -10  30 -36    3.96    4.48
  30  36 -10    4.68    3.55
 -36 -12 -30    4.36    2.21
  36  30 -12    6.86    4.11
 -30 -12 -36    1.19    3.40
  30  36 -12   -1.91    3.50
 -12  30 -36    2.74    4.33
 -30  12 -36    1.47    2.90
  36  30 -14    0.11    3.72
  30  36 -14   -0.29    3.21
 -36 -14 -30    0.57    2.04
 -30 -14 -36    6.43    3.27
 -14  30 -36    2.58    4.15
 -30  14 -36    3.66    2.57
 -16 -30 -36   32.68    4.32
  36  30 -16   27.67    3.77
  30  36 -16   32.09    3.34
 -36 -16 -30   19.44    2.45
 -16  30 -36   25.88    3.89
 -30 -16 -36   27.41    3.58
 -30  16 -36   24.87    2.63
 -18 -30 -36    4.54    3.73
 -36 -18 -30    0.06    1.91
 -30 -18 -36   -1.28    3.08
 -30  18 -36    3.96    1.96
 -36 -20 -30    6.24    1.72
 -30  20 -36    5.51    1.67
 -36 -22 -30    4.43    1.44
 -30 -22 -36   14.46    2.76
 -24 -30 -36    6.33    2.67
 -30 -24 -36    3.35    2.23
 -30 -36 -26    4.86    1.65
 -26 -36 -30    9.20    2.16
 -30 -26 -36    4.71    1.75
 -26 -30 -36    9.76    2.08
 -28 -30 -36    0.39    1.41
 -28 -36 -30    3.98    1.36
   0 -32 -36   43.39    3.33
  36  32   0   48.43    4.78
 -32   0 -36   46.36    3.75
  -2 -32 -36    2.08    2.96
 -32   2 -36    0.74    2.87
 -32  -2 -36   -0.10    3.01
  32  36  -2    3.14    4.26
  36  32   2    2.55    4.37
   2 -32 -36    0.95    2.10
  -4 -32 -36   30.14    3.58
 -32   4 -36   34.65    3.25
  32  36  -4   32.32    4.49
 -36  -4 -32   27.66    2.59
 -32  -4 -36   27.75    3.44
  36  32   4   40.50    4.54
 -32   6 -36    1.29    2.64
 -36  -6 -32    0.84    2.09
 -32  -6 -36    0.38    3.01
  36  32  -6    9.23    3.99
  32  36  -6    2.51    3.89
 -32   8 -36    3.32    2.55
 -36  -8 -32    2.56    2.15
 -32  -8 -36    2.74    3.05
  36  32  -8   -0.11    3.92
  32  36  -8    2.18    3.70
 -36 -10 -32    6.90    2.19
 -32 -10 -36    6.83    3.02
  36  32 -10    7.18    3.92
  32  36 -10    7.92    3.65
 -32  10 -36    2.86    2.33
 -12 -32 -36   -0.11    3.41
 -36 -12 -32    3.12    1.91
  36  32 -12    1.31    3.53
 -32 -12 -36    2.39    2.90
  32  36 -12    5.51    3.30
 -32  12 -36    2.05    2.02
 -14 -32 -36   23.95    3.95
  36  32 -14   38.79    3.80
  32  36 -14   31.03    3.26
 -36 -14 -32   20.25    2.31
 -32 -14 -36   32.35    3.18
 -32  14 -36   22.07    2.25
 -16 -32 -36    4.01    3.49
 -36 -16 -32    0.83    1.82
 -32 -16 -36    3.92    2.60
 -18 -32 -36   -2.09    3.22
 -36 -18 -32   -1.31    1.50
 -32 -18 -36    2.29    2.37
 -36 -20 -32    1.05    1.25
 -32 -20 -36   -1.08    2.17
 -32 -36 -22    1.76    1.47
 -22 -36 -32    4.54    2.61
  36  32  22    2.21    1.50
 -32 -22 -36    5.80    1.86
 -24 -36 -32    0.89    1.92
 -32 -24 -36    2.34    1.33
 -24 -32 -36    1.48    2.10
 -26 -32 -36   -1.02    1.31
 -26 -36 -32    1.13    1.37
   0 -36 -34   22.86    2.35
 -34   0 -36   19.10    2.49
  34  36   0   20.15    4.13
   0 -34 -36   20.18    2.26
  -2 -34 -36    3.88    2.52
  34  36  -2    2.99    3.76
 -34   2 -36    5.57    2.12
  -2 -36 -34    5.69    2.56
 -34  -2 -36    5.51    2.24
  36  34   2    9.06    3.93
 -34   4 -36    3.17    1.97
  -4 -34 -36    1.60    2.73
 -36  -4 -34    1.93    1.88
 -34  -4 -36    4.80    2.36
  36  34   4    8.61    3.81
  36  34  -4    8.42    3.97
  34  36  -4    5.01    3.71
  -6 -34 -36   17.35    3.06
 -36  -6 -34   12.58    2.00
 -34  -6 -36   17.97    2.52
  36  34   6   21.22    3.90
  36  34  -6   14.51    3.77
  34  36  -6   13.51    3.62
 -34   6 -36   12.13    1.99
  -8 -34 -36   30.13    3.41
 -36  -8 -34   21.57    2.19
 -34  -8 -36   27.79    2.66
  34  36  -8   30.02    3.66
 -10 -34 -36    7.79    3.13
 -36 -10 -34    2.49    1.76
 -34 -10 -36    5.41    2.31
  36  34 -10   11.63    3.40
  34  36 -10    4.30    3.31
 -12 -34 -36   15.14    3.13
 -36 -12 -34   14.25    1.86
  36  34 -12   13.69    3.16
 -34 -12 -36   13.36    2.26
  34  36 -12   23.23    3.14
 -14 -34 -36   35.93    3.39
  36  34 -14   35.77    3.29
  34  36 -14   28.24    2.98
 -36 -14 -34   17.02    1.87
 -34 -14 -36   23.74    2.36
 -16 -34 -36   27.70    2.99
 -16 -36 -34   21.09    3.16
 -36 -16 -34   14.34    1.55
 -34 -16 -36   19.05    2.14
 -34 -18 -36    8.19    1.65
 -18 -36 -34   12.85    2.73
 -18 -34 -36   11.22    2.75
  36  34  20    5.87    1.62
 -24 -34 -36   -0.42    1.25
 -24 -36 -34    1.37    1.22
  36  36  -2   -0.18    3.33
  -2 -36 -36    3.50    1.90
  36  36   4    0.91    3.25
  -4 -36 -36    0.65    2.10
  36  36  -4   -0.98    3.13
  -6 -36 -36    8.54    2.43
  36  36   6   16.40    3.35
  36  36  -6   14.48    3.12
  -8 -36 -36   42.72    3.24
  36  36   8   50.68    3.82
  36  36  -8   52.56    3.67
 -10 -36 -36    0.74    2.52
  36  36  10    0.72    2.87
  36  36 -10   -2.92    2.71
 -12 -36 -36   31.06    2.97
  36  36 -12   33.66    2.96
  36  36  12   35.92    3.13
 -14 -36 -36   28.83    2.79
  36  36  14   37.51    2.90
  36  36  16   24.08    2.30
 -16 -36 -36   22.26    2.51
  36  36  18    8.45    1.61
 -18 -36 -36   11.13    2.10
 -20 -36 -36    1.75    1.58
  37   1  -1    1.30    2.86
  37   1   1    1.52    2.63
   1   1 -37   -0.14    3.69
  -1   1 -37    3.31    4.15
   1  -1 -37    3.30    3.80
  -1  -1 -37    2.38    4.11
   1   3 -37   93.11    5.66
   3   1 -37  102.80    5.64
  -1   3 -37   99.68    6.05
   3  -1 -37   91.50    5.56
  -3   1 -37   92.09    6.04
  37   3  -1   83.84    4.98
   1  -3 -37   97.33    5.65
  37   3   1   85.92    4.76
  -3  -1 -37   95.46    6.10
  -1  -3 -37  100.78    5.91
   3   3 -37    0.28    3.82
  37   3  -3    3.83    3.22
  -3   3 -37   -0.31    4.34
  37   3   3    4.23    2.77
   3  -3 -37   -1.63    3.59
  -3  -3 -37    3.38    3.99
   5  -1 -37  111.61    5.72
  -5   1 -37  127.85    6.78
  37   5  -1   99.67    5.66
  37   5   1  116.66    5.58
  -5  -1 -37  120.13    6.72
   1  -5 -37  120.00    6.21
  -1  -5 -37  115.69    6.20
   1   5 -37  108.16    6.29
   5   1 -37  113.54    5.81
  -1   5 -37  114.42    6.33
  -3   5 -37  181.74    8.04
   5  -3 -37  158.65    7.21
  -5   3 -37  164.58    8.08
  37   3  -5  177.45    7.42
  37   5  -3  162.10    7.33
   3  -5 -37  174.14    7.57
  37   5   3  157.89    7.03
  -5  -3 -37  183.49    8.18
  -3  -5 -37  158.36    7.95
   3   5 -37  181.89    7.71
   5   3 -37  175.60    7.50
   5   5 -37    1.92    3.61
  -5   5 -37    3.86    4.55
  37   5  -5    0.91    3.37
   5  -5 -37   -2.16    3.26
  37   5   5   -4.16    2.65
  -5  -5 -37    0.16    4.45
  37   7  -1   57.21    4.64
  37   7   1   62.83    4.54
   1   7 -37   62.90    5.05
   7   1 -37   60.40    4.35
  -1   7 -37   51.75    5.32
   7  -1 -37   56.45    4.23
  -7   1 -37   71.53    5.47
  -7  -1 -37   69.15    5.52
   1  -7 -37   53.75    4.80
  -1  -7 -37   54.97    4.98
   3   7 -37    1.75    3.91
   7   3 -37    2.41    3.36
  -3   7 -37   -0.48    4.35
   7  -3 -37    3.11    2.92
  -7   3 -37   -0.65    4.52
  37   7  -3    0.66    3.50
   3  -7 -37    8.20    3.47
  -7  -3 -37    0.97    4.65
  -3  -7 -37    0.31    4.26
  37   7   3    2.89    3.15
  -7   5 -37  127.58    7.20
   7  -5 -37  104.68    5.55
  37   5  -7  127.40    6.11
   5  -7 -37  116.10    5.83
  37   7  -5  112.95    6.27
  37   7   5  124.10    5.61
  -7  -5 -37  113.91    6.74
  -5  -7 -37  107.99    6.73
   7   5 -37  115.79    5.97
   5   7 -37  118.45    6.21
  -5   7 -37  126.64    7.05
   7   7 -37    3.31    3.28
  -7   7 -37   -0.99    4.79
  37   7  -7    1.80    3.96
   7  -7 -37   -4.54    3.05
  -7  -7 -37    3.89    4.72
  37   7   7   -0.66    2.88
  -9   1 -37  194.45    8.77
  37   9  -1  187.89    8.07
  -9  -1 -37  172.78    8.74
  37   9   1  186.60    7.96
   1  -9 -37  194.47    8.10
  -1  -9 -37  184.49    8.26
   1   9 -37  195.19    8.52
   9   1 -37  173.39    7.45
  -1   9 -37  195.69    8.60
   9  -1 -37  176.30    7.43
   9   3 -37    8.73    3.10
   3   9 -37   -0.15    3.77
  -3   9 -37   -3.22    4.59
   9  -3 -37    1.31    2.71
  37   9  -3   -4.31    3.92
  -9   3 -37    0.17    4.69
   3  -9 -37    0.54    3.54
  -3  -9 -37    0.31    4.05
  -9  -3 -37    0.99    4.88
  37   9   3   -3.06    3.48
  -9   5 -37  170.24    7.99
  37   5  -9  160.35    7.20
  37   9  -5  157.20    7.26
   5  -9 -37  136.56    6.54
  37   9   5  143.07    6.68
  -9  -5 -37  146.98    8.01
  -5  -9 -37  157.14    7.57
   9   5 -37  152.82    6.67
   5   9 -37  146.47    7.15
  -5   9 -37  154.90    7.76
   7   9 -37   10.64    3.69
  37   9   7    8.33    3.22
  -7   9 -37   11.15    5.11
  37   7  -9   15.33    4.05
  -9   7 -37   10.87    4.75
  37   9  -7   15.23    4.13
   7  -9 -37    9.36    2.88
   9   7 -37   13.59    3.35
  -9  -7 -37   10.43    4.80
  -7  -9 -37   12.20    4.62
  37   9   9    2.89    2.85
  -9   9 -37    1.85    5.02
  37   9  -9   -1.89    4.16
  -9  -9 -37   -3.99    4.80
   9   9 -37   -1.27    3.34
   1  11 -37   61.18    5.29
  -1  11 -37   62.57    5.26
 -11  -1 -37   53.95    5.63
 -11   1 -37   58.62    5.86
   1 -11 -37   53.48    4.63
  -1 -11 -37   50.08    4.91
  37  11  -1   51.62    4.89
  37  11   1   54.33    4.66
  37  11   3   15.78    3.81
   3  11 -37   21.63    4.26
  -3  11 -37   19.22    5.01
  -3 -11 -37   23.80    4.45
 -11   3 -37   19.51    5.00
 -11  -3 -37   18.34    5.18
   3 -11 -37   23.20    3.83
  37  11  -3   22.92    4.25
  -5  11 -37   75.29    5.82
  37  11   5   74.77    4.84
   5 -11 -37   69.62    4.49
 -11   5 -37   71.10    6.10
  11   5 -37   64.43    4.17
   5  11 -37   71.20    5.12
 -11  -5 -37   73.89    6.22
  -5 -11 -37   70.86    5.53
  37  11  -5   67.52    5.25
   7  11 -37    1.93    3.61
  37  11   7    1.87    3.34
  -7  11 -37    5.21    4.93
  37   7 -11    4.50    4.33
   7 -11 -37   -0.67    2.83
  37  11  -7    4.00    4.42
 -11  -7 -37   -1.34    4.95
  -7 -11 -37    1.14    4.46
  11   7 -37    4.23    2.98
  -9  11 -37    3.89    5.03
  37  11   9    4.06    3.23
  37   9 -11    3.54    4.51
  37  11  -9    8.53    4.14
 -11  -9 -37   -3.20    4.94
  11   9 -37   -3.66    3.20
  -9 -11 -37    5.16    4.87
   9  11 -37   -5.62    3.33
  37  11  11    2.25    2.88
  37  11 -11   -4.21    4.42
  11  11 -37   -1.09    3.14
 -11 -11 -37   -2.70    5.26
   1  13 -37   -0.31    4.50
  37  13   1    6.99    4.03
  -1  13 -37    2.90    4.41
   1 -13 -37   -2.38    3.66
  -1 -13 -37    0.74    3.95
  37  13  -1   -0.15    4.19
   3  13 -37   12.63    4.31
  -3  13 -37    5.43    4.82
  37  13   3    8.94    3.79
 -13  -3 -37   12.40    4.88
   3 -13 -37    5.64    3.55
  37  13  -3   13.36    4.47
  -3 -13 -37    8.61    4.29
  -5  13 -37    1.50    4.73
  37  13   5    4.21    3.89
   5 -13 -37   -1.34    3.00
 -13  -5 -37    1.19    5.04
  37  13  -5    1.51    4.45
  -5 -13 -37    5.25    4.56
   5  13 -37    5.76    4.06
  -7  13 -37   -0.17    5.11
  37  13   7   -1.05    3.52
   7 -13 -37    0.99    2.73
  37  13  -7    6.24    4.18
 -13  -7 -37    1.19    4.96
   7  13 -37   -1.70    3.83
  -7 -13 -37   -7.02    4.76
  -9  13 -37    1.19    5.13
  37   9 -13    1.05    4.54
  37  13   9    0.38    3.42
  37  13  -9    0.15    4.41
 -13  -9 -37   -1.36    5.09
   9  13 -37    5.51    3.68
  -9 -13 -37    4.16    4.69
  37  11  13    3.55    2.72
  37  11 -13    6.65    4.41
  37  13 -11   -6.57    4.71
  11  13 -37   -3.60    3.31
 -13 -11 -37    4.76    4.93
 -11 -13 -37    7.25    4.92
  13  37 -13    2.36    2.84
  37  13 -13    5.49    4.57
  13  13 -37    2.14    2.89
 -13 -13 -37   -3.56    5.32
   1  15 -37   21.48    4.94
  -1  15 -37   22.21    4.85
  37  15  -1   31.87    4.46
  37  15   1   21.04    4.53
   1 -15 -37   25.39    4.08
  -1 -15 -37   28.72    4.41
  -3  15 -37   63.19    5.94
  37  15   3   69.23    5.18
   3 -15 -37   64.93    4.55
  37  15  -3   67.90    5.54
   3  15 -37   66.43    5.50
  -3 -15 -37   67.03    5.09
  -5 -15 -37    4.27    4.33
  -5  15 -37    1.17    4.58
  37  15   5    1.12    4.11
 -15   5 -37   -1.52    4.81
   5 -15 -37    2.86    3.18
  37  15  -5    3.08    4.22
   5  15 -37    9.46    4.17
  -7 -15 -37   23.25    4.72
  -7  15 -37   13.35    5.27
 -15   7 -37   16.66    5.31
   7 -15 -37   12.30    2.85
  37  15  -7   13.94    4.93
   7  15 -37   24.83    4.22
  -9 -15 -37   35.61    5.52
 -15   9 -37   45.89    5.85
  37  15  -9   36.69    5.23
   9  15 -37   37.14    4.22
 -11 -15 -37    4.86    4.87
 -15  11 -37    2.34    4.82
  37  15 -11    9.08    4.91
  11  15 -37   -1.02    3.42
 -13 -15 -37    1.85    5.13
 -13  15 -37    1.34    5.26
  15  37 -13    0.90    3.00
 -15  13 -37   -2.16    4.89
  37  13 -15   -2.43    4.88
  37  15 -13    1.22    4.92
  13  15 -37   -1.49    3.00
 -15 -13 -37   -0.51    5.19
  15  37 -15    4.10    2.87
 -15  15 -37    5.74    5.30
  37  15 -15   -2.11    5.04
 -15 -15 -37   -5.01    5.03
  37  17  -1    5.19    4.62
  37  17   1    9.94    4.28
 -17   1 -37    6.22    5.07
 -17  -1 -37    4.05    5.07
   1 -17 -37   11.24    3.63
   1  17 -37    9.98    4.75
  -1 -17 -37    8.12    4.12
  -1  17 -37   10.51    4.75
  -3  17 -37   -2.16    5.01
  -3 -17 -37    5.45    4.14
  37  17  -3    5.70    4.49
  37  17   3    6.93    4.05
 -17   3 -37    8.74    5.40
 -17  -3 -37    5.59    5.09
   3 -17 -37    7.51    3.46
   3  17 -37   -2.67    4.43
  -5  17 -37   33.56    5.60
  -5 -17 -37   34.81    4.89
 -17   5 -37   30.22    5.56
   5 -17 -37   26.00    3.55
   5  17 -37   29.10    4.62
  37  17  -5   32.37    4.93
  -7  17 -37    4.38    5.12
  -7 -17 -37   -3.86    4.80
 -17   7 -37   -3.65    4.95
  37  17  -7   -1.25    4.85
   7  17 -37    2.18    3.99
  -9 -17 -37    3.44    4.79
 -17   9 -37    7.61    5.09
  37  17  -9   12.60    5.01
   9  17 -37    4.42    3.92
 -11 -17 -37   79.01    6.46
 -17  11 -37   74.61    6.27
  17  37 -11   73.60    4.95
  37  17 -11   72.32    6.21
  11  17 -37   78.18    4.80
 -13  17 -37   12.99    5.31
 -13 -17 -37   13.39    5.28
  17  37 -13    4.90    3.36
 -17  13 -37   -0.81    5.24
  37  17 -13    9.86    4.73
  13  17 -37   13.54    3.23
 -15 -17 -37    5.24    5.30
 -15  17 -37   10.59    5.31
 -17  15 -37    9.53    5.12
  37  17 -15    6.25    4.96
  17  37 -15    3.52    2.98
 -17  17 -37   -1.86    4.68
  17  37 -17    2.73    2.62
  -1 -19 -37   32.28    4.43
  37  19  -1   30.48    4.94
  37  19   1   37.41    5.01
 -19   1 -37   32.10    5.52
 -19  -1 -37   38.44    5.43
   1  19 -37   31.17    5.24
  -1  19 -37   41.62    5.62
   1 -19 -37   36.74    4.14
  -3 -19 -37   54.94    4.88
  37  19  -3   55.64    5.51
  37  19   3   48.65    5.18
 -19   3 -37   54.73    5.77
 -19  -3 -37   49.95    5.77
   3  19 -37   49.44    5.40
  -3  19 -37   45.70    5.80
  -5 -19 -37   13.10    4.66
 -19   5 -37    1.80    5.05
 -19  -5 -37    9.67    5.15
   5 -19 -37    7.49    2.98
   5  19 -37   13.41    4.24
  37  19  -5    7.64    4.91
  -5  19 -37   11.09    5.37
  -7 -19 -37    3.95    4.75
  37  19  -7    4.21    4.77
 -19   7 -37    6.65    4.87
 -19  -7 -37   -0.83    5.26
   7  19 -37    3.66    4.02
  -7  19 -37    1.85    5.25
  -9 -19 -37   63.96    5.65
 -19   9 -37   58.92    5.88
  37  19  -9   57.88    5.52
   9  19 -37   54.99    4.55
 -19  -9 -37   43.70    5.91
 -11 -19 -37   70.70    6.07
 -19  11 -37   75.45    6.15
  19  37 -11   63.19    4.56
  37  19 -11   71.71    6.05
  11  19 -37   62.31    4.68
 -19 -11 -37   63.69    6.19
  19  37 -13   26.83    3.82
 -13 -19 -37   37.77    5.60
 -19  13 -37   16.25    5.08
  37  19 -13   20.16    5.08
  13  19 -37   20.16    3.43
 -19 -13 -37   27.19    5.76
 -13  19 -37   20.14    5.48
 -15 -19 -37   -0.16    5.33
 -19  15 -37    2.28    4.66
  19  37 -15    2.72    3.12
 -15  19 -37   -7.09    5.05
 -19  17 -37   49.30    5.30
 -17  19 -37   57.13    5.61
  19  37 -19    1.32    2.43
 -19  19 -37   -6.85    4.41
  -1 -21 -37    8.84    3.63
  37  21  -1    7.53    4.73
  37  21   1   10.79    4.67
 -21   1 -37    8.36    5.10
 -21  -1 -37    1.77    4.96
   1  21 -37   10.94    4.81
  -1  21 -37   -1.31    5.15
   1 -21 -37    8.29    3.72
  -3 -21 -37   -1.01    4.04
  37  21  -3   -6.79    4.90
 -21   3 -37    4.15    4.61
 -21  -3 -37    4.84    5.13
   3  21 -37   -0.31    4.65
  -3  21 -37    0.67    5.00
   3 -21 -37   -1.19    3.17
 -21  -5 -37  105.34    6.77
   5 -21 -37   90.57    4.80
  -5 -21 -37   92.13    6.06
  -5  21 -37  107.34    6.65
   5  21 -37   85.55    5.90
  37  21  -5   90.00    6.48
 -21   5 -37  106.94    6.47
  -7 -21 -37   11.84    4.77
 -21   7 -37   13.77    4.95
 -21  -7 -37   19.50    5.15
   7  21 -37   12.55    4.33
  37  21  -7   12.63    5.14
  -7  21 -37   13.35    5.36
 -21  -9 -37  102.32    6.55
  -9 -21 -37  100.69    6.63
   9  21 -37  102.85    5.98
  37  21  -9   94.70    6.71
 -21   9 -37  103.39    6.53
 -11 -21 -37   64.96    5.91
 -21  11 -37   58.10    5.38
  21  37 -11   56.03    4.68
 -21 -11 -37   69.14    6.16
  37  21 -11   58.73    5.98
  11  21 -37   57.04    4.58
 -13 -21 -37   18.73    5.35
 -21 -13 -37   24.23    5.22
 -13  21 -37   29.95    5.57
  21  37 -13   10.10    3.68
 -21  15 -37   29.79    4.87
 -15 -21 -37   42.04    5.66
  21  37 -15   40.34    3.82
 -21 -15 -37   28.12    5.40
 -15  21 -37   37.19    5.34
  21  37 -17    2.51    2.80
 -17  21 -37   -2.04    4.79
 -21 -17 -37    4.43    5.01
 -21  17 -37    1.25    4.20
 -19  21 -37   52.03    4.99
 -21  19 -37   64.56    4.93
 -21 -19 -37   58.90    5.42
 -21  21 -37    0.75    3.83
 -21 -21 -37   -0.40    4.51
   1 -23 -37   21.11    3.74
  -1 -23 -37   12.96    3.66
  37  23  -1   17.43    4.74
  37  23   1   21.91    4.93
 -23   1 -37   18.73    5.10
 -23  -1 -37   15.42    4.69
   1  23 -37   14.16    4.73
  -1  23 -37   20.69    5.11
  -3 -23 -37    5.28    4.09
  37  23  -3    1.06    4.65
 -23   3 -37    3.95    4.72
 -23  -3 -37    2.47    4.59
   3  23 -37    4.03    4.60
  -3  23 -37   -0.81    5.17
   3 -23 -37   -3.94    3.10
  -5 -23 -37   53.09    5.12
 -23   5 -37   62.89    5.51
 -23  -5 -37   58.71    5.32
   5  23 -37   58.49    5.27
   5 -23 -37   48.86    3.63
  -5  23 -37   55.52    6.16
  37  23  -5   62.39    5.92
  -7 -23 -37   16.26    4.63
 -23   7 -37   18.56    4.76
 -23  -7 -37    8.32    5.00
   7  23 -37   17.30    4.32
  37  23  -7   12.18    5.11
  -7  23 -37   20.17    5.45
  -9 -23 -37   14.98    4.80
 -23   9 -37   15.34    4.69
  23  37  -9    9.95    4.02
   9  23 -37    6.79    4.09
  37  23  -9   13.94    5.06
 -23  -9 -37   15.70    5.07
  23  37 -11   -1.63    3.87
 -11 -23 -37    5.41    4.79
 -23  11 -37   -5.41    4.54
 -23 -11 -37    1.05    4.63
 -11  23 -37   -4.09    5.28
 -23  13 -37    2.75    4.37
 -13 -23 -37    0.60    4.92
 -23 -13 -37    1.61    4.79
 -13  23 -37    8.08    5.02
  23  37 -13   -0.35    3.58
 -23  15 -37    8.48    4.07
 -15 -23 -37    3.94    4.84
  23  37 -15    6.08    3.20
 -23 -15 -37    5.28    4.55
 -15  23 -37    6.57    4.88
 -17 -23 -37    3.95    4.82
  37  23 -17    8.19    4.53
 -23  17 -37    7.37    3.98
  23  37 -17    4.63    2.93
 -17  23 -37    7.72    4.52
 -23 -17 -37    2.48    4.40
  23  37 -19   33.51    3.08
 -19  23 -37   43.25    4.66
 -23  19 -37   32.80    4.29
 -21  23 -37   21.87    4.10
 -23  21 -37   23.55    3.81
 -23 -21 -37   20.78    4.55
 -23  23 -37   -1.22    3.15
 -23 -23 -37   -2.98    4.07
 -25   1 -37  101.19    6.29
 -25  -1 -37  105.79    6.11
  37  25  -1  106.61    6.63
  37  25   1  105.68    6.51
   1 -25 -37   91.60    5.28
  -1 -25 -37   93.86    5.57
   1  25 -37  115.89    6.83
  -1  25 -37   99.38    6.82
 -25  -3 -37  147.47    7.24
  37  25  -3  130.97    7.48
   3 -25 -37  125.88    5.93
  -3 -25 -37  136.89    6.60
   3  25 -37  134.38    7.27
  -3  25 -37  130.57    7.49
 -25   3 -37  141.84    7.11
  -5  25 -37   -1.59    5.00
  -5 -25 -37   -3.69    4.03
 -25   5 -37    6.03    4.45
 -25  -5 -37    3.90    4.28
   5  25 -37    3.52    4.31
  37  25  -5    1.75    4.93
  -7 -25 -37   32.33    4.69
 -25   7 -37   24.79    4.43
 -25  -7 -37   31.82    4.85
   7  25 -37   34.41    4.53
  37  25  -7   32.93    5.35
  -9 -25 -37  309.84   12.20
 -25  -9 -37  321.84   12.37
  25  37  -9  305.77   11.95
 -25   9 -37  344.88   12.25
  25  37 -11  172.14    7.76
 -25 -11 -37  168.43    8.13
 -11  25 -37  192.44    8.78
 -25  11 -37  181.71    7.97
 -25  13 -37   11.73    3.66
 -13 -25 -37   12.61    4.80
 -25 -13 -37   14.42    4.43
  25  37 -13    7.56    3.62
 -13  25 -37    7.70    4.81
 -15 -25 -37    0.41    4.35
  37  25 -15    1.50    4.43
  25  37 -15   -1.33    3.18
 -25 -15 -37   -1.05    4.27
 -15  25 -37    5.24    4.69
 -25  15 -37    6.47    3.72
 -17 -25 -37   31.27    4.86
  25  37 -17   22.07    3.21
 -25  17 -37   24.65    3.82
 -17  25 -37   30.48    4.60
 -25 -17 -37   33.98    4.66
 -19  25 -37    0.83    3.94
 -25 -19 -37    0.95    3.94
 -25  19 -37   -1.68    3.35
 -25 -21 -37  122.89    6.12
 -21  25 -37  125.41    5.98
 -25  21 -37  120.33    5.68
 -23  25 -37   62.86    3.81
 -25  23 -37   61.05    3.70
 -25 -23 -37   55.50    4.27
 -23 -25 -37   53.46    4.37
 -25  25 -37    0.66    2.29
 -25 -25 -37   -2.46    3.13
  -1 -27 -37   23.74    3.67
  37  27  -1   26.36    4.92
  37  27   1   24.29    4.86
 -27   1 -37   24.79    4.40
 -27  -1 -37   21.97    4.28
  -1  27 -37   22.28    5.04
   1 -27 -37   21.47    3.26
  37  27  -3    5.31    4.79
  -3 -27 -37    0.49    3.52
 -27   3 -37    1.68    4.01
  37  27   3   -0.69    4.59
 -27  -3 -37    7.85    4.25
   3  27 -37   -2.48    4.66
   3 -27 -37   -6.50    2.65
  -3  27 -37   -6.24    4.93
 -27  -5 -37   76.94    5.27
  -5 -27 -37   74.28    5.26
   5  27 -37   84.57    5.57
  -5  27 -37   96.46    6.50
 -27   5 -37   87.02    5.34
  37  27  -5   84.62    6.07
  -7 -27 -37   -0.13    4.09
 -27   7 -37    4.98    3.62
  27  37  -7    4.63    4.04
 -27  -7 -37    2.10    4.27
  27  37  -9   11.37    3.99
 -27   9 -37   -1.33    3.72
  -9 -27 -37    1.32    4.33
 -27  -9 -37    3.50    4.10
 -27  11 -37    9.56    3.54
 -11 -27 -37   16.18    4.51
 -27 -11 -37    5.97    4.12
 -11  27 -37   19.48    5.00
  27  37 -11   12.55    3.80
 -27  13 -37    6.85    3.41
 -13 -27 -37    0.39    4.34
  27  37 -13    9.25    3.63
  37  27 -13    0.24    4.17
 -27 -13 -37   -0.12    4.08
 -13  27 -37   -1.09    4.56
 -15 -27 -37   15.46    4.46
  37  27 -15   19.20    4.21
  27  37 -15   16.76    3.19
 -27 -15 -37   13.14    4.04
 -15  27 -37   21.55    4.59
 -27  15 -37   14.70    3.47
 -17 -27 -37    4.68    4.30
  27  37 -17    6.50    2.83
 -17  27 -37    0.12    4.00
 -27 -17 -37    2.58    3.78
 -27  17 -37    3.77    3.08
 -19  27 -37   25.39    3.88
 -27 -19 -37   23.42    3.80
 -27  19 -37   21.94    3.05
 -27  21 -37    1.31    2.53
 -27 -21 -37    3.38    3.37
 -21  27 -37    3.01    3.05
  37  27  23    1.85    1.52
 -23  27 -37   -2.40    2.61
 -27  23 -37   -1.62    1.99
 -27 -23 -37    2.97    3.14
 -23 -27 -37   -4.24    3.35
 -27 -25 -37   40.47    3.31
 -25 -27 -37   45.36    3.52
 -27 -37 -27   -4.84    2.10
 -27 -27 -37   -0.52    2.22
  -1 -29 -37   36.13    3.59
  37  29  -1   31.90    4.78
  37  29   1   40.04    4.92
 -29   1 -37   34.84    4.00
 -29  -1 -37   38.13    4.08
   1  29 -37   32.33    4.92
  -1  29 -37   30.64    5.14
   1 -29 -37   25.68    3.15
  37  29  -3   -0.39    4.44
  -3 -29 -37    3.63    3.35
 -29   3 -37    1.60    3.43
  37  29   3   -2.33    4.36
 -29  -3 -37   -0.12    3.65
  -3  29 -37   -3.31    4.93
   3 -29 -37    3.33    2.35
 -29  -5 -37  149.35    6.91
  29  37  -5  155.70    7.23
  -5 -29 -37  141.22    6.78
  -5  29 -37  159.43    7.78
 -29   5 -37  152.54    6.77
  29  37  -7   16.06    3.82
  -7 -29 -37    7.82    3.83
 -29   7 -37   10.06    3.40
 -29  -7 -37    9.44    3.77
 -29   9 -37   31.59    3.69
  -9 -29 -37   29.13    4.26
 -29  -9 -37   38.73    4.19
  29  37  -9   35.52    4.28
 -11 -29 -37   66.30    4.95
  37  29 -11   65.59    4.97
 -29 -11 -37   63.33    4.65
 -11  29 -37   71.58    5.50
  29  37 -11   56.14    4.52
 -29  11 -37   60.71    4.20
 -13 -29 -37    0.23    4.10
  37  29 -13   -1.98    3.81
  29  37 -13    2.73    3.19
 -29 -13 -37    7.96    3.55
 -13  29 -37    5.14    4.29
 -29  13 -37    7.49    2.92
 -15 -29 -37   34.05    4.46
  37  29 -15   42.00    4.17
  29  37 -15   38.21    3.50
 -29 -15 -37   33.88    3.76
 -15  29 -37   31.21    4.35
 -29  15 -37   34.69    3.26
  29  37 -17    4.54    2.59
 -17  29 -37   -1.71    3.73
 -29 -17 -37    1.06    3.20
 -29  17 -37   -0.08    2.47
 -29 -19 -37   48.11    3.64
 -19  29 -37   51.30    3.80
 -29  21 -37    1.48    1.70
  37  29  21   -1.15    1.86
 -29 -21 -37    1.21    2.76
  37  29  23   -2.39    1.29
 -29 -23 -37   -1.70    2.38
 -23 -29 -37   -3.72    2.89
 -29 -37 -25   37.14    2.60
 -29 -25 -37   44.53    2.75
 -25 -29 -37   51.38    3.07
 -25 -37 -29   47.79    3.05
 -29 -27 -37    5.20    1.55
 -27 -29 -37    3.29    1.65
 -29 -37 -27    1.76    1.38
 -27 -37 -29    5.33    1.62
  37  31  -1   42.28    4.80
 -31   1 -37   44.03    3.71
  -1 -31 -37   40.95    3.33
 -31  -1 -37   41.34    3.73
  31  37  -1   49.31    4.75
   1 -31 -37   35.56    3.00
  -3 -31 -37   30.17    3.53
 -31   3 -37   42.80    3.61
  31  37  -3   43.88    4.61
  37  31   3   35.92    4.68
 -31  -3 -37   38.88    3.78
  -5 -31 -37   -1.42    3.25
  31  37  -5    2.62    3.99
 -31   5 -37   -1.21    2.97
  37  31   5    6.37    4.01
 -31  -5 -37    0.70    3.13
 -31   7 -37   22.58    3.02
  -7 -31 -37   18.96    3.60
 -31  -7 -37   22.51    3.48
  31  37  -7   26.88    3.92
 -31  -9 -37   77.67    4.39
  37  31  -9   78.61    5.12
  31  37  -9   76.33    4.69
  -9 -31 -37   68.36    4.62
 -31   9 -37   69.22    3.99
 -11 -31 -37   34.41    3.96
  37  31 -11   24.36    4.02
 -31 -11 -37   27.34    3.38
  31  37 -11   24.75    3.60
 -11  31 -37   31.30    4.63
 -31  11 -37   20.88    2.71
 -13 -31 -37    1.44    3.60
  37  31 -13    6.48    3.62
  31  37 -13   -0.44    2.87
 -31 -13 -37   -0.36    2.89
 -31  13 -37    2.04    2.33
 -15 -31 -37    0.20    3.54
  31  37 -15    4.81    2.72
 -31 -15 -37    1.43    2.85
 -31  15 -37   -0.98    1.78
 -17 -31 -37   -3.07    3.33
 -31 -17 -37    1.17    2.54
 -31  17 -37   -1.68    1.56
  37  31  19   -2.53    2.06
 -31 -19 -37   -0.98    2.41
 -19 -31 -37   -2.14    3.02
  37  31  21   14.22    1.77
 -31 -21 -37   18.57    2.33
 -31 -37 -23    6.58    1.50
 -23 -37 -31    8.68    2.21
 -31 -23 -37    5.58    1.74
 -23 -31 -37    8.84    2.29
 -25 -31 -37    1.99    1.58
 -25 -37 -31    3.23    1.65
   1 -37 -33    1.08    1.97
  37  33   1    9.81    3.85
 -33   1 -37    3.52    2.50
  33  37  -1    3.41    3.79
 -33  -1 -37    5.10    2.55
  33  37   1    7.97    3.89
  -1 -33 -37    1.42    2.24
  33  37  -3   -2.30    3.72
 -33   3 -37   -2.13    2.30
  37  33   3   -2.54    3.84
 -33  -3 -37   -2.53    2.58
  -3 -33 -37    1.92    2.46
  -5 -33 -37   12.16    2.93
 -33   5 -37   16.57    2.39
  37  33   5   21.93    3.68
 -33  -5 -37   15.93    2.76
  33  37  -5   17.01    3.65
  -7 -33 -37   -2.50    2.88
 -33  -7 -37    0.85    2.53
  37  33   7   -0.30    3.43
  37  33  -7    3.29    3.63
  33  37  -7   -5.03    3.49
 -33   7 -37    1.42    2.03
  -9 -33 -37    2.99    2.91
 -33  -9 -37   -3.17    2.50
  37  33   9    0.95    3.33
  37  33  -9    2.84    3.42
  33  37  -9    3.72    3.10
 -33   9 -37    1.64    1.86
 -11 -33 -37    1.98    3.12
 -33 -11 -37   -0.22    2.42
  37  33 -11    0.18    3.22
  37  33  11    8.17    3.14
  33  37 -11   -1.84    2.88
 -13 -33 -37    4.73    3.07
  37  33 -13    7.07    3.00
  33  37 -13    2.94    2.61
 -33 -13 -37    7.15    2.27
 -15 -33 -37   -1.42    2.90
  37  33  15    2.54    2.58
 -33 -15 -37    1.94    2.11
  37  33  17   -0.93    2.15
 -33 -17 -37   -0.06    1.88
 -17 -33 -37    1.86    2.69
 -19 -37 -33    8.44    2.66
  37  33  19    4.17    1.68
 -33 -19 -37    4.60    1.54
 -19 -33 -37    8.99    2.62
 -23 -33 -37    1.30    1.46
 -23 -37 -33   -1.15    1.59
 -35  -1 -37    0.76    1.51
  -1 -35 -37    1.76    1.63
  -1 -37 -35   -0.32    1.65
  35  37  -1    2.38    3.08
  -3 -37 -35    4.06    1.98
  37  35   3    5.82    3.33
 -35  -3 -37    3.19    1.71
  -3 -35 -37    0.73    1.98
  35  37  -3    5.48    3.25
  -5 -37 -35    2.41    2.19
  37  35   5    2.76    3.13
 -35  -5 -37    3.25    1.74
  37  35  -5    2.98    3.09
  35  37  -5    2.00    3.14
  -5 -35 -37    4.04    2.13
  -7 -37 -35    2.10    2.40
  37  35   7   -3.60    3.03
 -35  -7 -37   -4.44    1.70
  35  37   7   -1.40    3.10
  37  35  -7    1.42    3.03
  35  37  -7    2.46    2.93
  -7 -35 -37   -3.64    2.45
  -9 -37 -35    5.55    2.47
 -35  -9 -37    6.30    1.62
  37  35   9    4.05    2.95
  35  37   9   11.90    3.03
  37  35  -9    4.00    2.84
  35  37  -9    7.41    2.80
  -9 -35 -37   10.96    2.60
 -11 -37 -35    6.98    2.51
 -35 -11 -37    6.66    1.52
  37  35  11    6.68    2.76
  37  35 -11   12.86    2.69
  35  37 -11   14.73    2.63
 -11 -35 -37    9.45    2.61
 -13 -37 -35    0.28    2.37
  37  35  13    1.29    2.38
 -35 -13 -37    1.98    1.31
 -13 -35 -37    0.42    2.45
 -15 -37 -35    3.01    2.34
  37  35  15    0.70    2.09
  35  37  15    0.19    2.23
 -15 -35 -37   -0.73    2.29
  37  35  17   -0.28    1.58
  35  37  17    0.32    1.81
 -17 -35 -37   -2.52    2.07
 -17 -37 -35    0.91    2.12
  35  37  19    0.69    1.35
 -19 -35 -37   -2.13    1.60
 -19 -37 -35   -0.68    1.58
  37  37  -3   -0.22    2.68
  -5 -37 -37    1.40    1.40
  37  37   5    4.30    2.65
  37  37   7   -3.27    2.58
  37  37  -7    2.18    2.35
  -7 -37 -37   -2.37    1.60
  37  37   9    2.60    2.38
  37  37  -9   -2.14    2.15
  -9 -37 -37   -1.85    1.72
  37  37  11   -0.35    2.02
 -11 -37 -37   -0.42    1.74
  37  37  13    0.92    1.81
 -13 -37 -37    1.97    1.66
  37  37  15   -0.75    1.37
 -15 -37 -37   -2.27    1.60
 -17 -37 -37    2.18    1.25
   0   0 -38   14.58    3.99
  38   2   0   41.11    3.58
   0   2 -38   32.91    4.36
   2   0 -38   33.90    4.13
  -2   0 -38   38.30    4.51
   0  -2 -38   35.93    4.59
  38   2   2    5.73    2.54
   2   2 -38    1.44    3.73
  -2   2 -38   -0.15    4.34
   2  -2 -38    4.52    3.77
  -2  -2 -38    2.44    4.01
   0   4 -38    3.17    3.92
  38   4   0    3.89    3.00
  -4   0 -38    2.37    4.43
   0  -4 -38    3.80    3.81
   2   4 -38    0.87    3.80
   4   2 -38    0.27    3.51
  38   4  -2   -2.15    3.18
  -2   4 -38    0.62    4.19
   4  -2 -38   -1.34    3.57
  38   4   2   -3.26    2.93
  -4   2 -38   -2.39    4.44
   2  -4 -38    1.68    3.63
  -4  -2 -38    3.46    4.62
  -2  -4 -38   -1.07    3.97
   4   4 -38   45.67    4.39
  38   4  -4   39.85    3.89
  -4   4 -38   37.59    5.24
  38   4   4   37.91    3.34
   4  -4 -38   46.67    4.08
  -4  -4 -38   43.29    5.06
   0   6 -38   46.06    4.95
   6   0 -38   42.42    4.05
  38   6   0   44.08    3.92
  -6   0 -38   43.69    5.40
   0  -6 -38   55.63    4.66
   2   6 -38   29.73    4.37
   6   2 -38   27.68    3.63
  -2   6 -38   27.84    4.68
   6  -2 -38   29.34    3.76
  -6   2 -38   34.88    5.07
  38   6  -2   30.67    3.71
  38   6   2   24.46    3.53
   2  -6 -38   32.07    3.98
  -6  -2 -38   38.00    4.83
  -2  -6 -38   29.65    4.34
   4   6 -38    8.39    3.92
   6   4 -38    5.31    3.28
  38   4  -6    0.65    3.63
  -4   6 -38   -0.64    4.62
   6  -4 -38    6.18    3.35
  -6   4 -38    6.70    4.76
  38   6  -4   -0.13    3.46
   4  -6 -38    4.31    3.28
  38   6   4    8.92    2.99
  -6  -4 -38    7.76    4.63
  -4  -6 -38    4.71    4.50
   6   6 -38   17.12    3.58
  38   6   6   17.32    3.03
  -6   6 -38   19.21    4.86
  38   6  -6   13.66    3.92
   6  -6 -38   18.29    3.49
  -6  -6 -38   16.60    4.75
   0   8 -38   61.87    5.04
   8   0 -38   55.71    4.11
  -8   0 -38   56.57    5.82
  38   8   0   54.53    4.64
   0  -8 -38   65.40    5.01
  38   8  -2   87.84    5.35
  38   8   2   87.43    5.15
  -8  -2 -38   92.00    6.29
   2  -8 -38   85.89    5.42
  -2  -8 -38   92.81    5.86
  -8   2 -38   81.80    6.30
   2   8 -38   89.74    5.68
   8   2 -38   91.33    4.92
  -2   8 -38   89.78    6.11
   8  -2 -38   80.87    4.62
   8   4 -38    5.57    3.07
   4   8 -38    1.44    4.01
  -4   8 -38    1.63    4.61
   8  -4 -38    4.18    2.78
  -8   4 -38    8.31    5.00
  38   8  -4    2.99    3.73
   4  -8 -38    4.79    3.48
  -8  -4 -38    9.25    4.93
  -4  -8 -38    9.22    4.36
  38   8   4    1.31    3.21
   8   6 -38   14.26    3.38
   6   8 -38   11.24    3.86
  -6   8 -38   16.88    5.16
  38   6  -8   16.38    4.11
  -8   6 -38   16.66    5.20
   8  -6 -38   20.75    2.92
  38   8  -6   14.84    4.10
   6  -8 -38   14.71    3.38
  -8  -6 -38   23.05    4.91
  -6  -8 -38   10.44    4.73
  38   8   6   20.23    3.11
   8   8 -38   35.88    3.94
  -8   8 -38   44.69    5.40
  38   8  -8   43.56    4.72
   8  -8 -38   37.42    3.53
  -8  -8 -38   47.94    5.42
  38   8   8   41.15    3.40
   0  10 -38   16.92    4.66
 -10   0 -38   19.58    4.94
   0 -10 -38   20.16    4.01
  38  10   0   18.65    4.02
  10   2 -38    0.66    2.69
   2  10 -38   -1.67    4.28
  -2  10 -38   -0.97    4.55
   2 -10 -38    2.46    3.51
 -10   2 -38   -0.17    5.08
 -10  -2 -38   -1.34    5.12
  38  10  -2    0.14    3.85
  -2 -10 -38    0.75    3.94
  38  10   2    1.97    3.60
  10   4 -38    3.04    2.96
   4  10 -38    4.09    3.73
  -4  10 -38   -0.16    4.65
 -10   4 -38    2.52    5.15
  38  10  -4    2.54    4.05
   4 -10 -38    1.28    3.24
 -10  -4 -38    7.22    5.02
  -4 -10 -38    2.02    4.29
  38  10   4    6.19    3.54
  10   6 -38   41.47    3.77
   6  10 -38   54.25    4.64
  -6  10 -38   53.97    5.58
 -10   6 -38   50.67    5.54
  38  10  -6   56.50    4.93
   6 -10 -38   41.84    3.86
 -10  -6 -38   41.31    5.62
  -6 -10 -38   48.12    5.13
  38  10   6   43.90    4.04
  38  10   8    7.34    2.98
  -8  10 -38   14.13    5.20
  38   8 -10   13.25    4.16
 -10   8 -38   21.08    5.48
  38  10  -8   17.69    4.35
 -10  -8 -38   12.35    4.87
  -8 -10 -38   13.44    4.89
  10   8 -38    8.13    3.19
   8  10 -38   13.48    3.68
  38  10  10    3.11    2.89
 -10  10 -38    8.46    5.08
  38  10 -10    2.35    4.42
 -10 -10 -38    6.50    4.58
  10  10 -38    4.68    3.26
 -12   0 -38   99.40    6.56
  38  12   0   97.96    5.86
   0 -12 -38   94.77    5.75
   0  12 -38   88.25    6.22
 -12   2 -38  136.96    7.79
  38  12  -2  132.82    6.74
 -12  -2 -38  134.22    7.70
  38  12   2  122.74    6.62
   2 -12 -38  132.13    6.54
  -2 -12 -38  126.44    6.72
   2  12 -38  136.43    6.94
  -2  12 -38  141.56    7.14
   4  12 -38   27.06    4.39
  38  12   4   36.85    3.86
  -4  12 -38   28.56    5.25
  38  12  -4   31.22    4.76
   4 -12 -38   28.53    3.80
 -12  -4 -38   32.20    5.63
  -4 -12 -38   30.45    4.51
  38  12   6    3.44    3.43
  -6  12 -38   -0.50    5.05
  38  12  -6    3.54    3.99
   6 -12 -38    2.87    3.00
 -12  -6 -38   -2.20    4.97
  -6 -12 -38    4.96    4.61
   6  12 -38    2.85    3.91
  -8  12 -38   73.34    6.36
  38  12   8   66.14    4.53
  38  12  -8   60.33    5.29
   8  12 -38   69.30    4.92
 -12  -8 -38   63.11    6.05
  -8 -12 -38   68.04    5.92
  12  10 -38    2.66    2.98
  38  12  10    5.17    3.14
 -10  12 -38   -2.54    5.25
  38  10 -12   -0.89    4.20
  38  12 -10    8.48    4.44
 -12 -10 -38   -0.67    5.08
  10  12 -38    3.77    3.43
 -10 -12 -38    2.82    4.98
  38  12 -12  223.68    9.13
  38  12  12  211.65    7.97
  12  38 -12  183.20    7.81
 -12 -12 -38  234.81    9.67
  12  12 -38  189.50    8.03
   0  14 -38   17.32    4.63
   0 -14 -38   24.44    4.06
  38  14   0   25.50    4.58
   2  14 -38   13.65    4.21
  38  14   2   11.67    4.08
  -2  14 -38    4.22    4.58
   2 -14 -38   11.57    3.62
  38  14  -2    1.91    4.07
  -2 -14 -38    8.01    4.09
  -4  14 -38    4.96    5.03
  38  14   4   -3.29    3.98
   4 -14 -38   -2.35    3.12
  38  14  -4    4.03    4.24
  -4 -14 -38    2.47    4.44
   4  14 -38   -2.41    4.25
  -6  14 -38   19.09    5.39
  38  14  -6   30.84    4.41
  38  14   6   21.34    4.00
   6 -14 -38   14.77    3.19
 -14  -6 -38   23.37    5.26
   6  14 -38   23.54    4.17
  -6 -14 -38   27.38    4.79
  -8  14 -38   15.16    5.45
  38  14   8   14.12    3.69
   8  14 -38    9.59    3.74
  38  14  -8   19.45    4.79
 -14  -8 -38    9.95    5.27
  -8 -14 -38    9.43    4.90
  38  14  10    4.83    3.51
  38  14 -10    5.12    4.60
 -14 -10 -38    4.03    5.08
 -10 -14 -38   13.86    4.84
  14  38 -12    5.23    2.99
  38  12 -14    1.34    4.40
  38  14  12    1.24    3.10
  38  14 -12    6.13    4.70
  12  14 -38   -2.09    3.09
 -14 -12 -38   -3.50    5.23
 -12 -14 -38   -0.50    5.25
 -14  14 -38    5.75    5.46
  38  14 -14    4.76    5.07
  38  14  14    8.31    2.91
  14  38 -14    5.79    2.68
 -14 -14 -38    5.11    5.39
  38  16   0   17.19    4.41
   0 -16 -38   20.45    3.87
   0  16 -38   15.25    4.55
  -2  16 -38   42.61    5.18
  38  16   2   28.69    4.65
 -16   2 -38   36.17    5.80
   2 -16 -38   33.23    3.89
  -2 -16 -38   35.77    4.48
  38  16  -2   30.18    4.86
   2  16 -38   33.99    4.99
  -4  16 -38   81.60    6.43
  38  16  -4   87.93    5.89
  38  16   4   76.45    5.38
   4 -16 -38   70.43    4.71
 -16   4 -38   86.84    6.49
   4  16 -38   82.98    5.86
  -4 -16 -38   78.60    5.75
  -6  16 -38   39.59    5.68
  38  16   6   48.14    4.67
 -16   6 -38   38.62    5.62
   6 -16 -38   45.89    3.62
  38  16  -6   56.18    5.38
   6  16 -38   48.16    4.84
  -6 -16 -38   46.21    5.23
  -8  16 -38   20.67    5.35
 -16   8 -38   15.40    5.39
  38  16   8   16.38    3.95
  38  16  -8   20.05    4.83
   8  16 -38   15.31    4.06
  -8 -16 -38   16.21    4.98
 -16  10 -38    4.77    5.29
  38  16  10    5.37    3.53
  38  16 -10    8.16    4.58
  10  16 -38    3.09    3.24
 -10 -16 -38    9.59    5.14
 -16  12 -38   10.73    5.26
  16  38 -12   11.90    3.23
  38  16 -12   15.65    4.75
  12  16 -38   10.45    3.36
 -12 -16 -38    9.62    4.95
 -14  16 -38   71.01    6.23
 -16  14 -38   71.30    6.11
  38  16 -14   64.65    5.75
  16  38 -14   50.62    3.86
 -14 -16 -38   66.12    5.99
  38  16  16  153.99    6.27
 -16 -16 -38  155.95    8.18
  38  18   0   24.67    4.55
 -18   0 -38   19.02    5.43
   0 -18 -38   19.99    4.15
   0  18 -38   28.00    4.94
  38  18  -2   55.20    5.37
  38  18   2   53.07    5.20
 -18   2 -38   58.04    5.65
 -18  -2 -38   57.65    5.85
   2 -18 -38   51.70    4.37
   2  18 -38   57.99    5.53
  -2  18 -38   56.23    5.54
  -2 -18 -38   58.31    4.97
  38  18   4    3.71    4.15
 -18   4 -38   -3.94    5.09
 -18  -4 -38    1.00    5.20
   4 -18 -38    0.46    2.98
   4  18 -38    2.13    3.95
  38  18  -4    1.37    4.65
  -4  18 -38    2.48    5.23
  -4 -18 -38    2.24    4.27
  -6 -18 -38   24.21    4.51
 -18   6 -38   19.54    5.03
  38  18   6   17.73    4.30
   6  18 -38   21.76    4.47
 -18  -6 -38   15.59    5.51
   6 -18 -38   25.27    3.07
  38  18  -6   32.92    4.78
  -6  18 -38   33.57    5.55
  38  18  -8   94.33    6.44
  -8 -18 -38   93.90    6.58
   8  18 -38   89.25    5.68
 -18   8 -38   99.45    6.71
  -8  18 -38   98.08    7.06
 -10 -18 -38   18.12    5.11
 -18  10 -38   14.08    5.20
  18  38 -10   13.52    3.57
  38  18 -10   18.15    4.98
  10  18 -38   15.37    3.69
  38  18 -12  311.95   11.60
  18  38 -12  266.99   10.49
 -12 -18 -38  287.53   11.70
  12  18 -38  259.30   10.46
 -18  12 -38  316.32   11.56
 -14 -18 -38   -2.05    5.09
 -18  14 -38    1.84    4.68
  38  18 -14   -3.46    4.72
  18  38 -14   -2.11    3.11
 -14  18 -38    4.42    5.08
 -18  16 -38   39.07    5.41
  38  18 -16   37.84    5.17
  18  38 -16   38.34    3.32
 -16 -18 -38   38.91    5.79
 -16  18 -38   45.03    5.32
 -18  18 -38  230.67    9.79
  38  20   0   20.51    4.61
 -20   0 -38   13.85    5.21
   0  20 -38   14.56    5.02
   0 -20 -38   16.83    3.57
  38  20  -2   16.79    4.88
  -2  20 -38   18.25    5.01
  38  20   2   15.08    4.54
 -20   2 -38    9.77    5.12
 -20  -2 -38   13.19    5.15
   2  20 -38   12.47    4.73
   2 -20 -38   13.64    3.49
  -2 -20 -38   18.51    3.91
  -4 -20 -38   24.84    4.42
  38  20   4   30.06    4.79
 -20   4 -38   28.60    5.27
 -20  -4 -38   20.96    5.49
   4 -20 -38   26.85    3.31
   4  20 -38   25.42    4.40
  -4  20 -38   36.94    5.37
  38  20  -4   34.56    5.21
  -6 -20 -38   17.36    4.61
 -20   6 -38   10.54    4.90
  38  20   6   14.87    4.20
 -20  -6 -38   11.12    4.89
   6  20 -38    5.23    4.10
  38  20  -6    4.07    4.83
  -6  20 -38   10.20    5.28
  -8 -20 -38   45.49    5.45
 -20   8 -38   49.53    5.49
  38  20  -8   49.22    5.65
 -20  -8 -38   57.55    5.86
  -8  20 -38   46.88    5.87
 -10 -20 -38   11.40    4.83
 -20  10 -38   16.73    5.19
  20  38 -10    9.61    3.59
  38  20 -10    7.21    5.05
  10  20 -38   11.17    3.66
 -20 -10 -38    9.62    5.03
  38  20 -12  118.47    6.87
  20  38 -12  103.70    5.57
 -20  12 -38  122.35    6.81
 -20 -12 -38  114.66    7.08
 -12 -20 -38  112.66    6.63
  12  20 -38   99.43    5.52
 -14 -20 -38    8.06    5.09
 -20  14 -38    1.31    4.69
  38  20 -14    0.56    4.81
  20  38 -14    2.97    3.16
 -20 -14 -38    1.97    4.93
 -14  20 -38   -3.99    5.15
 -16 -20 -38    0.15    4.91
 -20  16 -38   -0.42    4.42
  20  38 -16   -1.41    2.70
 -20 -16 -38   -2.65    5.01
 -16  20 -38    3.68    4.74
  20  38 -18   22.81    2.75
 -18  20 -38   32.83    4.87
 -20  18 -38   32.36    4.71
  38  20  20    9.80    2.28
 -20  20 -38    7.73    4.39
  38  22   0    1.61    4.53
 -22   0 -38    8.34    4.92
   0  22 -38    6.29    4.94
   0 -22 -38    6.14    3.40
  -2 -22 -38   15.72    3.99
  38  22  -2   29.22    4.70
  38  22   2   25.19    4.48
   2 -22 -38   21.43    3.44
 -22   2 -38   13.62    5.04
 -22  -2 -38   16.36    5.12
   2  22 -38   21.08    4.56
  -2  22 -38   25.49    5.41
  -4 -22 -38   24.38    4.43
 -22   4 -38   35.46    5.14
  38  22   4   20.68    4.37
 -22  -4 -38   24.52    5.24
   4  22 -38   27.40    4.73
   4 -22 -38   24.66    3.15
  -4  22 -38   26.98    5.29
  38  22  -4   30.07    4.92
  -6 -22 -38    1.15    4.14
 -22   6 -38   -1.05    4.69
 -22  -6 -38    3.08    4.80
  38  22  -6    5.60    4.98
   6  22 -38    4.86    4.01
  -6  22 -38    0.16    5.39
  -8 -22 -38   12.30    4.74
 -22   8 -38   10.48    4.70
 -22  -8 -38   17.58    4.86
   8  22 -38   13.42    3.79
  38  22  -8   12.26    4.73
 -10 -22 -38   -3.10    4.75
 -22  10 -38    3.47    4.53
  22  38 -10    3.70    3.79
  38  22 -10    2.29    4.75
  10  22 -38    1.50    3.49
 -22 -10 -38    0.75    4.73
 -12 -22 -38    3.23    4.57
 -22  12 -38   -7.17    4.57
  38  22 -12   -1.80    4.85
 -22 -12 -38    0.29    4.59
 -12  22 -38   -4.74    5.20
  22  38 -12   -1.03    3.54
 -14 -22 -38   -0.14    4.81
 -22  14 -38   -1.08    4.21
  22  38 -14    0.10    3.17
 -22 -14 -38    0.86    4.68
 -14  22 -38    2.06    4.48
 -16 -22 -38   27.70    5.06
 -16  22 -38   27.71    4.94
  22  38 -16   24.91    3.20
 -22 -16 -38   30.21    4.86
 -22  16 -38   28.70    4.35
  22  38 -18    0.08    2.40
 -18  22 -38    0.65    4.28
 -22 -18 -38    1.33    4.32
 -22  18 -38    4.72    4.00
  38  22  20   -0.51    2.20
 -20  22 -38   -4.68    4.01
 -22  20 -38    0.58    3.73
 -22 -20 -38    4.63    4.23
 -22  22 -38    4.51    3.46
 -22 -22 -38    3.26    3.94
  38  24   0   42.62    5.17
 -24   0 -38   36.51    5.10
   0  24 -38   36.86    5.29
   0 -24 -38   38.26    3.97
  -2 -24 -38   13.79    3.81
  38  24  -2   14.75    4.37
   2  24 -38   14.39    4.76
  -2  24 -38    5.74    4.71
  38  24   2   12.13    4.31
 -24   2 -38   12.79    4.34
 -24  -2 -38   15.29    4.64
   2 -24 -38   15.06    3.10
  -4 -24 -38   13.82    3.82
 -24   4 -38   16.04    4.50
  38  24   4   18.50    4.40
 -24  -4 -38   16.10    4.76
   4  24 -38   17.17    4.48
  -4  24 -38   20.11    5.20
   4 -24 -38   17.03    2.87
  38  24  -4   14.33    4.73
  -6 -24 -38   17.80    4.22
 -24   6 -38   19.88    4.24
 -24  -6 -38   11.99    4.68
   6  24 -38    8.51    4.26
  -6  24 -38    9.95    5.23
  38  24  -6   12.79    4.93
  -8 -24 -38    1.66    4.19
 -24   8 -38    5.63    4.31
  24  38  -8    2.03    4.02
 -24  -8 -38    2.29    4.68
  38  24  -8    2.79    4.72
   8  24 -38    3.14    3.72
 -10 -24 -38   14.21    4.65
  24  38 -10    9.31    3.77
 -24  10 -38   13.89    4.30
  38  24 -10    9.66    4.94
 -24 -10 -38   12.14    4.70
 -12 -24 -38   -2.22    4.62
 -24  12 -38   -6.42    4.39
 -12  24 -38    3.93    4.77
  24  38 -12    3.44    3.61
 -24  14 -38    7.04    3.99
 -14 -24 -38    5.57    4.54
  24  38 -14    2.42    3.11
 -24 -14 -38   -0.67    4.43
 -14  24 -38    1.95    4.51
 -16 -24 -38    3.15    4.48
  24  38 -16    4.99    2.85
 -24 -16 -38   -1.40    4.05
 -16  24 -38    2.76    4.35
 -24  16 -38    3.29    3.79
  24  38 -18    3.05    2.42
 -18  24 -38    8.54    4.20
 -24 -18 -38    7.28    4.03
 -24  18 -38   -5.21    3.65
 -18 -24 -38   -0.62    4.26
  38  24  20   13.08    2.27
 -20  24 -38   20.51    3.83
 -24 -20 -38   22.04    3.91
 -24  20 -38   20.08    3.44
 -22  24 -38    2.71    3.21
 -24  22 -38   -0.74    3.00
 -24 -22 -38    0.10    3.74
 -22 -24 -38    2.45    3.69
 -24  24 -38   24.49    3.00
 -24 -24 -38   21.28    3.46
  38  26   0   25.10    4.43
 -26   0 -38   22.23    4.32
   0 -26 -38   10.53    3.19
  -2 -26 -38    6.48    3.43
  38  26  -2   -1.09    4.74
  38  26   2    4.59    4.49
 -26   2 -38    2.77    4.07
 -26  -2 -38   -1.87    4.19
   2  26 -38    4.62    4.67
  -2  26 -38   -1.19    4.91
   2 -26 -38    1.15    2.81
  -4 -26 -38    1.22    3.68
 -26   4 -38    3.13    4.05
  38  26   4    0.66    4.19
 -26  -4 -38    4.95    4.12
   4  26 -38   -0.14    4.35
  -4  26 -38   12.83    5.10
  38  26  -4   -0.14    4.72
  -6 -26 -38    2.90    3.92
 -26   6 -38    5.49    3.97
  26  38  -6    3.55    4.13
  38  26   6    7.07    4.15
 -26  -6 -38    8.36    4.44
   6  26 -38    4.90    4.05
  -6  26 -38    8.44    4.65
  38  26  -6    3.78    4.60
  -8 -26 -38    0.39    3.85
 -26   8 -38    1.24    3.83
  26  38  -8    2.42    3.76
 -26  -8 -38   -0.65    4.25
  38  26  -8    1.19    4.42
 -10 -26 -38    1.94    4.14
 -26  10 -38    0.24    3.51
 -26 -10 -38   -3.61    4.15
  26  38 -10    6.25    3.65
 -26  12 -38   -5.83    3.59
 -12 -26 -38    4.36    4.20
 -26 -12 -38    5.27    4.16
  26  38 -12    5.37    3.41
 -12  26 -38    3.96    4.66
 -14 -26 -38   -5.13    4.35
  26  38 -14    1.62    3.04
 -26 -14 -38    3.51    3.76
 -14  26 -38   -6.11    4.45
 -26  14 -38    2.18    3.49
 -16 -26 -38   14.82    4.43
 -26 -16 -38   15.56    4.00
  26  38 -16   10.36    2.74
 -16  26 -38   12.76    4.18
 -26  16 -38    9.15    3.44
 -18  26 -38   12.60    3.80
 -26 -18 -38    5.74    3.83
 -26  18 -38    5.37    3.11
 -18 -26 -38    5.92    3.95
  38  26  20   19.82    2.41
 -20  26 -38   22.26    3.38
 -26 -20 -38   21.59    3.75
 -26  20 -38   23.11    3.10
  38  26  22   -0.28    1.53
 -22  26 -38    4.25    2.89
 -26  22 -38    5.85    2.41
 -26  24 -38    5.02    1.99
 -26 -24 -38   10.14    2.96
 -26 -26 -38    5.64    2.39
  38  28   0    5.88    4.51
   0  28 -38   15.59    4.52
 -28   0 -38   11.28    3.85
   0 -28 -38    7.90    2.84
  38  28   2    0.63    4.10
 -28   2 -38   -2.23    3.63
 -28  -2 -38    3.59    3.67
   2  28 -38   -1.22    4.36
  -2  28 -38   -0.14    4.74
   2 -28 -38    0.83    2.42
  -2 -28 -38   -4.06    3.25
  38  28  -2    2.31    4.12
  -4 -28 -38    6.63    3.44
 -28   4 -38    8.55    3.58
  38  28   4   -7.97    4.35
  28  38  -4   -2.34    3.97
 -28  -4 -38    4.42    3.83
  -4  28 -38    0.56    4.73
  38  28  -4   -1.53    4.26
  -6 -28 -38   -1.03    3.47
 -28   6 -38   -0.45    3.47
  28  38  -6    1.07    4.02
  38  28   6   -8.09    4.21
 -28  -6 -38   -4.76    3.82
  38  28  -6    2.51    4.40
  -6  28 -38   -3.63    4.59
  28  38  -8   -2.14    3.59
  -8 -28 -38    9.84    3.76
 -28   8 -38    4.02    3.41
 -28  -8 -38    3.74    3.74
 -28  10 -38   -3.83    3.25
 -10 -28 -38   -3.17    3.88
 -28 -10 -38    2.05    3.70
  28  38 -10   -0.32    3.50
 -12 -28 -38    7.32    3.99
 -28 -12 -38    8.28    3.66
  28  38 -12    1.07    3.19
 -12  28 -38   -3.04    4.42
 -28  12 -38    1.77    3.16
 -14 -28 -38   -3.17    3.92
  38  28 -14    2.42    3.76
  28  38 -14   -4.28    2.99
 -28 -14 -38    3.07    3.48
 -14  28 -38   -0.24    4.18
 -28  14 -38    2.12    3.04
 -16 -28 -38   20.32    3.96
  28  38 -16   18.72    2.80
 -28 -16 -38   14.85    3.52
 -16  28 -38   19.44    4.02
 -28  16 -38   18.68    2.87
  38  28  18    1.65    2.30
 -28 -18 -38    5.89    3.22
 -28  18 -38    2.93    2.39
 -18 -28 -38    0.91    3.58
  38  28  20    2.18    1.90
 -20  28 -38   -0.52    2.90
 -28 -20 -38   -1.03    2.95
 -28  20 -38   -0.83    2.03
 -28  22 -38    2.20    1.58
 -28 -22 -38    8.15    2.73
 -28 -24 -38    4.00    2.17
 -24 -28 -38    2.26    2.51
 -28 -38 -26    1.21    1.61
 -26 -38 -28   -1.32    1.83
 -28 -26 -38   -1.49    1.74
 -26 -28 -38   -0.68    1.96
  38  30   0   27.34    4.45
 -30   0 -38   32.07    3.50
   0 -30 -38   26.67    2.91
  38  30   2    5.36    3.99
 -30   2 -38    0.10    3.20
 -30  -2 -38    3.08    3.26
  30  38  -2    0.23    3.95
   2 -30 -38    0.07    2.05
  38  30  -2    0.94    3.88
  -2 -30 -38    4.78    2.85
 -30   4 -38    7.63    3.20
  -4  30 -38    9.86    4.51
  30  38  -4   12.55    3.87
  38  30   4   12.36    4.09
 -30  -4 -38    7.70    3.30
  38  30  -4    7.67    4.09
  -4 -30 -38   13.84    3.16
  -6 -30 -38   43.36    3.98
  30  38  -6   51.06    4.44
 -30   6 -38   52.85    3.84
  38  30   6   43.07    4.36
 -30  -6 -38   41.85    3.85
  -6  30 -38   54.94    5.17
  -8 -30 -38   16.79    3.63
 -30   8 -38   18.56    3.12
  38  30   8   22.64    3.69
 -30  -8 -38   21.25    3.48
  30  38  -8   17.81    3.63
 -10 -30 -38    6.77    3.58
  38  30  10    5.02    3.45
 -30 -10 -38    2.44    3.21
  38  30 -10    6.40    3.78
 -10  30 -38    3.74    4.26
  30  38 -10   11.54    3.36
 -30  10 -38    6.96    2.72
 -12 -30 -38   18.89    3.66
  38  30 -12   34.68    3.92
  38  30  12   20.78    3.50
 -30 -12 -38   19.92    3.25
  30  38 -12   25.97    3.27
 -12  30 -38   23.79    4.26
 -30  12 -38   23.97    2.74
 -14 -30 -38    9.95    3.63
 -14  30 -38   14.14    3.89
  38  30 -14    6.22    3.38
  30  38 -14    4.59    2.77
  38  30  14   13.54    3.07
 -30 -14 -38   10.72    3.01
 -30  14 -38    6.59    2.44
  38  30  16    6.70    2.54
 -30 -16 -38    1.98    2.76
 -30  16 -38    7.39    1.95
 -16 -30 -38    2.74    3.38
  38  30  18    3.12    2.08
 -30 -18 -38    8.78    2.61
 -30  18 -38    6.31    1.58
 -18 -30 -38    5.52    3.16
  38  30  20   13.40    1.75
 -30 -20 -38   16.99    2.44
 -30 -22 -38    1.10    1.95
 -30 -38 -24    4.26    1.34
 -24 -38 -30    2.75    1.94
 -30 -24 -38    5.96    1.52
 -24 -30 -38    6.54    1.81
 -26 -30 -38    1.03    1.32
 -32   0 -38    9.35    2.65
  32  38   0    8.77    3.65
   0 -32 -38    1.14    1.83
  38  32   0    7.99    3.66
  38  32   2   62.90    4.71
  38  32  -2   69.38    4.79
  32  38  -2   67.55    4.71
  -2 -32 -38   58.99    3.48
  32  38   2   76.04    4.84
 -32   2 -38   62.59    3.71
 -32  -2 -38   64.27    3.90
  32  38  -4    1.11    3.53
 -32   4 -38    1.30    2.39
  38  32   4    2.86    3.48
 -32  -4 -38    6.98    2.74
  -4 -32 -38   -0.49    2.62
 -32   6 -38   18.14    2.44
  38  32   6   19.53    3.61
 -32  -6 -38   12.56    2.88
  32  38  -6   15.75    3.51
  -6 -32 -38   14.17    2.99
 -32  -8 -38   57.31    3.60
  38  32   8   62.64    4.13
  38  32  -8   58.10    4.29
 -32   8 -38   45.96    3.16
  32  38  -8   48.62    4.05
  -8 -32 -38   55.93    3.84
 -10 -32 -38   10.22    3.12
  38  32  10    2.40    3.09
 -32 -10 -38    5.28    2.61
  38  32 -10    4.37    3.21
  32  38 -10    6.49    3.05
 -32  10 -38    3.07    1.95
 -32 -12 -38  172.16    6.21
  38  32 -12  184.29    6.56
  32  38 -12  175.01    6.33
  38  32  12  168.51    6.43
 -12 -32 -38  185.30    6.56
  32  38 -14   11.03    2.39
  38  32  14    3.81    2.63
 -32 -14 -38    4.13    2.37
 -14 -32 -38    9.77    3.01
  38  32  16    1.64    2.17
 -32 -16 -38    4.77    2.10
 -16 -32 -38   -1.43    2.83
 -32 -18 -38   76.60    3.45
  38  32  18   75.42    3.38
 -32 -20 -38    4.35    1.53
 -20 -32 -38    5.85    2.33
 -24 -32 -38    0.32    1.17
  34  38   0    9.29    3.37
 -34   0 -38    7.66    1.90
  38  34   0    9.19    3.34
 -34   2 -38    5.96    1.70
  -2 -38 -34   10.86    2.02
 -34  -2 -38    8.49    1.89
  34  38   2    7.97    3.26
  -2 -34 -38    6.98    1.74
  38  34   2   10.84    3.38
  38  34   4    9.37    3.27
  -4 -38 -34    4.28    2.12
 -34  -4 -38    1.65    1.84
  34  38  -4    9.74    3.15
  -4 -34 -38    5.27    2.12
 -34   4 -38    3.14    1.58
  38  34   6    6.06    3.15
  -6 -38 -34   -0.14    2.35
 -34  -6 -38   -0.47    1.98
  38  34  -6    7.17    3.12
  34  38  -6    0.99    2.89
  -6 -34 -38    2.59    2.21
  -8 -38 -34   17.13    2.64
  38  34   8    8.69    2.93
 -34  -8 -38    8.38    1.92
  38  34  -8   19.91    3.20
  34  38  -8   18.59    2.96
  -8 -34 -38   17.79    2.62
 -10 -38 -34   -1.40    2.55
  38  34  10   -1.97    2.72
 -34 -10 -38   -2.36    1.73
  38  34 -10    2.65    2.72
  34  38 -10    4.10    2.52
 -10 -34 -38   -1.72    2.47
 -12 -38 -34    0.36    2.50
  38  34  12    2.13    2.45
  34  38 -12   -2.09    2.31
 -34 -12 -38    2.07    1.63
 -12 -34 -38    0.78    2.39
 -14 -38 -34   16.97    2.56
  38  34  14   17.14    2.26
 -34 -14 -38   13.60    1.64
 -14 -34 -38   18.53    2.50
 -16 -38 -34   14.01    2.29
  38  34  16   14.76    1.88
 -16 -34 -38   18.92    2.39
 -18 -38 -34    2.64    1.77
  34  38  18    1.66    1.62
 -18 -34 -38    0.61    1.81
 -20 -34 -38    1.11    1.49
 -20 -38 -34   -0.09    1.58
  36  38   0   -0.08    2.70
  36  38  -2    3.41    2.75
  38  36   2    2.62    2.74
  38  36  -4    7.07    2.73
  36  38  -4    3.85    2.56
  -4 -36 -38    1.64    1.27
  -4 -38 -36    2.39    1.39
  38  36   4    5.56    2.67
  36  38   6   -4.81    2.72
  38  36  -6   -2.54    2.53
  36  38  -6    2.09    2.39
  -6 -36 -38    0.38    1.46
  -6 -38 -36   -0.73    1.50
  38  36   6    3.09    2.55
  36  38   8    2.25    2.45
  38  36  -8    4.06    2.35
  36  38  -8    3.62    2.19
  -8 -36 -38   -1.68    1.64
  -8 -38 -36   -0.21    1.64
  38  36   8   -2.05    2.41
  38  36  10    0.54    2.17
  36  38  10    3.92    2.28
  36  38 -10    1.69    2.06
 -10 -36 -38   -0.21    1.73
 -10 -38 -36    2.99    1.77
  36  38  12   -0.40    1.99
 -12 -36 -38   -0.92    1.73
 -12 -38 -36    0.68    1.69
  38  36  12    2.77    1.80
  36  38  14    2.48    1.66
 -14 -36 -38    2.64    1.61
 -14 -38 -36    3.42    1.57
  38  36  14    3.48    1.48
  36  38  16    4.12    1.30
 -16 -36 -38    2.09    1.44
 -16 -38 -36    4.41    1.48
  38  38  -2    2.48    1.89
  38  38  -4   -2.70    1.98
  38  38   4   -5.72    2.11
  38  38  -6    3.34    1.68
  38  38   6    2.71    1.95
  38  38   8   11.13    1.91
  38  38  10   -1.37    1.42
   1   1 -39    6.30    3.82
  -1   1 -39    3.35    4.24
   1  -1 -39    1.60    4.04
  -1  -1 -39    4.09    4.07
  39   3  -1   -0.67    3.00
  39   3   1   -1.06    2.69
   1   3 -39   -0.59    3.87
   3   1 -39    0.14    3.73
  -1   3 -39    5.67    4.21
   3  -1 -39   -5.53    3.63
  -3   1 -39    2.05    4.44
   1  -3 -39   -0.86    3.69
  -3  -1 -39    5.47    4.21
  -1  -3 -39    7.20    4.24
   3   3 -39    3.41    3.89
  -3   3 -39    3.95    4.60
   3  -3 -39    6.99    3.80
  -3  -3 -39    2.17    4.28
   1   5 -39   54.44    4.85
   5   1 -39   60.41    4.43
  -1   5 -39   59.00    5.29
  39   5  -1   45.57    4.23
  39   5   1   55.74    4.07
  -5   1 -39   54.75    5.49
  -5  -1 -39   51.27    5.41
   1  -5 -39   63.26    4.76
  -1  -5 -39   52.16    4.92
   5  -1 -39   62.45    4.52
   3   5 -39    5.62    4.05
   5   3 -39    4.85    3.66
  -3   5 -39    3.65    4.66
  39   5  -3   12.94    3.70
   5  -3 -39    7.18    3.44
  -5   3 -39   15.05    4.76
  39   5   3    6.08    2.83
   3  -5 -39    7.72    3.79
  -5  -3 -39    8.62    4.54
  -3  -5 -39   13.01    4.57
   5   5 -39   -2.60    3.67
  39   5  -5    0.13    3.58
  -5   5 -39    4.39    4.66
   5  -5 -39    1.39    3.34
  -5  -5 -39    0.32    4.57
   1   7 -39   47.67    4.72
   7   1 -39   39.18    3.99
  -1   7 -39   51.93    5.32
   7  -1 -39   43.34    3.96
  -7   1 -39   59.11    5.76
  39   7  -1   48.45    4.29
  39   7   1   55.33    4.15
  -7  -1 -39   56.62    5.68
   1  -7 -39   52.89    4.73
  -1  -7 -39   53.14    4.92
   3   7 -39    8.89    4.16
   7   3 -39    9.45    3.43
  -3   7 -39    7.22    4.71
   7  -3 -39    7.91    3.11
  -7   3 -39    3.63    4.92
  39   7  -3   10.18    3.74
   3  -7 -39   10.00    3.57
  39   7   3    5.30    3.10
  -7  -3 -39    8.18    4.71
  -3  -7 -39   -1.23    4.14
   7   5 -39   48.19    4.14
   5   7 -39   42.13    4.33
  -5   7 -39   39.11    5.37
   7  -5 -39   40.02    3.64
  -7   5 -39   43.97    5.42
  39   7  -5   39.68    4.35
   5  -7 -39   40.82    3.96
  39   7   5   34.60    3.49
  -7  -5 -39   44.61    5.23
  -5  -7 -39   41.00    5.01
   7   7 -39    1.69    3.40
  -7   7 -39    0.83    4.79
  39   7  -7   -2.45    3.89
   7  -7 -39    2.26    2.94
  39   7   7    1.73    2.63
  -7  -7 -39    3.90    4.66
   9   1 -39   13.83    3.04
   1   9 -39   11.03    4.42
  -1   9 -39   14.36    4.43
   9  -1 -39    7.67    2.92
  -9   1 -39    8.35    4.97
  -9  -1 -39   21.60    5.27
  39   9  -1   16.26    3.95
  39   9   1   16.66    3.66
   1  -9 -39   14.59    3.84
  -1  -9 -39    7.81    4.18
   9   3 -39   12.91    3.12
   3   9 -39   12.10    4.01
  -3   9 -39   17.15    4.57
  -9   3 -39    5.18    5.07
  39   9  -3   10.90    3.99
   3  -9 -39    4.74    3.65
  -9  -3 -39    8.14    4.89
  39   9   3   13.95    3.50
  -3  -9 -39    9.79    4.33
   9   5 -39   -1.06    2.96
   5   9 -39    1.54    3.68
  -5   9 -39   -4.44    4.82
  -9   5 -39    2.34    5.10
  39   9  -5    1.92    3.87
   5  -9 -39    1.83    3.18
  -9  -5 -39    6.64    5.00
  39   9   5   -3.04    3.22
  -5  -9 -39    0.16    4.46
   7   9 -39   49.81    4.57
   7  -9 -39   57.16    4.05
  39   9   7   65.57    4.20
  -7   9 -39   68.65    6.15
  -9   7 -39   76.12    6.04
  -9  -7 -39   63.60    5.84
  39   9  -7   62.93    4.97
   9   7 -39   64.93    4.41
  -7  -9 -39   59.19    5.70
  -9   9 -39   -4.20    5.22
  39   9  -9    2.41    4.05
  39   9   9   -0.82    2.67
  -9  -9 -39    7.54    4.90
   9   9 -39    1.61    3.32
   1  11 -39   -2.00    4.24
  -1  11 -39   -0.16    4.55
 -11   1 -39    3.03    5.22
 -11  -1 -39    0.84    4.91
  39  11  -1    0.55    3.81
   1 -11 -39    1.94    3.67
  -1 -11 -39   -1.16    3.96
  39  11   1   -2.39    3.75
   3  11 -39    5.79    4.22
  -3  11 -39   -1.79    4.78
 -11   3 -39    8.25    5.03
  39  11  -3    0.98    4.07
 -11  -3 -39    3.70    5.02
   3 -11 -39   -3.12    3.43
  -3 -11 -39    0.15    4.15
  39  11   3   -1.41    3.52
   5  11 -39    4.42    3.97
  -5  11 -39    1.15    5.15
 -11   5 -39    3.87    5.30
  39  11  -5    4.38    4.01
   5 -11 -39    2.38    3.14
 -11  -5 -39   -2.18    4.90
  -5 -11 -39    2.66    4.61
  39  11   5   -0.86    3.46
  -7  11 -39   14.01    5.03
 -11   7 -39   12.25    5.18
  39  11  -7   14.57    4.25
   7 -11 -39   14.73    2.92
 -11  -7 -39   17.85    5.38
  -7 -11 -39   20.82    4.95
  39  11   7   14.97    3.36
  11   7 -39   12.90    2.96
   7  11 -39   12.58    3.79
  -9  11 -39   -0.50    4.90
 -11   9 -39    3.02    5.14
  39  11  -9    4.18    4.39
 -11  -9 -39    3.81    5.03
  -9 -11 -39    5.70    4.63
  11   9 -39   -0.68    2.93
   9  11 -39    5.32    3.50
  39  11   9    5.48    3.03
  39  11 -11    0.15    4.07
 -11 -11 -39    3.45    4.89
  11  11 -39    1.26    3.00
  39  11  11    0.30    2.68
   1  13 -39   63.41    5.41
  -1  13 -39   73.19    5.58
 -13  -1 -39   61.00    6.20
   1 -13 -39   59.24    4.89
  39  13  -1   62.99    5.28
  -1 -13 -39   66.76    4.95
  39  13   1   72.16    5.13
   3  13 -39   30.48    4.37
  -3  13 -39   29.40    5.20
 -13  -3 -39   28.27    5.71
   3 -13 -39   26.84    3.75
  39  13  -3   32.25    4.26
  -3 -13 -39   30.65    4.66
  39  13   3   21.97    4.04
  -5  13 -39   73.74    6.21
  39  13  -5   65.36    5.26
   5 -13 -39   56.36    4.27
 -13  -5 -39   67.65    6.06
  -5 -13 -39   62.94    5.55
   5  13 -39   62.19    4.92
  39  13   5   63.04    4.74
  39  13   7   11.51    3.37
  -7  13 -39    4.66    5.14
  39  13  -7   15.46    4.08
 -13  -7 -39   15.05    5.08
  -7 -13 -39   15.38    4.82
   7  13 -39    1.37    3.71
  39  13   9   35.51    3.63
  -9  13 -39   34.85    5.72
  39  13  -9   38.04    5.10
 -13  -9 -39   26.70    5.51
   9  13 -39   32.35    3.77
  -9 -13 -39   28.87    5.19
  39  13  11    0.54    2.96
  13  39 -11    2.09    2.89
  39  13 -11    0.44    4.31
  11  13 -39    0.93    3.14
 -13 -11 -39    0.33    5.31
 -11 -13 -39   -1.95    5.03
  39  13  13    3.72    2.72
  39  13 -13    4.80    4.33
 -13 -13 -39    5.03    5.16
  -1  15 -39   29.48    4.86
   1 -15 -39   17.11    3.91
  -1 -15 -39   32.63    4.27
  39  15  -1   18.35    4.46
  39  15   1   14.31    4.32
   1  15 -39   23.25    4.88
  39  15   3    1.64    3.85
  -3  15 -39    4.21    4.92
   3 -15 -39    0.49    3.30
  39  15  -3   -1.89    4.36
  -3 -15 -39   -0.44    4.27
   3  15 -39   -3.33    4.38
  -5  15 -39   26.67    5.24
  39  15   5   18.87    4.12
   5 -15 -39   15.13    3.20
  39  15  -5   18.93    4.64
  -5 -15 -39   18.44    4.56
   5  15 -39   22.03    4.27
  -7  15 -39   45.58    5.69
  39  15   7   35.36    4.20
  39  15  -7   43.12    5.04
   7  15 -39   35.75    4.38
  -7 -15 -39   48.76    5.30
  -9  15 -39   -0.82    5.15
  39  15   9   -1.93    3.42
 -15   9 -39   -0.16    4.97
  39  15  -9    1.47    4.35
 -15  -9 -39    0.16    5.26
   9  15 -39    5.16    3.55
  -9 -15 -39    6.83    4.91
 -15  11 -39    0.81    5.16
  39  15  11    2.59    3.19
  39  15 -11    0.73    4.71
 -15 -11 -39    0.16    5.24
 -11 -15 -39    2.08    4.88
 -15  13 -39   14.88    5.41
  39  15  13   18.32    3.09
  39  15 -13   13.56    4.58
  13  15 -39   17.62    3.02
 -15 -13 -39   20.03    5.31
 -13 -15 -39   17.03    5.35
  15  39 -13   15.60    2.89
 -15  15 -39   -7.47    5.30
  39  15  15    0.65    2.58
 -15 -15 -39   -3.14    5.16
  39  17   1   41.15    4.86
 -17   1 -39   39.21    5.49
   1 -17 -39   28.71    4.13
  -1 -17 -39   34.01    4.38
  39  17  -1   42.12    4.98
   1  17 -39   38.44    4.98
  -1  17 -39   36.00    5.02
  39  17   3   11.91    4.27
 -17   3 -39   14.41    5.32
   3 -17 -39   22.58    3.57
  39  17  -3   23.72    4.79
   3  17 -39   12.91    4.58
  -3 -17 -39   16.84    4.05
  -3  17 -39   22.67    5.32
  39  17   5   -0.13    3.78
 -17   5 -39    1.63    5.24
   5 -17 -39    2.03    2.82
  39  17  -5    4.28    4.46
   5  17 -39    6.10    4.16
  -5 -17 -39   -0.75    4.22
  -5  17 -39    5.55    5.04
  -7  17 -39   42.16    5.58
  39  17   7   36.92    4.38
 -17   7 -39   48.30    5.52
  39  17  -7   45.96    5.28
   7  17 -39   41.80    4.32
  -7 -17 -39   41.03    4.83
  -9  17 -39   44.03    5.82
 -17   9 -39   44.97    5.71
  39  17   9   35.27    4.10
  39  17  -9   46.23    5.02
   9  17 -39   34.91    4.12
  -9 -17 -39   39.30    5.39
 -17  11 -39   -0.79    4.86
  17  39 -11    3.24    3.23
  11  17 -39   -1.30    3.24
  39  17  11    3.71    3.26
  39  17 -11    0.58    4.44
 -11 -17 -39   -0.31    4.94
 -17  13 -39    8.96    5.14
  39  17  13    9.51    3.18
  39  17 -13   17.29    4.84
  13  17 -39    7.53    2.89
  17  39 -13    8.63    2.95
 -13 -17 -39    8.06    5.12
 -15  17 -39    5.63    5.01
 -17  15 -39    9.43    4.84
  39  17  15    6.63    2.87
  17  39 -15    1.51    2.58
 -15 -17 -39   14.63    5.25
  39  17  17   -0.75    2.53
 -17  17 -39   -2.04    4.67
  39  19   1    2.41    4.19
 -19   1 -39   -0.64    5.04
 -19  -1 -39    1.92    5.08
   1 -19 -39   -3.21    3.58
   1  19 -39    4.49    4.62
  -1 -19 -39    2.78    3.71
  -1  19 -39    0.95    4.61
  39  19  -1    9.10    4.42
  39  19   3    5.01    4.00
 -19   3 -39    5.56    4.93
 -19  -3 -39   -0.16    4.96
   3 -19 -39    2.04    3.09
   3  19 -39    8.25    4.52
  39  19  -3    3.65    4.58
  -3  19 -39    3.05    5.06
  -3 -19 -39    1.95    3.91
  39  19   5    5.95    4.22
 -19   5 -39   14.96    5.19
 -19  -5 -39   16.14    5.31
   5 -19 -39    9.65    2.81
  39  19  -5   13.63    4.69
   5  19 -39    5.34    4.02
  -5  19 -39   12.59    5.28
  -5 -19 -39   10.99    4.43
 -19   7 -39   10.30    4.92
  39  19   7    3.26    3.91
  39  19  -7    6.86    4.69
 -19  -7 -39   13.37    4.94
   7  19 -39   10.26    4.08
  -7  19 -39    9.65    5.27
  -7 -19 -39    8.01    4.31
 -19   9 -39   13.57    5.12
  39  19   9   17.89    3.75
  19  39  -9   10.18    3.71
  39  19  -9   11.39    4.60
   9  19 -39   16.64    3.85
 -19  -9 -39   11.64    5.11
  -9 -19 -39   11.73    4.83
  19  39 -11    3.95    3.35
 -19  11 -39    4.68    4.36
  39  19  11    3.74    3.36
  39  19 -11    2.82    4.63
  11  19 -39    5.49    3.35
 -11 -19 -39    1.96    4.74
 -19  13 -39   27.04    4.95
  39  19  13   32.53    3.56
  39  19 -13   26.35    4.82
  19  39 -13   23.94    3.27
 -13  19 -39   29.94    5.24
 -13 -19 -39   29.78    5.26
 -19  15 -39   -2.55    4.28
  39  19 -15    2.42    4.63
  39  19  15   -0.39    2.93
  19  39 -15    1.90    2.61
 -15  19 -39    2.65    4.66
 -15 -19 -39   -3.81    5.07
  39  19  17    5.96    2.58
  19  39 -17    6.01    2.29
 -17 -19 -39   10.76    4.89
 -17  19 -39   11.48    4.70
 -19  17 -39   14.27    4.68
 -19  19 -39   -2.88    4.08
  39  21   1    2.95    4.19
 -21   1 -39   10.42    4.76
 -21  -1 -39   10.63    5.09
   1  21 -39    4.41    4.66
  -1  21 -39    1.86    4.88
   1 -21 -39    3.28    3.31
  -1 -21 -39    6.68    3.66
  39  21  -1    4.41    4.49
  39  21   3    0.83    3.91
 -21   3 -39    0.61    4.89
 -21  -3 -39    6.91    4.93
   3 -21 -39   -4.24    2.94
   3  21 -39    0.74    4.47
  -3  21 -39   -3.45    5.04
  39  21  -3    4.02    4.18
  -3 -21 -39   -0.27    3.75
  39  21   5   -0.13    3.96
 -21   5 -39   -2.26    4.76
 -21  -5 -39   -1.99    4.71
   5  21 -39   -5.95    4.11
  39  21  -5   -5.75    4.42
  -5  21 -39    2.05    5.12
  -5 -21 -39    8.04    3.94
  39  21  -7  107.89    6.61
 -21  -7 -39  105.25    6.92
  39  21   7   98.23    5.86
  -7 -21 -39   99.34    6.25
   7  21 -39   99.07    6.00
  -7  21 -39  122.85    7.26
 -21   7 -39  117.87    6.69
 -21   9 -39    1.61    4.44
  21  39  -9   -0.84    3.65
  39  21   9    1.60    3.66
  39  21  -9    2.10    4.69
   9  21 -39    2.38    3.60
 -21  -9 -39   -1.20    4.87
  -9 -21 -39    0.14    4.47
  21  39 -11    2.68    3.28
 -21  11 -39   -1.14    4.46
  39  21  11    6.61    3.48
  39  21 -11    2.46    4.61
 -21 -11 -39    2.36    4.80
 -11 -21 -39    5.19    4.90
  39  21 -13  104.29    6.22
  21  39 -13   83.57    4.86
 -21 -13 -39   98.32    6.56
  39  21  13   82.72    4.98
 -13 -21 -39   96.23    6.35
 -21  13 -39  108.91    6.20
 -13  21 -39  101.85    6.52
 -21  15 -39    3.05    4.11
  39  21  15    9.60    2.99
  21  39 -15    6.02    2.77
 -21 -15 -39   10.40    4.67
 -15  21 -39    4.52    4.81
 -15 -21 -39   11.28    4.73
  39  21  17   40.28    3.37
  21  39 -17   41.81    3.14
 -21 -17 -39   51.44    4.91
 -17  21 -39   58.21    5.39
 -17 -21 -39   54.76    5.17
 -21  17 -39   58.58    4.88
  39  21  19   -1.68    2.03
 -19  21 -39   -0.86    4.09
 -21  19 -39   -3.72    3.83
 -21  21 -39   -1.55    3.73
  39  23   1   16.69    4.57
 -23   1 -39   18.04    4.59
 -23  -1 -39   16.56    4.70
   1  23 -39   21.85    4.86
  -1  23 -39   14.77    4.95
   1 -23 -39   17.31    3.32
  -1 -23 -39   20.94    3.58
  39  23  -1   10.80    4.36
  39  23   3    8.07    4.31
 -23   3 -39    3.00    4.52
 -23  -3 -39   -4.21    4.53
   3  23 -39    2.01    4.47
   3 -23 -39    5.43    2.76
  -3  23 -39    3.50    4.78
  39  23  -3    6.68    4.61
  -3 -23 -39    2.64    3.71
  39  23   5   45.73    4.81
 -23   5 -39   35.33    5.03
 -23  -5 -39   40.24    5.22
   5  23 -39   41.10    4.56
  39  23  -5   35.83    4.96
  -5  23 -39   43.56    5.33
  -5 -23 -39   42.91    4.57
 -23   7 -39   28.63    4.75
  39  23   7   23.60    4.14
  23  39  -7   31.34    4.29
 -23  -7 -39   18.02    4.96
   7  23 -39   18.82    4.14
  39  23  -7   21.78    4.75
  -7  23 -39   22.53    5.33
  -7 -23 -39   26.31    4.13
  -9 -23 -39    5.71    4.28
 -23   9 -39    5.42    4.23
  23  39  -9    6.67    3.71
  39  23   9    0.84    3.80
  39  23  -9    3.36    4.45
 -23  -9 -39   10.74    4.69
 -11 -23 -39    5.43    4.42
 -23  11 -39    4.47    4.18
  39  23  11    0.34    3.62
  39  23 -11   -2.73    4.48
 -23 -11 -39    9.83    4.53
  23  39 -11    3.15    3.43
 -23  13 -39    8.31    4.13
  39  23  13   11.70    3.28
 -23 -13 -39    8.19    4.55
  23  39 -13    5.05    3.04
 -13  23 -39    6.00    4.84
 -13 -23 -39    8.04    4.57
  39  23  15    9.53    3.03
  23  39 -15    4.79    2.80
 -23 -15 -39    5.93    4.34
 -15  23 -39    9.16    4.58
 -15 -23 -39    4.43    4.01
 -23  15 -39    6.90    3.89
  23  39 -17   22.49    2.61
  39  23  17   26.82    2.95
 -23 -17 -39   30.54    4.52
 -17  23 -39   32.68    4.66
 -23  17 -39   37.10    4.16
 -17 -23 -39   29.95    4.52
  39  23  19    2.23    2.22
 -19  23 -39   -3.64    3.85
 -23 -19 -39   -0.92    3.97
 -23  19 -39   -0.21    3.54
 -21  23 -39    6.38    3.38
 -23  21 -39    9.84    3.34
 -23 -21 -39    6.62    3.83
 -23  23 -39   -2.35    2.87
 -23 -23 -39    0.39    3.43
  39  25   1   24.80    4.52
 -25   1 -39   32.18    4.60
 -25  -1 -39   26.24    4.28
   1  25 -39   30.49    4.64
  -1  25 -39   31.47    4.91
   1 -25 -39   24.73    3.15
  -1 -25 -39   20.80    3.52
  39  25  -1   26.90    4.71
  39  25   3    5.03    3.98
 -25   3 -39    8.43    4.29
 -25  -3 -39    7.93    4.17
   3  25 -39    1.52    4.16
  -3  25 -39   -4.66    4.87
   3 -25 -39    9.81    2.50
  39  25  -3    6.38    4.54
  -3 -25 -39    3.13    3.53
 -25   5 -39   -0.52    4.22
  39  25   5   -3.02    4.21
 -25  -5 -39    4.27    4.25
   5  25 -39    7.14    4.08
  -5  25 -39    0.29    4.98
  39  25  -5   11.35    4.54
  -5 -25 -39   -4.49    3.74
 -25  -7 -39   83.26    5.62
  39  25  -7   80.11    5.80
  25  39  -7   65.70    4.98
  39  25   7   71.42    5.19
  -7 -25 -39   80.50    5.13
  -7  25 -39   67.32    6.04
 -25   7 -39   90.42    5.31
  -9 -25 -39   -1.89    4.02
  25  39  -9    3.46    3.61
 -25   9 -39   -0.37    3.91
  39  25   9    7.60    3.63
  39  25  -9    0.89    4.44
 -25  -9 -39    0.13    4.33
 -11 -25 -39    5.66    4.23
 -25  11 -39    4.60    3.79
  39  25  11    4.22    3.61
 -25 -11 -39   10.51    4.37
  25  39 -11   10.56    3.43
  25  39 -13   77.02    4.39
 -25 -13 -39   81.49    5.44
  39  25  13   73.59    4.58
 -13 -25 -39   72.76    5.43
 -25  13 -39   81.11    5.03
  39  25  15    6.09    3.00
  25  39 -15   -0.16    2.67
 -25 -15 -39   -2.82    3.93
 -15  25 -39    1.11    4.21
 -25  15 -39    5.14    3.50
 -15 -25 -39    1.44    3.95
  25  39 -17   12.39    2.42
  39  25  17   10.40    2.67
 -25 -17 -39   12.53    3.88
 -17  25 -39   18.62    4.14
 -25  17 -39   12.18    3.39
 -17 -25 -39   11.87    4.14
  39  25  19    5.05    2.03
 -19  25 -39    3.61    3.43
 -25 -19 -39    3.30    3.56
 -25  19 -39    1.55    2.99
 -21  25 -39   19.35    3.23
 -25 -21 -39   19.48    3.51
 -25  21 -39   25.35    3.01
 -23  25 -39   35.84    3.02
 -25  23 -39   30.84    2.83
 -25 -23 -39   36.62    3.51
 -23 -25 -39   37.09    3.59
 -25 -25 -39   -3.10    2.57
  39  27   1   27.77    4.42
 -27   1 -39   33.56    4.27
 -27  -1 -39   23.22    4.08
   1  27 -39   24.29    4.80
  -1  27 -39   34.61    4.90
   1 -27 -39   24.57    3.01
  -1 -27 -39   29.54    3.31
  39  27  -1   31.75    4.59
  39  27   3    1.34    3.99
 -27   3 -39    4.13    3.78
 -27  -3 -39   14.10    3.85
   3  27 -39   14.25    4.21
  -3  27 -39    4.96    4.56
  39  27  -3    6.35    4.43
  -3 -27 -39    8.56    3.27
 -27   5 -39   45.47    4.25
  39  27   5   37.97    4.52
  27  39  -5   34.58    4.41
 -27  -5 -39   40.61    4.40
  -5  27 -39   46.28    5.21
  39  27  -5   47.58    4.90
  -5 -27 -39   39.67    4.02
  27  39  -7   10.00    3.69
 -27   7 -39    6.74    3.61
  39  27   7   15.60    3.94
 -27  -7 -39   11.63    4.02
  39  27  -7   16.53    4.37
  -7  27 -39    4.06    4.71
  -7 -27 -39    5.55    3.67
 -27   9 -39   16.48    3.49
  39  27   9   12.44    3.77
 -27  -9 -39   18.43    4.00
  27  39  -9   12.33    3.53
  -9 -27 -39   14.79    3.82
 -27  11 -39    0.51    3.08
  39  27  11    4.45    3.34
 -27 -11 -39    0.34    3.71
 -11  27 -39    2.03    4.14
  27  39 -11    4.25    3.09
 -11 -27 -39   -2.51    3.91
  39  27  13    6.21    3.16
  27  39 -13    6.15    2.94
 -27 -13 -39    9.86    3.60
 -13  27 -39   10.26    4.25
 -27  13 -39    8.46    3.13
 -13 -27 -39   11.99    3.87
  39  27  15   19.86    3.05
  27  39 -15   13.12    2.68
 -27 -15 -39   28.66    3.86
 -27  15 -39   24.66    3.19
 -15 -27 -39   19.22    4.10
 -15  27 -39   21.00    4.12
  39  27  17   19.57    2.68
 -27 -17 -39   23.30    3.47
 -17  27 -39   20.53    3.80
 -27  17 -39   20.25    2.99
 -17 -27 -39   18.99    3.60
  39  27  19    6.81    1.84
 -27 -19 -39    3.65    3.06
 -19  27 -39    6.95    3.12
 -27  19 -39    9.26    2.49
 -19 -27 -39    3.12    3.13
 -21  27 -39    0.31    2.64
 -27 -21 -39    4.26    2.76
 -27  21 -39    4.87    1.96
 -23 -27 -39    5.04    2.59
 -27 -23 -39    1.97    2.47
 -27 -25 -39    9.95    2.04
 -25 -27 -39   12.04    2.09
 -27 -39 -27    0.09    1.33
 -27 -27 -39    0.59    1.48
  -1  29 -39    0.88    4.25
 -29   1 -39    5.90    3.33
 -29  -1 -39    4.49    3.20
   1 -29 -39    1.43    2.23
  -1 -29 -39   -0.74    2.50
  39  29  -1   -4.47    3.99
  39  29   1   -2.27    3.86
  39  29   3    1.56    3.85
 -29   3 -39   -4.27    3.24
  29  39  -3    2.00    3.70
 -29  -3 -39    0.52    3.21
  -3  29 -39    1.15    4.44
  39  29  -3   -1.03    3.96
  -3 -29 -39    2.63    2.88
  29  39  -5   18.09    3.89
 -29   5 -39   24.11    3.46
  39  29   5   15.99    3.93
 -29  -5 -39   19.67    3.64
  -5  29 -39   22.83    4.70
  39  29  -5   26.91    4.29
  -5 -29 -39   23.08    3.32
  39  29   7   58.38    4.44
 -29  -7 -39   60.74    4.29
 -29   7 -39   62.15    4.06
  29  39  -7   61.69    4.47
  -7 -29 -39   58.26    4.11
 -29   9 -39    2.16    2.90
  39  29   9    2.28    3.38
 -29  -9 -39    0.90    3.17
  29  39  -9   -6.58    3.23
  -9 -29 -39    3.15    3.26
  39  29  11    2.40    3.10
 -29 -11 -39   -3.00    3.19
  29  39 -11    4.45    2.97
 -11  29 -39   -0.46    4.05
 -29  11 -39    6.20    2.80
 -11 -29 -39   -3.34    3.56
  29  39 -13   48.42    3.49
  39  29  13   54.13    3.72
  39  29 -13   53.02    4.07
 -29 -13 -39   54.96    3.99
 -29  13 -39   52.00    3.44
 -13  29 -39   49.66    4.55
 -13 -29 -39   48.89    4.14
 -15  29 -39   11.62    3.49
  39  29  15    5.92    2.52
  29  39 -15    6.11    2.39
 -29 -15 -39    5.72    2.95
 -15 -29 -39    5.96    3.35
  39  29  17    8.24    2.11
 -29 -17 -39   10.32    2.81
 -29  17 -39   10.26    2.01
 -17 -29 -39    7.00    3.24
  39  29  19    0.80    1.60
 -29 -19 -39    3.90    2.53
 -29  19 -39   -1.44    1.50
 -19 -29 -39    4.13    2.83
 -29 -21 -39   -0.06    2.15
 -23 -39 -29    8.04    1.99
 -29 -23 -39    5.06    1.76
 -23 -29 -39    4.00    2.16
 -25 -39 -29    5.30    1.58
 -29 -25 -39    6.03    1.33
 -25 -29 -39    7.04    1.51
 -31   1 -39    5.24    2.79
 -31  -1 -39   -1.98    2.73
  31  39  -1    3.99    3.55
  31  39   1   -1.56    3.75
  -1 -31 -39   -1.25    1.91
  39  31  -1    0.62    3.80
  39  31   1    0.71    3.67
  39  31   3    3.71    3.48
  31  39  -3    4.67    3.56
 -31   3 -39    2.80    2.76
 -31  -3 -39   -2.07    2.78
  39  31  -3   -6.22    3.77
  -3 -31 -39    0.98    2.34
 -31   5 -39   17.98    2.70
  39  31   5   12.77    3.46
 -31  -5 -39   16.50    3.00
  -5 -31 -39   13.82    2.85
  31  39  -5   20.11    3.52
 -31   7 -39    6.77    2.40
  39  31   7   10.57    3.30
 -31  -7 -39    3.28    2.88
  31  39  -7    3.81    3.19
  -7 -31 -39    7.82    2.89
  39  31   9    1.50    3.00
 -31  -9 -39    8.90    2.77
  31  39  -9    3.20    2.87
 -31   9 -39    1.66    2.22
  -9 -31 -39   -0.61    2.82
  39  31  11   -2.93    2.82
  39  31 -11    1.74    3.06
 -31 -11 -39   -0.63    2.60
  31  39 -11   -0.53    2.60
 -31  11 -39    1.57    2.08
 -11 -31 -39    3.11    2.86
  39  31  13    7.16    2.60
  31  39 -13   16.04    2.51
 -31  13 -39    7.58    1.82
 -13 -31 -39   16.29    3.02
  39  31  15    4.17    2.23
 -31 -15 -39    0.95    2.30
 -31  15 -39    3.40    1.38
 -15 -31 -39    3.99    2.80
  39  31  17   -1.32    1.75
 -31 -17 -39    2.57    2.05
 -17 -31 -39   -2.29    2.74
 -31 -19 -39   -0.58    1.73
 -19 -31 -39    2.85    2.23
 -31 -21 -39   -0.21    1.34
 -23 -39 -31   -0.67    1.49
  33  39  -1   12.67    3.25
  -1 -39 -33    6.80    1.61
 -33   1 -39    5.56    1.99
 -33  -1 -39    8.66    2.20
  33  39   1   12.95    3.41
  39  33  -1    9.28    3.18
  39  33   1    6.48    3.22
 -33   3 -39   -0.23    1.96
  -3 -39 -33    1.67    2.03
 -33  -3 -39    0.58    2.09
  33  39   3    5.41    3.27
  -3 -33 -39    6.45    1.79
  33  39  -3    7.34    3.16
  39  33   3    3.15    3.10
 -33  -5 -39   14.45    2.13
  33  39  -5   15.14    3.11
  -5 -33 -39   14.25    2.26
 -33   5 -39   12.81    1.93
  39  33   5   18.19    3.17
  39  33   7   10.32    3.01
 -33  -7 -39    8.08    2.06
  33  39  -7   14.04    2.85
  -7 -33 -39    8.15    2.32
 -33   7 -39    6.01    1.63
  39  33   9    4.97    2.73
 -33  -9 -39    9.24    2.09
  33  39  -9   11.95    2.65
  39  33  11    0.62    2.47
  39  33 -11    0.51    2.61
 -33 -11 -39    3.30    1.78
  33  39 -11   -1.66    2.21
 -11 -33 -39    4.46    2.38
  39  33  13    0.66    2.06
 -33 -13 -39    0.92    1.64
 -13 -33 -39    1.48    2.28
 -15 -39 -33    2.80    2.16
 -33 -15 -39   -1.51    1.48
 -15 -33 -39    3.87    2.14
  39  33  15   -1.05    1.69
 -17 -39 -33    0.06    2.03
 -17 -33 -39    1.61    1.81
 -19 -39 -33    6.00    1.69
  33  39  19    4.03    1.51
 -19 -33 -39    3.07    1.63
  39  35   1   -0.22    2.64
  35  39  -1   -0.81    2.57
  35  39   1    2.39    2.67
  35  39  -3    2.00    2.61
  39  35   3    4.21    2.69
  35  39  -5    1.49    2.48
  -5 -35 -39   -1.27    1.33
  39  35   5   -0.49    2.52
  -5 -39 -35   -0.14    1.45
  39  35  -7    2.53    2.33
  35  39  -7    2.39    2.32
  -7 -35 -39    3.21    1.57
  39  35   7    2.78    2.41
  -7 -39 -35   -0.05    1.58
  35  39   9    2.91    2.40
  39  35  -9   -2.49    2.35
  35  39  -9    1.37    1.93
  -9 -35 -39    0.10    1.65
  39  35   9    0.61    2.12
  -9 -39 -35    1.96    1.74
  35  39  11   -0.61    2.16
 -11 -35 -39    1.01    1.63
  39  35  11   -1.19    1.85
 -11 -39 -35    1.69    1.72
  35  39  13    2.04    1.76
 -13 -35 -39    0.73    1.56
  39  35  13   -0.82    1.55
 -13 -39 -35    2.52    1.64
  35  39  15    0.09    1.55
 -15 -35 -39    0.71    1.49
 -15 -39 -35    0.32    1.41
  37  39  -1   21.41    2.37
  37  39  -3    7.70    1.87
  39  37   3    5.71    2.06
  39  37  -5    9.72    2.01
  37  39  -5    9.09    1.85
  39  37   5    9.59    2.05
  37  39  -7    2.26    1.57
  39  37   7    2.74    1.81
  37  39   7    1.14    1.72
  39  37   9    9.60    1.63
  37  39   9    9.83    1.74
  37  39  11    1.62    1.31
  39  39  -1    1.30    1.14
   0   0 -40   63.16    5.22
   0   2 -40   16.29    4.21
   2   0 -40   13.89    4.08
  -2   0 -40   26.15    4.65
   0  -2 -40   19.30    4.08
   2   2 -40   -2.29    3.94
  -2   2 -40    1.24    4.26
   2  -2 -40    1.40    3.90
  -2  -2 -40    3.98    4.06
  40   4   0    6.23    3.03
   0   4 -40    7.85    4.31
   4   0 -40   -1.48    3.68
  -4   0 -40    4.44    4.79
   0  -4 -40    1.31    3.88
   2   4 -40    5.67    3.81
   4   2 -40    9.13    3.80
  40   4   2   11.46    2.90
  -2   4 -40    7.32    4.36
   4  -2 -40    8.72    3.70
  -4   2 -40    9.54    4.61
   2  -4 -40   14.31    4.03
  -4  -2 -40   10.71    4.62
  -2  -4 -40   11.35    4.12
   4   4 -40    4.44    3.60
  -4   4 -40   12.62    4.54
   4  -4 -40    7.16    3.51
  -4  -4 -40    3.59    4.47
   0   6 -40    3.35    4.09
   6   0 -40    1.38    3.24
  40   6   0    1.85    3.20
  -6   0 -40    3.08    4.79
   0  -6 -40    2.73    3.97
   2   6 -40    7.94    3.99
   6   2 -40    2.17    3.36
  -2   6 -40   -1.41    4.54
   6  -2 -40    2.33    3.22
  40   6  -2    0.72    3.12
  40   6   2    3.40    2.89
  -6   2 -40   -0.65    4.81
   2  -6 -40   -3.15    3.86
  -6  -2 -40   -0.64    4.83
  -2  -6 -40    1.95    4.11
   6   4 -40    0.26    3.27
   4   6 -40    3.92    3.78
  -4   6 -40    6.91    4.58
  40   6  -4    3.77    3.56
   6  -4 -40    5.28    3.20
  -6   4 -40   -2.93    4.69
  40   6   4    4.63    2.78
   4  -6 -40    5.26    3.37
  -6  -4 -40    6.73    4.70
  -4  -6 -40    7.16    4.39
   6   6 -40   24.62    3.94
  -6   6 -40   22.06    4.97
   6  -6 -40   16.09    3.36
  -6  -6 -40   20.78    4.62
   0   8 -40    3.07    4.11
   8   0 -40    2.06    2.99
  40   8   0    5.61    3.22
  -8   0 -40   -1.48    4.98
   0  -8 -40    4.56    3.81
   8   2 -40    6.33    3.18
   2   8 -40   -1.78    3.99
  -2   8 -40    3.17    4.61
   8  -2 -40    0.56    2.88
  -8   2 -40   -0.17    4.71
  40   8  -2    6.18    3.56
  40   8   2    1.87    3.20
  -8  -2 -40    1.97    5.06
   2  -8 -40   11.43    3.82
  -2  -8 -40    1.49    3.82
   8   4 -40   -1.55    3.13
   4   8 -40    9.61    3.91
  -4   8 -40    6.47    4.82
   8  -4 -40    5.85    2.80
  -8   4 -40    7.43    4.71
  40   8  -4    4.16    3.69
   4  -8 -40    0.50    3.37
  40   8   4   -2.11    3.03
  -8  -4 -40   -5.23    5.10
  -4  -8 -40    4.17    4.49
   8   6 -40    7.78    3.24
   6   8 -40    5.19    3.73
  -6   8 -40    7.22    4.92
  -8   6 -40    2.64    4.74
  40   8  -6    1.47    3.60
   6  -8 -40    4.47    2.95
  40   8   6    6.44    2.84
  -8  -6 -40    3.10    4.77
  -6  -8 -40    5.87    4.61
  40   8  -8    2.86    4.08
  -8   8 -40    0.33    4.72
  -8  -8 -40    5.82    5.04
   8   8 -40    8.09    3.38
   0  10 -40    8.65    4.55
 -10   0 -40    0.50    4.77
  40  10   0    0.51    3.56
   0 -10 -40   -1.97    3.82
   2  10 -40    1.93    4.14
  -2  10 -40   -1.90    4.65
 -10   2 -40    0.83    5.04
  40  10  -2   -1.58    3.66
 -10  -2 -40   -0.99    4.91
   2 -10 -40    2.38    3.55
  40  10   2    4.81    3.50
  -2 -10 -40    2.51    3.87
  10   4 -40    3.53    2.78
   4  10 -40    1.42    3.83
  -4  10 -40    3.88    4.90
 -10   4 -40    5.82    4.97
  40  10  -4    6.45    3.90
   4 -10 -40    4.04    3.24
 -10  -4 -40    1.82    4.73
  40  10   4    3.30    3.27
  -4 -10 -40    3.05    4.39
  -6  10 -40    9.19    4.89
 -10   6 -40    6.97    4.98
  40  10   6    1.00    3.06
  40  10  -6    8.48    4.06
   6 -10 -40    6.12    2.93
 -10  -6 -40    5.11    5.12
  -6 -10 -40    2.19    4.55
  10   6 -40    7.73    2.96
   6  10 -40    2.17    3.64
  -8  10 -40    4.63    5.23
 -10   8 -40    4.81    5.26
  40  10  -8    7.49    4.25
  40  10   8    4.26    2.80
 -10  -8 -40    8.01    5.09
  -8 -10 -40    8.30    4.75
  10   8 -40    2.72    2.90
   8  10 -40   -0.51    3.41
 -10  10 -40    1.33    5.11
  40  10 -10   -0.98    4.19
 -10 -10 -40    0.16    5.02
  10  10 -40    1.62    3.03
   0  12 -40   30.20    4.78
 -12   0 -40   42.67    5.44
  40  12   0   34.45    4.10
   0 -12 -40   28.06    4.24
   2  12 -40    5.97    4.09
  -2  12 -40   12.83    4.83
 -12   2 -40    2.17    5.23
 -12  -2 -40    8.13    5.29
  40  12  -2   -3.94    3.87
   2 -12 -40    4.28    3.37
  40  12   2    2.44    3.65
  -2 -12 -40    1.74    4.16
  -4  12 -40    2.58    4.73
 -12   4 -40    4.15    5.40
  40  12  -4   -2.34    4.09
   4 -12 -40   -0.24    3.14
 -12  -4 -40   -1.82    4.90
  -4 -12 -40    5.70    4.08
  40  12   4    1.73    3.48
   4  12 -40   -0.43    3.94
  -6  12 -40    1.31    4.99
 -12   6 -40    4.47    5.05
  40  12  -6   -0.28    4.04
   6 -12 -40   -0.96    2.85
 -12  -6 -40    2.98    5.35
  -6 -12 -40    4.94    4.68
  40  12   6   -0.70    3.24
   6  12 -40    7.79    3.75
  -8  12 -40    6.08    4.89
  40  12  -8   11.94    4.33
 -12  -8 -40    0.16    5.11
  -8 -12 -40   10.22    4.93
  40  12   8    7.83    3.11
   8  12 -40    8.47    3.53
 -10  12 -40    5.25    5.47
  40  12 -10    4.38    4.46
  12  40 -10   -0.69    2.71
 -10 -12 -40    8.59    4.85
 -12 -10 -40   12.13    5.19
  10  12 -40    4.20    3.15
  40  12  10    4.27    2.86
  12  12 -40   -2.67    2.82
 -12 -12 -40    0.16    5.08
   0  14 -40    1.86    4.54
   0 -14 -40    3.50    3.77
  40  14   0    2.44    3.97
  -2  14 -40    4.42    4.83
  40  14  -2   -2.77    3.90
   2 -14 -40    1.14    3.20
  -2 -14 -40    5.80    4.02
  40  14   2   -0.66    3.60
   2  14 -40    1.35    4.35
  -4  14 -40   18.41    4.97
  40  14  -4   20.19    4.39
 -14  -4 -40   17.64    5.46
   4 -14 -40   20.62    3.38
  -4 -14 -40   24.88    4.25
  40  14   4   20.89    4.05
   4  14 -40   22.55    4.08
  -6  14 -40   12.44    4.89
  40  14  -6    3.81    4.39
   6 -14 -40    3.16    2.73
 -14  -6 -40    4.93    5.40
  -6 -14 -40    5.76    4.57
   6  14 -40    7.86    3.89
  40  14   6    8.40    3.20
  -8  14 -40    5.03    5.14
  40  14  -8    8.33    4.36
 -14  -8 -40    8.80    5.18
  -8 -14 -40    8.03    4.80
   8  14 -40    2.69    3.39
  40  14   8    4.71    3.25
 -10  14 -40    7.42    5.09
  14  40 -10    1.25    2.86
  40  14 -10    8.61    4.33
 -14 -10 -40    4.50    5.19
  10  14 -40    3.53    3.23
 -10 -14 -40    8.58    4.87
  40  14  10    4.38    3.06
  14  40 -12    5.65    2.64
  40  14 -12    9.98    4.48
  12  14 -40    1.46    2.89
 -14 -12 -40   14.51    5.14
 -12 -14 -40    4.52    4.90
  40  14  12    9.24    2.82
 -14 -14 -40    1.70    5.12
   0 -16 -40    5.99    3.81
  40  16   0    4.53    4.10
   0  16 -40    3.08    4.66
   2 -16 -40   -0.24    3.34
  40  16  -2    0.98    4.23
  -2 -16 -40    0.96    3.69
  40  16   2   -0.67    4.03
   2  16 -40    2.10    4.08
  -2  16 -40    2.36    4.78
   4 -16 -40    9.81    3.02
  40  16  -4    6.22    3.99
  -4 -16 -40    6.31    4.30
   4  16 -40   11.43    4.40
  40  16   4    8.56    3.71
  -4  16 -40    7.50    5.06
  -6  16 -40    6.40    4.88
  40  16   6   -2.74    3.54
 -16   6 -40    1.44    5.35
  40  16  -6    8.37    4.15
   6  16 -40    5.75    3.48
  -6 -16 -40    7.25    4.25
  -8  16 -40    0.80    5.12
  40  16   8   -3.18    3.37
 -16   8 -40   10.19    5.18
  40  16  -8   -1.13    4.42
   8  16 -40    1.93    3.75
  -8 -16 -40    1.06    4.33
  40  16  10    4.97    3.21
 -16  10 -40    6.29    5.27
  16  40 -10    2.90    3.00
  40  16 -10    5.46    4.39
  10  16 -40    1.17    3.16
 -10 -16 -40    5.02    4.88
  40  16  12    4.55    2.94
 -16  12 -40    0.92    4.76
  40  16 -12    3.32    4.44
  12  16 -40    3.85    2.87
 -16 -12 -40    8.04    5.30
 -12 -16 -40    3.19    4.65
  16  40 -12    2.22    2.78
 -14  16 -40    0.60    5.09
  40  16  14    4.96    2.63
 -16  14 -40    1.94    4.96
 -16 -14 -40   -6.63    4.96
 -14 -16 -40    4.04    4.70
 -16  16 -40    1.74    4.83
 -16 -16 -40    0.29    4.90
 -18   0 -40   -1.11    5.30
   0 -18 -40    5.87    3.69
  40  18   0    0.69    4.18
   0  18 -40    3.52    4.51
 -18   2 -40    8.37    4.98
 -18  -2 -40   13.97    5.30
   2 -18 -40    0.69    3.27
  40  18  -2   13.55    4.43
  -2 -18 -40   10.21    3.63
   2  18 -40   13.36    4.28
  -2  18 -40   13.71    4.93
  40  18   2   11.16    4.17
  40  18   4   18.52    3.90
 -18   4 -40   25.56    5.47
   4 -18 -40   18.70    3.08
  40  18  -4   19.69    4.52
   4  18 -40   16.98    4.46
  -4 -18 -40   16.21    4.28
  -4  18 -40   13.21    4.99
  40  18   6    7.27    3.57
 -18   6 -40   13.38    5.14
   6  18 -40   12.36    4.13
  -6 -18 -40    2.72    4.10
  -6  18 -40    4.57    4.80
  40  18   8    6.32    3.59
 -18   8 -40    2.92    5.11
  40  18  -8    6.27    4.64
   8  18 -40    4.32    3.52
  -8 -18 -40    2.62    4.17
  -8  18 -40    3.77    5.07
  40  18  10   -0.90    3.30
 -18  10 -40   -3.47    4.68
  18  40 -10    1.85    3.20
  40  18 -10    7.56    4.40
  10  18 -40    3.14    3.23
 -10 -18 -40   -0.29    4.63
 -18  12 -40    6.05    4.84
  40  18  12    6.40    3.12
  40  18 -12    6.48    4.41
  12  18 -40    5.71    2.84
 -12 -18 -40   12.00    4.74
  18  40 -12    6.89    2.95
 -18  14 -40    1.99    4.68
  40  18  14   -0.74    2.67
  18  40 -14   -0.52    2.62
 -14 -18 -40   -2.45    4.62
 -14  18 -40    2.49    5.01
 -16 -18 -40    8.94    4.98
 -16  18 -40    2.52    4.63
 -18  16 -40    7.59    4.54
 -18  18 -40   57.91    5.23
 -20   0 -40   96.92    6.40
  40  20   0   86.27    5.72
   0 -20 -40   91.50    5.08
   0  20 -40   87.73    6.18
 -20   2 -40    8.63    4.57
 -20  -2 -40    8.85    5.05
   2 -20 -40    3.03    3.06
  40  20  -2    3.99    4.55
   2  20 -40    9.17    4.53
  -2 -20 -40    3.53    3.68
  -2  20 -40    4.12    4.85
  40  20   2    5.33    4.03
  40  20   4    8.28    4.15
 -20   4 -40   -3.00    4.90
 -20  -4 -40   -4.55    4.93
   4 -20 -40   -0.19    2.69
  40  20  -4    2.63    4.35
   4  20 -40    1.12    4.20
  -4 -20 -40    2.91    3.73
  -4  20 -40    0.15    4.78
  40  20   6   21.44    4.01
 -20   6 -40   28.40    5.27
 -20  -6 -40   26.38    5.31
  40  20  -6   24.24    4.97
   6  20 -40   26.50    4.24
  -6  20 -40   29.48    5.46
  -6 -20 -40   26.92    4.53
  40  20   8   -1.31    3.49
 -20   8 -40    6.15    4.75
  20  40  -8    4.54    3.42
  40  20  -8    3.68    4.62
 -20  -8 -40    0.30    4.71
   8  20 -40    3.24    3.67
  -8  20 -40    0.77    5.09
  -8 -20 -40    2.79    4.26
  20  40 -10   14.71    3.49
 -20  10 -40   26.46    4.98
  40  20  10   28.30    3.79
  40  20 -10   26.12    4.92
  10  20 -40   21.32    3.50
 -20 -10 -40   31.56    5.18
 -10 -20 -40   25.67    4.77
 -20  12 -40   17.62    4.72
  40  20  12   17.74    3.29
  40  20 -12   13.80    4.61
 -20 -12 -40   20.19    5.06
  20  40 -12   12.08    3.07
 -12 -20 -40   13.11    4.90
 -20  14 -40   18.41    4.37
  40  20  14   16.13    3.08
  40  20 -14   26.33    4.61
  20  40 -14   15.10    2.82
 -14  20 -40   30.65    5.11
 -14 -20 -40   26.12    4.77
  40  20  16    5.93    2.41
  20  40 -16    4.61    2.26
 -16 -20 -40    5.16    4.68
 -16  20 -40   -1.47    4.50
 -20  16 -40    1.80    4.30
 -18  20 -40    1.37    4.20
 -20  18 -40   -0.24    4.03
 -20  20 -40   44.63    4.47
 -22   0 -40   19.55    4.97
   0  22 -40   23.39    4.89
   0 -22 -40   12.98    3.29
  40  22   0   21.47    4.52
  40  22   2    1.69    4.08
 -22   2 -40    3.86    4.44
 -22  -2 -40    1.44    4.76
   2 -22 -40    1.29    2.87
   2  22 -40   -1.41    3.97
  -2  22 -40    2.66    4.82
  40  22  -2   -4.42    4.13
  -2 -22 -40   -3.19    3.49
  40  22   4   -1.90    3.76
 -22   4 -40   -0.14    4.64
 -22  -4 -40   -1.01    4.62
   4 -22 -40    0.35    2.42
   4  22 -40   -5.58    4.19
  40  22  -4   -4.16    4.52
  -4  22 -40    3.12    5.02
  -4 -22 -40    5.10    3.75
  40  22   6   -2.93    3.80
 -22   6 -40   -0.98    4.45
   6  22 -40    2.46    3.82
 -22  -6 -40    2.56    4.71
  40  22  -6   -1.07    4.37
  -6  22 -40   -3.41    4.81
  -6 -22 -40    2.58    3.96
  40  22   8    2.91    3.76
 -22   8 -40    4.51    4.34
  22  40  -8    4.90    3.57
  40  22  -8   -2.22    4.46
 -22  -8 -40    0.14    4.30
   8  22 -40    1.56    3.65
  -8  22 -40    8.36    5.00
  -8 -22 -40   -5.52    4.31
  22  40 -10   -0.63    3.25
 -22  10 -40    2.26    4.25
  40  22  10   -4.05    3.45
  40  22 -10    5.87    4.24
 -22 -10 -40    7.31    4.80
 -10 -22 -40    4.76    4.26
 -22  12 -40   -2.69    4.17
  40  22  12   -0.50    3.13
  40  22 -12    2.23    4.32
 -22 -12 -40    0.40    4.76
  22  40 -12    0.38    2.92
 -12 -22 -40    4.46    4.30
 -22  14 -40   10.83    4.19
  40  22  14    4.45    2.96
  40  22 -14   -1.32    4.21
  22  40 -14    2.94    2.61
 -22 -14 -40    4.79    4.31
 -14  22 -40   -0.40    4.26
 -14 -22 -40    3.21    4.28
  40  22  16    2.44    2.44
  22  40 -16    2.26    2.20
 -22 -16 -40    3.33    4.29
 -16  22 -40    1.75    4.09
 -16 -22 -40   -0.99    4.23
 -22  16 -40   -2.34    3.72
  40  22  18    0.89    2.11
 -22 -18 -40    4.65    4.08
 -18  22 -40   -0.58    3.97
 -18 -22 -40    1.87    3.93
 -22  18 -40    6.50    3.56
 -22 -20 -40    1.73    3.87
 -20  22 -40    3.88    3.38
 -22  20 -40   12.86    3.52
 -22  22 -40   -1.37    3.09
 -22 -22 -40    0.49    3.46
 -24   0 -40   19.83    4.48
   0  24 -40   21.13    4.56
   0 -24 -40   20.80    3.24
  40  24   0   20.97    4.51
  40  24   2    9.48    4.21
 -24   2 -40    5.68    4.26
 -24  -2 -40    9.48    4.41
   2  24 -40   -0.41    4.40
   2 -24 -40    3.29    2.59
  -2  24 -40    5.22    4.46
  40  24  -2    4.48    4.18
  -2 -24 -40    5.54    3.34
  40  24   4    4.01    3.87
 -24   4 -40    5.49    4.37
 -24  -4 -40    4.00    4.35
   4  24 -40   -3.13    4.12
  40  24  -4    4.61    4.22
  -4  24 -40    6.82    4.81
  -4 -24 -40    0.35    3.45
  40  24   6    1.88    3.56
 -24   6 -40    5.01    4.16
  24  40  -6    5.32    3.58
 -24  -6 -40    1.32    4.46
  40  24  -6    7.85    4.09
   6  24 -40   -0.25    3.89
  -6  24 -40   -0.85    4.61
  -6 -24 -40    7.52    3.70
  24  40  -8    0.98    3.36
 -24   8 -40    0.87    4.15
  40  24   8   -2.01    3.57
  40  24  -8   -1.11    4.24
 -24  -8 -40    5.18    4.38
  -8  24 -40    2.65    4.69
  -8 -24 -40   -2.19    3.93
 -24  10 -40    9.16    3.95
  40  24  10    6.40    3.42
  40  24 -10    0.48    4.14
 -24 -10 -40    4.94    4.21
  24  40 -10    4.04    3.20
 -10 -24 -40    6.01    4.11
 -24  12 -40    4.39    3.82
  40  24  12    8.89    3.20
  40  24 -12    0.81    4.07
 -24 -12 -40    4.19    4.15
  24  40 -12   -1.46    2.93
 -12  24 -40    8.24    4.60
 -12 -24 -40    3.52    4.02
  40  24  14    3.30    2.81
  24  40 -14    3.35    2.61
 -24 -14 -40    4.73    3.85
 -14  24 -40   -0.50    3.93
 -14 -24 -40   -0.59    4.05
 -24  14 -40    0.99    3.60
  40  24  16    1.12    2.35
  24  40 -16    1.81    2.08
 -24 -16 -40   -1.80    3.63
 -16  24 -40    1.86    4.05
 -16 -24 -40    1.70    3.91
 -24  16 -40    1.24    3.40
  40  24  18    2.22    2.04
 -24 -18 -40    9.05    3.79
 -18  24 -40    3.07    3.64
 -24  18 -40    2.48    3.11
 -18 -24 -40    4.80    3.62
 -24 -20 -40   15.12    3.63
 -20  24 -40   22.08    3.46
 -24  20 -40   22.05    3.14
 -22  24 -40    0.16    2.72
 -24 -22 -40    0.09    3.12
 -24  22 -40   -0.61    2.55
 -24  24 -40    6.20    2.14
 -24 -24 -40   -1.92    2.85
 -26   0 -40   25.35    4.14
   0  26 -40   30.42    4.69
   0 -26 -40   19.90    2.97
  40  26   0   34.22    4.47
 -26   2 -40   -0.72    3.87
 -26  -2 -40    1.93    3.98
   2 -26 -40   -0.84    2.17
   2  26 -40  -12.16    4.23
  -2  26 -40    7.75    4.58
  40  26  -2   -4.81    4.19
  -2 -26 -40   -1.65    3.04
  40  26   2    4.12    3.93
  40  26   4    5.50    3.79
 -26   4 -40    2.35    3.84
   4  26 -40   -1.34    3.74
  26  40  -4    4.44    3.48
 -26  -4 -40    0.36    3.97
  40  26  -4   -0.60    4.27
  -4  26 -40    2.68    4.46
  -4 -26 -40   -1.35    3.27
  40  26   6    1.66    3.70
 -26   6 -40   -1.26    3.70
  26  40  -6    1.52    3.51
 -26  -6 -40   -4.30    4.04
  40  26  -6    4.01    4.15
  -6  26 -40    4.51    4.23
  -6 -26 -40   -2.49    3.39
 -26   8 -40    1.55    3.57
  40  26   8   -1.79    3.56
 -26  -8 -40   -2.69    3.94
  40  26  -8    2.76    3.99
  -8 -26 -40   -3.65    3.57
  26  40  -8    5.01    3.41
 -26  10 -40    4.77    3.47
  40  26  10   -0.10    3.21
  40  26 -10   -1.22    4.02
 -26 -10 -40    4.78    3.85
  26  40 -10   -1.42    3.07
 -10 -26 -40    7.90    3.80
  40  26  12    7.05    3.06
 -26 -12 -40   -1.32    3.82
  26  40 -12    5.78    2.81
 -12  26 -40    2.54    4.17
 -12 -26 -40    8.14    3.79
 -26  12 -40    4.15    3.25
  40  26  14    8.70    2.74
  26  40 -14    1.32    2.44
 -26 -14 -40   -1.57    3.40
 -14  26 -40    7.42    3.99
 -14 -26 -40    5.76    3.70
 -26  14 -40    5.89    3.04
  40  26  16    0.34    2.31
 -26 -16 -40   14.05    3.43
 -16  26 -40    3.48    3.84
 -26  16 -40   11.30    2.96
 -16 -26 -40    3.97    3.53
 -26 -18 -40    3.58    3.15
 -18  26 -40    5.22    3.28
 -26  18 -40    5.28    2.69
 -18 -26 -40    6.37    3.39
  40  26  18    4.60    1.74
 -26 -20 -40   10.68    3.05
 -20  26 -40   14.60    2.98
 -26  20 -40   12.33    2.46
 -26 -22 -40    0.07    2.62
 -26  22 -40   -1.46    1.80
 -26 -24 -40    0.69    2.02
 -24 -26 -40    3.12    2.22
 -26 -40 -26    0.96    1.61
 -26 -26 -40   -0.10    1.71
   0  28 -40   -0.12    4.01
 -28   0 -40   -1.37    3.37
   0 -28 -40    2.29    2.19
  40  28   0   -0.22    3.89
 -28   2 -40    6.66    3.41
 -28  -2 -40    3.38    3.38
  -2  28 -40   -1.48    4.22
  28  40  -2    1.30    3.68
  40  28  -2   -6.76    3.98
  -2 -28 -40    3.34    2.57
  40  28   2    5.33    3.72
  40  28   4   10.48    3.73
 -28   4 -40   -2.24    3.21
  28  40  -4    3.05    3.56
 -28  -4 -40    2.74    3.50
  -4  28 -40    3.47    4.33
  40  28  -4    6.27    3.80
  -4 -28 -40    6.61    2.90
  28  40  -6    0.90    3.33
  40  28   6   -1.63    3.36
 -28   6 -40   -4.14    3.22
 -28  -6 -40    0.31    3.29
  40  28  -6    0.11    3.88
  -6  28 -40   -1.84    4.01
  -6 -28 -40    1.81    3.03
 -28   8 -40   -4.52    3.17
  40  28   8    6.28    3.30
 -28  -8 -40   -1.12    3.39
  40  28  -8   -4.28    3.69
  28  40  -8    3.28    3.09
  -8 -28 -40    5.87    3.23
  40  28  10    3.16    2.94
 -28 -10 -40    0.79    3.13
  28  40 -10    1.03    2.94
 -10 -28 -40   -0.98    3.16
 -28  10 -40    4.75    2.99
  40  28  12    3.61    2.87
  28  40 -12    2.52    2.58
 -28 -12 -40    2.56    3.24
 -12  28 -40   -3.96    3.95
 -12 -28 -40   -0.10    3.28
 -28  12 -40    4.69    2.78
  40  28  14   -0.14    2.49
  28  40 -14    1.12    2.28
 -28 -14 -40    0.45    2.97
 -14  28 -40    2.66    3.55
 -28  14 -40    2.54    2.57
 -14 -28 -40    3.94    3.24
  40  28  16    0.24    2.11
 -28 -16 -40    2.75    2.89
 -16  28 -40    1.30    3.26
 -28  16 -40    0.55    2.32
 -16 -28 -40    6.13    3.23
 -28 -18 -40   -0.38    2.63
 -28  18 -40    4.23    1.92
 -18 -28 -40    4.76    3.05
  40  28  18   -1.37    1.47
 -28 -20 -40    4.53    2.35
 -28  20 -40    0.72    1.41
 -28 -22 -40    4.62    2.00
 -28 -40 -24    2.14    1.29
 -24 -40 -28   -1.66    1.71
 -28 -24 -40    1.01    1.47
 -24 -28 -40    2.31    1.80
 -30   0 -40   18.87    3.07
  30  40   0   13.41    3.59
   0 -30 -40    6.72    1.86
  40  30   0   19.46    3.67
 -30   2 -40    9.11    2.84
  30  40  -2    2.15    3.38
 -30  -2 -40    2.65    2.92
  40  30  -2    4.57    3.65
  -2 -30 -40   -1.97    2.24
  40  30   2   -2.84    3.46
  30  40  -4    2.44    3.34
 -30   4 -40    7.49    2.78
 -30  -4 -40    3.52    2.95
  40  30  -4    3.04    3.56
  -4 -30 -40    2.19    2.37
  40  30   4    6.29    3.36
  40  30   6   12.25    3.43
 -30   6 -40   18.33    2.81
 -30  -6 -40   20.78    3.11
  40  30  -6   27.65    3.72
  -6 -30 -40   19.16    2.91
  30  40  -6   21.71    3.34
  40  30   8    1.12    3.04
 -30  -8 -40    2.11    2.72
  30  40  -8    0.17    2.85
  -8 -30 -40    2.25    2.75
 -30   8 -40    0.60    2.42
  40  30  10    2.80    2.83
 -30 -10 -40    3.42    2.78
  30  40 -10    4.38    2.69
 -10 -30 -40    5.03    2.82
 -30  10 -40    4.32    2.21
  30  40 -12    4.32    2.37
 -30 -12 -40    5.03    2.64
 -12 -30 -40    4.54    2.81
  40  30  14    7.41    2.28
 -30  14 -40    3.99    1.73
 -14 -30 -40    3.18    2.68
 -30 -16 -40    2.37    2.20
 -30  16 -40    0.68    1.34
 -16 -30 -40    0.30    2.61
  40  30  16   -2.01    1.76
 -30 -18 -40   -0.76    1.91
 -18 -30 -40   -3.80    2.36
 -30 -20 -40   26.00    2.04
 -20 -30 -40   25.70    2.47
 -22 -40 -30    1.95    1.48
  32  40   0    9.91    3.05
 -32   0 -40    3.65    2.12
  40  32   0    0.95    3.09
 -32   2 -40    1.02    2.15
  -2 -40 -32    1.52    1.86
 -32  -2 -40    0.74    2.24
  32  40   2    2.99    3.18
  40  32  -2    4.75    3.15
  -2 -32 -40    1.71    1.57
  40  32   2    8.88    3.13
  32  40  -2    5.43    3.10
 -32   4 -40    0.36    1.91
 -32  -4 -40   -2.29    2.16
  32  40   4   -3.94    3.18
  40  32  -4   -1.44    3.02
  -4 -32 -40   -0.40    1.90
  32  40  -4   -4.33    2.97
  40  32   4    1.66    2.94
 -32  -6 -40    8.16    2.26
  32  40  -6   11.49    2.82
  -6 -32 -40    7.19    2.25
  40  32   6    8.74    2.76
 -32   6 -40    8.37    1.85
 -32  -8 -40    6.55    2.10
  32  40  -8    3.61    2.54
  -8 -32 -40    3.67    2.24
 -32   8 -40    3.66    1.59
  40  32   8    3.80    2.67
  40  32 -10    1.79    2.75
 -32 -10 -40    1.22    2.04
  32  40 -10   -0.63    2.21
 -32  10 -40   -0.04    1.35
 -10 -32 -40    5.35    2.28
  40  32  10    3.61    2.47
  32  40 -12   12.47    2.02
 -32 -12 -40   10.27    1.91
 -12 -32 -40   13.85    2.42
  40  32  12   11.00    2.17
 -32 -14 -40    1.68    1.65
 -14 -32 -40    4.96    2.14
  40  32  14   -0.15    1.69
 -16 -40 -32   -0.85    2.15
 -32 -16 -40    0.52    1.38
 -16 -32 -40   -0.18    1.96
 -18 -40 -32    8.99    1.94
 -18 -32 -40    9.39    1.79
 -20 -32 -40    0.77    1.27
  40  34   0    2.09    2.65
  34  40   0    0.36    2.56
 -34  -2 -40    1.74    1.26
  40  34  -2    0.36    2.55
  40  34   2   -0.28    2.61
  34  40  -2   -1.70    2.59
  34  40   2    2.77    2.69
  34  40   4    6.94    2.71
 -34  -4 -40    1.76    1.28
  34  40  -4    9.64    2.53
  40  34   4    9.61    2.55
  -4 -40 -34    1.77    1.33
  -6 -40 -34    1.48    1.51
 -34  -6 -40   -1.22    1.26
  34  40  -6    1.51    2.18
  -6 -34 -40    1.52    1.40
  40  34   6   -0.92    2.38
  -8 -40 -34   -1.03    1.72
  40  34  -8    0.26    2.29
  34  40  -8   -3.88    2.09
  -8 -34 -40    1.62    1.49
  40  34   8   -2.79    2.18
 -10 -40 -34    0.94    1.64
  34  40  10    5.04    2.36
  34  40 -10    0.35    1.72
 -10 -34 -40    2.55    1.59
  40  34  10   -0.87    1.92
 -12 -40 -34   -3.00    1.68
  34  40  12    0.57    1.89
 -12 -34 -40   -1.93    1.59
  40  34  12   -0.37    1.54
  34  40  14   -1.14    1.66
 -14 -34 -40   -0.27    1.41
 -14 -40 -34   -0.33    1.44
  34  40  16    1.24    1.25
 -16 -34 -40   -0.20    1.26
 -16 -40 -34    0.87    1.33
  40  36   0    6.03    2.06
  36  40   0   10.27    2.10
  36  40  -2    4.03    1.82
  40  36   2   -1.38    2.04
  36  40   2   -2.72    1.92
  36  40  -4    0.46    1.69
  40  36   4   -1.12    1.86
  40  36  -6   -2.09    1.67
  36  40  -6    0.28    1.64
  40  36   6   -2.43    1.66
  40  36   8    0.13    1.57
  36  40   8    1.34    1.66
  40  36  10    2.36    1.24
  38  40   0   -0.85    1.14
   1   1 -41   -0.14    3.95
  -1   1 -41    4.50    4.38
   1  -1 -41    5.41    3.95
  -1  -1 -41    5.50    4.28
   1   3 -41   28.56    4.24
   3   1 -41   24.25    3.94
  -1   3 -41   19.96    4.43
   3  -1 -41   16.17    3.82
  -3   1 -41   23.23    4.72
   1  -3 -41   18.73    4.16
  -3  -1 -41   22.95    4.73
  -1  -3 -41   16.55    4.29
   3   3 -41    4.86    3.92
  -3   3 -41    2.18    4.59
   3  -3 -41    1.20    3.47
  -3  -3 -41   -2.75    4.53
  -5   1 -41  158.68    7.88
  -5  -1 -41  160.73    7.82
   1  -5 -41  149.89    7.23
  -1  -5 -41  147.78    7.41
   1   5 -41  152.05    7.45
   5   1 -41  152.70    6.96
  -1   5 -41  155.45    7.51
   5  -1 -41  151.73    6.94
   3   5 -41    4.35    3.97
   5   3 -41    9.65    3.55
  41   5   3    6.33    2.65
  -3   5 -41   -0.78    4.39
   5  -3 -41    0.99    3.29
  -5   3 -41    3.03    4.44
   3  -5 -41    4.44    3.59
  -5  -3 -41   -0.79    4.66
  -3  -5 -41   -0.76    4.18
   5   5 -41   -1.85    3.64
  -5   5 -41   -0.32    4.55
   5  -5 -41   -3.98    3.27
  -5  -5 -41   -2.80    4.67
  -7   1 -41  127.98    7.04
  -7  -1 -41  114.35    7.13
   1  -7 -41  124.71    6.32
  41   7  -1  118.38    5.87
  -1  -7 -41  128.56    6.49
  41   7   1  117.63    5.68
   7   1 -41  116.31    5.84
   1   7 -41  132.54    6.76
  -1   7 -41  132.38    6.75
   7  -1 -41  107.18    5.66
   7   3 -41    4.46    3.14
   3   7 -41    4.39    4.00
  -3   7 -41    9.29    4.40
   7  -3 -41   10.45    3.03
  41   7  -3    3.17    3.48
  -7   3 -41    3.07    4.98
  41   7   3   -0.31    2.79
   3  -7 -41    2.06    3.26
  -7  -3 -41   -0.48    4.67
  -3  -7 -41    7.03    4.38
   5  -7 -41  193.28    7.65
  41   7   5  173.92    7.27
  -7  -5 -41  203.12    8.75
  -5  -7 -41  194.16    8.71
   5   7 -41  178.67    8.05
  -5   7 -41  211.31    8.90
   7  -5 -41  166.38    7.40
  -7   5 -41  209.73    8.99
   7   7 -41   -0.87    3.25
  -7   7 -41    1.79    4.97
   7  -7 -41   -1.47    2.76
  -7  -7 -41   -3.16    4.49
   9   1 -41    2.10    2.74
   1   9 -41    0.59    4.18
  -1   9 -41    3.07    4.42
  41   9  -1    2.92    3.47
  -9   1 -41    6.53    4.90
  41   9   1   -1.52    3.21
  -9  -1 -41    2.12    4.92
   1  -9 -41    8.44    3.87
  -1  -9 -41    7.51    3.96
   9   3 -41    2.58    2.80
   3   9 -41    3.83    3.97
  -3   9 -41    6.61    4.76
  -9   3 -41    4.41    5.12
  41   9  -3    3.90    3.49
  41   9   3    1.56    3.03
   3  -9 -41    3.26    3.34
  -9  -3 -41    6.80    4.76
  -3  -9 -41    3.70    4.22
   5   9 -41    4.04    3.75
  -5   9 -41   -1.28    4.62
  -9   5 -41    2.94    5.08
  41   9  -5    0.13    3.54
   5  -9 -41    0.80    3.07
  41   9   5   -0.52    2.77
  -9  -5 -41    0.64    5.02
  -5  -9 -41    0.31    4.55
   9   5 -41    3.66    2.89
  -7   9 -41    3.89    5.09
  41   9  -7    2.25    3.96
  -9   7 -41    8.16    5.30
   7  -9 -41    6.15    2.74
  41   9   7    9.27    2.69
  -9  -7 -41   11.04    4.75
  -7  -9 -41    4.37    4.43
   9   7 -41    3.96    3.05
   7   9 -41    1.39    3.23
  -9   9 -41   -3.91    5.05
  -9  -9 -41    3.01    4.84
   9   9 -41    0.81    3.11
   1  11 -41    2.37    4.07
  -1  11 -41   -2.30    4.61
 -11   1 -41   -2.13    5.05
 -11  -1 -41   -3.27    5.14
  41  11  -1   -1.64    3.68
  41  11   1    1.22    3.50
   1 -11 -41   -0.13    3.60
  -1 -11 -41    0.28    3.61
   3  11 -41    3.28    4.10
  -3  11 -41   10.05    4.79
 -11   3 -41    0.65    5.05
  41  11  -3   -2.85    3.84
   3 -11 -41    1.34    3.29
 -11  -3 -41    5.69    5.16
  41  11   3    1.29    3.31
  -3 -11 -41    2.04    3.87
  -5  11 -41   23.16    5.04
 -11   5 -41   22.32    5.28
  41  11  -5   21.14    3.93
   5 -11 -41   19.89    3.12
 -11  -5 -41   24.44    5.18
  41  11   5   14.24    3.31
  -5 -11 -41   21.02    4.43
   5  11 -41   20.13    4.10
  -7  11 -41   25.75    5.27
 -11   7 -41   28.32    5.39
  41  11  -7   31.48    4.50
  41  11   7   28.74    3.31
 -11  -7 -41   24.28    5.07
  -7 -11 -41   31.46    5.00
   7  11 -41   30.99    3.80
  -9  11 -41   -2.09    5.12
 -11   9 -41    6.47    5.07
  41  11  -9    2.03    4.05
  41  11   9   -2.65    2.63
 -11  -9 -41    3.65    4.59
  -9 -11 -41    6.21    4.83
   9  11 -41   -2.80    3.19
 -11  11 -41   -4.79    5.48
 -11 -11 -41   -4.05    5.03
  11  11 -41    1.65    2.70
  -1  13 -41   51.36    4.99
 -13   1 -41   47.54    5.73
 -13  -1 -41   53.74    5.66
  41  13  -1   46.48    4.55
   1 -13 -41   50.65    4.42
  41  13   1   45.55    4.47
  -1 -13 -41   42.34    4.48
   1  13 -41   51.18    5.07
  -3  13 -41   -0.93    4.72
 -13   3 -41   10.87    5.39
  41  13  -3    3.96    3.92
 -13  -3 -41    1.62    4.96
   3 -13 -41    5.16    3.26
  41  13   3   -0.12    3.44
  -3 -13 -41   -1.56    3.93
   3  13 -41   -2.15    4.20
   5 -13 -41  219.53    8.92
  41  13  -5  241.03    9.71
 -13  -5 -41  255.19   10.55
  41  13   5  222.54    9.23
  -5 -13 -41  246.92    9.91
   5  13 -41  245.26    9.56
  -5  13 -41  252.02   10.18
  -7  13 -41    7.46    5.01
  41  13  -7    8.51    4.29
 -13  -7 -41    4.64    5.14
  41  13   7    6.65    3.18
  -7 -13 -41    2.85    4.48
   7  13 -41   12.41    3.75
  -9  13 -41    9.04    5.41
  41  13  -9    0.54    4.31
  13  41  -9    3.44    2.70
 -13  -9 -41    9.17    5.40
  41  13   9   -1.21    2.86
  -9 -13 -41    2.73    4.67
   9  13 -41    2.58    3.20
 -13 -11 -41   19.21    5.12
  41  13  11   16.76    2.84
  11  13 -41   17.32    3.05
 -13 -13 -41   -0.15    4.94
  41  15  -1   30.13    4.39
   1 -15 -41   15.50    3.68
  41  15   1   25.07    4.19
  -1 -15 -41   22.83    4.09
   1  15 -41   27.49    4.62
  -1  15 -41   19.30    4.96
  41  15  -3    1.20    4.05
   3 -15 -41   -1.35    3.12
  -3 -15 -41    2.75    4.00
  41  15   3   -4.73    3.58
   3  15 -41   -3.72    4.32
  -3  15 -41    0.15    4.71
  -5  15 -41    0.62    5.03
  41  15  -5    2.29    3.89
   5 -15 -41    0.30    2.71
  -5 -15 -41    2.13    4.04
  41  15   5    2.14    3.48
   5  15 -41    1.63    3.91
  -7  15 -41   42.47    5.49
  41  15  -7   38.76    4.43
  -7 -15 -41   33.78    4.96
   7  15 -41   42.25    4.24
  41  15   7   32.84    3.71
 -15  -7 -41   46.31    5.82
  -9  15 -41    7.15    5.27
  15  41  -9    8.27    2.96
  41  15  -9   10.12    4.24
 -15  -9 -41   10.42    5.31
   9  15 -41    5.95    3.27
  -9 -15 -41   15.78    4.60
  41  15   9    5.96    3.06
  15  41 -11   11.36    2.68
  41  15 -11   15.83    4.43
  11  15 -41   14.00    3.01
 -15 -11 -41   17.38    5.20
 -11 -15 -41   18.92    4.72
  41  15  11    6.66    2.89
 -15  13 -41   34.54    5.39
 -15 -13 -41   41.37    5.43
 -13 -15 -41   31.31    5.22
  41  15  13   29.09    2.94
 -15  15 -41    8.65    4.78
 -15 -15 -41    0.14    4.71
   1 -17 -41   11.25    3.45
  41  17  -1   15.99    3.97
  -1 -17 -41   10.04    3.80
  41  17   1   12.93    3.93
   1  17 -41   17.30    4.60
  -1  17 -41   14.29    4.75
 -17   3 -41    5.43    5.17
  41  17  -3    8.15    4.22
   3 -17 -41    1.59    2.92
  -3 -17 -41    8.31    3.95
  41  17   3    5.51    3.89
   3  17 -41    6.48    3.85
  -3  17 -41   -1.83    4.84
   5 -17 -41   52.48    3.48
 -17   5 -41   55.77    5.87
  41  17  -5   52.69    4.87
  -5 -17 -41   53.85    4.77
   5  17 -41   53.35    4.65
  41  17   5   57.84    4.51
  -5  17 -41   55.63    5.79
 -17   7 -41    8.54    5.19
  41  17  -7    2.01    3.91
   7  17 -41   12.70    3.58
  -7 -17 -41    3.65    4.29
  41  17   7    1.37    3.37
  -7  17 -41    8.60    4.84
 -17   9 -41    6.91    5.09
  17  41  -9   -2.50    3.10
  41  17  -9    2.26    4.31
   9  17 -41    7.49    3.32
  -9 -17 -41    3.27    4.30
  41  17   9    6.07    3.22
  -9  17 -41   -1.68    5.00
 -17  11 -41   14.24    4.70
  41  17 -11   14.31    4.14
  11  17 -41   11.04    3.05
 -11 -17 -41   14.94    4.35
  41  17  11   14.34    3.02
  17  41 -11    8.77    2.82
 -17  13 -41    2.70    4.78
  17  41 -13    1.13    2.31
 -13 -17 -41   -1.69    4.61
  41  17  13    4.68    2.52
 -17  15 -41   -4.82    4.82
 -17 -15 -41    4.15    4.78
 -15 -17 -41   -7.00    4.82
 -15  17 -41    2.65    4.73
 -17 -17 -41    3.56    4.55
 -17  17 -41    4.36    4.55
 -19   1 -41    2.70    4.71
 -19  -1 -41    3.16    4.99
   1 -19 -41    1.65    3.09
  41  19  -1    4.57    4.13
  -1 -19 -41    5.34    3.46
  41  19   1    4.99    3.98
   1  19 -41    7.85    4.31
  -1  19 -41    4.69    4.50
 -19   3 -41    4.02    4.98
 -19  -3 -41    5.85    5.03
   3 -19 -41   -0.30    2.77
  41  19  -3    0.53    4.08
  -3 -19 -41    3.76    3.79
   3  19 -41    9.66    4.14
  41  19   3   11.83    3.77
  -3  19 -41    1.19    4.77
 -19   5 -41   40.89    5.36
 -19  -5 -41   33.90    5.21
  41  19  -5   31.27    4.71
   5  19 -41   37.56    4.35
  -5 -19 -41   43.33    4.39
  -5  19 -41   36.84    5.38
  41  19   5   34.73    4.07
  41  19  -7   88.15    5.71
 -19   7 -41   71.97    6.06
  41  19   7   75.98    4.91
  -7 -19 -41   80.77    5.43
   7  19 -41   82.81    5.09
  -7  19 -41   78.16    6.22
 -19   9 -41    2.71    4.66
  19  41  -9   -0.10    3.04
  41  19  -9    4.40    4.11
   9  19 -41   -2.48    3.27
  -9 -19 -41    2.71    4.25
  -9  19 -41    4.44    5.03
  41  19   9   -2.98    3.28
 -19  11 -41    4.31    4.35
  41  19 -11    5.20    4.22
 -11 -19 -41   -1.76    4.36
  19  41 -11    1.12    2.83
  41  19  11    0.10    2.94
 -19  13 -41   66.91    5.47
  19  41 -13   56.12    3.58
  41  19  13   57.09    3.74
 -13 -19 -41   60.15    5.25
 -15 -19 -41    4.03    4.62
  41  19  15    4.64    2.25
 -15  19 -41   10.44    4.69
 -19  15 -41    4.13    4.42
 -17 -19 -41   20.30    4.48
 -17  19 -41   12.96    4.51
 -19  17 -41   17.09    4.22
 -19  19 -41   -1.39    3.96
 -21   1 -41   -0.14    4.51
 -21  -1 -41   -5.83    4.68
   1 -21 -41   -1.72    2.93
  41  21  -1    4.46    4.11
  -1 -21 -41   -0.22    3.13
   1  21 -41    3.60    4.22
  -1  21 -41    0.43    4.45
  41  21   1    3.38    4.03
 -21   3 -41    1.83    4.74
 -21  -3 -41    6.40    4.78
   3 -21 -41   10.17    2.65
  41  21  -3    4.49    4.15
   3  21 -41    3.87    3.90
  -3 -21 -41   -2.00    3.65
  -3  21 -41    3.45    4.64
  41  21   3   -4.87    3.99
 -21   5 -41    2.92    4.36
 -21  -5 -41    3.10    4.73
  41  21  -5    6.40    4.22
   5  21 -41    0.25    3.94
  -5 -21 -41    8.59    3.75
  -5  21 -41    6.92    4.95
  41  21   5    6.80    3.69
 -21   7 -41   62.35    5.33
  41  21   7   70.72    4.56
  21  41  -7   54.48    4.39
  41  21  -7   65.65    4.89
 -21  -7 -41   66.16    5.68
   7  21 -41   54.82    4.61
  -7  21 -41   68.79    5.71
  -7 -21 -41   57.39    4.86
  41  21   9    6.59    3.27
  21  41  -9    2.33    3.14
 -21   9 -41    2.27    4.45
  41  21  -9    3.23    4.32
 -21  -9 -41   12.15    4.72
   9  21 -41    6.69    3.25
  -9  21 -41    1.41    4.87
  -9 -21 -41   -2.68    4.02
  41  21  11    1.25    3.01
 -21  11 -41    2.45    4.20
  41  21 -11   -0.85    4.19
 -21 -11 -41    8.14    4.27
  21  41 -11    0.46    2.83
 -11 -21 -41    3.18    4.13
  21  41 -13   85.75    4.39
  41  21  13   93.19    4.67
 -21 -13 -41  116.54    6.27
 -13 -21 -41   92.56    5.88
 -13  21 -41   99.91    5.93
 -21  13 -41  103.65    5.92
  21  41 -15    1.46    1.95
 -21 -15 -41    8.15    4.31
 -15 -21 -41    6.32    4.23
 -15  21 -41   -3.14    4.28
  41  21  15    1.41    2.37
 -21  15 -41    4.03    4.01
 -17 -21 -41   26.66    4.33
 -17  21 -41   29.49    4.09
 -21  17 -41   34.63    4.23
 -19  21 -41    1.93    3.68
 -21  19 -41    1.45    3.48
 -21  21 -41    4.09    3.28
 -23   1 -41    9.07    4.48
 -23  -1 -41    5.29    4.49
   1 -23 -41   14.19    2.89
   1  23 -41    9.41    4.18
  -1  23 -41   10.86    4.56
  41  23  -1    4.15    3.99
  -1 -23 -41    9.85    3.14
  41  23   1    7.09    3.99
 -23   3 -41   11.22    4.38
 -23  -3 -41    6.21    4.29
   3 -23 -41    6.23    2.38
  41  23  -3    7.85    3.98
   3  23 -41    4.87    3.97
  -3  23 -41    2.48    4.46
  -3 -23 -41    5.94    3.33
  41  23   3    4.57    3.90
 -23   5 -41   22.13    4.55
 -23  -5 -41   26.66    4.72
  41  23  -5   29.76    4.41
   5  23 -41   26.41    3.91
  -5  23 -41   29.23    5.07
  -5 -23 -41   34.31    3.91
  41  23   5   28.47    4.10
  41  23   7    1.08    3.48
 -23   7 -41    0.50    4.11
  23  41  -7    2.75    3.37
  41  23  -7    2.64    3.93
 -23  -7 -41    4.14    4.44
   7  23 -41   -2.03    3.46
  -7  23 -41    8.20    4.49
  -7 -23 -41    6.07    3.69
  41  23   9    0.10    3.25
 -23   9 -41   -4.52    3.99
  41  23  -9    2.35    4.03
 -23  -9 -41    2.65    4.26
  -9 -23 -41   -0.95    3.81
  23  41  -9   -6.53    3.13
  41  23  11    3.43    2.94
 -23  11 -41    1.76    3.78
 -23 -11 -41    3.31    4.15
  23  41 -11   -4.50    2.77
 -11 -23 -41    0.94    3.82
 -23  13 -41    4.04    3.72
  41  23  13    1.41    2.63
  23  41 -13    3.76    2.44
 -23 -13 -41    5.21    3.96
 -13  23 -41   15.40    4.39
 -13 -23 -41    7.06    3.92
  23  41 -15    3.36    2.06
 -23 -15 -41    1.58    3.82
 -15  23 -41    7.59    4.04
 -15 -23 -41    6.14    3.96
 -23  15 -41    6.48    3.56
  41  23  15    5.24    2.22
 -23 -17 -41   10.29    3.96
 -17  23 -41    8.52    3.80
  41  23  17    5.90    1.89
 -23  17 -41   12.49    3.39
 -23 -19 -41    4.91    3.48
 -19  23 -41    4.85    3.36
 -19 -23 -41   10.55    3.53
 -23  19 -41    3.44    3.09
 -23 -21 -41   18.30    3.26
 -21  23 -41   15.14    2.99
 -23  21 -41    7.18    2.86
 -23 -23 -41   -0.87    2.92
 -23  23 -41   -2.22    2.32
 -25   1 -41   34.53    4.47
 -25  -1 -41   41.94    4.48
   1  25 -41   36.61    4.58
   1 -25 -41   36.50    2.98
  -1  25 -41   32.35    4.66
  41  25  -1   35.80    4.14
  -1 -25 -41   34.26    3.28
  41  25   1   38.81    4.24
 -25   3 -41    4.01    3.75
 -25  -3 -41    0.60    3.96
   3  25 -41    3.38    3.88
  41  25  -3    3.34    3.87
  -3  25 -41    1.68    4.28
  -3 -25 -41    2.71    3.00
  41  25   3    6.42    3.76
 -25   5 -41   -1.04    3.81
  25  41  -5    1.37    3.41
 -25  -5 -41    1.31    4.05
  41  25  -5   -4.45    3.98
  -5  25 -41    3.49    4.33
  -5 -25 -41    4.80    3.25
  41  25   5   -5.02    3.51
 -25  -7 -41  219.25    8.90
  41  25  -7  221.80    8.86
  41  25   7  215.63    8.51
  25  41  -7  196.02    8.37
  -7 -25 -41  217.44    8.54
  -7  25 -41  228.27    9.22
 -25   7 -41  215.77    8.71
  41  25   9    5.60    3.15
 -25   9 -41   -1.41    3.62
  41  25  -9    7.84    3.88
 -25  -9 -41    3.89    3.91
  25  41  -9    4.31    3.02
  -9 -25 -41    0.21    3.40
 -25  11 -41   12.11    3.40
  41  25  11   -0.61    2.81
  41  25 -11    2.63    3.73
 -25 -11 -41    0.22    3.78
  25  41 -11    2.39    2.65
 -11 -25 -41    1.49    3.60
 -25 -13 -41  121.13    5.81
  25  41 -13   96.81    4.69
  41  25  13  105.21    4.90
 -13 -25 -41  111.94    5.68
 -13  25 -41  124.39    6.06
 -25  13 -41  122.47    5.54
  25  41 -15    2.17    2.01
 -25 -15 -41    0.90    3.51
 -15  25 -41   -4.48    3.73
 -15 -25 -41   -2.01    3.52
 -25  15 -41    0.92    3.06
  41  25  15    0.99    2.21
 -25 -17 -41   70.05    4.21
 -17 -25 -41   67.88    4.24
 -17  25 -41   70.66    4.38
 -25  17 -41   61.14    3.78
 -25 -19 -41   19.15    3.31
 -19  25 -41   11.80    3.18
 -25  19 -41   19.38    2.78
 -19 -25 -41   16.43    3.26
 -25 -21 -41   10.09    2.80
 -21  25 -41    6.97    2.50
 -25  21 -41    9.83    2.15
 -25 -23 -41   12.24    2.47
 -23 -25 -41   10.69    2.42
 -25 -25 -41   -0.22    1.86
 -27   1 -41   32.04    3.91
 -27  -1 -41   38.93    3.98
   1  27 -41   34.82    4.24
  -1  27 -41   36.23    4.48
   1 -27 -41   29.18    2.50
  41  27  -1   33.27    4.07
  -1 -27 -41   31.99    2.90
  41  27   1   38.19    4.01
 -27   3 -41   -6.63    3.48
  27  41  -3   -1.63    3.44
 -27  -3 -41    2.11    3.28
  41  27  -3   -3.82    3.83
  -3  27 -41   -6.85    4.22
  -3 -27 -41    5.02    2.69
  41  27   3   -9.93    3.52
 -27  -5 -41   93.89    5.22
  41  27  -5  102.19    5.39
  41  27   5   90.80    5.05
  27  41  -5   86.70    4.93
  -5 -27 -41   88.17    4.74
  -5  27 -41   98.03    5.58
 -27   5 -41   91.49    5.02
 -27   7 -41   -4.27    3.19
 -27  -7 -41    2.57    3.36
  41  27  -7    6.44    3.60
  -7  27 -41    2.71    4.17
  -7 -27 -41   -6.24    3.00
  27  41  -7   -2.10    3.13
  41  27   7   -0.19    3.10
 -27   9 -41   -4.54    3.04
  41  27  -9    2.17    3.61
 -27  -9 -41    0.80    3.44
  27  41  -9   -0.75    2.75
  -9 -27 -41    4.26    3.16
  41  27   9    5.06    2.95
 -27 -11 -41   14.77    3.42
  27  41 -11    8.80    2.58
 -11 -27 -41    6.79    3.24
 -27  11 -41   21.08    3.01
  41  27  11   15.82    2.91
  27  41 -13    5.75    2.09
 -27 -13 -41    1.93    3.18
 -13  27 -41   -4.34    3.70
 -13 -27 -41    0.18    3.20
 -27  13 -41    3.85    2.71
  41  27  13    1.82    2.41
 -27 -15 -41   12.69    3.08
 -15  27 -41    4.57    3.42
 -15 -27 -41    3.26    3.01
 -27  15 -41    7.03    2.59
  41  27  15    5.55    2.04
 -27 -17 -41    3.15    2.72
 -17  27 -41   -2.56    2.93
  41  27  17    1.26    1.40
 -27  17 -41    0.26    2.13
 -17 -27 -41   -1.15    2.88
 -27 -19 -41   22.09    2.66
 -27  19 -41   13.05    2.01
 -19 -27 -41   15.46    2.93
 -27 -21 -41    4.55    2.15
 -27 -23 -41   -1.22    1.59
 -25 -27 -41    9.52    1.44
 -29   1 -41   -1.06    2.89
 -29  -1 -41    7.94    3.01
  29  41  -1    4.66    3.26
  29  41   1    5.71    3.29
  41  29  -1   12.13    3.47
  -1 -29 -41    5.21    1.96
  41  29   1   10.41    3.34
  29  41  -3    5.13    3.20
 -29   3 -41   -0.26    2.81
 -29  -3 -41   -3.66    2.92
  41  29  -3   -5.32    3.36
  -3 -29 -41    1.85    2.28
  41  29   3    1.66    3.21
 -29   5 -41    7.31    2.86
 -29  -5 -41    5.64    2.96
  41  29  -5    7.85    3.39
  -5 -29 -41    6.97    2.46
  41  29   5    4.53    3.06
  29  41  -5    5.32    3.03
 -29   7 -41    3.57    2.61
 -29  -7 -41    2.59    2.91
  41  29  -7    2.54    3.18
  -7  29 -41    4.02    3.88
  29  41  -7    4.73    2.89
  -7 -29 -41    7.49    2.70
  41  29   7    7.99    2.92
 -29  -9 -41    0.92    2.81
  29  41  -9   -1.11    2.55
  -9 -29 -41    3.63    2.67
  41  29   9    1.48    2.72
 -29   9 -41   -2.99    2.48
 -29 -11 -41    3.12    2.71
  29  41 -11   -0.19    2.22
 -11  29 -41   -1.45    3.55
 -11 -29 -41   -1.20    2.71
 -29  11 -41    2.90    2.26
  41  29  11    0.35    2.41
  29  41 -13    8.19    1.95
 -29 -13 -41   13.69    2.63
 -13 -29 -41    8.21    2.76
 -29  13 -41    8.21    2.06
  41  29  13   10.01    2.11
 -29 -15 -41    1.39    2.28
 -29  15 -41    3.85    1.75
 -15 -29 -41    7.13    2.65
  41  29  15    1.12    1.58
 -29 -17 -41    0.56    2.07
 -17 -29 -41    0.89    2.32
 -29 -19 -41    3.76    1.84
 -19 -29 -41    0.92    2.16
 -29 -21 -41    3.25    1.40
  31  41  -1    0.66    2.85
 -31   1 -41   -0.68    2.27
  -1 -41 -31   -1.98    1.58
 -31  -1 -41   -0.07    2.29
  31  41   1   -0.17    3.00
  41  31  -1    4.49    2.80
  41  31   1    3.71    2.93
 -31   3 -41    0.92    2.20
 -31  -3 -41   -0.07    2.36
  31  41   3   -0.60    3.04
  41  31  -3    6.03    3.05
  -3 -31 -41   -1.72    1.58
  41  31   3    0.32    2.83
  31  41  -3    2.39    2.69
 -31   5 -41   10.08    2.04
 -31  -5 -41   10.31    2.39
  31  41   5   10.69    3.10
  41  31  -5   10.90    3.02
  -5 -31 -41    8.02    1.99
  31  41  -5    6.80    2.81
  41  31   5   13.22    2.84
 -31  -7 -41    9.91    2.40
  31  41  -7   12.27    2.65
  -7 -31 -41    9.45    2.11
  41  31   7    7.92    2.68
 -31   7 -41   10.75    1.94
 -31  -9 -41    3.68    2.17
  31  41  -9   -2.87    2.18
  -9 -31 -41    0.97    2.18
  41  31   9    0.13    2.34
 -31   9 -41    0.10    1.58
  31  41 -11    4.59    1.91
 -31 -11 -41   -1.15    2.01
 -11 -31 -41    1.75    2.17
 -31  11 -41    0.78    1.37
  41  31  11    0.77    2.08
 -13 -31 -41   50.47    2.90
  41  31  13   32.31    2.37
 -31 -13 -41   45.30    2.58
 -31 -15 -41    2.60    1.65
 -15 -31 -41   -0.53    1.96
 -17 -41 -31    0.38    1.91
 -31 -17 -41   -0.37    1.26
 -17 -31 -41    3.13    1.75
 -19 -41 -31    2.35    1.49
 -19 -31 -41    2.48    1.53
 -33  -1 -41    3.75    1.46
  41  33  -1   10.06    2.58
  41  33   1   14.81    2.55
  33  41  -1   12.07    2.57
  33  41   1   15.00    2.68
 -33   1 -41    5.79    1.44
  33  41   3    2.47    2.46
 -33  -3 -41   -0.50    1.45
  41  33  -3    1.78    2.55
  41  33   3   -2.55    2.46
  33  41  -3    2.85    2.35
  -5 -41 -33    6.46    1.47
 -33  -5 -41    7.48    1.55
  33  41   5   12.06    2.57
  33  41  -5   10.54    2.33
  41  33   5   12.61    2.47
  -7 -41 -33    1.79    1.56
 -33  -7 -41    3.31    1.36
  33  41  -7    4.27    2.04
  -7 -33 -41    3.10    1.38
  41  33   7    1.79    2.13
  -9 -41 -33   -0.56    1.64
 -33  -9 -41    1.27    1.30
  33  41  -9    0.64    1.70
  -9 -33 -41    2.08    1.45
  41  33   9    0.37    1.88
 -11 -41 -33    0.30    1.64
  41  33  11    1.45    1.55
 -11 -33 -41    3.68    1.48
 -13 -41 -33    0.86    1.53
  33  41  13   -0.95    1.74
 -13 -33 -41    2.77    1.45
 -15 -33 -41    2.80    1.28
 -15 -41 -33    2.74    1.36
  41  35  -1    1.40    1.96
  41  35   1    0.32    1.93
  35  41  -1    0.48    1.85
  35  41   1    3.45    1.92
  35  41  -3    1.26    1.66
  41  35   3    0.57    1.81
  35  41   3   -1.15    1.88
  35  41  -5   -2.05    1.63
  41  35   5   -1.17    1.70
  35  41  -7    4.21    1.42
  41  35   7    5.62    1.50
  41  35   9    1.49    1.22
  35  41  11   -2.27    1.38
   0   0 -42  109.37    6.28
   0   2 -42    0.87    4.04
   2   0 -42    4.78    3.82
  -2   0 -42   -6.10    4.14
   0  -2 -42    5.24    4.07
   2   2 -42    1.11    3.72
  -2   2 -42   -3.45    4.29
   2  -2 -42   -1.07    3.68
  -2  -2 -42   -2.22    4.11
   0   4 -42   -2.19    3.82
   4   0 -42    4.23    3.55
  -4   0 -42    4.91    4.37
   0  -4 -42    4.20    3.97
   2   4 -42    1.12    3.86
   4   2 -42    4.82    3.40
  -2   4 -42   -2.72    4.44
   4  -2 -42    1.38    3.24
  -4   2 -42    4.93    4.65
   2  -4 -42   -1.85    3.47
  -4  -2 -42   -4.27    4.47
  -2  -4 -42    2.49    4.12
   4   4 -42    4.88    3.75
  -4   4 -42    8.52    4.37
   4  -4 -42    2.70    3.37
  -4  -4 -42    4.99    4.40
   0   6 -42   21.58    4.42
   6   0 -42   27.71    3.56
  -6   0 -42   26.00    5.03
   0  -6 -42   23.60    4.21
   6   2 -42    9.51    3.39
   2   6 -42    7.60    3.88
  -2   6 -42    7.15    4.53
   6  -2 -42    4.73    3.09
  -6   2 -42   10.85    4.85
   2  -6 -42    6.36    3.71
  -6  -2 -42    3.59    4.78
  -2  -6 -42    1.30    3.94
   6   4 -42   10.62    3.45
   4   6 -42   11.57    3.64
  -4   6 -42   11.19    4.70
   6  -4 -42    9.98    3.09
  -6   4 -42   10.40    4.72
   4  -6 -42    5.16    3.24
  -6  -4 -42    7.73    4.62
  -4  -6 -42   15.94    4.45
   6   6 -42    4.44    3.36
  -6   6 -42    6.95    4.69
   6  -6 -42    5.31    2.84
  -6  -6 -42   12.36    4.74
   8   0 -42   33.78    3.37
   0   8 -42   33.89    4.71
  42   8   0   41.19    3.84
  -8   0 -42   39.07    5.16
   0  -8 -42   41.48    4.44
   8   2 -42   53.30    3.93
   2   8 -42   60.93    4.97
  -2   8 -42   58.92    5.43
  42   8  -2   59.66    4.37
  42   8   2   55.95    3.96
  -8   2 -42   57.57    5.77
   2  -8 -42   60.75    4.56
  -8  -2 -42   67.78    5.73
  -2  -8 -42   63.66    4.95
   8  -2 -42   58.11    3.82
   8   4 -42   14.00    3.16
   4   8 -42   12.28    3.83
  -4   8 -42   18.32    4.83
  -8   4 -42   16.06    5.09
  42   8   4   12.58    2.87
   4  -8 -42   11.31    3.34
  -8  -4 -42   18.50    5.15
  -4  -8 -42   19.08    4.52
  -6   8 -42    3.78    4.68
  -8   6 -42   -0.48    5.06
   6  -8 -42   -1.14    2.75
  -8  -6 -42   -0.16    4.93
  -6  -8 -42   -0.90    4.56
   6   8 -42   10.15    3.52
  -8   8 -42    2.70    5.07
  -8  -8 -42   -0.15    4.71
   8   8 -42    5.16    3.16
   0  10 -42   14.35    4.45
  42  10   0   22.06    3.59
 -10   0 -42   18.99    5.28
   0 -10 -42   19.60    3.99
   2  10 -42   10.42    3.92
  -2  10 -42    8.32    4.60
  42  10  -2   -1.68    3.46
 -10   2 -42    1.92    5.10
  42  10   2    7.04    3.17
 -10  -2 -42    0.80    5.08
   2 -10 -42   -1.97    3.44
  -2 -10 -42   -4.02    4.10
  -4  10 -42    9.13    4.54
  42  10  -4    4.94    3.74
 -10   4 -42    4.94    5.12
   4 -10 -42    7.44    3.10
  42  10   4    5.50    2.91
 -10  -4 -42    5.83    4.71
  -4 -10 -42    7.65    4.27
   4  10 -42    4.17    3.98
  -6  10 -42   -1.41    4.75
  42  10  -6   -2.91    3.88
 -10   6 -42    3.50    4.85
   6 -10 -42   -1.89    2.64
  42  10   6    1.25    2.67
 -10  -6 -42   -3.12    4.77
  -6 -10 -42    5.93    4.22
   6  10 -42    1.01    3.53
  -8  10 -42    0.47    5.02
 -10   8 -42   -7.12    4.94
 -10  -8 -42    0.46    4.98
  -8 -10 -42   -2.26    4.52
  10   8 -42   -1.11    2.77
   8  10 -42    1.63    3.12
 -10  10 -42    3.28    5.11
 -10 -10 -42   -2.58    4.97
  10  10 -42    7.28    2.82
   0  12 -42   15.33    4.44
 -12   0 -42   25.90    5.59
  42  12   0   20.75    3.67
   0 -12 -42   20.83    4.01
  -2  12 -42   52.26    5.11
 -12   2 -42   45.25    5.76
 -12  -2 -42   44.75    5.82
  42  12   2   41.63    3.91
   2 -12 -42   43.69    4.06
  -2 -12 -42   48.84    4.56
   2  12 -42   48.87    4.66
  -4  12 -42   16.01    4.96
 -12   4 -42   23.88    5.30
  42  12  -4   14.70    4.10
   4 -12 -42   24.73    3.29
 -12  -4 -42   25.15    5.15
  42  12   4   16.54    3.41
  -4 -12 -42   22.40    4.48
   4  12 -42   20.99    3.84
  -6  12 -42    8.02    5.08
 -12   6 -42   -5.05    5.15
  42  12  -6    2.55    3.62
  42  12   6   -0.10    2.92
 -12  -6 -42    4.05    4.98
  -6 -12 -42   11.60    4.51
   6  12 -42    6.22    3.64
  -8  12 -42   25.69    5.25
 -12   8 -42   27.24    5.34
  42  12  -8   16.03    4.13
  42  12   8   18.68    2.94
 -12  -8 -42   22.80    5.21
  -8 -12 -42   22.85    4.80
   8  12 -42   26.54    3.56
 -10  12 -42    2.46    5.13
 -12 -10 -42    2.42    5.09
 -10 -12 -42    6.08    4.61
  10  12 -42    2.48    2.83
 -12 -12 -42   71.78    5.90
 -14   0 -42    6.11    5.14
  42  14   0    4.26    3.62
   0 -14 -42    9.24    3.52
   0  14 -42    8.28    4.55
 -14  -2 -42   -1.72    4.84
  42  14  -2    2.37    3.83
   2 -14 -42   -1.93    3.22
  42  14   2   -3.29    3.53
  -2 -14 -42   -2.22    3.74
   2  14 -42    5.20    4.13
  -2  14 -42    9.24    4.74
  -4  14 -42    3.92    4.59
  42  14  -4    7.47    3.97
   4 -14 -42   -1.02    2.82
 -14  -4 -42    3.57    5.27
  42  14   4   -3.03    3.36
  -4 -14 -42   -0.27    3.95
   4  14 -42    3.90    3.88
  -6  14 -42   17.90    4.79
  42  14  -6   20.37    4.05
 -14  -6 -42   14.75    5.31
  42  14   6   13.95    3.28
  -6 -14 -42   19.24    4.07
   6  14 -42    6.90    3.71
  -8  14 -42    9.39    5.21
  42  14  -8   15.19    3.81
  14  42  -8   10.06    2.88
 -14  -8 -42   18.07    5.15
  42  14   8   16.71    3.01
  -8 -14 -42   20.55    4.40
   8  14 -42   11.79    3.29
 -10  14 -42    0.60    5.07
  42  14  10    0.61    2.50
 -14 -10 -42    4.92    4.88
  10  14 -42    4.32    2.96
 -10 -14 -42    2.58    4.55
 -14 -12 -42    5.81    4.61
 -12 -14 -42   13.13    4.89
 -14 -14 -42   14.18    4.76
  42  16   0   67.71    4.80
   0 -16 -42   54.96    4.29
   0  16 -42   66.86    5.49
  42  16  -2    9.27    3.81
   2 -16 -42   11.16    3.16
  42  16   2   10.22    3.83
  -2 -16 -42   13.90    3.87
   2  16 -42    8.04    4.20
  -2  16 -42   14.36    4.59
  42  16  -4   25.27    4.12
   4 -16 -42   14.90    2.89
  42  16   4   16.54    3.56
  -4 -16 -42   16.10    4.08
   4  16 -42   20.96    4.03
  -4  16 -42   28.07    5.16
  42  16  -6   19.20    4.10
  42  16   6   11.22    3.35
  -6 -16 -42   22.50    4.29
   6  16 -42   15.76    3.75
  -6  16 -42   17.76    5.11
  16  42  -8    4.42    2.86
  42  16  -8   12.06    4.07
  42  16   8    6.62    2.98
   8  16 -42   15.72    3.42
  -8 -16 -42    7.95    4.32
  -8  16 -42   12.64    4.93
  16  42 -10    2.53    2.50
 -16  10 -42    9.87    5.01
  42  16 -10    5.43    4.06
  10  16 -42    1.93    2.91
  42  16  10    5.01    2.74
 -10 -16 -42    5.24    4.54
 -16 -10 -42    1.16    4.82
 -10  16 -42    4.84    4.70
 -16  12 -42    2.26    4.64
 -16 -12 -42    9.75    4.87
  42  16  12    0.56    2.31
 -12 -16 -42    0.55    4.59
 -16  14 -42   48.21    5.18
 -16 -14 -42   50.67    5.14
 -14 -16 -42   43.10    5.08
 -16 -16 -42   58.85    5.33
 -16  16 -42   68.20    5.40
 -18   0 -42   40.73    5.44
  42  18   0   41.60    4.43
   0 -18 -42   42.37    3.92
   0  18 -42   47.11    4.78
 -18   2 -42   59.16    5.47
  42  18  -2   60.10    4.87
   2 -18 -42   48.70    3.74
  42  18   2   55.09    4.59
  -2 -18 -42   55.25    4.42
   2  18 -42   61.69    4.85
  -2  18 -42   50.73    5.25
 -18   4 -42    1.60    4.81
  42  18  -4    8.35    4.01
   4 -18 -42    4.67    2.42
  -4 -18 -42    0.74    3.53
  42  18   4    8.20    3.53
   4  18 -42    8.65    3.89
  -4  18 -42    1.31    4.68
 -18   6 -42   -1.44    4.98
  42  18  -6    2.49    3.95
   6  18 -42    1.81    3.65
  -6 -18 -42    6.53    3.88
  42  18   6   -0.97    3.39
  -6  18 -42    3.64    4.86
 -18   8 -42   11.46    4.70
  18  42  -8   11.24    3.09
  42  18  -8   23.18    4.19
   8  18 -42    7.68    3.34
  -8 -18 -42   10.42    4.07
  42  18   8   15.12    3.14
  -8  18 -42   11.26    4.98
 -18  10 -42    0.28    4.75
  42  18 -10    5.39    4.16
  10  18 -42    1.28    2.97
 -10 -18 -42    4.45    4.38
  42  18  10    5.61    2.77
 -10  18 -42    3.12    4.46
  18  42 -10    1.41    2.64
  42  18  12   89.24    4.38
 -12 -18 -42  114.02    6.00
 -18  12 -42  115.24    6.02
 -18  14 -42   11.06    4.44
 -14 -18 -42    9.02    4.38
 -14  18 -42    7.02    4.71
 -16 -18 -42    2.08    4.37
 -16  18 -42   -0.25    4.25
 -18  16 -42   -2.58    4.20
 -18  18 -42   85.55    5.36
 -18 -18 -42   78.16    5.45
 -20   0 -42   25.37    4.85
   0 -20 -42   20.68    3.27
  42  20   0   24.41    4.00
   0  20 -42   26.23    4.34
 -20   2 -42    3.05    4.70
 -20  -2 -42    2.51    4.70
   2 -20 -42    4.54    2.67
  42  20  -2    2.42    3.72
  -2 -20 -42    0.44    3.33
  42  20   2    8.13    3.72
   2  20 -42    6.67    3.96
  -2  20 -42   -0.14    4.29
 -20   4 -42    8.13    4.71
 -20  -4 -42    5.56    4.46
  42  20  -4    7.40    4.13
   4  20 -42    5.62    3.77
  -4 -20 -42    6.72    3.37
  42  20   4   -0.22    3.51
  -4  20 -42    7.94    4.52
 -20   6 -42    0.95    4.56
  20  42  -6    2.20    3.27
  42  20  -6    4.22    4.06
 -20  -6 -42    4.67    4.60
   6  20 -42    6.32    3.43
  -6 -20 -42    4.68    3.64
  42  20   6    5.10    3.33
  -6  20 -42    7.40    4.85
  20  42  -8   46.81    3.84
 -20   8 -42   60.26    5.41
  42  20  -8   57.80    4.82
 -20  -8 -42   54.74    5.49
   8  20 -42   57.52    4.15
  -8 -20 -42   52.88    4.65
  42  20   8   54.11    3.99
  -8  20 -42   70.40    5.60
 -20  10 -42   17.67    4.46
  42  20 -10   17.03    4.06
 -10 -20 -42   17.09    4.23
  42  20  10   12.02    3.03
  20  42 -10   17.89    2.95
 -20  12 -42   16.61    4.44
  20  42 -12   14.41    2.51
 -12 -20 -42   17.78    4.24
  42  20  12    9.38    2.61
  42  20  14   12.11    2.29
 -14 -20 -42   16.27    4.19
 -14  20 -42   13.25    4.30
 -20  14 -42   24.33    4.24
 -16 -20 -42    7.76    3.94
 -16  20 -42    2.93    4.15
 -20  16 -42   10.07    3.97
 -18 -20 -42    5.61    3.85
 -18  20 -42    9.93    3.66
 -20  18 -42    7.09    3.72
 -20  20 -42    0.19    3.36
 -22   0 -42    7.01    4.42
   0 -22 -42    8.35    2.85
  42  22   0    8.24    3.87
   0  22 -42    8.66    4.22
 -22   2 -42    5.95    4.43
 -22  -2 -42    8.97    4.56
   2 -22 -42    9.42    2.38
  42  22  -2   -0.12    3.85
  -2 -22 -42    2.01    3.03
   2  22 -42    6.62    3.66
  42  22   2    8.40    3.58
  -2  22 -42    0.13    4.39
 -22   4 -42    0.38    4.28
 -22  -4 -42   -0.65    4.37
  42  22  -4    6.51    3.75
   4  22 -42   -8.11    3.86
  -4 -22 -42    0.53    3.34
  -4  22 -42    0.67    4.44
  42  22   4    2.81    3.53
 -22   6 -42   -2.39    4.21
  22  42  -6    2.94    3.19
  42  22  -6    7.02    3.85
 -22  -6 -42    1.02    4.27
   6  22 -42    1.11    3.44
  -6 -22 -42    7.53    3.54
  -6  22 -42    0.93    4.42
  42  22   6    5.75    3.37
  22  42  -8    5.60    2.98
 -22   8 -42    3.06    4.07
  42  22  -8    7.15    3.96
 -22  -8 -42    4.01    4.19
  -8 -22 -42    5.09    3.60
  -8  22 -42    3.01    4.51
  42  22   8    7.30    3.13
 -22  10 -42    2.12    3.95
  42  22 -10    2.44    3.87
 -22 -10 -42   -1.46    4.18
  22  42 -10    0.34    2.69
 -10 -22 -42   -1.25    3.59
  42  22  10   -2.99    2.85
 -22  12 -42    1.69    3.73
  22  42 -12    0.94    2.35
 -22 -12 -42    5.05    4.23
 -12 -22 -42    4.49    3.85
  42  22  12    4.07    2.60
  22  42 -14    9.37    1.98
 -22 -14 -42   12.91    3.97
 -14 -22 -42   14.31    3.96
  42  22  14    7.08    2.29
 -14  22 -42   11.07    3.92
 -22  14 -42   11.52    3.70
 -22 -16 -42    8.68    3.73
 -16 -22 -42   14.11    3.72
 -16  22 -42    6.73    3.81
 -22  16 -42   10.14    3.61
 -22 -18 -42   -1.28    3.49
 -18 -22 -42   -0.49    3.48
 -18  22 -42    2.47    3.41
 -22  18 -42    4.46    3.18
 -20  22 -42    2.01    2.95
 -22  20 -42    6.48    2.90
 -22  22 -42   -1.70    2.46
 -24   0 -42    6.27    3.98
   0 -24 -42    5.19    2.54
  42  24   0    9.09    3.70
   0  24 -42   10.12    4.03
 -24   2 -42    8.59    4.04
 -24  -2 -42   10.07    4.12
  42  24  -2   10.71    3.77
   2  24 -42   10.50    3.81
  -2 -24 -42    5.08    2.73
  -2  24 -42    9.07    4.16
  42  24   2    3.92    3.50
 -24   4 -42    5.23    3.90
  24  42  -4    3.35    3.32
 -24  -4 -42    2.95    3.78
  42  24  -4    6.76    3.74
   4  24 -42    7.04    3.44
  -4  24 -42    3.00    4.16
  -4 -24 -42   -1.24    2.99
  42  24   4    3.68    3.21
  24  42  -6    1.24    3.13
 -24   6 -42    4.19    3.83
 -24  -6 -42   -2.33    3.85
  42  24  -6   -0.97    3.71
  -6  24 -42   -1.62    4.17
  -6 -24 -42   -0.60    3.19
  42  24   6    0.97    3.29
 -24   8 -42    0.11    3.59
  42  24  -8    4.54    3.75
 -24  -8 -42    4.22    3.92
  -8  24 -42    0.49    4.18
  -8 -24 -42    2.76    3.28
  42  24   8   -0.64    2.91
  24  42  -8    1.41    2.87
 -24  10 -42    1.15    3.56
  42  24 -10    1.75    3.66
 -24 -10 -42    5.97    3.90
  24  42 -10    4.66    2.51
 -10 -24 -42    5.35    3.43
  42  24  10    6.07    2.79
  24  42 -12    2.57    2.11
 -24 -12 -42    5.72    3.74
 -12 -24 -42    1.12    3.44
  42  24  12    3.09    2.52
 -24  12 -42    1.30    3.39
  24  42 -14   -0.49    1.77
 -24 -14 -42   -5.52    3.58
 -14  24 -42    2.78    3.64
 -14 -24 -42    3.55    3.42
  42  24  14    0.99    2.04
 -24  14 -42   -0.09    3.10
 -24 -16 -42    1.41    3.24
  42  24  16   -0.93    1.47
 -16  24 -42    4.63    3.34
 -16 -24 -42    3.28    3.37
 -24  16 -42    6.43    2.98
 -24 -18 -42    4.85    3.17
 -18  24 -42    0.97    3.06
 -18 -24 -42   -1.83    2.86
 -24  18 -42    0.39    2.63
 -24 -20 -42    0.47    2.80
 -20  24 -42   -0.84    2.63
 -24  20 -42    2.67    2.31
 -24 -22 -42    1.30    2.30
 -22  24 -42    1.47    2.03
 -24  22 -42   -0.96    1.90
 -24 -24 -42   -0.74    1.80
 -26   0 -42   -2.52    3.38
   0 -26 -42    3.34    1.90
   0  26 -42    3.72    3.67
  42  26   0    2.30    3.45
 -26   2 -42    4.37    3.49
 -26  -2 -42    6.19    3.52
  26  42  -2    2.95    3.27
  42  26  -2    2.02    3.56
  -2  26 -42   -1.15    3.84
  -2 -26 -42    1.37    2.40
  42  26   2   -1.47    3.13
 -26   4 -42    3.46    3.44
  26  42  -4    6.57    3.28
 -26  -4 -42    1.98    3.50
  42  26  -4    3.41    3.59
  -4 -26 -42    3.82    2.63
  42  26   4   -0.47    3.18
  -4  26 -42    7.19    4.04
 -26   6 -42    3.76    3.33
 -26  -6 -42    6.58    3.50
  42  26  -6   -4.04    3.55
  -6  26 -42   -1.38    3.94
  -6 -26 -42    4.99    2.93
  42  26   6    0.45    3.00
  26  42  -6   -2.72    2.99
 -26   8 -42    1.04    2.98
  42  26  -8    0.58    3.43
 -26  -8 -42    0.50    3.47
  -8  26 -42   -0.11    3.82
  -8 -26 -42    6.22    3.10
  26  42  -8    1.86    2.69
  42  26   8    5.44    2.87
  42  26 -10   -7.46    3.50
 -26 -10 -42    0.39    3.30
  26  42 -10   -5.32    2.48
 -10 -26 -42    0.45    3.10
  42  26  10    0.38    2.60
 -26  10 -42   -0.81    2.94
  26  42 -12    2.19    2.02
 -26 -12 -42    1.58    3.16
 -12 -26 -42   -1.16    2.96
  42  26  12    1.00    2.25
 -26  12 -42    2.12    2.77
 -26 -14 -42    9.34    3.15
 -14  26 -42    0.48    3.34
  42  26  14   -0.99    1.75
 -14 -26 -42   -0.95    3.03
 -26  14 -42    6.19    2.66
 -26 -16 -42   -1.37    2.90
  42  26  16    2.46    1.34
 -16  26 -42    7.42    3.03
 -16 -26 -42    1.06    2.88
 -26  16 -42    4.42    2.41
 -26 -18 -42   11.40    2.65
 -18  26 -42   12.37    2.74
 -18 -26 -42   13.73    2.90
 -26  18 -42    9.74    2.07
 -26 -20 -42    1.22    2.11
 -26  20 -42    2.43    1.58
 -26 -22 -42    1.57    1.79
 -24 -42 -26   -0.76    1.34
 -26 -24 -42   -1.34    1.28
 -24 -26 -42   -0.35    1.44
 -28   0 -42    7.06    2.94
  28  42   0    6.13    3.10
  42  28   0    6.49    3.22
 -28   2 -42    1.67    2.83
  28  42  -2   -2.04    2.97
 -28  -2 -42    1.97    3.03
  42  28  -2    1.91    3.17
  -2 -28 -42    1.08    1.82
  42  28   2    1.33    3.13
  28  42  -4    7.82    2.92
 -28   4 -42    2.82    2.78
 -28  -4 -42   -3.73    2.99
  42  28  -4   -3.78    3.17
  -4  28 -42    2.60    3.72
  -4 -28 -42   -0.55    2.10
  42  28   4   -2.65    2.95
 -28   6 -42    3.52    2.76
 -28  -6 -42    1.92    2.97
  42  28  -6    6.36    3.20
  -6  28 -42    8.06    3.74
  -6 -28 -42   10.01    2.49
  42  28   6    9.71    2.98
  28  42  -6    5.67    2.86
  42  28  -8    3.09    3.09
 -28  -8 -42    3.82    2.89
  -8  28 -42   11.49    3.72
  28  42  -8    5.66    2.47
  -8 -28 -42    3.36    2.60
  42  28   8    3.07    2.60
 -28   8 -42    4.61    2.61
 -28 -10 -42    9.70    2.82
  28  42 -10    0.82    2.11
 -10 -28 -42    2.70    2.64
  42  28  10    6.81    2.33
 -28  10 -42    4.68    2.48
  28  42 -12   -0.42    1.82
 -28 -12 -42   -2.47    2.70
 -12  28 -42    1.54    3.18
  42  28  12    0.93    1.91
 -12 -28 -42    3.12    2.64
 -28  12 -42    5.01    2.22
 -28 -14 -42   10.17    2.59
 -14  28 -42    6.22    2.82
  42  28  14    4.62    1.53
 -14 -28 -42    9.65    2.53
 -28  14 -42    7.58    1.96
 -28 -16 -42    2.47    2.21
 -16 -28 -42    2.53    2.31
 -28  16 -42    2.20    1.62
 -28 -18 -42    0.63    1.93
 -18 -28 -42   -2.11    2.09
 -28 -20 -42    0.33    1.62
 -20 -28 -42    2.61    1.88
 -22 -42 -28    1.04    1.25
  30  42   0    0.48    2.78
 -30   0 -42    7.06    2.39
  42  30   0    4.49    2.76
 -30   2 -42   -2.47    2.28
 -30  -2 -42    1.21    2.40
  30  42   2   -2.03    2.90
  42  30  -2    2.69    2.87
  42  30   2    1.62    2.63
  30  42  -2    2.69    2.72
 -30   4 -42    3.62    2.15
 -30  -4 -42    4.12    2.39
  30  42   4    3.17    2.89
  42  30  -4   -0.78    2.86
  -4 -30 -42   -0.10    1.55
  42  30   4    5.28    2.66
  30  42  -4    3.00    2.55
 -30  -6 -42   10.70    2.44
  42  30  -6   13.54    2.81
  30  42  -6   14.00    2.56
  -6 -30 -42    7.22    1.95
  42  30   6   11.14    2.61
 -30   6 -42   11.25    2.23
  42  30  -8    5.54    2.79
 -30  -8 -42    5.03    2.31
  30  42  -8    4.43    2.14
  -8 -30 -42    6.56    2.01
  42  30   8    5.98    2.33
 -30   8 -42    5.13    1.92
 -30 -10 -42   -4.76    2.17
  30  42 -10    0.21    1.72
  42  30  10    0.85    1.86
 -10 -30 -42   -2.48    2.11
 -30  10 -42    0.20    1.65
 -30 -12 -42    7.06    2.02
  42  30  12    6.98    1.66
 -12 -30 -42   10.61    2.20
 -30  12 -42    6.53    1.45
 -30 -14 -42    9.17    1.88
 -14 -30 -42    3.72    1.99
 -30 -16 -42    4.12    1.53
 -16 -30 -42    5.54    1.76
 -18 -42 -30    2.88    1.64
 -18 -30 -42    0.88    1.42
 -32   0 -42   -0.19    1.44
  42  32   0   -0.20    2.35
  32  42   0   -0.66    2.39
  32  42   2   15.87    2.63
 -32  -2 -42   11.98    1.71
  42  32  -2    9.23    2.43
  42  32   2   14.55    2.42
  32  42  -2   13.26    2.48
 -32   2 -42    7.45    1.54
  32  42   4   -0.07    2.39
 -32  -4 -42   -0.34    1.59
  42  32  -4    1.11    2.41
  42  32   4    3.82    2.25
  32  42  -4    3.73    2.12
 -32   4 -42    3.12    1.33
  -6 -42 -32   -0.58    1.46
 -32  -6 -42    1.41    1.56
  32  42   6    3.71    2.44
  42  32  -6   -3.10    2.23
  32  42  -6    2.68    1.92
  42  32   6    1.43    2.00
  -8 -42 -32    1.72    1.54
 -32  -8 -42    3.34    1.47
  32  42  -8    2.59    1.68
  42  32   8    3.30    1.81
  -8 -32 -42    1.66    1.33
 -10 -42 -32    1.79    1.56
 -32 -10 -42    1.75    1.35
  42  32  10    1.62    1.46
 -10 -32 -42    0.61    1.38
 -12 -42 -32    7.18    1.57
 -12 -32 -42    8.36    1.44
 -14 -42 -32    0.09    1.41
  32  42  14    2.21    1.55
 -14 -32 -42    0.04    1.21
  42  34   0   10.07    1.86
  34  42   0    6.26    1.78
  42  34  -2   -1.13    1.86
  42  34   2    0.59    1.74
  34  42  -2    0.73    1.72
  34  42   2   -2.36    1.71
  42  34  -4    0.86    1.74
  34  42  -4    0.23    1.51
  42  34   4    0.37    1.54
  34  42   4   -1.35    1.70
  34  42  -6    6.30    1.40
  42  34   6    4.19    1.49
  34  42   6    5.61    1.88
   1   1 -43   -1.78    3.78
  -1   1 -43   11.28    4.18
   1  -1 -43   -1.08    3.86
  -1  -1 -43    9.73    4.20
   1   3 -43   33.32    4.43
   3   1 -43   48.80    4.32
  -1   3 -43   36.55    4.64
   3  -1 -43   28.76    4.02
  -3   1 -43   34.64    4.86
   1  -3 -43   30.59    4.11
  -3  -1 -43   33.21    4.75
  -1  -3 -43   30.81    4.15
   3   3 -43    3.65    3.65
  -3   3 -43   -7.73    4.42
   3  -3 -43    0.87    3.35
  -3  -3 -43    1.45    4.18
   5   1 -43    5.60    3.31
   1   5 -43   19.14    4.16
  -1   5 -43   18.81    4.41
   5  -1 -43   11.22    3.33
  -5   1 -43   17.66    4.69
   1  -5 -43   10.92    3.71
  -5  -1 -43   14.57    4.55
  -1  -5 -43    9.75    4.02
   5   3 -43   20.57    3.65
   3   5 -43   21.71    3.96
  -3   5 -43   25.97    4.87
   5  -3 -43   24.23    3.35
  -5   3 -43   21.87    4.76
   3  -5 -43   23.23    3.73
  -5  -3 -43   31.76    4.77
  -3  -5 -43   15.62    4.45
   5   5 -43    5.98    3.32
  -5   5 -43    4.56    4.49
   5  -5 -43    3.97    2.89
  -5  -5 -43   -0.29    4.31
   7   1 -43    3.32    2.86
   1   7 -43   -2.09    4.08
   7  -1 -43   -0.21    2.86
  -1   7 -43   -1.01    3.99
  -7   1 -43    3.68    4.76
  -7  -1 -43   -3.97    4.76
   1  -7 -43    4.96    3.65
  -1  -7 -43    2.16    3.90
   7   3 -43    8.51    3.11
   3   7 -43   10.79    3.84
  -3   7 -43   14.44    4.40
   7  -3 -43    8.06    2.77
  -7   3 -43   11.22    4.86
   3  -7 -43   17.89    3.44
  -7  -3 -43   21.59    4.72
  -3  -7 -43   18.28    4.18
   5   7 -43   59.76    4.53
  -5   7 -43   65.90    5.60
  -7   5 -43   78.21    5.84
   5  -7 -43   57.32    4.08
  -7  -5 -43   65.48    5.56
  -5  -7 -43   69.77    5.35
   7   5 -43   64.47    4.25
   7  -5 -43   61.32    3.88
  -7   7 -43   -2.31    4.80
  -7  -7 -43    1.77    4.55
   7   7 -43    1.02    3.06
  -9   1 -43   91.54    6.40
   1  -9 -43   96.05    5.22
  -1  -9 -43   95.50    5.31
  43   9  -1   75.04    4.80
  43   9   1   79.64    4.60
  -9  -1 -43   89.29    6.39
   1   9 -43   87.91    5.64
  -1   9 -43   95.49    5.77
   3   9 -43   13.36    4.07
  -3   9 -43   19.28    4.58
  43   9   3   11.37    2.92
  -9   3 -43   19.92    4.83
   3  -9 -43   23.87    3.46
  -9  -3 -43   17.79    4.85
  -3  -9 -43   17.28    4.10
  -9  -5 -43  173.60    8.03
  -5  -9 -43  170.51    7.71
   9   5 -43  154.12    6.47
   5   9 -43  173.67    7.13
  -5   9 -43  175.31    8.04
  -9   5 -43  177.26    8.27
   5  -9 -43  154.75    6.53
  -7   9 -43    5.93    4.72
  -9   7 -43    2.61    4.97
  -9  -7 -43    7.60    4.70
  -7  -9 -43    7.09    4.26
   9   7 -43    7.14    2.85
   7   9 -43   -1.26    3.27
  -9   9 -43    3.95    5.08
  -9  -9 -43    0.15    4.55
   9   9 -43    2.43    2.81
   1 -11 -43   77.66    4.78
  -1 -11 -43   87.03    5.22
  43  11  -1   70.92    4.64
  43  11   1   78.76    4.63
 -11   1 -43   83.26    6.28
 -11  -1 -43   86.20    6.42
   1  11 -43   89.22    5.64
  -1  11 -43   93.01    5.87
  -3  11 -43    9.36    4.44
  43  11  -3   10.22    3.73
 -11   3 -43    6.15    5.14
  43  11   3   12.73    3.08
   3 -11 -43    7.31    3.12
 -11  -3 -43    8.73    5.13
  -3 -11 -43    6.80    3.96
   3  11 -43   12.04    3.99
   5 -11 -43   97.66    4.86
 -11  -5 -43  108.23    6.79
  43  11   5   88.84    4.82
  -5 -11 -43  107.78    6.14
   5  11 -43  113.44    5.67
  -5  11 -43  118.82    6.52
 -11   5 -43  116.83    6.60
  -7  11 -43    1.50    4.77
 -11   7 -43    5.34    5.09
  43  11   7    2.03    2.40
 -11  -7 -43    0.74    4.87
  -7 -11 -43    3.54    4.48
   7  11 -43   -0.34    3.26
  -9  11 -43   13.89    5.16
 -11   9 -43   17.58    5.18
 -11  -9 -43   15.07    4.72
  -9 -11 -43   23.03    4.43
   9  11 -43   21.39    3.13
 -11  11 -43   11.80    4.54
 -11 -11 -43   -2.29    4.73
 -13   1 -43   14.89    5.05
  43  13  -1   10.38    3.56
 -13  -1 -43    2.28    4.91
  43  13   1    6.92    3.34
   1 -13 -43   11.16    3.38
  -1 -13 -43   13.08    3.68
   1  13 -43   14.81    4.09
  -1  13 -43   13.05    4.43
  -3  13 -43   -1.16    4.70
 -13   3 -43    6.97    5.08
  43  13  -3    2.58    3.41
   3 -13 -43    1.55    2.93
 -13  -3 -43   -3.48    4.75
  43  13   3    2.40    3.11
  -3 -13 -43    4.00    3.63
   3  13 -43    8.55    4.01
   5 -13 -43   75.39    4.15
  -5  13 -43   87.26    6.07
  43  13  -5   85.21    5.13
  43  13   5   77.29    4.51
  -5 -13 -43   82.61    5.49
 -13   5 -43   91.81    6.41
 -13  -5 -43   80.08    6.25
   5  13 -43   83.93    5.02
  -7  13 -43    5.28    4.80
 -13   7 -43   12.13    4.70
  43  13   7   -0.27    2.55
 -13  -7 -43    8.83    4.98
  -7 -13 -43   -0.27    4.14
   7  13 -43    4.77    3.27
  -9  13 -43    8.31    4.92
  43  13   9   -0.08    2.30
 -13  -9 -43   -1.30    4.73
  -9 -13 -43    6.10    4.47
   9  13 -43    7.39    2.87
 -11  13 -43   10.18    4.87
 -13 -11 -43    6.35    4.63
 -11 -13 -43   11.63    4.28
 -13 -13 -43    0.27    4.55
  43  15  -1    6.43    3.50
  43  15   1    0.11    3.28
   1 -15 -43   -0.21    3.12
  -1 -15 -43    6.52    3.28
   1  15 -43    0.41    4.10
  -1  15 -43   -2.79    4.03
  43  15  -3   17.99    3.93
 -15  -3 -43   11.40    5.04
   3 -15 -43   11.40    2.84
  43  15   3   12.88    3.37
  -3 -15 -43    9.01    3.83
   3  15 -43   15.38    3.83
  -3  15 -43   14.36    4.42
  43  15  -5    1.43    3.71
 -15  -5 -43   -2.05    4.99
  43  15   5   -1.91    2.92
  -5 -15 -43    1.93    3.86
   5  15 -43    4.25    3.61
  -5  15 -43   -2.16    4.52
  43  15  -7    0.12    3.58
  15  43  -7   -1.83    2.74
 -15  -7 -43    2.59    4.90
  43  15   7    1.76    2.71
  -7 -15 -43    2.76    4.10
   7  15 -43    0.78    3.22
  -7  15 -43    0.72    4.89
  15  43  -9    7.47    2.39
  43  15   9    5.33    2.56
 -15  -9 -43   -0.28    4.70
  -9 -15 -43    9.18    4.16
   9  15 -43    3.49    2.94
  -9  15 -43    8.99    4.84
 -15 -11 -43    4.54    4.56
 -11 -15 -43    1.46    4.39
 -11  15 -43    2.80    4.97
 -15 -13 -43   24.83    5.02
 -13 -15 -43   28.11    4.79
 -15 -15 -43    2.03    4.29
 -15  15 -43   -1.17    4.39
  43  17  -1   35.89    4.12
  43  17   1   29.03    3.92
   1 -17 -43   30.10    3.36
  -1 -17 -43   30.10    3.71
   1  17 -43   33.16    4.43
  -1  17 -43   30.37    4.66
  43  17  -3   -1.98    3.75
   3 -17 -43    0.35    2.55
  43  17   3    1.07    3.23
  -3 -17 -43   -2.33    3.41
   3  17 -43   -1.89    3.82
  -3  17 -43    1.81    4.45
  43  17  -5   40.12    4.34
  43  17   5   36.38    3.66
  -5 -17 -43   44.31    4.34
   5  17 -43   45.54    4.16
  -5  17 -43   41.20    5.24
 -17   7 -43   -2.37    4.71
  17  43  -7    7.40    2.90
  43  17  -7    0.94    3.57
  43  17   7    2.72    2.97
  -7 -17 -43   -1.12    3.68
   7  17 -43    5.24    3.28
  -7  17 -43    1.40    4.62
 -17   9 -43    1.77    4.60
  43  17   9    3.83    2.65
   9  17 -43    5.05    2.92
  -9 -17 -43   -1.89    4.00
  -9  17 -43    2.76    4.79
  17  43  -9    3.11    2.45
 -17  11 -43   41.25    4.92
  43  17  11   31.06    2.89
 -17 -11 -43   43.82    5.10
 -11 -17 -43   43.42    4.61
 -17  13 -43   -0.51    4.36
 -17 -13 -43    2.29    4.39
 -13 -17 -43    1.61    4.26
 -17 -15 -43    6.56    4.25
 -15 -17 -43    8.28    4.15
 -15  17 -43    5.08    4.27
 -17  15 -43   10.87    4.08
 -17 -17 -43    2.75    4.07
 -17  17 -43    3.25    4.04
 -19   1 -43   34.73    4.97
 -19  -1 -43   25.29    4.59
  43  19  -1   21.37    3.98
   1 -19 -43   23.79    3.04
  43  19   1   20.44    3.75
  -1 -19 -43   25.59    3.36
   1  19 -43   17.18    4.18
  -1  19 -43   23.73    4.51
 -19   3 -43   11.75    4.33
  43  19  -3   14.85    3.86
   3 -19 -43   12.58    2.50
  43  19   3   16.64    3.56
  -3 -19 -43   11.51    3.35
   3  19 -43   13.26    3.90
  -3  19 -43   11.87    4.44
 -19   5 -43   -3.34    4.62
  43  19  -5   -5.36    3.72
  43  19   5    6.89    3.14
  -5 -19 -43   -1.71    3.53
   5  19 -43    4.80    3.53
  -5  19 -43    1.08    4.45
 -19   7 -43   10.35    4.36
  19  43  -7    3.75    2.87
  43  19  -7    7.15    3.61
  43  19   7    8.85    3.03
   7  19 -43    5.99    3.20
  -7 -19 -43    3.62    3.70
  -7  19 -43    1.74    4.56
 -19   9 -43   46.14    4.93
  43  19  -9   33.65    4.22
   9  19 -43   40.10    3.41
  43  19   9   33.63    3.24
  -9 -19 -43   41.93    4.26
  -9  19 -43   50.72    5.10
  19  43  -9   34.48    3.11
 -19  11 -43   14.88    4.44
  43  19  11    8.48    2.48
  19  43 -11   11.61    2.31
 -11 -19 -43   10.24    3.91
 -19  13 -43   46.47    4.59
  43  19  13   37.44    2.62
 -13 -19 -43   49.98    4.58
 -15 -19 -43    6.71    3.94
 -15  19 -43   -1.63    4.15
 -19  15 -43    3.27    3.88
 -17  19 -43   37.72    4.28
 -19  17 -43   35.78    4.21
 -19  19 -43   -1.18    3.53
 -21   1 -43   27.65    4.65
 -21  -1 -43   27.17    4.67
  43  21  -1   23.84    3.72
   1 -21 -43   18.07    2.71
  43  21   1   21.07    3.69
  -1 -21 -43   21.27    3.05
   1  21 -43   24.50    4.09
  -1  21 -43   20.51    4.39
 -21   3 -43   -5.92    4.45
 -21  -3 -43    3.16    4.42
  43  21  -3    4.90    3.40
  43  21   3    2.55    3.36
  -3 -21 -43   -2.77    3.09
   3  21 -43   -3.02    3.66
  -3  21 -43    6.49    4.05
 -21   5 -43   72.06    5.32
  43  21   5   70.85    4.37
  21  43  -5   60.38    4.14
  43  21  -5   66.00    4.75
 -21  -5 -43   73.12    5.39
   5  21 -43   62.14    4.58
  -5 -21 -43   62.94    4.32
  -5  21 -43   69.54    5.29
  21  43  -7    3.26    2.77
 -21   7 -43    2.67    4.15
  43  21  -7    0.43    3.79
 -21  -7 -43   -3.58    4.29
   7  21 -43    5.35    3.03
  43  21   7    0.09    2.87
  -7 -21 -43    1.18    3.43
  -7  21 -43    8.89    4.24
 -21   9 -43   35.72    4.50
  43  21  -9   29.11    4.16
 -21  -9 -43   31.23    4.38
  43  21   9   29.09    3.06
  -9 -21 -43   32.02    3.95
  -9  21 -43   40.57    4.80
  21  43  -9   27.03    3.01
  21  43 -11   51.18    3.15
  43  21  11   59.38    3.39
 -21 -11 -43   71.68    4.84
 -21  11 -43   72.72    4.87
 -11 -21 -43   62.16    4.61
  43  21  13    1.68    1.96
 -13 -21 -43    1.06    3.56
 -21  13 -43   -2.16    3.66
 -15 -21 -43    5.54    3.67
 -15  21 -43    2.60    3.78
 -21  15 -43   12.36    3.58
 -17 -21 -43    3.10    3.49
 -17  21 -43    1.99    3.52
 -21  17 -43   -1.80    3.29
 -19 -21 -43   37.87    3.66
 -19  21 -43   38.97    3.76
 -21  19 -43   53.03    3.72
 -21  21 -43    5.12    2.59
 -23   1 -43   24.72    4.33
 -23  -1 -43   17.55    4.23
   1 -23 -43   15.74    2.29
  43  23  -1   11.72    3.51
  43  23   1   13.00    3.50
  -1 -23 -43   18.18    2.71
   1  23 -43   20.36    3.92
  -1  23 -43   13.88    4.00
 -23   3 -43    1.84    4.01
 -23  -3 -43    1.85    3.95
  23  43  -3   -1.06    3.22
  43  23  -3    0.82    3.25
  43  23   3    3.57    3.17
   3  23 -43    0.44    3.32
  -3 -23 -43    0.79    2.77
  -3  23 -43   -2.87    4.03
 -23   5 -43    9.01    3.85
  23  43  -5   13.65    3.17
 -23  -5 -43    8.82    4.06
  43  23  -5   13.71    3.60
   5  23 -43   12.45    3.35
  43  23   5   10.47    3.17
  -5 -23 -43    8.24    3.07
  -5  23 -43   12.59    4.24
 -23   7 -43    2.19    3.71
  43  23  -7   -0.40    3.60
 -23  -7 -43   -2.93    3.63
  43  23   7    3.52    2.78
  -7 -23 -43    3.11    3.09
  -7  23 -43    4.74    4.07
  23  43  -7    5.09    2.66
 -23   9 -43    6.42    3.56
  43  23  -9    0.79    3.54
 -23  -9 -43    0.11    3.86
  43  23   9    0.23    2.52
  -9 -23 -43    1.38    3.16
  23  43  -9    1.57    2.44
  -9  23 -43   -1.62    4.08
 -23  11 -43    1.72    3.51
 -23 -11 -43    2.95    3.53
  43  23  11    3.98    2.26
 -11 -23 -43    8.14    3.41
  23  43 -13   -0.05    1.60
 -23 -13 -43    2.60    3.52
  43  23  13   -1.81    1.75
 -13 -23 -43    1.92    3.14
 -23  13 -43    3.54    3.30
 -23 -15 -43    2.63    3.29
 -15 -23 -43    1.75    3.30
 -15  23 -43   -2.27    3.49
 -23  15 -43   -1.70    3.04
 -23 -17 -43    2.78    3.02
 -17 -23 -43    0.09    3.12
 -17  23 -43   -0.09    3.10
 -23  17 -43   -4.54    2.70
 -23 -19 -43    7.62    2.84
 -19 -23 -43    8.69    2.97
 -19  23 -43    7.16    2.83
 -23  19 -43    0.36    2.41
 -23 -21 -43   -0.90    2.54
 -21  23 -43   -1.90    2.22
 -23  21 -43   -1.66    2.00
 -25   1 -43   33.84    3.92
 -25  -1 -43   33.49    3.90
  25  43  -1   30.87    3.58
  43  25  -1   32.97    3.63
  -1 -25 -43   22.48    2.34
  43  25   1   24.34    3.51
   1  25 -43   30.23    3.89
  -1  25 -43   28.01    3.95
  43  25  -3   70.93    4.52
  43  25   3   63.75    4.22
  -3 -25 -43   61.31    3.61
  25  43  -3   71.75    4.22
  -3  25 -43   66.06    4.88
 -25   3 -43   71.76    4.62
 -25  -3 -43   72.80    4.73
  25  43  -5    0.67    2.82
 -25   5 -43   -2.88    3.39
 -25  -5 -43    3.36    3.49
  43  25  -5   -0.28    3.37
  43  25   5    0.34    2.91
  -5 -25 -43    4.80    2.62
  -5  25 -43    5.10    3.85
 -25   7 -43   -0.29    3.24
  43  25  -7    0.28    3.34
 -25  -7 -43    3.29    3.44
  43  25   7   -0.32    2.71
  -7  25 -43    4.92    3.65
  -7 -25 -43    5.87    2.75
  25  43  -7   -3.00    2.61
 -25  -9 -43  169.13    6.78
  43  25  -9  152.63    6.61
  43  25   9  140.12    6.08
  -9 -25 -43  147.94    6.38
  -9  25 -43  174.73    7.15
 -25   9 -43  164.90    6.57
 -25 -11 -43   87.34    4.65
  43  25  11   66.41    3.58
 -11 -25 -43   88.14    4.36
 -25  11 -43   93.13    4.41
 -25 -13 -43   12.82    3.26
  43  25  13   10.97    1.76
 -13  25 -43   11.87    3.50
 -13 -25 -43   12.04    2.94
 -25  13 -43   11.05    2.85
 -25 -15 -43    5.39    2.82
 -15  25 -43    5.02    3.10
 -15 -25 -43    2.01    2.86
 -25  15 -43    4.41    2.61
 -25 -17 -43   47.12    3.21
 -17  25 -43   39.02    3.32
 -17 -25 -43   42.74    3.23
 -25  17 -43   32.87    2.78
 -25 -19 -43    6.48    2.27
 -19 -25 -43    6.93    2.38
 -19  25 -43   10.96    2.34
 -25  19 -43    2.62    1.79
 -25 -21 -43   38.30    2.47
 -25 -23 -43   14.34    1.66
 -27   1 -43    0.62    2.96
 -27  -1 -43    6.85    3.06
  27  43  -1    2.20    2.93
  27  43   1    4.78    3.12
  43  27  -1    4.59    2.91
  43  27   1    6.35    2.94
  27  43  -3    4.18    2.80
 -27   3 -43   -2.59    2.86
 -27  -3 -43    0.80    2.93
  43  27  -3   -5.97    3.14
  43  27   3    0.48    2.81
  -3 -27 -43   -1.74    1.98
  -3  27 -43    4.68    3.47
 -27   5 -43    9.84    2.79
 -27  -5 -43   10.74    3.01
  43  27  -5   10.66    3.14
  43  27   5    7.66    2.72
  -5  27 -43    7.68    3.51
  -5 -27 -43    8.92    2.31
  27  43  -5    9.62    2.64
 -27   7 -43   10.56    2.78
  43  27  -7   17.59    2.95
 -27  -7 -43   16.08    3.12
  -7  27 -43   11.21    3.62
  43  27   7   13.06    2.59
  -7 -27 -43    7.63    2.47
  27  43  -7   10.60    2.45
 -27  -9 -43    3.37    2.83
  27  43  -9    0.24    2.04
  43  27   9    3.06    2.22
  -9 -27 -43    0.22    2.48
 -27   9 -43    1.97    2.52
  27  43 -11    1.43    1.65
 -27 -11 -43    0.08    2.63
  43  27  11    0.33    1.84
 -11 -27 -43    0.07    2.54
 -27  11 -43   -0.42    2.36
 -27 -13 -43    3.28    2.55
  43  27  13    3.38    1.41
 -13  27 -43    3.26    3.07
 -13 -27 -43    1.00    2.36
 -27  13 -43   -2.59    2.10
 -27 -15 -43   -2.67    2.36
 -15  27 -43    3.53    2.59
 -15 -27 -43    1.75    2.29
 -27  15 -43   -1.10    1.77
 -27 -17 -43    0.18    1.89
 -17 -27 -43   -1.11    2.16
 -27  17 -43   -2.03    1.45
 -27 -19 -43    2.13    1.70
 -19 -27 -43    2.15    1.77
 -27 -21 -43    0.20    1.21
 -21 -27 -43   -2.45    1.49
  29  43  -1   15.49    2.76
 -29   1 -43   15.78    2.52
 -29  -1 -43   13.01    2.52
  29  43   1   13.58    2.84
  43  29  -1   16.30    2.81
  43  29   1   16.32    2.79
 -29   3 -43    3.07    2.27
 -29  -3 -43    4.65    2.41
  29  43   3    0.31    2.70
  43  29  -3    2.16    2.63
  -3 -29 -43   -0.53    1.23
  43  29   3    1.34    2.49
  29  43  -3    1.89    2.39
 -29   5 -43   30.05    2.57
 -29  -5 -43   21.35    2.72
  43  29  -5   27.27    3.08
  29  43   5   24.99    3.06
  43  29   5   28.41    2.70
  -5 -29 -43   15.08    1.96
  29  43  -5   25.63    2.61
  43  29  -7    5.53    2.66
 -29  -7 -43    3.08    2.29
  29  43  -7    0.87    1.96
  43  29   7    3.40    2.12
  -7 -29 -43    1.27    1.80
 -29   7 -43    0.55    2.09
 -29  -9 -43    6.20    2.19
  29  43  -9    3.80    1.71
  43  29   9    4.28    1.87
  -9 -29 -43    6.99    1.93
 -29   9 -43    7.93    1.88
 -29 -11 -43   12.39    2.21
  43  29  11    9.41    1.64
 -11 -29 -43   16.99    2.18
 -29  11 -43   11.32    1.72
 -29 -13 -43    2.00    1.84
 -13 -29 -43   -0.11    1.83
 -29 -15 -43   13.38    1.84
 -15 -29 -43   12.88    1.95
 -29 -17 -43    1.95    1.30
 -17 -29 -43    2.72    1.49
 -31   1 -43    6.41    1.62
 -31  -1 -43    6.34    1.75
  43  31  -1    6.02    2.23
  43  31   1    6.01    2.27
  31  43  -1   12.01    2.29
  31  43   1   10.10    2.30
  31  43   3    0.51    2.27
 -31  -3 -43    4.59    1.63
  43  31  -3    9.06    2.36
  43  31   3    6.41    2.15
  31  43  -3    5.40    2.02
 -31   3 -43    4.46    1.51
 -31  -5 -43    3.97    1.63
  31  43   5    8.31    2.30
  43  31  -5    8.20    2.22
  43  31   5    5.70    1.91
  31  43  -5    2.67    1.82
 -31   5 -43    3.35    1.38
  -7 -43 -31    2.18    1.43
 -31  -7 -43    3.75    1.56
  31  43   7    1.36    2.16
  31  43  -7    2.42    1.56
  43  31   7    2.67    1.65
  -9 -43 -31    4.70    1.55
 -31  -9 -43    5.40    1.46
  31  43   9   11.49    2.24
  43  31   9    7.13    1.47
 -11 -43 -31    5.42    1.51
 -31 -11 -43    5.57    1.35
 -11 -31 -43    1.46    1.29
 -13 -43 -31    3.94    1.39
  43  33  -1    5.44    1.71
  43  33   1    3.09    1.67
  33  43  -1    3.10    1.54
  33  43   1   -0.05    1.72
  43  33   3    2.30    1.42
  33  43  -3    0.04    1.42
  33  43   3    3.18    1.76
  33  43  -5   19.20    1.62
  43  33   5   24.57    1.73
  33  43   5   27.09    2.08
  33  43   7   -0.87    1.62
  33  43   9    1.35    1.49
   0   0 -44  235.02    9.57
   0   2 -44   -2.43    3.97
   2   0 -44   -1.26    3.59
  -2   0 -44   -4.17    4.04
   0  -2 -44    1.31    3.58
   2   2 -44   -0.38    3.54
  -2   2 -44    8.70    4.28
   2  -2 -44    0.87    3.50
  -2  -2 -44    3.02    4.02
   4   0 -44   24.60    3.57
   0   4 -44   25.90    4.13
  -4   0 -44   19.34    4.54
   0  -4 -44   22.42    4.03
   4   2 -44   11.17    3.47
   2   4 -44   17.53    3.85
  -2   4 -44   18.50    4.53
   4  -2 -44   11.67    3.29
  -4   2 -44   16.62    4.50
   2  -4 -44   14.63    3.72
  -4  -2 -44   10.93    4.41
  -2  -4 -44   22.73    4.07
   4   4 -44   40.73    4.11
  -4   4 -44   54.36    5.14
   4  -4 -44   37.39    3.74
  -4  -4 -44   43.99    4.79
   6   0 -44   34.77    3.51
   0   6 -44   34.83    4.61
  -6   0 -44   41.05    5.10
   0  -6 -44   41.71    4.26
   6   2 -44    0.96    2.93
   2   6 -44    3.22    3.83
   6  -2 -44    1.23    2.84
  -2   6 -44   -1.55    4.15
  -6   2 -44    3.97    4.61
   2  -6 -44   -3.05    3.38
  -6  -2 -44   -6.24    4.56
  -2  -6 -44   -0.66    3.70
   6   4 -44   10.16    3.22
   4   6 -44   13.74    3.37
  -4   6 -44   15.04    4.58
   6  -4 -44   17.40    2.92
  -6   4 -44   21.80    4.87
   4  -6 -44   17.14    3.24
  -6  -4 -44   22.39    4.65
  -4  -6 -44   17.11    4.32
  -6   6 -44   -0.73    4.77
   6  -6 -44    5.36    2.68
  -6  -6 -44    4.53    4.45
   6   6 -44    1.11    3.10
   0  -8 -44   96.54    5.57
   0   8 -44  112.53    5.92
  -8   0 -44  109.00    6.43
   2   8 -44   15.34    4.03
  -2   8 -44   12.91    4.42
  -8   2 -44   20.60    4.74
   2  -8 -44   16.02    3.37
  -8  -2 -44   17.47    4.82
  -2  -8 -44   22.18    3.96
   8   2 -44   17.07    2.83
  -4   8 -44    8.06    4.23
  -8   4 -44    3.56    4.78
   4  -8 -44    6.76    2.90
  -8  -4 -44    6.40    4.46
  -4  -8 -44   13.62    4.12
   8   4 -44    3.28    2.62
   4   8 -44    5.60    3.64
  -6   8 -44   14.00    4.47
  -8   6 -44   16.28    4.89
  -8  -6 -44   17.21    4.31
  -6  -8 -44    8.71    4.25
   8   6 -44   11.24    2.88
   6   8 -44    8.05    3.19
  -8   8 -44    6.00    4.77
  -8  -8 -44    9.95    4.56
   8   8 -44    5.78    2.86
   0  10 -44   70.01    4.88
 -10   0 -44   59.83    5.81
   0 -10 -44   59.00    4.38
  -2  10 -44    1.11    4.27
 -10   2 -44    3.85    4.82
   2 -10 -44    3.27    3.06
 -10  -2 -44   -4.70    4.77
  -2 -10 -44    4.27    3.71
   2  10 -44    1.93    3.83
  -4  10 -44   -4.82    4.24
 -10   4 -44    5.92    4.88
   4 -10 -44   -2.82    2.72
 -10  -4 -44   -1.02    4.79
  -4 -10 -44    2.48    3.82
   4  10 -44   -1.94    3.62
  -6  10 -44   -1.44    4.30
 -10   6 -44    2.94    4.80
 -10  -6 -44    2.01    4.61
  -6 -10 -44    4.30    4.22
   6  10 -44    1.01    3.26
  -8  10 -44    1.15    4.86
 -10   8 -44   -0.58    4.74
 -10  -8 -44   -5.34    4.52
  -8 -10 -44   -3.95    4.11
   8  10 -44   -1.99    2.96
 -10  10 -44   15.27    4.51
 -10 -10 -44   10.53    4.45
  44  12   0   19.55    3.31
 -12   0 -44   22.37    5.15
   0 -12 -44   21.40    3.61
   0  12 -44   20.14    4.19
  44  12  -2    4.27    3.30
 -12   2 -44    5.27    4.87
  44  12   2    3.86    2.97
 -12  -2 -44   -0.58    4.88
   2 -12 -44    3.00    2.96
  -2 -12 -44    4.34    3.56
   2  12 -44   -0.26    3.91
  -2  12 -44    0.14    4.21
  -4  12 -44   -3.49    4.47
 -12   4 -44    1.75    4.89
  44  12   4   -3.22    2.69
   4 -12 -44   -0.09    2.59
 -12  -4 -44    7.23    4.72
  -4 -12 -44   -1.64    3.84
   4  12 -44    0.36    3.46
  -6  12 -44   40.51    5.04
 -12   6 -44   32.91    5.08
  44  12   6   30.42    2.93
 -12  -6 -44   39.76    5.20
  -6 -12 -44   36.97    4.54
   6  12 -44   34.48    3.73
  -8  12 -44   -0.84    4.55
 -12   8 -44    6.14    4.96
 -12  -8 -44    4.32    4.59
  -8 -12 -44    7.25    4.16
   8  12 -44    2.38    2.83
 -10  12 -44   -1.25    4.74
 -12  10 -44    7.13    4.76
 -12 -10 -44   -1.76    4.48
 -10 -12 -44    2.65    4.45
 -12  12 -44   15.60    4.76
 -12 -12 -44   11.81    4.38
 -14   0 -44   33.62    5.17
  44  14   0   35.18    3.71
   0 -14 -44   33.35    3.71
   0  14 -44   35.09    4.52
 -14   2 -44    2.43    4.81
  44  14  -2    0.54    3.18
  44  14   2    5.02    3.00
 -14  -2 -44   -1.71    4.80
   2 -14 -44    2.90    2.80
  -2 -14 -44    2.06    3.41
   2  14 -44    3.27    3.81
  -2  14 -44    7.82    4.30
 -14   4 -44   17.38    4.84
  44  14  -4   24.58    3.88
   4 -14 -44   15.11    2.58
  44  14   4   16.68    3.06
 -14  -4 -44   24.92    4.87
  -4 -14 -44   28.01    4.04
   4  14 -44   19.98    3.80
  -4  14 -44   23.60    4.64
  14  44  -6   -1.01    2.52
  44  14   6    1.69    2.56
 -14  -6 -44    0.98    4.52
  -6 -14 -44    3.98    3.86
   6  14 -44   -4.26    3.25
  -6  14 -44   -3.73    4.58
  44  14   8    7.08    2.24
 -14  -8 -44    8.87    4.63
  -8 -14 -44   10.76    3.98
   8  14 -44    6.53    2.97
  -8  14 -44    6.88    4.65
 -14 -10 -44    9.28    4.64
 -10 -14 -44    9.66    4.25
  10  14 -44    2.72    2.47
 -10  14 -44    8.00    4.77
 -14 -12 -44   25.49    4.67
 -12 -14 -44   23.26    4.43
 -14 -14 -44    6.38    4.27
  44  16   0    4.54    3.18
   0 -16 -44    1.69    3.01
   0  16 -44    8.30    3.80
  44  16  -2   20.23    3.69
  44  16   2   17.10    3.28
   2 -16 -44   13.26    2.84
  -2 -16 -44   21.70    3.54
   2  16 -44   26.87    3.93
  -2  16 -44   19.09    4.43
  -4 -16 -44   66.46    4.54
  44  16  -4   61.99    4.60
  44  16   4   56.07    3.95
   4  16 -44   66.00    4.53
  -4  16 -44   67.74    5.35
  44  16  -6   14.20    3.63
  16  44  -6    3.93    2.62
 -16  -6 -44    6.21    4.78
  44  16   6    5.58    2.66
  -6 -16 -44    1.65    3.70
   6  16 -44    6.58    3.26
  -6  16 -44    9.53    4.55
  16  44  -8   23.90    2.67
  44  16   8   24.12    2.84
 -16  -8 -44   39.99    5.07
  -8 -16 -44   33.87    4.17
   8  16 -44   28.20    3.21
  -8  16 -44   37.77    4.79
 -16 -10 -44    4.48    4.39
  10  16 -44   -2.30    2.43
 -10 -16 -44   -1.57    4.03
 -10  16 -44    1.44    4.44
 -16 -12 -44   -5.30    4.45
 -12 -16 -44    6.32    4.09
 -16 -14 -44   41.93    4.69
 -14 -16 -44   36.68    4.49
 -16  14 -44   39.18    4.67
 -16 -16 -44   74.39    4.98
 -16  16 -44   67.74    5.13
  44  18   0   25.07    3.61
   0 -18 -44   27.12    3.14
   0  18 -44   27.67    4.31
  44  18  -2   -1.15    3.44
   2 -18 -44   -0.95    2.42
  44  18   2    1.86    3.15
  -2 -18 -44    3.57    3.01
   2  18 -44   -3.54    3.60
  -2  18 -44    4.16    4.03
 -18   4 -44    6.65    4.35
  44  18  -4    7.09    3.61
  44  18   4    4.16    2.88
  -4 -18 -44    7.61    3.36
   4  18 -44    2.67    3.52
  -4  18 -44   15.64    4.17
 -18   6 -44   20.78    4.55
  18  44  -6   13.33    2.85
  44  18  -6   14.08    3.62
  44  18   6   14.15    2.87
  -6 -18 -44   15.08    3.57
   6  18 -44   15.97    3.33
  -6  18 -44   15.31    4.36
 -18   8 -44    2.01    4.37
  44  18   8    2.01    2.42
   8  18 -44   -1.09    2.74
  -8 -18 -44    5.51    3.67
  -8  18 -44   -3.70    4.17
  18  44  -8   -1.12    2.42
 -18  10 -44   19.38    4.36
  44  18  10   13.37    2.18
 -10 -18 -44   15.57    3.84
 -10  18 -44   15.99    4.31
 -18  12 -44    7.12    3.92
 -12 -18 -44    1.45    3.72
 -18 -14 -44    1.22    3.87
 -14 -18 -44    4.66    3.72
 -18  14 -44   -0.22    3.93
 -18 -16 -44   -4.60    3.61
 -16 -18 -44   -1.76    3.67
 -16  18 -44    3.86    3.64
 -18  16 -44    1.91    3.64
 -18 -18 -44    6.77    3.40
 -18  18 -44    3.43    3.45
   0 -20 -44   56.45    3.65
  44  20   0   65.65    4.29
 -20   0 -44   60.68    5.12
   0  20 -44   63.78    4.81
 -20   2 -44    5.65    4.17
 -20  -2 -44    1.72    4.29
  44  20  -2    0.10    3.33
   2 -20 -44    4.91    2.04
  44  20   2    3.41    3.08
  -2 -20 -44    1.79    2.73
   2  20 -44   -0.56    3.46
  -2  20 -44    3.61    3.95
 -20   4 -44   10.97    4.33
  44  20  -4    8.94    3.48
  20  44  -4   17.74    3.04
 -20  -4 -44   11.59    4.39
  44  20   4    8.44    2.99
  -4 -20 -44    5.79    3.04
   4  20 -44    8.25    3.41
  -4  20 -44   13.16    4.21
  20  44  -6   30.41    3.12
 -20   6 -44   36.12    4.34
  44  20  -6   33.82    3.92
  44  20   6   34.52    3.12
  -6 -20 -44   31.38    3.66
   6  20 -44   27.22    3.47
  -6  20 -44   34.88    4.66
 -20   8 -44   18.11    4.09
  44  20   8   17.54    2.66
  -8 -20 -44   21.08    3.58
  -8  20 -44   26.91    4.36
  20  44  -8   12.62    2.56
 -20  10 -44    6.81    3.85
  44  20  10    5.50    2.19
  20  44 -10    7.27    2.07
 -10 -20 -44    4.88    3.52
 -10  20 -44   14.18    4.12
 -12 -20 -44    4.71    3.43
 -20  12 -44    6.44    3.76
 -14 -20 -44   12.62    3.63
 -20  14 -44    7.94    3.62
 -16 -20 -44   -0.66    3.39
 -16  20 -44    1.78    3.52
 -20  16 -44    4.19    3.22
 -18 -20 -44    8.52    3.27
 -18  20 -44    7.07    3.16
 -20  18 -44    5.49    3.06
 -20  20 -44   59.11    3.74
 -22   0 -44    3.40    3.97
  44  22   0    2.05    3.07
   0 -22 -44    4.32    2.09
   0  22 -44    1.76    3.57
 -22   2 -44    4.28    3.87
 -22  -2 -44   -3.50    3.77
  44  22  -2    3.04    3.25
  44  22   2    0.36    3.03
  -2 -22 -44   -0.39    2.54
   2  22 -44    6.75    3.47
  -2  22 -44   -1.24    3.67
 -22   4 -44    7.43    3.92
  22  44  -4    4.62    2.90
 -22  -4 -44    9.62    3.99
  44  22  -4    1.82    3.27
  44  22   4    4.02    2.89
  -4 -22 -44    5.23    2.80
   4  22 -44    5.43    3.23
  -4  22 -44    4.00    3.94
  22  44  -6    0.94    2.52
 -22   6 -44    8.90    3.77
  44  22  -6    4.21    3.22
 -22  -6 -44    3.08    3.64
  44  22   6    2.31    2.63
  -6 -22 -44    5.61    3.01
  -6  22 -44   -1.25    3.87
 -22   8 -44    8.79    3.76
 -22  -8 -44    9.66    3.83
  44  22   8    6.91    2.52
  -8 -22 -44   11.16    3.16
  -8  22 -44   12.57    4.07
  22  44  -8    9.19    2.27
 -22  10 -44    2.41    3.55
 -22 -10 -44   -7.89    3.69
  44  22  10   -2.12    2.21
  22  44 -10   -1.50    1.84
 -10 -22 -44   -3.65    3.14
 -10  22 -44    6.32    3.88
  44  22  12   -0.05    1.67
 -22 -12 -44    4.85    3.47
 -12 -22 -44   -0.74    3.20
 -22  12 -44    7.86    3.33
 -22 -14 -44   -1.86    3.38
 -14 -22 -44    1.25    3.11
 -14  22 -44   -4.78    3.44
 -22  14 -44   -0.63    3.18
 -16 -22 -44    7.08    3.05
 -16  22 -44    6.80    3.21
 -22  16 -44    5.86    2.91
 -18 -22 -44    5.44    2.76
 -18  22 -44   -0.96    2.74
 -22  18 -44    4.53    2.61
 -20 -22 -44    3.81    2.50
 -20  22 -44    2.78    2.27
 -22  20 -44    1.93    2.23
 -22  22 -44    1.79    1.77
 -24   0 -44   35.11    4.04
  44  24   0   35.38    3.41
   0  24 -44   32.31    3.75
 -24   2 -44    7.43    3.56
 -24  -2 -44    7.58    3.48
  24  44  -2    7.42    2.94
  44  24  -2   14.06    3.20
  44  24   2   10.18    2.99
  -2 -24 -44    4.18    2.15
   2  24 -44    8.49    3.12
  -2  24 -44   10.14    3.73
  24  44  -4    0.32    2.69
 -24   4 -44    5.81    3.35
 -24  -4 -44    3.60    3.41
  44  24  -4   -0.53    3.04
  44  24   4    2.54    2.68
  -4 -24 -44    4.02    2.28
  -4  24 -44    6.22    3.65
 -24   6 -44    5.45    3.29
  44  24  -6    4.31    3.16
 -24  -6 -44    0.98    3.45
  44  24   6    1.92    2.45
  -6 -24 -44   13.01    2.73
  -6  24 -44    5.36    3.57
  24  44  -6    7.27    2.57
 -24   8 -44    3.03    3.08
 -24  -8 -44    4.58    3.41
  44  24   8   -0.53    2.22
  -8 -24 -44    0.08    2.72
  24  44  -8   -1.52    2.13
  -8  24 -44    8.86    3.79
 -24 -10 -44    9.36    3.13
  24  44 -10    4.27    1.70
  44  24  10    5.41    1.87
 -10 -24 -44    3.69    2.78
 -24  10 -44    7.02    3.07
 -24 -12 -44    2.09    3.13
  44  24  12    1.70    1.46
 -12 -24 -44    0.32    2.79
 -24  12 -44   -0.58    2.81
 -24 -14 -44    7.26    2.83
 -14 -24 -44   10.11    2.75
 -14  24 -44   13.75    3.29
 -24  14 -44   17.76    2.74
 -24 -16 -44   26.25    2.92
 -16 -24 -44   23.55    2.85
 -16  24 -44   22.06    3.09
 -24  16 -44   22.57    2.64
 -24 -18 -44    9.36    2.45
 -18 -24 -44   11.06    2.45
 -18  24 -44    2.81    2.35
 -24  18 -44    4.63    2.00
 -24 -20 -44    9.85    1.97
 -20 -24 -44    9.88    2.12
 -20  24 -44    8.47    2.00
 -24  20 -44    8.05    1.57
 -24 -22 -44    1.07    1.40
 -26   0 -44   34.33    3.38
  26  44   0   31.03    3.23
  44  26   0   34.04    3.23
  26  44  -2    5.08    2.71
 -26   2 -44    6.63    2.88
 -26  -2 -44    2.53    3.04
  44  26  -2    4.76    2.81
  44  26   2    5.12    2.62
  -2 -26 -44    3.11    1.61
  -2  26 -44    3.84    3.26
 -26   4 -44    0.92    2.84
 -26  -4 -44    0.78    2.99
  44  26  -4    0.64    2.87
  44  26   4    4.42    2.51
  -4 -26 -44   -0.70    1.85
  -4  26 -44   -1.90    3.34
  26  44  -4    3.96    2.40
 -26   6 -44    1.69    2.72
  44  26  -6    0.08    2.74
 -26  -6 -44   -0.59    2.93
  44  26   6    3.10    2.30
  -6 -26 -44   -0.06    2.06
  -6  26 -44   -3.88    3.26
  26  44  -6    1.09    2.13
 -26  -8 -44    3.84    2.79
  44  26   8    1.12    2.01
  26  44  -8   -0.89    1.80
  -8 -26 -44    2.17    2.25
  -8  26 -44   -1.94    3.26
 -26   8 -44    4.48    2.61
 -26 -10 -44    8.04    2.75
  26  44 -10    4.46    1.52
  44  26  10    5.05    1.64
 -10 -26 -44    6.40    2.40
 -26  10 -44    2.75    2.50
 -26 -12 -44    9.32    2.64
  44  26  12    3.03    1.27
 -12 -26 -44    3.46    2.31
 -26  12 -44    3.45    2.26
 -26 -14 -44    5.55    2.31
 -14 -26 -44    5.38    2.23
 -14  26 -44    3.40    2.78
 -26  14 -44    3.70    1.96
 -26 -16 -44    1.34    2.05
 -16 -26 -44    3.24    1.92
 -26  16 -44    0.94    1.60
 -26 -18 -44    0.89    1.82
 -18 -26 -44    2.93    1.85
 -26 -20 -44    1.78    1.36
 -20 -26 -44   -0.31    1.35
  28  44   0    0.48    2.44
 -28   0 -44    3.54    2.41
  44  28   0    0.61    2.50
 -28   2 -44    3.73    2.38
 -28  -2 -44    4.33    2.42
  28  44   2    2.85    2.57
  44  28  -2    5.26    2.47
  44  28   2    0.26    2.34
  28  44  -2    2.30    2.27
 -28   4 -44    7.81    2.32
 -28  -4 -44    7.06    2.47
  44  28  -4    3.33    2.55
  28  44   4   10.42    2.62
  44  28   4    7.04    2.25
  -4 -28 -44    4.07    1.31
  28  44  -4    4.99    2.17
 -28  -6 -44    0.48    2.33
  44  28   6    0.45    1.87
  -6 -28 -44    0.05    1.56
  28  44  -6    0.92    1.90
 -28   6 -44   -0.06    2.05
 -28  -8 -44   -0.46    2.21
  28  44  -8    3.60    1.54
  44  28   8    2.41    1.66
  -8 -28 -44    1.20    1.67
 -28   8 -44   -0.59    1.96
 -28 -10 -44   -0.25    2.04
  44  28  10   -0.16    1.32
 -10 -28 -44   -1.18    1.77
 -28  10 -44    3.47    1.69
 -28 -12 -44   -0.63    1.91
 -12 -28 -44    0.21    1.79
 -28  12 -44    0.87    1.47
 -28 -14 -44    0.97    1.62
 -14 -28 -44    2.69    1.62
 -28 -16 -44    5.70    1.46
 -16 -28 -44    3.86    1.51
 -30   0 -44   23.73    2.05
  44  30   0   22.91    2.33
  30  44   0   25.37    2.34
 -30  -2 -44    1.18    1.67
  44  30  -2    4.27    2.15
  44  30   2    3.25    1.86
  30  44  -2   -1.24    1.87
  30  44   2    1.29    2.02
 -30   2 -44   -1.61    1.58
  30  44   4    6.63    2.11
 -30  -4 -44    6.36    1.74
  44  30   4    7.61    1.82
  30  44  -4    2.58    1.69
 -30   4 -44    3.75    1.52
 -30  -6 -44    8.81    1.71
  30  44   6   12.86    2.12
  44  30   6    6.39    1.60
  30  44  -6    8.95    1.55
 -30   6 -44    8.37    1.44
  -8 -44 -30    1.16    1.31
 -30  -8 -44    0.83    1.49
  30  44   8    1.41    2.03
  44  30   8   -1.20    1.22
 -10 -44 -30    3.67    1.38
 -30 -10 -44    3.38    1.36
  30  44  10    3.27    1.73
 -12 -44 -30   -0.77    1.29
  30  44  12    5.86    1.75
  32  44   0    9.96    1.54
  44  32   2    0.37    1.38
  32  44  -2   -0.94    1.29
  32  44   2   -0.09    1.49
  44  32   4   -0.95    1.22
  32  44   4   -1.43    1.46
  32  44   6    2.04    1.40
  32  44   8    1.30    1.36
   1   1 -45   -1.61    3.73
  -1   1 -45    1.56    3.77
   1  -1 -45   -1.95    3.60
  -1  -1 -45   -1.67    3.69
   3   1 -45   -2.19    3.36
   1   3 -45    4.99    3.70
  -1   3 -45   -0.52    3.73
   3  -1 -45    3.50    3.24
  -3   1 -45    8.12    3.90
   1  -3 -45   -0.12    3.47
  -3  -1 -45    7.09    3.96
  -1  -3 -45    2.40    3.63
   3   3 -45   -3.38    3.45
  -3   3 -45    3.82    3.95
   3  -3 -45    2.65    3.13
  -3  -3 -45   -5.79    4.05
   5   1 -45    1.66    3.01
   1   5 -45    3.13    3.66
   5  -1 -45    3.36    2.88
  -1   5 -45   -3.95    3.99
  -5   1 -45    1.39    4.34
   1  -5 -45    2.09    3.40
  -5  -1 -45    0.82    4.06
  -1  -5 -45    4.20    3.54
   5   3 -45   32.60    3.53
   3   5 -45   34.16    4.05
   5  -3 -45   38.86    3.38
  -3   5 -45   35.89    4.60
  -5   3 -45   49.59    4.97
   3  -5 -45   36.01    3.64
  -5  -3 -45   42.32    4.76
  -3  -5 -45   41.89    4.40
  -5   5 -45   -5.28    4.34
   5  -5 -45   -2.17    2.71
  -5  -5 -45   -4.94    4.26
   5   5 -45    0.54    2.99
  -1  -7 -45   73.85    4.86
  -1   7 -45   67.08    5.04
  -7   1 -45   70.97    5.56
  -7  -1 -45   77.61    5.46
   7   1 -45   67.35    3.99
   1   7 -45   77.97    5.01
   1  -7 -45   72.49    4.60
   3   7 -45   38.03    4.07
  -3   7 -45   50.61    4.89
  -7   3 -45   49.30    5.16
   3  -7 -45   41.00    3.59
  -7  -3 -45   47.75    4.97
  -3  -7 -45   41.76    4.31
   7   3 -45   39.02    3.35
  -5   7 -45   21.15    4.71
   5  -7 -45   12.81    2.72
  -7  -5 -45   19.98    4.41
  -5  -7 -45   13.45    4.17
   7   5 -45   14.32    2.89
   5   7 -45   12.04    3.30
  -7  -7 -45   -1.60    3.97
   7   7 -45    4.46    2.82
  -1   9 -45    1.69    3.99
  -9   1 -45   13.24    4.70
  -9  -1 -45   19.32    4.44
   1  -9 -45    6.24    3.23
  -1  -9 -45    6.14    3.43
   1   9 -45    7.99    3.75
  -3   9 -45    2.80    4.19
  -9   3 -45    6.77    4.61
   3  -9 -45    3.01    2.84
  -3  -9 -45    7.96    3.66
   3   9 -45    2.82    3.61
  -5   9 -45    5.58    4.28
  -9   5 -45   -4.65    4.44
   5  -9 -45    2.76    2.43
  -9  -5 -45    3.01    4.40
  -5  -9 -45    3.81    3.82
   5   9 -45    3.05    3.21
  -9  -7 -45  216.22    9.20
  -7  -9 -45  218.93    9.07
   7   9 -45  202.97    8.22
  -7   9 -45  220.68    9.31
  -9   7 -45  235.38    9.53
  -9   9 -45    3.42    4.54
  -9  -9 -45   -0.91    4.35
 -11   1 -45   36.33    5.08
 -11  -1 -45   37.83    5.09
   1 -11 -45   37.09    3.51
  -1 -11 -45   42.05    3.93
   1  11 -45   37.39    4.21
  -1  11 -45   36.00    4.45
  -3  11 -45   18.74    4.39
 -11   3 -45   20.40    4.81
   3 -11 -45    6.54    2.68
 -11  -3 -45   22.90    4.68
  -3 -11 -45   13.17    3.51
   3  11 -45   18.57    3.74
  -5  11 -45    3.87    4.19
 -11   5 -45    3.06    4.69
 -11  -5 -45    9.26    4.53
  -5 -11 -45    1.47    3.79
   5  11 -45    3.88    3.16
  -7 -11 -45   81.36    5.38
 -11  -7 -45   79.15    5.70
   7  11 -45   78.87    4.44
  -7  11 -45   91.35    5.82
 -11   7 -45   90.22    6.11
  -9  11 -45    6.53    4.52
 -11   9 -45   14.94    4.50
 -11  -9 -45    6.50    4.29
  -9 -11 -45    9.94    4.20
   9  11 -45    7.24    2.36
 -11  11 -45    3.66    4.29
 -11 -11 -45   -3.00    4.14
   1 -13 -45   57.71    3.88
 -13   1 -45   56.71    5.37
 -13  -1 -45   55.00    5.38
  -1 -13 -45   54.42    4.05
   1  13 -45   59.11    4.67
  -1  13 -45   52.76    4.81
 -13  -3 -45   97.42    6.18
  -3 -13 -45   99.90    5.31
  45  13   3   87.54    4.50
   3  13 -45   98.86    5.34
  -3  13 -45  104.37    5.90
 -13   3 -45  109.03    6.49
   3 -13 -45   85.09    4.39
 -13   5 -45    5.85    4.48
  45  13   5    0.30    2.23
 -13  -5 -45    1.20    4.55
  -5 -13 -45    1.39    3.53
   5  13 -45    2.85    3.11
  -5  13 -45   -2.23    4.22
 -13   7 -45   33.17    5.02
 -13  -7 -45   23.12    4.62
  -7 -13 -45   20.97    3.98
   7  13 -45   23.26    3.10
  -7  13 -45   22.99    4.69
 -13  -9 -45  122.69    6.48
  -9 -13 -45  113.67    6.18
   9  13 -45   98.33    4.81
  -9  13 -45  133.12    6.69
 -13   9 -45  139.97    6.82
 -11  13 -45   32.87    4.78
 -13 -11 -45   44.24    4.82
 -11 -13 -45   38.31    4.30
 -13 -13 -45    6.11    4.04
  45  15  -1    0.67    3.11
 -15   1 -45    0.93    4.58
  45  15   1    1.18    2.82
 -15  -1 -45    2.11    4.50
   1 -15 -45    2.03    2.59
  -1 -15 -45   -0.59    2.93
   1  15 -45   -2.71    3.48
  -1  15 -45    3.07    3.79
  45  15   3   -1.10    2.74
   3 -15 -45    3.23    2.18
 -15  -3 -45    2.36    4.47
  -3 -15 -45   -0.31    3.05
   3  15 -45    3.56    3.45
  -3  15 -45    3.91    4.12
  15  45  -5   -2.77    2.41
  45  15   5   -0.54    2.31
 -15  -5 -45    3.11    4.49
  -5 -15 -45   -2.52    3.48
   5  15 -45    0.10    3.07
  -5  15 -45    2.67    4.05
  45  15   7   -0.14    1.98
 -15  -7 -45    2.04    4.45
  -7 -15 -45    4.84    3.62
   7  15 -45    1.56    2.69
  -7  15 -45   -2.67    4.36
 -15  -9 -45    6.55    4.25
  -9 -15 -45    6.60    3.83
   9  15 -45    4.10    2.35
  -9  15 -45    5.02    4.30
 -15 -11 -45    5.23    4.14
 -11 -15 -45    3.17    3.81
 -11  15 -45   10.40    4.23
 -15 -13 -45    9.07    3.94
 -13 -15 -45    8.99    3.85
 -15 -15 -45   -4.38    3.92
   1 -17 -45   79.50    4.20
  -1 -17 -45   89.97    4.50
  45  17  -1   86.23    4.66
  45  17   1   85.86    4.59
   1  17 -45   91.98    5.20
  -1  17 -45   98.79    5.43
  45  17  -3   13.35    3.31
  45  17   3   22.54    2.96
  -3 -17 -45   16.32    3.21
   3  17 -45   20.03    3.58
  -3  17 -45   22.56    4.25
  17  45  -5    4.56    2.31
  45  17   5   -0.47    2.43
  -5 -17 -45   -2.14    3.19
   5  17 -45   -0.10    3.01
  -5  17 -45   -0.12    4.10
  45  17   7   34.32    2.71
  -7 -17 -45   36.03    3.75
   7  17 -45   32.09    3.22
  -7  17 -45   40.00    4.48
  17  45  -7   29.01    2.63
 -17  -9 -45   41.04    4.73
  -9 -17 -45   50.65    4.13
  -9  17 -45   52.05    4.91
 -17  11 -45   11.29    3.80
 -17 -11 -45    6.92    4.10
 -11 -17 -45   11.86    3.67
 -11  17 -45    8.65    3.93
 -17 -13 -45   12.82    3.84
 -13 -17 -45   16.37    3.71
 -17  13 -45   15.68    3.99
 -17 -15 -45    4.76    3.64
 -15 -17 -45    3.18    3.56
 -17  15 -45    4.17    3.66
 -17 -17 -45    4.69    3.41
 -17  17 -45    1.07    3.50
 -19   1 -45    1.66    4.12
  45  19  -1   -1.45    2.98
  45  19   1   -0.44    2.86
   1 -19 -45   -2.32    2.09
  -1 -19 -45   -1.83    2.49
   1  19 -45    2.26    3.42
  -1  19 -45   -1.35    3.68
 -19   3 -45   12.04    4.12
  45  19  -3    7.44    3.12
  19  45  -3    8.30    2.79
  45  19   3    8.64    2.75
  -3 -19 -45    8.37    2.76
   3  19 -45    7.01    3.31
  -3  19 -45    6.08    3.82
  19  45  -5    9.57    2.48
 -19   5 -45    9.75    4.08
  45  19   5    4.10    2.59
  -5 -19 -45    4.17    2.92
   5  19 -45    9.73    3.11
  -5  19 -45   10.53    4.00
 -19   7 -45    1.36    3.83
  45  19   7   -3.06    2.27
  -7 -19 -45    1.06    3.09
   7  19 -45    2.79    2.49
  -7  19 -45    5.52    4.15
  19  45  -7   -1.12    1.98
 -19   9 -45   32.27    4.06
  45  19   9   23.05    2.23
  -9 -19 -45   27.53    3.58
  -9  19 -45   28.22    4.30
 -19  11 -45   35.24    4.13
 -11 -19 -45   40.36    3.74
 -11  19 -45   30.66    4.18
 -13 -19 -45    0.85    3.31
 -19  13 -45   -1.00    3.46
 -15 -19 -45    2.36    3.24
 -15  19 -45    1.36    3.49
 -19  15 -45   -1.32    3.30
 -19 -17 -45    0.60    3.00
 -17 -19 -45   10.73    3.14
 -17  19 -45    4.00    3.21
 -19  17 -45    8.43    3.08
 -19 -19 -45   -0.16    2.72
 -19  19 -45    7.47    2.84
 -21   1 -45    6.22    3.60
 -21  -1 -45   -0.22    3.87
  45  21  -1    0.69    2.91
  45  21   1   -4.97    2.84
  -1 -21 -45    5.02    2.17
   1  21 -45   -2.12    3.35
  -1  21 -45    2.00    3.38
 -21   3 -45    1.51    3.60
  21  45  -3    1.34    2.56
  45  21  -3    6.95    2.98
 -21  -3 -45    2.49    3.69
  45  21   3    0.31    2.66
  -3 -21 -45    3.21    2.48
   3  21 -45    6.47    3.09
  -3  21 -45    6.01    3.65
  21  45  -5    1.29    2.25
 -21   5 -45   -5.73    3.82
 -21  -5 -45   -3.74    3.79
  45  21   5   -0.80    2.49
  -5 -21 -45    3.21    2.63
   5  21 -45    1.29    2.69
  -5  21 -45   -0.65    3.51
 -21   7 -45   42.86    4.09
 -21  -7 -45   49.37    4.36
  45  21   7   30.93    2.67
  -7 -21 -45   33.18    3.30
  -7  21 -45   42.75    4.24
  21  45  -7   25.92    2.53
 -21   9 -45    2.77    3.53
  45  21   9    0.72    1.78
 -21  -9 -45    7.57    3.64
  21  45  -9    2.93    1.64
  -9 -21 -45    6.31    2.90
  -9  21 -45    2.94    3.67
 -11 -21 -45    8.30    2.99
 -21  11 -45    6.46    3.35
 -13 -21 -45   45.61    3.72
 -21  13 -45   54.12    3.95
 -15 -21 -45   -0.08    2.76
 -15  21 -45    3.98    3.20
 -21  15 -45    3.66    2.90
 -17 -21 -45   10.25    2.78
 -17  21 -45   12.90    2.95
 -21  17 -45   17.69    2.76
 -19 -21 -45    5.04    2.42
 -19  21 -45    6.48    2.50
 -21  19 -45    6.68    2.38
 -21  21 -45    1.22    1.80
 -23   1 -45    1.66    3.41
 -23  -1 -45    3.24    3.37
  23  45  -1   10.56    2.72
  45  23  -1    2.47    2.75
  45  23   1    0.85    2.65
  -1 -23 -45    1.72    1.58
   1  23 -45    6.59    3.06
  -1  23 -45    3.20    3.29
  23  45  -3   22.88    2.83
 -23   3 -45   25.09    3.70
 -23  -3 -45   28.74    3.70
  45  23  -3   33.85    3.26
  45  23   3   20.83    2.83
  -3 -23 -45   19.56    2.35
  -3  23 -45   26.77    3.68
 -23   5 -45    7.73    3.34
 -23  -5 -45   -2.11    3.28
  45  23   5   -0.20    2.26
  -5 -23 -45    0.49    2.34
  -5  23 -45   -1.10    3.45
  23  45  -5   -0.13    2.22
 -23   7 -45   24.34    3.46
 -23  -7 -45   36.39    3.64
  45  23   7   21.27    2.34
  -7 -23 -45   27.41    2.79
  23  45  -7   18.13    2.15
  -7  23 -45   36.40    3.87
 -23   9 -45   21.41    3.25
 -23  -9 -45   18.99    3.27
  45  23   9   16.50    1.93
  23  45  -9   10.83    1.66
  -9 -23 -45   21.04    2.77
  -9  23 -45   29.15    3.74
 -23 -11 -45   30.49    3.44
 -11 -23 -45   23.19    2.94
 -23  11 -45   28.54    3.22
 -23 -13 -45   23.70    3.17
 -13 -23 -45   26.10    2.94
 -23  13 -45   28.06    3.00
 -23 -15 -45    0.22    2.51
 -15 -23 -45    0.07    2.37
 -15  23 -45   -1.18    2.77
 -23  15 -45    1.18    2.31
 -23 -17 -45   43.79    3.01
 -17 -23 -45   38.82    2.85
 -17  23 -45   38.54    2.98
 -23  17 -45   32.20    2.66
 -19 -23 -45    2.91    1.80
 -19  23 -45   -0.74    1.93
 -23  19 -45    0.66    1.62
  25  45  -1   -1.33    2.38
 -25   1 -45   -2.11    3.01
 -25  -1 -45    4.17    2.88
  25  45   1    3.54    2.53
  45  25  -1    0.65    2.58
  45  25   1   -1.11    2.41
 -25   3 -45   -1.24    2.81
 -25  -3 -45   -2.37    3.01
  45  25  -3    6.02    2.62
  45  25   3    3.28    2.26
  -3 -25 -45   -0.43    1.47
  -3  25 -45    1.87    2.90
  25  45  -3   -3.07    2.20
 -25   5 -45   -2.41    2.88
 -25  -5 -45   -2.16    2.83
  45  25   5   -0.54    2.08
  -5 -25 -45    0.67    1.85
  -5  25 -45    0.09    3.02
  25  45  -5   -3.70    1.93
 -25  -7 -45    1.05    2.82
  45  25   7    0.53    1.73
  -7 -25 -45    2.49    2.09
  25  45  -7   -1.20    1.72
  -7  25 -45    1.59    3.07
 -25  -9 -45    1.31    2.71
  25  45  -9    1.12    1.30
  45  25   9   -2.88    1.49
  -9 -25 -45   -0.13    2.10
  -9  25 -45   -1.97    2.93
 -25   9 -45    0.22    2.47
 -11 -25 -45   -2.59    2.16
 -25  11 -45    1.16    2.30
 -25 -13 -45    0.27    2.25
 -13 -25 -45   -2.21    2.05
 -25  13 -45    0.43    1.97
 -25 -15 -45   -0.06    1.95
 -15 -25 -45    2.18    1.92
 -15  25 -45   -2.86    2.29
 -25  15 -45    1.06    1.76
 -25 -17 -45   -3.03    1.65
 -17 -25 -45   -0.31    1.60
 -25  17 -45   -2.12    1.35
 -25 -19 -45    1.00    1.40
 -19 -25 -45   -0.79    1.48
  27  45   1    0.57    2.23
 -27   1 -45    4.19    2.36
 -27  -1 -45   -1.11    2.36
  45  27  -1    1.57    2.26
  45  27   1   -4.16    2.19
  27  45  -1   -0.54    2.11
 -27   3 -45    1.67    2.29
 -27  -3 -45    6.72    2.42
  27  45   3    3.08    2.33
  45  27   3    4.02    2.02
  27  45  -3    4.02    1.97
 -27   5 -45    1.93    2.20
 -27  -5 -45   -0.41    2.32
  27  45   5    0.59    2.39
  45  27   5   -1.13    1.75
  27  45  -5   -0.30    1.70
 -27  -7 -45   14.90    2.39
  45  27   7   10.22    1.62
  27  45  -7    6.57    1.45
  -7 -27 -45   10.51    1.57
 -27   7 -45   13.18    2.14
  -9 -27 -45   18.72    1.86
 -27   9 -45   23.33    2.17
 -27 -11 -45   18.79    2.17
 -11 -27 -45   12.74    1.77
 -27  11 -45   11.80    1.76
 -27 -13 -45    8.55    1.87
 -13 -27 -45    5.35    1.57
 -27 -15 -45    2.07    1.47
 -15 -27 -45    1.19    1.36
 -29   1 -45    0.99    1.63
 -29  -1 -45   -1.01    1.70
  45  29   1    4.47    1.75
  29  45  -1    1.91    1.62
  29  45   1    0.94    1.80
 -29  -3 -45    1.62    1.67
  45  29   3    0.41    1.53
  29  45  -3    2.16    1.53
 -29   3 -45    3.29    1.56
  29  45   3    2.03    1.77
  29  45   5   -2.52    1.98
 -29  -5 -45    2.13    1.67
  45  29   5   -0.04    1.35
  29  45  -5    2.83    1.22
 -29   5 -45    0.26    1.37
 -29  -7 -45   28.94    2.09
  29  45   7   31.33    2.30
 -29  -9 -45    2.48    1.38
  29  45   9    1.84    1.66
  29  45  11    6.30    1.59
  29  45  13   25.67    1.71
  31  45   1    2.83    1.26
  31  45   3    3.21    1.25
  31  45   5   -1.48    1.26
   0   0 -46   44.42    4.08
   2   0 -46   55.27    4.14
   0   2 -46   51.87    4.43
  -2   0 -46   56.16    4.56
   0  -2 -46   55.60    4.40
   2   2 -46   45.65    4.09
  -2   2 -46   43.22    4.36
   2  -2 -46   52.41    3.95
  -2  -2 -46   45.99    4.44
   4   0 -46   21.41    3.11
   0   4 -46   20.52    3.84
  -4   0 -46   17.73    4.17
   0  -4 -46   15.61    3.54
   4   2 -46   48.98    3.82
   2   4 -46   50.60    4.27
   4  -2 -46   45.19    3.70
  -2   4 -46   60.99    4.68
  -4   2 -46   57.61    4.69
   2  -4 -46   47.92    3.84
  -4  -2 -46   58.47    4.67
  -2  -4 -46   48.34    4.43
  -4  -4 -46   68.10    5.01
   4   4 -46   67.05    4.28
   4  -4 -46   64.30    4.02
  -4   4 -46   76.55    5.05
   6   0 -46    7.00    2.51
   0   6 -46    2.51    3.66
  -6   0 -46   11.95    4.08
   0  -6 -46    9.30    3.24
   2   6 -46   11.07    3.52
   6  -2 -46   16.78    2.68
  -2   6 -46   14.39    3.88
  -6   2 -46    7.00    4.10
   2  -6 -46    8.94    3.05
  -6  -2 -46    6.87    4.25
  -2  -6 -46   16.50    3.47
   6   2 -46   11.64    2.69
  -4   6 -46   13.41    4.27
  -6   4 -46   14.11    4.24
   4  -6 -46   16.06    2.79
  -6  -4 -46   19.50    4.16
  -4  -6 -46   11.53    3.62
   6   4 -46   15.83    2.79
   4   6 -46   18.44    3.23
  -6   6 -46    1.70    4.09
  -6  -6 -46    4.12    3.86
   6   6 -46    4.27    2.73
   0   8 -46    2.27    3.72
  -8   0 -46    7.28    4.35
   0  -8 -46    7.13    3.15
  -2   8 -46   11.89    3.96
  -8   2 -46   13.02    4.40
   2  -8 -46    8.89    2.86
  -8  -2 -46    5.23    4.28
  -2  -8 -46   12.12    3.55
   2   8 -46   10.50    3.57
  -4   8 -46    1.78    4.00
  -8   4 -46    4.64    4.27
   4  -8 -46    0.67    2.39
  -8  -4 -46    2.45    4.11
  -4  -8 -46   -1.76    3.59
   4   8 -46   -3.86    3.18
  -6   8 -46    0.13    4.17
  -8   6 -46    8.68    4.34
  -8  -6 -46    1.52    4.06
  -6  -8 -46   -0.61    3.77
   6   8 -46   -1.12    2.72
  -8   8 -46   13.33    4.49
  -8  -8 -46    9.22    3.92
 -10   0 -46    9.75    4.39
   0 -10 -46   15.56    3.17
   0  10 -46   13.70    3.57
 -10   2 -46   10.57    4.57
   2 -10 -46   11.22    2.78
 -10  -2 -46   16.70    4.48
  -2 -10 -46   14.50    3.36
   2  10 -46    9.85    3.44
  -2  10 -46   20.13    4.01
  -4  10 -46    5.27    4.13
 -10   4 -46    8.70    4.49
   4 -10 -46    8.04    2.31
 -10  -4 -46   14.29    4.38
  -4 -10 -46   16.95    3.58
   4  10 -46    8.91    3.18
  -6  10 -46    3.54    4.29
 -10   6 -46    1.69    4.25
 -10  -6 -46   -3.91    4.29
  -6 -10 -46    6.08    3.69
   6  10 -46    1.11    2.75
  -8  10 -46    2.02    4.20
 -10   8 -46   -1.28    4.37
 -10  -8 -46    4.55    4.08
  -8 -10 -46    2.97    3.81
   8  10 -46    0.47    2.40
 -10  10 -46    8.61    4.26
 -10 -10 -46    8.20    3.97
 -12   0 -46   -0.91    4.32
   0 -12 -46    4.58    2.79
   0  12 -46    4.88    3.42
 -12   2 -46    3.38    4.34
   2 -12 -46    1.16    2.55
 -12  -2 -46   11.95    4.38
  -2 -12 -46   10.15    3.18
   2  12 -46    7.03    3.38
  -2  12 -46    4.33    3.82
 -12   4 -46   44.24    5.08
 -12  -4 -46   38.33    4.77
  -4 -12 -46   50.22    4.04
   4  12 -46   35.35    3.73
  -4  12 -46   41.54    4.60
 -12   6 -46    3.06    4.12
 -12  -6 -46    2.49    4.32
  -6 -12 -46    2.01    3.41
   6  12 -46    7.27    2.83
  -6  12 -46   -6.70    4.20
 -12   8 -46   46.79    4.92
 -12  -8 -46   43.07    4.70
  -8 -12 -46   34.91    4.23
   8  12 -46   38.98    2.97
  -8  12 -46   40.81    4.76
 -12  10 -46    0.97    4.31
 -12 -10 -46    5.63    4.05
 -10 -12 -46    3.52    3.63
 -10  12 -46    3.77    4.22
 -12 -12 -46    0.22    3.61
 -12  12 -46    3.54    4.17
   0 -14 -46   69.82    3.92
 -14   0 -46   67.38    5.30
   0  14 -46   68.93    4.81
 -14   2 -46    5.41    4.19
   2 -14 -46   -2.68    2.36
 -14  -2 -46    6.24    4.08
  -2 -14 -46   -0.28    2.96
   2  14 -46   -2.02    3.46
  -2  14 -46   -2.22    3.81
 -14   4 -46   -3.26    4.29
 -14  -4 -46   -0.37    4.18
  -4 -14 -46   -0.10    3.12
   4  14 -46   -1.58    3.07
  -4  14 -46    8.36    3.86
 -14   6 -46   28.38    4.52
 -14  -6 -46   28.45    4.43
  -6 -14 -46   20.34    3.68
   6  14 -46   29.13    3.10
  -6  14 -46   29.43    4.27
 -14  -8 -46   10.38    4.00
  -8 -14 -46    4.17    3.55
   8  14 -46    3.56    2.35
  -8  14 -46    7.52    4.15
 -14 -10 -46   28.14    4.12
 -10 -14 -46   27.60    3.66
 -10  14 -46   25.27    4.29
 -14 -12 -46   16.62    4.00
 -12 -14 -46   14.66    3.65
 -14 -14 -46   22.42    3.83
   0 -16 -46   11.06    2.53
   0  16 -46   12.76    3.46
 -16  -2 -46   34.21    4.50
  -2 -16 -46   30.56    3.21
   2  16 -46   33.79    3.77
  -2  16 -46   37.18    4.20
  16  46  -4   34.05    2.89
 -16  -4 -46   53.43    4.81
  -4 -16 -46   51.55    3.65
   4  16 -46   41.50    3.67
  -4  16 -46   54.90    4.54
 -16  -6 -46   41.51    4.60
  -6 -16 -46   51.01    3.79
   6  16 -46   37.78    3.18
  -6  16 -46   40.20    4.54
 -16  -8 -46   -3.05    4.01
  -8 -16 -46    6.35    3.31
   8  16 -46   -0.28    2.03
  -8  16 -46    2.63    3.96
 -16 -10 -46    7.40    3.78
 -10 -16 -46   -0.70    3.37
 -10  16 -46    2.13    3.87
 -16 -12 -46   24.78    3.78
 -12 -16 -46   34.14    3.84
 -12  16 -46   36.22    4.11
 -16 -14 -46    6.04    3.52
 -14 -16 -46    2.94    3.34
 -16 -16 -46    3.79    3.10
 -16  16 -46    3.60    3.48
   0 -18 -46   36.13    2.62
   0  18 -46   45.64    3.99
  46  18   2    7.16    2.53
  18  46  -2    4.42    2.52
  -2 -18 -46    6.70    2.47
   2  18 -46   -2.13    3.15
  -2  18 -46    7.87    3.58
  18  46  -4   13.07    2.41
  46  18   4   13.49    2.42
  -4 -18 -46   13.59    2.89
   4  18 -46   15.93    3.01
  -4  18 -46   22.45    3.90
  46  18   6    4.79    1.87
  -6 -18 -46    5.03    2.95
   6  18 -46    5.29    2.46
  18  46  -6    5.06    1.86
 -18   8 -46    5.84    3.69
  -8 -18 -46   -5.89    3.01
  -8  18 -46    2.90    3.81
 -18  10 -46    8.41    3.70
 -18 -10 -46    2.96    3.67
 -10 -18 -46    2.28    3.03
 -10  18 -46    8.89    3.59
 -18 -12 -46   -3.30    3.43
 -12 -18 -46    3.95    3.07
 -18  12 -46    5.79    3.35
 -18 -14 -46   -1.09    3.32
 -14 -18 -46    1.04    3.11
 -18  14 -46    6.40    3.30
 -18 -16 -46   30.81    3.39
 -16 -18 -46   33.76    3.35
 -16  18 -46   37.97    3.55
 -18  16 -46   35.28    3.49
 -18 -18 -46   -3.02    2.64
 -18  18 -46    3.51    2.74
 -20   0 -46    9.94    3.72
  46  20   0   10.13    2.62
   0  20 -46    5.95    3.14
 -20   2 -46    0.94    3.71
  20  46  -2   -0.64    2.43
 -20  -2 -46   -1.46    3.67
  46  20   2   -0.64    2.39
  -2 -20 -46   -0.92    2.09
   2  20 -46    0.82    2.89
  -2  20 -46    4.78    3.32
  20  46  -4    8.87    2.06
 -20   4 -46    8.01    3.47
  46  20   4   12.90    2.25
  -4 -20 -46    5.87    2.32
   4  20 -46    5.87    2.82
  -4  20 -46    9.52    3.45
 -20   6 -46   12.81    3.60
  46  20   6   12.04    2.07
  -6 -20 -46    7.58    2.61
  -6  20 -46   10.24    3.45
  20  46  -6    5.93    1.70
 -20   8 -46    4.83    3.45
  -8 -20 -46   -3.23    2.73
  -8  20 -46   -0.50    3.51
 -10 -20 -46    6.75    2.82
 -10  20 -46   -4.27    3.52
 -20  10 -46    1.21    3.31
 -12 -20 -46    1.44    2.71
 -20  12 -46    5.46    3.08
 -14 -20 -46    4.55    2.71
 -20  14 -46    6.42    2.89
 -16 -20 -46    3.55    2.63
 -16  20 -46    8.15    2.80
 -20  16 -46    8.47    2.62
 -20 -18 -46    0.07    2.46
 -18 -20 -46    7.46    2.37
 -18  20 -46    5.01    2.40
 -20  18 -46    7.18    2.23
 -20 -20 -46    2.59    1.96
 -20  20 -46    3.00    1.89
 -22   0 -46   23.17    3.54
  46  22   0   12.21    2.53
  22  46   0   15.42    2.55
   0  22 -46   14.53    3.13
  22  46  -2    1.25    2.20
 -22   2 -46    0.09    3.28
 -22  -2 -46    7.22    3.46
  46  22   2   -1.52    2.33
  -2 -22 -46   -0.57    1.57
   2  22 -46   -2.05    2.75
  -2  22 -46    4.30    3.09
 -22   4 -46    8.34    3.32
 -22  -4 -46    4.54    3.32
  46  22   4   -0.30    1.95
  -4 -22 -46    2.74    2.00
  -4  22 -46    0.56    3.19
  22  46  -4    1.12    2.03
 -22   6 -46   13.31    3.24
  46  22   6   10.17    1.92
 -22  -6 -46   18.16    3.39
  -6 -22 -46   14.10    2.30
  22  46  -6   10.45    1.75
  -6  22 -46   14.61    3.29
 -22   8 -46    1.80    2.96
 -22  -8 -46   -1.48    3.12
  -8 -22 -46   -1.67    2.31
  -8  22 -46    6.94    3.16
 -22 -10 -46    4.00    2.92
 -10 -22 -46    1.48    2.37
 -10  22 -46    5.29    3.16
 -22  10 -46    1.96    2.94
 -22 -12 -46    4.54    2.76
 -12 -22 -46    0.97    2.29
 -22  12 -46    3.44    2.69
 -14 -22 -46    6.04    2.25
 -22  14 -46    6.20    2.38
 -16 -22 -46   -0.93    2.03
 -16  22 -46    1.92    2.28
 -22  16 -46    0.37    2.08
 -18 -22 -46    5.51    1.74
 -18  22 -46    4.76    1.94
 -22  18 -46    7.04    1.76
 -20 -22 -46    1.89    1.55
  24  46   0    1.33    2.21
 -24   0 -46   -4.32    2.94
 -24   2 -46   38.14    3.33
  46  24   2   28.86    2.52
  -2  24 -46   27.93    3.18
  24  46  -2   29.51    2.42
 -24   4 -46   37.89    3.17
 -24  -4 -46   37.12    3.22
  46  24   4   23.54    2.19
  -4  24 -46   32.85    3.24
  24  46  -4   21.32    2.08
 -24   6 -46    2.05    2.57
 -24  -6 -46    5.26    2.85
  46  24   6    1.73    1.61
  -6 -24 -46    2.84    1.69
  24  46  -6    1.20    1.43
  -6  24 -46    4.33    2.87
 -24  -8 -46   -0.23    2.69
  -8 -24 -46    2.14    1.82
  -8  24 -46    4.72    2.73
 -24   8 -46    0.65    2.47
 -24 -10 -46   -3.07    2.43
 -10 -24 -46    2.89    2.01
 -10  24 -46   -1.79    2.70
 -24  10 -46    1.57    2.28
 -24 -12 -46    9.28    2.42
 -12 -24 -46   10.18    2.00
 -24  12 -46    5.64    2.13
 -24 -14 -46    2.83    2.07
 -14 -24 -46    1.24    1.76
 -14  24 -46    7.63    2.40
 -24  14 -46    3.83    1.89
 -24 -16 -46   11.66    1.74
 -16 -24 -46    7.68    1.77
 -16  24 -46    8.23    1.95
 -24  16 -46    7.58    1.55
 -24 -18 -46   10.27    1.42
 -18 -24 -46    9.45    1.48
 -26   0 -46   -0.67    2.35
  26  46   0    2.49    1.82
 -26   2 -46   27.25    2.60
  26  46   2   23.63    2.33
 -26  -2 -46   26.14    2.60
  26  46  -2   21.44    2.04
 -26   4 -46   34.65    2.60
 -26  -4 -46   35.31    2.70
  26  46   4   31.00    2.46
 -26  -6 -46    4.97    2.28
  26  46   6    0.65    2.10
 -26   6 -46    2.31    2.00
 -26  -8 -46    3.31    1.98
  -8 -26 -46    0.44    1.28
 -26 -10 -46    1.26    1.92
 -10 -26 -46   -0.72    1.32
 -26  10 -46   -3.42    1.68
 -26 -12 -46    3.90    1.77
 -12 -26 -46    2.72    1.35
 -26  12 -46    4.89    1.43
 -26 -14 -46    7.22    1.50
 -28   0 -46    5.65    1.65
  28  46   0    4.63    1.51
 -28  -2 -46    1.73    1.66
  28  46  -2    0.72    1.26
  28  46   2    3.39    1.59
 -28   2 -46    2.11    1.56
 -28  -4 -46    5.42    1.73
 -28   4 -46    1.99    1.44
  28  46   4    2.16    1.58
  28  46   6   13.69    1.73
 -28  -6 -46   13.56    1.76
 -28   6 -46   12.54    1.51
 -28  -8 -46    1.53    1.38
  28  46   8    0.18    1.58
  28  46  10    2.43    1.30
   1   1 -47    0.11    3.13
   1  -1 -47   -3.01    3.15
  -1   1 -47   -2.71    3.40
  -1  -1 -47    1.00    3.38
   3   1 -47   25.48    3.17
   1   3 -47   25.93    3.60
   3  -1 -47   24.82    3.07
  -1   3 -47   26.90    3.88
  -3   1 -47   22.52    3.87
   1  -3 -47   21.07    3.31
  -3  -1 -47   22.18    3.78
  -1  -3 -47   30.65    3.67
   3   3 -47   -1.17    2.93
   3  -3 -47    0.54    2.65
  -3   3 -47   -2.96    3.66
  -3  -3 -47   -4.80    3.46
   1   5 -47    6.09    3.24
   5  -1 -47    4.36    2.42
  -1   5 -47   -1.47    3.57
  -5   1 -47    2.07    3.71
   1  -5 -47    1.27    2.95
  -5  -1 -47    5.17    3.60
  -1  -5 -47    1.79    3.20
   5   1 -47    8.25    2.57
   5  -3 -47    1.31    2.21
  -3   5 -47    1.54    3.67
   3  -5 -47    6.66    2.52
  -5   3 -47    0.24    3.90
  -5  -3 -47    9.45    3.66
  -3  -5 -47    8.12    3.48
   5   3 -47    1.12    2.54
   3   5 -47    5.33    3.03
  -5   5 -47    2.30    3.95
  -5  -5 -47    0.46    3.55
   5   5 -47    1.49    2.71
  -1   7 -47   18.18    3.75
  -7   1 -47   17.63    4.25
   1  -7 -47   16.50    3.02
  -7  -1 -47   19.17    4.24
  -1  -7 -47   14.88    3.30
   1   7 -47   13.59    3.43
  -3   7 -47   30.61    4.07
  -7   3 -47   34.25    4.43
   3  -7 -47   22.30    2.81
  -7  -3 -47   27.76    4.12
  -3  -7 -47   31.22    3.64
   3   7 -47   20.57    3.32
  -5   7 -47   53.54    4.67
  -7   5 -47   52.64    4.87
  -7  -5 -47   54.73    4.61
  -5  -7 -47   53.92    4.35
   5   7 -47   51.63    3.64
  -7   7 -47   -0.24    3.89
  -7  -7 -47   -5.48    3.69
   7   7 -47    0.44    2.23
  -9   1 -47   -1.11    4.12
   1  -9 -47   -3.58    2.69
  -9  -1 -47   -1.35    3.91
  -1  -9 -47    0.77    2.90
   1   9 -47    1.49    3.30
  -1   9 -47    2.46    3.46
  -9   3 -47    5.17    4.12
   3  -9 -47    2.63    2.20
  -9  -3 -47   -5.43    3.84
  -3  -9 -47   -1.74    3.26
   3   9 -47    0.30    2.99
  -3   9 -47   -0.35    3.69
  -5   9 -47    2.00    3.88
  -9   5 -47   -2.94    4.23
  -9  -5 -47    2.72    3.79
  -5  -9 -47   -0.43    3.25
   5   9 -47   -2.27    2.69
  -7   9 -47    2.13    3.89
  -9   7 -47   -0.36    3.97
  -9  -7 -47    3.79    3.76
  -7  -9 -47    4.40    3.38
   7   9 -47   -5.83    2.42
  -9   9 -47   -3.53    4.06
  -9  -9 -47   -3.32    3.63
 -11   1 -47   19.83    4.22
 -11  -1 -47   18.40    4.37
   1 -11 -47   16.45    2.69
  -1 -11 -47   21.95    3.02
   1  11 -47   20.54    3.55
  -1  11 -47   23.92    3.60
 -11   3 -47    8.50    4.13
 -11  -3 -47   13.60    4.07
  -3 -11 -47   11.45    3.14
   3  11 -47   10.48    3.15
  -3  11 -47   15.97    3.85
 -11   5 -47    2.77    3.92
 -11  -5 -47    4.91    4.05
  -5 -11 -47    0.61    3.11
   5  11 -47   -0.43    2.62
  -5  11 -47   -5.65    3.89
 -11   7 -47   13.35    4.18
 -11  -7 -47    4.90    3.95
  -7 -11 -47    2.93    3.43
   7  11 -47    1.88    2.11
  -7  11 -47    8.12    3.90
 -11   9 -47    4.49    3.97
 -11  -9 -47   -0.33    3.78
  -9 -11 -47    0.63    3.55
  -9  11 -47    4.48    3.88
 -11 -11 -47    3.99    3.53
 -11  11 -47    0.90    3.88
 -13   1 -47   30.34    4.39
 -13  -1 -47   25.02    4.36
   1 -13 -47   21.38    2.55
  -1 -13 -47   20.80    2.87
   1  13 -47   27.60    3.61
  -1  13 -47   31.63    3.76
 -13   3 -47    6.26    4.06
 -13  -3 -47   -0.93    3.94
  -3 -13 -47    2.26    2.83
   3  13 -47    3.27    2.89
  -3  13 -47   -0.22    3.56
 -13   5 -47   26.16    4.36
 -13  -5 -47   27.87    4.11
  -5 -13 -47   25.11    3.34
   5  13 -47   24.02    3.00
  -5  13 -47   35.09    4.13
 -13   7 -47    4.23    4.05
 -13  -7 -47    7.79    3.82
  -7 -13 -47   -0.49    3.08
   7  13 -47    6.24    2.16
  -7  13 -47    3.36    3.83
 -13   9 -47   -2.67    3.86
 -13  -9 -47   -0.11    3.78
  -9 -13 -47    4.59    3.32
  -9  13 -47    3.43    3.86
 -13 -11 -47    5.74    3.69
 -11 -13 -47    7.24    3.33
 -11  13 -47    6.14    3.74
 -13  11 -47    7.12    3.94
 -13 -13 -47    5.03    3.39
 -13  13 -47   -5.27    3.61
 -15   1 -47    3.64    3.95
 -15  -1 -47    9.85    4.04
   1 -15 -47    3.42    1.87
  -1 -15 -47    8.56    2.40
   1  15 -47   12.69    3.22
  -1  15 -47    6.63    3.27
 -15   3 -47   -6.78    3.72
 -15  -3 -47   -3.47    4.05
  -3 -15 -47   -2.56    2.62
   3  15 -47    1.79    2.86
  -3  15 -47   -2.84    3.61
 -15   5 -47    0.45    3.91
 -15  -5 -47    5.92    3.81
  -5 -15 -47   -1.23    2.83
   5  15 -47   -0.24    2.38
  -5  15 -47    3.96    3.59
 -15  -7 -47    9.94    3.79
  -7 -15 -47    5.12    3.00
   7  15 -47    5.95    2.08
  -7  15 -47    5.26    3.75
 -15  -9 -47   -5.25    3.70
  -9 -15 -47   -0.74    2.99
  -9  15 -47    3.81    3.67
 -15 -11 -47    7.47    3.43
 -11 -15 -47   -1.84    3.15
 -11  15 -47    0.62    3.51
 -15 -13 -47    8.14    3.33
 -13 -15 -47    6.46    3.11
 -15 -15 -47    0.09    2.93
  -1 -17 -47    8.95    2.01
   1  17 -47   13.84    3.04
  -1  17 -47    7.15    3.22
  17  47  -3    0.74    1.90
  -3 -17 -47    4.68    2.26
   3  17 -47    1.44    2.72
  -3  17 -47   -4.09    3.28
 -17  -5 -47   14.92    3.84
  -5 -17 -47   24.07    2.88
   5  17 -47   15.46    2.50
  -5  17 -47   23.19    3.68
 -17  -7 -47   -0.50    3.53
  -7 -17 -47   -1.49    2.71
  -7  17 -47    5.44    3.56
 -17  -9 -47   -0.87    3.49
  -9 -17 -47   -1.86    2.80
  -9  17 -47    1.29    3.52
 -17 -11 -47    5.54    3.17
 -11 -17 -47   -0.08    2.85
 -11  17 -47    6.22    3.42
 -17 -13 -47   -0.52    3.13
 -13 -17 -47    1.23    2.79
 -17  13 -47   -0.72    3.11
 -17 -15 -47    5.11    2.72
 -15 -17 -47    0.16    2.82
 -17  15 -47    4.83    2.96
 -17 -17 -47    2.73    2.57
 -17  17 -47   -3.80    2.82
  19  47  -1   -0.44    1.94
  -1 -19 -47   -3.13    1.69
   1  19 -47   -1.62    2.79
  -1  19 -47   -3.43    2.90
  -3 -19 -47    2.24    2.00
   3  19 -47    0.62    2.62
  -3  19 -47    4.00    3.15
  19  47  -3    1.69    1.69
 -19   5 -47   -2.98    3.40
  -5 -19 -47   -0.97    2.20
  -5  19 -47    3.67    3.15
 -19   7 -47   29.88    3.63
  -7 -19 -47   29.35    2.85
  -7  19 -47   35.97    3.74
  -9 -19 -47   -0.15    2.56
  -9  19 -47   -1.10    3.30
 -19   9 -47   -6.12    3.28
 -11 -19 -47    1.27    2.49
 -11  19 -47    3.80    3.20
 -19  11 -47   10.43    3.11
 -19 -13 -47   11.61    2.80
 -13 -19 -47   17.16    2.70
 -19  13 -47   21.23    3.00
 -19 -15 -47   -0.65    2.44
 -15 -19 -47    1.78    2.42
 -19  15 -47   -5.51    2.67
 -19 -17 -47   -1.22    2.29
 -17 -19 -47    1.25    2.04
 -17  19 -47    3.57    2.25
 -19  17 -47   -3.29    2.32
 -19 -19 -47    0.22    1.91
 -19  19 -47    2.82    1.86
  21  47  -1    1.03    1.86
 -21   1 -47    0.18    3.19
 -21  -1 -47   -0.09    3.03
  21  47   1   -1.00    2.14
   1  21 -47   -8.42    2.68
  -1  21 -47   -0.16    2.77
 -21   3 -47    0.53    3.09
 -21  -3 -47    6.01    3.07
  -3 -21 -47   -1.08    1.53
  -3  21 -47    0.77    2.87
  21  47  -3    1.11    1.72
 -21   5 -47    0.60    3.05
 -21  -5 -47   -2.43    3.00
  -5 -21 -47    3.75    1.96
  -5  21 -47   -1.30    2.94
 -21   7 -47    0.66    2.94
  -7 -21 -47    2.09    2.07
  -7  21 -47    0.34    2.97
  -9 -21 -47   -3.19    2.14
  -9  21 -47   -6.17    3.04
 -11 -21 -47    3.89    2.13
 -21  11 -47    4.87    2.57
 -13 -21 -47    1.30    2.06
 -21  13 -47   -0.62    2.34
 -15 -21 -47    2.95    1.95
 -15  21 -47    0.40    2.33
 -21  15 -47    0.80    1.99
 -17 -21 -47   -1.09    1.79
 -17  21 -47    2.70    1.73
 -21  17 -47    3.39    1.75
 -19 -21 -47    3.07    1.46
 -19  21 -47    3.99    1.50
 -23   1 -47    2.86    2.75
  23  47   1    3.22    1.87
 -23  -1 -47   -1.40    2.76
  23  47  -1    3.20    1.77
 -23   3 -47    4.55    2.64
 -23  -3 -47    6.63    2.72
  23  47   3    2.23    1.95
  -3  23 -47    0.23    2.59
  23  47  -3   -1.01    1.40
 -23   5 -47    5.67    2.65
 -23  -5 -47    2.94    2.68
  -5 -23 -47    3.54    1.38
  -5  23 -47    2.77    2.69
 -23  -7 -47    0.80    2.64
  -7 -23 -47    0.29    1.57
  -7  23 -47    2.21    2.74
 -23   7 -47    0.35    2.36
  -9 -23 -47   -0.05    1.72
 -23   9 -47   -2.01    2.39
 -23 -11 -47   -0.96    2.13
 -11 -23 -47   -1.89    1.69
 -11  23 -47   -3.96    2.50
 -23  11 -47    3.88    2.13
 -23 -13 -47    2.11    1.85
 -13 -23 -47   -0.69    1.60
 -23  13 -47    0.82    1.79
 -23 -15 -47    5.91    1.84
 -15 -23 -47    4.84    1.55
 -15  23 -47    4.76    1.90
 -23  15 -47    2.51    1.47
 -25   1 -47    3.04    2.14
 -25  -1 -47   -0.32    2.15
  25  47  -1   -0.38    1.38
  25  47   1   -0.75    1.54
 -25   3 -47   -2.17    2.10
  25  47   3   -2.72    1.71
 -25  -3 -47   -1.78    2.13
 -25  -5 -47   -2.35    2.21
  25  47   5   -0.71    1.69
 -25   5 -47    2.92    2.10
 -25  -7 -47   19.62    2.31
  25  47   7   13.87    1.94
 -25   7 -47   16.37    2.13
 -25  -9 -47    3.40    1.92
  25  47   9    1.61    1.61
 -25   9 -47    2.05    1.76
 -25 -11 -47    1.42    1.68
 -25  11 -47   -1.79    1.47
 -25 -13 -47   11.94    1.51
 -27  -1 -47   -1.27    1.54
 -27   1 -47   -0.56    1.49
 -27  -3 -47   -0.42    1.52
  27  47   3    3.22    1.30
 -27   3 -47    0.04    1.43
 -27  -5 -47   -0.63    1.46
 -27   5 -47   -2.82    1.35
  27  47   5   -2.11    1.30
  27  47   7   -0.81    1.25
 -27  -7 -47   -2.17    1.37
   0   0 -48   45.24    3.77
   2   0 -48   19.00    3.03
   0   2 -48   21.49    3.42
   0  -2 -48   23.85    3.27
  -2   0 -48   25.73    3.51
   2   2 -48    2.82    2.78
   2  -2 -48    2.76    2.71
  -2   2 -48    6.23    3.27
  -2  -2 -48    0.21    3.04
   0   4 -48    8.99    3.21
   0  -4 -48   11.10    2.97
  -4   0 -48    6.43    3.39
   4   0 -48    9.47    2.45
   4  -2 -48    8.05    2.25
  -2   4 -48   15.62    3.45
   2  -4 -48    9.11    2.57
  -4   2 -48   12.33    3.63
  -4  -2 -48    7.43    3.55
  -2  -4 -48   13.20    3.30
   4   2 -48   11.22    2.58
   2   4 -48   10.89    2.91
   4  -4 -48   21.28    2.32
  -4   4 -48   31.74    3.88
  -4  -4 -48   29.96    3.57
   4   4 -48   21.33    2.81
  -6   0 -48    1.57    3.70
   0  -6 -48   -0.35    2.76
   0   6 -48    2.20    3.18
  -2   6 -48    6.85    3.40
   2  -6 -48    8.83    2.45
  -6   2 -48   10.35    3.68
  -6  -2 -48    0.99    3.51
  -2  -6 -48   10.84    3.15
   2   6 -48   11.75    2.90
  -4   6 -48    3.16    3.49
  -6   4 -48   10.55    3.72
  -6  -4 -48    9.60    3.54
  -4  -6 -48   14.59    3.44
   4   6 -48    9.99    2.74
  -6   6 -48    8.08    3.60
  -6  -6 -48    9.51    3.45
   6   6 -48    5.95    2.11
  -8   0 -48    1.58    3.58
   0  -8 -48    0.33    2.61
   0   8 -48    4.07    3.14
   2  -8 -48    4.91    2.18
  -8   2 -48   11.21    3.89
  -8  -2 -48    6.57    3.70
  -2  -8 -48   11.22    2.99
   2   8 -48    6.73    2.94
  -2   8 -48   14.20    3.56
  -8   4 -48   -3.39    3.82
  -8  -4 -48    2.95    3.45
  -4  -8 -48   -3.00    3.07
   4   8 -48   -1.23    2.53
  -4   8 -48   -3.67    3.56
  -6   8 -48    6.12    3.62
  -8   6 -48    5.56    3.76
  -8  -6 -48   -1.17    3.57
  -6  -8 -48   -0.60    3.23
   6   8 -48    4.10    2.06
  -8   8 -48   59.24    4.48
  -8  -8 -48   46.96    4.16
 -10   0 -48   23.79    4.01
   0 -10 -48   15.71    2.61
   0  10 -48   19.14    3.34
 -10   2 -48   -5.61    3.95
   2 -10 -48   -0.26    2.01
 -10  -2 -48    2.77    3.61
  -2 -10 -48    2.82    2.71
   2  10 -48    4.96    2.81
  -2  10 -48    2.87    3.27
 -10   4 -48    3.80    3.84
 -10  -4 -48    2.72    3.67
  -4 -10 -48    0.46    2.91
   4  10 -48    2.49    2.45
  -4  10 -48   -4.54    3.49
 -10   6 -48   -5.28    3.91
 -10  -6 -48    2.96    3.50
  -6 -10 -48    1.90    2.97
   6  10 -48    0.54    2.08
  -6  10 -48   -0.32    3.57
 -10   8 -48    0.86    3.73
 -10  -8 -48    3.87    3.44
  -8 -10 -48   -6.11    3.23
  -8  10 -48    4.27    3.71
 -10 -10 -48    6.02    3.21
 -10  10 -48    1.99    3.62
 -12   0 -48    1.32    3.74
   0 -12 -48    5.14    2.28
   0  12 -48   10.84    3.18
 -12   2 -48   23.92    4.12
 -12  -2 -48   24.77    3.94
  -2 -12 -48   24.60    2.76
   2  12 -48   27.26    3.15
  -2  12 -48   19.99    3.46
 -12   4 -48    5.13    3.83
 -12  -4 -48    4.16    3.58
  -4 -12 -48    2.80    2.77
   4  12 -48   -1.95    2.46
  -4  12 -48    1.85    3.33
 -12   6 -48    0.96    3.65
 -12  -6 -48   -4.77    3.75
  -6 -12 -48    0.71    2.89
   6  12 -48   -0.19    2.02
  -6  12 -48    4.67    3.50
 -12   8 -48   24.55    4.00
 -12  -8 -48   24.10    3.77
  -8 -12 -48   23.42    3.35
  -8  12 -48   29.39    3.74
 -12 -10 -48   -8.20    3.36
 -10 -12 -48   -2.56    3.13
 -10  12 -48    0.61    3.47
 -12  10 -48    0.71    3.53
 -12 -12 -48   63.82    4.27
 -12  12 -48   75.61    4.63
 -14   0 -48   -0.42    3.77
   0 -14 -48    0.79    1.89
   0  14 -48    4.80    3.00
 -14  -2 -48    1.47    3.72
  -2 -14 -48    1.69    2.17
   2  14 -48    4.68    2.80
  -2  14 -48   -0.85    3.09
 -14  -4 -48    0.82    3.55
  -4 -14 -48   -2.40    2.50
   4  14 -48   -2.82    2.49
  -4  14 -48   -0.78    3.27
 -14   6 -48   -1.54    3.62
 -14  -6 -48    1.40    3.47
  -6 -14 -48    2.86    2.66
   6  14 -48    2.51    1.81
  -6  14 -48   -1.98    3.44
 -14   8 -48    7.78    3.42
 -14  -8 -48   11.66    3.50
  -8 -14 -48   11.19    2.92
  -8  14 -48   11.13    3.62
 -14 -10 -48    2.85    3.15
 -10 -14 -48   -2.87    2.88
 -10  14 -48    0.10    3.37
 -14  10 -48   -2.71    3.36
 -14 -12 -48   14.26    3.11
 -12 -14 -48   17.11    3.00
 -12  14 -48   12.20    3.34
 -14 -14 -48   -0.16    2.83
 -16   0 -48   22.62    3.62
  16  48   0   14.31    1.98
   0  16 -48   25.27    3.08
 -16   2 -48    1.90    3.55
 -16  -2 -48    2.28    3.44
  -2 -16 -48    2.12    2.03
   2  16 -48    1.42    2.51
  -2  16 -48    2.43    2.99
 -16  -4 -48   12.10    3.45
  -4 -16 -48   12.58    2.32
   4  16 -48    5.48    2.34
  -4  16 -48   17.02    3.26
 -16  -6 -48   11.39    3.41
  -6 -16 -48    7.55    2.52
  -6  16 -48    8.96    3.32
 -16  -8 -48    4.56    3.30
  -8 -16 -48    1.06    2.54
  -8  16 -48    7.84    3.24
 -16 -10 -48   -2.26    3.10
 -10 -16 -48    3.60    2.66
 -10  16 -48   -2.34    3.26
 -16 -12 -48    3.01    2.92
 -12 -16 -48    1.73    2.51
 -12  16 -48    1.80    2.98
 -16 -14 -48    1.65    2.60
 -14 -16 -48    1.95    2.46
 -16 -16 -48   -1.41    2.30
  18  48   0    0.93    1.62
   0  18 -48    4.28    2.65
  -2 -18 -48    3.02    1.56
  18  48   2    5.07    1.87
   2  18 -48    5.01    2.33
  -2  18 -48    4.51    2.80
  -4 -18 -48   16.22    2.09
  -4  18 -48   18.98    3.08
  -6 -18 -48    0.38    2.02
  -6  18 -48   -2.77    2.93
 -18  -8 -48   18.41    3.15
  -8 -18 -48   22.78    2.52
  -8  18 -48   26.26    3.34
 -18 -10 -48    3.04    2.90
 -10 -18 -48    5.45    2.28
 -10  18 -48    0.58    2.80
 -18  10 -48    2.05    2.92
 -18 -12 -48    1.87    2.65
 -12 -18 -48    7.61    2.31
 -12  18 -48    3.14    2.89
 -18  12 -48    6.73    2.91
 -18 -14 -48    8.93    2.35
 -14 -18 -48    5.62    2.12
 -18  14 -48    5.53    2.57
 -18 -16 -48   25.36    2.44
 -16 -18 -48   17.08    2.14
 -16  18 -48   19.19    2.40
 -18  16 -48   22.17    2.50
 -18 -18 -48    4.22    1.71
 -18  18 -48    2.58    1.70
  20  48   0   -0.85    1.61
   0  20 -48   -1.93    2.42
 -20   2 -48    8.06    3.00
  20  48   2    4.98    1.77
  -2  20 -48    6.00    2.61
  20  48  -2    5.73    1.29
 -20   4 -48   15.53    3.01
  -4 -20 -48    6.64    1.52
  -4  20 -48   12.91    2.81
  -6 -20 -48   -1.03    1.64
  -6  20 -48    2.12    2.67
  -8 -20 -48    2.21    1.84
  -8  20 -48   -0.62    2.66
 -20   8 -48    2.59    2.61
 -10 -20 -48   -0.79    1.90
 -20  10 -48   -1.30    2.58
 -12 -20 -48    9.06    1.99
 -12  20 -48    6.87    2.60
 -20  12 -48    6.74    2.38
 -14 -20 -48   -1.79    1.83
 -20  14 -48    1.14    1.96
 -20 -16 -48   12.70    1.94
 -16 -20 -48    8.06    1.62
 -16  20 -48    8.14    1.78
 -20  16 -48    8.53    1.76
 -20 -18 -48    4.49    1.29
 -18 -20 -48    4.12    1.36
 -18  20 -48    3.97    1.39
 -22   0 -48    0.22    2.49
  22  48   0   -0.45    1.34
  22  48   2    5.71    1.61
 -22   2 -48    7.76    2.55
 -22  -2 -48   11.31    2.56
 -22   4 -48   11.74    2.52
 -22  -4 -48   10.40    2.69
  22  48   4   10.26    1.77
  -4  22 -48   12.75    2.45
 -22  -6 -48    7.39    2.47
  22  48   6    4.71    1.75
  -6  22 -48   10.63    2.48
 -22   6 -48    6.61    2.50
  -8 -22 -48    0.87    1.31
  -8  22 -48    4.97    2.46
 -22   8 -48    7.11    2.29
 -10 -22 -48    1.13    1.36
 -10  22 -48    1.11    2.24
 -22  10 -48    2.70    2.03
 -12 -22 -48    2.01    1.39
 -12  22 -48    5.21    2.12
 -22  12 -48    3.28    1.78
 -14 -22 -48    0.12    1.25
 -22  14 -48   -1.62    1.49
 -24   0 -48   22.53    2.30
 -24   2 -48   -1.00    2.02
 -24  -2 -48    2.15    2.07
  24  48   4   11.40    1.50
 -24  -4 -48   19.75    2.12
 -24   4 -48   14.94    2.01
  24  48   6    1.36    1.37
 -24  -6 -48    3.49    1.82
 -24   6 -48    2.66    1.77
 -24  -8 -48   -1.75    1.84
  24  48   8    2.15    1.34
 -24   8 -48   -1.35    1.67
 -24 -10 -48    1.16    1.55
  24  48  10    2.30    1.28
 -24  10 -48    2.66    1.42
 -26   0 -48    9.63    1.49
 -26  -2 -48    1.61    1.44
 -26   2 -48    2.68    1.35
 -26  -4 -48    8.70    1.43
 -26  -6 -48    1.29    1.28
   1   1 -49   -0.33    2.50
   1  -1 -49   -3.14    2.45
  -1   1 -49    0.45    2.93
  -1  -1 -49    0.53    2.89
  -1   3 -49   -0.55    2.95
   1  -3 -49   -2.55    2.47
  -3   1 -49    0.67    3.01
  -1  -3 -49    0.43    2.75
  -3  -1 -49    2.66    3.03
   3   1 -49    1.96    2.25
   1   3 -49    5.75    2.71
   3  -1 -49   -0.63    1.97
   3  -3 -49    0.98    1.85
  -3   3 -49   -0.77    3.00
  -3  -3 -49    2.13    2.92
   3   3 -49   -1.41    2.29
   1  -5 -49    2.64    2.29
  -5   1 -49    5.31    3.21
  -1  -5 -49   -0.83    2.56
  -5  -1 -49    0.40    3.24
   1   5 -49    1.87    2.63
  -1   5 -49    2.21    2.91
  -3   5 -49   42.78    3.78
  -5   3 -49   43.79    3.85
  -5  -3 -49   38.43    3.61
  -3  -5 -49   39.06    3.51
   3   5 -49   33.49    2.96
  -5   5 -49   -5.87    3.15
  -5  -5 -49    4.31    3.08
   1  -7 -49   12.10    2.35
  -7   1 -49   17.84    3.62
  -7  -1 -49   21.18    3.54
  -1  -7 -49   16.28    2.73
   1   7 -49   21.12    2.86
  -7   3 -49    9.17    3.43
  -7  -3 -49    7.84    3.37
  -3  -7 -49    6.47    2.74
   3   7 -49    6.67    2.40
  -3   7 -49   10.08    3.16
  -7   5 -49    7.76    3.42
  -7  -5 -49   13.64    3.17
  -5  -7 -49   10.67    3.02
   5   7 -49    6.91    1.99
  -5   7 -49   17.58    3.39
  -7   7 -49   -2.79    3.44
  -7  -7 -49   -6.83    3.05
   1  -9 -49    6.68    1.84
  -9   1 -49    2.86    3.46
  -9  -1 -49    9.30    3.42
  -1  -9 -49    2.53    2.39
   1   9 -49    5.89    2.75
  -1   9 -49    6.83    2.88
  -9   3 -49   13.13    3.50
  -9  -3 -49    8.35    3.50
  -3  -9 -49   10.26    2.63
   3   9 -49    7.44    2.42
  -3   9 -49    8.86    3.13
  -9   5 -49   14.57    3.61
  -9  -5 -49   11.60    3.37
  -5  -9 -49   15.07    2.96
   5   9 -49    8.81    1.89
  -5   9 -49   15.65    3.34
  -9   7 -49   40.62    3.82
  -9  -7 -49   33.38    3.57
  -7  -9 -49   25.71    3.25
  -7   9 -49   38.49    3.75
  -9  -9 -49   -4.86    2.97
  -9   9 -49   -9.37    3.55
 -11   1 -49    1.30    3.41
 -11  -1 -49    1.79    3.37
  -1 -11 -49   -1.43    2.00
   1  11 -49   -7.64    2.71
  -1  11 -49    2.26    2.83
 -11   3 -49    2.30    3.47
 -11  -3 -49   -0.69    3.36
  -3 -11 -49    7.53    2.36
   3  11 -49    1.00    2.31
  -3  11 -49    8.13    3.11
 -11   5 -49   51.09    4.05
 -11  -5 -49   40.66    3.84
  -5  11 -49   43.56    3.73
  -5 -11 -49   48.01    3.23
 -11   7 -49   55.85    4.23
 -11  -7 -49   51.49    3.93
  -7 -11 -49   50.71    3.55
  -7  11 -49   51.46    4.06
 -11  -9 -49   -1.84    3.01
  -9 -11 -49   -4.38    2.82
  -9  11 -49   -3.08    3.26
 -11   9 -49    1.70    3.33
 -11 -11 -49   -0.98    2.82
 -11  11 -49    2.36    3.24
 -13   1 -49    6.49    3.34
 -13  -1 -49   -1.16    3.35
  -1 -13 -49    0.45    1.62
   1  13 -49   -0.23    2.62
  -1  13 -49    1.99    2.73
 -13   3 -49    8.78    3.42
 -13  -3 -49    7.32    3.27
  -3 -13 -49    1.37    2.15
   3  13 -49    9.43    2.27
  -3  13 -49   10.36    2.95
 -13   5 -49   39.43    3.93
 -13  -5 -49   35.28    3.69
  -5 -13 -49   33.49    2.87
  -5  13 -49   40.72    3.47
 -13   7 -49    8.16    3.33
 -13  -7 -49    7.67    3.23
  -7 -13 -49    7.46    2.51
  -7  13 -49    6.29    3.09
 -13  -9 -49   44.61    3.49
  -9 -13 -49   41.38    3.21
  -9  13 -49   40.09    3.63
 -13   9 -49   39.65    3.81
 -13 -11 -49   28.52    3.10
 -11 -13 -49   33.06    3.04
 -11  13 -49   24.12    3.40
 -13  11 -49   26.16    3.35
 -13 -13 -49   -0.73    2.52
 -13  13 -49   -2.11    3.01
 -15   1 -49    8.00    3.30
 -15  -1 -49    1.01    3.21
   1  15 -49    2.16    2.29
  -1  15 -49    0.16    2.61
 -15   3 -49    0.09    3.27
 -15  -3 -49    3.80    3.09
  -3 -15 -49    4.23    1.85
   3  15 -49   -2.40    2.08
  -3  15 -49    4.60    2.78
 -15   5 -49   10.03    3.24
 -15  -5 -49    6.87    3.13
  -5 -15 -49    7.80    2.08
  -5  15 -49   11.04    2.98
 -15   7 -49    3.06    3.15
 -15  -7 -49    6.28    3.05
  -7 -15 -49    3.91    2.28
  -7  15 -49    5.32    2.97
 -15  -9 -49   -1.45    2.85
  -9 -15 -49   -0.48    2.21
  -9  15 -49   -1.16    2.90
 -15   9 -49   -0.59    2.85
 -15 -11 -49    2.03    2.65
 -11 -15 -49    0.07    2.28
 -11  15 -49    4.07    2.86
 -15 -13 -49   10.83    2.47
 -13 -15 -49   14.64    2.34
 -13  15 -49    9.93    2.83
 -15 -15 -49    0.68    2.12
 -17  -1 -49    1.02    3.02
   1  17 -49    2.57    2.18
  -1  17 -49    1.73    2.45
 -17  -3 -49    4.88    2.94
  -3 -17 -49    1.97    1.40
  17  49   3    1.72    1.44
   3  17 -49    1.41    1.72
  -3  17 -49    2.05    2.50
 -17  -5 -49   12.61    3.06
  -5 -17 -49    6.97    1.77
  -5  17 -49   12.61    2.74
 -17  -7 -49   16.78    3.09
  -7 -17 -49   16.03    2.03
  -7  17 -49   18.45    2.89
 -17  -9 -49   14.48    2.79
  -9 -17 -49   13.81    2.11
  -9  17 -49   19.82    2.81
 -11 -17 -49    3.06    1.99
 -17 -13 -49   10.62    2.21
 -13 -17 -49   10.61    2.06
 -13  17 -49    9.98    2.32
 -17 -15 -49    3.12    1.81
 -15 -17 -49    3.27    1.71
 -17  15 -49    0.85    1.92
 -17 -17 -49    0.28    1.51
 -17  17 -49   -1.67    1.80
  -1  19 -49   -0.39    2.13
  19  49   3    1.39    1.32
  -3  19 -49    2.95    2.33
  19  49   5    5.79    1.56
  -5  19 -49    8.79    2.44
  -7  19 -49   21.52    2.68
 -19   7 -49   18.30    2.72
 -19  -9 -49    4.48    2.30
  -9 -19 -49    2.67    1.52
  -9  19 -49   -2.39    2.30
 -19   9 -49   -2.18    2.45
 -19 -11 -49    0.06    2.12
 -11 -19 -49    3.17    1.54
 -11  19 -49    0.32    2.06
 -19  11 -49    3.74    2.07
 -19 -13 -49   11.17    2.07
 -13 -19 -49    8.43    1.62
 -13  19 -49   10.94    2.17
 -19  13 -49   10.07    2.06
 -19 -15 -49    0.10    1.62
 -15 -19 -49    1.05    1.28
 -21   1 -49   -2.40    2.38
 -21  -1 -49    0.07    2.36
 -21   3 -49    0.92    2.35
 -21  -3 -49    1.32    2.38
  -5  21 -49    4.70    2.03
 -21   5 -49    8.07    2.25
  21  49   7    4.32    1.32
  -7  21 -49    5.00    1.99
 -21   7 -49    9.71    2.26
  21  49   9   -0.08    1.24
  -9  21 -49    0.53    2.02
 -21   9 -49    0.57    1.77
 -11  21 -49   -1.98    1.71
 -21  11 -49   -0.26    1.62
 -21  13 -49    5.95    1.44
 -23   1 -49    0.82    1.77
 -23  -1 -49   -0.33    1.79
 -23  -3 -49    4.16    1.70
 -23   3 -49    4.49    1.71
 -23  -5 -49   -0.99    1.73
 -23   5 -49    0.31    1.70
 -23  -7 -49    3.79    1.63
 -23   7 -49    1.52    1.44
 -23  -9 -49    7.37    1.56
 -23   9 -49    4.87    1.34
   0   0 -50  404.41   13.69
   0  -2 -50    2.82    2.21
  -2   0 -50    0.73    2.65
   2   0 -50    2.40    1.84
   0   2 -50    3.77    2.47
  -2   2 -50    6.33    2.75
  -2  -2 -50    5.42    2.56
   2   2 -50    4.46    2.07
   2  -2 -50    8.00    1.89
   0  -4 -50   10.81    2.19
  -4   0 -50   18.10    3.04
   0   4 -50   10.67    2.64
  -4   2 -50   24.60    3.13
  -2  -4 -50   21.43    2.82
  -4  -2 -50   23.55    3.05
   2   4 -50   23.43    2.36
  -2   4 -50   30.17    3.04
  -4   4 -50   30.74    3.27
  -4  -4 -50   30.55    3.10
   0   6 -50  137.26    5.46
  -6   0 -50  152.98    5.75
  -6   2 -50   11.34    3.15
  -2  -6 -50   12.81    2.37
  -6  -2 -50   10.05    2.99
   2   6 -50    6.74    2.22
  -2   6 -50   12.27    2.83
  -6   4 -50   11.53    3.07
  -4  -6 -50   10.27    2.65
  -6  -4 -50   11.34    2.96
  -4   6 -50    8.04    2.89
  -6  -6 -50   25.25    3.01
  -6   6 -50   24.31    3.26
   0  -8 -50    7.50    1.77
  -8   0 -50    9.82    3.13
   0   8 -50   12.18    2.58
  -8   2 -50    2.08    2.94
  -2  -8 -50    2.82    2.02
  -8  -2 -50    6.91    2.99
   2   8 -50   -1.78    2.02
  -2   8 -50    4.22    2.61
  -8   4 -50   -2.96    3.14
  -8  -4 -50    1.21    2.82
  -4  -8 -50    1.45    2.37
   4   8 -50    2.17    1.65
  -8  -6 -50    3.82    2.82
  -6  -8 -50    8.04    2.65
  -6   8 -50   13.20    3.06
  -8   6 -50   12.74    3.18
  -8  -8 -50   11.85    2.73
  -8   8 -50   17.30    3.16
 -10   0 -50    9.93    3.17
   0  10 -50   11.51    2.48
 -10   2 -50    6.45    3.07
  -2 -10 -50    3.58    1.95
 -10  -2 -50   -1.32    2.90
   2  10 -50    2.23    2.10
  -2  10 -50    5.16    2.63
 -10   4 -50    3.91    3.05
  -4 -10 -50    4.57    2.11
   4  10 -50    3.25    1.59
  -4  10 -50    6.91    2.72
 -10   6 -50   12.18    3.05
 -10  -6 -50   15.49    2.91
  -6 -10 -50   13.58    2.54
  -6  10 -50   13.48    3.06
 -10  -8 -50   -4.32    2.79
  -8 -10 -50   -0.29    2.48
  -8  10 -50    2.78    2.79
 -10   8 -50    3.85    3.01
 -10 -10 -50    3.22    2.48
 -10  10 -50    6.59    2.97
 -12   0 -50   31.17    3.44
   0  12 -50   23.98    2.67
 -12   2 -50    3.83    3.00
  -2 -12 -50    1.81    1.63
 -12  -2 -50    6.01    2.97
   2  12 -50    0.84    1.95
  -2  12 -50    0.90    2.51
 -12   4 -50    5.16    2.98
 -12  -4 -50    4.79    2.99
  -4 -12 -50   -0.23    1.84
   4  12 -50    0.52    1.46
  -4  12 -50   -1.64    2.64
 -12   6 -50   36.86    3.43
 -12  -6 -50   30.49    3.30
  -6 -12 -50   28.72    2.61
  -6  12 -50   30.75    3.22
 -12  -8 -50   23.03    2.99
  -8 -12 -50   21.30    2.51
  -8  12 -50   28.57    3.07
 -12   8 -50   32.87    3.32
 -12 -10 -50    4.80    2.43
 -10 -12 -50    0.40    2.25
 -10  12 -50    0.31    2.78
 -12  10 -50   -0.95    2.81
 -12 -12 -50   24.58    2.60
 -12  12 -50   25.46    2.95
   0  14 -50   48.31    3.07
 -14   0 -50   72.03    3.97
 -14   2 -50    2.81    2.89
 -14  -2 -50    1.07    2.95
   2  14 -50   -2.50    1.85
  -2  14 -50   -0.42    2.38
 -14   4 -50   33.66    3.35
 -14  -4 -50   31.57    3.04
  -4  14 -50   27.80    2.86
 -14   6 -50   18.47    3.00
 -14  -6 -50   14.07    2.73
  -6 -14 -50   12.03    2.03
  -6  14 -50   10.65    2.68
 -14  -8 -50   12.32    2.75
  -8 -14 -50    6.66    1.97
  -8  14 -50   11.12    2.57
 -14   8 -50   13.88    2.92
 -14 -10 -50    0.89    2.38
 -10 -14 -50   -2.55    1.96
 -10  14 -50   -2.03    2.56
 -14  10 -50   -0.22    2.69
 -14 -12 -50   11.96    2.28
 -12 -14 -50   11.32    2.04
 -12  14 -50   17.83    2.60
 -14  12 -50   15.49    2.51
 -14 -14 -50   -2.14    1.84
 -14  14 -50    3.36    2.03
 -16   0 -50    9.41    2.69
   0  16 -50    5.66    2.05
 -16   2 -50   -1.23    2.77
 -16  -2 -50    5.12    2.63
  -2  16 -50    1.80    2.13
 -16   4 -50   22.63    2.98
 -16  -4 -50   22.82    2.99
  -4  16 -50   20.99    2.58
 -16  -6 -50    2.52    2.63
  -6 -16 -50   -1.03    1.42
  -6  16 -50   -1.92    2.34
 -16   6 -50   -4.37    2.80
 -16  -8 -50    2.86    2.33
  -8 -16 -50    1.36    1.56
  -8  16 -50    6.62    2.33
 -16 -10 -50    0.82    2.15
 -10 -16 -50    3.60    1.65
 -10  16 -50    5.94    2.36
 -16 -12 -50    3.60    1.92
 -12 -16 -50    2.85    1.67
 -12  16 -50    6.07    2.02
 -16 -14 -50    6.03    1.58
 -14 -16 -50    5.70    1.54
 -14  16 -50    4.82    1.94
 -16 -16 -50   13.57    1.49
  -2  18 -50   15.46    2.11
 -18  -4 -50   10.39    2.39
  -4  18 -50   11.20    2.18
 -18  -6 -50    8.61    2.35
  -6  18 -50    8.23    2.07
 -18  -8 -50    2.81    2.00
  -8  18 -50    4.44    2.02
 -18 -10 -50    2.25    1.85
 -10  18 -50    0.93    1.99
 -18 -12 -50    8.62    1.85
 -12  18 -50    8.87    2.01
 -18  12 -50    6.22    1.91
 -18 -14 -50    2.59    1.41
 -18  14 -50    2.48    1.49
 -20   4 -50    4.64    2.03
  -6  20 -50   36.73    2.35
 -20   6 -50   35.93    2.53
  -8  20 -50    1.95    1.72
 -20   8 -50   10.01    1.90
 -10  20 -50   12.32    1.73
 -20 -12 -50    8.75    1.36
 -12  20 -50    6.60    1.38
 -22  -2 -50    3.08    1.61
 -22   2 -50    8.24    1.66
 -22  -4 -50    5.09    1.62
 -22  -6 -50    0.44    1.36
 -22   6 -50    1.56    1.40
   1   1 -51    1.66    1.67
   1  -1 -51    0.05    1.65
  -1   1 -51   -0.13    2.01
  -1  -1 -51    0.31    2.02
  -1  -3 -51    1.54    1.93
  -3  -1 -51    1.80    2.30
   1   3 -51    2.05    1.84
  -1   3 -51    2.12    2.13
  -3   1 -51    0.79    2.39
  -3  -3 -51   -1.13    2.19
  -3   3 -51    2.82    2.44
  -5   1 -51   -1.74    2.58
  -1  -5 -51    3.86    1.78
  -5  -1 -51    0.07    2.43
   1   5 -51    2.63    1.73
  -1   5 -51   -1.00    2.14
  -3  -5 -51   12.80    2.12
  -5  -3 -51   13.53    2.53
  -3   5 -51   13.82    2.54
  -5   3 -51   16.17    2.77
  -5  -5 -51    3.89    2.28
  -5   5 -51   -0.08    2.53
  -1  -7 -51    0.34    1.42
  -7   1 -51    1.01    2.64
  -7  -1 -51   -0.08    2.59
   1   7 -51   -4.58    1.72
  -1   7 -51   -0.07    1.99
  -7   3 -51   12.32    2.77
  -3  -7 -51    7.44    1.88
  -7  -3 -51    9.89    2.61
  -3   7 -51   11.75    2.49
  -5  -7 -51    2.16    2.10
  -7  -5 -51    5.27    2.43
  -5   7 -51    5.90    2.54
  -7   5 -51    7.28    2.63
  -7  -7 -51   -3.61    2.29
  -7   7 -51    5.02    2.64
  -9   1 -51    1.32    2.63
  -9  -1 -51   -2.92    2.66
   1   9 -51   -1.96    1.79
  -1   9 -51    1.64    2.11
  -9   3 -51   -1.32    2.64
  -3  -9 -51    2.40    1.59
  -9  -3 -51    2.40    2.57
  -3   9 -51    1.03    2.23
  -5  -9 -51   14.39    2.02
  -9  -5 -51   16.45    2.63
  -5   9 -51   13.18    2.53
  -9   5 -51   14.83    2.77
  -7  -9 -51   11.20    2.18
  -9  -7 -51   16.96    2.50
  -7   9 -51   17.76    2.69
  -9   7 -51   14.34    2.73
  -9  -9 -51    3.66    2.14
  -9   9 -51    2.33    2.51
 -11   1 -51   -3.35    2.60
 -11  -1 -51    1.21    2.61
   1  11 -51    2.97    1.60
  -1  11 -51   -2.87    2.00
 -11   3 -51    0.08    2.59
  -3 -11 -51    2.25    1.36
 -11  -3 -51    2.29    2.48
  -3  11 -51    1.57    2.18
  -5 -11 -51    0.35    1.68
 -11  -5 -51   -0.28    2.43
  -5  11 -51    1.85    2.26
 -11   5 -51    4.60    2.66
 -11  -7 -51   15.56    2.45
  -7 -11 -51   11.39    1.93
  -7  11 -51   14.02    2.45
 -11   7 -51   11.00    2.66
 -11  -9 -51    2.25    2.08
  -9 -11 -51   -2.55    1.91
  -9  11 -51    2.06    2.30
 -11   9 -51    5.58    2.55
 -11 -11 -51   -0.40    1.79
 -11  11 -51    0.07    2.25
 -13   1 -51    4.30    2.59
 -13  -1 -51    0.72    2.55
   1  13 -51   -1.53    1.54
  -1  13 -51   -0.44    1.78
 -13   3 -51    8.50    2.59
 -13  -3 -51   10.30    2.45
  -3  13 -51    8.62    2.13
  -5 -13 -51    4.25    1.35
 -13  -5 -51    7.66    2.33
  -5  13 -51    7.65    2.15
 -13   5 -51    3.08    2.48
 -13  -7 -51   -3.30    2.31
  -7 -13 -51   -1.11    1.53
  -7  13 -51    0.19    2.15
 -13   7 -51    1.25    2.47
 -13  -9 -51    6.06    2.11
  -9 -13 -51    5.85    1.65
  -9  13 -51   11.17    2.28
 -13   9 -51    7.58    2.41
 -13 -11 -51    9.90    2.00
 -11 -13 -51   11.73    1.77
 -11  13 -51   14.35    2.30
 -13  11 -51   16.21    2.28
 -13 -13 -51    0.93    1.54
 -13  13 -51    0.68    1.94
 -15   1 -51    2.51    2.27
 -15  -1 -51    1.69    2.23
  -1  15 -51    0.64    1.59
 -15   3 -51   -0.81    2.47
 -15  -3 -51    2.59    2.34
  -3  15 -51   -0.82    1.76
 -15  -5 -51    0.89    2.19
  -5  15 -51   -1.73    1.96
 -15   5 -51    1.39    2.38
 -15  -7 -51    1.45    1.94
  -7  15 -51    2.93    1.94
 -15   7 -51   -0.26    2.03
 -15  -9 -51   -0.44    1.78
  -9  15 -51   -2.24    1.87
 -15   9 -51   -1.70    1.87
 -15 -11 -51    1.19    1.55
 -11  15 -51   -2.34    1.76
 -15  11 -51   -4.13    1.96
 -15 -13 -51    2.11    1.37
 -13  15 -51    6.27    1.74
 -15  13 -51    2.04    1.52
 -17   1 -51    1.90    2.15
 -17  -1 -51   -0.49    2.07
 -17  -3 -51   -1.01    2.09
  -3  17 -51    1.55    1.48
 -17   3 -51    1.70    1.93
 -17  -5 -51   -1.55    1.96
  -5  17 -51    0.05    1.61
 -17  -7 -51   -1.40    1.88
  -7  17 -51   -1.33    1.67
 -17  -9 -51    4.63    1.65
  -9  17 -51    4.08    1.63
 -17 -11 -51    7.04    1.41
 -11  17 -51   10.15    1.61
 -19  -5 -51   -4.59    1.73
 -19  -7 -51    0.82    1.48
 -19  -9 -51    0.32    1.22
 -19   9 -51    1.18    1.34
 -21   1 -51   -1.03    1.32
 -21  -1 -51    1.11    1.32
   0   0 -52    3.62    1.29
  -2   0 -52    9.11    1.82
  -2   2 -52    0.87    1.70
  -2  -2 -52    0.30    1.61
   0   4 -52    1.18    1.41
  -4   0 -52    3.13    2.00
  -2   4 -52   10.22    1.94
  -4   2 -52    9.68    2.12
  -2  -4 -52    4.61    1.51
  -4  -2 -52    6.81    1.99
  -4  -4 -52   24.87    2.15
  -4   4 -52   31.72    2.43
   0   6 -52    0.95    1.42
  -6   0 -52    0.94    2.05
  -6  -2 -52   -0.24    1.99
  -2   6 -52   -1.19    1.73
  -6   2 -52   -0.64    2.09
  -4  -6 -52    4.45    1.50
  -6  -4 -52    6.44    1.91
  -4   6 -52    6.58    2.01
  -6   4 -52    7.03    2.17
  -6  -6 -52    0.90    1.68
  -6   6 -52    0.63    2.08
  -8   0 -52    3.86    2.16
   0   8 -52    0.69    1.35
  -8  -2 -52   10.30    2.19
  -2   8 -52    7.75    1.83
  -8   2 -52   15.53    2.35
  -4  -8 -52   -0.33    1.32
  -8  -4 -52   -1.07    1.96
  -4   8 -52    0.46    1.85
  -8   4 -52   -3.64    2.13
  -6  -8 -52    1.57    1.56
  -8  -6 -52    4.47    1.93
  -6   8 -52    3.51    2.07
  -8   6 -52    5.69    2.16
  -8  -8 -52    7.10    1.72
  -8   8 -52   12.76    2.16
 -10   0 -52   -4.41    2.22
 -10  -2 -52   -2.37    2.11
  -2  10 -52   -0.29    1.61
 -10   2 -52   -2.20    2.20
 -10  -4 -52    2.75    2.02
  -4  10 -52    2.18    1.77
 -10   4 -52   -0.13    2.16
  -6 -10 -52    0.08    1.27
 -10  -6 -52   -2.36    1.90
  -6  10 -52    0.29    1.94
 -10   6 -52   -0.75    2.10
  -8 -10 -52    0.31    1.38
 -10  -8 -52    2.83    1.73
  -8  10 -52    0.52    1.89
 -10   8 -52    0.96    2.00
 -10 -10 -52   -2.89    1.49
 -10  10 -52    4.34    1.83
 -12   0 -52   19.67    2.36
 -12  -2 -52   14.82    2.14
  -2  12 -52   11.69    1.64
 -12   2 -52   17.36    2.29
 -12  -4 -52    0.64    1.86
  -4  12 -52   -0.75    1.59
 -12   4 -52    2.95    2.13
 -12  -6 -52    3.60    1.94
  -6  12 -52    2.05    1.71
 -12   6 -52    1.92    2.11
 -12  -8 -52   13.20    1.78
  -8  12 -52   10.39    1.95
 -12   8 -52   14.38    2.07
 -12 -10 -52    1.32    1.40
 -10  12 -52    1.95    1.60
 -12  10 -52    0.79    1.82
 -12  12 -52   51.73    2.65
 -14   0 -52    7.67    2.02
 -14  -2 -52    0.73    1.79
 -14   2 -52   -0.12    1.91
 -14  -4 -52   -0.32    1.74
  -4  14 -52   -0.66    1.39
 -14   4 -52   -2.69    1.99
 -14  -6 -52   -1.22    1.75
  -6  14 -52    0.28    1.46
 -14   6 -52   -1.00    1.82
 -14  -8 -52   -0.19    1.46
  -8  14 -52   -0.98    1.44
 -14   8 -52    2.39    1.77
 -14 -10 -52    0.20    1.27
 -10  14 -52   -1.79    1.46
 -14  10 -52    1.91    1.50
 -14  12 -52    0.33    1.33
 -16   0 -52    2.38    1.67
 -16  -2 -52    2.58    1.64
 -16   2 -52    4.04    1.59
 -16  -4 -52    9.09    1.67
 -16   4 -52    6.09    1.65
 -16  -6 -52    1.17    1.35
 -16   6 -52    1.84    1.62
 -16  -8 -52    1.54    1.32
 -16   8 -52    0.67    1.46
 -18   0 -52    3.22    1.48
 -18   2 -52   -0.52    1.29
 -18  -2 -52    2.86    1.30
 -18  -4 -52    7.30    1.29
  -3   3 -53   -1.56    1.29
  -5   1 -53    1.44    1.45
  -5  -1 -53    1.16    1.42
  -3   5 -53   -1.55    1.32
  -5   3 -53    0.61    1.48
  -5  -3 -53   -0.53    1.30
  -5   5 -53   -2.09    1.51
  -7   1 -53    2.14    1.60
  -7  -1 -53    0.24    1.55
  -7   3 -53    0.50    1.62
  -7  -3 -53   -0.14    1.48
  -5   7 -53   14.10    1.62
  -7   5 -53   11.60    1.75
  -7  -5 -53    8.48    1.43
  -7   7 -53   -0.85    1.51
  -9   1 -53   -2.84    1.69
  -9  -1 -53    0.05    1.59
  -9   3 -53    0.10    1.66
  -9  -3 -53   -1.03    1.53
  -9  -5 -53    3.26    1.39
  -5   9 -53    0.95    1.30
  -9   5 -53    3.29    1.71
  -7   9 -53    1.14    1.41
  -9   7 -53   -1.00    1.48
  -9   9 -53   -0.97    1.37
 -11   1 -53    0.44    1.57
 -11  -1 -53    3.04    1.63
 -11  -3 -53    2.43    1.52
 -11   3 -53    2.96    1.64
 -11  -5 -53    0.85    1.34
 -11   5 -53    0.91    1.55
 -11   7 -53    3.69    1.48
 -11   9 -53   -0.17    1.31
 -13   1 -53    5.02    1.50
 -13  -1 -53    5.05    1.45
 -13   3 -53    1.93    1.46
 -13  -3 -53    1.38    1.33
 -13   5 -53    4.11    1.42
 -13   7 -53    3.14    1.27
 -15   1 -53    1.90    1.23
   0   0   0    0.00    0.00


TITL XXJ-DMF-XIFU in Fm-3c
REM Fm-3c (#226 in standard setting)
CELL 1.54184  43.548907  43.548907  43.548907  90.0000  90.0000  90.0000
ZERR  353.00   0.000305   0.000305   0.000305   0.0000   0.0000   0.0000
LATT  4
SYMM -x,-y, z
SYMM -x, y,-z
SYMM  x,-y,-z
SYMM  z, x, y
SYMM  z,-x,-y
SYMM -z,-x, y
SYMM -z, x,-y
SYMM  y, z, x
SYMM -y, z,-x
SYMM  y,-z,-x
SYMM -y,-z, x
SYMM  y+1/2, x+1/2,-z+1/2
SYMM -y+1/2,-x+1/2,-z+1/2
SYMM  y+1/2,-x+1/2, z+1/2
SYMM -y+1/2, x+1/2, z+1/2
SYMM  x+1/2, z+1/2,-y+1/2
SYMM -x+1/2, z+1/2, y+1/2
SYMM -x+1/2,-z+1/2,-y+1/2
SYMM  x+1/2,-z+1/2, y+1/2
SYMM  z+1/2, y+1/2,-x+1/2
SYMM  z+1/2,-y+1/2, x+1/2
SYMM -z+1/2, y+1/2, x+1/2
SYMM -z+1/2,-y+1/2,-x+1/2
SFAC C H N O
UNIT 3883.00 3530.00 353.00 353.00
TREF
HKLF 4
END
_computing_structure_solution     'SHELXT 2018/2 (Sheldrick, 2018)'
;
_shelx_hkl_checksum              79224
_shelx_fab_file
;
0 2 2 -249.5609 45.0381
0 4 0 273.9182 0.0593
0 4 2 -621.9614 -12.0604
0 4 4 99.6160 -17.7543
0 6 0 279.6766 9.3320
0 6 2 -231.3531 -14.9489
0 6 4 -58.9778 -6.4130
0 6 6 -39.4055 -7.3640
0 8 0 589.3081 8.3915
0 8 2 -123.9064 0.5072
0 8 4 22.6574 9.1227
0 8 6 -150.3764 6.2209
0 8 8 -156.2092 12.7085
0 10 0 463.0533 -18.9741
0 10 2 -263.9340 -6.6238
0 10 4 46.6110 2.6252
0 10 6 51.0215 0.3855
0 10 8 -14.2782 -0.7784
0 10 10 380.9954 4.0597
0 12 0 -260.5840 6.8629
0 12 2 -534.1452 2.5360
0 12 4 -45.2720 -0.7123
0 12 6 22.9807 -6.8330
0 12 8 -115.1287 -10.9598
0 12 10 2.7463 12.2493
0 12 12 -65.3225 29.1789
0 14 0 374.2053 -8.1153
0 14 2 -95.7081 2.3337
0 14 4 8.0382 9.2566
0 14 6 140.2578 1.2665
0 14 8 -22.4485 -6.4072
0 14 10 29.3487 4.2692
0 14 12 4.8937 22.4823
0 14 14 39.0147 15.1168
0 16 0 466.7166 -2.6635
0 16 2 -49.8034 -0.8030
0 16 4 -56.6853 -5.1052
0 16 6 -61.1099 10.5951
0 16 8 -80.8848 17.2091
0 16 10 -91.5011 4.6635
0 16 12 -147.9027 -2.8511
0 16 14 11.2749 -7.3402
0 16 16 79.6300 30.1840
0 18 0 258.7356 -7.2440
0 18 2 -114.1642 -2.1308
0 18 4 -95.9558 4.7422
0 18 6 3.7005 11.4470
0 18 8 -27.7296 15.3728
0 18 10 4.9099 1.7926
0 18 12 -3.0643 -0.3498
0 18 14 67.8031 0.6219
0 18 16 -70.6801 12.9734
0 18 18 -114.2869 17.7475
0 20 0 290.0418 23.8157
0 20 2 -84.2087 -1.5536
0 20 4 -39.9445 -12.4983
0 20 6 29.7869 -11.0938
0 20 8 114.2420 11.0147
0 20 10 60.3792 13.3081
0 20 12 -25.5233 -1.9042
0 20 14 27.2498 21.0429
0 20 16 32.4654 9.2485
0 20 18 -33.3741 11.1011
0 20 20 -1.4923 -23.0978
0 22 0 182.4684 -5.3476
0 22 2 -144.7360 -1.8514
0 22 4 9.9760 2.1829
0 22 6 -4.6806 -3.8230
0 22 8 -1.7152 -2.3764
0 22 10 63.0826 2.6405
0 22 12 -45.4796 11.3475
0 22 14 61.9548 10.6583
0 22 16 -22.5955 -3.1002
0 22 18 10.8062 5.3333
0 22 20 9.5567 2.6646
0 22 22 -19.6847 6.5570
0 24 0 155.4593 -12.9973
0 24 2 -91.1200 5.1681
0 24 4 73.7221 1.4269
0 24 6 20.0926 4.0853
0 24 8 63.7441 -3.2335
0 24 10 45.9717 -8.7925
0 24 12 45.0436 11.3714
0 24 14 1.6854 -7.7465
0 24 16 60.0421 10.6266
0 24 18 17.5828 -3.6212
0 24 20 47.8560 20.7243
0 24 22 -25.1500 -0.4731
0 24 24 -36.6985 -5.5508
0 26 0 -8.1950 -14.0471
0 26 2 -89.4379 3.5929
0 26 4 -2.0458 2.5452
0 26 6 14.4939 1.0838
0 26 8 -19.2279 -5.1137
0 26 10 -64.9296 -6.5153
0 26 12 -56.2449 8.9441
0 26 14 9.0903 -10.1061
0 26 16 -59.3049 6.7948
0 26 18 -23.5336 -4.2261
0 26 20 -10.8395 18.1912
0 26 22 -86.1054 -0.6297
0 26 24 0.0413 -9.1851
0 26 26 -41.2191 -8.9437
0 28 0 171.9856 -2.6582
0 28 2 -12.7857 -3.0004
0 28 4 1.3276 -1.0328
0 28 6 32.7485 -9.2417
0 28 8 47.6110 -8.6541
0 28 10 18.0659 -2.5900
0 28 12 20.4812 5.5865
0 28 14 10.9003 8.6993
0 28 16 53.5205 -9.1133
0 28 18 53.8820 -0.6475
0 28 20 61.6236 -5.4380
0 28 22 -4.5070 3.8932
0 28 24 28.0605 -6.5152
0 28 26 -11.7462 -3.4592
0 28 28 -25.6406 -0.2329
0 30 0 -14.7162 17.2728
0 30 2 -10.3050 -2.4972
0 30 4 -80.2335 -10.8633
0 30 6 -46.2369 -14.0947
0 30 8 -48.6715 2.6857
0 30 10 -14.9355 4.3230
0 30 12 -49.2366 -7.0929
0 30 14 -37.9982 8.2130
0 30 16 -24.1718 3.1019
0 30 18 -3.5603 2.9257
0 30 20 -17.3669 -25.4650
0 30 22 -49.5624 -4.0563
0 30 24 -63.9253 10.9806
0 30 26 -34.4448 9.3342
0 30 28 -26.9852 -7.7137
0 30 30 4.3403 -25.1859
0 32 0 103.8181 -10.6759
0 32 2 -11.0917 -1.5183
0 32 4 40.8597 1.4744
0 32 6 -32.0580 1.6280
0 32 8 -7.0452 6.9997
0 32 10 6.8389 -7.1301
0 32 12 19.6398 -8.9513
0 32 14 13.8356 -10.4056
0 32 16 -26.1735 6.4805
0 32 18 1.6681 4.5583
0 32 20 2.5288 6.1667
0 32 22 -71.0183 -1.8999
0 32 24 6.5954 -10.6762
0 32 26 -27.9762 -11.7049
0 32 28 4.8517 -5.5457
0 32 30 43.5503 1.1084
0 32 32 38.8139 0.8779
0 34 0 205.7951 -1.2908
0 34 2 -30.4297 0.3446
0 34 4 -7.5956 -7.0914
0 34 6 -7.3893 -2.8508
0 34 8 -10.1420 5.5984
0 34 10 -14.9293 -3.2211
0 34 12 -42.6546 -6.9165
0 34 14 -22.7428 -9.2624
0 34 16 -5.4564 14.8791
0 34 18 19.2521 2.2620
0 34 20 -7.1310 -1.0724
0 34 22 -17.7667 -9.5546
0 34 24 -21.0859 1.0218
0 34 26 14.2028 1.4060
0 34 28 -10.1199 -13.1569
0 34 30 92.3009 -2.9475
0 34 32 -1.5504 -0.9265
0 34 34 -26.1529 6.1635
0 36 0 95.8660 -6.7579
0 36 2 46.8023 0.7350
0 36 4 26.6969 4.6862
0 36 6 -90.6991 -4.6506
0 36 8 46.3824 -11.4900
0 36 10 -4.3171 -3.8063
0 36 12 4.6498 12.0080
0 36 14 8.5097 4.4441
0 36 16 20.5187 -14.0985
0 36 18 22.9374 -5.1728
0 36 20 38.2220 5.0488
0 36 22 -11.4622 5.5051
0 36 24 6.5363 -9.2130
0 36 26 -26.1816 -7.5915
0 36 28 26.4042 5.3976
0 36 30 -19.8660 1.2825
0 36 32 12.7140 -8.1618
0 36 34 -11.0412 -10.0909
0 38 0 132.1329 3.5882
0 38 2 -4.1533 0.3558
0 38 4 -40.5876 -2.6559
0 38 6 20.0919 -7.9202
0 38 8 -19.3554 -11.5948
0 38 10 -12.3708 2.7579
0 38 12 -41.1956 12.1184
0 38 14 -51.5658 8.0168
0 38 16 1.4070 -5.9612
0 38 18 -0.0648 -4.9190
0 38 20 21.2172 -4.4373
0 38 22 2.3905 3.7981
0 38 24 -6.4354 3.7502
0 38 26 -2.0969 2.3693
0 38 28 -10.6365 0.6710
0 38 30 -6.5684 -7.7844
0 38 32 7.4114 -6.8627
0 38 34 -0.0714 -7.4477
0 38 36 19.5312 4.6936
0 40 0 -18.5452 -7.7978
0 40 2 -15.9360 0.8058
0 40 4 17.0393 2.4091
0 40 6 3.3470 3.1666
0 40 8 17.7874 0.3859
0 40 10 -21.7735 -1.6972
0 40 12 10.0052 5.2805
0 40 14 9.8278 -2.9850
0 40 16 -11.2504 3.7994
0 40 18 -17.4212 0.4066
0 40 20 2.0599 11.6348
0 40 22 -26.6673 1.5307
0 40 24 0.4213 -6.5836
0 40 26 -19.0404 -6.4698
0 40 28 18.3779 0.9399
0 40 30 15.2159 6.7726
0 40 32 -11.4977 -3.5036
0 40 34 -30.9638 0.1124
0 40 36 4.1906 -2.7073
0 40 38 -10.9274 2.3605
0 42 0 -10.0274 -3.1254
0 42 2 -21.5752 0.3923
0 42 4 11.8531 -0.6444
0 42 6 9.0071 7.1829
0 42 8 9.5233 10.2189
0 42 10 4.2758 -1.0687
0 42 12 29.7912 -5.5712
0 42 14 7.5835 -5.7227
0 42 16 -18.6469 13.0338
0 42 18 -24.1751 7.0526
0 42 20 -4.2835 7.1748
0 42 22 -2.6184 -1.8521
0 42 24 16.2493 -0.2686
0 42 26 30.1195 -0.0592
0 42 28 20.5234 -5.0615
0 42 30 21.2845 2.6725
0 42 32 41.4094 4.3592
0 42 34 18.5506 4.7797
0 44 0 43.1777 9.8225
0 44 2 -6.6256 -2.1702
0 44 4 31.6889 -4.6516
0 44 6 -3.1261 -2.2164
0 44 8 0.9771 6.9137
0 44 10 -19.9596 7.3757
0 44 12 -6.4544 -4.2252
0 44 14 -29.9177 7.1439
0 44 16 2.3813 7.4242
0 44 18 15.0982 9.0836
0 44 20 29.5246 -8.8888
0 44 22 -0.7284 -0.1253
0 44 24 -5.7965 7.8403
0 44 26 -15.0658 7.5176
0 44 28 38.3450 -3.0853
0 44 30 -31.0747 -11.1999
0 44 32 15.4185 6.9495
0 46 0 -21.8361 3.2434
0 46 2 -33.0054 -1.8283
0 46 4 -7.0109 0.7791
0 46 6 9.1093 -1.6073
0 46 8 -1.8705 1.2111
0 46 10 -17.0699 5.2327
0 46 12 -44.4249 5.4551
0 46 14 3.1051 11.4015
0 46 16 1.1769 -2.9767
0 46 18 -4.4672 3.4957
0 46 20 -0.4059 -4.8522
0 46 22 -13.7815 4.8274
0 46 24 21.6268 2.3559
0 46 26 4.4186 2.7260
0 46 28 0.2539 4.3812
0 48 0 -49.1861 1.7038
0 48 2 -23.0413 1.4886
0 48 4 20.6222 -1.2610
0 48 6 12.1597 1.6598
0 48 8 6.6154 0.8124
0 48 10 6.5213 2.3470
0 48 12 -3.7474 4.1826
0 48 14 -25.1238 -0.2633
0 48 16 -0.7766 7.0326
0 48 18 -27.3655 0.1134
0 48 20 30.0430 4.0520
0 48 22 -32.6805 0.8303
0 48 24 1.4391 8.2698
0 48 26 42.1247 5.0337
0 50 0 -6.6883 -15.7774
0 50 2 6.1075 2.2746
0 50 4 10.2639 7.8076
0 50 6 -19.3854 7.3411
0 50 8 -11.2266 -2.7548
0 50 10 -5.8458 -4.4099
0 50 12 19.6380 9.5987
0 50 14 -16.5486 -5.2639
0 50 16 -16.6186 1.9063
0 52 0 17.1989 0.5606
0 52 2 9.9019 1.9583
0 52 4 -40.3102 -2.6618
0 52 6 -21.4851 -1.5648
0 52 8 -18.0887 -1.4289
0 52 10 19.6647 1.9178
0 52 12 -10.9779 3.1517
0 52 14 -5.7962 5.4139
0 52 16 3.9649 0.6142
0 52 18 -4.6451 -0.5548
1 5 3 -433.3506 -8.4810
1 7 3 42.9696 32.5145
1 7 5 262.8616 -25.7822
1 9 3 -36.3606 12.2436
1 9 5 186.2585 -11.8847
1 9 7 76.0301 41.3548
1 11 3 -139.0218 1.6812
1 11 5 -7.2507 -3.0944
1 11 7 120.9031 -20.6848
1 11 9 43.5786 -7.7588
1 13 3 -194.8954 -7.2737
1 13 5 -69.9815 -5.7328
1 13 7 -145.3866 -6.0528
1 13 9 -26.8497 23.6011
1 13 11 -51.9895 -27.1011
1 15 3 -120.3852 14.2494
1 15 5 16.9839 -8.4561
1 15 7 -89.3236 -2.5101
1 15 9 -17.7767 0.1846
1 15 11 -22.6897 3.6021
1 15 13 -26.4122 7.0039
1 17 3 -17.0825 21.4169
1 17 5 100.5064 -16.6101
1 17 7 147.2777 10.7209
1 17 9 185.7723 -23.1497
1 17 11 17.3633 -0.7560
1 17 13 68.2999 2.4299
1 17 15 45.0004 8.5049
1 19 3 -269.0166 19.5466
1 19 5 -39.6432 -17.0639
1 19 7 18.1829 2.9635
1 19 9 109.0278 1.3081
1 19 11 11.7115 -3.9290
1 19 13 -91.0276 -7.0174
1 19 15 -18.5713 8.7693
1 19 17 -8.5019 9.5552
1 21 3 -7.8057 8.5171
1 21 5 -11.1490 -3.3892
1 21 7 80.4224 -15.7751
1 21 9 5.0278 -3.8732
1 21 11 -83.7130 2.7671
1 21 13 -22.7985 16.1080
1 21 15 17.5497 -4.0501
1 21 17 48.4420 -5.2460
1 21 19 40.0485 -7.7661
1 23 3 34.9148 -3.8173
1 23 5 42.1446 -10.1957
1 23 7 -20.0086 12.4189
1 23 9 -34.3057 9.6949
1 23 11 5.0768 -5.4163
1 23 13 33.5014 -7.9294
1 23 15 20.6020 1.6688
1 23 17 -10.4251 16.8068
1 23 19 8.2043 6.4803
1 23 21 18.0056 -3.5253
1 25 3 1.5992 3.9543
1 25 5 15.2720 6.6832
1 25 7 -21.9928 -0.8632
1 25 9 30.9773 -17.4523
1 25 11 20.4595 13.7203
1 25 13 25.9514 9.8316
1 25 15 12.3046 1.2565
1 25 17 -41.3116 -6.6359
1 25 19 6.1884 -1.6149
1 25 21 13.9170 5.2779
1 25 23 3.7529 6.0078
1 27 3 11.2177 -8.3022
1 27 5 -0.3277 -5.6286
1 27 7 -2.2335 13.2609
1 27 9 1.8313 19.6694
1 27 11 -21.1862 -8.0525
1 27 13 -13.1556 -9.5786
1 27 15 -13.8250 4.7231
1 27 17 -43.6727 13.5149
1 27 19 -9.7393 7.8097
1 27 21 -6.2612 -2.7354
1 27 23 -18.4369 0.5666
1 27 25 -9.0556 -7.8428
1 29 3 -50.5879 2.4298
1 29 5 17.2624 3.0895
1 29 7 -22.5603 -11.4253
1 29 9 -34.5024 1.0502
1 29 11 -48.6488 6.4620
1 29 13 -7.1772 15.7938
1 29 15 1.4118 -3.1042
1 29 17 -21.2637 -0.4213
1 29 19 -21.3680 -0.3146
1 29 21 -64.8553 2.5484
1 29 23 -51.7718 4.3853
1 29 25 -0.2131 -0.6108
1 29 27 -27.7822 5.2517
1 31 3 -17.3634 9.5643
1 31 5 14.4379 -9.9356
1 31 7 -19.3010 10.5542
1 31 9 -57.9288 1.9235
1 31 11 -16.4008 2.1543
1 31 13 52.0433 -5.4072
1 31 15 -0.3671 6.0813
1 31 17 -27.5323 8.7838
1 31 19 13.0065 -0.0741
1 31 21 -18.4210 2.6393
1 31 23 -8.8385 -4.1964
1 31 25 15.9254 6.7040
1 31 27 -6.4447 -12.3710
1 31 29 -6.3183 8.2346
1 33 3 -2.6675 12.8278
1 33 5 -28.2720 -6.1557
1 33 7 4.9397 14.1205
1 33 9 -7.9551 -14.1463
1 33 11 17.9048 8.7061
1 33 13 11.1049 2.9421
1 33 15 -1.1438 2.5492
1 33 17 -13.2474 -2.0181
1 33 19 0.8634 1.5108
1 33 21 16.5084 11.9252
1 33 23 -3.6890 -5.9492
1 33 25 -11.4487 5.7379
1 33 27 -12.6367 -6.0495
1 33 29 17.5866 10.7800
1 33 31 -12.2548 -6.0578
1 35 3 -11.3888 1.1862
1 35 5 4.6176 2.4759
1 35 7 27.0744 -0.6656
1 35 9 3.2958 -0.4801
1 35 11 3.9535 1.3887
1 35 13 -5.5708 4.4359
1 35 15 5.9822 -0.6815
1 35 17 -26.9344 1.3346
1 35 19 8.1202 2.0144
1 35 21 -3.3663 1.1020
1 35 23 -37.8349 0.8348
1 35 25 -4.8894 -1.7911
1 35 27 20.0266 3.7691
1 35 29 -1.6764 -1.8772
1 35 31 -17.1853 -2.5113
1 35 33 -6.7266 -6.2032
1 37 3 -6.5212 -13.7727
1 37 5 -24.8174 3.1895
1 37 7 7.9469 -3.5561
1 37 9 -6.3639 20.0165
1 37 11 -5.2681 -5.1828
1 37 13 44.5290 0.9796
1 37 15 4.4853 -0.0795
1 37 17 -14.6889 9.7623
1 37 19 -5.3543 3.7505
1 37 21 4.5092 -6.7342
1 37 23 -6.6731 9.0941
1 37 25 16.1080 -4.9492
1 37 27 -9.8641 4.1515
1 37 29 -1.9111 -9.1970
1 37 31 -13.4309 9.7507
1 37 33 10.2614 1.6509
1 37 35 3.5074 -0.8227
1 39 3 -12.1902 -2.4884
1 39 5 5.8924 3.3930
1 39 7 15.9917 -5.6144
1 39 9 -4.2307 -5.1269
1 39 11 -4.0676 5.3084
1 39 13 28.2605 10.4133
1 39 15 41.6040 -3.2599
1 39 17 16.3721 -5.2873
1 39 19 13.6609 -1.6454
1 39 21 15.5766 1.7843
1 39 23 -10.6257 3.3901
1 39 25 -2.4812 -2.5466
1 39 27 -2.3594 0.3836
1 39 29 -14.1808 1.1401
1 39 31 -15.0054 -2.6152
1 39 33 -4.8191 -7.7081
1 39 35 0.9745 1.7765
1 39 37 -3.3440 10.9916
1 41 3 -13.7681 9.8247
1 41 5 -15.4984 -13.0858
1 41 7 -10.1996 15.8949
1 41 9 0.1660 -1.6824
1 41 11 -18.7003 -5.7939
1 41 13 -19.0807 -11.2731
1 41 15 -8.9843 5.0685
1 41 17 -8.0766 5.3247
1 41 19 9.3460 2.8599
1 41 21 -8.9280 2.6454
1 41 23 0.0555 -8.6762
1 41 25 0.9171 7.6347
1 41 27 -11.4860 -8.4862
1 41 29 -1.8062 3.5706
1 41 31 -36.6832 -2.1499
1 41 33 3.7104 3.5787
1 41 35 -9.2261 -3.0322
1 43 3 -18.5569 14.9818
1 43 5 -4.3269 -3.1000
1 43 7 24.2083 -6.4625
1 43 9 6.6622 -16.6335
1 43 11 9.3734 9.2221
1 43 13 -15.6470 9.8054
1 43 15 -10.0608 -3.3065
1 43 17 1.3957 -7.9206
1 43 19 -7.3982 -2.7869
1 43 21 0.9810 6.7007
1 43 23 2.9217 -5.5724
1 43 25 0.8047 2.4785
1 43 27 5.7730 -2.9900
1 43 29 -37.3191 1.8297
1 43 31 -24.9870 -7.9070
1 43 33 0.7043 -1.8113
1 45 3 -1.8819 2.3521
1 45 5 -41.6632 -8.3856
1 45 7 11.1399 0.8678
1 45 9 4.6937 7.8675
1 45 11 -2.8938 -6.1638
1 45 13 18.4648 -5.9008
1 45 15 26.9902 1.0339
1 45 17 -4.3135 8.9689
1 45 19 -27.8762 -1.3889
1 45 21 -5.6500 -3.9588
1 45 23 12.6965 0.2474
1 45 25 30.0994 -0.7188
1 45 27 2.2500 -2.0198
1 45 29 13.4375 -5.1221
1 45 31 6.3387 6.1405
1 47 3 -14.4175 3.1121
1 47 5 -22.2749 -2.7194
1 47 7 -14.5747 -3.3167
1 47 9 -36.6398 -6.5164
1 47 11 1.0692 0.1044
1 47 13 0.4352 7.4335
1 47 15 -6.3304 -1.6123
1 47 17 -20.1500 -4.1996
1 47 19 -19.5278 -2.7715
1 47 21 8.3509 -0.9724
1 47 23 -11.7802 2.2242
1 47 25 -9.7856 -1.0753
1 47 27 42.3178 3.2977
1 49 3 -18.5125 0.3502
1 49 5 -26.6104 -2.9008
1 49 7 -10.8903 8.6660
1 49 9 19.2332 -0.8693
1 49 11 -18.4187 -2.3589
1 49 13 -25.6740 -4.2954
1 49 15 -24.6412 0.6272
1 49 17 2.2169 2.8465
1 49 19 8.1478 2.7785
1 49 21 -16.3055 0.2891
1 49 23 -3.3286 -1.2615
1 51 3 -12.2236 0.1731
1 51 5 -9.8608 -1.0813
1 51 7 -11.2962 -2.2389
1 51 9 4.5982 -1.8859
1 51 11 39.2813 0.1992
1 51 13 11.3672 1.4315
1 51 15 6.0733 -1.9191
1 51 17 12.3234 -0.3651
1 51 21 4.3326 0.2130
1 53 5 -10.5715 2.7439
1 53 7 4.9237 -5.1176
1 53 9 -13.8883 2.2991
1 53 11 20.7582 1.1229
1 53 13 28.1972 0.8288
1 53 15 29.2907 -1.8006
2 4 2 18.8548 -3.0273
2 4 4 -0.9663 4.7281
2 6 2 350.0502 5.8008
2 6 4 23.9814 -5.9734
2 6 6 245.3601 -2.5414
2 8 2 53.7394 6.7090
2 8 4 53.7891 -3.5577
2 8 6 29.6865 -1.9628
2 8 8 -20.8379 -0.3453
2 10 2 -112.5347 3.2814
2 10 4 -100.9169 -2.6065
2 10 6 81.8356 1.8534
2 10 8 -106.9754 9.4875
2 10 10 29.2658 -8.4887
2 12 2 -101.6283 -2.2105
2 12 4 139.2596 -0.6110
2 12 6 65.2938 -6.4700
2 12 8 83.0556 4.4737
2 12 10 -71.8718 0.1439
2 12 12 85.9038 -13.9179
2 14 2 82.4920 2.7564
2 14 4 -0.6749 -1.9623
2 14 6 66.4844 -6.5272
2 14 8 -90.2007 6.1295
2 14 10 -9.7139 -4.1139
2 14 12 23.3792 1.8576
2 14 14 -4.1344 -5.6740
2 16 2 98.4303 0.2319
2 16 4 -27.9898 -2.4781
2 16 6 25.5968 -4.4413
2 16 8 28.6995 -7.9687
2 16 10 -176.5269 -6.7533
2 16 12 6.5279 -4.7467
2 16 14 56.2522 9.2397
2 16 16 -22.5404 -3.9718
2 18 2 102.6110 4.0154
2 18 4 -26.5073 -10.0640
2 18 6 52.6815 -5.0245
2 18 8 -10.5361 -2.2217
2 18 10 -57.3189 -10.5255
2 18 12 -25.3472 1.3710
2 18 14 60.3622 -8.9592
2 18 16 25.7964 -0.2691
2 18 18 -66.6541 -9.3109
2 20 2 43.8403 -6.5977
2 20 4 -36.2948 12.8447
2 20 6 16.6287 3.5769
2 20 8 56.6303 -5.8922
2 20 10 -47.9845 -2.9818
2 20 12 9.6760 4.6953
2 20 14 18.0803 -10.3295
2 20 16 5.5163 -0.9135
2 20 18 -66.9543 -11.5107
2 20 20 -30.1394 1.1368
2 22 2 40.7632 -0.0500
2 22 4 -67.8628 -1.8896
2 22 6 -16.7655 3.6096
2 22 8 -14.9987 0.6992
2 22 10 23.5493 -3.3611
2 22 12 -53.5457 1.8300
2 22 14 52.8090 -4.9325
2 22 16 -2.5111 -6.7854
2 22 18 48.6236 5.9311
2 22 20 37.9882 -6.8351
2 22 22 -10.1462 -1.8078
2 24 2 -28.4794 2.0906
2 24 4 -61.9606 -7.0580
2 24 6 0.5036 -1.2432
2 24 8 -34.3044 2.2822
2 24 10 -22.2155 -0.0851
2 24 12 37.9230 -6.3131
2 24 14 -3.1622 1.4454
2 24 16 -9.3996 -8.5905
2 24 18 -36.9071 -0.2819
2 24 20 -29.7798 -5.9364
2 24 22 5.6037 -2.8919
2 24 24 11.1526 7.3328
2 26 2 101.5395 5.6957
2 26 4 -0.2970 -2.1458
2 26 6 81.6787 -4.3484
2 26 8 54.2740 7.0981
2 26 10 -5.3303 1.1150
2 26 12 -11.0852 -2.5202
2 26 14 77.3535 1.2880
2 26 16 -25.5699 1.2081
2 26 18 9.6765 -3.8240
2 26 20 -7.5788 5.1597
2 26 22 30.6717 -2.9922
2 26 24 -10.5131 2.6573
2 26 26 33.8833 7.3141
2 28 2 7.3169 1.9626
2 28 4 -24.3537 -0.5178
2 28 6 -29.9783 3.0446
2 28 8 22.3985 7.5353
2 28 10 -24.6124 -1.7227
2 28 12 18.9612 4.5790
2 28 14 -26.6163 -4.4117
2 28 16 -22.2270 0.0130
2 28 18 -43.1027 -0.4200
2 28 20 -17.0016 -0.6936
2 28 22 -20.8942 -1.3747
2 28 24 -34.7938 2.0429
2 28 26 -35.2873 2.1826
2 28 28 -49.6918 3.1608
2 30 2 66.4605 -5.3474
2 30 4 -23.8116 6.7469
2 30 6 41.3586 9.8753
2 30 8 37.4256 -2.1499
2 30 10 41.1784 2.4573
2 30 12 43.9551 3.8256
2 30 14 33.5716 -4.1772
2 30 16 21.9446 2.8386
2 30 18 14.8363 -0.6364
2 30 20 10.4443 -1.3187
2 30 22 0.1163 5.0613
2 30 24 13.3160 0.4616
2 30 26 -5.1275 -2.0993
2 30 28 -24.4416 2.5383
2 30 30 43.8589 1.5659
2 32 2 43.9338 6.9510
2 32 4 35.7155 -3.9987
2 32 6 -34.9470 2.0045
2 32 8 -16.4150 -0.3879
2 32 10 -26.5149 -0.3621
2 32 12 7.4162 4.0148
2 32 14 -34.9613 0.5356
2 32 16 -26.8889 0.7601
2 32 18 -30.8910 0.4197
2 32 20 -11.9940 2.1558
2 32 22 -24.0695 -1.7225
2 32 24 -3.4423 5.4494
2 32 26 -42.1598 7.6996
2 32 28 -15.4898 7.1461
2 32 30 10.9792 -4.4132
2 32 32 30.5594 -0.5873
2 34 2 108.7971 -0.0080
2 34 4 -20.2051 6.8581
2 34 6 25.2993 -0.6944
2 34 8 -14.3430 -4.6713
2 34 10 17.2493 3.6489
2 34 12 -3.9517 -2.7901
2 34 14 28.2869 1.9190
2 34 16 3.7317 1.3439
2 34 18 35.4387 -6.4786
2 34 20 10.5454 0.8605
2 34 22 22.1883 3.2578
2 34 24 -0.5395 1.7859
2 34 26 29.0481 -3.7628
2 34 28 24.5763 1.9718
2 34 30 37.3710 5.6446
2 34 32 -15.6928 2.4282
2 34 34 23.9467 2.3100
2 36 2 34.5895 3.5400
2 36 4 -21.2725 -4.9723
2 36 6 -5.7130 1.5814
2 36 8 4.6050 10.9675
2 36 10 0.8017 -1.7107
2 36 12 2.5094 0.0325
2 36 14 4.4799 -1.1452
2 36 16 2.7905 0.3633
2 36 18 -15.1652 3.0357
2 36 20 27.8538 -0.2928
2 36 22 -1.6148 -2.0170
2 36 24 28.1623 1.0210
2 36 26 -7.5655 5.1517
2 36 28 -0.5471 2.9331
2 36 30 0.7702 -0.5754
2 36 32 23.7187 -1.6793
2 36 34 -13.9079 8.1334
2 36 36 25.4755 0.2658
2 38 2 63.0938 -3.4543
2 38 4 -50.0667 2.8761
2 38 6 12.4210 2.5062
2 38 8 -7.7309 5.2068
2 38 10 22.1607 1.3279
2 38 12 -25.4012 -1.1658
2 38 14 11.8328 -3.4596
2 38 16 -2.5066 0.4827
2 38 18 -8.8117 -2.4871
2 38 20 -13.5357 -0.7366
2 38 22 28.1620 0.7494
2 38 24 -18.2247 0.0515
2 38 26 1.7205 -1.2842
2 38 28 -35.1844 -1.2208
2 38 30 5.1958 2.9036
2 38 32 -14.5121 1.3491
2 38 34 23.1038 2.2825
2 38 36 -21.2459 -1.3503
2 38 38 -1.5475 -5.3204
2 40 2 4.7554 3.1586
2 40 4 -15.3436 -2.3265
2 40 6 21.7623 -4.0398
2 40 8 20.5700 3.1776
2 40 10 -29.2045 -4.0156
2 40 12 33.0084 -2.7752
2 40 14 -24.0353 0.5531
2 40 16 -10.4321 -2.2276
2 40 18 3.7443 -0.4380
2 40 20 4.0690 -1.1855
2 40 22 -16.6120 -3.0948
2 40 24 10.3575 0.4321
2 40 26 10.2973 2.8999
2 40 28 20.8673 1.7319
2 40 30 2.6079 -1.1881
2 40 32 -4.4719 -0.1822
2 40 34 14.1989 1.6027
2 40 36 22.1402 1.1372
2 42 2 61.4668 2.0902
2 42 4 15.4856 -1.5553
2 42 6 30.9215 -2.7308
2 42 8 9.5831 -4.2114
2 42 10 19.8744 -2.4129
2 42 12 19.6685 -0.5570
2 42 14 12.5593 -0.8443
2 42 16 -13.7981 -1.7935
2 42 18 -11.3528 -2.8059
2 42 20 0.2467 -3.0016
2 42 22 14.1554 0.3440
2 42 24 -26.3137 -0.2399
2 42 26 4.5461 -1.3293
2 42 28 -20.0957 -0.4114
2 42 30 15.7239 -1.5628
2 42 32 -2.1822 1.0514
2 42 34 15.4815 -1.5302
2 44 2 -1.2732 -2.9650
2 44 4 -27.7819 1.0156
2 44 6 -7.6453 3.5292
2 44 8 8.7678 -5.1375
2 44 10 -35.5457 -0.7458
2 44 12 -64.8269 1.6680
2 44 14 4.1783 -4.7635
2 44 16 -11.8731 -0.0280
2 44 18 -33.0747 -3.2690
2 44 20 -6.7933 -1.0847
2 44 22 13.0745 1.8724
2 44 24 -12.7311 -2.5639
2 44 26 -9.5868 -2.2865
2 44 28 -19.0584 2.5711
2 44 30 -11.9570 1.0873
2 44 32 -14.8670 -1.9074
2 46 2 18.9251 -0.4337
2 46 4 -29.4275 -1.7463
2 46 6 1.8872 0.7160
2 46 8 3.2379 0.1329
2 46 10 -9.2315 -6.5021
2 46 12 5.3514 3.9538
2 46 14 -22.9986 -7.1686
2 46 16 -15.0529 1.5962
2 46 18 -3.0239 -2.1043
2 46 20 22.1401 -1.8227
2 46 22 5.8209 -3.0290
2 46 24 -12.5733 -2.2096
2 46 26 9.1475 -0.2749
2 46 28 3.1289 0.6077
2 48 2 -0.1747 -1.6530
2 48 4 3.6047 2.7865
2 48 6 15.7155 -3.0782
2 48 8 6.5683 1.4079
2 48 10 9.6238 -2.1995
2 48 12 1.2349 -1.1889
2 48 14 6.3311 -3.6470
2 48 16 -18.9382 -1.3732
2 48 18 7.7062 -4.0571
2 48 20 -19.7009 1.9452
2 48 22 8.1187 -0.2258
2 48 24 16.8039 -1.4254
2 48 26 9.7834 -0.0528
2 50 2 39.5686 5.3598
2 50 4 0.9795 -7.1298
2 50 6 -15.3915 -6.8576
2 50 8 24.3383 5.2941
2 50 10 43.2177 -2.0687
2 50 12 17.4258 -3.5935
2 50 14 -17.5535 1.8725
2 50 16 23.3728 -2.8387
2 50 18 -16.7011 1.4723
2 50 22 19.6588 1.1191
2 52 2 8.6267 -0.7307
2 52 4 -30.2749 -0.4987
2 52 6 -20.6122 -0.0518
2 52 8 8.3240 -0.3944
2 52 10 -4.7668 0.5673
2 52 12 -16.4028 -4.1265
2 52 14 -23.2406 1.3520
2 52 16 -14.2280 -1.9214
2 52 18 -13.4879 2.6796
3 7 5 -170.0568 6.5103
3 9 5 -141.4064 -8.3368
3 9 7 46.0250 6.9489
3 11 5 -270.6293 -17.0008
3 11 7 115.3287 4.2245
3 11 9 -103.0115 -6.8581
3 13 5 -56.0346 -24.9411
3 13 7 -14.4143 3.7586
3 13 9 -4.9881 -4.2379
3 13 11 -2.7538 -2.4417
3 15 5 -76.6722 -10.4568
3 15 7 85.5963 4.8641
3 15 9 -0.0742 4.3108
3 15 11 0.1013 -2.5093
3 15 13 -26.0618 -1.0476
3 17 5 -88.6402 -1.2879
3 17 7 13.8751 1.5501
3 17 9 -75.1130 4.2918
3 17 11 -76.0510 -4.7809
3 17 13 -53.6006 2.9353
3 17 15 -30.4219 -8.1750
3 19 5 -42.9402 -7.0851
3 19 7 8.0850 -8.8869
3 19 9 -2.1203 1.9093
3 19 11 34.9627 4.1654
3 19 13 -48.5983 3.7846
3 19 15 12.7130 -3.6571
3 19 17 53.9828 3.3066
3 21 5 -87.4841 -0.0879
3 21 7 16.5876 9.4361
3 21 9 -85.4726 -9.0201
3 21 11 -52.2788 -2.2866
3 21 13 -35.2487 4.1050
3 21 15 -34.1735 -0.3945
3 21 17 28.9887 2.4244
3 21 19 1.0697 -0.4763
3 23 5 -34.3444 -15.0016
3 23 7 49.6435 -3.1800
3 23 9 -14.7888 -1.7510
3 23 11 31.7284 2.1717
3 23 13 20.5078 6.3312
3 23 15 -7.3018 -5.1897
3 23 17 28.6128 -8.6581
3 23 19 -13.7415 -4.0246
3 23 21 28.3311 -0.6237
3 25 5 -12.4081 -4.5981
3 25 7 30.4310 15.3696
3 25 9 2.5153 0.4172
3 25 11 19.7179 -2.6588
3 25 13 -8.9153 -2.7179
3 25 15 -13.6813 2.2325
3 25 17 11.8204 9.8732
3 25 19 7.7300 6.7622
3 25 21 19.5960 -2.8420
3 25 23 -4.6947 -6.7987
3 27 5 -3.6570 -11.6747
3 27 7 -1.3374 -2.9876
3 27 9 -51.2618 1.5737
3 27 11 8.4585 5.8972
3 27 13 -32.4254 3.7511
3 27 15 -15.9273 0.5433
3 27 17 9.0370 -4.1409
3 27 19 15.3134 -5.3416
3 27 21 5.4932 1.1854
3 27 23 -45.2177 0.6072
3 27 25 6.2112 7.1727
3 29 5 37.7363 8.8072
3 29 7 19.3574 4.8363
3 29 9 -31.9592 -13.0783
3 29 11 -36.9699 -1.0826
3 29 13 9.2925 -0.3274
3 29 15 -58.5966 -1.6144
3 29 17 4.2078 3.5044
3 29 19 -1.8226 -0.4020
3 29 21 -39.9769 3.5021
3 29 23 1.1473 -0.3730
3 29 25 -6.9283 2.5276
3 29 27 19.7478 3.5048
3 31 5 11.5632 6.9647
3 31 7 27.0050 -3.8057
3 31 9 -19.0520 0.8519
3 31 11 -9.9933 4.6647
3 31 13 20.0093 3.4064
3 31 15 -7.4024 2.2032
3 31 17 -18.6574 -0.2477
3 31 19 -1.7704 1.0621
3 31 21 6.5830 -0.7502
3 31 23 -2.4794 1.8240
3 31 25 9.7793 -4.2946
3 31 27 -13.5390 0.7858
3 31 29 -5.7279 1.0314
3 33 5 -18.2178 5.2828
3 33 7 -0.0364 3.9851
3 33 9 -17.2162 6.6415
3 33 11 49.1333 -2.3353
3 33 13 -18.0131 1.9355
3 33 15 -17.7532 0.0562
3 33 17 32.4870 1.2911
3 33 19 12.4464 2.3508
3 33 21 48.3122 -2.4342
3 33 23 25.3975 3.3520
3 33 25 -2.0995 -2.6111
3 33 27 -5.9359 4.6741
3 33 29 1.1544 -2.5217
3 33 31 14.3085 2.5201
3 35 5 -24.8147 -0.4653
3 35 7 19.4924 4.1371
3 35 9 4.8698 -1.6581
3 35 11 -11.6812 -2.6918
3 35 13 -1.3555 -2.2395
3 35 15 -0.6200 -0.4854
3 35 17 14.3929 2.0378
3 35 19 -5.6052 -0.3036
3 35 21 1.0867 -1.3720
3 35 23 1.0841 0.0826
3 35 25 -14.6787 0.2891
3 35 27 0.6710 -1.4494
3 35 29 12.9789 -2.0957
3 35 31 -0.4663 2.7223
3 35 33 -7.4151 0.0925
3 37 5 -8.7214 -9.4818
3 37 7 1.0387 1.8659
3 37 9 -36.6224 -6.5986
3 37 11 -23.7337 6.0931
3 37 13 -22.3282 1.0644
3 37 15 -7.5008 2.8014
3 37 17 -12.4917 1.4221
3 37 19 -12.4201 -3.9532
3 37 21 1.7984 1.3187
3 37 23 4.7735 -2.6568
3 37 25 27.3079 5.3962
3 37 27 -6.7428 -3.4344
3 37 29 -17.9924 2.9123
3 37 31 27.2349 -4.5052
3 37 33 -10.1412 -2.3009
3 37 35 2.3151 2.2542
3 39 5 1.4450 -4.8135
3 39 7 -1.9818 6.9580
3 39 9 0.6536 -6.8246
3 39 11 -76.9560 -0.0508
3 39 13 11.5353 -5.7049
3 39 15 27.9066 -2.0703
3 39 17 -5.4482 3.8961
3 39 19 0.9584 -0.1105
3 39 21 9.3505 -0.1678
3 39 23 -0.2229 -2.5825
3 39 25 -22.4974 4.7240
3 39 27 4.8375 -1.5661
3 39 29 0.7575 0.3949
3 39 31 -2.8504 -2.6595
3 39 33 4.9184 3.1595
3 39 35 14.4863 1.7749
3 39 37 5.0602 -5.6579
3 41 5 27.8834 -4.2295
3 41 7 8.8946 -3.8429
3 41 9 -17.2996 8.5096
3 41 11 58.2940 -0.1075
3 41 13 34.0200 4.6659
3 41 15 31.9284 1.1952
3 41 17 17.9739 -3.3363
3 41 19 15.4046 -0.7939
3 41 21 -10.5744 0.4487
3 41 23 -16.4150 2.1290
3 41 25 1.9072 -5.5083
3 41 27 2.9597 2.2545
3 41 29 -50.4299 -1.4809
3 41 31 -5.6226 1.4957
3 41 33 20.6050 -1.1810
3 41 35 -9.7955 -1.6063
3 43 5 -26.4357 3.6296
3 43 7 10.7181 4.3980
3 43 9 20.1165 4.2075
3 43 11 27.7528 -8.0814
3 43 13 -13.1810 0.0529
3 43 15 8.4536 -1.8454
3 43 17 34.8491 4.4872
3 43 19 2.6531 3.3697
3 43 21 -9.2020 -2.5867
3 43 23 -22.1214 0.5732
3 43 25 15.2758 -4.9125
3 43 27 -2.2654 3.0827
3 43 29 -11.4634 -5.1575
3 43 31 14.4149 4.8995
3 43 33 4.8390 0.1366
3 45 5 -0.4559 -4.6116
3 45 7 -18.5050 -7.1736
3 45 9 6.2504 0.2267
3 45 11 -23.7534 2.3797
3 45 13 -15.4373 3.0983
3 45 15 0.9891 -0.0967
3 45 17 -10.4188 -4.9835
3 45 19 18.0100 -1.9559
3 45 21 11.1507 3.1672
3 45 23 -8.3526 1.0329
3 45 25 6.4467 1.6665
3 45 27 4.5540 2.4360
3 45 29 -22.2770 0.8594
3 45 31 -11.3627 -2.8757
3 47 5 -1.3648 -1.3106
3 47 7 8.5821 3.6121
3 47 9 -9.4561 -5.0233
3 47 11 -3.8872 -1.2606
3 47 13 11.2871 -0.9919
3 47 15 -28.4543 -1.6198
3 47 17 5.5260 0.5123
3 47 19 12.3709 1.8174
3 47 21 16.8575 0.9760
3 47 23 8.0450 -3.4932
3 47 25 -7.7179 -0.4587
3 47 27 9.1399 -4.6188
3 49 5 20.2215 -9.4120
3 49 7 14.8081 -0.4876
3 49 9 1.5365 4.8653
3 49 11 63.4134 1.8201
3 49 13 -5.1403 -0.4413
3 49 15 -2.1199 0.7332
3 49 17 4.1432 1.0600
3 49 19 -6.3545 -0.7697
3 49 21 -11.8643 -1.3021
3 49 23 -12.4454 -1.8830
3 51 5 -11.0715 -5.5176
3 51 7 10.8334 3.9870
3 51 9 51.0444 2.4483
3 51 11 7.0187 -3.9204
3 51 13 -4.0417 0.3658
3 51 15 29.6136 0.5785
3 51 17 6.1522 0.1458
3 53 5 12.6511 0.6247
3 53 7 -16.9984 -1.4668
3 53 9 -24.7466 -3.4465
3 53 11 -17.2191 0.4642
3 53 13 11.9013 1.6571
4 4 4 135.2782 -8.3118
4 6 4 -201.9858 -1.4693
4 6 6 -212.6952 -10.3860
4 8 4 246.5197 5.5180
4 8 6 16.0048 -0.9007
4 8 8 240.4737 7.1683
4 10 4 27.4161 -1.6621
4 10 6 60.3686 -4.6890
4 10 8 40.1397 -0.2598
4 10 10 35.7423 3.7943
4 12 4 214.7628 13.1222
4 12 6 10.6961 2.6167
4 12 8 67.8877 -6.2496
4 12 10 -89.2833 -7.9337
4 12 12 94.6719 8.9481
4 14 4 -81.3951 -4.8971
4 14 6 -100.3910 6.0877
4 14 8 -62.9978 10.7212
4 14 10 43.9166 -13.4612
4 14 12 66.7706 -3.1653
4 14 14 -85.2415 9.7368
4 16 4 -1.7677 6.5995
4 16 6 -26.8992 -0.4314
4 16 8 56.4192 -2.5560
4 16 10 -50.9556 7.0555
4 16 12 16.8604 -4.1462
4 16 14 57.8742 0.0222
4 16 16 71.4251 2.1446
4 18 4 58.7596 -7.7179
4 18 6 -0.2806 -0.3698
4 18 8 -51.8669 3.0534
4 18 10 -74.5902 0.4679
4 18 12 10.9289 10.2752
4 18 14 8.6749 -6.9922
4 18 16 6.8181 -10.6496
4 18 18 -70.0691 -0.7280
4 20 4 36.7040 -6.1344
4 20 6 -67.4604 4.8097
4 20 8 -22.0254 -3.9648
4 20 10 -62.6387 -1.7835
4 20 12 -16.1129 2.3437
4 20 14 -28.1727 -2.7926
4 20 16 55.8054 6.9945
4 20 18 37.5120 3.0126
4 20 20 67.1988 4.0970
4 22 4 -2.5950 -3.0304
4 22 6 -6.3525 -1.4715
4 22 8 10.0427 2.4172
4 22 10 16.8367 -7.9322
4 22 12 -2.7251 -2.4862
4 22 14 18.6872 -2.3246
4 22 16 -6.0599 4.4767
4 22 18 11.1373 -0.2612
4 22 20 50.3034 2.5083
4 22 22 -9.4683 3.4956
4 24 4 35.9514 11.9585
4 24 6 -16.8895 -4.4922
4 24 8 2.0340 4.1769
4 24 10 19.7769 4.5384
4 24 12 56.3827 1.2405
4 24 14 -47.8300 0.8844
4 24 16 3.4526 3.6083
4 24 18 -3.9585 -3.0579
4 24 20 16.4181 -2.5394
4 24 22 -12.7271 -2.6609
4 24 24 -2.6704 -10.1293
4 26 4 36.0132 7.1497
4 26 6 18.9379 1.4521
4 26 8 -7.5586 2.7013
4 26 10 -46.2048 -0.7721
4 26 12 9.1104 0.7530
4 26 14 -2.3476 0.5377
4 26 16 -34.8320 6.6317
4 26 18 -28.6537 -3.4428
4 26 20 -23.5849 -3.5617
4 26 22 -3.6523 2.8732
4 26 24 8.1115 -0.6342
4 26 26 -11.0707 -4.5513
4 28 4 9.4679 -1.5923
4 28 6 -10.6593 1.9195
4 28 8 33.7850 -3.4954
4 28 10 34.7569 -7.9026
4 28 12 26.1404 0.3763
4 28 14 -6.9021 -2.5245
4 28 16 18.4042 1.4807
4 28 18 -34.9592 4.4528
4 28 20 17.6889 -0.0719
4 28 22 17.9717 4.1530
4 28 24 10.1437 2.8805
4 28 26 -12.8455 -1.0712
4 28 28 49.8657 0.4568
4 30 4 -32.2719 -5.9227
4 30 6 6.1767 2.6102
4 30 8 6.0999 -3.1464
4 30 10 6.0589 1.6611
4 30 12 6.1765 -0.8204
4 30 14 -31.9275 -4.4595
4 30 16 -27.8555 -0.3414
4 30 18 -22.4673 2.0178
4 30 20 -50.5419 -0.1032
4 30 22 4.4261 2.3508
4 30 24 -41.7075 -8.2070
4 30 26 -6.0131 -3.2116
4 30 28 -8.4173 3.7363
4 30 30 9.6327 1.5406
4 32 4 83.9829 -8.4375
4 32 6 33.2654 -0.4875
4 32 8 16.2586 2.4739
4 32 10 44.1680 -4.2232
4 32 12 17.7812 7.6654
4 32 14 -7.0525 -0.6511
4 32 16 12.3799 -6.7023
4 32 18 -12.0287 0.0600
4 32 20 21.4437 4.4005
4 32 22 18.2327 2.7751
4 32 24 38.5375 -4.0588
4 32 26 -4.7484 -3.4788
4 32 28 22.7248 -1.5004
4 32 30 16.4872 2.3957
4 32 32 34.2796 -0.8438
4 34 4 139.4853 2.7737
4 34 6 -21.9777 3.1623
4 34 8 7.5656 -0.5370
4 34 10 8.1311 3.1814
4 34 12 -35.6586 2.8833
4 34 14 -12.0081 1.8797
4 34 16 -16.5723 2.0227
4 34 18 18.2144 -4.0882
4 34 20 -7.7712 -4.0371
4 34 22 12.3424 1.2260
4 34 24 -23.7177 1.7583
4 34 26 -14.8222 4.8682
4 34 28 -30.2734 2.3204
4 34 30 -10.2949 -1.2417
4 34 32 -13.6190 -4.0513
4 34 34 2.1273 -0.5248
4 36 4 49.2978 -0.7847
4 36 6 6.1020 -0.7970
4 36 8 37.3925 -0.0382
4 36 10 13.0537 -5.1879
4 36 12 14.4975 -1.1842
4 36 14 1.2747 -3.0101
4 36 16 36.1166 -1.0992
4 36 18 4.7491 4.6229
4 36 20 -1.0798 0.9139
4 36 22 21.3482 -1.1316
4 36 24 24.2317 -1.9886
4 36 26 13.4794 -2.5859
4 36 28 14.0301 -4.8855
4 36 30 -20.0148 1.1118
4 36 32 45.4522 3.8326
4 36 34 -5.3239 -1.5304
4 36 36 -13.8302 3.4006
4 38 4 -3.4552 5.0628
4 38 6 5.8476 0.9082
4 38 8 3.1089 -3.5418
4 38 10 6.0571 1.6058
4 38 12 -9.5704 -4.7992
4 38 14 -3.2862 1.1469
4 38 16 0.1195 7.6560
4 38 18 4.5038 3.5262
4 38 20 -21.4058 1.5909
4 38 22 11.6893 0.1737
4 38 24 -5.5955 0.7950
4 38 26 -0.1192 0.9189
4 38 28 11.8011 -1.0853
4 38 30 -32.9100 1.2184
4 38 32 3.9602 1.7448
4 38 34 -6.8737 -4.8652
4 38 36 17.0758 3.2498
4 38 38 -4.6230 -0.4107
4 40 4 43.4005 1.4986
4 40 6 -9.3100 0.3702
4 40 8 23.0292 0.6928
4 40 10 -17.8522 0.0194
4 40 12 -21.3305 1.4473
4 40 14 -0.1006 1.5802
4 40 16 27.9745 -1.2367
4 40 18 -16.5675 -2.0258
4 40 20 20.7436 -1.3579
4 40 22 -31.8228 -0.8970
4 40 24 9.5189 1.5005
4 40 26 19.4227 3.1747
4 40 28 -25.4328 -2.0024
4 40 30 18.6973 -1.1466
4 40 32 29.0859 2.1881
4 40 34 0.6019 0.8252
4 40 36 34.9461 -0.6072
4 42 4 22.2665 -1.6555
4 42 6 15.2308 1.1641
4 42 8 -7.4334 0.7187
4 42 10 -7.3339 0.0765
4 42 12 -18.5589 5.7233
4 42 14 -9.6523 -1.3003
4 42 16 -14.0872 -3.9538
4 42 18 30.5716 -1.2419
4 42 20 -8.0256 0.2717
4 42 22 3.7002 0.4373
4 42 24 -9.4559 -1.3098
4 42 26 -4.5176 -0.4808
4 42 28 8.2810 0.8975
4 42 30 -37.2030 0.7946
4 42 32 13.1478 -1.6350
4 42 34 13.2288 -1.2164
4 44 4 51.3446 -4.4818
4 44 6 -2.7594 1.4700
4 44 8 18.2165 -0.6024
4 44 10 -6.5951 0.7558
4 44 12 -33.2474 3.6402
4 44 14 10.7018 0.1990
4 44 16 16.2838 -2.2548
4 44 18 -12.0704 3.0066
4 44 20 9.1917 -0.6009
4 44 22 -6.6520 2.5226
4 44 24 -22.1515 0.9409
4 44 26 -15.6891 -1.0326
4 44 28 -1.0683 0.5560
4 44 30 -24.1563 1.5692
4 44 32 -33.9542 -0.5138
4 46 4 -8.4541 -4.7019
4 46 6 -1.9421 1.2236
4 46 8 -34.9436 -0.7391
4 46 10 -6.7156 -4.4675
4 46 12 -16.2847 -2.0652
4 46 14 27.8585 -3.3790
4 46 16 -7.6509 -3.2336
4 46 18 -32.1475 4.8184
4 46 20 -2.6728 -1.3782
4 46 22 3.5461 2.3882
4 46 24 17.3725 1.1903
4 46 26 2.7863 -1.8685
4 46 28 0.7666 -1.1317
4 48 4 40.4007 5.4389
4 48 6 -5.7083 1.3832
4 48 8 24.5124 -1.4781
4 48 10 17.4403 3.8213
4 48 12 15.9968 -0.8049
4 48 14 11.5968 3.6367
4 48 16 16.5693 2.9396
4 48 18 18.6008 -0.8616
4 48 20 13.9355 -1.2646
4 48 22 -13.0582 -0.4257
4 48 24 -13.2035 -4.1249
4 48 26 -11.5888 -3.8382
4 50 4 7.0396 4.1982
4 50 6 13.9097 -1.4398
4 50 8 3.5974 0.8520
4 50 10 -11.7253 -0.0541
4 50 12 -22.2506 2.1123
4 50 14 -19.7104 1.2691
4 50 16 2.5800 -0.9715
4 50 18 5.5806 -0.9138
4 50 20 -36.2518 -2.5110
4 50 22 -10.7487 -1.8238
4 52 4 24.6150 5.3840
4 52 6 14.2095 2.4013
4 52 8 2.9953 0.2199
4 52 10 20.3193 -0.6519
4 52 12 -21.0408 -0.1599
4 52 14 -6.4534 -4.1888
4 52 16 3.4875 3.3514
4 52 18 18.7333 -1.1720
5 9 7 -37.6278 -32.1662
5 11 7 114.9757 23.7317
5 11 9 -52.8768 -6.4208
5 13 7 -56.3313 22.5856
5 13 9 -10.9638 -13.3088
5 13 11 -145.0046 17.3747
5 15 7 68.9029 6.5131
5 15 9 73.7769 -1.0306
5 15 11 -48.2882 -1.8339
5 15 13 -16.5724 3.6650
5 17 7 -54.1374 0.6879
5 17 9 2.1624 6.2989
5 17 11 -78.3329 -7.4153
5 17 13 24.9282 -1.8174
5 17 15 9.2130 -6.0067
5 19 7 -147.7960 17.3229
5 19 9 -71.0105 -3.1600
5 19 11 -21.2886 0.6107
5 19 13 -18.4723 -0.4749
5 19 15 -9.5302 0.0713
5 19 17 -18.6837 -0.3849
5 21 7 31.2485 23.9406
5 21 9 5.6355 6.1738
5 21 11 -39.8276 6.7697
5 21 13 53.4308 -8.5125
5 21 15 15.7687 4.5580
5 21 17 32.2790 5.0223
5 21 19 11.8985 2.7189
5 23 7 6.9802 -3.9914
5 23 9 33.0199 -1.1785
5 23 11 21.2025 -7.3336
5 23 13 18.9144 -6.8317
5 23 15 10.9227 -5.3612
5 23 17 -34.5516 -6.7491
5 23 19 -11.4888 1.9906
5 23 21 -8.2212 7.3312
5 25 7 5.0915 -11.9959
5 25 9 14.4084 5.9905
5 25 11 5.7841 -9.1331
5 25 13 23.9709 5.8362
5 25 15 4.7659 2.3725
5 25 17 -19.3324 0.0971
5 25 19 1.2597 -6.6511
5 25 21 -14.1314 -0.2837
5 25 23 -1.6075 -0.8554
5 27 7 -68.1671 -5.6815
5 27 9 -8.3934 -7.2943
5 27 11 -23.5648 -2.2190
5 27 13 7.4011 -2.1311
5 27 15 -0.5454 -5.7105
5 27 17 -10.4212 -0.4844
5 27 19 14.7560 1.0030
5 27 21 -9.6376 1.8016
5 27 23 14.2477 -1.5345
5 27 25 -10.7336 2.1977
5 29 7 -27.2509 12.3814
5 29 9 -49.7805 -0.8458
5 29 11 1.2896 4.1828
5 29 13 9.0352 -7.6885
5 29 15 17.8462 -2.3106
5 29 17 -15.1961 -2.6519
5 29 19 -3.9754 -7.4806
5 29 21 3.4985 -1.6345
5 29 23 23.5948 -3.4476
5 29 25 8.8522 -1.3803
5 29 27 33.6921 -6.8754
5 31 7 -36.6393 -5.9720
5 31 9 6.2564 -2.4782
5 31 11 -33.4645 2.1250
5 31 13 29.0629 -3.5091
5 31 15 -26.0978 -1.8238
5 31 17 -39.6182 -3.2824
5 31 19 2.3082 -1.0973
5 31 21 -20.9558 1.7084
5 31 23 11.2058 -2.0672
5 31 25 -10.4481 1.2404
5 31 27 -13.2862 1.2966
5 31 29 -13.4156 -8.3433
5 33 7 12.1999 -17.9185
5 33 9 15.1904 3.1404
5 33 11 30.4645 -2.2144
5 33 13 5.0852 -3.3479
5 33 15 -6.0322 -2.2025
5 33 17 7.1977 -0.4574
5 33 19 -12.9131 -1.4855
5 33 21 1.0715 0.8491
5 33 23 30.7548 -1.6568
5 33 25 -72.4393 -0.6787
5 33 27 -1.4677 5.2085
5 33 29 -2.0340 -4.4720
5 33 31 -22.8830 3.4851
5 35 7 -31.7275 -4.4328
5 35 9 21.0304 -2.3859
5 35 11 6.1300 0.1205
5 35 13 -31.1227 -1.3888
5 35 15 22.8869 -2.5901
5 35 17 0.3469 -2.8575
5 35 19 -0.6914 -2.4801
5 35 21 15.2145 0.2286
5 35 23 4.5181 0.4990
5 35 25 1.7383 -1.5694
5 35 27 29.3675 -0.1883
5 35 29 -9.0934 0.8216
5 35 31 3.6024 -0.8419
5 35 33 -33.4465 0.5056
5 37 7 -11.9292 6.4717
5 37 9 -2.0424 -5.3035
5 37 11 -15.3015 0.6119
5 37 13 15.8730 1.8762
5 37 15 2.4566 -2.0621
5 37 17 -29.3804 -4.0730
5 37 19 2.8867 1.3457
5 37 21 -12.0332 1.5703
5 37 23 12.7301 -1.4740
5 37 25 -29.2372 -5.1048
5 37 27 -0.8983 -0.1507
5 37 29 22.9526 3.2463
5 37 31 -29.3745 0.0709
5 37 33 -4.6853 -0.8348
5 37 35 -16.3978 1.5384
5 39 7 12.0055 3.4526
5 39 9 -5.1436 5.6551
5 39 11 -64.6932 -3.9701
5 39 13 7.2111 -0.2208
5 39 15 6.8610 2.2051
5 39 17 18.5421 1.1182
5 39 19 -12.3500 -1.8309
5 39 21 43.8167 -3.8516
5 39 23 19.7786 3.2762
5 39 25 4.4547 1.2688
5 39 27 13.2139 4.0227
5 39 29 -1.8588 -3.4151
5 39 31 6.9988 3.8124
5 39 33 1.5933 1.5089
5 39 35 0.2657 -2.8134
5 39 37 -6.5619 -8.8447
5 41 7 -47.1006 -12.2789
5 41 9 48.5466 -1.9514
5 41 11 -12.0397 -1.8628
5 41 13 8.1930 1.3356
5 41 15 49.1303 -3.8052
5 41 17 -23.7255 -3.5337
5 41 19 12.1398 2.8174
5 41 21 1.5011 1.9701
5 41 23 8.2949 -0.1162
5 41 25 -2.7159 -4.6919
5 41 27 -4.6997 2.9748
5 41 29 0.4548 -2.2086
5 41 31 -8.1407 3.5844
5 41 33 -3.7270 -1.4714
5 41 35 -8.0787 1.0337
5 43 7 4.9769 5.5675
5 43 9 8.8541 3.7629
5 43 11 8.2204 1.6517
5 43 13 -4.9895 0.6621
5 43 15 -7.7562 3.6046
5 43 17 4.4118 1.0283
5 43 19 -0.3374 -2.6379
5 43 21 -13.1525 -1.1483
5 43 23 17.8893 1.8975
5 43 25 -3.8240 5.6506
5 43 27 10.2945 1.9269
5 43 29 4.4429 -0.5526
5 43 31 11.9420 0.8182
5 43 33 43.1509 4.2430
5 45 7 -1.9991 12.8668
5 45 9 21.9850 -4.2838
5 45 11 1.2546 3.9372
5 45 13 -11.7920 -2.1312
5 45 15 -10.7169 -1.5883
5 45 17 13.8639 -2.2134
5 45 19 13.2292 2.4716
5 45 21 33.5812 2.9123
5 45 23 12.4375 -3.6813
5 45 25 -4.8742 0.4978
5 45 27 -3.6589 -3.6152
5 45 29 -17.4659 4.3988
5 45 31 32.9062 2.5820
5 47 7 -22.0400 9.9394
5 47 9 2.6251 3.1017
5 47 11 12.8919 -1.2541
5 47 13 15.2842 0.6407
5 47 15 -10.3852 -0.0365
5 47 17 -26.7743 2.8686
5 47 19 -4.8585 -2.1237
5 47 21 29.6050 -3.4971
5 47 23 8.2883 1.9340
5 47 25 -3.9480 1.3247
5 47 27 -20.5611 1.7079
5 49 7 -12.7078 -6.0972
5 49 9 13.8390 -0.4571
5 49 11 -9.3693 -2.4173
5 49 13 18.0805 4.6975
5 49 15 9.5246 -0.3280
5 49 17 -9.1349 -0.2670
5 49 19 -5.2708 0.7690
5 49 21 -18.4790 1.0240
5 49 23 37.2861 4.5530
5 51 7 -10.7569 -1.3096
5 51 9 19.0515 -0.9149
5 51 11 4.4481 -1.5118
5 51 13 4.4260 2.7821
5 51 15 -13.2889 -2.5586
5 51 17 -19.0408 -2.9690
5 51 19 0.1101 1.9165
5 53 7 25.0518 10.4308
5 53 9 26.5068 0.5305
5 53 11 -17.0850 -1.8002
5 53 13 -44.8511 -5.8365
6 6 6 -56.5046 -5.1650
6 8 6 27.6467 4.0034
6 8 8 -5.4342 2.4090
6 10 6 96.7954 0.8317
6 10 8 -98.7373 -5.0085
6 10 10 21.5968 4.5812
6 12 6 -69.4645 5.0542
6 12 8 -27.0623 -7.7023
6 12 10 -103.7017 11.7418
6 12 12 -108.1815 -2.9808
6 14 6 -11.7018 2.7712
6 14 8 -17.3485 3.9149
6 14 10 53.7050 4.3933
6 14 12 -30.8115 9.1025
6 14 14 7.6660 -3.3188
6 16 6 25.8910 -1.6618
6 16 8 79.8583 -3.8943
6 16 10 -8.2382 -0.8035
6 16 12 -4.0200 7.1535
6 16 14 11.6302 -5.1412
6 16 16 36.7732 -11.4392
6 18 6 18.7673 -2.6538
6 18 8 -1.2886 16.6025
6 18 10 17.7056 -6.0067
6 18 12 15.4015 -0.5694
6 18 14 75.9186 8.8072
6 18 16 44.7542 3.8783
6 18 18 61.7579 1.7969
6 20 6 -17.4146 10.0744
6 20 8 13.0787 -0.7586
6 20 10 -23.5509 6.7804
6 20 12 -33.2723 -5.1702
6 20 14 -26.7715 8.4590
6 20 16 -33.8418 -4.1754
6 20 18 70.5067 13.1031
6 20 20 25.0195 17.1740
6 22 6 44.7450 0.4166
6 22 8 -17.0342 0.0964
6 22 10 63.5681 1.9846
6 22 12 -66.0565 2.3229
6 22 14 33.1117 7.8029
6 22 16 -15.4076 -3.4966
6 22 18 77.8434 -10.0760
6 22 20 91.7699 0.6375
6 22 22 -6.6044 -1.7120
6 24 6 -1.8952 -9.5717
6 24 8 -17.6379 -2.1407
6 24 10 22.7989 2.0370
6 24 12 25.4928 -0.6362
6 24 14 -20.2342 -4.1135
6 24 16 -7.2992 5.2303
6 24 18 32.2264 -2.6002
6 24 20 -38.3856 7.4789
6 24 22 1.1777 -2.1538
6 24 24 -23.0005 -0.3191
6 26 6 9.6494 -5.2873
6 26 8 -16.5201 -7.3987
6 26 10 -6.5185 -0.1579
6 26 12 -12.3715 -1.8596
6 26 14 41.8908 -3.5221
6 26 16 -24.5620 0.8910
6 26 18 46.7333 3.9116
6 26 20 7.3678 3.3665
6 26 22 8.7881 0.7471
6 26 24 -13.7010 3.4394
6 26 26 4.6825 -3.3754
6 28 6 -1.1944 2.4456
6 28 8 -47.7961 -2.0478
6 28 10 -35.0097 4.5218
6 28 12 -3.0692 3.3558
6 28 14 -11.3435 6.7026
6 28 16 5.6031 -7.8597
6 28 18 3.6135 -1.6054
6 28 20 -10.4645 -2.6513
6 28 22 -11.2380 -0.9945
6 28 24 -11.8693 -0.5554
6 28 26 8.2619 -3.2870
6 28 28 -9.8010 -1.0269
6 30 6 20.6177 7.1044
6 30 8 13.8872 -2.9373
6 30 10 28.2841 0.7438
6 30 12 -12.1643 -4.5772
6 30 14 44.3800 2.4468
6 30 16 -7.0869 0.3080
6 30 18 -7.7694 1.7761
6 30 20 -7.1132 -6.3682
6 30 22 26.7625 -4.8644
6 30 24 -11.4729 3.6157
6 30 26 13.1309 3.2693
6 30 28 17.8572 -4.5684
6 30 30 10.4584 10.4119
6 32 6 -29.0208 -5.1384
6 32 8 -21.7742 2.3643
6 32 10 9.5799 -5.4497
6 32 12 -15.5667 0.7847
6 32 14 -11.7971 1.5315
6 32 16 -23.8406 4.0938
6 32 18 -44.6558 -0.4185
6 32 20 -18.5086 2.0990
6 32 22 13.0249 -0.5831
6 32 24 12.1547 -0.0134
6 32 26 -17.9120 -1.8222
6 32 28 -10.7652 -6.1773
6 32 30 9.7481 4.2575
6 32 32 28.5069 -2.9107
6 34 6 16.2027 -1.0666
6 34 8 -9.6202 -3.6600
6 34 10 12.8763 1.4547
6 34 12 -27.4875 -3.5038
6 34 14 -2.2776 -5.9166
6 34 16 -11.0990 4.4915
6 34 18 27.2251 0.2771
6 34 20 -29.9807 0.8507
6 34 22 14.6130 -4.2648
6 34 24 -12.9035 0.1962
6 34 26 -16.5385 4.3522
6 34 28 -4.8207 -4.7322
6 34 30 -2.2715 -3.9910
6 34 32 -0.3643 -0.5595
6 34 34 4.8516 -5.4603
6 36 6 -19.6105 -0.4137
6 36 8 -34.9821 -2.3006
6 36 10 -18.6026 0.5110
6 36 12 -53.8208 3.2707
6 36 14 -0.4605 3.6945
6 36 16 -31.9808 -3.9663
6 36 18 -28.4033 -1.4013
6 36 20 9.2681 -1.4614
6 36 22 -30.6542 2.3220
6 36 24 -20.4999 -1.0366
6 36 26 -8.7409 -3.5356
6 36 28 8.3794 1.4039
6 36 30 -3.5883 2.4968
6 36 32 -34.1940 0.3667
6 36 34 7.2191 -4.8492
6 36 36 9.5343 -3.8136
6 38 6 55.1588 3.9531
6 38 8 -9.0769 -5.7482
6 38 10 34.1408 2.9515
6 38 12 -7.7605 -0.3960
6 38 14 23.2205 1.1595
6 38 16 1.7932 -4.7971
6 38 18 26.2895 0.7660
6 38 20 -24.8017 -2.9376
6 38 22 6.7578 0.6605
6 38 24 20.2492 -0.9532
6 38 26 42.0519 0.5239
6 38 28 25.7146 2.2936
6 38 30 14.9946 -4.6340
6 38 32 10.3570 -1.3360
6 38 34 -2.2380 4.1231
6 38 36 -10.1666 1.1541
6 38 38 48.0811 -1.7955
6 40 6 30.5187 -2.4074
6 40 8 -3.1833 0.6113
6 40 10 -3.3560 2.1587
6 40 12 19.1283 0.4611
6 40 14 0.0185 -1.1052
6 40 16 19.6213 2.5062
6 40 18 -9.4473 0.6249
6 40 20 2.5973 0.6829
6 40 22 -6.8621 3.1515
6 40 24 10.7625 -0.7125
6 40 26 21.6202 -0.7569
6 40 28 -9.8521 -1.3823
6 40 30 2.3960 1.9205
6 40 32 -11.2009 -2.4460
6 40 34 -13.9894 -1.9416
6 40 36 24.1782 -0.6146
6 42 6 -15.0644 -2.6702
6 42 8 0.3286 3.4428
6 42 10 12.8575 -2.7371
6 42 12 -16.6614 -1.9035
6 42 14 11.4617 -0.6782
6 42 16 -17.4411 4.9111
6 42 18 30.5213 -0.5301
6 42 20 11.0969 4.3193
6 42 22 9.5331 -1.8920
6 42 24 3.7617 -0.8838
6 42 26 8.2781 -0.3041
6 42 28 -0.5070 -1.5983
6 42 30 16.4103 3.9343
6 42 32 14.4630 -1.0081
6 42 34 9.6265 -2.7007
6 44 6 0.9674 2.6776
6 44 8 16.1022 3.5764
6 44 10 2.9765 -0.4590
6 44 12 9.2173 -1.6793
6 44 14 18.5428 3.7939
6 44 16 13.0336 1.0452
6 44 18 2.1968 4.0431
6 44 20 18.8933 -0.1768
6 44 22 -3.4959 -3.4333
6 44 24 0.6170 2.2229
6 44 26 16.6751 2.8801
6 44 28 9.0394 -2.1804
6 44 30 15.6295 -1.3364
6 44 32 -30.8983 0.4261
6 46 6 -23.6610 3.0576
6 46 8 -10.6956 3.2075
6 46 10 9.7723 1.2544
6 46 12 29.6049 3.1940
6 46 14 26.1668 7.5386
6 46 16 -24.6677 -4.2363
6 46 18 7.5615 2.3529
6 46 20 0.0731 -2.1642
6 46 22 8.3564 1.9373
6 46 24 -3.7823 0.0462
6 46 26 -9.3967 0.8616
6 46 28 -16.4557 0.9985
6 48 6 25.0144 -0.6256
6 48 8 -36.5413 -0.8110
6 48 10 -10.1368 2.7922
6 48 12 -7.0016 -2.8195
6 48 14 6.7381 -2.9155
6 48 16 4.1049 1.5994
6 48 18 -14.6551 0.3209
6 48 20 10.6884 0.0284
6 48 22 -25.1733 1.7919
6 48 24 -4.8391 1.4325
6 48 26 -30.1158 -2.1893
6 50 6 2.7106 -5.7207
6 50 8 -5.6448 1.3289
6 50 10 -10.1147 -1.3706
6 50 12 -2.5523 2.1047
6 50 14 -14.5939 0.1786
6 50 16 13.4408 2.7786
6 50 18 22.4170 0.8536
6 50 20 -33.3481 2.1026
6 50 22 -18.1649 0.0090
6 52 6 18.4230 0.6311
6 52 8 -1.5723 -0.8576
6 52 10 -22.3936 0.5572
6 52 12 -2.6971 0.1175
6 52 14 23.8784 -1.7989
6 52 16 -2.3709 0.1583
7 11 9 -169.4634 1.3056
7 13 9 4.8007 -11.1661
7 13 11 -2.2109 8.2110
7 15 9 19.2603 4.0862
7 15 11 48.9818 -8.3697
7 15 13 -108.1037 4.7349
7 17 9 65.1917 6.2677
7 17 11 78.4895 -4.0829
7 17 13 50.2248 -3.4440
7 17 15 -17.9317 -6.2799
7 19 9 50.3864 -17.0946
7 19 11 197.1010 4.3305
7 19 13 44.9595 12.7454
7 19 15 19.0835 2.9322
7 19 17 17.7655 -8.9682
7 21 9 -80.5145 -13.6214
7 21 11 -13.7354 5.3830
7 21 13 -30.6560 -1.2995
7 21 15 -27.0990 3.6784
7 21 17 10.9473 2.0777
7 21 19 -4.9892 -11.2307
7 23 9 -17.0820 0.3989
7 23 11 22.2294 -1.0071
7 23 13 32.8273 3.1465
7 23 15 19.2514 3.9268
7 23 17 20.4752 2.1469
7 23 19 -1.7133 2.9881
7 23 21 19.4598 4.9116
7 25 9 -10.3806 21.2005
7 25 11 53.6239 -4.0739
7 25 13 1.0106 4.2636
7 25 15 15.0119 -1.5584
7 25 17 11.1520 -3.4264
7 25 19 -18.8794 1.6716
7 25 21 19.0970 -4.9417
7 25 23 -9.6027 9.5978
7 27 9 -11.5324 0.9248
7 27 11 20.3754 -1.4905
7 27 13 25.3999 3.9944
7 27 15 -11.6781 3.6239
7 27 17 -12.3010 0.2512
7 27 19 -18.4864 7.2846
7 27 21 -3.8937 -3.7253
7 27 23 -22.2864 -0.8058
7 27 25 -12.4717 -3.3040
7 29 9 -25.4595 -0.7830
7 29 11 6.9903 5.7835
7 29 13 4.8790 -2.2933
7 29 15 2.6333 3.1145
7 29 17 25.5945 3.7345
7 29 19 -8.2749 3.9655
7 29 21 2.9623 2.8241
7 29 23 2.5495 2.3316
7 29 25 9.6194 2.8549
7 29 27 -16.9280 -7.9695
7 31 9 -19.7520 -1.9282
7 31 11 -15.2782 -1.3919
7 31 13 13.2221 3.5246
7 31 15 23.9563 3.4211
7 31 17 17.0423 5.1107
7 31 19 -17.8959 0.1605
7 31 21 -11.3092 -1.7571
7 31 23 -16.4431 0.9565
7 31 25 -18.7537 1.8291
7 31 27 -10.1070 4.1573
7 31 29 8.1275 7.3727
7 33 9 -18.3750 10.0818
7 33 11 28.2154 -3.8061
7 33 13 -51.5003 0.0006
7 33 15 10.8159 2.2135
7 33 17 12.2758 0.7109
7 33 19 -13.5657 -2.6514
7 33 21 -2.2097 -0.8391
7 33 23 -33.2111 1.5128
7 33 25 -1.1929 -3.2064
7 33 27 -13.2915 -2.6394
7 33 29 -23.6749 0.3285
7 33 31 -7.2408 8.1714
7 35 9 -12.4114 6.9844
7 35 11 28.0176 1.0597
7 35 13 53.4207 -1.1062
7 35 15 -21.3485 3.0268
7 35 17 6.5521 3.0439
7 35 19 0.5216 0.9062
7 35 21 4.5746 -0.1837
7 35 23 -31.1390 0.2300
7 35 25 -25.4518 3.3136
7 35 27 10.0707 -1.0072
7 35 29 22.3937 -3.0934
7 35 31 -32.1372 -1.4195
7 35 33 -7.7649 3.6405
7 37 9 4.4703 -6.4812
7 37 11 33.9937 2.0320
7 37 13 -16.5925 2.7490
7 37 15 18.3024 1.1683
7 37 17 4.8765 -0.0670
7 37 19 0.4263 3.2342
7 37 21 5.7113 3.2787
7 37 23 -17.4296 -2.0371
7 37 25 18.0665 4.0322
7 37 27 -9.5841 1.8192
7 37 29 10.4409 -0.4298
7 37 31 2.5177 -2.6185
7 37 33 -38.0338 0.5945
7 37 35 14.3221 0.0875
7 39 9 -6.0609 6.8459
7 39 11 -29.9852 -0.5475
7 39 13 -3.1667 -0.2000
7 39 15 16.0377 0.1908
7 39 17 -0.3133 0.7221
7 39 19 5.9343 0.9147
7 39 21 10.0947 3.1900
7 39 23 -12.3376 -2.4632
7 39 25 -21.1172 -3.3445
7 39 27 1.2110 -3.0202
7 39 29 -9.1240 2.4856
7 39 31 -10.5511 -0.8145
7 39 33 -9.2749 0.4046
7 39 35 -11.3139 1.2036
7 39 37 -10.4348 -0.1015
7 41 9 2.1320 0.1785
7 41 11 3.4003 -3.6241
7 41 13 5.3219 1.1754
7 41 15 19.9599 -0.2812
7 41 17 8.0551 0.4942
7 41 19 7.0737 -1.4537
7 41 21 0.2788 -1.0655
7 41 23 49.8297 0.0151
7 41 25 14.1828 4.3420
7 41 27 -18.3347 -1.0118
7 41 29 2.2271 -0.9834
7 41 31 10.3587 -1.8135
7 41 33 16.5080 0.3591
7 41 35 -20.1620 -5.8047
7 43 9 -22.1335 -0.1891
7 43 11 7.5488 1.6918
7 43 13 -31.9612 -2.8775
7 43 15 -0.7733 0.8934
7 43 17 13.9768 2.3879
7 43 19 -16.8474 -2.5866
7 43 21 3.2217 -1.8066
7 43 23 -47.0774 1.1524
7 43 25 -17.8908 -1.8676
7 43 27 -6.3227 -2.6530
7 43 29 -12.2178 1.1658
7 43 31 0.6890 -3.8967
7 43 33 -25.3643 -1.4950
7 45 9 5.1974 -13.9606
7 45 11 -4.4750 2.9914
7 45 13 -7.9925 0.2085
7 45 15 8.1668 -0.4514
7 45 17 -5.2803 2.0341
7 45 19 -11.8999 1.4242
7 45 21 -17.2978 -0.4039
7 45 23 8.1960 -1.4413
7 45 25 13.1780 -0.9244
7 45 27 -1.7218 0.5247
7 45 29 29.5983 0.6747
7 47 9 -37.8330 -0.3936
7 47 11 -1.6292 -0.0827
7 47 13 25.5299 0.8155
7 47 15 -12.6384 -1.0341
7 47 17 -13.3972 0.0863
7 47 19 8.7749 -0.0416
7 47 21 9.0156 0.5527
7 47 23 17.3870 2.8583
7 47 25 3.2970 0.5972
7 47 27 27.9437 0.8581
7 49 9 -48.2139 4.8173
7 49 11 -23.8002 -4.2818
7 49 13 -10.8585 -0.7774
7 49 15 0.1018 0.6027
7 49 17 16.3633 -1.4183
7 49 19 -5.5336 1.2165
7 49 21 -11.7062 -3.4253
7 49 23 -43.1671 0.2232
7 51 9 13.0361 3.2547
7 51 11 -15.5993 -1.3102
7 51 13 -11.6138 0.1178
7 51 15 8.5343 -0.2372
7 51 17 38.9884 0.4985
7 51 19 24.2735 1.2997
7 53 9 -11.5544 -5.1978
7 53 11 5.1571 4.4123
7 53 13 -10.1642 1.4150
8 8 8 -155.2003 -4.5372
8 10 8 -157.4396 -2.0934
8 10 10 41.9905 -1.1958
8 12 8 57.8171 -13.2107
8 12 10 -13.1901 5.7739
8 12 12 48.5187 11.1194
8 14 8 -15.1252 3.0095
8 14 10 -56.3730 -1.4312
8 14 12 -35.5862 -3.3589
8 14 14 -171.3250 -16.5373
8 16 8 92.8243 -10.6254
8 16 10 -15.9372 -5.7893
8 16 12 43.2627 5.5248
8 16 14 -3.5631 3.4949
8 16 16 111.8454 -15.8631
8 18 8 -10.3808 10.2410
8 18 10 27.6930 -7.8492
8 18 12 0.9573 -3.2743
8 18 14 -42.7086 -0.0287
8 18 16 21.4145 6.6707
8 18 18 -29.0717 20.2143
8 20 8 121.9356 -11.1451
8 20 10 2.8302 -4.5274
8 20 12 34.2729 -3.2253
8 20 14 -48.9570 2.6978
8 20 16 59.2556 -18.6240
8 20 18 -33.8804 0.7210
8 20 20 60.6490 -9.3312
8 22 8 39.7797 7.8131
8 22 10 -15.3365 0.8086
8 22 12 -33.3936 -4.5838
8 22 14 10.6479 1.4566
8 22 16 -3.0752 -3.5863
8 22 18 13.0653 7.3811
8 22 20 1.3219 -8.6689
8 22 22 15.7160 -4.9509
8 24 8 -1.8403 -4.8488
8 24 10 -0.6562 3.4477
8 24 12 42.6360 0.1199
8 24 14 -26.3089 0.6939
8 24 16 91.7702 -0.5734
8 24 18 -18.5199 -3.5247
8 24 20 22.3598 2.4427
8 24 22 34.7939 -0.6028
8 24 24 29.9947 -0.4686
8 26 8 17.5994 -4.7659
8 26 10 26.5789 6.2642
8 26 12 12.9765 -2.7995
8 26 14 10.5684 -2.4070
8 26 16 45.0683 -2.7260
8 26 18 35.7236 0.0007
8 26 20 11.4550 -1.0682
8 26 22 -19.5427 -2.5276
8 26 24 -18.8700 1.1337
8 26 26 -0.0783 3.0926
8 28 8 -15.2338 5.2311
8 28 10 -11.2869 4.2045
8 28 12 -1.5528 -2.1243
8 28 14 -11.9978 0.0110
8 28 16 47.5143 1.0628
8 28 18 48.8212 2.3286
8 28 20 44.1129 -0.9703
8 28 22 0.8695 0.4597
8 28 24 -17.3997 0.3849
8 28 26 -23.0884 0.7305
8 28 28 -12.8863 -2.6446
8 30 8 -9.9269 -4.2922
8 30 10 -70.9587 -1.4905
8 30 12 10.5245 3.5268
8 30 14 -27.8696 1.5478
8 30 16 53.4268 -4.3321
8 30 18 -14.8901 2.8078
8 30 20 44.5146 0.7078
8 30 22 0.5682 2.1083
8 30 24 -1.1508 4.5821
8 30 26 5.9636 1.6955
8 30 28 -37.4614 -1.7086
8 30 30 27.8083 -1.6851
8 32 8 -1.3266 15.3182
8 32 10 19.3998 -0.4863
8 32 12 -3.4765 -6.2331
8 32 14 -1.4162 1.3456
8 32 16 5.0266 -0.3083
8 32 18 -33.0718 -0.9547
8 32 20 10.2587 0.3127
8 32 22 9.2846 -0.1685
8 32 24 12.8948 -0.1263
8 32 26 -20.0666 1.1882
8 32 28 8.9944 5.5973
8 32 30 27.3219 -0.0274
8 32 32 3.3243 17.3082
8 34 8 16.5585 -6.2185
8 34 10 9.3805 2.4463
8 34 12 -11.6065 0.0811
8 34 14 -1.0575 2.3704
8 34 16 13.9462 0.0340
8 34 18 -19.6662 -1.8028
8 34 20 -6.5426 4.5562
8 34 22 -0.8745 -0.3051
8 34 24 -11.5014 -0.6233
8 34 26 -12.5937 0.1727
8 34 28 -16.7459 -0.3197
8 34 30 3.9988 -2.9179
8 34 32 4.2991 3.8401
8 34 34 32.0485 -5.4825
8 36 8 27.7902 7.1407
8 36 10 1.3178 3.6857
8 36 12 52.8295 -0.9715
8 36 14 -16.9653 -2.4343
8 36 16 39.2558 1.3557
8 36 18 23.5709 -1.4075
8 36 20 33.2924 -0.3783
8 36 22 -15.4377 0.3275
8 36 24 12.2573 0.9165
8 36 26 30.5359 0.4346
8 36 28 22.4048 3.1718
8 36 30 0.9865 3.2668
8 36 32 9.7300 -2.7981
8 36 34 15.8833 2.1047
8 36 36 -3.1201 -9.3795
8 38 8 -15.2462 -9.6069
8 38 10 0.0164 0.1151
8 38 12 -0.8325 4.7651
8 38 14 -10.9530 -2.0321
8 38 16 -3.4054 -3.2132
8 38 18 -37.5868 -1.0504
8 38 20 -9.3241 1.4028
8 38 22 2.6455 0.7169
8 38 24 -16.9527 0.1183
8 38 26 24.5165 -0.6571
8 38 28 50.5860 0.2841
8 38 30 -2.6167 0.4424
8 38 32 7.8693 0.7129
8 38 34 -17.7022 5.2227
8 38 36 11.8017 -0.0511
8 38 38 26.4103 8.1785
8 40 8 38.3654 2.2283
8 40 10 -2.9479 1.6285
8 40 12 44.0583 -1.3292
8 40 14 -19.0798 -2.0739
8 40 16 -8.9633 1.8890
8 40 18 -6.8535 0.2652
8 40 20 -18.7899 -2.0031
8 40 22 -3.9640 -0.6619
8 40 24 27.4179 -0.1581
8 40 26 21.7449 0.4005
8 40 28 -4.4695 0.6201
8 40 30 31.3338 -1.7105
8 40 32 4.2706 -0.7454
8 40 34 12.8650 -1.2792
8 40 36 -24.6712 0.2958
8 42 8 34.3356 1.6454
8 42 10 48.2108 -2.1317
8 42 12 -15.0825 -2.2895
8 42 14 -7.5252 1.5227
8 42 16 -4.4903 -0.8764
8 42 18 -6.4892 -4.1864
8 42 20 12.8106 0.6097
8 42 22 -10.2745 -1.5431
8 42 24 18.0661 -0.1233
8 42 26 10.0122 -0.8729
8 42 28 -8.3947 0.6273
8 42 30 7.1860 -0.3666
8 42 32 30.7501 3.7686
8 44 8 67.0247 -2.2196
8 44 10 26.7552 -4.4183
8 44 12 15.5997 -1.7867
8 44 14 -11.4419 -0.7573
8 44 16 15.6950 -2.0108
8 44 18 26.5467 -1.6417
8 44 20 26.2928 0.9228
8 44 22 -8.0256 -1.1939
8 44 24 -30.0512 1.7944
8 44 26 7.4600 -0.5402
8 44 28 20.0003 -0.3423
8 44 30 -0.7551 -0.7743
8 44 32 7.5993 0.3351
8 46 8 0.9402 6.0568
8 46 10 45.5950 -2.3680
8 46 12 1.2570 -0.0324
8 46 14 11.6073 1.5240
8 46 16 -3.1161 -1.8610
8 46 18 15.3775 0.1154
8 46 20 -0.8304 -1.2269
8 46 22 -0.3344 -2.0584
8 46 24 11.1618 0.8890
8 46 26 -34.2408 -0.3723
8 46 28 -25.0716 -2.9612
8 48 8 29.8546 -8.3961
8 48 10 -9.8181 -1.4310
8 48 12 3.3966 0.7502
8 48 14 -28.2072 -3.9360
8 48 16 -0.5676 -2.1993
8 48 18 26.3767 -1.4564
8 48 20 22.1946 0.8129
8 48 22 37.1274 -2.5623
8 48 24 9.8688 0.4949
8 50 8 -1.6337 3.8426
8 50 10 6.0759 1.4562
8 50 12 -14.4526 -2.2523
8 50 14 -2.2099 -0.7108
8 50 16 -6.9860 2.4874
8 50 18 1.3031 -0.0548
8 50 20 -1.4873 2.4632
8 52 8 0.4803 -5.8780
8 52 10 22.0786 2.7289
8 52 12 46.7944 2.3646
8 52 14 -3.0739 3.8760
8 52 16 18.1805 -2.1301
9 13 11 -114.3269 -17.7444
9 15 11 -74.5772 4.0311
9 15 13 -37.8220 8.8675
9 17 11 11.6284 4.2471
9 17 13 35.8288 -1.0577
9 17 15 -13.8062 6.7026
9 19 11 80.7275 2.4201
9 19 13 33.0684 -9.0770
9 19 15 -19.1614 -0.6778
9 19 17 -0.2308 9.4404
9 21 11 -27.7313 -3.2262
9 21 13 37.3609 -3.1478
9 21 15 9.0072 -5.8940
9 21 17 26.3070 5.8670
9 21 19 18.0869 -7.6705
9 23 11 -21.5926 2.7788
9 23 13 31.0279 -0.2027
9 23 15 29.7647 -1.1184
9 23 17 25.4904 -5.3847
9 23 19 -42.2195 5.2020
9 23 21 -6.6848 4.6136
9 25 11 -3.7746 2.9332
9 25 13 41.7981 3.0239
9 25 15 32.0019 5.4730
9 25 17 -6.5007 -0.2105
9 25 19 -9.1435 -0.0579
9 25 21 -0.3083 -3.7008
9 25 23 14.4809 11.8487
9 27 11 -9.9834 -5.3124
9 27 13 -8.1713 -4.2258
9 27 15 3.9236 1.2556
9 27 17 -1.5517 -1.6038
9 27 19 8.8556 -2.4242
9 27 21 28.1892 -3.6296
9 27 23 20.1953 -1.1746
9 27 25 9.4876 -8.4942
9 29 11 -36.1426 -0.7218
9 29 13 -16.3391 -0.6102
9 29 15 29.2022 -3.4412
9 29 17 -8.2483 -0.7422
9 29 19 -31.9502 -1.6224
9 29 21 -28.7913 0.3641
9 29 23 21.4975 2.3879
9 29 25 -10.8055 2.7208
9 29 27 -4.7107 -4.0600
9 31 11 -77.6516 2.7617
9 31 13 14.4279 0.6036
9 31 15 -1.1787 -2.3999
9 31 17 -9.9739 -1.6883
9 31 19 -27.0699 0.6513
9 31 21 -20.3374 -0.9688
9 31 23 16.7102 1.4654
9 31 25 -3.3425 3.2497
9 31 27 22.1836 -2.5612
9 31 29 1.2213 -0.5780
9 33 11 14.6429 1.0521
9 33 13 33.3076 1.1813
9 33 15 2.8759 2.9250
9 33 17 10.4750 -3.1116
9 33 19 -14.8847 4.6238
9 33 21 1.0675 0.0489
9 33 23 -15.3048 -1.7224
9 33 25 2.7753 -2.5154
9 33 27 -9.0479 0.7081
9 33 29 4.7306 -1.7916
9 33 31 -10.0614 -5.5591
9 35 11 32.3049 -2.0507
9 35 13 10.4598 0.8563
9 35 15 19.0947 0.3124
9 35 17 -9.7882 -1.7861
9 35 19 5.8481 1.6774
9 35 21 14.0842 0.8714
9 35 23 -5.1503 1.1074
9 35 25 -1.8415 -2.2595
9 35 27 2.8255 2.2616
9 35 29 -39.4189 3.5486
9 35 31 -48.9088 -0.8296
9 35 33 -14.8159 -2.4673
9 37 11 -3.4194 -5.5540
9 37 13 49.7417 -1.7473
9 37 15 -17.6876 -0.7276
9 37 17 0.2552 -1.0690
9 37 19 -0.9872 -3.5358
9 37 21 14.6971 -4.2631
9 37 23 -4.6183 1.9775
9 37 25 -2.0024 2.6714
9 37 27 11.3446 -1.9805
9 37 29 -17.3907 -1.6205
9 37 31 -23.6188 0.0900
9 37 33 -28.7379 -1.0021
9 37 35 -16.3703 -3.5761
9 39 11 -32.2874 0.0163
9 39 13 1.4507 0.2397
9 39 15 0.8015 0.0563
9 39 17 -0.2276 -0.4814
9 39 19 -4.5575 -1.4477
9 39 21 -28.6872 -2.0711
9 39 23 6.3589 0.0179
9 39 25 1.3750 -0.1059
9 39 27 -39.4104 -1.6115
9 39 29 26.9926 2.0080
9 39 31 -18.5420 -0.6339
9 39 33 2.0764 2.1725
9 39 35 10.8410 -0.3444
9 39 37 20.5257 6.0544
9 41 11 -0.0134 3.5258
9 41 13 26.7900 1.3751
9 41 15 -21.0821 0.6778
9 41 17 -6.5495 -1.4147
9 41 19 -23.6397 3.2784
9 41 21 -10.7381 3.0263
9 41 23 -26.8942 -2.2215
9 41 25 -32.8742 -0.2127
9 41 27 -25.7378 1.8854
9 41 29 -30.0423 0.1859
9 41 31 7.5526 -1.2237
9 41 33 16.6908 1.2759
9 41 35 11.0366 0.8785
9 43 11 8.4602 0.9817
9 43 13 39.3940 0.7263
9 43 15 2.6953 -0.4394
9 43 17 24.6442 -0.3082
9 43 19 1.3871 0.5549
9 43 21 9.4622 0.9954
9 43 23 4.7609 0.9937
9 43 25 -31.0473 -0.6430
9 43 27 -14.4165 1.0732
9 43 29 2.3115 -0.1869
9 43 31 -22.7137 -1.4020
9 43 33 15.4327 1.7139
9 45 11 -5.7804 -2.2373
9 45 13 7.7012 -1.5612
9 45 15 -2.8702 -2.2191
9 45 17 -25.4889 -0.0468
9 45 19 15.6647 -1.7391
9 45 21 17.3483 -0.0388
9 45 23 -0.5183 -1.2739
9 45 25 12.0872 -1.9002
9 45 27 -3.6017 -3.4417
9 45 29 9.6532 1.7299
9 47 11 -9.9331 2.0127
9 47 13 6.3321 0.9770
9 47 15 -37.6095 -1.0285
9 47 17 -19.7755 0.4269
9 47 19 -27.3145 0.2233
9 47 21 16.2261 0.2463
9 47 23 5.6245 1.2025
9 47 25 -5.5408 1.6971
9 49 11 -33.9347 4.1649
9 49 13 0.6755 -0.2685
9 49 15 7.1619 1.7673
9 49 17 9.0430 -1.5124
9 49 19 24.6289 -0.3055
9 49 21 -21.3447 0.0967
9 49 23 15.2223 0.7643
9 51 11 -9.9204 -0.1884
9 51 13 9.1561 1.3079
9 51 15 3.5402 0.0237
9 51 17 7.9155 -0.4432
9 51 19 13.0026 2.3306
9 53 11 17.1983 -2.1096
10 10 10 298.9516 8.1573
10 12 10 31.9002 2.6240
10 12 12 -61.4223 1.5838
10 14 10 206.3457 -3.1322
10 14 12 -1.9014 -4.4328
10 14 14 34.1451 -2.3775
10 16 10 -41.5082 7.2073
10 16 12 -30.4536 -14.3459
10 16 14 13.5885 9.9756
10 16 16 -64.8885 5.3952
10 18 10 46.6922 6.6766
10 18 12 18.8512 0.2749
10 18 14 69.7489 -8.9392
10 18 16 -35.5453 -2.7506
10 18 18 60.1212 2.6312
10 20 10 20.1806 3.4650
10 20 12 -36.3560 2.3938
10 20 14 -34.7773 7.6327
10 20 16 -57.3061 1.3907
10 20 18 -14.2533 -10.3310
10 20 20 -57.4519 -4.6633
10 22 10 31.9067 1.0789
10 22 12 -70.8537 -1.8937
10 22 14 75.4945 -2.8534
10 22 16 -9.4647 -0.8959
10 22 18 2.1022 7.4381
10 22 20 -16.0156 4.1386
10 22 22 23.0060 -0.1985
10 24 10 24.2532 0.7853
10 24 12 1.6920 0.9092
10 24 14 24.2918 2.4064
10 24 16 19.6530 7.1112
10 24 18 8.3538 -0.0800
10 24 20 -22.6135 0.6702
10 24 22 13.7697 2.0637
10 24 24 16.9521 -2.7929
10 26 10 8.0516 -3.0667
10 26 12 -32.1427 1.3374
10 26 14 33.1960 3.2638
10 26 16 -29.2134 0.5786
10 26 18 57.8070 -4.8873
10 26 20 -22.7519 -3.0097
10 26 22 -1.9957 1.2414
10 26 24 -21.0838 -0.7649
10 26 26 -31.7084 1.7335
10 28 10 20.1594 -4.5548
10 28 12 -7.5469 -1.4547
10 28 14 -29.8227 -1.1765
10 28 16 6.7865 0.9290
10 28 18 61.4397 1.2383
10 28 20 29.5570 4.0262
10 28 22 -22.2049 0.8917
10 28 24 6.3507 -1.7205
10 28 26 9.0352 -0.8409
10 28 28 -22.8389 -2.2589
10 30 10 -7.3747 2.1705
10 30 12 -28.2295 -0.7895
10 30 14 -12.5661 5.4469
10 30 16 -1.8623 1.9217
10 30 18 43.6591 0.6915
10 30 20 7.1052 1.9457
10 30 22 41.9436 -1.7295
10 30 24 -18.0687 -4.1400
10 30 26 -11.8477 -1.6401
10 30 28 20.8041 1.2701
10 30 30 22.7868 -8.0885
10 32 10 2.9122 0.2346
10 32 12 -21.2990 -1.3186
10 32 14 17.7716 -5.3522
10 32 16 -16.6787 -7.0483
10 32 18 -2.4686 -3.4400
10 32 20 -37.1349 -0.4920
10 32 22 -1.2119 -0.8844
10 32 24 -1.2623 -0.7029
10 32 26 -29.3242 0.8162
10 32 28 -11.2690 0.4985
10 32 30 11.8002 -0.9314
10 32 32 22.9283 3.2218
10 34 10 24.5983 3.1031
10 34 12 7.5912 1.2917
10 34 14 6.6776 3.9830
10 34 16 -12.2978 2.4595
10 34 18 5.2623 -0.0728
10 34 20 -28.5034 -0.5716
10 34 22 20.5315 2.8230
10 34 24 15.5398 0.6233
10 34 26 4.8061 -0.8388
10 34 28 -4.9436 -0.4928
10 34 30 -1.5065 -0.1670
10 34 32 -37.3818 -1.2635
10 34 34 52.1474 1.4630
10 36 10 39.6578 -5.9226
10 36 12 -11.3421 -1.5972
10 36 14 31.7421 -1.4300
10 36 16 -35.8378 1.4743
10 36 18 16.3734 4.3153
10 36 20 -41.0504 -1.4615
10 36 22 37.0455 -2.4975
10 36 24 2.8152 -0.7196
10 36 26 -21.7153 1.6106
10 36 28 -5.2197 -2.1107
10 36 30 -22.7492 -3.4206
10 36 32 10.5619 -0.2528
10 36 34 -8.8551 2.9471
10 36 36 -4.8105 -1.1989
10 38 10 42.4899 -0.4147
10 38 12 32.0698 -2.5433
10 38 14 -4.2248 4.6987
10 38 16 8.2851 5.1947
10 38 18 13.0591 -0.3163
10 38 20 17.0545 0.9040
10 38 22 10.0300 -1.9886
10 38 24 6.7639 0.8379
10 38 26 5.7776 0.3255
10 38 28 6.8408 -0.3521
10 38 30 19.7001 1.3939
10 38 32 20.3327 2.2577
10 38 34 1.8616 -3.2616
10 38 36 5.4570 2.7995
10 38 38 26.3502 2.5769
10 40 10 31.3486 0.2175
10 40 12 0.2768 0.4283
10 40 14 -9.6443 0.5274
10 40 16 -15.6862 0.4038
10 40 18 -18.7592 1.4943
10 40 20 -25.5724 1.8164
10 40 22 20.4860 -0.1340
10 40 24 12.5672 1.1724
10 40 26 11.1718 -1.0056
10 40 28 -10.6060 -0.7693
10 40 30 7.0778 -0.9576
10 40 32 32.2698 2.6746
10 40 34 -3.8478 -0.8614
10 40 36 27.0030 -1.4065
10 42 10 -9.9179 3.9821
10 42 12 38.7583 0.4110
10 42 14 -29.8580 -1.3969
10 42 16 -22.4241 -2.4693
10 42 18 -2.3667 -0.2779
10 42 20 -8.9748 -1.9108
10 42 22 26.9025 -0.1036
10 42 24 10.5826 0.6449
10 42 26 9.9843 1.9173
10 42 28 9.9388 1.8203
10 42 30 0.2940 -1.7583
10 42 32 25.0334 -1.1220
10 44 10 15.3935 4.5684
10 44 12 -19.9555 -0.8755
10 44 14 10.1920 -0.9339
10 44 16 -19.4032 -0.1405
10 44 18 12.2034 -1.0517
10 44 20 -22.1571 2.1406
10 44 22 -21.5487 1.6198
10 44 24 -10.8894 -0.9847
10 44 26 -6.5619 -0.6692
10 44 28 -11.5867 0.2123
10 44 30 -11.8565 2.0539
10 46 10 28.1511 -0.4507
10 46 12 51.7139 -1.6360
10 46 14 23.8574 1.6874
10 46 16 1.8017 -0.7960
10 46 18 30.7112 1.6204
10 46 20 24.2986 3.3427
10 46 22 -13.8007 -1.3591
10 46 24 16.1172 -0.3847
10 46 26 11.0744 -0.5817
10 46 28 3.1829 -2.0419
10 48 10 6.4963 2.1466
10 48 12 17.7011 -0.2837
10 48 14 -22.1390 4.0212
10 48 16 8.4469 1.3573
10 48 18 -16.5153 -2.4644
10 48 20 3.1754 0.8941
10 48 22 3.6426 0.0862
10 48 24 11.0216 -0.0421
10 50 10 39.7832 -1.3336
10 50 12 0.6274 -1.1493
10 50 14 -22.1177 -3.2859
10 50 16 -9.5057 1.5584
10 50 18 22.8483 -0.0368
10 50 20 -7.0348 2.6453
10 52 10 22.1535 0.2328
10 52 12 -1.7615 1.8187
10 52 14 17.6311 2.5778
11 15 13 -54.2143 -5.3088
11 17 13 57.4930 -9.6924
11 17 15 57.9291 -0.0540
11 19 13 -28.2639 2.1185
11 19 15 4.0159 -6.0813
11 19 17 -42.5627 -2.3773
11 21 13 -3.2768 15.5691
11 21 15 10.7063 -0.2416
11 21 17 4.3692 -6.1514
11 21 19 3.5649 0.0665
11 23 13 -17.5798 -13.1366
11 23 15 21.8741 4.9893
11 23 17 -12.6058 2.6878
11 23 19 -25.0419 -1.2105
11 23 21 -33.0269 -4.9603
11 25 13 -18.2089 -13.4743
11 25 15 17.8333 -0.1352
11 25 17 -0.0077 0.8055
11 25 19 6.5663 0.8469
11 25 21 -5.5421 1.4291
11 25 23 9.8823 -8.1116
11 27 13 -28.7473 1.0917
11 27 15 8.4641 1.7280
11 27 17 6.6424 -4.6519
11 27 19 10.5249 -0.9764
11 27 21 2.2122 4.7124
11 27 23 -1.4385 -1.9346
11 27 25 10.5258 6.1491
11 29 13 -32.4094 13.2921
11 29 15 -23.5808 -1.1712
11 29 17 -4.7867 -3.5732
11 29 19 -32.1992 2.1649
11 29 21 -16.0154 -0.5551
11 29 23 -0.7092 -4.7861
11 29 25 -15.3876 -0.7244
11 29 27 -1.9340 6.0882
11 31 13 -15.5821 -2.3906
11 31 15 20.7238 -0.5334
11 31 17 -22.5956 -2.8766
11 31 19 3.9781 1.7789
11 31 21 -21.6029 -0.4506
11 31 23 0.8904 -0.6251
11 31 25 19.5781 -1.8649
11 31 27 20.2068 0.3815
11 31 29 50.2580 -0.9119
11 33 13 -31.0830 -7.4231
11 33 15 -32.1247 0.8290
11 33 17 2.9611 -5.0776
11 33 19 -11.2653 -0.3880
11 33 21 11.1302 -1.5576
11 33 23 7.9138 0.4597
11 33 25 -24.0920 1.9109
11 33 27 5.9744 -2.7664
11 33 29 -14.6007 2.0142
11 33 31 -17.8176 -0.2682
11 35 13 -7.1458 0.3635
11 35 15 19.7866 -0.9293
11 35 17 -16.3578 -0.4639
11 35 19 6.3790 -0.0607
11 35 21 9.2213 0.1455
11 35 23 3.8556 -0.8318
11 35 25 -12.9404 0.2708
11 35 27 2.1229 0.2388
11 35 29 -25.6499 -2.5715
11 35 31 -16.1151 3.8283
11 35 33 -21.4564 0.1520
11 37 13 -43.8799 4.9027
11 37 15 -5.9409 0.5817
11 37 17 5.2615 -0.4573
11 37 19 -7.7823 2.4563
11 37 21 -11.8608 1.2882
11 37 23 17.4656 -2.2233
11 37 25 18.6592 -2.5728
11 37 27 21.7861 1.8255
11 37 29 -0.5589 0.2701
11 37 31 -20.0053 3.1033
11 37 33 -31.4620 0.2386
11 37 35 10.3700 2.1647
11 39 13 22.6690 -0.8655
11 39 15 -2.5866 1.6232
11 39 17 18.4112 -0.2535
11 39 19 -15.5876 0.9241
11 39 21 -4.2845 -1.9037
11 39 23 -31.8275 1.4762
11 39 25 -16.8375 1.5864
11 39 27 -7.5938 0.1114
11 39 29 -3.2188 -2.5914
11 39 31 -25.8342 -1.5349
11 39 33 -5.0962 -0.3762
11 39 35 -10.6252 -1.5729
11 39 37 -23.9317 -3.2799
11 41 13 -9.9920 -7.0075
11 41 15 20.5601 2.1914
11 41 17 -33.4034 -1.6081
11 41 19 5.0645 -0.3134
11 41 21 -30.9217 -0.0374
11 41 23 24.6402 2.2658
11 41 25 -47.1496 -2.4116
11 41 27 -18.1078 -0.4102
11 41 29 -15.8661 2.5197
11 41 31 23.9257 4.8782
11 41 33 4.2036 -0.2975
11 41 35 -7.9082 1.5154
11 43 13 -7.2607 0.8196
11 43 15 19.7736 -1.3604
11 43 17 9.9958 0.2191
11 43 19 10.6955 0.6647
11 43 21 41.1556 -4.1929
11 43 23 16.0400 0.8895
11 43 25 -10.5632 3.0806
11 43 27 13.0529 0.2814
11 43 29 13.5485 -0.6829
11 43 31 24.8232 -0.0265
11 45 13 10.7866 5.5170
11 45 15 3.1021 -0.2510
11 45 17 13.5722 -1.1881
11 45 19 -7.2694 0.6561
11 45 21 25.6419 2.3693
11 45 23 13.8313 -0.3382
11 45 25 -19.2791 1.3252
11 45 27 18.4368 1.2452
11 45 29 -26.0185 -1.8179
11 47 13 -10.9481 0.8700
11 47 15 19.2072 0.8194
11 47 17 -52.5130 -0.3751
11 47 19 -29.9779 0.5456
11 47 21 35.8423 -0.4353
11 47 23 5.9862 -0.4974
11 47 25 -26.1646 0.6347
11 49 13 7.9966 -9.2485
11 49 15 19.0463 2.4729
11 49 17 2.1687 2.2005
11 49 19 -10.5503 -1.2026
11 49 21 -17.0621 0.1653
11 51 13 -7.6485 -3.0657
11 51 15 2.1722 1.0858
11 51 17 27.4840 1.1778
12 12 12 -1.1890 -28.0918
12 14 12 30.0184 4.4821
12 14 14 -10.2715 3.4711
12 16 12 127.8182 -7.9708
12 16 14 18.5562 -0.1045
12 16 16 30.1659 2.2406
12 18 12 14.1765 16.2032
12 18 14 19.5053 5.8775
12 18 16 8.4377 11.7946
12 18 18 -39.5027 -20.1221
12 20 12 39.7723 -13.3768
12 20 14 -20.1285 -3.9899
12 20 16 60.9673 8.3566
12 20 18 8.9614 -2.9102
12 20 20 75.3569 -1.3003
12 22 12 -74.1960 -3.6287
12 22 14 -15.0553 6.5313
12 22 16 -46.1335 -1.5861
12 22 18 -29.6947 -1.6077
12 22 20 15.3890 7.1539
12 22 22 -42.6780 3.7909
12 24 12 13.8855 -5.9428
12 24 14 27.4001 -6.8343
12 24 16 51.3410 2.6848
12 24 18 1.4021 -4.6210
12 24 20 29.7144 1.1564
12 24 22 2.7648 0.2286
12 24 24 28.5825 5.2110
12 26 12 -1.7947 -2.1182
12 26 14 -14.3585 -2.4842
12 26 16 -13.1374 1.7007
12 26 18 -39.4499 -2.9763
12 26 20 -6.0645 0.3591
12 26 22 -37.2304 -4.9943
12 26 24 0.7981 -0.7271
12 26 26 -39.5922 5.3469
12 28 12 1.7563 0.3771
12 28 14 -13.0458 2.6740
12 28 16 6.3015 -4.9982
12 28 18 -55.1410 2.2647
12 28 20 4.0018 5.1583
12 28 22 -33.9900 -0.5334
12 28 24 -18.6358 0.9703
12 28 26 4.4207 1.9218
12 28 28 -2.0137 5.4487
12 30 12 -3.3804 -14.2996
12 30 14 8.5979 -1.0034
12 30 16 -8.4471 0.8661
12 30 18 -3.3227 -2.3405
12 30 20 -1.8470 -6.8910
12 30 22 -17.7164 1.3723
12 30 24 10.2681 1.4363
12 30 26 12.4806 -2.2759
12 30 28 -12.3515 1.3149
12 30 30 37.2368 5.6299
12 32 12 -10.5640 28.4812
12 32 14 -34.1577 0.8751
12 32 16 28.6300 2.8543
12 32 18 -55.9654 5.1320
12 32 20 3.1372 -0.4315
12 32 22 -19.3437 -0.4499
12 32 24 27.0317 0.5888
12 32 26 -16.2353 -2.2443
12 32 28 28.3222 -1.5068
12 32 30 -6.7177 -0.2747
12 32 32 -24.1642 -18.7069
12 34 12 -22.2126 -4.1745
12 34 14 -13.8308 -7.2144
12 34 16 -11.4275 4.4856
12 34 18 -52.4867 0.8540
12 34 20 -7.8893 -3.0065
12 34 22 -11.4438 0.7150
12 34 24 3.0274 1.2389
12 34 26 -5.4145 -2.5936
12 34 28 -17.8739 3.1216
12 34 30 -14.8478 4.0056
12 34 32 -32.3442 -4.6463
12 34 34 -13.9067 8.6851
12 36 12 3.7841 2.6909
12 36 14 2.3489 6.1303
12 36 16 -12.6528 -10.2077
12 36 18 -28.9409 0.0747
12 36 20 27.5906 0.9587
12 36 22 -14.1792 0.3286
12 36 24 23.6103 0.3708
12 36 26 -19.8795 -2.1718
12 36 28 3.9423 -1.7008
12 36 30 -41.0117 -0.0333
12 36 32 3.0881 0.9933
12 36 34 -8.8770 -1.8173
12 36 36 13.7732 10.1940
12 38 12 -31.0805 -22.4910
12 38 14 -50.5950 0.3907
12 38 16 20.0364 -5.5122
12 38 18 -5.4094 -3.6495
12 38 20 -5.6483 1.4302
12 38 22 21.8471 -0.7452
12 38 24 -41.3420 0.4830
12 38 26 -14.7001 0.6898
12 38 28 -30.0379 -0.0464
12 38 30 -3.1259 1.9965
12 38 32 -24.9855 -1.8054
12 38 34 -6.4119 -5.2909
12 38 36 2.7436 -0.7747
12 40 12 -22.6338 4.4165
12 40 14 -14.7616 1.0981
12 40 16 35.0101 -1.6423
12 40 18 -9.3137 0.2982
12 40 20 38.0633 3.1836
12 40 22 16.4458 0.2550
12 40 24 28.0016 0.3515
12 40 26 -18.5176 0.5792
12 40 28 18.1485 -0.5000
12 40 30 -0.1752 1.0262
12 40 32 9.7594 -2.8422
12 40 34 -10.5749 2.0781
12 42 12 -14.6851 8.4378
12 42 14 13.8251 1.6354
12 42 16 -34.8642 4.2725
12 42 18 -15.2469 2.2952
12 42 20 5.1936 -2.6270
12 42 22 -13.5095 1.0078
12 42 24 11.0267 -1.4172
12 42 26 11.6846 -2.8036
12 42 28 -16.8355 -0.7015
12 42 30 0.3348 0.6159
12 42 32 -30.0863 -4.4801
12 44 12 20.7627 -3.3743
12 44 14 6.6292 2.5570
12 44 16 -6.8488 1.1647
12 44 18 -18.3856 -0.1649
12 44 20 9.5915 -1.3872
12 44 22 -19.5523 0.8919
12 44 24 -6.7104 -0.3241
12 44 26 3.7068 -0.3678
12 44 28 13.1173 1.3249
12 44 30 21.7310 1.2572
12 46 12 48.7808 0.7851
12 46 14 27.5545 4.4731
12 46 16 10.9821 -2.7503
12 46 18 -1.2321 2.6898
12 46 20 1.4868 1.1010
12 46 22 -12.0320 -0.5483
12 46 24 -10.9400 0.9944
12 46 26 -1.9935 2.3269
12 48 12 23.0233 -11.4467
12 48 14 43.9058 0.2106
12 48 16 -23.1578 2.9167
12 48 18 18.9701 -2.7938
12 48 20 -4.2498 -2.0816
12 48 22 -11.2846 -1.3072
12 50 12 -20.1345 7.5468
12 50 14 -23.5204 2.1869
12 50 16 13.5470 -2.8618
12 50 18 -36.0183 -4.1554
12 50 20 -4.6489 -0.1677
12 52 12 -17.3938 -14.0812
12 52 14 -38.6324 -2.6322
13 17 15 9.0972 1.9240
13 19 15 20.9118 0.7147
13 19 17 31.2651 2.1403
13 21 15 -31.7857 -7.1078
13 21 17 -4.7381 0.9831
13 21 19 -2.3787 12.6771
13 23 15 6.5797 5.0984
13 23 17 45.4770 -1.5770
13 23 19 -6.2802 -3.4627
13 23 21 29.0669 -4.4442
13 25 15 -11.4575 -1.3210
13 25 17 3.2607 -4.0076
13 25 19 -7.5077 5.0577
13 25 21 0.4948 8.7050
13 25 23 -5.8426 -8.6500
13 27 15 -13.4010 4.4933
13 27 17 5.3274 3.6255
13 27 19 1.7965 -3.4066
13 27 21 2.3381 0.9387
13 27 23 -15.2915 1.2497
13 27 25 3.2454 11.7723
13 29 15 -21.2811 0.3653
13 29 17 -14.0404 3.2472
13 29 19 -0.3242 2.5893
13 29 21 -23.6482 1.7123
13 29 23 -14.5190 -4.2441
13 29 25 -8.9038 0.9835
13 29 27 46.7442 -1.5666
13 31 15 -40.5515 4.4273
13 31 17 -36.7421 1.8763
13 31 19 -16.4892 2.2858
13 31 21 -2.9445 0.3279
13 31 23 13.3794 -1.1912
13 31 25 -20.2944 0.8855
13 31 27 -22.2200 -1.1405
13 31 29 18.2137 -5.9791
13 33 15 4.2362 5.2875
13 33 17 34.6693 -2.9146
13 33 19 11.6767 0.8558
13 33 21 17.2590 -1.4803
13 33 23 6.2235 -0.4985
13 33 25 2.0012 3.5890
13 33 27 1.5785 1.9800
13 33 29 -9.4586 0.0243
13 33 31 1.4904 -3.2168
13 35 15 5.6728 1.8095
13 35 17 32.1351 2.5796
13 35 19 -9.1460 1.6694
13 35 21 -0.3389 -0.7013
13 35 23 -0.3640 0.3333
13 35 25 13.3276 0.8107
13 35 27 -6.0702 0.4972
13 35 29 -10.8254 0.9387
13 35 31 -0.3396 1.5712
13 35 33 2.2533 -1.0618
13 37 15 22.4148 -0.2096
13 37 17 -21.4977 0.6032
13 37 19 -16.6287 -0.4378
13 37 21 -16.4907 2.5975
13 37 23 5.7720 1.7030
13 37 25 28.1464 -1.5093
13 37 27 3.3493 -2.7089
13 37 29 34.7821 0.0062
13 37 31 -5.4559 1.0165
13 37 33 10.7323 -0.5075
13 37 35 -3.5526 2.0661
13 39 15 -16.2831 -1.5024
13 39 17 -22.7230 0.2324
13 39 19 -15.4806 -0.0637
13 39 21 -6.3360 0.7481
13 39 23 11.2749 -1.6693
13 39 25 -4.0925 2.1822
13 39 27 3.9317 1.4681
13 39 29 -20.3264 -1.3113
13 39 31 -6.0947 -2.6216
13 39 33 -15.9317 -3.2202
13 39 35 4.3358 -0.7144
13 41 15 4.1070 3.1426
13 41 17 30.6261 -0.8601
13 41 19 8.1927 0.2609
13 41 21 3.8980 0.9106
13 41 23 9.4001 0.6865
13 41 25 22.5562 -1.4823
13 41 27 -54.1572 1.1170
13 41 29 10.1524 0.0109
13 41 31 -9.8649 0.0033
13 41 33 -11.8429 0.2533
13 43 15 30.4395 -2.5115
13 43 17 21.7270 -2.0661
13 43 19 4.0469 4.5175
13 43 21 -0.4784 -1.9392
13 43 23 -9.6422 -2.9366
13 43 25 1.1563 -2.2477
13 43 27 -5.7903 -2.0426
13 43 29 32.5297 -2.0541
13 43 31 5.7502 2.8377
13 45 15 56.2077 2.2902
13 45 17 1.8108 1.2501
13 45 19 -8.4447 -2.0073
13 45 21 12.8236 -2.0261
13 45 23 -25.8597 1.0639
13 45 25 -15.2226 4.4972
13 45 27 0.1314 2.1889
13 45 29 -22.7423 -4.9659
13 47 15 29.9347 -1.4104
13 47 17 14.1127 0.1008
13 47 19 -0.9933 1.1762
13 47 21 2.3896 3.4625
13 47 23 -0.0841 -1.9881
13 47 25 -4.4322 -4.5653
13 49 15 15.0516 0.8640
13 49 17 -6.2775 -0.8150
13 49 19 -23.9045 -2.8334
13 49 21 32.9126 4.8160
13 51 15 6.1345 1.6048
14 14 14 -46.2506 12.4170
14 16 14 -55.0494 0.6622
14 16 16 -11.7284 3.0984
14 18 14 49.2790 0.9348
14 18 16 29.4740 -0.0976
14 18 18 57.2378 -5.4080
14 20 14 -31.7955 6.7675
14 20 16 9.2256 -10.4756
14 20 18 -18.0065 1.0010
14 20 20 -46.3661 -7.4746
14 22 14 68.6999 12.9404
14 22 16 7.3982 -5.7977
14 22 18 82.7061 -1.5543
14 22 20 49.1514 -0.7427
14 22 22 10.0594 3.2160
14 24 14 -87.3383 -3.1834
14 24 16 10.3751 1.7423
14 24 18 -6.4706 -0.7145
14 24 20 -15.2179 2.1830
14 24 22 3.9455 1.8436
14 24 24 -28.8115 -6.1929
14 26 14 67.6302 -4.3386
14 26 16 -14.2303 1.6300
14 26 18 44.6730 -2.4017
14 26 20 1.5164 -0.8473
14 26 22 49.0410 1.0801
14 26 24 -8.3954 -7.7608
14 26 26 34.4472 -6.2538
14 28 14 -9.6740 9.1526
14 28 16 1.1589 -2.1979
14 28 18 -26.3251 -1.9191
14 28 20 -32.7479 0.6935
14 28 22 -14.9157 3.4261
14 28 24 -3.9329 0.9071
14 28 26 -20.5410 3.7529
14 28 28 -24.5745 3.4339
14 30 14 -3.8328 2.3907
14 30 16 -12.8141 1.9558
14 30 18 -4.4749 3.4328
14 30 20 -23.9064 -2.1863
14 30 22 -3.4904 0.6461
14 30 24 -24.6968 -0.5669
14 30 26 41.2345 0.7979
14 30 28 -16.8047 -0.9814
14 30 30 0.1818 -11.2230
14 32 14 -10.8286 -9.9868
14 32 16 -12.0528 -2.2807
14 32 18 4.5777 2.7081
14 32 20 -19.8228 -4.2155
14 32 22 5.6533 0.5253
14 32 24 1.0779 1.1171
14 32 26 21.3520 -2.2183
14 32 28 26.6250 3.6429
14 32 30 7.4305 -0.3972
14 32 32 13.7736 -0.8505
14 34 14 14.6662 -10.0516
14 34 16 -10.7767 3.2832
14 34 18 30.1118 1.6108
14 34 20 -11.0358 4.6256
14 34 22 2.1023 2.8006
14 34 24 -15.9184 2.2821
14 34 26 -2.3607 1.2938
14 34 28 -16.4620 3.5836
14 34 30 -11.3609 3.2481
14 34 32 -14.6996 1.2993
14 34 34 4.7138 5.6191
14 36 14 -12.8859 9.7686
14 36 16 -13.8679 2.2521
14 36 18 6.6645 -2.7432
14 36 20 19.9948 -2.3627
14 36 22 -7.5035 -4.1369
14 36 24 -25.8676 -0.3092
14 36 26 18.0639 0.1638
14 36 28 -3.3649 -2.7576
14 36 30 7.7717 -2.0371
14 36 32 -9.1186 -1.5693
14 36 34 -17.5050 2.3559
14 36 36 -8.3621 7.5881
14 38 14 -2.5657 9.6326
14 38 16 11.1202 1.6461
14 38 18 38.3424 -2.9949
14 38 20 15.4511 2.4535
14 38 22 29.2718 -0.2411
14 38 24 7.7507 -1.3549
14 38 26 12.7639 2.0747
14 38 28 30.0508 -0.1435
14 38 30 15.3939 1.9516
14 38 32 3.3642 1.7462
14 38 34 -9.2571 -0.9578
14 38 36 15.3870 1.0390
14 40 14 -13.7009 -1.8765
14 40 16 35.9174 0.4973
14 40 18 5.9718 -1.0139
14 40 20 9.3885 -0.2214
14 40 22 -9.7892 -0.6072
14 40 24 -8.3980 -0.9394
14 40 26 -11.6499 1.6278
14 40 28 -18.0159 -0.6436
14 40 30 0.7817 0.2398
14 40 32 -24.8440 1.0720
14 40 34 -30.3226 0.8798
14 42 14 -14.1257 -7.4075
14 42 16 17.0045 -0.8062
14 42 18 -15.0872 1.1024
14 42 20 -32.7504 -1.0190
14 42 22 0.5899 -1.2455
14 42 24 -34.4834 1.5181
14 42 26 -8.9163 0.5213
14 42 28 8.6640 -1.1194
14 42 30 7.1012 -0.7127
14 42 32 -15.5211 1.0865
14 44 14 14.5815 2.1200
14 44 16 -18.8926 -3.0830
14 44 18 0.1376 0.7577
14 44 20 -3.7904 1.0675
14 44 22 -60.1037 -2.7567
14 44 24 -26.4192 1.8025
14 44 26 4.6358 0.1535
14 44 28 3.5125 -0.6054
14 46 14 8.9029 6.6206
14 46 16 1.9961 -4.3926
14 46 18 36.5407 -1.1918
14 46 20 0.6568 -0.3492
14 46 22 -17.2022 0.7596
14 46 24 6.6901 0.9257
14 46 26 4.3763 -1.6189
14 48 14 -1.1552 -1.0320
14 48 16 29.5178 2.3492
14 48 18 -19.1040 0.4193
14 48 20 43.5052 2.3236
14 48 22 -6.9222 -3.3372
14 50 14 10.5315 0.5716
14 50 16 -14.5410 -3.8222
14 50 18 15.3222 -2.6167
15 19 17 3.7526 -1.9058
15 21 17 34.2977 -10.5017
15 21 19 22.4664 -4.9264
15 23 17 -10.1247 4.3189
15 23 19 -3.7920 1.4920
15 23 21 -10.5729 -3.4501
15 25 17 5.4383 -0.0005
15 25 19 -20.2498 -1.2445
15 25 21 26.2001 -3.8413
15 25 23 25.2056 7.8597
15 27 17 -17.5845 -1.8697
15 27 19 16.6153 -0.9277
15 27 21 2.1367 -3.9714
15 27 23 -19.1566 -0.9651
15 27 25 20.3556 0.4569
15 29 17 -2.8702 -9.5723
15 29 19 17.7214 -1.3355
15 29 21 5.7054 4.5102
15 29 23 -10.7925 -3.0203
15 29 25 1.4687 3.7426
15 29 27 3.8878 -1.4507
15 31 17 -20.4598 -5.7443
15 31 19 3.6957 3.4099
15 31 21 15.4716 1.9449
15 31 23 -31.2946 -2.3092
15 31 25 0.4340 -0.9205
15 31 27 38.4727 -1.5902
15 31 29 22.8097 3.7010
15 33 17 28.3279 -0.5544
15 33 19 15.1742 0.1471
15 33 21 -18.1412 -0.8155
15 33 23 20.6531 0.4456
15 33 25 0.1590 1.3447
15 33 27 -32.7606 -2.7581
15 33 29 -48.5679 -1.0711
15 33 31 13.7251 -1.0175
15 35 17 18.3922 -2.9015
15 35 19 -2.4956 0.4089
15 35 21 -12.7145 0.1104
15 35 23 -12.0237 0.2891
15 35 25 4.1323 0.4729
15 35 27 -1.6613 -0.9010
15 35 29 37.6099 1.0962
15 35 31 -17.9192 0.9649
15 35 33 13.4447 -0.7878
15 37 17 -21.3797 -4.1934
15 37 19 -24.7988 0.3891
15 37 21 -14.1033 -1.5744
15 37 23 10.1297 -2.4518
15 37 25 -2.7698 -0.3364
15 37 27 17.3628 1.1594
15 37 29 3.1372 -0.7742
15 37 31 18.5354 -0.1556
15 37 33 -20.4444 0.8580
15 37 35 15.3582 -2.0501
15 39 17 21.5233 -1.4862
15 39 19 29.4471 -3.3424
15 39 21 4.1456 0.6133
15 39 23 20.7805 -0.0740
15 39 25 56.5331 1.0737
15 39 27 -37.3945 0.1617
15 39 29 13.8169 -0.1258
15 39 31 -5.3922 0.2209
15 39 33 3.4338 -1.5156
15 39 35 -8.0360 0.3575
15 41 17 33.3466 4.3127
15 41 19 25.2783 1.8455
15 41 21 -23.4669 -2.6722
15 41 23 11.7285 -0.3934
15 41 25 -13.9198 2.6327
15 41 27 -14.7927 -1.2745
15 41 29 -55.3079 -0.0468
15 41 31 5.1493 1.7072
15 41 33 -3.5281 1.6628
15 43 17 37.9051 -4.2078
15 43 19 14.0186 0.1082
15 43 21 -17.6914 1.8388
15 43 23 -9.7929 1.9216
15 43 25 -33.3407 -0.5952
15 43 27 -29.4314 -2.4648
15 43 29 11.8324 4.0325
15 45 17 54.4274 0.4416
15 45 19 10.4340 2.4492
15 45 21 -37.6723 -0.4092
15 45 23 8.1431 -1.7196
15 45 25 1.4689 1.2607
15 45 27 3.0134 -2.2487
15 47 17 1.5905 -1.5652
15 47 19 -6.5309 -1.3520
15 47 21 12.0724 0.7756
15 47 23 -21.8678 -0.3098
15 49 17 13.5776 2.8829
15 49 19 2.4163 -0.7693
16 16 16 43.1720 -8.9042
16 18 16 -11.1378 -3.1926
16 18 18 -55.6550 -1.5981
16 20 16 30.1954 -3.9012
16 20 18 -41.9398 1.0046
16 20 20 12.8845 3.9773
16 22 16 -3.0642 1.3288
16 22 18 -19.0750 3.4055
16 22 20 -2.3907 10.0253
16 22 22 6.7220 -4.1682
16 24 16 27.5077 5.7375
16 24 18 10.8650 -2.1640
16 24 20 43.3437 -5.8431
16 24 22 -5.2814 -2.0920
16 24 24 26.0075 11.0816
16 26 16 -38.3551 5.0165
16 26 18 -7.6728 5.8303
16 26 20 -4.9061 -1.2764
16 26 22 -2.5842 -3.8183
16 26 24 1.4712 5.0525
16 26 26 -45.8157 6.0234
16 28 16 28.3054 4.4898
16 28 18 9.3285 -1.3411
16 28 20 36.6835 5.5551
16 28 22 13.8901 -2.7212
16 28 24 27.1705 -2.0525
16 28 26 25.7962 -3.1198
16 28 28 -17.7576 -2.9847
16 30 16 -0.5114 -8.1511
16 30 18 -70.4500 -4.3428
16 30 20 3.5324 10.1728
16 30 22 13.3993 -3.1854
16 30 24 8.7929 2.4590
16 30 26 -14.2064 0.7552
16 30 28 0.6679 -0.9959
16 30 30 -23.1840 5.3571
16 32 16 6.8783 -10.9594
16 32 18 -29.5600 1.7076
16 32 20 43.8564 -7.6799
16 32 22 -8.7604 -0.3614
16 32 24 18.6576 1.8802
16 32 26 -5.3523 -3.6482
16 32 28 5.0664 0.3204
16 32 30 -1.2698 0.7366
16 32 32 2.8839 4.2357
16 34 16 -23.7931 -6.9986
16 34 18 8.8973 -2.1019
16 34 20 -2.8389 -0.3230
16 34 22 -3.1755 -0.5471
16 34 24 -14.6792 -4.0547
16 34 26 -14.4978 -0.4478
16 34 28 9.1154 -3.2923
16 34 30 16.5257 0.0503
16 34 32 0.2816 -4.5636
16 34 34 28.1750 -5.3731
16 36 16 9.4114 11.2869
16 36 18 -15.4261 1.2786
16 36 20 3.8822 1.7915
16 36 22 -11.7094 1.9297
16 36 24 32.3810 2.3007
16 36 26 -15.7339 1.6955
16 36 28 14.3481 0.3356
16 36 30 -12.9723 1.1509
16 36 32 21.0658 -0.8350
16 36 34 15.9788 2.6949
16 36 36 -19.8186 -10.7877
16 38 16 34.5733 9.1901
16 38 18 4.8210 -1.5327
16 38 20 46.3376 5.7455
16 38 22 24.7133 -2.3193
16 38 24 -17.5215 -1.6847
16 38 26 -15.7825 0.4601
16 38 28 31.9346 -1.0080
16 38 30 -10.8294 -1.5296
16 38 32 14.9048 0.1891
16 38 34 -0.0324 3.3418
16 38 36 -35.6242 -5.2262
16 40 16 29.2848 1.6964
16 40 18 32.6493 2.1199
16 40 20 12.5902 -0.5910
16 40 22 30.8233 2.8896
16 40 24 0.2419 0.5413
16 40 26 -38.6685 -1.3969
16 40 28 13.0449 1.6185
16 40 30 14.2582 0.3260
16 40 32 -18.5480 -2.0256
16 40 34 30.1337 -1.6615
16 42 16 -16.5570 -9.0732
16 42 18 -43.7500 -0.4455
16 42 20 -6.9322 -3.1664
16 42 22 -22.1931 -0.5501
16 42 24 10.9052 0.0064
16 42 26 4.4871 -0.4932
16 42 28 -0.4363 0.8159
16 42 30 -3.7765 0.0186
16 44 16 6.0786 -9.4002
16 44 18 0.4810 -2.4687
16 44 20 -26.2597 4.0142
16 44 22 -11.7653 -0.1135
16 44 24 27.7818 0.4572
16 44 26 -8.6779 0.2314
16 44 28 36.2963 0.6444
16 46 16 -9.0061 0.5499
16 46 18 18.2216 2.1275
16 46 20 16.2798 5.0434
16 46 22 -2.4831 -0.1327
16 46 24 -20.7800 -3.3711
16 48 16 -17.3447 1.7726
16 48 18 16.5995 -4.0415
16 48 20 -5.5830 -1.7671
16 50 16 33.5869 4.5490
17 21 19 9.5341 -7.7955
17 23 19 -23.6478 9.0555
17 23 21 -5.0609 3.9581
17 25 19 -16.0323 -0.3280
17 25 21 -4.9763 -6.0804
17 25 23 14.1054 12.7052
17 27 19 4.6812 9.1028
17 27 21 -12.5334 -0.0206
17 27 23 -27.5533 -3.5389
17 27 25 -1.4664 -12.0975
17 29 19 17.9942 -0.3613
17 29 21 -1.3037 -3.2884
17 29 23 -26.0550 1.9803
17 29 25 -10.0032 5.6122
17 29 27 87.5533 -2.8465
17 31 19 19.3435 2.9609
17 31 21 16.9424 -1.3142
17 31 23 17.5875 0.1608
17 31 25 22.6993 0.9977
17 31 27 14.1480 0.9866
17 31 29 33.7126 5.1506
17 33 19 -16.8526 2.4959
17 33 21 -22.3275 0.0035
17 33 23 -12.6473 -0.4445
17 33 25 -11.5356 -0.3161
17 33 27 17.7323 -2.5504
17 33 29 24.6640 -0.5585
17 33 31 -20.0398 -0.1918
17 35 19 -16.5262 1.4391
17 35 21 -20.8737 0.3071
17 35 23 -18.6786 -1.7291
17 35 25 -12.8852 0.4288
17 35 27 -29.5895 -1.6016
17 35 29 -24.7297 1.4362
17 35 31 2.0225 -1.1680
17 35 33 -46.6068 1.3463
17 37 19 3.1570 2.9499
17 37 21 23.6117 -1.6196
17 37 23 5.5257 -1.1224
17 37 25 1.4090 3.5774
17 37 27 8.6317 1.3962
17 37 29 9.5050 0.3665
17 37 31 14.0832 2.4121
17 37 33 -49.9434 0.5122
17 37 35 -21.9751 -3.5647
17 39 19 -3.9639 -0.1114
17 39 21 -6.7391 -1.5500
17 39 23 0.2104 0.5522
17 39 25 -16.2847 -1.1540
17 39 27 -4.0744 -4.2911
17 39 29 -16.8226 -0.9811
17 39 31 -60.9242 0.6031
17 39 33 -8.2102 1.9975
17 41 19 13.1722 2.7064
17 41 21 -28.6291 2.5438
17 41 23 14.9636 -1.6033
17 41 25 18.2619 0.4770
17 41 27 -33.3220 0.0894
17 41 29 -9.8893 2.3202
17 41 31 18.5987 1.4028
17 43 19 19.3809 -5.0649
17 43 21 32.2345 0.4351
17 43 23 21.3735 1.4852
17 43 25 9.9356 1.8578
17 43 27 -26.4864 1.6039
17 43 29 0.2547 1.3860
17 45 19 2.1294 -0.0444
17 45 21 10.7449 1.4641
17 45 23 3.1792 -3.5325
17 45 25 -0.4070 0.2606
17 47 19 -12.4128 -0.5082
17 47 21 -27.6221 -1.8889
18 18 18 -52.7719 19.6472
18 20 18 -53.3091 -4.5672
18 20 20 26.9190 -3.0555
18 22 18 33.8204 -2.0163
18 22 20 42.3615 1.0501
18 22 22 17.9269 0.0360
18 24 18 -24.7554 6.4724
18 24 20 -36.8863 -1.0182
18 24 22 -4.0052 3.6292
18 24 24 -21.6704 -7.5852
18 26 18 2.2095 2.8975
18 26 20 -15.3315 -6.6334
18 26 22 -1.6752 7.0546
18 26 24 -16.3973 -1.7527
18 26 26 13.2976 -9.2964
18 28 18 -31.0161 -4.2636
18 28 20 12.5717 -4.6114
18 28 22 -15.2920 3.9687
18 28 24 -20.4758 2.6159
18 28 26 7.3194 -2.1760
18 28 28 1.6336 0.1843
18 30 18 38.8393 -11.6137
18 30 20 26.6572 4.3295
18 30 22 25.0929 -10.5018
18 30 24 -45.7991 -1.0993
18 30 26 33.0590 5.4193
18 30 28 -3.2018 -3.1830
18 30 30 -5.4767 -3.4654
18 32 18 -9.9659 18.7451
18 32 20 6.7558 2.7119
18 32 22 22.3135 0.8796
18 32 24 -48.1572 0.2224
18 32 26 -20.5953 2.5559
18 32 28 -20.1768 0.4413
18 32 30 -12.0211 -0.7952
18 32 32 -18.2625 15.8768
18 34 18 -24.5722 1.8917
18 34 20 12.8099 0.9268
18 34 22 23.6014 0.4897
18 34 24 -1.4426 -1.7220
18 34 26 0.7167 2.2685
18 34 28 -4.2482 -3.3037
18 34 30 -7.9679 -4.7667
18 34 32 -13.9330 2.0012
18 34 34 17.5459 -6.7082
18 36 18 -2.8220 -3.4519
18 36 20 -23.4638 -4.2935
18 36 22 2.8277 3.2719
18 36 24 -38.7410 0.4966
18 36 26 2.9523 -2.3172
18 36 28 -17.4940 4.6287
18 36 30 3.5130 0.7596
18 36 32 -31.5366 1.3585
18 36 34 4.7778 -2.6530
18 36 36 -13.2269 -7.6727
18 38 18 24.0726 -16.0298
18 38 20 12.0310 -2.8216
18 38 22 5.4532 -2.3893
18 38 24 -61.8951 -0.5493
18 38 26 -38.1543 -0.1493
18 38 28 -44.4562 -0.8040
18 38 30 -2.0716 0.1487
18 38 32 -8.8090 0.2705
18 38 34 24.9708 1.8769
18 40 18 9.3769 6.0692
18 40 20 8.6761 -0.8472
18 40 22 54.3082 3.8080
18 40 24 -17.0475 1.1534
18 40 26 -2.5422 -0.8809
18 40 28 -16.9092 -0.8026
18 40 30 13.2935 -0.8504
18 40 32 25.8246 -0.6023
18 42 18 -9.7694 11.0557
18 42 20 -8.6736 0.5377
18 42 22 48.2687 -2.5102
18 42 24 14.2120 -1.1726
18 42 26 17.6307 1.4680
18 42 28 19.7230 -1.1626
18 42 30 2.9719 -0.6422
18 44 18 -27.8731 -2.1464
18 44 20 5.5488 3.5001
18 44 22 46.9561 -4.0485
18 44 24 -16.6107 0.9961
18 44 26 33.1985 3.9033
18 46 18 17.0049 -1.9572
18 46 20 -11.4446 -1.3855
18 46 22 8.2089 -3.2729
18 46 24 26.3218 2.6325
18 48 18 -0.2061 -1.5408
18 48 20 8.3232 0.0687
19 23 21 2.3177 1.3597
19 25 21 1.4243 -8.6312
19 25 23 -6.0109 2.8764
19 27 21 -7.1784 1.5784
19 27 23 -6.2107 0.0338
19 27 25 19.8835 3.0664
19 29 21 8.1986 1.8317
19 29 23 11.8563 -2.7052
19 29 25 19.3146 0.3745
19 29 27 -17.2148 -4.5281
19 31 21 15.2708 -1.9500
19 31 23 32.9985 1.6334
19 31 25 -0.1654 1.2828
19 31 27 20.2392 2.1402
19 31 29 30.9128 -1.9384
19 33 21 10.2868 -8.0296
19 33 23 -19.4058 0.7261
19 33 25 -7.5139 0.6592
19 33 27 -18.3510 0.5575
19 33 29 -2.5706 0.1182
19 33 31 22.7725 1.2314
19 35 21 -25.5253 -0.0210
19 35 23 -8.0238 1.2134
19 35 25 -49.3526 1.3509
19 35 27 -12.2506 0.1522
19 35 29 -1.6244 -0.5911
19 35 31 -29.5341 -1.4745
19 35 33 -22.1773 0.5488
19 37 21 8.6922 6.8222
19 37 23 -0.4940 0.5021
19 37 25 3.8963 -0.1235
19 37 27 -14.3787 -0.8423
19 37 29 -2.0879 -0.0275
19 37 31 -14.0128 0.3735
19 37 33 -22.5756 -6.5988
19 37 35 15.4635 1.9840
19 39 21 1.1967 0.0130
19 39 23 -21.9182 -2.0598
19 39 25 1.4089 0.2001
19 39 27 -8.1829 -0.4313
19 39 29 8.7448 0.5198
19 39 31 0.0884 -1.8291
19 39 33 -0.5819 2.4172
19 41 21 -3.8939 -2.3694
19 41 23 -7.1694 2.9498
19 41 25 -4.3583 -0.1863
19 41 27 12.4913 0.7587
19 41 29 -43.0860 0.6591
19 41 31 -34.0711 -0.9243
19 43 21 16.4291 -3.5890
19 43 23 24.5080 -0.7734
19 43 25 -16.8822 -0.3238
19 43 27 -5.4384 0.8345
19 45 21 8.8024 7.1327
19 45 23 -5.3261 -2.7513
19 45 25 -0.8444 -2.6683
19 47 21 -9.2077 0.5975
20 20 20 97.8766 17.5317
20 22 20 47.5130 -1.1728
20 22 22 8.4703 -2.6022
20 24 20 -38.3501 -8.1386
20 24 22 -7.0235 1.4995
20 24 24 8.3352 4.3736
20 26 20 -41.5692 -8.9517
20 26 22 -9.2863 0.5743
20 26 24 21.7239 3.2839
20 26 26 -50.6673 -0.7092
20 28 20 14.5823 -3.3246
20 28 22 12.2570 -1.2926
20 28 24 -35.8188 -1.5686
20 28 26 24.2564 -1.6988
20 28 28 36.4966 -2.4568
20 30 20 11.0046 15.9745
20 30 22 -40.7810 3.5393
20 30 24 -24.3232 1.7895
20 30 26 -20.1430 0.4659
20 30 28 -17.2628 1.5118
20 30 30 -23.0201 14.2085
20 32 20 38.1115 -8.0266
20 32 22 -18.3319 -1.9238
20 32 24 3.4385 2.1483
20 32 26 -18.7162 -2.1261
20 32 28 -15.3368 -5.9382
20 32 30 -20.3851 2.9458
20 32 32 40.4029 -8.5973
20 34 20 13.2727 6.7421
20 34 22 -3.4402 -1.0850
20 34 24 -5.0984 1.1832
20 34 26 9.1157 2.2026
20 34 28 -2.0377 1.3867
20 34 30 -27.4761 7.0865
20 34 32 -14.0189 -3.3289
20 34 34 -21.9800 -4.3985
20 36 20 -27.1569 -9.1847
20 36 22 -7.4577 0.3859
20 36 24 -2.7209 -0.5492
20 36 26 15.3664 -1.7837
20 36 28 17.5675 0.0101
20 36 30 -42.8352 -4.5680
20 36 32 18.4065 2.7096
20 36 34 22.1755 2.3150
20 36 36 23.6432 -1.4128
20 38 20 -23.7462 4.1392
20 38 22 -31.0819 4.0072
20 38 24 -18.4458 -1.8488
20 38 26 -33.2063 -0.3086
20 38 28 -1.3366 1.6279
20 38 30 3.7178 -0.6804
20 38 32 32.2446 2.5369
20 38 34 -11.1069 0.2413
20 40 20 18.3736 -7.3963
20 40 22 -75.1805 -1.8361
20 40 24 8.8234 -0.4198
20 40 26 -36.7290 -0.2197
20 40 28 -12.4767 2.4005
20 40 30 -22.2119 -1.1766
20 40 32 17.8940 -2.1989
20 42 20 6.2821 1.0025
20 42 22 -18.1322 -0.6997
20 42 24 8.4378 3.5950
20 42 26 25.5684 -0.0624
20 42 28 1.0942 -1.2201
20 44 20 15.5720 11.9656
20 44 22 9.8348 -2.7719
20 44 24 2.8648 -2.9910
20 44 26 -15.8911 -2.3174
20 46 20 30.8288 2.1174
20 46 22 -12.1807 -1.5820
21 25 23 7.2055 -10.2418
21 27 23 -0.7130 -0.3203
21 27 25 -12.3630 10.7538
21 29 23 37.6905 -3.1292
21 29 25 -11.1700 1.2448
21 29 27 4.5309 4.3201
21 31 23 31.9738 1.5303
21 31 25 -14.8777 -2.6037
21 31 27 -16.0747 2.3461
21 31 29 4.5622 0.0368
21 33 23 -5.9339 0.3225
21 33 25 -11.5739 -4.3301
21 33 27 -10.9356 -4.1831
21 33 29 12.3728 1.9856
21 33 31 10.9607 0.9683
21 35 23 7.9762 0.2521
21 35 25 -3.5689 0.5619
21 35 27 17.1216 0.4852
21 35 29 21.2744 -3.4711
21 35 31 7.4571 1.9952
21 35 33 15.6929 2.6858
21 37 23 -5.2120 -1.8709
21 37 25 -20.7817 1.7963
21 37 27 -5.0987 4.2117
21 37 29 -18.0212 -2.5569
21 37 31 1.4692 -0.4162
21 39 23 9.0433 -2.2356
21 39 25 -22.3061 1.2616
21 39 27 9.2428 0.6662
21 39 29 -22.9287 -0.6539
21 39 31 19.8892 2.3644
21 41 23 -4.7690 4.7916
21 41 25 26.0231 -1.6818
21 41 27 -42.3246 -0.6160
21 41 29 26.0845 2.5844
21 43 23 11.5509 0.4731
21 43 25 -36.1636 -5.3336
21 43 27 18.8157 2.3210
22 22 22 -28.3778 3.0548
22 24 22 5.9475 -1.3268
22 24 24 1.1624 0.8753
22 26 22 57.6103 -1.6063
22 26 24 10.9568 -1.8378
22 26 26 -26.9994 -3.7394
22 28 22 -5.8393 2.3403
22 28 24 51.2308 3.7773
22 28 26 -11.3524 1.7273
22 28 28 -22.5693 2.2603
22 30 22 17.6897 -0.4928
22 30 24 -1.1476 -2.9485
22 30 26 2.5067 -4.1428
22 30 28 12.8345 -0.5339
22 30 30 18.3700 -2.3289
22 32 22 -9.9064 -0.7182
22 32 24 -17.5701 -2.2505
22 32 26 -20.4797 3.1128
22 32 28 -5.0496 0.7210
22 32 30 -8.2048 -2.6449
22 32 32 0.9483 -0.1486
22 34 22 0.5750 -2.6517
22 34 24 10.2493 -0.7540
22 34 26 10.8985 -1.3536
22 34 28 -11.2417 -2.0423
22 34 30 -12.5267 2.0632
22 34 32 34.4442 -1.1365
22 34 34 60.0121 0.5201
22 36 22 -56.3725 4.5772
22 36 24 -5.9852 1.0989
22 36 26 8.4545 1.0208
22 36 28 10.6738 1.1598
22 36 30 19.8846 -1.9409
22 36 32 -7.9286 -0.0841
22 38 22 -26.0734 3.2240
22 38 24 -3.9082 1.0866
22 38 26 -10.5671 -2.3570
22 38 28 -1.9121 1.1343
22 38 30 26.0757 0.9979
22 40 22 -18.4795 -1.0332
22 40 24 -31.1349 0.6678
22 40 26 6.7790 1.6581
22 40 28 -26.9003 -0.8155
22 40 30 16.0017 -0.3835
22 42 22 -45.6328 -3.0589
22 42 24 -9.4665 -1.4923
22 42 26 26.1215 2.4278
22 42 28 -1.0822 -2.5787
22 44 22 -30.3203 0.2839
22 44 24 13.9221 -0.4084
23 27 25 3.5978 -4.2116
23 29 25 -12.7429 -10.6539
23 29 27 -17.6283 0.7927
23 31 25 35.6045 2.1966
23 31 27 -2.6224 -2.0250
23 31 29 8.7028 -0.6792
23 33 25 12.7865 13.4265
23 33 27 41.0247 -0.2305
23 33 29 14.9359 -1.2286
23 33 31 -17.4911 -4.8867
23 35 25 5.9240 -1.7529
23 35 27 -2.8339 -1.8406
23 35 29 -8.8304 4.3570
23 35 31 4.9396 2.6122
23 35 33 -15.1451 -1.7205
23 37 25 32.0283 -9.4032
23 37 27 -8.5151 -0.3845
23 37 29 5.9078 2.3335
23 37 31 7.9423 1.4806
23 37 33 -3.1033 -1.8597
23 39 25 -10.0443 -3.3361
23 39 27 -22.3727 -0.2610
23 39 29 1.8823 0.4057
23 39 31 15.0470 -1.2656
23 41 25 7.4316 6.9456
23 41 27 -0.2202 -0.8233
23 43 25 5.2796 3.0865
24 24 24 -11.1977 8.0971
24 26 24 19.9424 -0.2525
24 26 26 61.2808 0.4716
24 28 24 30.5170 -5.8083
24 28 26 -4.5760 0.6119
24 28 28 1.2905 -1.3763
24 30 24 -19.9895 -0.7314
24 30 26 -24.3327 4.4900
24 30 28 27.6287 3.2898
24 30 30 21.7905 -7.7430
24 32 24 -9.0590 -7.5190
24 32 26 6.1570 -2.9538
24 32 28 -3.9112 5.7242
24 32 30 -12.9670 -2.4898
24 32 32 1.2375 -0.8654
24 34 24 -51.0831 6.7118
24 34 26 6.0343 1.9588
24 34 28 -9.5264 -1.6797
24 34 30 -13.6635 -1.5128
24 34 32 -25.1872 3.0080
24 34 34 -11.2130 5.1559
24 36 24 -8.5526 -6.4200
24 36 26 -2.8008 -3.2010
24 36 28 6.2405 2.9046
24 36 30 -3.1724 0.2241
24 36 32 25.6843 -1.9176
24 36 34 5.2108 0.0540
24 38 24 -43.4374 5.4947
24 38 26 -14.0597 0.2332
24 38 28 30.6513 -2.4324
24 38 30 -20.1638 -0.0189
24 38 32 5.5395 -0.6237
24 40 24 53.7537 0.3139
24 40 26 -4.2854 -1.9052
24 40 28 -15.4423 -3.0634
24 42 24 28.5209 0.6417
24 42 26 25.6796 0.6519
25 29 27 14.2045 5.9836
25 31 27 18.2362 -5.5202
25 31 29 0.2160 7.1648
25 33 27 7.5970 -7.2158
25 33 29 -4.8543 4.4007
25 33 31 -18.4069 1.9236
25 35 27 28.4519 0.3647
25 35 29 -23.2725 0.0299
25 35 31 -42.3625 -1.5342
25 35 33 -18.9089 -2.4034
25 37 27 -13.5667 5.5000
25 37 29 -9.5785 -7.5446
25 37 31 -1.0947 -1.9880
25 39 27 12.1147 2.6527
25 39 29 -18.9323 -2.1182
25 41 27 -45.4497 -6.4390
26 26 26 2.1716 3.8304
26 28 26 -28.5071 0.9199
26 30 26 -17.1206 3.8761
26 30 28 -23.9719 2.9569
26 30 30 55.1778 -7.3839
26 32 26 -30.0217 -4.3600
26 32 28 4.5758 2.1536
26 32 30 -1.6607 0.1991
26 32 32 15.8834 1.3581
26 34 26 7.0015 7.0240
26 34 28 8.2699 -4.5499
26 34 30 -10.0115 -2.5421
26 34 32 -15.9892 0.1110
26 34 34 4.1444 4.9012
26 36 26 -4.5089 -4.9769
26 36 28 12.1276 3.5081
26 36 30 7.5719 3.7370
26 36 32 -34.6708 -0.4993
26 38 26 3.4704 4.2040
26 38 28 -27.8148 -1.2656
26 38 30 -15.6725 -3.0516
26 40 26 22.7520 -0.3421
27 31 29 15.5836 -4.2092
27 33 29 1.0839 -6.1635
27 33 31 -35.1408 -2.7954
27 35 29 -7.3850 2.9954
27 35 31 -39.8232 0.0515
27 37 29 -10.4618 7.7816
28 30 28 7.5920 -2.1752
28 30 30 32.6890 0.5412
28 32 28 2.9184 0.2433
28 32 30 -3.8809 -0.3599
28 32 32 -3.1668 -4.0856
28 34 28 -13.6374 -2.7544
28 34 30 -9.5179 4.8057
28 34 32 19.0634 3.0450
28 36 28 14.9213 4.3193
28 36 30 -11.5121 -4.5022
29 33 31 0.5477 5.4866
30 30 30 -28.3444 10.6206
30 32 30 -14.5794 -6.2446
30 32 32 -33.7403 -3.7410
30 34 30 -27.8134 -0.4435
0 0 0 0.0 0.0
;
_shelx_fab_checksum              97447
_olex2_submission_special_instructions 'No special instructions were received'
_oxdiff_exptl_absorpt_empirical_details
;
Empirical correction (ABSPACK) includes:
- Absorption correction using spherical harmonics
- Frame scaling
;
_oxdiff_exptl_absorpt_empirical_full_max 1.095
_oxdiff_exptl_absorpt_empirical_full_min 0.910
loop_
_space_group_symop_operation_xyz
'x, y, z'
'-x, -y, z'
'-x, y, -z'
'x, -y, -z'
'z, x, y'
'z, -x, -y'
'-z, -x, y'
'-z, x, -y'
'y, z, x'
'-y, z, -x'
'y, -z, -x'
'-y, -z, x'
'y+1/2, x+1/2, -z+1/2'
'-y+1/2, -x+1/2, -z+1/2'
'y+1/2, -x+1/2, z+1/2'
'-y+1/2, x+1/2, z+1/2'
'x+1/2, z+1/2, -y+1/2'
'-x+1/2, z+1/2, y+1/2'
'-x+1/2, -z+1/2, -y+1/2'
'x+1/2, -z+1/2, y+1/2'
'z+1/2, y+1/2, -x+1/2'
'z+1/2, -y+1/2, x+1/2'
'-z+1/2, y+1/2, x+1/2'
'-z+1/2, -y+1/2, -x+1/2'
'x, y+1/2, z+1/2'
'-x, -y+1/2, z+1/2'
'-x, y+1/2, -z+1/2'
'x, -y+1/2, -z+1/2'
'z, x+1/2, y+1/2'
'z, -x+1/2, -y+1/2'
'-z, -x+1/2, y+1/2'
'-z, x+1/2, -y+1/2'
'y, z+1/2, x+1/2'
'-y, z+1/2, -x+1/2'
'y, -z+1/2, -x+1/2'
'-y, -z+1/2, x+1/2'
'y+1/2, x+1, -z+1'
'-y+1/2, -x+1, -z+1'
'y+1/2, -x+1, z+1'
'-y+1/2, x+1, z+1'
'x+1/2, z+1, -y+1'
'-x+1/2, z+1, y+1'
'-x+1/2, -z+1, -y+1'
'x+1/2, -z+1, y+1'
'z+1/2, y+1, -x+1'
'z+1/2, -y+1, x+1'
'-z+1/2, y+1, x+1'
'-z+1/2, -y+1, -x+1'
'x+1/2, y, z+1/2'
'-x+1/2, -y, z+1/2'
'-x+1/2, y, -z+1/2'
'x+1/2, -y, -z+1/2'
'z+1/2, x, y+1/2'
'z+1/2, -x, -y+1/2'
'-z+1/2, -x, y+1/2'
'-z+1/2, x, -y+1/2'
'y+1/2, z, x+1/2'
'-y+1/2, z, -x+1/2'
'y+1/2, -z, -x+1/2'
'-y+1/2, -z, x+1/2'
'y+1, x+1/2, -z+1'
'-y+1, -x+1/2, -z+1'
'y+1, -x+1/2, z+1'
'-y+1, x+1/2, z+1'
'x+1, z+1/2, -y+1'
'-x+1, z+1/2, y+1'
'-x+1, -z+1/2, -y+1'
'x+1, -z+1/2, y+1'
'z+1, y+1/2, -x+1'
'z+1, -y+1/2, x+1'
'-z+1, y+1/2, x+1'
'-z+1, -y+1/2, -x+1'
'x+1/2, y+1/2, z'
'-x+1/2, -y+1/2, z'
'-x+1/2, y+1/2, -z'
'x+1/2, -y+1/2, -z'
'z+1/2, x+1/2, y'
'z+1/2, -x+1/2, -y'
'-z+1/2, -x+1/2, y'
'-z+1/2, x+1/2, -y'
'y+1/2, z+1/2, x'
'-y+1/2, z+1/2, -x'
'y+1/2, -z+1/2, -x'
'-y+1/2, -z+1/2, x'
'y+1, x+1, -z+1/2'
'-y+1, -x+1, -z+1/2'
'y+1, -x+1, z+1/2'
'-y+1, x+1, z+1/2'
'x+1, z+1, -y+1/2'
'-x+1, z+1, y+1/2'
'-x+1, -z+1, -y+1/2'
'x+1, -z+1, y+1/2'
'z+1, y+1, -x+1/2'
'z+1, -y+1, x+1/2'
'-z+1, y+1, x+1/2'
'-z+1, -y+1, -x+1/2'
'-x, -y, -z'
'x, y, -z'
'x, -y, z'
'-x, y, z'
'-z, -x, -y'
'-z, x, y'
'z, x, -y'
'z, -x, y'
'-y, -z, -x'
'y, -z, x'
'-y, z, x'
'y, z, -x'
'-y-1/2, -x-1/2, z-1/2'
'y-1/2, x-1/2, z-1/2'
'-y-1/2, x-1/2, -z-1/2'
'y-1/2, -x-1/2, -z-1/2'
'-x-1/2, -z-1/2, y-1/2'
'x-1/2, -z-1/2, -y-1/2'
'x-1/2, z-1/2, y-1/2'
'-x-1/2, z-1/2, -y-1/2'
'-z-1/2, -y-1/2, x-1/2'
'-z-1/2, y-1/2, -x-1/2'
'z-1/2, -y-1/2, -x-1/2'
'z-1/2, y-1/2, x-1/2'
'-x, -y+1/2, -z+1/2'
'x, y+1/2, -z+1/2'
'x, -y+1/2, z+1/2'
'-x, y+1/2, z+1/2'
'-z, -x+1/2, -y+1/2'
'-z, x+1/2, y+1/2'
'z, x+1/2, -y+1/2'
'z, -x+1/2, y+1/2'
'-y, -z+1/2, -x+1/2'
'y, -z+1/2, x+1/2'
'-y, z+1/2, x+1/2'
'y, z+1/2, -x+1/2'
'-y-1/2, -x, z'
'y-1/2, x, z'
'-y-1/2, x, -z'
'y-1/2, -x, -z'
'-x-1/2, -z, y'
'x-1/2, -z, -y'
'x-1/2, z, y'
'-x-1/2, z, -y'
'-z-1/2, -y, x'
'-z-1/2, y, -x'
'z-1/2, -y, -x'
'z-1/2, y, x'
'-x+1/2, -y, -z+1/2'
'x+1/2, y, -z+1/2'
'x+1/2, -y, z+1/2'
'-x+1/2, y, z+1/2'
'-z+1/2, -x, -y+1/2'
'-z+1/2, x, y+1/2'
'z+1/2, x, -y+1/2'
'z+1/2, -x, y+1/2'
'-y+1/2, -z, -x+1/2'
'y+1/2, -z, x+1/2'
'-y+1/2, z, x+1/2'
'y+1/2, z, -x+1/2'
'-y, -x-1/2, z'
'y, x-1/2, z'
'-y, x-1/2, -z'
'y, -x-1/2, -z'
'-x, -z-1/2, y'
'x, -z-1/2, -y'
'x, z-1/2, y'
'-x, z-1/2, -y'
'-z, -y-1/2, x'
'-z, y-1/2, -x'
'z, -y-1/2, -x'
'z, y-1/2, x'
'-x+1/2, -y+1/2, -z'
'x+1/2, y+1/2, -z'
'x+1/2, -y+1/2, z'
'-x+1/2, y+1/2, z'
'-z+1/2, -x+1/2, -y'
'-z+1/2, x+1/2, y'
'z+1/2, x+1/2, -y'
'z+1/2, -x+1/2, y'
'-y+1/2, -z+1/2, -x'
'y+1/2, -z+1/2, x'
'-y+1/2, z+1/2, x'
'y+1/2, z+1/2, -x'
'-y, -x, z-1/2'
'y, x, z-1/2'
'-y, x, -z-1/2'
'y, -x, -z-1/2'
'-x, -z, y-1/2'
'x, -z, -y-1/2'
'x, z, y-1/2'
'-x, z, -y-1/2'
'-z, -y, x-1/2'
'-z, y, -x-1/2'
'z, -y, -x-1/2'
'z, y, x-1/2'
loop_
_atom_site_label
_atom_site_type_symbol
_atom_site_fract_x
_atom_site_fract_y
_atom_site_fract_z
_atom_site_U_iso_or_equiv
_atom_site_adp_type
_atom_site_occupancy
_atom_site_site_symmetry_order
_atom_site_calc_flag
_atom_site_refinement_flags_posn
_atom_site_refinement_flags_adp
_atom_site_refinement_flags_occupancy
_atom_site_disorder_assembly
_atom_site_disorder_group
Zn1 Zn 0.57997(2) 0.27974(2) 0.62074(2) 0.03018(14) Uani 1 1 d . . . . .
O003 O 0.58347(6) 0.31686(6) 0.64531(6) 0.0513(7) Uani 1 1 d . . . . .
N004 N 0.59537(6) 0.38222(6) 0.71437(6) 0.0326(6) Uani 1 1 d . . . . .
N005 N 0.57996(6) 0.36570(6) 0.73687(6) 0.0324(6) Uani 1 1 d . . . . .
O006 O 0.55103(7) 0.29371(7) 0.67716(7) 0.0611(8) Uani 1 1 d . . . . .
C009 C 0.57626(8) 0.33933(8) 0.69333(9) 0.0406(8) Uani 1 1 d . . . . .
C00A C 0.56853(8) 0.34044(8) 0.72377(8) 0.0394(8) Uani 1 1 d . . . . .
H00A H 0.556936 0.325665 0.733928 0.047 Uiso 1 1 calc R . . . .
C00B C 0.59336(8) 0.36576(8) 0.68846(8) 0.0389(8) Uani 1 1 d . . . . .
H00B H 0.602192 0.371276 0.669815 0.047 Uiso 1 1 calc R . . . .
C00C C 0.56956(9) 0.31494(9) 0.67094(9) 0.0439(9) Uani 1 1 d . . . . .
N2 N 0.53185(15) 0.28940(13) 0.53905(8) 0.099(4) Uani 0.5 1 d D U . A -1
C3 C 0.55520(11) 0.28792(18) 0.55955(12) 0.056(3) Uani 0.5 1 d DG U . A -1
H3 H 0.575765 0.288322 0.553814 0.067 Uiso 0.5 1 calc R . . A -1
N4 N 0.54616(7) 0.28587(16) 0.58838(10) 0.0313(16) Uani 0.5 1 d DG U . A -1
C5 C 0.51439(7) 0.28596(6) 0.58627(6) 0.0412(16) Uani 0.5 1 d DG U . A -1
C6 C 0.49082(6) 0.28436(6) 0.60840(6) 0.0302(13) Uani 0.5 1 d DG U . A -1
N7 N 0.49590(10) 0.28216(9) 0.63858(6) 0.0386(13) Uani 0.5 1 d DG U . A -1
H7A H 0.480669 0.281209 0.651108 0.046 Uiso 0.5 1 calc R . . A -1
H7B H 0.514402 0.281710 0.645467 0.046 Uiso 0.5 1 calc R . . A -1
N8 N 0.46144(6) 0.28501(15) 0.59840(10) 0.0349(17) Uani 0.5 1 d DG U . A -1
C9 C 0.45614(10) 0.28717(18) 0.56818(11) 0.066(3) Uani 0.5 1 d DG U . A -1
H9 H 0.435587 0.287562 0.562389 0.080 Uiso 0.5 1 calc R . . A -1
N10 N 0.47643(14) 0.28884(15) 0.54526(8) 0.098(4) Uani 0.5 1 d DG U . A -1
C11 C 0.50536(12) 0.28816(8) 0.55577(5) 0.081(3) Uani 0.5 1 d DG U . A -1
Cu1 Cu 0.53236(5) 0.30259(9) 0.500000 0.0858(8) Uani 0.5 2 d DS T P . .
Cu0A Cu 0.53149(5) 0.28021(6) 0.500000 0.0623(6) Uani 0.5 2 d DS T P A .
loop_
_atom_site_aniso_label
_atom_site_aniso_U_11
_atom_site_aniso_U_22
_atom_site_aniso_U_33
_atom_site_aniso_U_23
_atom_site_aniso_U_13
_atom_site_aniso_U_12
Zn1 0.0294(2) 0.0294(2) 0.0317(2) -0.00285(17) -0.00015(17) -0.00085(17)
O003 0.0549(17) 0.0511(16) 0.0479(16) -0.0139(13) 0.0021(13) -0.0024(13)
N004 0.0316(14) 0.0349(15) 0.0314(14) -0.0034(11) 0.0033(11) -0.0031(12)
N005 0.0324(14) 0.0298(13) 0.0349(14) -0.0007(11) -0.0003(11) -0.0024(11)
O006 0.071(2) 0.0444(16) 0.068(2) -0.0096(14) 0.0032(16) -0.0153(15)
C009 0.0334(18) 0.042(2) 0.046(2) -0.0090(16) -0.0013(16) -0.0043(15)
C00A 0.045(2) 0.0365(18) 0.0364(18) -0.0039(15) -0.0032(16) -0.0108(15)
C00B 0.0387(19) 0.044(2) 0.0335(18) -0.0137(15) 0.0046(14) -0.0034(16)
C00C 0.0345(18) 0.049(2) 0.048(2) -0.0066(17) 0.0003(16) 0.0033(16)
N2 0.039(5) 0.214(13) 0.043(4) 0.005(6) -0.013(3) 0.016(6)
C3 0.031(4) 0.117(8) 0.021(4) -0.015(4) -0.001(3) 0.008(5)
N4 0.021(3) 0.056(4) 0.018(3) -0.008(3) -0.004(3) 0.005(3)
C5 0.027(3) 0.067(5) 0.030(3) -0.003(3) -0.002(2) -0.001(3)
C6 0.023(3) 0.029(3) 0.038(3) -0.002(3) 0.0030(19) 0.000(2)
N7 0.035(4) 0.050(3) 0.030(2) 0.0023(19) 0.002(3) -0.005(3)
N8 0.035(3) 0.039(4) 0.030(4) -0.010(3) -0.010(3) 0.004(3)
C9 0.029(5) 0.132(9) 0.038(5) -0.013(6) -0.006(4) 0.006(5)
N10 0.030(5) 0.227(13) 0.036(4) -0.006(6) 0.009(3) 0.001(6)
C11 0.044(6) 0.173(9) 0.027(3) -0.005(4) -0.019(3) -0.008(5)
Cu1 0.0417(12) 0.153(3) 0.0622(14) 0.000 0.000 0.0007(17)
Cu0A 0.0466(11) 0.0820(15) 0.0584(12) 0.000 0.000 0.0073(12)
loop_
_atom_type_symbol
_atom_type_description
_atom_type_scat_dispersion_real
_atom_type_scat_dispersion_imag
_atom_type_scat_source
C C 0.0181 0.0091 'International Tables Vol C Tables 4.2.6.8 and 6.1.1.4'
H H 0.0000 0.0000 'International Tables Vol C Tables 4.2.6.8 and 6.1.1.4'
Cu Cu -1.9646 0.5888 'International Tables Vol C Tables 4.2.6.8 and 6.1.1.4'
N N 0.0311 0.0180 'International Tables Vol C Tables 4.2.6.8 and 6.1.1.4'
O O 0.0492 0.0322 'International Tables Vol C Tables 4.2.6.8 and 6.1.1.4'
Zn Zn -1.5491 0.6778 'International Tables Vol C Tables 4.2.6.8 and 6.1.1.4'
loop_
_geom_angle_atom_site_label_1
_geom_angle_atom_site_label_2
_geom_angle_atom_site_label_3
_geom_angle
_geom_angle_site_symmetry_1
_geom_angle_site_symmetry_3
O003 Zn1 N004 97.62(11) . 12_665
O003 Zn1 N005 128.80(12) . 65_445
O003 Zn1 N4 109.0(2) . .
N004 Zn1 N4 101.23(12) 12_665 .
N005 Zn1 N004 106.81(11) 65_445 12_665
N005 Zn1 N4 109.3(2) 65_445 .
C00C O003 Zn1 113.0(3) . .
N005 N004 Zn1 127.1(2) . 6_566
C00B N004 Zn1 125.8(2) . 6_566
C00B N004 N005 106.6(3) . .
N004 N005 Zn1 121.1(2) . 92_455
C00A N005 Zn1 131.0(2) . 92_455
C00A N005 N004 107.8(3) . .
C00A C009 C00B 104.5(3) . .
C00A C009 C00C 128.2(4) . .
C00B C009 C00C 127.2(4) . .
N005 C00A C009 110.6(3) . .
N004 C00B C009 110.5(3) . .
O003 C00C C009 116.1(4) . .
O006 C00C O003 122.9(4) . .
O006 C00C C009 121.0(4) . .
C3 N2 C11 106.3 . .
C3 N2 Cu1 129.1(3) . .
C3 N2 Cu0A 129.6(3) . .
C11 N2 Cu1 121.9(3) . .
C11 N2 Cu0A 120.2(3) . .
Cu0A N2 Cu1 31.94(12) . .
N4 C3 N2 114.0 . .
C3 N4 Zn1 116.59(18) . .
C3 N4 C5 103.5 . .
C5 N4 Zn1 139.53(19) . .
N4 C5 C6 132.9 . .
N4 C5 C11 110.3 . .
C11 C5 C6 116.8 . .
N7 C6 C5 123.7 . .
N7 C6 N8 118.4 . .
N8 C6 C5 117.9 . .
C9 N8 C6 118.8 . .
N10 C9 N8 128.6 . .
C9 N10 C11 111.4 . .
N2 C11 C5 105.9 . .
N10 C11 N2 127.7 . .
N10 C11 C5 126.5 . .
N2 Cu1 Cu1 89.3(2) . 3_656
N2 Cu1 Cu0A 83.2(2) . 3_656
Cu1 Cu1 Cu0A 19.32(6) 3_656 3_656
Cu0A Cu1 N2 71.3(2) . .
Cu0A Cu1 Cu1 87.8(2) . 3_656
Cu0A Cu1 Cu0A 68.5(2) . 3_656
N2 Cu0A Cu1 86.1(2) . 3_656
N2 Cu0A Cu0A 90.5(2) . 3_656
Cu1 Cu0A N2 76.8(2) . .
Cu1 Cu0A Cu1 72.9(2) . 3_656
Cu1 Cu0A Cu0A 92.2(2) . 3_656
Cu0A Cu0A Cu1 19.32(6) 3_656 3_656
loop_
_geom_bond_atom_site_label_1
_geom_bond_atom_site_label_2
_geom_bond_distance
_geom_bond_site_symmetry_2
Zn1 O003 1.945(3) .
Zn1 N004 2.000(3) 12_665
Zn1 N005 1.958(3) 65_445
Zn1 N4 2.055(4) .
O003 C00C 1.273(5) .
N004 N005 1.389(4) .
N004 C00B 1.340(4) .
N005 C00A 1.335(4) .
O006 C00C 1.256(5) .
C009 C00A 1.369(5) .
C009 C00B 1.387(5) .
C009 C00C 1.471(5) .
N2 C3 1.3550 .
N2 C11 1.3653 .
N2 Cu1 1.795(4) .
N2 Cu0A 1.747(4) .
C3 N4 1.3188 .
N4 C5 1.3866 .
C5 C6 1.4097 .
C5 C11 1.3885 .
C6 N7 1.3362 .
C6 N8 1.3518 .
N8 C9 1.3394 .
C9 N10 1.3350 .
N10 C11 1.3408 .
Cu1 Cu1 2.819(5) 3_656
Cu1 Cu0A 2.947(3) 3_656
Cu1 Cu0A 0.976(3) .
Cu0A Cu0A 2.743(5) 3_656
loop_
_smtbx_masks_void_nr
_smtbx_masks_void_average_x
_smtbx_masks_void_average_y
_smtbx_masks_void_average_z
_smtbx_masks_void_volume
_smtbx_masks_void_count_electrons
1 -0.943 -0.770 -0.259 48927.7 5988.6
